data_PCOD8300343
_publ_section_title
;
Structure prediction by ZEFSAII (Michael W. Deem and Ramdas Pophale) SiO2 
 PCOD8300343
Probable space group: I M M A
;
_chemical_formula_sum "Si O2"
_cell_formula_units_Z 96
_cell_length_a 22.959247
_cell_length_b 17.790366
_cell_length_c 12.089414
_cell_angle_alpha 90.000000
_cell_angle_beta 90.000000
_cell_angle_gamma 90.000000
_cell_volume 4937.962340
_symmetry_space_group_name_H-M "I M M A"
_symmetry_group_IT_number 74
_symmetry_cell_setting 'orthorhombic'
loop_
_space_group_symop_operation_xyz
x,y,z
-x,1/2-y,z
x,-y,-z
-x,1/2+y,-z
-x,-y,-z
x,1/2+y,-z
-x,y,z
x,1/2-y,z
1/2+x,1/2+y,1/2+z
1/2-x,-y,1/2+z
1/2+x,1/2-y,1/2-z
1/2-x,y,1/2-z
1/2-x,1/2-y,1/2-z
1/2+x,y,1/2-z
1/2-x,1/2+y,1/2+z
1/2+x,-y,1/2+z
loop_
_atom_site_type_symbol
_atom_site_label
_atom_site_fract_x
_atom_site_fract_y
_atom_site_fract_z
Si Si1 0.660089 0.417433 0.045181
Si Si2 0.625799 0.574311 0.701968
Si Si3 0.932361 0.419473 0.834537
Si Si4 0.731167 0.665242 0.624008
Si Si5 0.066415 0.162568 0.607135
Si Si6 0.433524 0.668713 0.545199
O O1 0.636472 0.418006 0.169166
O O2 0.718562 0.367429 0.043565
O O3 0.675168 0.500000 0.000000
O O4 0.609632 0.382393 0.971267
O O5 0.611573 0.488416 0.678147
O O6 0.677373 0.606801 0.622657
O O7 0.571778 0.625756 0.662721
O O8 0.924813 0.363092 0.732664
O O9 0.000000 0.445912 0.845687
O O10 0.907838 0.378936 0.943482
O O11 0.715457 0.750000 0.583065
O O12 0.750000 0.670045 0.750000
O O13 0.081349 0.250000 0.599292
O O14 0.000000 0.146367 0.568932
O O15 0.500000 0.681834 0.517247
O O16 0.402084 0.750000 0.552564
#
# Coordination Sequence:
#
# PCOD8300343 Si02
#       6
#    16  16  16  16  16  16
#     4  11  22  38  58  88 120 157 196 245 296 355
#     4  11  21  36  58  86 117 150 195 251 300 354
#     4  10  20  36  58  85 118 156 200 245 295 358
#     4   9  20  38  59  80 108 149 195 240 288 346
#     4  10  21  37  59  86 120 164 204 240 294 361
#     4  10  21  36  56  83 116 153 196 246 299 355
#
# _framework density 19.441217000000002
#
# number of rings (size 3 to 8) (size 9 to 14) (size 15 to 20)
#    0.000    1.833    1.667    2.500    0.000    8.333 
#    0.000    1.667    0.000    0.000    0.000    4.667 
#    0.000    0.000    0.000    0.000    0.000    0.000 
#
# Total GULP energy -594919.363727 kJ/mol
# GULP energy per Si atom -12394.153411 kJ/mol
# Density = 1.939697 g / cm^3
# Si number density = 19.441217 Si / 1000 Ang^3
#
#
#
# Elastic Constant Matrix: (Units=GPa)
#
#
# Indices 1 2 3 4 5 6 
#
# 1 65.4974 33.6336 24.8060 0.0000 0.0000 0.0000
# 2 33.6336 111.2252 29.2141 0.0000 0.0000 0.0000
# 3 24.8060 29.2141 89.3985 0.0000 0.0000 0.0000
# 4 0.0000 0.0000 0.0000 29.7173 0.0000 0.0000
# 5 0.0000 0.0000 0.0000 0.0000 20.0832 0.0000
# 6 0.0000 0.0000 0.0000 0.0000 0.0000 20.7991
#
#
#
# Elastic Compliance Matrix: (Units=1/GPa)
#
#
# Indices 1 2 3 4 5 6 
#
# 1 0.019155 -0.004809 -0.003744 0.000000 0.000000 0.000000
# 2 -0.004809 0.011042 -0.002274 0.000000 0.000000 0.000000
# 3 -0.003744 -0.002274 0.012968 0.000000 0.000000 0.000000
# 4 0.000000 0.000000 0.000000 0.033650 0.000000 0.000000
# 5 0.000000 0.000000 0.000000 0.000000 0.049793 0.000000
# 6 0.000000 0.000000 0.000000 0.000000 0.000000 0.048079
#
#
# Mechanical properties :
#
#
# Convention : Reuss Voigt Hill
#
# Bulk Modulus (GPa) = 46.48617 49.04760 47.76688
# Shear Modulus (GPa) = 24.56868 26.01777 25.29322
#
# Velocity S-wave (km/s) = 3.55877 3.66222 3.61087
# Velocity P-wave (km/s) = 6.39136 6.57008 6.48134
#
# Compressibility (1/GPa) = 0.02151178
#
# Stress axis : x y z
#
# Youngs Moduli (GPa) = 52.20539 90.56091 77.11446
#
# Poissons Ratio (x) = 0.43551 0.28868
# Poissons Ratio (y) = 0.25106 0.17536
# Poissons Ratio (z) = 0.19543 0.20594
#
# Static dielectric constant tensor:
#      x y z
#    x 3.627340 0.000000 0.000000 
#    y 0.000000 3.861030 0.000000 
#    z 0.000000 0.000000 3.503690 
# 
# 
# High freq. dielectric constant tensor:
#      x y z
#    x 1.751170 0.000000 0.000000 
#    y 0.000000 1.775050 0.000000 
#    z 0.000000 0.000000 1.750240 
# 
# From -- ./inp_files/22464.got.cif
#   From: 2010.03.12/outbox.cif.g09.slc.cpg/sg74_12_cif.got.tgz:22464.got - 2010.04.16 15:46:19.
