data_PCOD8300418
_publ_section_title
;
Structure prediction by ZEFSAII (Michael W. Deem and Ramdas Pophale) SiO2 
 PCOD8300418
Probable space group: I M M A
;
_chemical_formula_sum "Si O2"
_cell_formula_units_Z 72
_cell_length_a 8.596117
_cell_length_b 17.600062
_cell_length_c 22.995442
_cell_angle_alpha 90.000000
_cell_angle_beta 90.000000
_cell_angle_gamma 90.000000
_cell_volume 3479.030830
_symmetry_space_group_name_H-M "I M M A"
_symmetry_group_IT_number 74
_symmetry_cell_setting 'orthorhombic'
loop_
_space_group_symop_operation_xyz
x,y,z
-x,1/2-y,z
x,-y,-z
-x,1/2+y,-z
-x,-y,-z
x,1/2+y,-z
-x,y,z
x,1/2-y,z
1/2+x,1/2+y,1/2+z
1/2-x,-y,1/2+z
1/2+x,1/2-y,1/2-z
1/2-x,y,1/2-z
1/2-x,1/2-y,1/2-z
1/2+x,y,1/2-z
1/2-x,1/2+y,1/2+z
1/2+x,-y,1/2+z
loop_
_atom_site_type_symbol
_atom_site_label
_atom_site_fract_x
_atom_site_fract_y
_atom_site_fract_z
Si Si1 0.817133 0.967510 0.188360
Si Si2 0.818448 0.662194 0.995729
Si Si3 0.681512 0.337249 0.882079
Si Si4 0.182628 0.898041 0.617387
Si Si5 0.183754 0.250000 0.314018
O O1 0.750000 0.994722 0.250000
O O2 0.741470 0.886928 0.171667
O O3 0.000000 0.957848 0.193089
O O4 0.775035 0.029478 0.140151
O O5 0.772143 0.750000 0.986983
O O6 0.721217 0.612139 0.950398
O O7 0.000000 0.648142 0.985963
O O8 0.771824 0.635992 0.060190
O O9 0.500000 0.350461 0.892511
O O10 0.719156 0.250000 0.867010
O O11 0.243646 0.824276 0.652192
O O12 0.000000 0.911360 0.625919
O O13 0.250000 0.250000 0.250000
O O14 0.000000 0.250000 0.311077
#
# Coordination Sequence:
#
# PCOD8300418 Si02
#       5
#    16  16  16  16   8
#     4  12  26  44  64  90 124 162 206 256 310 367
#     4  10  20  36  61  94 129 164 204 253 306 365
#     4  10  22  42  68  95 123 159 202 253 312 371
#     4  11  22  39  61  89 124 166 210 254 306 361
#     4  10  22  36  56  84 118 162 209 252 297 354
#
# _framework density 20.695418
#
# number of rings (size 3 to 8) (size 9 to 14) (size 15 to 20)
#    0.000    1.333    1.111    4.667    0.000    7.111 
#    0.000    4.444    0.000    0.000    0.000    0.000 
#    0.000    0.000    0.000    0.000    0.000    0.000 
#
# Total GULP energy -446691.136976 kJ/mol
# GULP energy per Si atom -12408.087138 kJ/mol
# Density = 2.064831 g / cm^3
# Si number density = 20.695418 Si / 1000 Ang^3
#
#
#
# Elastic Constant Matrix: (Units=GPa)
#
#
# Indices 1 2 3 4 5 6 
#
# 1 70.8592 33.6464 15.9929 0.0000 0.0000 0.0000
# 2 33.6464 91.9372 24.7123 0.0000 0.0000 0.0000
# 3 15.9929 24.7123 67.4149 0.0000 0.0000 0.0000
# 4 0.0000 0.0000 0.0000 30.9323 0.0000 0.0000
# 5 0.0000 0.0000 0.0000 0.0000 41.9075 0.0000
# 6 0.0000 0.0000 0.0000 0.0000 0.0000 29.7502
#
#
#
# Elastic Compliance Matrix: (Units=1/GPa)
#
#
# Indices 1 2 3 4 5 6 
#
# 1 0.017316 -0.005805 -0.001980 0.000000 0.000000 0.000000
# 2 -0.005805 0.014012 -0.003759 0.000000 0.000000 0.000000
# 3 -0.001980 -0.003759 0.016681 0.000000 0.000000 0.000000
# 4 0.000000 0.000000 0.000000 0.032329 0.000000 0.000000
# 5 0.000000 0.000000 0.000000 0.000000 0.023862 0.000000
# 6 0.000000 0.000000 0.000000 0.000000 0.000000 0.033613
#
#
# Mechanical properties :
#
#
# Convention : Reuss Voigt Hill
#
# Bulk Modulus (GPa) = 40.12722 42.10163 41.11443
# Shear Modulus (GPa) = 29.54947 30.90864 30.22905
#
# Velocity S-wave (km/s) = 3.78276 3.86878 3.82601
# Velocity P-wave (km/s) = 6.20569 6.35171 6.27912
#
# Compressibility (1/GPa) = 0.02492074
#
# Stress axis : x y z
#
# Youngs Moduli (GPa) = 57.75100 71.36805 59.94757
#
# Poissons Ratio (x) = 0.41428 0.11869
# Poissons Ratio (y) = 0.33524 0.22536
# Poissons Ratio (z) = 0.11434 0.26829
#
# Static dielectric constant tensor:
#      x y z
#    x 3.748730 0.000000 0.000000 
#    y 0.000000 3.798770 0.000000 
#    z 0.000000 0.000000 3.749290 
# 
# 
# High freq. dielectric constant tensor:
#      x y z
#    x 1.817850 0.000000 0.000000 
#    y 0.000000 1.809220 0.000000 
#    z 0.000000 0.000000 1.814730 
# 
# From -- ./inp_files/56702.got.cif
#   From: 2010.03.12/outbox.cif.g09.slc.cpg/sg74_29_cif.got.tgz:56702.got - 2010.04.16 15:46:19.
