data_PCOD8300411
_publ_section_title
;
Structure prediction by ZEFSAII (Michael W. Deem and Ramdas Pophale) SiO2 
 PCOD8300411
Probable space group: I M M A
;
_chemical_formula_sum "Si O2"
_cell_formula_units_Z 112
_cell_length_a 13.999589
_cell_length_b 18.154777
_cell_length_c 22.390050
_cell_angle_alpha 90.000000
_cell_angle_beta 90.000000
_cell_angle_gamma 90.000000
_cell_volume 5690.642041
_symmetry_space_group_name_H-M "I M M A"
_symmetry_group_IT_number 74
_symmetry_cell_setting 'orthorhombic'
loop_
_space_group_symop_operation_xyz
x,y,z
-x,1/2-y,z
x,-y,-z
-x,1/2+y,-z
-x,-y,-z
x,1/2+y,-z
-x,y,z
x,1/2-y,z
1/2+x,1/2+y,1/2+z
1/2-x,-y,1/2+z
1/2+x,1/2-y,1/2-z
1/2-x,y,1/2-z
1/2-x,1/2-y,1/2-z
1/2+x,y,1/2-z
1/2-x,1/2+y,1/2+z
1/2+x,-y,1/2+z
loop_
_atom_site_type_symbol
_atom_site_label
_atom_site_fract_x
_atom_site_fract_y
_atom_site_fract_z
Si Si1 0.609296 0.443922 0.900026
Si Si2 0.271550 0.907411 0.317046
Si Si3 0.239072 0.581286 0.005266
Si Si4 0.610980 0.948124 0.694198
Si Si5 0.893340 0.834470 0.095450
Si Si6 0.606103 0.408033 0.170027
Si Si7 0.222299 0.664320 0.880920
O O1 0.500000 0.415616 0.900149
O O2 0.671254 0.399457 0.851665
O O3 0.655014 0.428582 0.965320
O O4 0.614387 0.529679 0.881234
O O5 0.250000 0.888196 0.250000
O O6 0.346205 0.846285 0.339703
O O7 0.319243 0.987448 0.328701
O O8 0.167897 0.623019 0.047717
O O9 0.194664 0.500000 0.000000
O O10 0.241621 0.625574 0.943954
O O11 0.500000 0.966869 0.682341
O O12 0.630409 0.940966 0.764879
O O13 0.637719 0.874969 0.656577
O O14 0.893459 0.750000 0.077682
O O15 0.000000 0.866469 0.095883
O O16 0.500000 0.374046 0.170643
O O17 0.679608 0.342554 0.156469
O O18 0.195713 0.750000 0.889364
#
# Coordination Sequence:
#
# PCOD8300411 Si02
#       7
#    16  16  16  16  16  16  16
#     4  10  20  36  61  90 119 150 194 252 306 350
#     4  11  19  35  63  93 120 151 199 250 301 351
#     4  11  22  40  63  87 112 154 209 258 301 354
#     4  11  22  38  61  91 123 159 206 251 297 356
#     4  10  23  41  59  83 119 159 194 239 304 369
#     4  10  20  37  60  86 119 159 203 249 302 361
#     4  12  24  39  58  87 126 164 204 251 306 367
#
# _framework density 19.681435
#
# number of rings (size 3 to 8) (size 9 to 14) (size 15 to 20)
#    0.000    1.286    4.286    2.143    0.000    4.286 
#    0.000    1.429    0.000   10.286    0.000    0.000 
#    0.000    0.000    0.000    0.000    0.000    0.000 
#
# Total GULP energy -694280.212813 kJ/mol
# GULP energy per Si atom -12397.860943 kJ/mol
# Density = 1.963664 g / cm^3
# Si number density = 19.681435 Si / 1000 Ang^3
#
#
#
# Elastic Constant Matrix: (Units=GPa)
#
#
# Indices 1 2 3 4 5 6 
#
# 1 144.6074 38.9846 49.8149 0.0000 0.0000 0.0000
# 2 38.9846 68.6392 31.3474 0.0000 0.0000 0.0000
# 3 49.8149 31.3474 100.4112 0.0000 0.0000 0.0000
# 4 0.0000 0.0000 0.0000 13.5366 0.0000 0.0000
# 5 0.0000 0.0000 0.0000 0.0000 20.5382 0.0000
# 6 0.0000 0.0000 0.0000 0.0000 0.0000 96.2168
#
#
#
# Elastic Compliance Matrix: (Units=1/GPa)
#
#
# Indices 1 2 3 4 5 6 
#
# 1 0.009045 -0.003601 -0.003363 0.000000 0.000000 0.000000
# 2 -0.003601 0.018425 -0.003966 0.000000 0.000000 0.000000
# 3 -0.003363 -0.003966 0.012865 0.000000 0.000000 0.000000
# 4 0.000000 0.000000 0.000000 0.073874 0.000000 0.000000
# 5 0.000000 0.000000 0.000000 0.000000 0.048690 0.000000
# 6 0.000000 0.000000 0.000000 0.000000 0.000000 0.010393
#
#
# Mechanical properties :
#
#
# Convention : Reuss Voigt Hill
#
# Bulk Modulus (GPa) = 54.12419 61.55019 57.83719
# Shear Modulus (GPa) = 24.83731 38.95905 31.89818
#
# Velocity S-wave (km/s) = 3.55627 4.45396 4.03019
# Velocity P-wave (km/s) = 6.66503 7.60207 7.14892
#
# Compressibility (1/GPa) = 0.01847603
#
# Stress axis : x y z
#
# Youngs Moduli (GPa) = 110.56374 54.27295 77.72778
#
# Poissons Ratio (x) = 0.19545 0.26139
# Poissons Ratio (y) = 0.39816 0.30824
# Poissons Ratio (z) = 0.37181 0.21523
#
# Static dielectric constant tensor:
#      x y z
#    x 3.809490 0.000000 0.000000 
#    y 0.000000 3.351060 0.000000 
#    z 0.000000 0.000000 4.025050 
# 
# 
# High freq. dielectric constant tensor:
#      x y z
#    x 1.779760 0.000000 0.000000 
#    y 0.000000 1.737860 0.000000 
#    z 0.000000 0.000000 1.779060 
# 
# From -- ./inp_files/60109.got.cif
#   From: 2010.03.12/outbox.cif.g09.slc.cpg/sg74_31_cif.got.tgz:60109.got - 2010.04.16 15:46:19.
