data_PCOD8300634
_publ_section_title
;
Structure prediction by ZEFSAII (Michael W. Deem and Ramdas Pophale) SiO2 
 PCOD8300634
Probable space group: I M M A
;
_chemical_formula_sum "Si O2"
_cell_formula_units_Z 64
_cell_length_a 9.452413
_cell_length_b 27.050845
_cell_length_c 12.700468
_cell_angle_alpha 90.000000
_cell_angle_beta 90.000000
_cell_angle_gamma 90.000000
_cell_volume 3247.455804
_symmetry_space_group_name_H-M "I M M A"
_symmetry_group_IT_number 74
_symmetry_cell_setting 'orthorhombic'
loop_
_space_group_symop_operation_xyz
x,y,z
-x,1/2-y,z
x,-y,-z
-x,1/2+y,-z
-x,-y,-z
x,1/2+y,-z
-x,y,z
x,1/2-y,z
1/2+x,1/2+y,1/2+z
1/2-x,-y,1/2+z
1/2+x,1/2-y,1/2-z
1/2-x,y,1/2-z
1/2-x,1/2-y,1/2-z
1/2+x,y,1/2-z
1/2-x,1/2+y,1/2+z
1/2+x,-y,1/2+z
loop_
_atom_site_type_symbol
_atom_site_label
_atom_site_fract_x
_atom_site_fract_y
_atom_site_fract_z
Si Si1 0.154713 0.490889 0.378999
Si Si2 0.169341 0.750000 0.141767
Si Si3 0.250000 0.578428 0.250000
Si Si4 0.331190 0.100926 0.347241
Si Si5 0.338769 0.646396 0.438179
O O1 0.185448 0.500000 0.500000
O O2 0.147392 0.542951 0.316819
O O3 0.283768 0.456523 0.340435
O O4 0.000000 0.465406 0.363802
O O5 0.250000 0.750000 0.250000
O O6 0.222764 0.701313 0.079839
O O7 0.000000 0.750000 0.160776
O O8 0.329089 0.613203 0.333622
O O9 0.500000 0.104725 0.335191
O O10 0.250000 0.128350 0.250000
O O11 0.269414 0.122602 0.457228
O O12 0.500000 0.652397 0.468400
#
# Coordination Sequence:
#
# PCOD8300634 Si02
#       5
#    16   8   8  16  16
#     4  11  23  36  53  85 123 160 199 240 286 351
#     4  10  20  40  65  92 120 150 191 241 300 359
#     4  12  20  35  58  90 124 159 192 236 300 358
#     4  11  23  40  59  83 117 161 206 246 294 347
#     4  10  22  38  60  89 121 157 193 242 303 361
#
# _framework density 19.707735
#
# number of rings (size 3 to 8) (size 9 to 14) (size 15 to 20)
#    0.000    1.250    5.000    1.500    0.000    1.500 
#    0.000    3.125    0.000    0.000    0.000    0.000 
#    0.000    0.000    0.000    0.000    0.000    0.000 
#
# Total GULP energy -396477.014134 kJ/mol
# GULP energy per Si atom -12389.906692 kJ/mol
# Density = 1.966288 g / cm^3
# Si number density = 19.707735 Si / 1000 Ang^3
#
#
#
# Elastic Constant Matrix: (Units=GPa)
#
#
# Indices 1 2 3 4 5 6 
#
# 1 78.9093 20.1506 34.4195 0.0000 0.0000 0.0025
# 2 20.1506 133.7730 69.6537 0.0002 0.0000 0.0010
# 3 34.4195 69.6537 171.7108 0.0007 -0.0002 0.0111
# 4 0.0000 0.0002 0.0007 22.0777 0.0000 0.0002
# 5 0.0000 0.0000 -0.0002 0.0000 26.3867 -0.0005
# 6 0.0025 0.0010 0.0111 0.0002 -0.0005 293.1469
#
#
#
# Elastic Compliance Matrix: (Units=1/GPa)
#
#
# Indices 1 2 3 4 5 6 
#
# 1 0.013957 -0.000819 -0.002466 0.000000 0.000000 0.000000
# 2 -0.000819 0.009525 -0.003700 0.000000 0.000000 0.000000
# 3 -0.002466 -0.003700 0.007819 0.000000 0.000000 0.000000
# 4 0.000000 0.000000 0.000000 0.045295 0.000000 0.000000
# 5 0.000000 0.000000 0.000000 0.000000 0.037898 0.000000
# 6 0.000000 0.000000 0.000000 0.000000 0.000000 0.003411
#
#
# Mechanical properties :
#
#
# Convention : Reuss Voigt Hill
#
# Bulk Modulus (GPa) = 57.69288 70.31566 64.00427
# Shear Modulus (GPa) = 36.32389 85.66688 60.99539
#
# Velocity S-wave (km/s) = 4.29782 6.60023 5.56931
# Velocity P-wave (km/s) = 7.34617 9.68714 8.59671
#
# Compressibility (1/GPa) = 0.01733316
#
# Stress axis : x y z
#
# Youngs Moduli (GPa) = 71.64695 104.98645 127.89745
#
# Poissons Ratio (x) = 0.08594 0.31536
# Poissons Ratio (y) = 0.05865 0.47318
# Poissons Ratio (z) = 0.17666 0.38842
#
# Static dielectric constant tensor:
#      x y z
#    x 3.340820 0.000000 0.000000 
#    y 0.000000 3.901270 0.000000 
#    z 0.000000 0.000000 4.273400 
# 
# 
# High freq. dielectric constant tensor:
#      x y z
#    x 1.748780 0.000000 0.000000 
#    y 0.000000 1.748110 0.000000 
#    z 0.000000 0.000000 1.798240 
# 
# From -- ./inp_files/28869.got.cif
#   From: 2010.03.12/outbox.cif.g09.slc.cpg/sg74_15_cif.got.tgz:28869.got - 2010.04.16 15:46:19.
