data_PCOD8300741
_publ_section_title
;
Structure prediction by ZEFSAII (Michael W. Deem and Ramdas Pophale) SiO2 
 PCOD8300741
Probable space group: I M M A
;
_chemical_formula_sum "Si O2"
_cell_formula_units_Z 52
_cell_length_a 7.397647
_cell_length_b 11.719403
_cell_length_c 29.549385
_cell_angle_alpha 90.000000
_cell_angle_beta 90.000000
_cell_angle_gamma 90.000000
_cell_volume 2561.813672
_symmetry_space_group_name_H-M "I M M A"
_symmetry_group_IT_number 74
_symmetry_cell_setting 'orthorhombic'
loop_
_space_group_symop_operation_xyz
x,y,z
-x,1/2-y,z
x,-y,-z
-x,1/2+y,-z
-x,-y,-z
x,1/2+y,-z
-x,y,z
x,1/2-y,z
1/2+x,1/2+y,1/2+z
1/2-x,-y,1/2+z
1/2+x,1/2-y,1/2-z
1/2-x,y,1/2-z
1/2-x,1/2-y,1/2-z
1/2+x,y,1/2-z
1/2-x,1/2+y,1/2+z
1/2+x,-y,1/2+z
loop_
_atom_site_type_symbol
_atom_site_label
_atom_site_fract_x
_atom_site_fract_y
_atom_site_fract_z
Si Si1 0.000000 0.750000 0.094455
Si Si2 0.000000 0.506426 0.053301
Si Si3 0.787262 0.883151 0.612165
Si Si4 0.714519 0.750000 0.170355
Si Si5 0.291099 0.492100 0.799523
O O1 0.000000 0.639544 0.063575
O O2 0.184828 0.750000 0.122784
O O3 0.180082 0.446188 0.072439
O O4 0.000000 0.500000 0.000000
O O5 0.743874 0.750000 0.610515
O O6 0.000000 0.907456 0.605583
O O7 0.709892 0.930120 0.660420
O O8 0.500000 0.750000 0.161212
O O9 0.781379 0.861878 0.197805
O O10 0.500000 0.491379 0.808468
O O11 0.250000 0.543813 0.750000
#
# Coordination Sequence:
#
# PCOD8300741 Si02
#       5
#     4   8  16   8  16
#     4  12  24  40  72  94 130 170 206 270 330 380
#     4  12  27  44  71 100 128 163 218 273 332 388
#     4  10  23  45  66  90 131 174 214 266 320 382
#     4  10  21  39  58  88 130 174 210 264 317 380
#     4  10  21  35  58  90 127 169 216 261 315 376
#
# _framework density 20.298117000000001
#
# number of rings (size 3 to 8) (size 9 to 14) (size 15 to 20)
#    0.000    1.538    3.077    0.923    6.462    1.231 
#    0.000    0.000    0.000    0.000    0.000    0.000 
#    0.000    0.000    0.000    0.000    0.000    0.000 
#
# Total GULP energy -322337.935130 kJ/mol
# GULP energy per Si atom -12397.612890 kJ/mol
# Density = 2.025192 g / cm^3
# Si number density = 20.298117 Si / 1000 Ang^3
#
#
#
# Elastic Constant Matrix: (Units=GPa)
#
#
# Indices 1 2 3 4 5 6 
#
# 1 74.1287 46.8129 45.2442 0.0000 0.0000 0.0000
# 2 46.8129 145.9759 76.2510 -0.0001 0.0000 0.0000
# 3 45.2442 76.2510 191.9918 -0.0001 0.0000 0.0000
# 4 0.0000 -0.0001 -0.0001 41.9973 0.0000 0.0000
# 5 0.0000 0.0000 0.0000 0.0000 26.8858 0.0000
# 6 0.0000 0.0000 0.0000 0.0000 0.0000 -11.9513
#
#
#
# Elastic Compliance Matrix: (Units=1/GPa)
#
#
# Indices 1 2 3 4 5 6 
#
# 1 0.017770 -0.004430 -0.002428 0.000000 0.000000 0.000000
# 2 -0.004430 0.009748 -0.002828 0.000000 0.000000 0.000000
# 3 -0.002428 -0.002828 0.006904 0.000000 0.000000 0.000000
# 4 0.000000 0.000000 0.000000 0.023811 0.000000 0.000000
# 5 0.000000 0.000000 0.000000 0.000000 0.037194 0.000000
# 6 0.000000 0.000000 0.000000 0.000000 0.000000 -0.083673
#
#
# Mechanical properties :
#
#
# Convention : Reuss Voigt Hill
#
# Bulk Modulus (GPa) = 66.44548 83.19027 74.81788
# Shear Modulus (GPa) = 138.34251 27.63891 82.99071
#
# Velocity S-wave (km/s) = 8.26458 3.69406 6.40115
# Velocity P-wave (km/s) = 11.13000 7.69857 9.56935
#
# Compressibility (1/GPa) = 0.01504993
#
# Stress axis : x y z
#
# Youngs Moduli (GPa) = 56.27539 102.58354 144.84944
#
# Poissons Ratio (x) = 0.45447 0.35170
# Poissons Ratio (y) = 0.24931 0.40957
# Poissons Ratio (z) = 0.13664 0.29006
#
# Static dielectric constant tensor:
#      x y z
#    x 3.766620 0.000000 0.000000 
#    y 0.000000 4.319240 0.000000 
#    z 0.000000 0.000000 3.969920 
# 
# 
# High freq. dielectric constant tensor:
#      x y z
#    x 1.798540 0.000000 0.000000 
#    y 0.000000 1.802520 0.000000 
#    z 0.000000 0.000000 1.780100 
# 
# From -- ./inp_files/63197.got.cif
#   From: 2010.03.12/outbox.cif.g09.slc.cpg/sg74_32_cif.got.tgz:63197.got - 2010.04.16 15:46:19.
