data_PCOD8300549
_publ_section_title
;
Structure prediction by ZEFSAII (Michael W. Deem and Ramdas Pophale) SiO2 
 PCOD8300549
Probable space group: I M M A
;
_chemical_formula_sum "Si O2"
_cell_formula_units_Z 112
_cell_length_a 18.857018
_cell_length_b 30.688811
_cell_length_c 9.934383
_cell_angle_alpha 90.000000
_cell_angle_beta 90.000000
_cell_angle_gamma 90.000000
_cell_volume 5749.022092
_symmetry_space_group_name_H-M "I M M A"
_symmetry_group_IT_number 74
_symmetry_cell_setting 'orthorhombic'
loop_
_space_group_symop_operation_xyz
x,y,z
-x,1/2-y,z
x,-y,-z
-x,1/2+y,-z
-x,-y,-z
x,1/2+y,-z
-x,y,z
x,1/2-y,z
1/2+x,1/2+y,1/2+z
1/2-x,-y,1/2+z
1/2+x,1/2-y,1/2-z
1/2-x,y,1/2-z
1/2-x,1/2-y,1/2-z
1/2+x,y,1/2-z
1/2-x,1/2+y,1/2+z
1/2+x,-y,1/2+z
loop_
_atom_site_type_symbol
_atom_site_label
_atom_site_fract_x
_atom_site_fract_y
_atom_site_fract_z
Si Si1 0.416348 0.452438 0.276114
Si Si2 0.175797 0.800201 0.680986
Si Si3 0.160878 0.367801 0.873330
Si Si4 0.584084 0.358398 0.368600
Si Si5 0.580947 0.953970 0.301748
Si Si6 0.919945 0.425819 0.507438
Si Si7 0.680813 0.149951 0.920521
O O1 0.500000 0.454037 0.283279
O O2 0.389873 0.408716 0.350798
O O3 0.390674 0.497827 0.346238
O O4 0.391574 0.452656 0.120679
O O5 0.156957 0.750000 0.704563
O O6 0.250000 0.812846 0.750000
O O7 0.114489 0.828836 0.749226
O O8 0.180355 0.808280 0.519309
O O9 0.132000 0.416850 0.857211
O O10 0.241776 0.371797 0.919488
O O11 0.156161 0.340008 0.733684
O O12 0.114749 0.342903 0.986682
O O13 0.500000 0.353480 0.366897
O O14 0.500000 0.944895 0.352142
O O15 0.583311 0.955179 0.139827
O O16 0.873228 0.383174 0.514938
O O17 0.000000 0.409450 0.480455
#
# Coordination Sequence:
#
# PCOD8300549 Si02
#       7
#    16  16  16  16  16  16  16
#     4   9  17  29  52  83 113 152 202 248 292 346
#     4  11  23  42  68  93 115 148 195 248 306 367
#     4  10  21  36  57  83 124 164 196 242 291 356
#     4  11  22  38  62  91 123 158 197 248 308 357
#     4   9  17  30  51  80 116 159 204 246 286 340
#     4   9  16  29  54  82 112 152 201 250 294 344
#     4  10  20  38  62  83 120 157 199 244 297 363
#
# _framework density 19.481573999999998
#
# number of rings (size 3 to 8) (size 9 to 14) (size 15 to 20)
#    0.000    2.143    2.857    0.857    0.000    3.143 
#    0.000    4.286   28.286    0.000    0.000    0.000 
#    0.000    0.000    0.000    0.000    0.000    0.000 
#
# Total GULP energy -693993.227302 kJ/mol
# GULP energy per Si atom -12392.736202 kJ/mol
# Density = 1.943723 g / cm^3
# Si number density = 19.481574 Si / 1000 Ang^3
#
#
#
# Elastic Constant Matrix: (Units=GPa)
#
#
# Indices 1 2 3 4 5 6 
#
# 1 81.8248 26.8789 41.2442 -0.0004 -0.0004 0.0014
# 2 26.8789 51.8450 40.4772 -0.0016 0.0003 0.0011
# 3 41.2442 40.4772 118.5026 -0.0093 0.0028 -0.0057
# 4 -0.0004 -0.0016 -0.0093 3.7503 -0.0004 0.0013
# 5 -0.0004 0.0003 0.0028 -0.0004 25.7517 -0.0006
# 6 0.0014 0.0011 -0.0057 0.0013 -0.0006 15.2167
#
#
#
# Elastic Compliance Matrix: (Units=1/GPa)
#
#
# Indices 1 2 3 4 5 6 
#
# 1 0.015831 -0.005326 -0.003691 -0.000010 0.000001 -0.000002
# 2 -0.005326 0.028094 -0.007743 -0.000008 0.000000 -0.000005
# 3 -0.003691 -0.007743 0.012368 0.000027 -0.000001 0.000006
# 4 -0.000010 -0.000008 0.000027 0.266646 0.000005 -0.000023
# 5 0.000001 0.000000 -0.000001 0.000005 0.038832 0.000001
# 6 -0.000002 -0.000005 0.000006 -0.000023 0.000001 0.065717
#
#
# Mechanical properties :
#
#
# Convention : Reuss Voigt Hill
#
# Bulk Modulus (GPa) = 43.90855 52.15257 48.03056
# Shear Modulus (GPa) = 10.67010 18.51523 14.59267
#
# Velocity S-wave (km/s) = 2.34284 3.08620 2.73985
# Velocity P-wave (km/s) = 5.46864 6.28711 5.89210
#
# Compressibility (1/GPa) = 0.02277461
#
# Stress axis : x y z
#
# Youngs Moduli (GPa) = 63.16662 35.59418 80.85523
#
# Poissons Ratio (x) = 0.18958 0.29841
# Poissons Ratio (y) = 0.33644 0.62603
# Poissons Ratio (z) = 0.23313 0.27559
#
# Static dielectric constant tensor:
#      x y z
#    x 3.430160 0.000000 0.000000 
#    y 0.000000 3.391030 0.000000 
#    z 0.000000 0.000000 3.938300 
# 
# 
# High freq. dielectric constant tensor:
#      x y z
#    x 1.741690 0.000000 0.000000 
#    y 0.000000 1.729320 0.000000 
#    z 0.000000 0.000000 1.779040 
# 
# From -- ./inp_files/21160.got.cif
#   From: 2010.03.12/outbox.cif.g09.slc.cpg/sg74_11_cif.got.tgz:21160.got - 2010.04.16 15:46:19.
