data_PCOD8300758
_publ_section_title
;
Structure prediction by ZEFSAII (Michael W. Deem and Ramdas Pophale) SiO2 
 PCOD8300758
Probable space group: I M M A
;
_chemical_formula_sum "Si O2"
_cell_formula_units_Z 80
_cell_length_a 8.717867
_cell_length_b 28.998411
_cell_length_c 14.855077
_cell_angle_alpha 90.000000
_cell_angle_beta 90.000000
_cell_angle_gamma 90.000000
_cell_volume 3755.427198
_symmetry_space_group_name_H-M "I M M A"
_symmetry_group_IT_number 74
_symmetry_cell_setting 'orthorhombic'
loop_
_space_group_symop_operation_xyz
x,y,z
-x,1/2-y,z
x,-y,-z
-x,1/2+y,-z
-x,-y,-z
x,1/2+y,-z
-x,y,z
x,1/2-y,z
1/2+x,1/2+y,1/2+z
1/2-x,-y,1/2+z
1/2+x,1/2-y,1/2-z
1/2-x,y,1/2-z
1/2-x,1/2-y,1/2-z
1/2+x,y,1/2-z
1/2-x,1/2+y,1/2+z
1/2+x,-y,1/2+z
loop_
_atom_site_type_symbol
_atom_site_label
_atom_site_fract_x
_atom_site_fract_y
_atom_site_fract_z
Si Si1 0.321158 0.698851 0.021619
Si Si2 0.675994 0.893320 0.468963
Si Si3 0.680447 0.467717 0.844693
Si Si4 0.831260 0.197443 0.165005
Si Si5 0.822392 0.065101 0.157057
O O1 0.500000 0.691221 0.039101
O O2 0.270664 0.750000 0.057357
O O3 0.286202 0.694863 0.916703
O O4 0.226594 0.657282 0.067828
O O5 0.500000 0.901664 0.443149
O O6 0.778187 0.931510 0.421512
O O7 0.702264 0.897318 0.577483
O O8 0.500000 0.471034 0.835070
O O9 0.750000 0.451090 0.750000
O O10 0.744573 0.517421 0.873191
O O11 0.864105 0.250000 0.190796
O O12 0.750000 0.172463 0.250000
O O13 0.000000 0.174349 0.143995
O O14 0.750000 0.083921 0.250000
O O15 0.000000 0.054611 0.173581
#
# Coordination Sequence:
#
# PCOD8300758 Si02
#       5
#    16  16  16  16  16
#     4  10  21  36  53  75 105 143 189 239 289 341
#     4  11  23  38  58  85 117 154 196 240 287 342
#     4  11  22  38  62  89 118 151 188 234 288 347
#     4   9  16  27  44  65  91 127 172 221 272 325
#     4  10  21  37  58  86 121 157 192 233 281 338
#
# _framework density 21.302503999999999
#
# number of rings (size 3 to 8) (size 9 to 14) (size 15 to 20)
#    0.000    1.800    0.000    6.000    0.000   10.000 
#    0.000    2.000    0.000    0.600    0.000    0.000 
#    0.000    0.000    0.000    0.000    0.000    0.000 
#
# Total GULP energy -495858.880980 kJ/mol
# GULP energy per Si atom -12396.472024 kJ/mol
# Density = 2.125402 g / cm^3
# Si number density = 21.302504 Si / 1000 Ang^3
#
#
#
# Elastic Constant Matrix: (Units=GPa)
#
#
# Indices 1 2 3 4 5 6 
#
# 1 138.3817 44.5782 24.4854 0.0000 0.0000 0.0000
# 2 44.5782 128.6344 19.6984 0.0002 0.0000 0.0001
# 3 24.4854 19.6984 42.0421 0.0011 0.0002 0.0005
# 4 0.0000 0.0002 0.0011 6.4148 0.0001 0.0000
# 5 0.0000 0.0000 0.0002 0.0001 30.7397 0.0001
# 6 0.0000 0.0001 0.0005 0.0000 0.0001 20.4361
#
#
#
# Elastic Compliance Matrix: (Units=1/GPa)
#
#
# Indices 1 2 3 4 5 6 
#
# 1 0.008700 -0.002412 -0.003937 0.000001 0.000000 0.000000
# 2 -0.002412 0.009044 -0.002832 0.000000 0.000000 0.000000
# 3 -0.003937 -0.002832 0.027406 -0.000004 0.000000 -0.000001
# 4 0.000001 0.000000 -0.000004 0.155890 0.000000 0.000000
# 5 0.000000 0.000000 0.000000 0.000000 0.032531 0.000000
# 6 0.000000 0.000000 -0.000001 0.000000 0.000000 0.048933
#
#
# Mechanical properties :
#
#
# Convention : Reuss Voigt Hill
#
# Bulk Modulus (GPa) = 37.33217 54.06469 45.69843
# Shear Modulus (GPa) = 16.13973 26.20452 21.17212
#
# Velocity S-wave (km/s) = 2.75552 3.51110 3.15601
# Velocity P-wave (km/s) = 5.26181 6.47084 5.89739
#
# Compressibility (1/GPa) = 0.02678655
#
# Stress axis : x y z
#
# Youngs Moduli (GPa) = 114.94253 110.57488 36.48895
#
# Poissons Ratio (x) = 0.26672 0.14365
# Poissons Ratio (y) = 0.27726 0.10335
# Poissons Ratio (z) = 0.45250 0.31320
#
# Static dielectric constant tensor:
#      x y z
#    x 4.099250 0.000000 0.000000 
#    y 0.000000 4.071960 0.000000 
#    z 0.000000 0.000000 3.484370 
# 
# 
# High freq. dielectric constant tensor:
#      x y z
#    x 1.849960 0.000000 0.000000 
#    y 0.000000 1.849860 0.000000 
#    z 0.000000 0.000000 1.793310 
# 
# From -- ./inp_files/39952.got.cif
#   From: 2010.03.12/outbox.cif.g09.slc.cpg/sg74_20_cif.got.tgz:39952.got - 2010.04.16 15:46:19.
