data_PCOD8300719
_publ_section_title
;
Structure prediction by ZEFSAII (Michael W. Deem and Ramdas Pophale) SiO2 
 PCOD8300719
Probable space group: I M M A
;
_chemical_formula_sum "Si O2"
_cell_formula_units_Z 88
_cell_length_a 17.072943
_cell_length_b 9.330311
_cell_length_c 27.457081
_cell_angle_alpha 90.000000
_cell_angle_beta 90.000000
_cell_angle_gamma 90.000000
_cell_volume 4373.799547
_symmetry_space_group_name_H-M "I M M A"
_symmetry_group_IT_number 74
_symmetry_cell_setting 'orthorhombic'
loop_
_space_group_symop_operation_xyz
x,y,z
-x,1/2-y,z
x,-y,-z
-x,1/2+y,-z
-x,-y,-z
x,1/2+y,-z
-x,y,z
x,1/2-y,z
1/2+x,1/2+y,1/2+z
1/2-x,-y,1/2+z
1/2+x,1/2-y,1/2-z
1/2-x,y,1/2-z
1/2-x,1/2-y,1/2-z
1/2+x,y,1/2-z
1/2-x,1/2+y,1/2+z
1/2+x,-y,1/2+z
loop_
_atom_site_type_symbol
_atom_site_label
_atom_site_fract_x
_atom_site_fract_y
_atom_site_fract_z
Si Si1 0.181601 0.584011 0.711895
Si Si2 0.908396 0.914906 0.867282
Si Si3 0.500000 0.425796 0.945875
Si Si4 0.199135 0.585880 0.952671
Si Si5 0.908864 0.906726 0.222598
Si Si6 0.644489 0.085077 0.101948
O O1 0.165433 0.750000 0.720786
O O2 0.250000 0.532872 0.750000
O O3 0.106196 0.492126 0.727606
O O4 0.187352 0.551233 0.654023
O O5 0.887561 0.750000 0.856428
O O6 0.861151 0.974000 0.912973
O O7 0.000000 0.938016 0.876464
O O8 0.874011 0.002148 0.821921
O O9 0.500000 0.250000 0.950589
O O10 0.425127 0.477855 0.914047
O O11 0.500000 0.500000 0.000000
O O12 0.180754 0.750000 0.963198
O O13 0.288875 0.562925 0.938034
O O14 0.178942 0.500000 0.000000
O O15 0.869025 0.750000 0.223792
O O16 0.000000 0.889930 0.215090
O O17 0.613684 0.250000 0.102061
#
# Coordination Sequence:
#
# PCOD8300719 Si02
#       6
#    16  16   8  16  16  16
#     4  10  21  38  61  87 116 153 196 239 284 345
#     4   9  18  35  58  83 114 155 199 237 279 338
#     4  12  26  44  66  90 120 156 204 262 319 374
#     4  10  21  37  58  84 114 148 191 242 292 349
#     4  10  21  35  53  81 117 150 184 229 280 334
#     4  10  22  40  62  88 119 154 199 248 299 359
#
# _framework density 20.119807000000002
#
# number of rings (size 3 to 8) (size 9 to 14) (size 15 to 20)
#    0.000    2.000    0.000    3.000    1.273    8.364 
#    0.000    1.818    0.000    0.000    0.000    0.000 
#    0.000    0.000    0.000    0.000    0.000    0.000 
#
# Total GULP energy -545289.689698 kJ/mol
# GULP energy per Si atom -12392.947493 kJ/mol
# Density = 2.007401 g / cm^3
# Si number density = 20.119807 Si / 1000 Ang^3
#
#
#
# Elastic Constant Matrix: (Units=GPa)
#
#
# Indices 1 2 3 4 5 6 
#
# 1 29.3642 23.1364 17.7471 0.0000 0.0000 0.0000
# 2 23.1364 81.7186 47.4747 0.0000 0.0000 0.0000
# 3 17.7471 47.4747 107.0836 0.0000 0.0000 0.0000
# 4 0.0000 0.0000 0.0000 31.1687 0.0000 0.0000
# 5 0.0000 0.0000 0.0000 0.0000 35.1700 0.0000
# 6 0.0000 0.0000 0.0000 0.0000 0.0000 21.3029
#
#
#
# Elastic Compliance Matrix: (Units=1/GPa)
#
#
# Indices 1 2 3 4 5 6 
#
# 1 0.044286 -0.011145 -0.002399 0.000000 0.000000 0.000000
# 2 -0.011145 0.019287 -0.006704 0.000000 0.000000 0.000000
# 3 -0.002399 -0.006704 0.012708 0.000000 0.000000 0.000000
# 4 0.000000 0.000000 0.000000 0.032084 0.000000 0.000000
# 5 0.000000 0.000000 0.000000 0.000000 0.028433 0.000000
# 6 0.000000 0.000000 0.000000 0.000000 0.000000 0.046942
#
#
# Mechanical properties :
#
#
# Convention : Reuss Voigt Hill
#
# Bulk Modulus (GPa) = 27.94338 43.87586 35.90962
# Shear Modulus (GPa) = 21.17181 26.18217 23.67699
#
# Velocity S-wave (km/s) = 3.24742 3.61129 3.43417
# Velocity P-wave (km/s) = 5.28957 6.26444 5.79753
#
# Compressibility (1/GPa) = 0.03578666
#
# Stress axis : x y z
#
# Youngs Moduli (GPa) = 22.58056 51.84830 78.69030
#
# Poissons Ratio (x) = 0.57784 0.18874
# Poissons Ratio (y) = 0.25166 0.52752
# Poissons Ratio (z) = 0.05416 0.34758
#
# Static dielectric constant tensor:
#      x y z
#    x 3.600530 0.000000 0.000000 
#    y 0.000000 3.855440 0.000000 
#    z 0.000000 0.000000 3.839020 
# 
# 
# High freq. dielectric constant tensor:
#      x y z
#    x 1.784080 0.000000 0.000000 
#    y 0.000000 1.779340 0.000000 
#    z 0.000000 0.000000 1.793250 
# 
# From -- ./inp_files/72968.got.cif
#   From: 2010.03.12/outbox.cif.g09.slc.cpg/sg74_37_cif.got.tgz:72968.got - 2010.04.16 15:46:19.
