data_PCOD8300761
_publ_section_title
;
Structure prediction by ZEFSAII (Michael W. Deem and Ramdas Pophale) SiO2 
 PCOD8300761
Probable space group: I M M A
;
_chemical_formula_sum "Si O2"
_cell_formula_units_Z 104
_cell_length_a 8.906743
_cell_length_b 20.942287
_cell_length_c 27.991160
_cell_angle_alpha 90.000000
_cell_angle_beta 90.000000
_cell_angle_gamma 90.000000
_cell_volume 5221.123004
_symmetry_space_group_name_H-M "I M M A"
_symmetry_group_IT_number 74
_symmetry_cell_setting 'orthorhombic'
loop_
_space_group_symop_operation_xyz
x,y,z
-x,1/2-y,z
x,-y,-z
-x,1/2+y,-z
-x,-y,-z
x,1/2+y,-z
-x,y,z
x,1/2-y,z
1/2+x,1/2+y,1/2+z
1/2-x,-y,1/2+z
1/2+x,1/2-y,1/2-z
1/2-x,y,1/2-z
1/2-x,1/2-y,1/2-z
1/2+x,y,1/2-z
1/2-x,1/2+y,1/2+z
1/2+x,-y,1/2+z
loop_
_atom_site_type_symbol
_atom_site_label
_atom_site_fract_x
_atom_site_fract_y
_atom_site_fract_z
Si Si1 0.673268 0.178487 0.646274
Si Si2 0.177799 0.680367 0.977552
Si Si3 0.322169 0.852516 0.628771
Si Si4 0.831202 0.421137 0.704076
Si Si5 0.825276 0.911847 0.057641
Si Si6 0.671499 0.485288 0.115738
Si Si7 0.819822 0.750000 0.697185
O O1 0.500000 0.177839 0.659893
O O2 0.733745 0.250000 0.638984
O O3 0.759982 0.146631 0.690158
O O4 0.703448 0.140773 0.597751
O O5 0.235911 0.750000 0.995623
O O6 0.226662 0.674023 0.922737
O O7 0.000000 0.678243 0.982744
O O8 0.240016 0.621236 0.009239
O O9 0.500000 0.846149 0.637455
O O10 0.273936 0.925797 0.629742
O O11 0.235950 0.813168 0.669543
O O12 0.750000 0.451109 0.750000
O O13 0.815627 0.469709 0.661024
O O14 0.000000 0.408223 0.718802
O O15 0.000000 0.930375 0.053036
O O16 0.735856 0.977092 0.069367
O O17 0.500000 0.464767 0.105382
O O18 0.750000 0.750000 0.750000
O O19 0.000000 0.750000 0.700375
#
# Coordination Sequence:
#
# PCOD8300761 Si02
#       7
#    16  16  16  16  16  16   8
#     4   9  17  30  50  77 108 142 185 234 281 330
#     4   9  17  32  58  89 120 153 196 245 289 343
#     4  11  22  40  65  92 121 154 194 239 292 351
#     4  10  21  36  54  74 101 139 183 233 287 343
#     4   9  17  32  56  84 113 153 200 242 285 337
#     4  10  22  39  56  80 117 155 193 242 298 355
#     4  12  26  46  70  96 126 158 196 244 301 362
#
# _framework density 19.919086
#
# number of rings (size 3 to 8) (size 9 to 14) (size 15 to 20)
#    0.000    2.154    0.769    2.538    0.000    5.538 
#    0.000    6.154    0.000    0.923    0.000    0.000 
#    0.000    0.000    0.000    0.000    0.000    0.000 
#
# Total GULP energy -644701.718948 kJ/mol
# GULP energy per Si atom -12398.109980 kJ/mol
# Density = 1.987375 g / cm^3
# Si number density = 19.919086 Si / 1000 Ang^3
#
#
#
# Elastic Constant Matrix: (Units=GPa)
#
#
# Indices 1 2 3 4 5 6 
#
# 1 86.4594 43.1797 51.3483 0.0000 0.0000 0.0000
# 2 43.1797 116.2183 37.6772 0.0000 0.0000 0.0000
# 3 51.3483 37.6772 108.8466 0.0000 0.0000 0.0000
# 4 0.0000 0.0000 0.0000 16.4090 0.0000 0.0000
# 5 0.0000 0.0000 0.0000 0.0000 25.6391 0.0000
# 6 0.0000 0.0000 0.0000 0.0000 0.0000 29.0765
#
#
#
# Elastic Compliance Matrix: (Units=1/GPa)
#
#
# Indices 1 2 3 4 5 6 
#
# 1 0.017863 -0.004399 -0.006904 0.000000 0.000000 0.000000
# 2 -0.004399 0.010775 -0.001655 0.000000 0.000000 0.000000
# 3 -0.006904 -0.001655 0.013017 0.000000 0.000000 0.000000
# 4 0.000000 0.000000 0.000000 0.060942 0.000000 0.000000
# 5 0.000000 0.000000 0.000000 0.000000 0.039003 0.000000
# 6 0.000000 0.000000 0.000000 0.000000 0.000000 0.034392
#
#
# Mechanical properties :
#
#
# Convention : Reuss Voigt Hill
#
# Bulk Modulus (GPa) = 63.53188 63.99275 63.76231
# Shear Modulus (GPa) = 24.13646 26.17954 25.15800
#
# Velocity S-wave (km/s) = 3.48476 3.62925 3.55774
# Velocity P-wave (km/s) = 6.93943 7.05394 6.99692
#
# Compressibility (1/GPa) = 0.01574013
#
# Stress axis : x y z
#
# Youngs Moduli (GPa) = 55.98023 92.80547 76.82118
#
# Poissons Ratio (x) = 0.40821 0.53041
# Poissons Ratio (y) = 0.24623 0.12712
# Poissons Ratio (z) = 0.38652 0.15358
#
# Static dielectric constant tensor:
#      x y z
#    x 3.584900 0.000000 0.000000 
#    y 0.000000 3.752770 0.000000 
#    z 0.000000 0.000000 3.787650 
# 
# 
# High freq. dielectric constant tensor:
#      x y z
#    x 1.760360 0.000000 0.000000 
#    y 0.000000 1.783900 0.000000 
#    z 0.000000 0.000000 1.778730 
# 
# From -- ./inp_files/64517.got.cif
#   From: 2010.03.12/outbox.cif.g09.slc.cpg/sg74_33_cif.got.tgz:64517.got - 2010.04.16 15:46:19.
