data_PCOD8300253
_publ_section_title
;
Structure prediction by ZEFSAII (Michael W. Deem and Ramdas Pophale) SiO2 
 PCOD8300253
Probable space group: I M M A
;
_chemical_formula_sum "Si O2"
_cell_formula_units_Z 80
_cell_length_a 25.323455
_cell_length_b 8.710239
_cell_length_c 20.144235
_cell_angle_alpha 90.000000
_cell_angle_beta 90.000000
_cell_angle_gamma 90.000000
_cell_volume 4443.281304
_symmetry_space_group_name_H-M "I M M A"
_symmetry_group_IT_number 74
_symmetry_cell_setting 'orthorhombic'
loop_
_space_group_symop_operation_xyz
x,y,z
-x,1/2-y,z
x,-y,-z
-x,1/2+y,-z
-x,-y,-z
x,1/2+y,-z
-x,y,z
x,1/2-y,z
1/2+x,1/2+y,1/2+z
1/2-x,-y,1/2+z
1/2+x,1/2-y,1/2-z
1/2-x,y,1/2-z
1/2-x,1/2-y,1/2-z
1/2+x,y,1/2-z
1/2-x,1/2+y,1/2+z
1/2+x,-y,1/2+z
loop_
_atom_site_type_symbol
_atom_site_label
_atom_site_fract_x
_atom_site_fract_y
_atom_site_fract_z
Si Si1 0.314632 0.431599 0.569954
Si Si2 0.693335 0.429794 0.931318
Si Si3 0.387126 0.934433 0.179121
Si Si4 0.500000 0.917250 0.169963
Si Si5 0.000000 0.580142 0.172893
Si Si6 0.391099 0.068446 0.322581
O O1 0.333807 0.500000 0.500000
O O2 0.323994 0.250000 0.570869
O O3 0.253654 0.475795 0.582432
O O4 0.346523 0.512552 0.627654
O O5 0.686342 0.250000 0.937325
O O6 0.657863 0.493043 0.870880
O O7 0.672639 0.500000 0.000000
O O8 0.389219 0.750000 0.185521
O O9 0.444260 0.998453 0.151349
O O10 0.375194 0.002608 0.251000
O O11 0.500000 0.750000 0.136081
O O12 0.500000 0.902356 0.248830
O O13 0.947628 0.489894 0.150460
O O14 0.000000 0.750000 0.140059
O O15 0.392453 0.250000 0.318790
#
# Coordination Sequence:
#
# PCOD8300253 Si02
#       6
#    16  16  16   8   8  16
#     4  10  20  36  54  73  99 135 173 213 260 311
#     4   9  19  34  53  73  99 135 176 217 261 309
#     4   9  17  32  52  75 101 136 176 214 255 304
#     4   7  12  25  48  71  95 127 165 202 243 293
#     4   9  17  33  54  75 102 137 168 202 249 303
#     4  11  21  33  52  80 107 133 167 211 254 300
#
# _framework density 18.004712000000001
#
# number of rings (size 3 to 8) (size 9 to 14) (size 15 to 20)
#    0.000    2.600    0.000    3.900    0.000    2.400 
#    0.000    5.000    0.000    0.000    0.000    0.000 
#    0.000    0.000    0.000    0.000    0.000    0.000 
#
# Total GULP energy -495790.806878 kJ/mol
# GULP energy per Si atom -12394.770172 kJ/mol
# Density = 1.796373 g / cm^3
# Si number density = 18.004712 Si / 1000 Ang^3
#
#
#
# Elastic Constant Matrix: (Units=GPa)
#
#
# Indices 1 2 3 4 5 6 
#
# 1 121.8668 42.0059 83.5135 0.0000 0.0000 0.0000
# 2 42.0059 74.1497 42.3008 0.0000 0.0000 0.0000
# 3 83.5135 42.3008 117.2487 0.0000 0.0000 0.0000
# 4 0.0000 0.0000 0.0000 28.0545 0.0000 0.0000
# 5 0.0000 0.0000 0.0000 0.0000 4.9954 0.0000
# 6 0.0000 0.0000 0.0000 0.0000 0.0000 21.2025
#
#
#
# Elastic Compliance Matrix: (Units=1/GPa)
#
#
# Indices 1 2 3 4 5 6 
#
# 1 0.016670 -0.003362 -0.010661 0.000000 0.000000 0.000000
# 2 -0.003362 0.017659 -0.003976 0.000000 0.000000 0.000000
# 3 -0.010661 -0.003976 0.017557 0.000000 0.000000 0.000000
# 4 0.000000 0.000000 0.000000 0.035645 0.000000 0.000000
# 5 0.000000 0.000000 0.000000 0.000000 0.200183 0.000000
# 6 0.000000 0.000000 0.000000 0.000000 0.000000 0.047164
#
#
# Mechanical properties :
#
#
# Convention : Reuss Voigt Hill
#
# Bulk Modulus (GPa) = 62.94085 72.10061 67.52073
# Shear Modulus (GPa) = 13.29173 20.54681 16.91927
#
# Velocity S-wave (km/s) = 2.72000 3.38182 3.06880
# Velocity P-wave (km/s) = 6.70063 7.44186 7.08095
#
# Compressibility (1/GPa) = 0.01588793
#
# Stress axis : x y z
#
# Youngs Moduli (GPa) = 59.98706 56.62756 56.95720
#
# Poissons Ratio (x) = 0.19038 0.60722
# Poissons Ratio (y) = 0.20167 0.22649
# Poissons Ratio (z) = 0.63952 0.22518
#
# Static dielectric constant tensor:
#      x y z
#    x 3.777490 0.000000 0.000000 
#    y 0.000000 3.259000 0.000000 
#    z 0.000000 0.000000 3.186360 
# 
# 
# High freq. dielectric constant tensor:
#      x y z
#    x 1.710570 0.000000 0.000000 
#    y 0.000000 1.689680 0.000000 
#    z 0.000000 0.000000 1.675220 
# 
# From -- ./inp_files/46521.got.cif
#   From: 2010.03.12/outbox.cif.g09.slc.cpg/sg74_24_cif.got.tgz:46521.got - 2010.04.16 15:46:19.
