data_PCOD8300072
_publ_section_title
;
Structure prediction by ZEFSAII (Michael W. Deem and Ramdas Pophale) SiO2 
 PCOD8300072
Probable space group: I M M A
;
_chemical_formula_sum "Si O2"
_cell_formula_units_Z 88
_cell_length_a 18.819416
_cell_length_b 9.150275
_cell_length_c 24.858777
_cell_angle_alpha 90.000000
_cell_angle_beta 90.000000
_cell_angle_gamma 90.000000
_cell_volume 4280.751793
_symmetry_space_group_name_H-M "I M M A"
_symmetry_group_IT_number 74
_symmetry_cell_setting 'orthorhombic'
loop_
_space_group_symop_operation_xyz
x,y,z
-x,1/2-y,z
x,-y,-z
-x,1/2+y,-z
-x,-y,-z
x,1/2+y,-z
-x,y,z
x,1/2-y,z
1/2+x,1/2+y,1/2+z
1/2-x,-y,1/2+z
1/2+x,1/2-y,1/2-z
1/2-x,y,1/2-z
1/2-x,1/2-y,1/2-z
1/2+x,y,1/2-z
1/2-x,1/2+y,1/2+z
1/2+x,-y,1/2+z
loop_
_atom_site_type_symbol
_atom_site_label
_atom_site_fract_x
_atom_site_fract_y
_atom_site_fract_z
Si Si1 0.139562 0.417313 0.656635
Si Si2 0.846710 0.079733 0.056702
Si Si3 0.420850 0.923591 0.267272
Si Si4 0.799682 0.416719 0.846118
Si Si5 0.917143 0.920899 0.554563
Si Si6 0.500000 0.085317 0.446114
O O1 0.120168 0.250000 0.641712
O O2 0.092167 0.476792 0.706108
O O3 0.220760 0.426562 0.678227
O O4 0.126532 0.516262 0.604675
O O5 0.829465 0.250000 0.048741
O O6 0.925594 0.052389 0.083787
O O7 0.793654 0.008752 0.098984
O O8 0.838454 0.000000 0.000000
O O9 0.500000 0.976005 0.285456
O O10 0.415338 0.750000 0.267854
O O11 0.359064 0.986086 0.306237
O O12 0.820209 0.250000 0.859944
O O13 0.900632 0.750000 0.548705
O O14 0.000000 0.951796 0.564669
O O15 0.891419 0.000000 0.500000
O O16 0.500000 0.250000 0.465861
O O17 0.500000 0.000000 0.500000
#
# Coordination Sequence:
#
# PCOD8300072 Si02
#       6
#    16  16  16  16  16   8
#     4  10  20  36  58  83 115 152 188 228 278 334
#     4  10  20  35  54  77 107 144 184 228 278 331
#     4   9  18  34  58  85 110 143 188 234 280 332
#     4  10  21  35  54  83 115 148 187 232 279 333
#     4  10  21  37  59  88 119 150 188 232 278 331
#     4   8  16  30  48  70  96 130 174 220 267 316
#
# _framework density 20.557136
#
# number of rings (size 3 to 8) (size 9 to 14) (size 15 to 20)
#    0.000    2.364    0.000    2.182    1.273    6.182 
#    0.000    0.909    0.000    3.273    0.000    0.000 
#    0.000    0.000    0.000    0.000    0.000    0.000 
#
# Total GULP energy -545331.353020 kJ/mol
# GULP energy per Si atom -12393.894387 kJ/mol
# Density = 2.051035 g / cm^3
# Si number density = 20.557136 Si / 1000 Ang^3
#
#
#
# Elastic Constant Matrix: (Units=GPa)
#
#
# Indices 1 2 3 4 5 6 
#
# 1 87.6086 24.4195 40.7994 0.0000 0.0000 0.0000
# 2 24.4195 76.2738 39.6468 0.0000 0.0000 0.0000
# 3 40.7994 39.6468 113.1872 0.0000 0.0000 0.0000
# 4 0.0000 0.0000 0.0000 27.1687 0.0000 0.0000
# 5 0.0000 0.0000 0.0000 0.0000 33.8822 0.0000
# 6 0.0000 0.0000 0.0000 0.0000 0.0000 21.2110
#
#
#
# Elastic Compliance Matrix: (Units=1/GPa)
#
#
# Indices 1 2 3 4 5 6 
#
# 1 0.014034 -0.002278 -0.004260 0.000000 0.000000 0.000000
# 2 -0.002278 0.016399 -0.004923 0.000000 0.000000 0.000000
# 3 -0.004260 -0.004923 0.012095 0.000000 0.000000 0.000000
# 4 0.000000 0.000000 0.000000 0.036807 0.000000 0.000000
# 5 0.000000 0.000000 0.000000 0.000000 0.029514 0.000000
# 6 0.000000 0.000000 0.000000 0.000000 0.000000 0.047145
#
#
# Mechanical properties :
#
#
# Convention : Reuss Voigt Hill
#
# Bulk Modulus (GPa) = 51.00978 54.08901 52.54939
# Shear Modulus (GPa) = 26.96112 27.93265 27.44688
#
# Velocity S-wave (km/s) = 3.62542 3.69016 3.65794
# Velocity P-wave (km/s) = 6.51095 6.67271 6.59233
#
# Compressibility (1/GPa) = 0.01960408
#
# Stress axis : x y z
#
# Youngs Moduli (GPa) = 71.25774 60.97933 82.67857
#
# Poissons Ratio (x) = 0.13893 0.35225
# Poissons Ratio (y) = 0.16235 0.40702
# Poissons Ratio (z) = 0.30359 0.30020
#
# Static dielectric constant tensor:
#      x y z
#    x 3.930730 0.000000 0.000000 
#    y 0.000000 3.419460 0.000000 
#    z 0.000000 0.000000 3.512110 
# 
# 
# High freq. dielectric constant tensor:
#      x y z
#    x 1.813950 0.000000 0.000000 
#    y 0.000000 1.777260 0.000000 
#    z 0.000000 0.000000 1.796320 
# 
# From -- ./inp_files/61453.got.cif
#   From: 2010.03.12/outbox.cif.g09.slc.cpg/sg74_31_cif.got.tgz:61453.got - 2010.04.16 15:46:19.
