data_PCOD8300700
_publ_section_title
;
Structure prediction by ZEFSAII (Michael W. Deem and Ramdas Pophale) SiO2 
 PCOD8300700
Probable space group: I M M A
;
_chemical_formula_sum "Si O2"
_cell_formula_units_Z 64
_cell_length_a 7.578219
_cell_length_b 13.790639
_cell_length_c 32.969584
_cell_angle_alpha 90.000000
_cell_angle_beta 90.000000
_cell_angle_gamma 90.000000
_cell_volume 3445.601192
_symmetry_space_group_name_H-M "I M M A"
_symmetry_group_IT_number 74
_symmetry_cell_setting 'orthorhombic'
loop_
_space_group_symop_operation_xyz
x,y,z
-x,1/2-y,z
x,-y,-z
-x,1/2+y,-z
-x,-y,-z
x,1/2+y,-z
-x,y,z
x,1/2-y,z
1/2+x,1/2+y,1/2+z
1/2-x,-y,1/2+z
1/2+x,1/2-y,1/2-z
1/2-x,y,1/2-z
1/2-x,1/2-y,1/2-z
1/2+x,y,1/2-z
1/2-x,1/2+y,1/2+z
1/2+x,-y,1/2+z
loop_
_atom_site_type_symbol
_atom_site_label
_atom_site_fract_x
_atom_site_fract_y
_atom_site_fract_z
Si Si1 0.705672 0.642209 0.293831
Si Si2 0.500000 0.135397 0.928958
Si Si3 0.299811 0.859403 0.579883
Si Si4 0.704207 0.046016 0.625220
Si Si5 0.500000 0.135713 0.019184
O O1 0.500000 0.652908 0.298756
O O2 0.792859 0.750000 0.297337
O O3 0.750000 0.595801 0.250000
O O4 0.775252 0.572495 0.329717
O O5 0.500000 0.250000 0.931054
O O6 0.678524 0.102915 0.907066
O O7 0.500000 0.088097 0.974322
O O8 0.500000 0.864802 0.563565
O O9 0.251549 0.750000 0.593945
O O10 0.174360 0.895996 0.543738
O O11 0.273714 0.930367 0.618488
O O12 0.500000 0.077488 0.619072
O O13 0.500000 0.250000 0.013395
#
# Coordination Sequence:
#
# PCOD8300700 Si02
#       5
#    16   8  16  16   8
#     4   9  18  32  50  72  99 131 165 204 252 308
#     4  11  23  35  52  76 107 143 173 211 262 309
#     4   9  18  34  55  75  99 135 176 215 258 303
#     4  10  21  35  52  77 104 133 173 217 256 304
#     4   9  19  35  51  74 105 137 176 217 257 306
#
# _framework density 18.574408999999999
#
# number of rings (size 3 to 8) (size 9 to 14) (size 15 to 20)
#    0.000    2.500    0.000    1.500    1.750    4.500 
#    0.000    5.000    0.000    0.750    0.000    0.000 
#    0.000    0.000    0.000    0.000    0.000    0.000 
#
# Total GULP energy -396645.397576 kJ/mol
# GULP energy per Si atom -12395.168674 kJ/mol
# Density = 1.853213 g / cm^3
# Si number density = 18.574409 Si / 1000 Ang^3
#
#
#
# Elastic Constant Matrix: (Units=GPa)
#
#
# Indices 1 2 3 4 5 6 
#
# 1 81.9918 36.9123 53.5196 0.0000 0.0000 0.0000
# 2 36.9123 83.5264 75.5019 0.0000 0.0000 0.0000
# 3 53.5196 75.5019 181.2442 0.0000 0.0000 0.0000
# 4 0.0000 0.0000 0.0000 6.0413 0.0000 0.0000
# 5 0.0000 0.0000 0.0000 0.0000 27.3077 0.0000
# 6 0.0000 0.0000 0.0000 0.0000 0.0000 20.9065
#
#
#
# Elastic Compliance Matrix: (Units=1/GPa)
#
#
# Indices 1 2 3 4 5 6 
#
# 1 0.016107 -0.004521 -0.002873 0.000000 0.000000 0.000000
# 2 -0.004521 0.020473 -0.007193 0.000000 0.000000 0.000000
# 3 -0.002873 -0.007193 0.009362 0.000000 0.000000 0.000000
# 4 0.000000 0.000000 0.000000 0.165527 0.000000 0.000000
# 5 0.000000 0.000000 0.000000 0.000000 0.036620 0.000000
# 6 0.000000 0.000000 0.000000 0.000000 0.000000 0.047832
#
#
# Mechanical properties :
#
#
# Convention : Reuss Voigt Hill
#
# Bulk Modulus (GPa) = 59.64048 75.40333 67.52191
# Shear Modulus (GPa) = 15.12017 22.90634 19.01325
#
# Velocity S-wave (km/s) = 2.85622 3.51553 3.20289
# Velocity P-wave (km/s) = 6.56171 7.56056 7.07877
#
# Compressibility (1/GPa) = 0.01676713
#
# Stress axis : x y z
#
# Youngs Moduli (GPa) = 62.08494 48.84598 106.81174
#
# Poissons Ratio (x) = 0.22084 0.30685
# Poissons Ratio (y) = 0.28070 0.76833
# Poissons Ratio (z) = 0.17836 0.35136
#
# Static dielectric constant tensor:
#      x y z
#    x 3.482360 0.000000 0.000000 
#    y 0.000000 3.591820 0.000000 
#    z 0.000000 0.000000 3.658370 
# 
# 
# High freq. dielectric constant tensor:
#      x y z
#    x 1.730130 0.000000 0.000000 
#    y 0.000000 1.712620 0.000000 
#    z 0.000000 0.000000 1.708440 
# 
# From -- ./inp_files/56472.got.cif
#   From: 2010.03.12/outbox.cif.g09.slc.cpg/sg74_29_cif.got.tgz:56472.got - 2010.04.16 15:46:19.
