data_PCOD8300295
_publ_section_title
;
Structure prediction by ZEFSAII (Michael W. Deem and Ramdas Pophale) SiO2 
 PCOD8300295
Probable space group: I M M A
;
_chemical_formula_sum "Si O2"
_cell_formula_units_Z 120
_cell_length_a 8.948947
_cell_length_b 25.571585
_cell_length_c 27.625208
_cell_angle_alpha 90.000000
_cell_angle_beta 90.000000
_cell_angle_gamma 90.000000
_cell_volume 6321.718312
_symmetry_space_group_name_H-M "I M M A"
_symmetry_group_IT_number 74
_symmetry_cell_setting 'orthorhombic'
loop_
_space_group_symop_operation_xyz
x,y,z
-x,1/2-y,z
x,-y,-z
-x,1/2+y,-z
-x,-y,-z
x,1/2+y,-z
-x,y,z
x,1/2-y,z
1/2+x,1/2+y,1/2+z
1/2-x,-y,1/2+z
1/2+x,1/2-y,1/2-z
1/2-x,y,1/2-z
1/2-x,1/2-y,1/2-z
1/2+x,y,1/2-z
1/2-x,1/2+y,1/2+z
1/2+x,-y,1/2+z
loop_
_atom_site_type_symbol
_atom_site_label
_atom_site_fract_x
_atom_site_fract_y
_atom_site_fract_z
Si Si1 0.824650 0.404759 0.438254
Si Si2 0.829251 0.808354 0.110210
Si Si3 0.679613 0.750000 0.803110
Si Si4 0.677815 0.850985 0.648728
Si Si5 0.329839 0.897065 0.461897
Si Si6 0.171720 0.542384 0.799401
Si Si7 0.167084 0.312412 0.703501
Si Si8 0.672642 0.503711 0.398619
O O1 0.733785 0.363016 0.405730
O O2 0.784683 0.398129 0.494292
O O3 0.780589 0.463680 0.425494
O O4 0.000000 0.395891 0.430455
O O5 0.771928 0.750000 0.098633
O O6 0.806393 0.840718 0.061643
O O7 0.739112 0.834208 0.154370
O O8 0.000000 0.808072 0.127165
O O9 0.500000 0.750000 0.799688
O O10 0.750000 0.750000 0.750000
O O11 0.735706 0.800804 0.831585
O O12 0.500000 0.841052 0.648187
O O13 0.723116 0.900352 0.682108
O O14 0.500000 0.904998 0.480406
O O15 0.292576 0.939633 0.420458
O O16 0.250000 0.525732 0.750000
O O17 0.205852 0.499018 0.840917
O O18 0.000000 0.544699 0.786503
O O19 0.178380 0.250000 0.703728
O O20 0.250000 0.336111 0.750000
O O21 0.000000 0.333097 0.705831
O O22 0.500000 0.486961 0.407489
#
# Coordination Sequence:
#
# PCOD8300295 Si02
#       8
#    16  16   8  16  16  16  16  16
#     4  11  22  36  56  83 111 138 177 234 289 337
#     4   9  18  33  52  75 102 133 175 221 264 320
#     4  12  24  38  58  88 124 160 200 244 289 332
#     4  10  21  39  59  81 111 152 197 238 281 338
#     4  10  20  36  57  77 104 144 184 225 278 340
#     4   9  18  32  53  79 107 140 180 222 273 334
#     4   9  16  27  46  70  95 126 164 207 254 302
#     4   9  19  36  56  78 106 142 183 224 271 337
#
# _framework density 18.982181000000001
#
# number of rings (size 3 to 8) (size 9 to 14) (size 15 to 20)
#    0.000    2.267    0.000    4.200    0.000    8.000 
#    1.200    0.667    0.000    1.600    0.000    0.000 
#    0.000    0.000    0.000    0.000    0.000    0.000 
#
# Total GULP energy -743946.865202 kJ/mol
# GULP energy per Si atom -12399.114420 kJ/mol
# Density = 1.893898 g / cm^3
# Si number density = 18.982181 Si / 1000 Ang^3
#
#
#
# Elastic Constant Matrix: (Units=GPa)
#
#
# Indices 1 2 3 4 5 6 
#
# 1 99.5622 31.0876 53.5527 0.0000 0.0000 0.0000
# 2 31.0876 76.5006 46.9928 0.0000 0.0000 0.0000
# 3 53.5527 46.9928 133.1733 0.0000 0.0000 0.0000
# 4 0.0000 0.0000 0.0000 21.2734 0.0000 0.0000
# 5 0.0000 0.0000 0.0000 0.0000 38.0858 0.0000
# 6 0.0000 0.0000 0.0000 0.0000 0.0000 18.9404
#
#
#
# Elastic Compliance Matrix: (Units=1/GPa)
#
#
# Indices 1 2 3 4 5 6 
#
# 1 0.013237 -0.002693 -0.004373 0.000000 0.000000 0.000000
# 2 -0.002693 0.017237 -0.005000 0.000000 0.000000 0.000000
# 3 -0.004373 -0.005000 0.011032 0.000000 0.000000 0.000000
# 4 0.000000 0.000000 0.000000 0.047007 0.000000 0.000000
# 5 0.000000 0.000000 0.000000 0.000000 0.026257 0.000000
# 6 0.000000 0.000000 0.000000 0.000000 0.000000 0.052797
#
#
# Mechanical properties :
#
#
# Convention : Reuss Voigt Hill
#
# Bulk Modulus (GPa) = 57.55320 63.61137 60.58229
# Shear Modulus (GPa) = 25.31794 27.50013 26.40903
#
# Velocity S-wave (km/s) = 3.65605 3.81035 3.73400
# Velocity P-wave (km/s) = 6.94317 7.27614 7.11161
#
# Compressibility (1/GPa) = 0.01737523
#
# Stress axis : x y z
#
# Youngs Moduli (GPa) = 75.54698 58.01373 90.64905
#
# Poissons Ratio (x) = 0.15623 0.39637
# Poissons Ratio (y) = 0.20345 0.45321
# Poissons Ratio (z) = 0.33034 0.29004
#
# Static dielectric constant tensor:
#      x y z
#    x 3.504180 0.000000 0.000000 
#    y 0.000000 3.342280 0.000000 
#    z 0.000000 0.000000 3.531640 
# 
# 
# High freq. dielectric constant tensor:
#      x y z
#    x 1.736820 0.000000 0.000000 
#    y 0.000000 1.716360 0.000000 
#    z 0.000000 0.000000 1.745140 
# 
# From -- ./inp_files/65100.got.cif
#   From: 2010.03.12/outbox.cif.g09.slc.cpg/sg74_33_cif.got.tgz:65100.got - 2010.04.16 15:46:19.
