data_PCOD8300889
_publ_section_title
;
Structure prediction by ZEFSAII (Michael W. Deem and Ramdas Pophale) SiO2 
 PCOD8300889
Probable space group: I M M A
;
_chemical_formula_sum "Si O2"
_cell_formula_units_Z 96
_cell_length_a 30.629330
_cell_length_b 16.686773
_cell_length_c 9.604918
_cell_angle_alpha 90.000000
_cell_angle_beta 90.000000
_cell_angle_gamma 90.000000
_cell_volume 4909.118511
_symmetry_space_group_name_H-M "I M M A"
_symmetry_group_IT_number 74
_symmetry_cell_setting 'orthorhombic'
loop_
_space_group_symop_operation_xyz
x,y,z
-x,1/2-y,z
x,-y,-z
-x,1/2+y,-z
-x,-y,-z
x,1/2+y,-z
-x,y,z
x,1/2-y,z
1/2+x,1/2+y,1/2+z
1/2-x,-y,1/2+z
1/2+x,1/2-y,1/2-z
1/2-x,y,1/2-z
1/2-x,1/2-y,1/2-z
1/2+x,y,1/2-z
1/2-x,1/2+y,1/2+z
1/2+x,-y,1/2+z
loop_
_atom_site_type_symbol
_atom_site_label
_atom_site_fract_x
_atom_site_fract_y
_atom_site_fract_z
Si Si1 0.384016 0.344700 0.304333
Si Si2 0.119668 0.344322 0.879269
Si Si3 0.046986 0.341992 0.685351
Si Si4 0.709015 0.095603 0.334243
Si Si5 0.550361 0.580302 0.912274
Si Si6 0.210606 0.907512 0.154374
O O1 0.394792 0.250000 0.286493
O O2 0.387599 0.375440 0.463972
O O3 0.333426 0.361559 0.267323
O O4 0.416966 0.400287 0.215189
O O5 0.116074 0.250000 0.879129
O O6 0.082333 0.384814 0.783726
O O7 0.164963 0.367206 0.805455
O O8 0.044290 0.250000 0.726398
O O9 0.058174 0.348309 0.522196
O O10 0.000000 0.384189 0.713046
O O11 0.750000 0.129490 0.250000
O O12 0.718926 0.116362 0.494534
O O13 0.704316 0.000924 0.317728
O O14 0.500000 0.577884 0.858234
O O15 0.562109 0.500000 0.000000
O O16 0.250000 0.873686 0.250000
#
# Coordination Sequence:
#
# PCOD8300889 Si02
#       6
#    16  16  16  16  16  16
#     4  10  21  37  57  82 110 146 184 226 280 331
#     4   9  19  34  54  81 111 143 185 229 273 331
#     4   9  18  34  54  76 106 142 177 219 270 323
#     4   9  19  35  52  77 107 143 184 227 274 330
#     4  10  22  38  55  81 112 144 184 229 277 330
#     4   9  18  33  52  74 107 145 182 222 276 329
#
# _framework density 19.555446
#
# number of rings (size 3 to 8) (size 9 to 14) (size 15 to 20)
#    0.000    2.667    0.000    0.500    2.333    3.667 
#    3.000    1.667    0.000    3.000    0.000    0.000 
#    0.000    0.000    0.000    0.000    0.000    0.000 
#
# Total GULP energy -594793.973777 kJ/mol
# GULP energy per Si atom -12391.541120 kJ/mol
# Density = 1.951094 g / cm^3
# Si number density = 19.555446 Si / 1000 Ang^3
#
#
#
# Elastic Constant Matrix: (Units=GPa)
#
#
# Indices 1 2 3 4 5 6 
#
# 1 166.5529 29.6427 97.1500 0.0000 0.0000 0.0000
# 2 29.6427 34.3541 20.9015 0.0000 0.0000 0.0000
# 3 97.1500 20.9015 94.5029 0.0000 0.0000 0.0000
# 4 0.0000 0.0000 0.0000 22.7884 0.0000 0.0000
# 5 0.0000 0.0000 0.0000 0.0000 48.1773 0.0000
# 6 0.0000 0.0000 0.0000 0.0000 0.0000 27.0494
#
#
#
# Elastic Compliance Matrix: (Units=1/GPa)
#
#
# Indices 1 2 3 4 5 6 
#
# 1 0.015517 -0.004257 -0.015010 0.000000 0.000000 0.000000
# 2 -0.004257 0.034802 -0.003321 0.000000 0.000000 0.000000
# 3 -0.015010 -0.003321 0.026747 0.000000 0.000000 0.000000
# 4 0.000000 0.000000 0.000000 0.043882 0.000000 0.000000
# 5 0.000000 0.000000 0.000000 0.000000 0.020757 0.000000
# 6 0.000000 0.000000 0.000000 0.000000 0.000000 0.036969
#
#
# Mechanical properties :
#
#
# Convention : Reuss Voigt Hill
#
# Bulk Modulus (GPa) = 31.35813 65.64425 48.50119
# Shear Modulus (GPa) = 21.32360 29.45071 25.38715
#
# Velocity S-wave (km/s) = 3.30573 3.88495 3.60698
# Velocity P-wave (km/s) = 5.53541 7.33245 6.49637
#
# Compressibility (1/GPa) = 0.03188966
#
# Stress axis : x y z
#
# Youngs Moduli (GPa) = 64.44434 28.73374 37.38704
#
# Poissons Ratio (x) = 0.12231 0.56120
# Poissons Ratio (y) = 0.27432 0.12418
# Poissons Ratio (z) = 0.96734 0.09544
#
# Static dielectric constant tensor:
#      x y z
#    x 3.960410 0.000000 0.000000 
#    y 0.000000 3.390960 0.000000 
#    z 0.000000 0.000000 3.751130 
# 
# 
# High freq. dielectric constant tensor:
#      x y z
#    x 1.770720 0.000000 0.000000 
#    y 0.000000 1.749170 0.000000 
#    z 0.000000 0.000000 1.752830 
# 
# From -- ./inp_files/15084.got.cif
#   From: 2010.03.12/outbox.cif.g09.slc.cpg/sg74_8_cif.got.tgz:15084.got - 2010.04.16 15:46:19.
