data_PCOD8300919
_publ_section_title
;
Structure prediction by ZEFSAII (Michael W. Deem and Ramdas Pophale) SiO2 
 PCOD8300919
Probable space group: I M M A
;
_chemical_formula_sum "Si O2"
_cell_formula_units_Z 88
_cell_length_a 26.636512
_cell_length_b 11.850055
_cell_length_c 10.930742
_cell_angle_alpha 90.000000
_cell_angle_beta 90.000000
_cell_angle_gamma 90.000000
_cell_volume 3450.224573
_symmetry_space_group_name_H-M "I M M A"
_symmetry_group_IT_number 74
_symmetry_cell_setting 'orthorhombic'
loop_
_space_group_symop_operation_xyz
x,y,z
-x,1/2-y,z
x,-y,-z
-x,1/2+y,-z
-x,-y,-z
x,1/2+y,-z
-x,y,z
x,1/2-y,z
1/2+x,1/2+y,1/2+z
1/2-x,-y,1/2+z
1/2+x,1/2-y,1/2-z
1/2-x,y,1/2-z
1/2-x,1/2-y,1/2-z
1/2+x,y,1/2-z
1/2-x,1/2+y,1/2+z
1/2+x,-y,1/2+z
loop_
_atom_site_type_symbol
_atom_site_label
_atom_site_fract_x
_atom_site_fract_y
_atom_site_fract_z
Si Si1 0.057332 0.617325 0.676334
Si Si2 0.277863 0.620294 0.635648
Si Si3 0.942727 0.883437 0.171040
Si Si4 0.108564 0.384332 0.579248
Si Si5 0.699494 0.000000 0.000000
Si Si6 0.611540 0.115187 0.423298
O O1 0.064651 0.750000 0.684023
O O2 0.089896 0.577009 0.558198
O O3 0.075227 0.570666 0.811912
O O4 0.000000 0.583929 0.654906
O O5 0.286922 0.750000 0.666075
O O6 0.250000 0.559237 0.750000
O O7 0.236390 0.603378 0.531772
O O8 0.332141 0.569421 0.602215
O O9 0.936284 0.750000 0.175318
O O10 0.928293 0.927097 0.310362
O O11 0.000000 0.916396 0.142235
O O12 0.906343 0.927994 0.059982
O O13 0.111892 0.250000 0.584148
O O14 0.163398 0.440268 0.600883
O O15 0.609071 0.250000 0.425775
#
# Coordination Sequence:
#
# PCOD8300919 Si02
#       6
#    16  16  16  16   8  16
#     4   9  16  30  56  87 117 152 195 241 290 352
#     4  10  22  41  63  88 120 159 205 258 310 358
#     4   9  17  32  55  84 120 156 186 228 294 363
#     4  10  21  37  58  87 121 155 194 241 295 357
#     4  12  24  38  61  86 113 156 208 254 300 354
#     4   9  17  31  55  86 116 149 194 243 291 352
#
# _framework density 25.505586999999998
#
# number of rings (size 3 to 8) (size 9 to 14) (size 15 to 20)
#    0.000    2.364    0.000    2.727    0.000    8.727 
#    0.000    1.818    0.000    5.455    0.000    5.091 
#    0.000    0.000    0.000    0.000    0.000    0.364 
#
# Total GULP energy -545530.309796 kJ/mol
# GULP energy per Si atom -12398.416132 kJ/mol
# Density = 2.544753 g / cm^3
# Si number density = 25.505587 Si / 1000 Ang^3
#
#
#
# Elastic Constant Matrix: (Units=GPa)
#
#
# Indices 1 2 3 4 5 6 
#
# 1 232.2889 35.6832 112.2945 0.0000 0.0000 0.0000
# 2 35.6832 91.9925 76.4612 0.0000 0.0000 0.0000
# 3 112.2945 76.4612 154.1226 0.0000 0.0000 0.0000
# 4 0.0000 0.0000 0.0000 61.2619 0.0000 0.0000
# 5 0.0000 0.0000 0.0000 0.0000 48.8095 0.0000
# 6 0.0000 0.0000 0.0000 0.0000 0.0000 31.3463
#
#
#
# Elastic Compliance Matrix: (Units=1/GPa)
#
#
# Indices 1 2 3 4 5 6 
#
# 1 0.006990 0.002590 -0.006378 0.000000 0.000000 0.000000
# 2 0.002590 0.019457 -0.011540 0.000000 0.000000 0.000000
# 3 -0.006378 -0.011540 0.016860 0.000000 0.000000 0.000000
# 4 0.000000 0.000000 0.000000 0.016323 0.000000 0.000000
# 5 0.000000 0.000000 0.000000 0.000000 0.020488 0.000000
# 6 0.000000 0.000000 0.000000 0.000000 0.000000 0.031902
#
#
# Mechanical properties :
#
#
# Convention : Reuss Voigt Hill
#
# Bulk Modulus (GPa) = 79.03920 103.03132 91.03526
# Shear Modulus (GPa) = 34.03793 45.21454 39.62623
#
# Velocity S-wave (km/s) = 3.65708 4.21495 3.94589
# Velocity P-wave (km/s) = 6.99204 8.01068 7.51863
#
# Compressibility (1/GPa) = 0.01265195
#
# Stress axis : x y z
#
# Youngs Moduli (GPa) = 143.05142 51.39415 59.31053
#
# Poissons Ratio (x) = -0.13309 0.37829
# Poissons Ratio (y) = -0.37046 0.68443
# Poissons Ratio (z) = 0.91239 0.59308
#
# Static dielectric constant tensor:
#      x y z
#    x 4.586900 0.000000 0.000000 
#    y 0.000000 5.279820 0.000000 
#    z 0.000000 0.000000 3.183560 
# 
# 
# High freq. dielectric constant tensor:
#      x y z
#    x 2.014280 0.000000 0.000000 
#    y 0.000000 2.100880 0.000000 
#    z 0.000000 0.000000 2.029920 
# 
# From -- ./inp_files/24972.got.cif
#   From: 2010.03.12/outbox.cif.g09.slc.cpg/sg74_13_cif.got.tgz:24972.got - 2010.04.16 15:46:19.
