data_PCOD8300279
_publ_section_title
;
Structure prediction by ZEFSAII (Michael W. Deem and Ramdas Pophale) SiO2 
 PCOD8300279
Probable space group: I M M A
;
_chemical_formula_sum "Si O2"
_cell_formula_units_Z 80
_cell_length_a 8.780334
_cell_length_b 27.757020
_cell_length_c 17.676945
_cell_angle_alpha 90.000000
_cell_angle_beta 90.000000
_cell_angle_gamma 90.000000
_cell_volume 4308.152674
_symmetry_space_group_name_H-M "I M M A"
_symmetry_group_IT_number 74
_symmetry_cell_setting 'orthorhombic'
loop_
_space_group_symop_operation_xyz
x,y,z
-x,1/2-y,z
x,-y,-z
-x,1/2+y,-z
-x,-y,-z
x,1/2+y,-z
-x,y,z
x,1/2-y,z
1/2+x,1/2+y,1/2+z
1/2-x,-y,1/2+z
1/2+x,1/2-y,1/2-z
1/2-x,y,1/2-z
1/2-x,1/2-y,1/2-z
1/2+x,y,1/2-z
1/2-x,1/2+y,1/2+z
1/2+x,-y,1/2+z
loop_
_atom_site_type_symbol
_atom_site_label
_atom_site_fract_x
_atom_site_fract_y
_atom_site_fract_z
Si Si1 0.176807 0.942899 0.105061
Si Si2 0.675646 0.695697 0.467519
Si Si3 0.178725 0.462596 0.332287
Si Si4 0.825666 0.896207 0.944896
Si Si5 0.320510 0.850382 0.172616
O O1 0.254235 0.903410 0.158320
O O2 0.000000 0.945680 0.126544
O O3 0.253538 0.993962 0.119037
O O4 0.201132 0.929684 0.017769
O O5 0.500000 0.686232 0.444513
O O6 0.702477 0.750000 0.496657
O O7 0.720008 0.658864 0.534643
O O8 0.777112 0.686433 0.393892
O O9 0.250000 0.460995 0.250000
O O10 0.218469 0.413407 0.376701
O O11 0.000000 0.468682 0.324495
O O12 0.000000 0.899532 0.917725
O O13 0.500000 0.853671 0.179810
O O14 0.250000 0.829841 0.250000
#
# Coordination Sequence:
#
# PCOD8300279 Si02
#       5
#    16  16  16  16  16
#     4  10  20  36  56  78 108 144 179 214 256 309
#     4   9  19  37  59  80 103 135 174 216 266 320
#     4  12  24  36  53  78 109 142 177 217 260 309
#     4   9  19  36  57  80 107 138 172 213 260 311
#     4  11  21  33  50  75 109 145 181 220 260 305
#
# _framework density 18.569444000000001
#
# number of rings (size 3 to 8) (size 9 to 14) (size 15 to 20)
#    0.000    1.800    0.000    6.600    0.000    7.200 
#    0.000    0.000    0.000    0.600    0.000    0.000 
#    0.000    0.000    0.000    0.000    0.000    0.000 
#
# Total GULP energy -496149.465598 kJ/mol
# GULP energy per Si atom -12403.736640 kJ/mol
# Density = 1.852718 g / cm^3
# Si number density = 18.569444 Si / 1000 Ang^3
#
#
#
# Elastic Constant Matrix: (Units=GPa)
#
#
# Indices 1 2 3 4 5 6 
#
# 1 134.8085 45.3117 39.3121 0.0000 0.0000 -0.0001
# 2 45.3117 125.0153 44.1611 0.0001 0.0000 0.0001
# 3 39.3121 44.1611 56.6180 0.0004 0.0000 0.0001
# 4 0.0000 0.0001 0.0004 11.9764 0.0000 0.0000
# 5 0.0000 0.0000 0.0000 0.0000 31.5390 0.0000
# 6 -0.0001 0.0001 0.0001 0.0000 0.0000 20.0422
#
#
#
# Elastic Compliance Matrix: (Units=1/GPa)
#
#
# Indices 1 2 3 4 5 6 
#
# 1 0.009511 -0.001538 -0.005404 0.000000 0.000000 0.000000
# 2 -0.001538 0.011290 -0.007738 0.000000 0.000000 0.000000
# 3 -0.005404 -0.007738 0.027450 -0.000001 0.000000 0.000000
# 4 0.000000 0.000000 -0.000001 0.083498 0.000000 0.000000
# 5 0.000000 0.000000 0.000000 0.000000 0.031707 0.000000
# 6 0.000000 0.000000 0.000000 0.000000 0.000000 0.049895
#
#
# Mechanical properties :
#
#
# Convention : Reuss Voigt Hill
#
# Bulk Modulus (GPa) = 52.93683 63.77905 58.35794
# Shear Modulus (GPa) = 20.07977 25.22197 22.65087
#
# Velocity S-wave (km/s) = 3.29193 3.68944 3.49634
# Velocity P-wave (km/s) = 6.55885 7.25053 6.91334
#
# Compressibility (1/GPa) = 0.01889044
#
# Stress axis : x y z
#
# Youngs Moduli (GPa) = 105.14329 88.57446 36.43014
#
# Poissons Ratio (x) = 0.13625 0.19687
# Poissons Ratio (y) = 0.16174 0.28189
# Poissons Ratio (z) = 0.56818 0.68538
#
# Static dielectric constant tensor:
#      x y z
#    x 3.446590 0.000000 0.000000 
#    y 0.000000 3.447480 0.000000 
#    z 0.000000 0.000000 3.280380 
# 
# 
# High freq. dielectric constant tensor:
#      x y z
#    x 1.726640 0.000000 0.000000 
#    y 0.000000 1.715560 0.000000 
#    z 0.000000 0.000000 1.705140 
# 
# From -- ./inp_files/39694.got.cif
#   From: 2010.03.12/outbox.cif.g09.slc.cpg/sg74_20_cif.got.tgz:39694.got - 2010.04.16 15:46:19.
