data_PCOD8300952
_publ_section_title
;
Structure prediction by ZEFSAII (Michael W. Deem and Ramdas Pophale) SiO2 
 PCOD8300952
Probable space group: I M M A
;
_chemical_formula_sum "Si O2"
_cell_formula_units_Z 72
_cell_length_a 13.941119
_cell_length_b 28.534391
_cell_length_c 10.060986
_cell_angle_alpha 90.000000
_cell_angle_beta 90.000000
_cell_angle_gamma 90.000000
_cell_volume 4002.273718
_symmetry_space_group_name_H-M "I M M A"
_symmetry_group_IT_number 74
_symmetry_cell_setting 'orthorhombic'
loop_
_space_group_symop_operation_xyz
x,y,z
-x,1/2-y,z
x,-y,-z
-x,1/2+y,-z
-x,-y,-z
x,1/2+y,-z
-x,y,z
x,1/2-y,z
1/2+x,1/2+y,1/2+z
1/2-x,-y,1/2+z
1/2+x,1/2-y,1/2-z
1/2-x,y,1/2-z
1/2-x,1/2-y,1/2-z
1/2+x,y,1/2-z
1/2-x,1/2+y,1/2+z
1/2+x,-y,1/2+z
loop_
_atom_site_type_symbol
_atom_site_label
_atom_site_fract_x
_atom_site_fract_y
_atom_site_fract_z
Si Si1 0.316626 0.639972 0.622339
Si Si2 0.750000 0.577489 0.250000
Si Si3 0.301411 0.665375 0.120388
Si Si4 0.500000 0.303561 0.979349
Si Si5 0.000000 0.693431 0.775372
Si Si6 0.393164 0.446897 0.542147
O O1 0.250000 0.630819 0.750000
O O2 0.259598 0.671575 0.514284
O O3 0.406701 0.672309 0.655415
O O4 0.348330 0.589168 0.565092
O O5 0.690796 0.609701 0.146060
O O6 0.671419 0.547546 0.326657
O O7 0.250000 0.689398 0.250000
O O8 0.407548 0.684963 0.107793
O O9 0.500000 0.250000 0.014452
O O10 0.500000 0.327230 0.124597
O O11 0.000000 0.750000 0.787094
O O12 0.399354 0.500000 0.500000
O O13 0.500000 0.428395 0.576566
#
# Coordination Sequence:
#
# PCOD8300952 Si02
#       6
#    16   8  16   8   8  16
#     4  11  21  39  62  87 118 158 199 240 297 353
#     4   8  20  36  57  80 114 152 187 238 290 350
#     4   9  21  37  58  81 115 156 188 238 297 351
#     4  11  22  37  57  85 116 148 198 251 295 345
#     4  11  24  39  62  89 117 156 204 255 298 349
#     4  10  21  37  60  88 118 153 195 242 294 357
#
# _framework density 17.989775999999999
#
# number of rings (size 3 to 8) (size 9 to 14) (size 15 to 20)
#    0.667    1.333    3.333    0.000    3.111    2.667 
#    0.000    1.111    0.000    0.667    0.000    0.000 
#    0.000    0.000    0.000    0.000    0.000    0.000 
#
# Total GULP energy -445982.632607 kJ/mol
# GULP energy per Si atom -12388.406461 kJ/mol
# Density = 1.794883 g / cm^3
# Si number density = 17.989776 Si / 1000 Ang^3
#
#
#
# Elastic Constant Matrix: (Units=GPa)
#
#
# Indices 1 2 3 4 5 6 
#
# 1 167.0729 42.6234 84.3564 -0.0001 0.0001 -0.0004
# 2 42.6234 64.1857 23.3848 0.0010 -0.0003 0.0003
# 3 84.3564 23.3848 130.2695 0.0020 0.0000 -0.0016
# 4 -0.0001 0.0010 0.0020 14.4533 -0.0003 -0.0004
# 5 0.0001 -0.0003 0.0000 -0.0003 44.6839 0.0008
# 6 -0.0004 0.0003 -0.0016 -0.0004 0.0008 34.9660
#
#
#
# Elastic Compliance Matrix: (Units=1/GPa)
#
#
# Indices 1 2 3 4 5 6 
#
# 1 0.010014 -0.004587 -0.005661 0.000001 0.000000 0.000000
# 2 -0.004587 0.018772 -0.000399 -0.000001 0.000000 0.000000
# 3 -0.005661 -0.000399 0.011414 -0.000002 0.000000 0.000000
# 4 0.000001 -0.000001 -0.000002 0.069188 0.000001 0.000001
# 5 0.000000 0.000000 0.000000 0.000001 0.022379 -0.000001
# 6 0.000000 0.000000 0.000000 0.000001 -0.000001 0.028599
#
#
# Mechanical properties :
#
#
# Convention : Reuss Voigt Hill
#
# Bulk Modulus (GPa) = 52.89828 73.58412 63.24120
# Shear Modulus (GPa) = 26.60091 32.89821 29.74956
#
# Velocity S-wave (km/s) = 3.84952 4.28099 4.07097
# Velocity P-wave (km/s) = 7.01619 8.08875 7.57149
#
# Compressibility (1/GPa) = 0.01890421
#
# Stress axis : x y z
#
# Youngs Moduli (GPa) = 99.85879 53.27200 87.61220
#
# Poissons Ratio (x) = 0.24439 0.49599
# Poissons Ratio (y) = 0.45810 0.03496
# Poissons Ratio (z) = 0.56532 0.02126
#
# Static dielectric constant tensor:
#      x y z
#    x 3.511110 0.000000 0.000000 
#    y 0.000000 3.058400 0.000000 
#    z 0.000000 0.000000 3.455080 
# 
# 
# High freq. dielectric constant tensor:
#      x y z
#    x 1.710010 0.000000 0.000000 
#    y 0.000000 1.678770 0.000000 
#    z 0.000000 0.000000 1.702680 
# 
# From -- ./inp_files/9189.got.cif
#   From: 2010.03.12/outbox.cif.g09.slc.cpg/sg74_5_cif.got.tgz:9189.got - 2010.04.16 15:46:19.
