data_PCOD8300013
_publ_section_title
;
Structure prediction by ZEFSAII (Michael W. Deem and Ramdas Pophale) SiO2 
 PCOD8300013
Probable space group: I M M A
;
_chemical_formula_sum "Si O2"
_cell_formula_units_Z 72
_cell_length_a 8.817391
_cell_length_b 21.064012
_cell_length_c 19.397798
_cell_angle_alpha 90.000000
_cell_angle_beta 90.000000
_cell_angle_gamma 90.000000
_cell_volume 3602.745842
_symmetry_space_group_name_H-M "I M M A"
_symmetry_group_IT_number 74
_symmetry_cell_setting 'orthorhombic'
loop_
_space_group_symop_operation_xyz
x,y,z
-x,1/2-y,z
x,-y,-z
-x,1/2+y,-z
-x,-y,-z
x,1/2+y,-z
-x,y,z
x,1/2-y,z
1/2+x,1/2+y,1/2+z
1/2-x,-y,1/2+z
1/2+x,1/2-y,1/2-z
1/2-x,y,1/2-z
1/2-x,1/2-y,1/2-z
1/2+x,y,1/2-z
1/2-x,1/2+y,1/2+z
1/2+x,-y,1/2+z
loop_
_atom_site_type_symbol
_atom_site_label
_atom_site_fract_x
_atom_site_fract_y
_atom_site_fract_z
Si Si1 0.681457 0.250000 0.673477
Si Si2 0.822661 0.622417 0.567992
Si Si3 0.334953 0.822087 0.686099
Si Si4 0.320299 0.866269 0.089348
Si Si5 0.327640 0.495568 0.581836
O O1 0.500000 0.250000 0.677703
O O2 0.750000 0.250000 0.750000
O O3 0.736630 0.312520 0.633256
O O4 0.768245 0.678635 0.617289
O O5 0.770270 0.639947 0.490649
O O6 0.746994 0.561292 0.605380
O O7 0.000000 0.611388 0.568025
O O8 0.500000 0.854453 0.673397
O O9 0.362620 0.750000 0.707238
O O10 0.250000 0.856745 0.750000
O O11 0.500000 0.859126 0.099719
O O12 0.265661 0.936135 0.113256
O O13 0.315342 0.500000 0.500000
O O14 0.500000 0.489516 0.607463
#
# Coordination Sequence:
#
# PCOD8300013 Si02
#       5
#     8  16  16  16  16
#     4  12  26  44  64  86 117 154 195 242 296 352
#     4  10  20  34  57  86 117 151 190 236 283 337
#     4  10  21  36  53  76 110 151 190 231 279 332
#     4  10  21  38  60  87 117 150 190 234 286 342
#     4   9  17  32  55  84 116 149 187 234 285 336
#
# _framework density 19.984756000000001
#
# number of rings (size 3 to 8) (size 9 to 14) (size 15 to 20)
#    0.000    2.000    0.000    3.667    1.556    6.667 
#    0.000    1.111    0.000    0.000    0.000    0.000 
#    0.000    0.000    0.000    0.000    0.000    0.000 
#
# Total GULP energy -446196.527185 kJ/mol
# GULP energy per Si atom -12394.347977 kJ/mol
# Density = 1.993927 g / cm^3
# Si number density = 19.984756 Si / 1000 Ang^3
#
#
#
# Elastic Constant Matrix: (Units=GPa)
#
#
# Indices 1 2 3 4 5 6 
#
# 1 115.8349 48.1659 51.6246 0.0000 0.0000 0.0000
# 2 48.1659 95.7860 44.5972 0.0000 0.0000 0.0000
# 3 51.6246 44.5972 102.5448 0.0000 0.0000 0.0000
# 4 0.0000 0.0000 0.0000 8.9755 0.0000 0.0000
# 5 0.0000 0.0000 0.0000 0.0000 30.7376 0.0000
# 6 0.0000 0.0000 0.0000 0.0000 0.0000 36.9858
#
#
#
# Elastic Compliance Matrix: (Units=1/GPa)
#
#
# Indices 1 2 3 4 5 6 
#
# 1 0.012317 -0.004146 -0.004398 0.000000 0.000000 0.000000
# 2 -0.004146 0.014486 -0.004213 0.000000 0.000000 0.000000
# 3 -0.004398 -0.004213 0.013798 0.000000 0.000000 0.000000
# 4 0.000000 0.000000 0.000000 0.111414 0.000000 0.000000
# 5 0.000000 0.000000 0.000000 0.000000 0.032533 0.000000
# 6 0.000000 0.000000 0.000000 0.000000 0.000000 0.027037
#
#
# Mechanical properties :
#
#
# Convention : Reuss Voigt Hill
#
# Bulk Modulus (GPa) = 66.27777 66.99347 66.63562
# Shear Modulus (GPa) = 20.65019 26.65831 23.65425
#
# Velocity S-wave (km/s) = 3.21798 3.65627 3.44410
# Velocity P-wave (km/s) = 6.85882 7.17073 7.01651
#
# Compressibility (1/GPa) = 0.01508802
#
# Stress axis : x y z
#
# Youngs Moduli (GPa) = 81.18953 69.03100 72.47455
#
# Poissons Ratio (x) = 0.28620 0.31871
# Poissons Ratio (y) = 0.33661 0.30533
# Poissons Ratio (z) = 0.35704 0.29082
#
# Static dielectric constant tensor:
#      x y z
#    x 3.917700 0.000000 0.000000 
#    y 0.000000 3.731420 0.000000 
#    z 0.000000 0.000000 3.430220 
# 
# 
# High freq. dielectric constant tensor:
#      x y z
#    x 1.798660 0.000000 0.000000 
#    y 0.000000 1.774900 0.000000 
#    z 0.000000 0.000000 1.755870 
# 
# From -- ./inp_files/48369.got.cif
#   From: 2010.03.12/outbox.cif.g09.slc.cpg/sg74_25_cif.got.tgz:48369.got - 2010.04.16 15:46:19.
