data_PCOD8300287
_publ_section_title
;
Structure prediction by ZEFSAII (Michael W. Deem and Ramdas Pophale) SiO2 
 PCOD8300287
Probable space group: I M M A
;
_chemical_formula_sum "Si O2"
_cell_formula_units_Z 88
_cell_length_a 21.992541
_cell_length_b 8.833646
_cell_length_c 22.893341
_cell_angle_alpha 90.000000
_cell_angle_beta 90.000000
_cell_angle_gamma 90.000000
_cell_volume 4447.588297
_symmetry_space_group_name_H-M "I M M A"
_symmetry_group_IT_number 74
_symmetry_cell_setting 'orthorhombic'
loop_
_space_group_symop_operation_xyz
x,y,z
-x,1/2-y,z
x,-y,-z
-x,1/2+y,-z
-x,-y,-z
x,1/2+y,-z
-x,y,z
x,1/2-y,z
1/2+x,1/2+y,1/2+z
1/2-x,-y,1/2+z
1/2+x,1/2-y,1/2-z
1/2-x,y,1/2-z
1/2-x,1/2-y,1/2-z
1/2+x,y,1/2-z
1/2-x,1/2+y,1/2+z
1/2+x,-y,1/2+z
loop_
_atom_site_type_symbol
_atom_site_label
_atom_site_fract_x
_atom_site_fract_y
_atom_site_fract_z
Si Si1 0.381749 0.925686 0.877707
Si Si2 0.000000 0.569099 0.434704
Si Si3 0.239690 0.576670 0.560283
Si Si4 0.181650 0.572553 0.265758
Si Si5 0.163024 0.574375 0.848642
Si Si6 0.933012 0.575987 0.944271
O O1 0.399205 0.750000 0.868732
O O2 0.331943 0.944530 0.928732
O O3 0.441098 0.017478 0.897862
O O4 0.351386 0.987283 0.818598
O O5 0.000000 0.500000 0.500000
O O6 0.000000 0.750000 0.440236
O O7 0.258327 0.500000 0.500000
O O8 0.259006 0.750000 0.553649
O O9 0.277847 0.512333 0.615599
O O10 0.179706 0.750000 0.279195
O O11 0.250000 0.515438 0.250000
O O12 0.146674 0.528032 0.207004
O O13 0.172049 0.750000 0.830774
O O14 0.104051 0.545973 0.886553
O O15 0.937038 0.750000 0.959178
O O16 0.000000 0.505497 0.934741
O O17 0.900429 0.500000 0.000000
#
# Coordination Sequence:
#
# PCOD8300287 Si02
#       6
#    16   8  16  16  16  16
#     4  11  23  42  66  91 122 165 210 255 315 377
#     4  12  26  46  70  98 132 168 213 264 319 384
#     4  10  21  34  55  86 117 151 194 246 305 366
#     4  11  23  39  61  89 120 158 201 252 309 366
#     4  10  20  36  56  81 115 156 200 247 298 363
#     4   9  18  33  54  80 112 150 191 235 287 345
#
# _framework density 19.786003000000001
#
# number of rings (size 3 to 8) (size 9 to 14) (size 15 to 20)
#    0.000    1.636    1.818    3.000    0.000    5.091 
#    1.636    0.000    0.000    0.000    0.000    0.000 
#    0.000    0.000    0.000    0.000    0.000    0.000 
#
# Total GULP energy -545450.553897 kJ/mol
# GULP energy per Si atom -12396.603498 kJ/mol
# Density = 1.974097 g / cm^3
# Si number density = 19.786003 Si / 1000 Ang^3
#
#
#
# Elastic Constant Matrix: (Units=GPa)
#
#
# Indices 1 2 3 4 5 6 
#
# 1 95.8871 44.4183 40.4907 0.0000 0.0000 0.0000
# 2 44.4183 82.2148 52.4810 0.0000 0.0000 0.0000
# 3 40.4907 52.4810 127.8577 0.0000 0.0000 0.0000
# 4 0.0000 0.0000 0.0000 39.8148 0.0000 0.0000
# 5 0.0000 0.0000 0.0000 0.0000 33.6988 0.0000
# 6 0.0000 0.0000 0.0000 0.0000 0.0000 17.0863
#
#
#
# Elastic Compliance Matrix: (Units=1/GPa)
#
#
# Indices 1 2 3 4 5 6 
#
# 1 0.014219 -0.006515 -0.001829 0.000000 0.000000 0.000000
# 2 -0.006515 0.019467 -0.005927 0.000000 0.000000 0.000000
# 3 -0.001829 -0.005927 0.010833 0.000000 0.000000 0.000000
# 4 0.000000 0.000000 0.000000 0.025116 0.000000 0.000000
# 5 0.000000 0.000000 0.000000 0.000000 0.029675 0.000000
# 6 0.000000 0.000000 0.000000 0.000000 0.000000 0.058526
#
#
# Mechanical properties :
#
#
# Convention : Reuss Voigt Hill
#
# Bulk Modulus (GPa) = 62.58894 64.52661 63.55777
# Shear Modulus (GPa) = 26.08194 29.35796 27.71995
#
# Velocity S-wave (km/s) = 3.63464 3.85616 3.74704
# Velocity P-wave (km/s) = 7.02252 7.24635 7.13531
#
# Compressibility (1/GPa) = 0.01597726
#
# Stress axis : x y z
#
# Youngs Moduli (GPa) = 70.32808 51.37027 92.30806
#
# Poissons Ratio (x) = 0.33466 0.16883
# Poissons Ratio (y) = 0.45816 0.54713
# Poissons Ratio (z) = 0.12863 0.30448
#
# Static dielectric constant tensor:
#      x y z
#    x 4.244450 0.000000 0.000000 
#    y 0.000000 3.544780 0.000000 
#    z 0.000000 0.000000 3.598320 
# 
# 
# High freq. dielectric constant tensor:
#      x y z
#    x 1.773480 0.000000 0.000000 
#    y 0.000000 1.766570 0.000000 
#    z 0.000000 0.000000 1.779690 
# 
# From -- ./inp_files/61423.got.cif
#   From: 2010.03.12/outbox.cif.g09.slc.cpg/sg74_31_cif.got.tgz:61423.got - 2010.04.16 15:46:19.
