data_PCOD8300444
_publ_section_title
;
Structure prediction by ZEFSAII (Michael W. Deem and Ramdas Pophale) SiO2 
 PCOD8300444
Probable space group: I M M A
;
_chemical_formula_sum "Si O2"
_cell_formula_units_Z 88
_cell_length_a 9.303763
_cell_length_b 17.588805
_cell_length_c 28.554090
_cell_angle_alpha 90.000000
_cell_angle_beta 90.000000
_cell_angle_gamma 90.000000
_cell_volume 4672.650485
_symmetry_space_group_name_H-M "I M M A"
_symmetry_group_IT_number 74
_symmetry_cell_setting 'orthorhombic'
loop_
_space_group_symop_operation_xyz
x,y,z
-x,1/2-y,z
x,-y,-z
-x,1/2+y,-z
-x,-y,-z
x,1/2+y,-z
-x,y,z
x,1/2-y,z
1/2+x,1/2+y,1/2+z
1/2-x,-y,1/2+z
1/2+x,1/2-y,1/2-z
1/2-x,y,1/2-z
1/2-x,1/2-y,1/2-z
1/2+x,y,1/2-z
1/2-x,1/2+y,1/2+z
1/2+x,-y,1/2+z
loop_
_atom_site_type_symbol
_atom_site_label
_atom_site_fract_x
_atom_site_fract_y
_atom_site_fract_z
Si Si1 0.663898 0.057698 0.364640
Si Si2 0.665206 0.576425 0.527164
Si Si3 0.169007 0.750000 0.201064
Si Si4 0.667025 0.337836 0.203392
Si Si5 0.836410 0.661376 0.455566
Si Si6 0.834721 0.885851 0.133384
O O1 0.500000 0.084117 0.355418
O O2 0.703378 0.064334 0.418963
O O3 0.774052 0.112140 0.338707
O O4 0.684318 0.971087 0.346704
O O5 0.703544 0.500000 0.500000
O O6 0.500000 0.599354 0.520204
O O7 0.762211 0.642946 0.505228
O O8 0.250000 0.750000 0.250000
O O9 0.215963 0.674855 0.172283
O O10 0.000000 0.750000 0.211214
O O11 0.500000 0.355118 0.211064
O O12 0.694794 0.250000 0.190996
O O13 0.750000 0.361993 0.250000
O O14 0.825749 0.750000 0.446095
O O15 0.757491 0.619131 0.413401
O O16 0.000000 0.633071 0.457146
O O17 0.000000 0.870364 0.119375
#
# Coordination Sequence:
#
# PCOD8300444 Si02
#       6
#    16  16   8  16  16  16
#     4  10  21  37  61  91 120 150 196 247 292 349
#     4  10  20  37  59  83 114 154 196 238 284 340
#     4  10  22  38  60  84 114 154 194 246 299 346
#     4  10  22  41  64  88 117 154 193 238 295 355
#     4  11  23  36  54  83 117 154 196 241 287 340
#     4  10  20  38  61  83 111 154 200 241 291 350
#
# _framework density 18.832993999999999
#
# number of rings (size 3 to 8) (size 9 to 14) (size 15 to 20)
#    0.000    1.818    2.727    1.091    0.000    6.182 
#    0.000    5.455    0.000    0.000    0.000    0.000 
#    0.000    0.000    0.000    0.000    0.000    0.000 
#
# Total GULP energy -545766.944723 kJ/mol
# GULP energy per Si atom -12403.794198 kJ/mol
# Density = 1.879013 g / cm^3
# Si number density = 18.832994 Si / 1000 Ang^3
#
#
#
# Elastic Constant Matrix: (Units=GPa)
#
#
# Indices 1 2 3 4 5 6 
#
# 1 98.5927 51.6364 60.3567 0.0000 0.0000 0.0000
# 2 51.6364 78.1867 55.3454 0.0000 0.0000 0.0000
# 3 60.3567 55.3454 116.9686 0.0000 0.0000 0.0000
# 4 0.0000 0.0000 0.0000 34.1717 0.0000 0.0000
# 5 0.0000 0.0000 0.0000 0.0000 37.3089 0.0000
# 6 0.0000 0.0000 0.0000 0.0000 0.0000 28.3198
#
#
#
# Elastic Compliance Matrix: (Units=1/GPa)
#
#
# Indices 1 2 3 4 5 6 
#
# 1 0.017481 -0.007758 -0.005349 0.000000 0.000000 0.000000
# 2 -0.007758 0.022674 -0.006725 0.000000 0.000000 0.000000
# 3 -0.005349 -0.006725 0.014492 0.000000 0.000000 0.000000
# 4 0.000000 0.000000 0.000000 0.029264 0.000000 0.000000
# 5 0.000000 0.000000 0.000000 0.000000 0.026803 0.000000
# 6 0.000000 0.000000 0.000000 0.000000 0.000000 0.035311
#
#
# Mechanical properties :
#
#
# Convention : Reuss Voigt Hill
#
# Bulk Modulus (GPa) = 66.75085 69.82501 68.28793
# Shear Modulus (GPa) = 26.22138 28.38738 27.30438
#
# Velocity S-wave (km/s) = 3.73542 3.88664 3.81178
# Velocity P-wave (km/s) = 7.35697 7.56952 7.46400
#
# Compressibility (1/GPa) = 0.01498108
#
# Stress axis : x y z
#
# Youngs Moduli (GPa) = 57.20603 44.10309 69.00459
#
# Poissons Ratio (x) = 0.34216 0.36913
# Poissons Ratio (y) = 0.44381 0.46408
# Poissons Ratio (z) = 0.30601 0.29661
#
# Static dielectric constant tensor:
#      x y z
#    x 3.478390 0.000000 0.000000 
#    y 0.000000 3.539550 0.000000 
#    z 0.000000 0.000000 3.417610 
# 
# 
# High freq. dielectric constant tensor:
#      x y z
#    x 1.732260 0.000000 0.000000 
#    y 0.000000 1.735410 0.000000 
#    z 0.000000 0.000000 1.728380 
# 
# From -- ./inp_files/70310.got.cif
#   From: 2010.03.12/outbox.cif.g09.slc.cpg/sg74_36_cif.got.tgz:70310.got - 2010.04.16 15:46:19.
