data_PCOD8300333
_publ_section_title
;
Structure prediction by ZEFSAII (Michael W. Deem and Ramdas Pophale) SiO2 
 PCOD8300333
Probable space group: I M M A
;
_chemical_formula_sum "Si O2"
_cell_formula_units_Z 96
_cell_length_a 18.863780
_cell_length_b 29.351767
_cell_length_c 8.095723
_cell_angle_alpha 90.000000
_cell_angle_beta 90.000000
_cell_angle_gamma 90.000000
_cell_volume 4482.482618
_symmetry_space_group_name_H-M "I M M A"
_symmetry_group_IT_number 74
_symmetry_cell_setting 'orthorhombic'
loop_
_space_group_symop_operation_xyz
x,y,z
-x,1/2-y,z
x,-y,-z
-x,1/2+y,-z
-x,-y,-z
x,1/2+y,-z
-x,y,z
x,1/2-y,z
1/2+x,1/2+y,1/2+z
1/2-x,-y,1/2+z
1/2+x,1/2-y,1/2-z
1/2-x,y,1/2-z
1/2-x,1/2-y,1/2-z
1/2+x,y,1/2-z
1/2-x,1/2+y,1/2+z
1/2+x,-y,1/2+z
loop_
_atom_site_type_symbol
_atom_site_label
_atom_site_fract_x
_atom_site_fract_y
_atom_site_fract_z
Si Si1 0.079823 0.885591 0.054551
Si Si2 0.415778 0.299619 0.366741
Si Si3 0.079519 0.528809 0.846328
Si Si4 0.197904 0.957478 0.602359
Si Si5 0.323347 0.620553 0.163129
Si Si6 0.082398 0.697390 0.491757
O O1 0.128344 0.905494 0.201046
O O2 0.000000 0.879569 0.121808
O O3 0.113394 0.837730 0.991649
O O4 0.080472 0.918463 0.897257
O O5 0.500000 0.300268 0.370615
O O6 0.387306 0.250000 0.423739
O O7 0.392137 0.309477 0.179817
O O8 0.124505 0.524126 0.679752
O O9 0.000000 0.511460 0.806730
O O10 0.110859 0.500000 0.000000
O O11 0.250000 0.943360 0.750000
O O12 0.187824 0.913066 0.490146
O O13 0.230114 0.000000 0.500000
O O14 0.250000 0.634282 0.250000
O O15 0.365999 0.666165 0.116590
O O16 0.091681 0.750000 0.437989
O O17 0.000000 0.682876 0.467824
#
# Coordination Sequence:
#
# PCOD8300333 Si02
#       6
#    16  16  16  16  16  16
#     4  10  20  36  58  84 117 154 190 235 297 363
#     4   8  15  31  57  85 110 143 190 235 277 339
#     4  10  21  38  61  89 119 148 188 247 307 359
#     4  12  25  43  65  85 116 163 210 250 298 363
#     4  12  25  38  57  87 123 158 203 258 304 350
#     4   9  19  38  63  89 119 159 204 246 297 365
#
# _framework density 21.416702000000001
#
# number of rings (size 3 to 8) (size 9 to 14) (size 15 to 20)
#    0.000    1.833    0.000    5.500    0.000    4.000 
#    0.000    1.667    0.000    2.500    0.000    0.000 
#    0.000    0.000    0.000    0.000    0.000    0.000 
#
# Total GULP energy -595128.284528 kJ/mol
# GULP energy per Si atom -12398.505928 kJ/mol
# Density = 2.136796 g / cm^3
# Si number density = 21.416702 Si / 1000 Ang^3
#
#
#
# Elastic Constant Matrix: (Units=GPa)
#
#
# Indices 1 2 3 4 5 6 
#
# 1 99.1911 34.7875 49.5587 0.0001 -0.0002 0.0000
# 2 34.7875 102.3564 37.5371 0.0000 -0.0002 -0.0001
# 3 49.5587 37.5371 97.0915 -0.0017 -0.0014 -0.0002
# 4 0.0001 0.0000 -0.0017 42.0587 -0.0003 0.0000
# 5 -0.0002 -0.0002 -0.0014 -0.0003 42.4300 0.0000
# 6 0.0000 -0.0001 -0.0002 0.0000 0.0000 23.4602
#
#
#
# Elastic Compliance Matrix: (Units=1/GPa)
#
#
# Indices 1 2 3 4 5 6 
#
# 1 0.014062 -0.002502 -0.006210 0.000000 0.000000 0.000000
# 2 -0.002502 0.011829 -0.003296 0.000000 0.000000 0.000000
# 3 -0.006210 -0.003296 0.014744 0.000001 0.000000 0.000000
# 4 0.000000 0.000000 0.000001 0.023776 0.000000 0.000000
# 5 0.000000 0.000000 0.000000 0.000000 0.023568 0.000000
# 6 0.000000 0.000000 0.000000 0.000000 0.000000 0.042625
#
#
# Mechanical properties :
#
#
# Convention : Reuss Voigt Hill
#
# Bulk Modulus (GPa) = 60.17601 60.26729 60.22165
# Shear Modulus (GPa) = 31.21868 33.37351 32.29609
#
# Velocity S-wave (km/s) = 3.82210 3.95181 3.88749
# Velocity P-wave (km/s) = 6.90193 7.00170 6.95199
#
# Compressibility (1/GPa) = 0.01661792
#
# Stress axis : x y z
#
# Youngs Moduli (GPa) = 71.11464 84.53913 67.82426
#
# Poissons Ratio (x) = 0.21148 0.42122
# Poissons Ratio (y) = 0.17790 0.22357
# Poissons Ratio (z) = 0.44165 0.27867
#
# Static dielectric constant tensor:
#      x y z
#    x 3.746470 0.000000 0.000000 
#    y 0.000000 4.023610 0.000000 
#    z 0.000000 0.000000 3.900420 
# 
# 
# High freq. dielectric constant tensor:
#      x y z
#    x 1.820550 0.000000 0.000000 
#    y 0.000000 1.845220 0.000000 
#    z 0.000000 0.000000 1.842560 
# 
# From -- ./inp_files/12661.got.cif
#   From: 2010.03.12/outbox.cif.g09.slc.cpg/sg74_7_cif.got.tgz:12661.got - 2010.04.16 15:46:19.
