data_PCOD8300966
_publ_section_title
;
Structure prediction by ZEFSAII (Michael W. Deem and Ramdas Pophale) SiO2 
 PCOD8300966
Probable space group: I M M A
;
_chemical_formula_sum "Si O2"
_cell_formula_units_Z 96
_cell_length_a 27.973211
_cell_length_b 16.583024
_cell_length_c 9.997715
_cell_angle_alpha 90.000000
_cell_angle_beta 90.000000
_cell_angle_gamma 90.000000
_cell_volume 4637.744327
_symmetry_space_group_name_H-M "I M M A"
_symmetry_group_IT_number 74
_symmetry_cell_setting 'orthorhombic'
loop_
_space_group_symop_operation_xyz
x,y,z
-x,1/2-y,z
x,-y,-z
-x,1/2+y,-z
-x,-y,-z
x,1/2+y,-z
-x,y,z
x,1/2-y,z
1/2+x,1/2+y,1/2+z
1/2-x,-y,1/2+z
1/2+x,1/2-y,1/2-z
1/2-x,y,1/2-z
1/2-x,1/2-y,1/2-z
1/2+x,y,1/2-z
1/2-x,1/2+y,1/2+z
1/2+x,-y,1/2+z
loop_
_atom_site_type_symbol
_atom_site_label
_atom_site_fract_x
_atom_site_fract_y
_atom_site_fract_z
Si Si1 0.861817 0.843716 0.288534
Si Si2 0.553481 0.080685 0.921250
Si Si3 0.698958 0.592572 0.981228
Si Si4 0.448849 0.342031 0.189312
Si Si5 0.308863 0.907589 0.468236
Si Si6 0.651512 0.656895 0.730024
O O1 0.871434 0.750000 0.255356
O O2 0.911475 0.893949 0.299807
O O3 0.834926 0.851039 0.429971
O O4 0.828999 0.884549 0.176067
O O5 0.500000 0.068743 0.862284
O O6 0.555142 0.152789 0.028823
O O7 0.570258 0.000000 0.000000
O O8 0.690067 0.613045 0.825404
O O9 0.685123 0.500000 0.000000
O O10 0.752718 0.609910 0.026682
O O11 0.500000 0.383056 0.234008
O O12 0.450675 0.250000 0.233682
O O13 0.401761 0.382444 0.254820
O O14 0.333751 0.851364 0.577146
O O15 0.320374 0.000000 0.500000
O O16 0.650069 0.750000 0.771738
#
# Coordination Sequence:
#
# PCOD8300966 Si02
#       6
#    16  16  16  16  16  16
#     4  12  24  39  62  93 126 161 201 256 318 370
#     4  10  21  37  62  94 124 156 200 250 301 361
#     4  11  23  41  63  87 117 159 209 255 305 365
#     4   9  18  34  58  88 118 148 189 241 296 354
#     4  11  26  42  59  84 122 167 204 251 310 369
#     4  11  22  38  62  90 118 157 202 248 300 358
#
# _framework density 20.699719000000002
#
# number of rings (size 3 to 8) (size 9 to 14) (size 15 to 20)
#    0.000    1.333    1.667    4.000    2.333    7.667 
#    0.000    0.833    0.000    3.000    0.000    0.000 
#    0.000    0.000    0.000    0.000    0.000    0.000 
#
# Total GULP energy -595111.808295 kJ/mol
# GULP energy per Si atom -12398.162673 kJ/mol
# Density = 2.065261 g / cm^3
# Si number density = 20.699719 Si / 1000 Ang^3
#
#
#
# Elastic Constant Matrix: (Units=GPa)
#
#
# Indices 1 2 3 4 5 6 
#
# 1 142.9744 49.4700 36.8961 0.0000 0.0000 0.0000
# 2 49.4700 77.2112 9.1773 0.0000 0.0000 0.0000
# 3 36.8961 9.1773 66.2263 0.0000 0.0000 0.0000
# 4 0.0000 0.0000 0.0000 32.3692 0.0000 0.0000
# 5 0.0000 0.0000 0.0000 0.0000 -2.9218 0.0000
# 6 0.0000 0.0000 0.0000 0.0000 0.0000 21.8824
#
#
#
# Elastic Compliance Matrix: (Units=1/GPa)
#
#
# Indices 1 2 3 4 5 6 
#
# 1 0.010362 -0.006052 -0.004934 0.000000 0.000000 0.000000
# 2 -0.006052 0.016704 0.001057 0.000000 0.000000 0.000000
# 3 -0.004934 0.001057 0.017702 0.000000 0.000000 0.000000
# 4 0.000000 0.000000 0.000000 0.030894 0.000000 0.000000
# 5 0.000000 0.000000 0.000000 0.000000 -0.342250 0.000000
# 6 0.000000 0.000000 0.000000 0.000000 0.000000 0.045699
#
#
# Mechanical properties :
#
#
# Convention : Reuss Voigt Hill
#
# Bulk Modulus (GPa) = 40.14609 53.05542 46.60075
# Shear Modulus (GPa) = -25.94317 22.99051 -1.47633
#
# Velocity S-wave (km/s) = -3.54405 3.33628 -0.84543
# Velocity P-wave (km/s) = 1.63998 6.36614 4.64851
#
# Compressibility (1/GPa) = 0.02490903
#
# Stress axis : x y z
#
# Youngs Moduli (GPa) = 96.50934 59.86715 56.49059
#
# Poissons Ratio (x) = 0.36234 0.27872
# Poissons Ratio (y) = 0.58411 -0.05972
# Poissons Ratio (z) = 0.47618 -0.06329
#
# Static dielectric constant tensor:
#      x y z
#    x 4.162510 0.000000 0.000000 
#    y 0.000000 3.686900 0.000000 
#    z 0.000000 0.000000 3.441390 
# 
# 
# High freq. dielectric constant tensor:
#      x y z
#    x 1.830480 0.000000 0.000000 
#    y 0.000000 1.810590 0.000000 
#    z 0.000000 0.000000 1.777540 
# 
# From -- ./inp_files/15130.got.cif
#   From: 2010.03.12/outbox.cif.g09.slc.cpg/sg74_8_cif.got.tgz:15130.got - 2010.04.16 15:46:19.
