data_PCOD8300815
_publ_section_title
;
Structure prediction by ZEFSAII (Michael W. Deem and Ramdas Pophale) SiO2 
 PCOD8300815
Probable space group: I M M A
;
_chemical_formula_sum "Si O2"
_cell_formula_units_Z 64
_cell_length_a 21.059691
_cell_length_b 15.133948
_cell_length_c 9.223720
_cell_angle_alpha 90.000000
_cell_angle_beta 90.000000
_cell_angle_gamma 90.000000
_cell_volume 2939.749620
_symmetry_space_group_name_H-M "I M M A"
_symmetry_group_IT_number 74
_symmetry_cell_setting 'orthorhombic'
loop_
_space_group_symop_operation_xyz
x,y,z
-x,1/2-y,z
x,-y,-z
-x,1/2+y,-z
-x,-y,-z
x,1/2+y,-z
-x,y,z
x,1/2-y,z
1/2+x,1/2+y,1/2+z
1/2-x,-y,1/2+z
1/2+x,1/2-y,1/2-z
1/2-x,y,1/2-z
1/2-x,1/2-y,1/2-z
1/2+x,y,1/2-z
1/2-x,1/2+y,1/2+z
1/2+x,-y,1/2+z
loop_
_atom_site_type_symbol
_atom_site_label
_atom_site_fract_x
_atom_site_fract_y
_atom_site_fract_z
Si Si1 0.571140 0.147396 0.388628
Si Si2 0.675211 0.649395 0.385762
Si Si3 0.931007 0.403595 0.429569
Si Si4 0.690043 0.095584 0.928875
O O1 0.500000 0.134763 0.451805
O O2 0.584256 0.250000 0.351527
O O3 0.621386 0.112179 0.506641
O O4 0.579687 0.090613 0.242892
O O5 0.659805 0.750000 0.340875
O O6 0.676984 0.588320 0.243360
O O7 0.744621 0.647215 0.461615
O O8 0.931919 0.500000 0.500000
O O9 0.870723 0.352919 0.500441
O O10 0.000000 0.357411 0.459980
O O11 0.696518 0.000000 0.000000
#
# Coordination Sequence:
#
# PCOD8300815 Si02
#       4
#    16  16  16  16
#     4   9  19  36  58  84 112 145 188 234 278 329
#     4  10  22  40  60  83 114 150 190 234 280 334
#     4   9  19  36  56  81 113 147 184 227 278 334
#     4  10  21  36  57  84 115 148 186 231 280 335
#
# _framework density 21.77056
#
# number of rings (size 3 to 8) (size 9 to 14) (size 15 to 20)
#    0.000    2.500    0.000    1.500    0.000   12.000 
#    0.000    2.500    0.000   14.250    0.000    0.000 
#    0.000    0.000    0.000    0.000    0.000    0.000 
#
# Total GULP energy -396511.153609 kJ/mol
# GULP energy per Si atom -12390.973550 kJ/mol
# Density = 2.172101 g / cm^3
# Si number density = 21.770560 Si / 1000 Ang^3
#
#
#
# Elastic Constant Matrix: (Units=GPa)
#
#
# Indices 1 2 3 4 5 6 
#
# 1 221.7498 6.3690 103.3662 0.0000 0.0000 0.0000
# 2 6.3690 52.7066 44.3058 0.0000 0.0000 0.0000
# 3 103.3662 44.3058 145.0062 0.0000 0.0000 0.0000
# 4 0.0000 0.0000 0.0000 26.7251 0.0000 0.0000
# 5 0.0000 0.0000 0.0000 0.0000 49.4410 0.0000
# 6 0.0000 0.0000 0.0000 0.0000 0.0000 23.4258
#
#
#
# Elastic Compliance Matrix: (Units=1/GPa)
#
#
# Indices 1 2 3 4 5 6 
#
# 1 0.007585 0.004883 -0.006899 0.000000 0.000000 0.000000
# 2 0.004883 0.028673 -0.012242 0.000000 0.000000 0.000000
# 3 -0.006899 -0.012242 0.015554 0.000000 0.000000 0.000000
# 4 0.000000 0.000000 0.000000 0.037418 0.000000 0.000000
# 5 0.000000 0.000000 0.000000 0.000000 0.020226 0.000000
# 6 0.000000 0.000000 0.000000 0.000000 0.000000 0.042688
#
#
# Mechanical properties :
#
#
# Convention : Reuss Voigt Hill
#
# Bulk Modulus (GPa) = 42.92314 80.83831 61.88072
# Shear Modulus (GPa) = 26.53554 37.61314 32.07434
#
# Velocity S-wave (km/s) = 3.49502 4.16108 3.84251
# Velocity P-wave (km/s) = 6.00382 7.76522 6.94062
#
# Compressibility (1/GPa) = 0.02329745
#
# Stress axis : x y z
#
# Youngs Moduli (GPa) = 131.83558 34.87553 64.29032
#
# Poissons Ratio (x) = -0.17029 0.44353
# Poissons Ratio (y) = -0.64372 0.78702
# Poissons Ratio (z) = 0.90952 0.42693
#
# Static dielectric constant tensor:
#      x y z
#    x 5.123610 0.000000 0.000000 
#    y 0.000000 3.442250 0.000000 
#    z 0.000000 0.000000 3.815580 
# 
# 
# High freq. dielectric constant tensor:
#      x y z
#    x 1.887720 0.000000 0.000000 
#    y 0.000000 1.818980 0.000000 
#    z 0.000000 0.000000 1.844360 
# 
# From -- ./inp_files/13275.got.cif
#   From: 2010.03.12/outbox.cif.g09.slc.cpg/sg74_7_cif.got.tgz:13275.got - 2010.04.16 15:46:19.
