data_PCOD8300396
_publ_section_title
;
Structure prediction by ZEFSAII (Michael W. Deem and Ramdas Pophale) SiO2 
 PCOD8300396
Probable space group: I M M A
;
_chemical_formula_sum "Si O2"
_cell_formula_units_Z 72
_cell_length_a 9.258818
_cell_length_b 22.332352
_cell_length_c 18.786744
_cell_angle_alpha 90.000000
_cell_angle_beta 90.000000
_cell_angle_gamma 90.000000
_cell_volume 3884.557276
_symmetry_space_group_name_H-M "I M M A"
_symmetry_group_IT_number 74
_symmetry_cell_setting 'orthorhombic'
loop_
_space_group_symop_operation_xyz
x,y,z
-x,1/2-y,z
x,-y,-z
-x,1/2+y,-z
-x,-y,-z
x,1/2+y,-z
-x,y,z
x,1/2-y,z
1/2+x,1/2+y,1/2+z
1/2-x,-y,1/2+z
1/2+x,1/2-y,1/2-z
1/2-x,y,1/2-z
1/2-x,1/2-y,1/2-z
1/2+x,y,1/2-z
1/2-x,1/2+y,1/2+z
1/2+x,-y,1/2+z
loop_
_atom_site_type_symbol
_atom_site_label
_atom_site_fract_x
_atom_site_fract_y
_atom_site_fract_z
Si Si1 0.334600 0.509208 0.081602
Si Si2 0.170138 0.250000 0.675856
Si Si3 0.167542 0.817610 0.936035
Si Si4 0.331045 0.416674 0.323927
Si Si5 0.834726 0.145085 0.573119
O O1 0.500000 0.487824 0.092627
O O2 0.228534 0.472219 0.131307
O O3 0.316002 0.578427 0.103607
O O4 0.288332 0.500000 0.000000
O O5 0.250000 0.250000 0.750000
O O6 0.220944 0.308494 0.632320
O O7 0.000000 0.250000 0.690055
O O8 0.223646 0.750000 0.924041
O O9 0.199182 0.854684 0.864728
O O10 0.000000 0.818397 0.955400
O O11 0.247744 0.848898 0.000718
O O12 0.500000 0.427420 0.310695
O O13 0.250000 0.412278 0.250000
O O14 0.000000 0.159116 0.553997
#
# Coordination Sequence:
#
# PCOD8300396 Si02
#       5
#    16   8  16  16  16
#     4  10  20  36  61  89 117 150 191 238 289 347
#     4  10  22  38  56  82 117 150 187 232 283 336
#     4  10  21  37  59  87 116 149 193 241 289 345
#     4  11  24  40  59  85 120 156 194 241 294 346
#     4  10  20  36  60  88 115 148 192 238 285 344
#
# _framework density 18.534929999999999
#
# number of rings (size 3 to 8) (size 9 to 14) (size 15 to 20)
#    0.000    1.778    3.333    0.667    0.000    4.444 
#    0.000    2.222    0.000    0.000    0.000    0.000 
#    0.000    0.000    0.000    0.000    0.000    0.000 
#
# Total GULP energy -446545.026561 kJ/mol
# GULP energy per Si atom -12404.028516 kJ/mol
# Density = 1.849274 g / cm^3
# Si number density = 18.534930 Si / 1000 Ang^3
#
#
#
# Elastic Constant Matrix: (Units=GPa)
#
#
# Indices 1 2 3 4 5 6 
#
# 1 79.4298 38.8331 64.7489 0.0000 0.0000 0.0000
# 2 38.8331 97.4189 33.2294 0.0000 0.0000 0.0000
# 3 64.7489 33.2294 118.1786 0.0000 0.0000 0.0000
# 4 0.0000 0.0000 0.0000 26.5552 0.0000 0.0000
# 5 0.0000 0.0000 0.0000 0.0000 34.0760 0.0000
# 6 0.0000 0.0000 0.0000 0.0000 0.0000 24.7723
#
#
#
# Elastic Compliance Matrix: (Units=1/GPa)
#
#
# Indices 1 2 3 4 5 6 
#
# 1 0.025560 -0.005986 -0.012321 0.000000 0.000000 0.000000
# 2 -0.005986 0.012756 -0.000307 0.000000 0.000000 0.000000
# 3 -0.012321 -0.000307 0.015299 0.000000 0.000000 0.000000
# 4 0.000000 0.000000 0.000000 0.037657 0.000000 0.000000
# 5 0.000000 0.000000 0.000000 0.000000 0.029346 0.000000
# 6 0.000000 0.000000 0.000000 0.000000 0.000000 0.040368
#
#
# Mechanical properties :
#
#
# Convention : Reuss Voigt Hill
#
# Bulk Modulus (GPa) = 61.02584 63.18334 62.10459
# Shear Modulus (GPa) = 24.54886 27.62844 26.08865
#
# Velocity S-wave (km/s) = 3.64327 3.86504 3.75579
# Velocity P-wave (km/s) = 7.11998 7.35397 7.23792
#
# Compressibility (1/GPa) = 0.01638650
#
# Stress axis : x y z
#
# Youngs Moduli (GPa) = 39.12372 78.39562 65.36563
#
# Poissons Ratio (x) = 0.46928 0.80536
# Poissons Ratio (y) = 0.23420 0.02007
# Poissons Ratio (z) = 0.48204 0.02406
#
# Static dielectric constant tensor:
#      x y z
#    x 3.409710 0.000000 0.000000 
#    y 0.000000 3.910600 0.000000 
#    z 0.000000 0.000000 3.286750 
# 
# 
# High freq. dielectric constant tensor:
#      x y z
#    x 1.717960 0.000000 0.000000 
#    y 0.000000 1.736300 0.000000 
#    z 0.000000 0.000000 1.713180 
# 
# From -- ./inp_files/39466.got.cif
#   From: 2010.03.12/outbox.cif.g09.slc.cpg/sg74_20_cif.got.tgz:39466.got - 2010.04.16 15:46:19.
