data_PCOD8300729
_publ_section_title
;
Structure prediction by ZEFSAII (Michael W. Deem and Ramdas Pophale) SiO2 
 PCOD8300729
Probable space group: I M M A
;
_chemical_formula_sum "Si O2"
_cell_formula_units_Z 88
_cell_length_a 8.584762
_cell_length_b 22.302625
_cell_length_c 22.997272
_cell_angle_alpha 90.000000
_cell_angle_beta 90.000000
_cell_angle_gamma 90.000000
_cell_volume 4403.120424
_symmetry_space_group_name_H-M "I M M A"
_symmetry_group_IT_number 74
_symmetry_cell_setting 'orthorhombic'
loop_
_space_group_symop_operation_xyz
x,y,z
-x,1/2-y,z
x,-y,-z
-x,1/2+y,-z
-x,-y,-z
x,1/2+y,-z
-x,y,z
x,1/2-y,z
1/2+x,1/2+y,1/2+z
1/2-x,-y,1/2+z
1/2+x,1/2-y,1/2-z
1/2-x,y,1/2-z
1/2-x,1/2-y,1/2-z
1/2+x,y,1/2-z
1/2-x,1/2+y,1/2+z
1/2+x,-y,1/2+z
loop_
_atom_site_type_symbol
_atom_site_label
_atom_site_fract_x
_atom_site_fract_y
_atom_site_fract_z
Si Si1 0.684754 0.016316 0.689439
Si Si2 0.183088 0.912933 0.898339
Si Si3 0.684906 0.371685 0.867726
Si Si4 0.183381 0.683570 0.808728
Si Si5 0.181963 0.065546 0.514728
Si Si6 0.184853 0.250000 0.815779
O O1 0.500000 0.022239 0.693342
O O2 0.750000 0.989482 0.750000
O O3 0.764304 0.080988 0.681250
O O4 0.733264 0.973752 0.635338
O O5 0.239314 0.857166 0.860855
O O6 0.000000 0.913412 0.911062
O O7 0.277300 0.898414 0.956814
O O8 0.500000 0.363414 0.868446
O O9 0.749536 0.398526 0.929430
O O10 0.760601 0.307910 0.852378
O O11 0.251578 0.750000 0.818692
O O12 0.250000 0.655147 0.750000
O O13 0.000000 0.683967 0.803841
O O14 0.000000 0.057903 0.525145
O O15 0.258059 0.000000 0.500000
O O16 0.250000 0.250000 0.750000
O O17 0.000000 0.250000 0.811419
#
# Coordination Sequence:
#
# PCOD8300729 Si02
#       6
#    16  16  16  16  16   8
#     4  11  22  35  55  86 119 153 195 245 302 361
#     4  10  21  35  55  83 116 153 195 244 295 353
#     4  11  23  42  65  89 122 159 200 249 303 362
#     4   9  18  34  54  78 111 149 190 235 285 340
#     4  10  21  39  62  87 116 154 195 239 293 351
#     4  12  26  46  70  96 126 162 207 254 311 370
#
# _framework density 19.985825999999999
#
# number of rings (size 3 to 8) (size 9 to 14) (size 15 to 20)
#    0.000    1.636    1.818    3.000    0.000    3.273 
#    1.636    0.000    0.000    0.000    0.000    0.000 
#    0.000    0.000    0.000    0.000    0.000    0.000 
#
# Total GULP energy -545458.755547 kJ/mol
# GULP energy per Si atom -12396.789899 kJ/mol
# Density = 1.994034 g / cm^3
# Si number density = 19.985826 Si / 1000 Ang^3
#
#
#
# Elastic Constant Matrix: (Units=GPa)
#
#
# Indices 1 2 3 4 5 6 
#
# 1 55.8731 33.6981 32.5258 0.0000 0.0000 0.0000
# 2 33.6981 116.1325 59.0616 0.0000 0.0000 0.0000
# 3 32.5258 59.0616 143.1600 0.0000 0.0000 0.0000
# 4 0.0000 0.0000 0.0000 35.0504 0.0000 0.0000
# 5 0.0000 0.0000 0.0000 0.0000 35.6857 0.0000
# 6 0.0000 0.0000 0.0000 0.0000 0.0000 20.9798
#
#
#
# Elastic Compliance Matrix: (Units=1/GPa)
#
#
# Indices 1 2 3 4 5 6 
#
# 1 0.022726 -0.005022 -0.003091 0.000000 0.000000 0.000000
# 2 -0.005022 0.012007 -0.003813 0.000000 0.000000 0.000000
# 3 -0.003091 -0.003813 0.009260 0.000000 0.000000 0.000000
# 4 0.000000 0.000000 0.000000 0.028530 0.000000 0.000000
# 5 0.000000 0.000000 0.000000 0.000000 0.028022 0.000000
# 6 0.000000 0.000000 0.000000 0.000000 0.000000 0.047665
#
#
# Mechanical properties :
#
#
# Convention : Reuss Voigt Hill
#
# Bulk Modulus (GPa) = 49.64898 62.85961 56.25430
# Shear Modulus (GPa) = 27.96766 31.00185 29.48476
#
# Velocity S-wave (km/s) = 3.74488 3.94279 3.84511
# Velocity P-wave (km/s) = 6.60264 7.22827 6.92252
#
# Compressibility (1/GPa) = 0.02014140
#
# Stress axis : x y z
#
# Youngs Moduli (GPa) = 44.00176 83.28389 107.98598
#
# Poissons Ratio (x) = 0.41827 0.33383
# Poissons Ratio (y) = 0.22099 0.41170
# Poissons Ratio (z) = 0.13603 0.31753
#
# Static dielectric constant tensor:
#      x y z
#    x 3.439150 0.000000 0.000000 
#    y 0.000000 3.978020 0.000000 
#    z 0.000000 0.000000 3.820930 
# 
# 
# High freq. dielectric constant tensor:
#      x y z
#    x 1.771310 0.000000 0.000000 
#    y 0.000000 1.779970 0.000000 
#    z 0.000000 0.000000 1.791100 
# 
# From -- ./inp_files/48722.got.cif
#   From: 2010.03.12/outbox.cif.g09.slc.cpg/sg74_25_cif.got.tgz:48722.got - 2010.04.16 15:46:19.
