data_PCOD8300304
_publ_section_title
;
Structure prediction by ZEFSAII (Michael W. Deem and Ramdas Pophale) SiO2 
 PCOD8300304
Probable space group: I M M A
;
_chemical_formula_sum "Si O2"
_cell_formula_units_Z 72
_cell_length_a 14.429011
_cell_length_b 8.853229
_cell_length_c 30.450462
_cell_angle_alpha 90.000000
_cell_angle_beta 90.000000
_cell_angle_gamma 90.000000
_cell_volume 3889.843679
_symmetry_space_group_name_H-M "I M M A"
_symmetry_group_IT_number 74
_symmetry_cell_setting 'orthorhombic'
loop_
_space_group_symop_operation_xyz
x,y,z
-x,1/2-y,z
x,-y,-z
-x,1/2+y,-z
-x,-y,-z
x,1/2+y,-z
-x,y,z
x,1/2-y,z
1/2+x,1/2+y,1/2+z
1/2-x,-y,1/2+z
1/2+x,1/2-y,1/2-z
1/2-x,y,1/2-z
1/2-x,1/2-y,1/2-z
1/2+x,y,1/2-z
1/2-x,1/2+y,1/2+z
1/2+x,-y,1/2+z
loop_
_atom_site_type_symbol
_atom_site_label
_atom_site_fract_x
_atom_site_fract_y
_atom_site_fract_z
Si Si1 0.311805 0.928210 0.708646
Si Si2 0.700241 0.426920 0.546995
Si Si3 0.000000 0.571724 0.334414
Si Si4 0.303708 0.428773 0.867736
Si Si5 0.000000 0.573561 0.046545
Si Si6 0.500000 0.070300 0.735253
O O1 0.327268 0.750000 0.708110
O O2 0.250000 0.979568 0.750000
O O3 0.262237 0.980757 0.664637
O O4 0.410320 0.009921 0.710272
O O5 0.722140 0.500000 0.500000
O O6 0.702887 0.250000 0.538571
O O7 0.777292 0.474344 0.582513
O O8 0.598827 0.474815 0.568007
O O9 0.090927 0.516157 0.360279
O O10 0.000000 0.506113 0.285046
O O11 0.000000 0.750000 0.331275
O O12 0.291609 0.250000 0.859331
O O13 0.000000 0.750000 0.040221
O O14 0.000000 0.500000 0.000000
O O15 0.500000 0.250000 0.733794
#
# Coordination Sequence:
#
# PCOD8300304 Si02
#       6
#    16  16   8  16   8   8
#     4  11  23  37  54  81 115 145 177 228 285 333
#     4   9  18  32  53  77 107 140 179 228 277 332
#     4   9  18  33  55  79 104 140 189 234 273 322
#     4  10  20  36  57  81 107 144 192 234 274 331
#     4   8  14  27  46  71  97 129 165 204 261 320
#     4  11  21  36  60  82 108 149 191 229 269 331
#
# _framework density 18.509740000000001
#
# number of rings (size 3 to 8) (size 9 to 14) (size 15 to 20)
#    0.000    2.222    2.222    1.000    0.000    2.667 
#    0.000    3.333    0.000    2.667    0.000    0.000 
#    0.000    0.000    0.000    0.000    0.000    0.000 
#
# Total GULP energy -446171.695007 kJ/mol
# GULP energy per Si atom -12393.658195 kJ/mol
# Density = 1.846761 g / cm^3
# Si number density = 18.509740 Si / 1000 Ang^3
#
#
#
# Elastic Constant Matrix: (Units=GPa)
#
#
# Indices 1 2 3 4 5 6 
#
# 1 168.3983 36.2109 73.5829 0.0000 0.0000 0.0000
# 2 36.2109 40.2949 27.5788 0.0000 0.0000 0.0000
# 3 73.5829 27.5788 117.8637 0.0000 0.0000 0.0000
# 4 0.0000 0.0000 0.0000 25.8099 0.0000 0.0000
# 5 0.0000 0.0000 0.0000 0.0000 28.8828 0.0000
# 6 0.0000 0.0000 0.0000 0.0000 0.0000 19.2151
#
#
#
# Elastic Compliance Matrix: (Units=1/GPa)
#
#
# Indices 1 2 3 4 5 6 
#
# 1 0.008945 -0.005020 -0.004409 0.000000 0.000000 0.000000
# 2 -0.005020 0.032367 -0.004439 0.000000 0.000000 0.000000
# 3 -0.004409 -0.004439 0.012276 0.000000 0.000000 0.000000
# 4 0.000000 0.000000 0.000000 0.038745 0.000000 0.000000
# 5 0.000000 0.000000 0.000000 0.000000 0.034623 0.000000
# 6 0.000000 0.000000 0.000000 0.000000 0.000000 0.052042
#
#
# Mechanical properties :
#
#
# Convention : Reuss Voigt Hill
#
# Bulk Modulus (GPa) = 38.68560 66.81134 52.74847
# Shear Modulus (GPa) = 23.21785 27.39384 25.30585
#
# Velocity S-wave (km/s) = 3.54553 3.85121 3.70153
# Velocity P-wave (km/s) = 6.14057 7.47993 6.84310
#
# Compressibility (1/GPa) = 0.02584941
#
# Stress axis : x y z
#
# Youngs Moduli (GPa) = 111.80033 30.89593 81.45963
#
# Poissons Ratio (x) = 0.15510 0.35920
# Poissons Ratio (y) = 0.56124 0.36163
# Poissons Ratio (z) = 0.49298 0.13716
#
# Static dielectric constant tensor:
#      x y z
#    x 6.799010 0.000000 0.000000 
#    y 0.000000 3.302530 0.000000 
#    z 0.000000 0.000000 3.306680 
# 
# 
# High freq. dielectric constant tensor:
#      x y z
#    x 1.731800 0.000000 0.000000 
#    y 0.000000 1.704550 0.000000 
#    z 0.000000 0.000000 1.703860 
# 
# From -- ./inp_files/66765.got.cif
#   From: 2010.03.12/outbox.cif.g09.slc.cpg/sg74_34_cif.got.tgz:66765.got - 2010.04.16 15:46:19.
