data_PCOD8300887
_publ_section_title
;
Structure prediction by ZEFSAII (Michael W. Deem and Ramdas Pophale) SiO2 
 PCOD8300887
Probable space group: I M M A
;
_chemical_formula_sum "Si O2"
_cell_formula_units_Z 80
_cell_length_a 11.098321
_cell_length_b 14.496675
_cell_length_c 28.195832
_cell_angle_alpha 90.000000
_cell_angle_beta 90.000000
_cell_angle_gamma 90.000000
_cell_volume 4536.392239
_symmetry_space_group_name_H-M "I M M A"
_symmetry_group_IT_number 74
_symmetry_cell_setting 'orthorhombic'
loop_
_space_group_symop_operation_xyz
x,y,z
-x,1/2-y,z
x,-y,-z
-x,1/2+y,-z
-x,-y,-z
x,1/2+y,-z
-x,y,z
x,1/2-y,z
1/2+x,1/2+y,1/2+z
1/2-x,-y,1/2+z
1/2+x,1/2-y,1/2-z
1/2-x,y,1/2-z
1/2-x,1/2-y,1/2-z
1/2+x,y,1/2-z
1/2-x,1/2+y,1/2+z
1/2+x,-y,1/2+z
loop_
_atom_site_type_symbol
_atom_site_label
_atom_site_fract_x
_atom_site_fract_y
_atom_site_fract_z
Si Si1 0.250027 0.562879 0.453241
Si Si2 0.775584 0.420695 0.118200
Si Si3 0.359428 0.750000 0.015275
Si Si4 0.000000 0.851858 0.042916
Si Si5 0.140547 0.750000 0.590171
Si Si6 0.360723 0.142892 0.285690
Si Si7 0.000000 0.649897 0.932717
O O1 0.228030 0.500000 0.500000
O O2 0.208998 0.510643 0.404313
O O3 0.177774 0.658186 0.456943
O O4 0.387545 0.587023 0.442725
O O5 0.679313 0.338798 0.119816
O O6 0.835151 0.426396 0.170289
O O7 0.880230 0.403883 0.080268
O O8 0.500000 0.750000 0.009604
O O9 0.299561 0.750000 0.962598
O O10 0.000000 0.750000 0.067460
O O11 0.000000 0.834580 0.987718
O O12 0.000000 0.750000 0.585439
O O13 0.500000 0.123234 0.267076
O O14 0.353988 0.250000 0.301427
O O15 0.250000 0.121531 0.250000
O O16 0.000000 0.750000 0.906467
#
# Coordination Sequence:
#
# PCOD8300887 Si02
#       7
#    16  16   8   8   8  16   8
#     4  12  22  34  54  80 109 146 188 228 274 320
#     4  12  21  34  55  80 107 145 186 228 272 326
#     4  11  24  41  51  70 115 161 197 228 265 318
#     4  11  20  32  50  80 118 144 172 230 276 314
#     4  11  22  33  50  78 111 149 193 232 262 318
#     4  10  21  37  57  81 113 148 184 231 285 340
#     4  11  17  27  53  77 110 144 180 214 267 320
#
# _framework density 17.635159000000002
#
# number of rings (size 3 to 8) (size 9 to 14) (size 15 to 20)
#    0.000    0.800    8.000    0.900    0.000    2.000 
#    0.000    0.000    0.000    0.000    0.000    0.700 
#    0.000    0.000    0.000    0.000    0.000    0.000 
#
# Total GULP energy -495625.451884 kJ/mol
# GULP energy per Si atom -12390.636297 kJ/mol
# Density = 1.759502 g / cm^3
# Si number density = 17.635159 Si / 1000 Ang^3
#
#
#
# Elastic Constant Matrix: (Units=GPa)
#
#
# Indices 1 2 3 4 5 6 
#
# 1 83.6455 25.9486 29.0084 0.0000 0.0000 0.0000
# 2 25.9486 99.8456 29.8615 0.0000 0.0000 0.0000
# 3 29.0084 29.8615 66.0257 0.0000 0.0000 0.0000
# 4 0.0000 0.0000 0.0000 16.4626 0.0000 0.0000
# 5 0.0000 0.0000 0.0000 0.0000 5.8351 0.0000
# 6 0.0000 0.0000 0.0000 0.0000 0.0000 -11.9324
#
#
#
# Elastic Compliance Matrix: (Units=1/GPa)
#
#
# Indices 1 2 3 4 5 6 
#
# 1 0.014494 -0.002154 -0.005394 0.000000 0.000000 0.000000
# 2 -0.002154 0.011902 -0.004437 0.000000 0.000000 0.000000
# 3 -0.005394 -0.004437 0.019522 0.000000 0.000000 0.000000
# 4 0.000000 0.000000 0.000000 0.060744 0.000000 0.000000
# 5 0.000000 0.000000 0.000000 0.000000 0.171377 0.000000
# 6 0.000000 0.000000 0.000000 0.000000 0.000000 -0.083806
#
#
# Mechanical properties :
#
#
# Convention : Reuss Voigt Hill
#
# Bulk Modulus (GPa) = 45.55908 46.57263 46.06586
# Shear Modulus (GPa) = 22.17114 13.05295 17.61205
#
# Velocity S-wave (km/s) = 3.54957 2.72355 3.16363
# Velocity P-wave (km/s) = 6.53372 6.02964 6.28674
#
# Compressibility (1/GPa) = 0.02194952
#
# Stress axis : x y z
#
# Youngs Moduli (GPa) = 68.99444 84.01883 51.22416
#
# Poissons Ratio (x) = 0.18094 0.27630
# Poissons Ratio (y) = 0.14859 0.22727
# Poissons Ratio (z) = 0.37215 0.37277
#
# Static dielectric constant tensor:
#      x y z
#    x 3.296120 0.000000 0.000000 
#    y 0.000000 3.455840 0.000000 
#    z 0.000000 0.000000 2.988660 
# 
# 
# High freq. dielectric constant tensor:
#      x y z
#    x 1.690740 0.000000 0.000000 
#    y 0.000000 1.668470 0.000000 
#    z 0.000000 0.000000 1.639450 
# 
# From -- ./inp_files/65888.got.cif
#   From: 2010.03.12/outbox.cif.g09.slc.cpg/sg74_33_cif.got.tgz:65888.got - 2010.04.16 15:46:19.
