data_PCOD8300538
_publ_section_title
;
Structure prediction by ZEFSAII (Michael W. Deem and Ramdas Pophale) SiO2 
 PCOD8300538
Probable space group: I M M A
;
_chemical_formula_sum "Si O2"
_cell_formula_units_Z 112
_cell_length_a 16.396414
_cell_length_b 28.833806
_cell_length_c 12.188524
_cell_angle_alpha 90.000000
_cell_angle_beta 90.000000
_cell_angle_gamma 90.000000
_cell_volume 5762.380928
_symmetry_space_group_name_H-M "I M M A"
_symmetry_group_IT_number 74
_symmetry_cell_setting 'orthorhombic'
loop_
_space_group_symop_operation_xyz
x,y,z
-x,1/2-y,z
x,-y,-z
-x,1/2+y,-z
-x,-y,-z
x,1/2+y,-z
-x,y,z
x,1/2-y,z
1/2+x,1/2+y,1/2+z
1/2-x,-y,1/2+z
1/2+x,1/2-y,1/2-z
1/2-x,y,1/2-z
1/2-x,1/2-y,1/2-z
1/2+x,y,1/2-z
1/2-x,1/2+y,1/2+z
1/2+x,-y,1/2+z
loop_
_atom_site_type_symbol
_atom_site_label
_atom_site_fract_x
_atom_site_fract_y
_atom_site_fract_z
Si Si1 0.836262 0.607659 0.101954
Si Si2 0.095561 0.452687 0.305286
Si Si3 0.161203 0.606280 0.502832
Si Si4 0.905293 0.302420 0.807682
Si Si5 0.095198 0.698451 0.447717
Si Si6 0.908419 0.941206 0.304563
Si Si7 0.907160 0.455874 0.062000
O O1 0.749225 0.597238 0.048989
O O2 0.850192 0.662317 0.122200
O O3 0.845960 0.579161 0.214921
O O4 0.901358 0.589659 0.013016
O O5 0.150579 0.420093 0.382384
O O6 0.111711 0.506065 0.336246
O O7 0.130253 0.445678 0.181827
O O8 0.000000 0.439352 0.317927
O O9 0.145076 0.661203 0.519718
O O10 0.094772 0.587766 0.416462
O O11 0.882615 0.250000 0.842867
O O12 0.886150 0.310218 0.680242
O O13 0.000000 0.312546 0.830838
O O14 0.124624 0.750000 0.481210
O O15 0.000000 0.693326 0.471850
O O16 0.000000 0.936944 0.256044
O O17 0.000000 0.469827 0.085092
O O18 0.864859 0.500000 0.000000
#
# Coordination Sequence:
#
# PCOD8300538 Si02
#       7
#    16  16  16  16  16  16  16
#     4  12  23  35  55  87 121 154 185 239 308 352
#     4  10  22  40  61  80 108 156 206 242 281 339
#     4  12  24  35  52  89 124 154 187 234 304 360
#     4   9  18  34  58  85 112 150 198 244 290 345
#     4   9  18  34  58  84 113 153 197 242 288 344
#     4  11  21  38  59  79 110 154 204 243 278 337
#     4  10  20  38  61  82 105 149 205 247 283 338
#
# _framework density 19.436411
#
# number of rings (size 3 to 8) (size 9 to 14) (size 15 to 20)
#    0.000    1.571    2.857    4.286    0.000    3.429 
#    2.571    1.429    0.000    0.857    0.000    6.000 
#    0.000    0.000    0.000    0.000    0.000    0.000 
#
# Total GULP energy -694378.713775 kJ/mol
# GULP energy per Si atom -12399.619889 kJ/mol
# Density = 1.939217 g / cm^3
# Si number density = 19.436411 Si / 1000 Ang^3
#
#
#
# Elastic Constant Matrix: (Units=GPa)
#
#
# Indices 1 2 3 4 5 6 
#
# 1 54.8837 38.5212 34.8116 -0.0001 0.0000 0.0000
# 2 38.5212 146.2496 65.4006 -0.0001 -0.0001 0.0000
# 3 34.8116 65.4006 119.9088 -0.0013 -0.0005 -0.0003
# 4 -0.0001 -0.0001 -0.0013 29.5693 -0.0001 -0.0001
# 5 0.0000 -0.0001 -0.0005 -0.0001 21.2626 0.0002
# 6 0.0000 0.0000 -0.0003 -0.0001 0.0002 15.9025
#
#
#
# Elastic Compliance Matrix: (Units=1/GPa)
#
#
# Indices 1 2 3 4 5 6 
#
# 1 0.024198 -0.004275 -0.004694 0.000000 0.000000 0.000000
# 2 -0.004275 0.009798 -0.004103 0.000000 0.000000 0.000000
# 3 -0.004694 -0.004103 0.011940 0.000000 0.000000 0.000000
# 4 0.000000 0.000000 0.000000 0.033819 0.000000 0.000000
# 5 0.000000 0.000000 0.000000 0.000000 0.047031 -0.000001
# 6 0.000000 0.000000 0.000000 0.000000 -0.000001 0.062883
#
#
# Mechanical properties :
#
#
# Convention : Reuss Voigt Hill
#
# Bulk Modulus (GPa) = 50.52164 66.50100 58.51132
# Shear Modulus (GPa) = 22.48102 25.50080 23.99091
#
# Velocity S-wave (km/s) = 3.40464 3.62610 3.51711
# Velocity P-wave (km/s) = 6.44245 7.19864 6.83101
#
# Compressibility (1/GPa) = 0.01979350
#
# Stress axis : x y z
#
# Youngs Moduli (GPa) = 41.32644 102.05699 83.75015
#
# Poissons Ratio (x) = 0.43625 0.39308
# Poissons Ratio (y) = 0.17665 0.34365
# Poissons Ratio (z) = 0.19397 0.41877
#
# Static dielectric constant tensor:
#      x y z
#    x 3.283700 0.000000 0.000000 
#    y 0.000000 3.627190 0.000000 
#    z 0.000000 0.000000 3.429310 
# 
# 
# High freq. dielectric constant tensor:
#      x y z
#    x 1.741920 0.000000 0.000000 
#    y 0.000000 1.760700 0.000000 
#    z 0.000000 0.000000 1.732330 
# 
# From -- ./inp_files/21097.got.cif
#   From: 2010.03.12/outbox.cif.g09.slc.cpg/sg74_11_cif.got.tgz:21097.got - 2010.04.16 15:46:19.
