data_PCOD8300777
_publ_section_title
;
Structure prediction by ZEFSAII (Michael W. Deem and Ramdas Pophale) SiO2 
 PCOD8300777
Probable space group: I M M A
;
_chemical_formula_sum "Si O2"
_cell_formula_units_Z 88
_cell_length_a 17.212815
_cell_length_b 8.996027
_cell_length_c 30.608278
_cell_angle_alpha 90.000000
_cell_angle_beta 90.000000
_cell_angle_gamma 90.000000
_cell_volume 4739.598447
_symmetry_space_group_name_H-M "I M M A"
_symmetry_group_IT_number 74
_symmetry_cell_setting 'orthorhombic'
loop_
_space_group_symop_operation_xyz
x,y,z
-x,1/2-y,z
x,-y,-z
-x,1/2+y,-z
-x,-y,-z
x,1/2+y,-z
-x,y,z
x,1/2-y,z
1/2+x,1/2+y,1/2+z
1/2-x,-y,1/2+z
1/2+x,1/2-y,1/2-z
1/2-x,y,1/2-z
1/2-x,1/2-y,1/2-z
1/2+x,y,1/2-z
1/2-x,1/2+y,1/2+z
1/2+x,-y,1/2+z
loop_
_atom_site_type_symbol
_atom_site_label
_atom_site_fract_x
_atom_site_fract_y
_atom_site_fract_z
Si Si1 0.085863 0.587775 0.687023
Si Si2 0.263039 0.923343 0.200730
Si Si3 0.591122 0.424668 0.545949
Si Si4 0.126680 0.910458 0.590142
Si Si5 0.000000 0.580584 0.455798
Si Si6 0.701813 0.574499 0.616444
O O1 0.108124 0.750000 0.708020
O O2 0.145928 0.456892 0.696056
O O3 0.084885 0.612295 0.635767
O O4 0.000000 0.538868 0.703218
O O5 0.246787 0.750000 0.193914
O O6 0.250000 0.977000 0.250000
O O7 0.207747 0.010114 0.166100
O O8 0.616865 0.500000 0.500000
O O9 0.500000 0.452649 0.554104
O O10 0.610452 0.250000 0.543192
O O11 0.635669 0.496122 0.587332
O O12 0.121387 0.750000 0.565454
O O13 0.216342 0.959017 0.593376
O O14 0.080503 0.040722 0.567172
O O15 0.000000 0.500000 0.500000
O O16 0.000000 0.750000 0.464921
O O17 0.684469 0.750000 0.619818
#
# Coordination Sequence:
#
# PCOD8300777 Si02
#       6
#    16  16  16  16   8  16
#     4   9  17  32  55  78 101 133 174 221 269 322
#     4  10  21  36  54  80 115 150 186 233 286 342
#     4  10  21  38  61  88 118 151 189 238 294 352
#     4   9  18  35  53  72 102 134 170 218 266 315
#     4  12  24  34  48  70 100 140 178 216 262 310
#     4  10  21  37  60  85 110 148 190 233 285 340
#
# _framework density 18.566973999999998
#
# number of rings (size 3 to 8) (size 9 to 14) (size 15 to 20)
#    0.000    2.182    0.909    3.545    0.000    7.273 
#    0.000    0.909    0.000    1.091    0.000    0.000 
#    0.000    0.000    0.000    0.000    0.000    0.000 
#
# Total GULP energy -545126.042575 kJ/mol
# GULP energy per Si atom -12389.228240 kJ/mol
# Density = 1.852471 g / cm^3
# Si number density = 18.566974 Si / 1000 Ang^3
#
#
#
# Elastic Constant Matrix: (Units=GPa)
#
#
# Indices 1 2 3 4 5 6 
#
# 1 82.6127 43.9286 52.9398 0.0000 0.0000 0.0000
# 2 43.9286 122.3180 66.5807 0.0000 0.0000 0.0000
# 3 52.9398 66.5807 116.0054 0.0000 0.0000 0.0000
# 4 0.0000 0.0000 0.0000 30.3940 0.0000 0.0000
# 5 0.0000 0.0000 0.0000 0.0000 34.1072 0.0000
# 6 0.0000 0.0000 0.0000 0.0000 0.0000 -121.1144
#
#
#
# Elastic Compliance Matrix: (Units=1/GPa)
#
#
# Indices 1 2 3 4 5 6 
#
# 1 0.017771 -0.002862 -0.006467 0.000000 0.000000 0.000000
# 2 -0.002862 0.012351 -0.005783 0.000000 0.000000 0.000000
# 3 -0.006467 -0.005783 0.014891 0.000000 0.000000 0.000000
# 4 0.000000 0.000000 0.000000 0.032901 0.000000 0.000000
# 5 0.000000 0.000000 0.000000 0.000000 0.029319 0.000000
# 6 0.000000 0.000000 0.000000 0.000000 0.000000 -0.008257
#
#
# Mechanical properties :
#
#
# Convention : Reuss Voigt Hill
#
# Bulk Modulus (GPa) = 67.61933 71.98160 69.80047
# Shear Modulus (GPa) = 37.27747 -0.82351 18.22698
#
# Velocity S-wave (km/s) = 4.48563 -0.66671 3.13659
# Velocity P-wave (km/s) = 7.95777 6.18548 7.12693
#
# Compressibility (1/GPa) = 0.01478867
#
# Stress axis : x y z
#
# Youngs Moduli (GPa) = 56.27217 80.96609 67.15631
#
# Poissons Ratio (x) = 0.23171 0.43432
# Poissons Ratio (y) = 0.16104 0.38835
# Poissons Ratio (z) = 0.36393 0.46820
#
# Static dielectric constant tensor:
#      x y z
#    x 3.378150 0.000000 0.000000 
#    y 0.000000 3.346420 0.000000 
#    z 0.000000 0.000000 3.321480 
# 
# 
# High freq. dielectric constant tensor:
#      x y z
#    x 1.717130 0.000000 0.000000 
#    y 0.000000 1.730960 0.000000 
#    z 0.000000 0.000000 1.703520 
# 
# From -- ./inp_files/72945.got.cif
#   From: 2010.03.12/outbox.cif.g09.slc.cpg/sg74_37_cif.got.tgz:72945.got - 2010.04.16 15:46:19.
