data_PCOD8300123
_publ_section_title
;
Structure prediction by ZEFSAII (Michael W. Deem and Ramdas Pophale) SiO2 
 PCOD8300123
Probable space group: I M M A
;
_chemical_formula_sum "Si O2"
_cell_formula_units_Z 96
_cell_length_a 18.343699
_cell_length_b 28.029841
_cell_length_c 10.221325
_cell_angle_alpha 90.000000
_cell_angle_beta 90.000000
_cell_angle_gamma 90.000000
_cell_volume 5255.508552
_symmetry_space_group_name_H-M "I M M A"
_symmetry_group_IT_number 74
_symmetry_cell_setting 'orthorhombic'
loop_
_space_group_symop_operation_xyz
x,y,z
-x,1/2-y,z
x,-y,-z
-x,1/2+y,-z
-x,-y,-z
x,1/2+y,-z
-x,y,z
x,1/2-y,z
1/2+x,1/2+y,1/2+z
1/2-x,-y,1/2+z
1/2+x,1/2-y,1/2-z
1/2-x,y,1/2-z
1/2-x,1/2-y,1/2-z
1/2+x,y,1/2-z
1/2-x,1/2+y,1/2+z
1/2+x,-y,1/2+z
loop_
_atom_site_type_symbol
_atom_site_label
_atom_site_fract_x
_atom_site_fract_y
_atom_site_fract_z
Si Si1 0.167958 0.305850 0.509367
Si Si2 0.586474 0.845800 0.257808
Si Si3 0.164400 0.862949 0.746730
Si Si4 0.086192 0.549594 0.838480
Si Si5 0.086052 0.555284 0.133378
Si Si6 0.664202 0.195419 0.498818
O O1 0.152488 0.250000 0.493481
O O2 0.121073 0.326610 0.626410
O O3 0.141520 0.331749 0.377782
O O4 0.252643 0.316256 0.538427
O O5 0.500000 0.842270 0.247061
O O6 0.613449 0.900464 0.279342
O O7 0.612250 0.813744 0.378624
O O8 0.250000 0.871277 0.750000
O O9 0.125174 0.914285 0.738687
O O10 0.137501 0.835780 0.876547
O O11 0.109851 0.495205 0.802465
O O12 0.000000 0.556546 0.825630
O O13 0.115353 0.560407 0.985187
O O14 0.000000 0.555645 0.121502
O O15 0.657596 0.250000 0.454888
#
# Coordination Sequence:
#
# PCOD8300123 Si02
#       6
#    16  16  16  16  16  16
#     4  10  22  38  53  74 110 149 175 209 271 326
#     4  11  21  35  55  81 108 137 176 222 265 310
#     4  10  20  35  56  80 107 137 180 224 264 307
#     4   9  16  32  57  80 103 136 176 220 265 313
#     4   8  16  31  55  81 103 133 173 214 264 317
#     4  10  20  36  57  77 101 140 187 222 254 313
#
# _framework density 18.266549000000001
#
# number of rings (size 3 to 8) (size 9 to 14) (size 15 to 20)
#    0.000    2.333    1.667    2.500    0.000    5.333 
#    0.000    2.500    0.000    6.000    0.000    0.000 
#    0.000    0.000    0.000    0.000    0.000    0.000 
#
# Total GULP energy -595161.804150 kJ/mol
# GULP energy per Si atom -12399.204253 kJ/mol
# Density = 1.822497 g / cm^3
# Si number density = 18.266549 Si / 1000 Ang^3
#
#
#
# Elastic Constant Matrix: (Units=GPa)
#
#
# Indices 1 2 3 4 5 6 
#
# 1 55.5856 42.9480 43.7579 0.0001 0.0001 0.0000
# 2 42.9480 134.4809 54.3491 0.0000 0.0002 0.0000
# 3 43.7579 54.3491 105.4854 -0.0001 0.0004 -0.0001
# 4 0.0001 0.0000 -0.0001 35.9940 0.0001 0.0000
# 5 0.0001 0.0002 0.0004 0.0001 -2.9520 0.0000
# 6 0.0000 0.0000 -0.0001 0.0000 0.0000 30.5875
#
#
#
# Elastic Compliance Matrix: (Units=1/GPa)
#
#
# Indices 1 2 3 4 5 6 
#
# 1 0.029829 -0.005716 -0.009429 0.000000 0.000000 0.000000
# 2 -0.005716 0.010487 -0.003032 0.000000 0.000000 0.000000
# 3 -0.009429 -0.003032 0.014954 0.000000 0.000001 0.000000
# 4 0.000000 0.000000 0.000000 0.027782 0.000001 0.000000
# 5 0.000000 0.000000 0.000001 0.000001 -0.338748 0.000000
# 6 0.000000 0.000000 0.000000 0.000000 0.000000 0.032693
#
#
# Mechanical properties :
#
#
# Convention : Reuss Voigt Hill
#
# Bulk Modulus (GPa) = 52.86530 64.18467 58.52499
# Shear Modulus (GPa) = -27.72476 23.02568 -2.34954
#
# Velocity S-wave (km/s) = -3.90011 3.55426 -1.13536
# Velocity P-wave (km/s) = 2.95343 7.21511 5.51274
#
# Compressibility (1/GPa) = 0.01891600
#
# Stress axis : x y z
#
# Youngs Moduli (GPa) = 33.52438 95.35859 66.87365
#
# Poissons Ratio (x) = 0.54503 0.63055
# Poissons Ratio (y) = 0.19161 0.20277
# Poissons Ratio (z) = 0.31610 0.28914
#
# Static dielectric constant tensor:
#      x y z
#    x 3.137400 0.000000 0.000000 
#    y 0.000000 3.732590 0.000000 
#    z 0.000000 0.000000 3.316560 
# 
# 
# High freq. dielectric constant tensor:
#      x y z
#    x 1.685530 0.000000 0.000000 
#    y 0.000000 1.726850 0.000000 
#    z 0.000000 0.000000 1.694890 
# 
# From -- ./inp_files/12612.got.cif
#   From: 2010.03.12/outbox.cif.g09.slc.cpg/sg74_7_cif.got.tgz:12612.got - 2010.04.16 15:46:19.
