data_PCOD8300195
_publ_section_title
;
Structure prediction by ZEFSAII (Michael W. Deem and Ramdas Pophale) SiO2 
 PCOD8300195
Probable space group: I M M A
;
_chemical_formula_sum "Si O2"
_cell_formula_units_Z 112
_cell_length_a 15.129385
_cell_length_b 13.454079
_cell_length_c 26.079001
_cell_angle_alpha 90.000000
_cell_angle_beta 90.000000
_cell_angle_gamma 90.000000
_cell_volume 5308.431273
_symmetry_space_group_name_H-M "I M M A"
_symmetry_group_IT_number 74
_symmetry_cell_setting 'orthorhombic'
loop_
_space_group_symop_operation_xyz
x,y,z
-x,1/2-y,z
x,-y,-z
-x,1/2+y,-z
-x,-y,-z
x,1/2+y,-z
-x,y,z
x,1/2-y,z
1/2+x,1/2+y,1/2+z
1/2-x,-y,1/2+z
1/2+x,1/2-y,1/2-z
1/2-x,y,1/2-z
1/2-x,1/2-y,1/2-z
1/2+x,y,1/2-z
1/2-x,1/2+y,1/2+z
1/2+x,-y,1/2+z
loop_
_atom_site_type_symbol
_atom_site_label
_atom_site_fract_x
_atom_site_fract_y
_atom_site_fract_z
Si Si1 0.101643 0.366251 0.934426
Si Si2 0.146040 0.363409 0.744104
Si Si3 0.399376 0.016701 0.853986
Si Si4 0.403508 0.095917 0.965381
Si Si5 0.098947 0.003630 0.837317
Si Si6 0.750205 0.369079 0.132060
Si Si7 0.268665 0.357286 0.482240
O O1 0.122605 0.250000 0.925763
O O2 0.127158 0.421308 0.882240
O O3 0.000000 0.383678 0.949765
O O4 0.162650 0.412875 0.979893
O O5 0.113201 0.250000 0.751701
O O6 0.250000 0.370876 0.750000
O O7 0.117962 0.399489 0.688151
O O8 0.100102 0.435311 0.784833
O O9 0.500000 0.978127 0.852231
O O10 0.337706 0.920104 0.845027
O O11 0.377932 0.069372 0.907536
O O12 0.500000 0.150124 0.966945
O O13 0.325551 0.160457 0.989912
O O14 0.409244 0.000000 0.000000
O O15 0.164969 0.909363 0.836554
O O16 0.000000 0.962137 0.845805
O O17 0.742324 0.250000 0.137627
O O18 0.758957 0.407992 0.073180
O O19 0.310645 0.250000 0.470994
#
# Coordination Sequence:
#
# PCOD8300195 Si02
#       7
#    16  16  16  16  16  16  16
#     4   9  19  35  58  91 126 160 202 251 306 373
#     4  11  24  43  70 100 129 159 194 246 312 379
#     4  11  23  41  65  92 126 165 207 254 310 369
#     4  10  20  35  57  86 121 158 202 252 299 358
#     4  11  23  41  65  91 123 165 208 251 309 374
#     4  11  24  42  61  88 124 163 213 266 308 354
#     4  10  21  35  57  84 120 165 205 254 309 361
#
# _framework density 21.098511999999999
#
# number of rings (size 3 to 8) (size 9 to 14) (size 15 to 20)
#    0.000    1.571    2.857    1.714    0.000    3.714 
#    0.000    7.143    0.000    1.714    0.000    0.000 
#    0.000    0.000    0.000    0.000    0.000    0.000 
#
# Total GULP energy -694197.404559 kJ/mol
# GULP energy per Si atom -12396.382224 kJ/mol
# Density = 2.105049 g / cm^3
# Si number density = 21.098512 Si / 1000 Ang^3
#
#
#
# Elastic Constant Matrix: (Units=GPa)
#
#
# Indices 1 2 3 4 5 6 
#
# 1 97.3520 30.8931 31.5851 0.0000 0.0000 0.0000
# 2 30.8931 88.1659 34.8870 0.0000 0.0000 0.0000
# 3 31.5851 34.8870 109.9330 0.0000 0.0000 0.0000
# 4 0.0000 0.0000 0.0000 24.9472 0.0000 0.0000
# 5 0.0000 0.0000 0.0000 0.0000 42.6021 0.0000
# 6 0.0000 0.0000 0.0000 0.0000 0.0000 15.5787
#
#
#
# Elastic Compliance Matrix: (Units=1/GPa)
#
#
# Indices 1 2 3 4 5 6 
#
# 1 0.012102 -0.003276 -0.002438 0.000000 0.000000 0.000000
# 2 -0.003276 0.013858 -0.003457 0.000000 0.000000 0.000000
# 3 -0.002438 -0.003457 0.010894 0.000000 0.000000 0.000000
# 4 0.000000 0.000000 0.000000 0.040085 0.000000 0.000000
# 5 0.000000 0.000000 0.000000 0.000000 0.023473 0.000000
# 6 0.000000 0.000000 0.000000 0.000000 0.000000 0.064190
#
#
# Mechanical properties :
#
#
# Convention : Reuss Voigt Hill
#
# Bulk Modulus (GPa) = 54.01387 54.46457 54.23922
# Shear Modulus (GPa) = 26.43916 29.83132 28.13524
#
# Velocity S-wave (km/s) = 3.54380 3.76427 3.65570
# Velocity P-wave (km/s) = 6.51161 6.69055 6.60169
#
# Compressibility (1/GPa) = 0.01851376
#
# Stress axis : x y z
#
# Youngs Moduli (GPa) = 82.62775 72.16079 91.79624
#
# Poissons Ratio (x) = 0.23641 0.22375
# Poissons Ratio (y) = 0.27070 0.31729
# Poissons Ratio (z) = 0.20141 0.24942
#
# Static dielectric constant tensor:
#      x y z
#    x 4.165820 0.000000 0.000000 
#    y 0.000000 3.547110 0.000000 
#    z 0.000000 0.000000 3.925830 
# 
# 
# High freq. dielectric constant tensor:
#      x y z
#    x 1.840620 0.000000 0.000000 
#    y 0.000000 1.811870 0.000000 
#    z 0.000000 0.000000 1.825740 
# 
# From -- ./inp_files/60106.got.cif
#   From: 2010.03.12/outbox.cif.g09.slc.cpg/sg74_31_cif.got.tgz:60106.got - 2010.04.16 15:46:19.
