data_PCOD8300774
_publ_section_title
;
Structure prediction by ZEFSAII (Michael W. Deem and Ramdas Pophale) SiO2 
 PCOD8300774
Probable space group: I M M A
;
_chemical_formula_sum "Si O2"
_cell_formula_units_Z 96
_cell_length_a 9.210974
_cell_length_b 19.837688
_cell_length_c 27.730996
_cell_angle_alpha 90.000000
_cell_angle_beta 90.000000
_cell_angle_gamma 90.000000
_cell_volume 5067.130393
_symmetry_space_group_name_H-M "I M M A"
_symmetry_group_IT_number 74
_symmetry_cell_setting 'orthorhombic'
loop_
_space_group_symop_operation_xyz
x,y,z
-x,1/2-y,z
x,-y,-z
-x,1/2+y,-z
-x,-y,-z
x,1/2+y,-z
-x,y,z
x,1/2-y,z
1/2+x,1/2+y,1/2+z
1/2-x,-y,1/2+z
1/2+x,1/2-y,1/2-z
1/2-x,y,1/2-z
1/2-x,1/2-y,1/2-z
1/2+x,y,1/2-z
1/2-x,1/2+y,1/2+z
1/2+x,-y,1/2+z
loop_
_atom_site_type_symbol
_atom_site_label
_atom_site_fract_x
_atom_site_fract_y
_atom_site_fract_z
Si Si1 0.332247 0.327446 0.621837
Si Si2 0.168762 0.671720 0.701335
Si Si3 0.332237 0.933148 0.642318
Si Si4 0.830573 0.827843 0.474788
Si Si5 0.329976 0.065475 0.699960
Si Si6 0.168018 0.563658 0.968825
O O1 0.500000 0.341412 0.609113
O O2 0.304333 0.250000 0.635818
O O3 0.239698 0.349455 0.575760
O O4 0.281333 0.372061 0.666799
O O5 0.194614 0.750000 0.690073
O O6 0.250000 0.649441 0.750000
O O7 0.234524 0.630653 0.656696
O O8 0.000000 0.654621 0.707643
O O9 0.500000 0.914418 0.650909
O O10 0.303927 0.952490 0.587001
O O11 0.283526 0.996470 0.674226
O O12 0.797842 0.750000 0.486317
O O13 0.760676 0.870878 0.517549
O O14 0.000000 0.842949 0.471844
O O15 0.500000 0.067254 0.709888
O O16 0.250000 0.072693 0.750000
O O17 0.000000 0.579213 0.979418
O O18 0.221536 0.500000 0.000000
#
# Coordination Sequence:
#
# PCOD8300774 Si02
#       6
#    16  16  16  16  16  16
#     4   9  18  35  58  80 106 144 185 221 261 313
#     4  10  21  37  57  80 107 139 175 217 264 315
#     4  10  21  36  55  79 107 139 177 221 265 314
#     4  10  21  36  55  82 114 144 177 221 271 322
#     4  10  21  36  54  79 109 140 177 221 267 315
#     4  10  21  38  59  81 107 142 184 227 269 318
#
# _framework density 18.945634999999999
#
# number of rings (size 3 to 8) (size 9 to 14) (size 15 to 20)
#    0.000    2.167    0.000    2.500    0.000    9.333 
#    0.000    5.000    0.000    0.000    0.000    0.000 
#    0.000    0.000    0.000    0.000    0.000    0.000 
#
# Total GULP energy -595470.418748 kJ/mol
# GULP energy per Si atom -12405.633724 kJ/mol
# Density = 1.890251 g / cm^3
# Si number density = 18.945635 Si / 1000 Ang^3
#
#
#
# Elastic Constant Matrix: (Units=GPa)
#
#
# Indices 1 2 3 4 5 6 
#
# 1 66.3452 35.3822 27.3238 0.0000 0.0000 0.0000
# 2 35.3822 72.7767 26.2025 0.0000 0.0000 0.0000
# 3 27.3238 26.2025 63.2477 0.0000 0.0000 0.0000
# 4 0.0000 0.0000 0.0000 40.3159 0.0000 0.0000
# 5 0.0000 0.0000 0.0000 0.0000 36.7042 0.0000
# 6 0.0000 0.0000 0.0000 0.0000 0.0000 27.4522
#
#
#
# Elastic Compliance Matrix: (Units=1/GPa)
#
#
# Indices 1 2 3 4 5 6 
#
# 1 0.022129 -0.008599 -0.005997 0.000000 0.000000 0.000000
# 2 -0.008599 0.019491 -0.004360 0.000000 0.000000 0.000000
# 3 -0.005997 -0.004360 0.020208 0.000000 0.000000 0.000000
# 4 0.000000 0.000000 0.000000 0.024804 0.000000 0.000000
# 5 0.000000 0.000000 0.000000 0.000000 0.027245 0.000000
# 6 0.000000 0.000000 0.000000 0.000000 0.000000 0.036427
#
#
# Mechanical properties :
#
#
# Convention : Reuss Voigt Hill
#
# Bulk Modulus (GPa) = 41.81484 42.24295 42.02890
# Shear Modulus (GPa) = 25.48578 28.45855 26.97216
#
# Velocity S-wave (km/s) = 3.67168 3.87992 3.77724
# Velocity P-wave (km/s) = 6.33197 6.51284 6.42304
#
# Compressibility (1/GPa) = 0.02391495
#
# Stress axis : x y z
#
# Youngs Moduli (GPa) = 45.19047 51.30560 49.48523
#
# Poissons Ratio (x) = 0.44118 0.29678
# Poissons Ratio (y) = 0.38859 0.21575
# Poissons Ratio (z) = 0.27102 0.22369
#
# Static dielectric constant tensor:
#      x y z
#    x 3.430740 0.000000 0.000000 
#    y 0.000000 3.548770 0.000000 
#    z 0.000000 0.000000 3.391660 
# 
# 
# High freq. dielectric constant tensor:
#      x y z
#    x 1.732270 0.000000 0.000000 
#    y 0.000000 1.744340 0.000000 
#    z 0.000000 0.000000 1.737140 
# 
# From -- ./inp_files/64272.got.cif
#   From: 2010.03.12/outbox.cif.g09.slc.cpg/sg74_33_cif.got.tgz:64272.got - 2010.04.16 15:46:19.
