data_PCOD8300170
_publ_section_title
;
Structure prediction by ZEFSAII (Michael W. Deem and Ramdas Pophale) SiO2 
 PCOD8300170
Probable space group: I M M A
;
_chemical_formula_sum "Si O2"
_cell_formula_units_Z 112
_cell_length_a 23.925610
_cell_length_b 13.981124
_cell_length_c 16.023437
_cell_angle_alpha 90.000000
_cell_angle_beta 90.000000
_cell_angle_gamma 90.000000
_cell_volume 5359.950562
_symmetry_space_group_name_H-M "I M M A"
_symmetry_group_IT_number 74
_symmetry_cell_setting 'orthorhombic'
loop_
_space_group_symop_operation_xyz
x,y,z
-x,1/2-y,z
x,-y,-z
-x,1/2+y,-z
-x,-y,-z
x,1/2+y,-z
-x,y,z
x,1/2-y,z
1/2+x,1/2+y,1/2+z
1/2-x,-y,1/2+z
1/2+x,1/2-y,1/2-z
1/2-x,y,1/2-z
1/2-x,1/2-y,1/2-z
1/2+x,y,1/2-z
1/2-x,1/2+y,1/2+z
1/2+x,-y,1/2+z
loop_
_atom_site_type_symbol
_atom_site_label
_atom_site_fract_x
_atom_site_fract_y
_atom_site_fract_z
Si Si1 0.126614 0.639804 0.032840
Si Si2 0.610835 0.038961 0.367105
Si Si3 0.862978 0.862864 0.395796
Si Si4 0.935847 0.357542 0.446780
Si Si5 0.256505 0.359487 0.987489
Si Si6 0.221690 0.140529 0.161499
Si Si7 0.436246 0.000817 0.801755
O O1 0.113089 0.750000 0.053117
O O2 0.102951 0.571237 0.104157
O O3 0.192699 0.616664 0.034104
O O4 0.098456 0.611270 0.944090
O O5 0.672321 0.064086 0.334379
O O6 0.568715 0.047762 0.289689
O O7 0.862070 0.750000 0.375579
O O8 0.902524 0.891067 0.472514
O O9 0.801611 0.905811 0.423179
O O10 0.890231 0.914680 0.314845
O O11 0.919401 0.250000 0.422296
O O12 0.920292 0.419455 0.367181
O O13 0.000000 0.367716 0.472071
O O14 0.270955 0.250000 0.977103
O O15 0.263983 0.388545 0.085520
O O16 0.200038 0.250000 0.143070
O O17 0.250000 0.135700 0.250000
O O18 0.500000 0.037743 0.813146
#
# Coordination Sequence:
#
# PCOD8300170 Si02
#       7
#    16  16  16  16  16  16  16
#     4   9  19  40  62  81 111 145 183 234 294 359
#     4  10  21  36  58  84 108 148 189 233 298 355
#     4  10  20  35  57  82 113 156 195 225 271 334
#     4   9  19  36  55  75 105 149 196 235 272 317
#     4   8  16  32  53  79 110 148 186 223 273 335
#     4   9  18  32  53  84 121 152 187 240 290 336
#     4  11  24  39  55  82 117 149 190 243 291 335
#
# _framework density 20.895714999999999
#
# number of rings (size 3 to 8) (size 9 to 14) (size 15 to 20)
#    0.000    2.571    0.000    2.143    2.000    4.857 
#    7.714    1.429    0.000    3.857    0.000    0.000 
#    0.000    0.000    0.000    0.000    0.000    0.000 
#
# Total GULP energy -693835.960919 kJ/mol
# GULP energy per Si atom -12389.927874 kJ/mol
# Density = 2.084816 g / cm^3
# Si number density = 20.895715 Si / 1000 Ang^3
#
#
#
# Elastic Constant Matrix: (Units=GPa)
#
#
# Indices 1 2 3 4 5 6 
#
# 1 37.8573 8.0713 17.8872 0.0000 0.0000 0.0000
# 2 8.0713 82.2363 16.8445 0.0000 0.0000 0.0000
# 3 17.8872 16.8445 54.5476 0.0000 0.0000 0.0000
# 4 0.0000 0.0000 0.0000 23.2698 0.0000 0.0000
# 5 0.0000 0.0000 0.0000 0.0000 97.6032 0.0000
# 6 0.0000 0.0000 0.0000 0.0000 0.0000 21.1096
#
#
#
# Elastic Compliance Matrix: (Units=1/GPa)
#
#
# Indices 1 2 3 4 5 6 
#
# 1 0.031341 -0.001036 -0.009957 0.000000 0.000000 0.000000
# 2 -0.001036 0.013015 -0.003679 0.000000 0.000000 0.000000
# 3 -0.009957 -0.003679 0.022734 0.000000 0.000000 0.000000
# 4 0.000000 0.000000 0.000000 0.042974 0.000000 0.000000
# 5 0.000000 0.000000 0.000000 0.000000 0.010246 0.000000
# 6 0.000000 0.000000 0.000000 0.000000 0.000000 0.047372
#
#
# Mechanical properties :
#
#
# Convention : Reuss Voigt Hill
#
# Bulk Modulus (GPa) = 26.49419 28.91634 27.70527
# Shear Modulus (GPa) = 23.85397 37.18574 30.51986
#
# Velocity S-wave (km/s) = 3.38238 4.22309 3.82590
# Velocity P-wave (km/s) = 5.28780 6.13578 5.72750
#
# Compressibility (1/GPa) = 0.03774412
#
# Stress axis : x y z
#
# Youngs Moduli (GPa) = 31.90754 76.83176 43.98711
#
# Poissons Ratio (x) = 0.07963 0.43798
# Poissons Ratio (y) = 0.03307 0.16184
# Poissons Ratio (z) = 0.31771 0.28269
#
# Static dielectric constant tensor:
#      x y z
#    x 3.561430 0.000000 0.000000 
#    y 0.000000 3.889450 0.000000 
#    z 0.000000 0.000000 3.658620 
# 
# 
# High freq. dielectric constant tensor:
#      x y z
#    x 1.792400 0.000000 0.000000 
#    y 0.000000 1.819490 0.000000 
#    z 0.000000 0.000000 1.811870 
# 
# From -- ./inp_files/36517.got.cif
#   From: 2010.03.12/outbox.cif.g09.slc.cpg/sg74_19_cif.got.tgz:36517.got - 2010.04.16 15:46:19.
