data_PCOD8300438
_publ_section_title
;
Structure prediction by ZEFSAII (Michael W. Deem and Ramdas Pophale) SiO2 
 PCOD8300438
Probable space group: I M M A
;
_chemical_formula_sum "Si O2"
_cell_formula_units_Z 64
_cell_length_a 11.026040
_cell_length_b 13.340385
_cell_length_c 23.639168
_cell_angle_alpha 90.000000
_cell_angle_beta 90.000000
_cell_angle_gamma 90.000000
_cell_volume 3477.123484
_symmetry_space_group_name_H-M "I M M A"
_symmetry_group_IT_number 74
_symmetry_cell_setting 'orthorhombic'
loop_
_space_group_symop_operation_xyz
x,y,z
-x,1/2-y,z
x,-y,-z
-x,1/2+y,-z
-x,-y,-z
x,1/2+y,-z
-x,y,z
x,1/2-y,z
1/2+x,1/2+y,1/2+z
1/2-x,-y,1/2+z
1/2+x,1/2-y,1/2-z
1/2-x,y,1/2-z
1/2-x,1/2-y,1/2-z
1/2+x,y,1/2-z
1/2-x,1/2+y,1/2+z
1/2+x,-y,1/2+z
loop_
_atom_site_type_symbol
_atom_site_label
_atom_site_fract_x
_atom_site_fract_y
_atom_site_fract_z
Si Si1 0.500000 0.056193 0.056754
Si Si2 0.743631 0.136573 0.467143
Si Si3 0.500000 0.858480 0.130305
Si Si4 0.748571 0.638137 0.312207
Si Si5 0.638351 0.446510 0.577833
O O1 0.620619 0.124232 0.057991
O O2 0.500000 0.965347 0.100397
O O3 0.500000 0.000000 0.000000
O O4 0.702294 0.250000 0.457466
O O5 0.731222 0.110386 0.534621
O O6 0.652700 0.065400 0.432336
O O7 0.500000 0.750000 0.094898
O O8 0.386228 0.857000 0.170368
O O9 0.691899 0.750000 0.308710
O O10 0.750000 0.586960 0.250000
O O11 0.669971 0.575817 0.357307
O O12 0.500000 0.414529 0.565073
#
# Coordination Sequence:
#
# PCOD8300438 Si02
#       5
#     8  16   8  16  16
#     4  12  19  35  56  84 115 146 185 226 277 329
#     4  11  22  37  57  83 113 147 187 229 278 333
#     4  10  20  37  58  83 117 148 181 227 282 330
#     4  10  21  36  58  86 114 147 184 226 278 337
#     4  11  23  38  56  82 114 149 185 229 279 330
#
# _framework density 18.406018
#
# number of rings (size 3 to 8) (size 9 to 14) (size 15 to 20)
#    0.000    1.250    5.000    2.625    1.750    6.500 
#    0.000    0.000    0.000    0.750    0.000    0.000 
#    0.000    0.000    0.000    0.000    0.000    0.000 
#
# Total GULP energy -396493.427733 kJ/mol
# GULP energy per Si atom -12390.419617 kJ/mol
# Density = 1.836413 g / cm^3
# Si number density = 18.406018 Si / 1000 Ang^3
#
#
#
# Elastic Constant Matrix: (Units=GPa)
#
#
# Indices 1 2 3 4 5 6 
#
# 1 98.9672 23.7609 24.2399 0.0000 0.0000 0.0000
# 2 23.7609 126.2724 52.8130 0.0000 0.0000 0.0000
# 3 24.2399 52.8130 126.4702 0.0000 0.0000 0.0000
# 4 0.0000 0.0000 0.0000 21.8392 0.0000 0.0000
# 5 0.0000 0.0000 0.0000 0.0000 -20.3219 0.0000
# 6 0.0000 0.0000 0.0000 0.0000 0.0000 19.7603
#
#
#
# Elastic Compliance Matrix: (Units=1/GPa)
#
#
# Indices 1 2 3 4 5 6 
#
# 1 0.010807 -0.001414 -0.001481 0.000000 0.000000 0.000000
# 2 -0.001414 0.009780 -0.003813 0.000000 0.000000 0.000000
# 3 -0.001481 -0.003813 0.009783 0.000000 0.000000 0.000000
# 4 0.000000 0.000000 0.000000 0.045789 0.000000 0.000000
# 5 0.000000 0.000000 0.000000 0.000000 -0.049208 0.000000
# 6 0.000000 0.000000 0.000000 0.000000 0.000000 0.050607
#
#
# Mechanical properties :
#
#
# Convention : Reuss Voigt Hill
#
# Bulk Modulus (GPa) = 58.98320 61.48194 60.23257
# Shear Modulus (GPa) = 51.74625 20.98190 36.36408
#
# Velocity S-wave (km/s) = 5.30799 3.37997 4.44966
# Velocity P-wave (km/s) = 8.34755 6.97911 7.69381
#
# Compressibility (1/GPa) = 0.01695398
#
# Stress axis : x y z
#
# Youngs Moduli (GPa) = 92.53646 102.24604 102.21678
#
# Poissons Ratio (x) = 0.14460 0.15135
# Poissons Ratio (y) = 0.13087 0.38977
# Poissons Ratio (z) = 0.13702 0.38988
#
# Static dielectric constant tensor:
#      x y z
#    x 3.325370 0.000000 0.000000 
#    y 0.000000 3.429280 0.000000 
#    z 0.000000 0.000000 3.255910 
# 
# 
# High freq. dielectric constant tensor:
#      x y z
#    x 1.727300 0.000000 0.000000 
#    y 0.000000 1.700760 0.000000 
#    z 0.000000 0.000000 1.690730 
# 
# From -- ./inp_files/58266.got.cif
#   From: 2010.03.12/outbox.cif.g09.slc.cpg/sg74_30_cif.got.tgz:58266.got - 2010.04.16 15:46:19.
