data_PCOD8300134
_publ_section_title
;
Structure prediction by ZEFSAII (Michael W. Deem and Ramdas Pophale) SiO2 
 PCOD8300134
Probable space group: I M M A
;
_chemical_formula_sum "Si O2"
_cell_formula_units_Z 104
_cell_length_a 8.818210
_cell_length_b 19.947218
_cell_length_c 31.743232
_cell_angle_alpha 90.000000
_cell_angle_beta 90.000000
_cell_angle_gamma 90.000000
_cell_volume 5583.595060
_symmetry_space_group_name_H-M "I M M A"
_symmetry_group_IT_number 74
_symmetry_cell_setting 'orthorhombic'
loop_
_space_group_symop_operation_xyz
x,y,z
-x,1/2-y,z
x,-y,-z
-x,1/2+y,-z
-x,-y,-z
x,1/2+y,-z
-x,y,z
x,1/2-y,z
1/2+x,1/2+y,1/2+z
1/2-x,-y,1/2+z
1/2+x,1/2-y,1/2-z
1/2-x,y,1/2-z
1/2-x,1/2-y,1/2-z
1/2+x,y,1/2-z
1/2-x,1/2+y,1/2+z
1/2+x,-y,1/2+z
loop_
_atom_site_type_symbol
_atom_site_label
_atom_site_fract_x
_atom_site_fract_y
_atom_site_fract_z
Si Si1 0.678258 0.250000 0.295486
Si Si2 0.821125 0.510185 0.208154
Si Si3 0.670059 0.570189 0.916291
Si Si4 0.176372 0.827346 0.432584
Si Si5 0.678035 0.673349 0.521371
Si Si6 0.830015 0.619219 0.678063
Si Si7 0.321348 0.558014 0.383441
O O1 0.500000 0.250000 0.291799
O O2 0.750000 0.250000 0.250000
O O3 0.732501 0.313950 0.321201
O O4 0.750000 0.545497 0.250000
O O5 0.752809 0.435739 0.206515
O O6 0.774158 0.549449 0.165599
O O7 0.000000 0.506442 0.213126
O O8 0.500000 0.563458 0.934959
O O9 0.767479 0.621760 0.943496
O O10 0.663546 0.597981 0.869780
O O11 0.747233 0.497153 0.914452
O O12 0.207396 0.750000 0.422033
O O13 0.239081 0.846036 0.478343
O O14 0.263640 0.869269 0.397098
O O15 0.000000 0.845175 0.431261
O O16 0.500000 0.664898 0.514461
O O17 0.718264 0.750000 0.534671
O O18 0.000000 0.630600 0.695861
O O19 0.500000 0.551708 0.388760
#
# Coordination Sequence:
#
# PCOD8300134 Si02
#       7
#     8  16  16  16  16  16  16
#     4  12  24  36  50  68  96 134 180 230 278 328
#     4  10  20  35  56  81 108 140 176 218 267 321
#     4  10  21  36  55  79 109 144 184 229 274 322
#     4  10  21  38  60  85 112 143 179 220 269 326
#     4  10  21  36  55  80 111 148 188 229 273 323
#     4  10  21  36  52  73 102 138 179 225 275 323
#     4  10  21  37  58  84 113 143 180 224 271 324
#
# _framework density 18.625993000000001
#
# number of rings (size 3 to 8) (size 9 to 14) (size 15 to 20)
#    0.000    1.846    0.000    3.923    1.077    6.154 
#    0.000    3.077    0.000    0.462    0.000    0.000 
#    0.000    0.000    0.000    0.000    0.000    0.000 
#
# Total GULP energy -644907.298920 kJ/mol
# GULP energy per Si atom -12402.063441 kJ/mol
# Density = 1.858360 g / cm^3
# Si number density = 18.625993 Si / 1000 Ang^3
#
#
#
# Elastic Constant Matrix: (Units=GPa)
#
#
# Indices 1 2 3 4 5 6 
#
# 1 82.9000 31.8141 23.3023 0.0000 0.0000 0.0000
# 2 31.8141 80.4749 41.0638 0.0000 0.0000 0.0000
# 3 23.3023 41.0638 72.3924 0.0000 0.0000 0.0000
# 4 0.0000 0.0000 0.0000 18.0894 0.0000 0.0000
# 5 0.0000 0.0000 0.0000 0.0000 34.5390 0.0000
# 6 0.0000 0.0000 0.0000 0.0000 0.0000 33.3590
#
#
#
# Elastic Compliance Matrix: (Units=1/GPa)
#
#
# Indices 1 2 3 4 5 6 
#
# 1 0.014419 -0.004689 -0.001981 0.000000 0.000000 0.000000
# 2 -0.004689 0.019013 -0.009276 0.000000 0.000000 0.000000
# 3 -0.001981 -0.009276 0.019713 0.000000 0.000000 0.000000
# 4 0.000000 0.000000 0.000000 0.055281 0.000000 0.000000
# 5 0.000000 0.000000 0.000000 0.000000 0.028953 0.000000
# 6 0.000000 0.000000 0.000000 0.000000 0.000000 0.029977
#
#
# Mechanical properties :
#
#
# Convention : Reuss Voigt Hill
#
# Bulk Modulus (GPa) = 47.05294 47.56974 47.31134
# Shear Modulus (GPa) = 24.23272 26.50329 25.36800
#
# Velocity S-wave (km/s) = 3.61087 3.77625 3.69449
# Velocity P-wave (km/s) = 6.53463 6.67895 6.60718
#
# Compressibility (1/GPa) = 0.02125266
#
# Stress axis : x y z
#
# Youngs Moduli (GPa) = 69.35163 52.59536 50.72828
#
# Poissons Ratio (x) = 0.24664 0.10052
# Poissons Ratio (y) = 0.32521 0.47053
# Poissons Ratio (z) = 0.13742 0.48785
#
# Static dielectric constant tensor:
#      x y z
#    x 3.748340 0.000000 0.000000 
#    y 0.000000 3.240870 0.000000 
#    z 0.000000 0.000000 3.435870 
# 
# 
# High freq. dielectric constant tensor:
#      x y z
#    x 1.744010 0.000000 0.000000 
#    y 0.000000 1.709350 0.000000 
#    z 0.000000 0.000000 1.721660 
# 
# From -- ./inp_files/64473.got.cif
#   From: 2010.03.12/outbox.cif.g09.slc.cpg/sg74_33_cif.got.tgz:64473.got - 2010.04.16 15:46:19.
