data_PCOD8300723
_publ_section_title
;
Structure prediction by ZEFSAII (Michael W. Deem and Ramdas Pophale) SiO2 
 PCOD8300723
Probable space group: I M M A
;
_chemical_formula_sum "Si O2"
_cell_formula_units_Z 96
_cell_length_a 20.492425
_cell_length_b 16.698986
_cell_length_c 14.990750
_cell_angle_alpha 90.000000
_cell_angle_beta 90.000000
_cell_angle_gamma 90.000000
_cell_volume 5129.875398
_symmetry_space_group_name_H-M "I M M A"
_symmetry_group_IT_number 74
_symmetry_cell_setting 'orthorhombic'
loop_
_space_group_symop_operation_xyz
x,y,z
-x,1/2-y,z
x,-y,-z
-x,1/2+y,-z
-x,-y,-z
x,1/2+y,-z
-x,y,z
x,1/2-y,z
1/2+x,1/2+y,1/2+z
1/2-x,-y,1/2+z
1/2+x,1/2-y,1/2-z
1/2-x,y,1/2-z
1/2-x,1/2-y,1/2-z
1/2+x,y,1/2-z
1/2-x,1/2+y,1/2+z
1/2+x,-y,1/2+z
loop_
_atom_site_type_symbol
_atom_site_label
_atom_site_fract_x
_atom_site_fract_y
_atom_site_fract_z
Si Si1 0.928862 0.588917 0.213244
Si Si2 0.572234 0.914273 0.641341
Si Si3 0.791756 0.656925 0.828288
Si Si4 0.602459 0.341723 0.540024
Si Si5 0.808789 0.655150 0.317062
Si Si6 0.760995 0.593849 0.017047
O O1 0.912002 0.505796 0.163916
O O2 0.935154 0.653857 0.133543
O O3 0.875003 0.612355 0.285445
O O4 0.000000 0.585044 0.260901
O O5 0.500000 0.889895 0.678874
O O6 0.631853 0.864280 0.682155
O O7 0.570898 0.898674 0.534948
O O8 0.786613 0.750000 0.816972
O O9 0.750000 0.614296 0.750000
O O10 0.757112 0.633992 0.920409
O O11 0.603539 0.250000 0.505102
O O12 0.674227 0.373550 0.564611
O O13 0.819508 0.750000 0.321399
O O14 0.750000 0.632949 0.250000
O O15 0.796808 0.620520 0.416575
O O16 0.761613 0.500000 0.000000
#
# Coordination Sequence:
#
# PCOD8300723 Si02
#       6
#    16  16  16  16  16  16
#     4  11  23  36  55  83 118 157 195 239 289 344
#     4  10  21  35  54  80 116 155 192 233 285 350
#     4  10  22  38  59  85 115 149 192 243 292 341
#     4  11  20  33  53  82 119 155 192 231 287 353
#     4  11  23  38  59  86 117 153 194 234 281 344
#     4  11  22  35  59  86 114 152 188 238 285 343
#
# _framework density 18.713905
#
# number of rings (size 3 to 8) (size 9 to 14) (size 15 to 20)
#    0.000    1.333    1.667    6.500    2.333    4.667 
#    0.000    0.000    0.000    1.500    0.000    2.333 
#    0.000    0.000    0.000    0.000    0.000    0.000 
#
# Total GULP energy -594913.613750 kJ/mol
# GULP energy per Si atom -12394.033620 kJ/mol
# Density = 1.867131 g / cm^3
# Si number density = 18.713905 Si / 1000 Ang^3
#
#
#
# Elastic Constant Matrix: (Units=GPa)
#
#
# Indices 1 2 3 4 5 6 
#
# 1 116.5097 48.5243 82.3383 0.0000 0.0000 0.0000
# 2 48.5243 105.5108 37.2219 0.0000 0.0000 0.0000
# 3 82.3383 37.2219 96.8506 0.0000 0.0000 0.0000
# 4 0.0000 0.0000 0.0000 7.1805 0.0000 0.0000
# 5 0.0000 0.0000 0.0000 0.0000 26.1126 0.0000
# 6 0.0000 0.0000 0.0000 0.0000 0.0000 17.3148
#
#
#
# Elastic Compliance Matrix: (Units=1/GPa)
#
#
# Indices 1 2 3 4 5 6 
#
# 1 0.023049 -0.004266 -0.017956 0.000000 0.000000 0.000000
# 2 -0.004266 0.011754 -0.000891 0.000000 0.000000 0.000000
# 3 -0.017956 -0.000891 0.025933 0.000000 0.000000 0.000000
# 4 0.000000 0.000000 0.000000 0.139267 0.000000 0.000000
# 5 0.000000 0.000000 0.000000 0.000000 0.038296 0.000000
# 6 0.000000 0.000000 0.000000 0.000000 0.000000 0.057754
#
#
# Mechanical properties :
#
#
# Convention : Reuss Voigt Hill
#
# Bulk Modulus (GPa) = 68.91338 72.78224 70.84781
# Shear Modulus (GPa) = 14.40448 20.17403 17.28926
#
# Velocity S-wave (km/s) = 2.77739 3.28689 3.04282
# Velocity P-wave (km/s) = 6.86949 7.30625 7.09123
#
# Compressibility (1/GPa) = 0.01451097
#
# Stress axis : x y z
#
# Youngs Moduli (GPa) = 43.38519 85.07929 38.56094
#
# Poissons Ratio (x) = 0.36294 0.69240
# Poissons Ratio (y) = 0.18508 0.03434
# Poissons Ratio (z) = 0.77903 0.07577
#
# Static dielectric constant tensor:
#      x y z
#    x 3.544260 0.000000 0.000000 
#    y 0.000000 3.511580 0.000000 
#    z 0.000000 0.000000 3.065720 
# 
# 
# High freq. dielectric constant tensor:
#      x y z
#    x 1.723040 0.000000 0.000000 
#    y 0.000000 1.738700 0.000000 
#    z 0.000000 0.000000 1.701980 
# 
# From -- ./inp_files/35280.got.cif
#   From: 2010.03.12/outbox.cif.g09.slc.cpg/sg74_18_cif.got.tgz:35280.got - 2010.04.16 15:46:19.
