data_PCOD8300554
_publ_section_title
;
Structure prediction by ZEFSAII (Michael W. Deem and Ramdas Pophale) SiO2 
 PCOD8300554
Probable space group: I M M A
;
_chemical_formula_sum "Si O2"
_cell_formula_units_Z 104
_cell_length_a 8.769393
_cell_length_b 26.505087
_cell_length_c 23.193737
_cell_angle_alpha 90.000000
_cell_angle_beta 90.000000
_cell_angle_gamma 90.000000
_cell_volume 5391.002035
_symmetry_space_group_name_H-M "I M M A"
_symmetry_group_IT_number 74
_symmetry_cell_setting 'orthorhombic'
loop_
_space_group_symop_operation_xyz
x,y,z
-x,1/2-y,z
x,-y,-z
-x,1/2+y,-z
-x,-y,-z
x,1/2+y,-z
-x,y,z
x,1/2-y,z
1/2+x,1/2+y,1/2+z
1/2-x,-y,1/2+z
1/2+x,1/2-y,1/2-z
1/2-x,y,1/2-z
1/2-x,1/2-y,1/2-z
1/2+x,y,1/2-z
1/2-x,1/2+y,1/2+z
1/2+x,-y,1/2+z
loop_
_atom_site_type_symbol
_atom_site_label
_atom_site_fract_x
_atom_site_fract_y
_atom_site_fract_z
Si Si1 0.319549 0.044934 0.687583
Si Si2 0.680303 0.806362 0.007064
Si Si3 0.174729 0.337667 0.381285
Si Si4 0.825559 0.550814 0.628660
Si Si5 0.179319 0.109280 0.591136
Si Si6 0.834884 0.556040 0.990707
Si Si7 0.322870 0.250000 0.311978
O O1 0.500000 0.045539 0.691074
O O2 0.250000 0.053095 0.750000
O O3 0.265320 0.092633 0.649339
O O4 0.271087 0.989939 0.663895
O O5 0.500000 0.802752 0.008800
O O6 0.751969 0.750000 0.007544
O O7 0.729913 0.836888 0.949012
O O8 0.733656 0.836524 0.064832
O O9 0.188660 0.391625 0.348215
O O10 0.278362 0.299561 0.346694
O O11 0.000000 0.318912 0.379807
O O12 0.766109 0.559972 0.565294
O O13 0.000000 0.531919 0.628754
O O14 0.224000 0.069126 0.543149
O O15 0.000000 0.107943 0.603457
O O16 0.000000 0.585942 0.987942
O O17 0.886863 0.500000 0.000000
O O18 0.500000 0.250000 0.302266
O O19 0.250000 0.250000 0.250000
#
# Coordination Sequence:
#
# PCOD8300554 Si02
#       7
#    16  16  16  16  16  16   8
#     4  12  26  44  62  85 118 160 201 249 299 357
#     4   9  17  33  60  92 123 154 191 239 299 358
#     4  10  20  38  62  88 120 157 198 249 299 349
#     4  11  22  37  60  89 119 157 198 243 296 352
#     4  11  21  36  61  91 119 157 200 242 298 364
#     4  11  21  32  51  84 122 157 190 235 287 341
#     4  12  26  42  60  82 110 158 209 254 299 350
#
# _framework density 19.291404
#
# number of rings (size 3 to 8) (size 9 to 14) (size 15 to 20)
#    0.000    1.231    3.846    3.462    0.000    2.462 
#    0.000    0.000    0.000    0.462    0.000    0.000 
#    0.000    0.000    0.000    0.000    0.000    0.000 
#
# Total GULP energy -644322.940647 kJ/mol
# GULP energy per Si atom -12390.825782 kJ/mol
# Density = 1.924750 g / cm^3
# Si number density = 19.291404 Si / 1000 Ang^3
#
#
#
# Elastic Constant Matrix: (Units=GPa)
#
#
# Indices 1 2 3 4 5 6 
#
# 1 118.6049 34.8641 49.3783 0.0000 0.0000 0.0000
# 2 34.8641 103.4915 46.6272 0.0000 0.0000 0.0000
# 3 49.3783 46.6272 134.7813 -0.0001 0.0000 0.0000
# 4 0.0000 0.0000 -0.0001 12.3158 0.0000 0.0000
# 5 0.0000 0.0000 0.0000 0.0000 34.3280 0.0000
# 6 0.0000 0.0000 0.0000 0.0000 0.0000 22.0632
#
#
#
# Elastic Compliance Matrix: (Units=1/GPa)
#
#
# Indices 1 2 3 4 5 6 
#
# 1 0.010320 -0.002101 -0.003054 0.000000 0.000000 0.000000
# 2 -0.002101 0.011874 -0.003338 0.000000 0.000000 0.000000
# 3 -0.003054 -0.003338 0.009693 0.000000 0.000000 0.000000
# 4 0.000000 0.000000 0.000000 0.081197 0.000000 0.000000
# 5 0.000000 0.000000 0.000000 0.000000 0.029131 0.000000
# 6 0.000000 0.000000 0.000000 0.000000 0.000000 0.045324
#
#
# Mechanical properties :
#
#
# Convention : Reuss Voigt Hill
#
# Bulk Modulus (GPa) = 67.10698 68.73521 67.92110
# Shear Modulus (GPa) = 23.86710 28.80861 26.33785
#
# Velocity S-wave (km/s) = 3.52118 3.86857 3.69896
# Velocity P-wave (km/s) = 7.16890 7.46068 7.31624
#
# Compressibility (1/GPa) = 0.01490158
#
# Stress axis : x y z
#
# Youngs Moduli (GPa) = 96.89539 84.21519 103.16463
#
# Poissons Ratio (x) = 0.17691 0.31509
# Poissons Ratio (y) = 0.20355 0.34439
# Poissons Ratio (z) = 0.29594 0.28113
#
# Static dielectric constant tensor:
#      x y z
#    x 3.499330 0.000000 0.000000 
#    y 0.000000 3.892280 0.000000 
#    z 0.000000 0.000000 3.517270 
# 
# 
# High freq. dielectric constant tensor:
#      x y z
#    x 1.753590 0.000000 0.000000 
#    y 0.000000 1.750720 0.000000 
#    z 0.000000 0.000000 1.733430 
# 
# From -- ./inp_files/57579.got.cif
#   From: 2010.03.12/outbox.cif.g09.slc.cpg/sg74_29_cif.got.tgz:57579.got - 2010.04.16 15:46:19.
