data_PCOD8300344
_publ_section_title
;
Structure prediction by ZEFSAII (Michael W. Deem and Ramdas Pophale) SiO2 
 PCOD8300344
Probable space group: I M M A
;
_chemical_formula_sum "Si O2"
_cell_formula_units_Z 80
_cell_length_a 17.144892
_cell_length_b 11.055569
_cell_length_c 21.218330
_cell_angle_alpha 90.000000
_cell_angle_beta 90.000000
_cell_angle_gamma 90.000000
_cell_volume 4021.860962
_symmetry_space_group_name_H-M "I M M A"
_symmetry_group_IT_number 74
_symmetry_cell_setting 'orthorhombic'
loop_
_space_group_symop_operation_xyz
x,y,z
-x,1/2-y,z
x,-y,-z
-x,1/2+y,-z
-x,-y,-z
x,1/2+y,-z
-x,y,z
x,1/2-y,z
1/2+x,1/2+y,1/2+z
1/2-x,-y,1/2+z
1/2+x,1/2-y,1/2-z
1/2-x,y,1/2-z
1/2-x,1/2-y,1/2-z
1/2+x,y,1/2-z
1/2-x,1/2+y,1/2+z
1/2+x,-y,1/2+z
loop_
_atom_site_type_symbol
_atom_site_label
_atom_site_fract_x
_atom_site_fract_y
_atom_site_fract_z
Si Si1 0.586120 0.037081 0.169812
Si Si2 0.368926 0.117893 0.043125
Si Si3 0.732722 0.391201 0.821525
Si Si4 0.342875 0.750000 0.751559
Si Si5 0.798151 0.449729 0.069681
Si Si6 0.092352 0.750000 0.886743
O O1 0.500000 0.999640 0.194628
O O2 0.574335 0.100357 0.102166
O O3 0.627344 0.129553 0.216097
O O4 0.641977 0.920134 0.163605
O O5 0.387715 0.250000 0.010806
O O6 0.281092 0.127742 0.069675
O O7 0.380418 0.000000 0.000000
O O8 0.747301 0.250000 0.828752
O O9 0.750000 0.435060 0.750000
O O10 0.789720 0.452659 0.873422
O O11 0.250000 0.750000 0.750000
O O12 0.379754 0.750000 0.683870
O O13 0.874089 0.369530 0.080704
O O14 0.810138 0.500000 0.000000
O O15 0.000000 0.750000 0.893374
#
# Coordination Sequence:
#
# PCOD8300344 Si02
#       6
#    16  16  16   8  16   8
#     4  11  22  36  58  87 121 156 194 254 319 364
#     4  10  20  36  58  85 119 163 216 252 299 366
#     4  10  22  40  63  90 120 161 210 254 302 374
#     4  12  22  38  64  88 118 155 210 261 308 373
#     4  10  22  38  64  88 120 163 210 255 304 370
#     4  12  24  38  62  96 123 157 200 261 330 373
#
# _framework density 19.891290000000001
#
# number of rings (size 3 to 8) (size 9 to 14) (size 15 to 20)
#    0.000    1.400    2.000    5.100    1.400    6.000 
#    0.000    0.000    0.000    1.200    0.000    0.000 
#    0.000    0.000    0.000    0.000    0.000    0.000 
#
# Total GULP energy -495718.858550 kJ/mol
# GULP energy per Si atom -12392.971464 kJ/mol
# Density = 1.984602 g / cm^3
# Si number density = 19.891290 Si / 1000 Ang^3
#
#
#
# Elastic Constant Matrix: (Units=GPa)
#
#
# Indices 1 2 3 4 5 6 
#
# 1 147.4886 38.9007 42.2400 0.0000 0.0000 0.0000
# 2 38.9007 120.6357 61.6623 0.0000 0.0000 0.0000
# 3 42.2400 61.6623 145.2136 0.0000 0.0000 0.0000
# 4 0.0000 0.0000 0.0000 24.2981 0.0000 0.0000
# 5 0.0000 0.0000 0.0000 0.0000 -10.9299 0.0000
# 6 0.0000 0.0000 0.0000 0.0000 0.0000 19.0535
#
#
#
# Elastic Compliance Matrix: (Units=1/GPa)
#
#
# Indices 1 2 3 4 5 6 
#
# 1 0.007660 -0.001700 -0.001506 0.000000 0.000000 0.000000
# 2 -0.001700 0.010965 -0.004161 0.000000 0.000000 0.000000
# 3 -0.001506 -0.004161 0.009092 0.000000 0.000000 0.000000
# 4 0.000000 0.000000 0.000000 0.041156 0.000000 0.000000
# 5 0.000000 0.000000 0.000000 0.000000 -0.091492 0.000000
# 6 0.000000 0.000000 0.000000 0.000000 0.000000 0.052484
#
#
# Mechanical properties :
#
#
# Convention : Reuss Voigt Hill
#
# Bulk Modulus (GPa) = 77.03731 77.66044 77.34887
# Shear Modulus (GPa) = 102.19429 24.51999 63.35714
#
# Velocity S-wave (km/s) = 7.17551 3.51479 5.64985
# Velocity P-wave (km/s) = 10.36648 7.45647 9.02947
#
# Compressibility (1/GPa) = 0.01298072
#
# Stress axis : x y z
#
# Youngs Moduli (GPa) = 130.54858 91.20128 109.99157
#
# Poissons Ratio (x) = 0.15506 0.16567
# Poissons Ratio (y) = 0.22196 0.45772
# Poissons Ratio (z) = 0.19663 0.37953
#
# Static dielectric constant tensor:
#      x y z
#    x 3.455340 0.000000 0.000000 
#    y 0.000000 3.571490 0.000000 
#    z 0.000000 0.000000 3.810080 
# 
# 
# High freq. dielectric constant tensor:
#      x y z
#    x 1.762910 0.000000 0.000000 
#    y 0.000000 1.777100 0.000000 
#    z 0.000000 0.000000 1.784630 
# 
# From -- ./inp_files/52793.got.cif
#   From: 2010.03.12/outbox.cif.g09.slc.cpg/sg74_27_cif.got.tgz:52793.got - 2010.04.16 15:46:19.
