data_PCOD8300882
_publ_section_title
;
Structure prediction by ZEFSAII (Michael W. Deem and Ramdas Pophale) SiO2 
 PCOD8300882
Probable space group: I M M A
;
_chemical_formula_sum "Si O2"
_cell_formula_units_Z 112
_cell_length_a 24.480421
_cell_length_b 14.226520
_cell_length_c 16.369488
_cell_angle_alpha 90.000000
_cell_angle_beta 90.000000
_cell_angle_gamma 90.000000
_cell_volume 5701.021212
_symmetry_space_group_name_H-M "I M M A"
_symmetry_group_IT_number 74
_symmetry_cell_setting 'orthorhombic'
loop_
_space_group_symop_operation_xyz
x,y,z
-x,1/2-y,z
x,-y,-z
-x,1/2+y,-z
-x,-y,-z
x,1/2+y,-z
-x,y,z
x,1/2-y,z
1/2+x,1/2+y,1/2+z
1/2-x,-y,1/2+z
1/2+x,1/2-y,1/2-z
1/2-x,y,1/2-z
1/2-x,1/2-y,1/2-z
1/2+x,y,1/2-z
1/2-x,1/2+y,1/2+z
1/2+x,-y,1/2+z
loop_
_atom_site_type_symbol
_atom_site_label
_atom_site_fract_x
_atom_site_fract_y
_atom_site_fract_z
Si Si1 0.614041 0.485915 0.306161
Si Si2 0.292345 0.005089 0.810883
Si Si3 0.060577 0.141483 0.324959
Si Si4 0.936960 0.357319 0.916004
Si Si5 0.154638 0.359546 0.048543
Si Si6 0.257985 0.356724 0.940504
Si Si7 0.837910 0.644211 0.575701
O O1 0.653642 0.534085 0.239211
O O2 0.574679 0.416055 0.256467
O O3 0.579382 0.570288 0.344950
O O4 0.648403 0.425581 0.372245
O O5 0.250000 0.958793 0.750000
O O6 0.262863 0.092875 0.854012
O O7 0.299543 0.923224 0.874649
O O8 0.065276 0.250000 0.299447
O O9 0.098944 0.119819 0.404194
O O10 0.000000 0.114924 0.354213
O O11 0.928512 0.250000 0.884593
O O12 0.000000 0.374439 0.941025
O O13 0.899734 0.375727 0.994999
O O14 0.160516 0.250000 0.074344
O O15 0.208104 0.393650 0.997434
O O16 0.244548 0.250000 0.919767
O O17 0.318260 0.369628 0.982328
O O18 0.824687 0.750000 0.603610
#
# Coordination Sequence:
#
# PCOD8300882 Si02
#       7
#    16  16  16  16  16  16  16
#     4  11  21  33  54  81 110 143 177 220 274 323
#     4  11  22  33  52  80 108 138 174 218 269 323
#     4   9  18  33  54  82 112 139 174 222 275 328
#     4  10  22  38  54  75 107 148 189 223 258 312
#     4  10  21  37  57  81 108 141 182 225 271 323
#     4  10  21  38  58  78 106 143 182 223 264 315
#     4   9  19  35  55  78 105 140 177 217 266 316
#
# _framework density 19.645603000000001
#
# number of rings (size 3 to 8) (size 9 to 14) (size 15 to 20)
#    0.000    2.000    0.000    3.429    0.000    4.571 
#    0.000    1.429    0.000    7.714    0.000    2.000 
#    0.000    0.000    0.000    0.000    0.000    0.000 
#
# Total GULP energy -694065.246767 kJ/mol
# GULP energy per Si atom -12394.022264 kJ/mol
# Density = 1.960089 g / cm^3
# Si number density = 19.645603 Si / 1000 Ang^3
#
#
#
# Elastic Constant Matrix: (Units=GPa)
#
#
# Indices 1 2 3 4 5 6 
#
# 1 107.1866 34.3477 31.3889 0.0000 0.0000 0.0000
# 2 34.3477 62.7034 29.0721 0.0000 0.0000 0.0000
# 3 31.3889 29.0721 49.2902 0.0000 0.0000 0.0000
# 4 0.0000 0.0000 0.0000 4.4206 0.0000 0.0000
# 5 0.0000 0.0000 0.0000 0.0000 30.1222 0.0000
# 6 0.0000 0.0000 0.0000 0.0000 0.0000 24.4801
#
#
#
# Elastic Compliance Matrix: (Units=1/GPa)
#
#
# Indices 1 2 3 4 5 6 
#
# 1 0.012241 -0.004255 -0.005286 0.000000 0.000000 0.000000
# 2 -0.004255 0.023430 -0.011110 0.000000 0.000000 0.000000
# 3 -0.005286 -0.011110 0.030207 0.000000 0.000000 0.000000
# 4 0.000000 0.000000 0.000000 0.226214 0.000000 0.000000
# 5 0.000000 0.000000 0.000000 0.000000 0.033198 0.000000
# 6 0.000000 0.000000 0.000000 0.000000 0.000000 0.040849
#
#
# Mechanical properties :
#
#
# Convention : Reuss Voigt Hill
#
# Bulk Modulus (GPa) = 40.68838 45.42195 43.05516
# Shear Modulus (GPa) = 12.02988 20.09602 16.06295
#
# Velocity S-wave (km/s) = 2.47724 3.20179 2.86254
# Velocity P-wave (km/s) = 5.37945 6.06955 5.73489
#
# Compressibility (1/GPa) = 0.02457704
#
# Stress axis : x y z
#
# Youngs Moduli (GPa) = 81.69412 42.68095 33.10514
#
# Poissons Ratio (x) = 0.18159 0.17499
# Poissons Ratio (y) = 0.34757 0.36779
# Poissons Ratio (z) = 0.43182 0.47418
#
# Static dielectric constant tensor:
#      x y z
#    x 3.795140 0.000000 0.000000 
#    y 0.000000 3.654980 0.000000 
#    z 0.000000 0.000000 3.490400 
# 
# 
# High freq. dielectric constant tensor:
#      x y z
#    x 1.772470 0.000000 0.000000 
#    y 0.000000 1.771060 0.000000 
#    z 0.000000 0.000000 1.748010 
# 
# From -- ./inp_files/32744.got.cif
#   From: 2010.03.12/outbox.cif.g09.slc.cpg/sg74_17_cif.got.tgz:32744.got - 2010.04.16 15:46:19.
