data_PCOD8300951
_publ_section_title
;
Structure prediction by ZEFSAII (Michael W. Deem and Ramdas Pophale) SiO2 
 PCOD8300951
Probable space group: I M M A
;
_chemical_formula_sum "Si O2"
_cell_formula_units_Z 72
_cell_length_a 15.319260
_cell_length_b 8.958331
_cell_length_c 26.572884
_cell_angle_alpha 90.000000
_cell_angle_beta 90.000000
_cell_angle_gamma 90.000000
_cell_volume 3646.729782
_symmetry_space_group_name_H-M "I M M A"
_symmetry_group_IT_number 74
_symmetry_cell_setting 'orthorhombic'
loop_
_space_group_symop_operation_xyz
x,y,z
-x,1/2-y,z
x,-y,-z
-x,1/2+y,-z
-x,-y,-z
x,1/2+y,-z
-x,y,z
x,1/2-y,z
1/2+x,1/2+y,1/2+z
1/2-x,-y,1/2+z
1/2+x,1/2-y,1/2-z
1/2-x,y,1/2-z
1/2-x,1/2-y,1/2-z
1/2+x,y,1/2-z
1/2-x,1/2+y,1/2+z
1/2+x,-y,1/2+z
loop_
_atom_site_type_symbol
_atom_site_label
_atom_site_fract_x
_atom_site_fract_y
_atom_site_fract_z
Si Si1 0.500000 0.572564 0.394633
Si Si2 0.153391 0.578275 0.388135
Si Si3 0.674810 0.923479 0.447792
Si Si4 0.155401 0.577313 0.270555
Si Si5 0.000000 0.925682 0.554091
Si Si6 0.500000 0.574049 0.713604
O O1 0.500000 0.750000 0.387559
O O2 0.415654 0.515429 0.425122
O O3 0.500000 0.500353 0.340439
O O4 0.128309 0.750000 0.399095
O O5 0.249807 0.541027 0.407804
O O6 0.151486 0.543346 0.329420
O O7 0.085532 0.472131 0.415596
O O8 0.666595 0.750000 0.458912
O O9 0.698288 0.000000 0.500000
O O10 0.134111 0.750000 0.258904
O O11 0.250000 0.533635 0.250000
O O12 0.085532 0.474347 0.243580
O O13 0.000000 0.750000 0.546633
O O14 0.000000 0.000000 0.500000
O O15 0.500000 0.750000 0.707289
#
# Coordination Sequence:
#
# PCOD8300951 Si02
#       6
#     8  16  16  16   8   8
#     4  10  21  40  62  84 115 157 201 236 275 341
#     4  10  21  38  60  87 116 149 191 236 284 340
#     4  10  21  37  60  88 117 150 190 236 285 340
#     4  10  21  40  65  88 115 156 201 240 283 345
#     4  12  25  40  59  83 113 151 193 238 289 343
#     4  12  25  38  57  89 124 154 191 244 301 348
#
# _framework density 19.743715999999999
#
# number of rings (size 3 to 8) (size 9 to 14) (size 15 to 20)
#    0.000    1.556    0.000    5.000    0.000   11.111 
#    0.000    2.222    0.000    0.000    0.000    0.000 
#    0.000    0.000    0.000    0.000    0.000    0.000 
#
# Total GULP energy -446615.450598 kJ/mol
# GULP energy per Si atom -12405.984739 kJ/mol
# Density = 1.969878 g / cm^3
# Si number density = 19.743716 Si / 1000 Ang^3
#
#
#
# Elastic Constant Matrix: (Units=GPa)
#
#
# Indices 1 2 3 4 5 6 
#
# 1 102.3376 35.9794 27.2337 0.0000 0.0000 0.0000
# 2 35.9794 69.0338 39.4120 0.0000 0.0000 0.0000
# 3 27.2337 39.4120 109.0549 0.0000 0.0000 0.0000
# 4 0.0000 0.0000 0.0000 31.4383 0.0000 0.0000
# 5 0.0000 0.0000 0.0000 0.0000 44.3299 0.0000
# 6 0.0000 0.0000 0.0000 0.0000 0.0000 77.9232
#
#
#
# Elastic Compliance Matrix: (Units=1/GPa)
#
#
# Indices 1 2 3 4 5 6 
#
# 1 0.012038 -0.005743 -0.000931 0.000000 0.000000 0.000000
# 2 -0.005743 0.020991 -0.006152 0.000000 0.000000 0.000000
# 3 -0.000931 -0.006152 0.011625 0.000000 0.000000 0.000000
# 4 0.000000 0.000000 0.000000 0.031808 0.000000 0.000000
# 5 0.000000 0.000000 0.000000 0.000000 0.022558 0.000000
# 6 0.000000 0.000000 0.000000 0.000000 0.000000 0.012833
#
#
# Mechanical properties :
#
#
# Convention : Reuss Voigt Hill
#
# Bulk Modulus (GPa) = 52.62171 53.96408 53.29290
# Shear Modulus (GPa) = 34.76091 42.59171 38.67631
#
# Velocity S-wave (km/s) = 4.20051 4.64964 4.43077
# Velocity P-wave (km/s) = 7.08773 7.49781 7.29565
#
# Compressibility (1/GPa) = 0.01900356
#
# Stress axis : x y z
#
# Youngs Moduli (GPa) = 83.06821 47.63978 86.01837
#
# Poissons Ratio (x) = 0.27358 0.08007
# Poissons Ratio (y) = 0.47704 0.52918
# Poissons Ratio (z) = 0.07732 0.29308
#
# Static dielectric constant tensor:
#      x y z
#    x 3.865170 0.000000 0.000000 
#    y 0.000000 3.471080 0.000000 
#    z 0.000000 0.000000 3.742430 
# 
# 
# High freq. dielectric constant tensor:
#      x y z
#    x 1.789350 0.000000 0.000000 
#    y 0.000000 1.755120 0.000000 
#    z 0.000000 0.000000 1.788370 
# 
# From -- ./inp_files/66777.got.cif
#   From: 2010.03.12/outbox.cif.g09.slc.cpg/sg74_34_cif.got.tgz:66777.got - 2010.04.16 15:46:19.
