data_PCOD8300206
_publ_section_title
;
Structure prediction by ZEFSAII (Michael W. Deem and Ramdas Pophale) SiO2 
 PCOD8300206
Probable space group: I M M A
;
_chemical_formula_sum "Si O2"
_cell_formula_units_Z 88
_cell_length_a 18.425516
_cell_length_b 8.788967
_cell_length_c 27.517297
_cell_angle_alpha 90.000000
_cell_angle_beta 90.000000
_cell_angle_gamma 90.000000
_cell_volume 4456.185530
_symmetry_space_group_name_H-M "I M M A"
_symmetry_group_IT_number 74
_symmetry_cell_setting 'orthorhombic'
loop_
_space_group_symop_operation_xyz
x,y,z
-x,1/2-y,z
x,-y,-z
-x,1/2+y,-z
-x,-y,-z
x,1/2+y,-z
-x,y,z
x,1/2-y,z
1/2+x,1/2+y,1/2+z
1/2-x,-y,1/2+z
1/2+x,1/2-y,1/2-z
1/2-x,y,1/2-z
1/2-x,1/2-y,1/2-z
1/2+x,y,1/2-z
1/2-x,1/2+y,1/2+z
1/2+x,-y,1/2+z
loop_
_atom_site_type_symbol
_atom_site_label
_atom_site_fract_x
_atom_site_fract_y
_atom_site_fract_z
Si Si1 0.915778 0.572164 0.767826
Si Si2 0.711816 0.572974 0.551169
Si Si3 0.133496 0.921298 0.591159
Si Si4 0.000000 0.422155 0.550446
Si Si5 0.322613 0.424241 0.814493
Si Si6 0.164276 0.575398 0.150825
O O1 0.898814 0.750000 0.761410
O O2 0.861555 0.472225 0.735066
O O3 0.899180 0.521024 0.823145
O O4 0.000000 0.537563 0.755480
O O5 0.686610 0.500000 0.500000
O O6 0.690101 0.750000 0.551994
O O7 0.798341 0.551705 0.555905
O O8 0.674403 0.489663 0.596560
O O9 0.104279 0.750000 0.586146
O O10 0.071380 0.039495 0.579773
O O11 0.152276 0.952795 0.646515
O O12 0.000000 0.500000 0.500000
O O13 0.000000 0.250000 0.537542
O O14 0.344683 0.250000 0.827103
O O15 0.235322 0.436801 0.814408
O O16 0.140230 0.750000 0.145436
#
# Coordination Sequence:
#
# PCOD8300206 Si02
#       6
#    16  16  16   8  16  16
#     4  11  24  39  57  83 116 153 191 234 284 341
#     4  10  20  35  58  85 112 144 183 230 281 335
#     4  10  21  36  54  77 108 145 187 234 281 333
#     4  12  24  36  50  70 102 146 190 236 287 336
#     4  10  21  37  58  84 113 148 190 235 283 335
#     4  10  21  38  60  86 115 148 189 236 283 338
#
# _framework density 19.747831000000001
#
# number of rings (size 3 to 8) (size 9 to 14) (size 15 to 20)
#    0.000    1.636    0.000    4.636    1.273    9.455 
#    0.000    0.000    0.000    0.545    0.000    0.000 
#    0.000    0.000    0.000    0.000    0.000    0.000 
#
# Total GULP energy -545544.476281 kJ/mol
# GULP energy per Si atom -12398.738097 kJ/mol
# Density = 1.970288 g / cm^3
# Si number density = 19.747831 Si / 1000 Ang^3
#
#
#
# Elastic Constant Matrix: (Units=GPa)
#
#
# Indices 1 2 3 4 5 6 
#
# 1 38.9795 26.2808 28.6631 0.0000 0.0000 0.0000
# 2 26.2808 112.6057 33.5404 0.0000 0.0000 0.0000
# 3 28.6631 33.5404 94.9610 0.0000 0.0000 0.0000
# 4 0.0000 0.0000 0.0000 37.6081 0.0000 0.0000
# 5 0.0000 0.0000 0.0000 0.0000 11.7643 0.0000
# 6 0.0000 0.0000 0.0000 0.0000 0.0000 25.6409
#
#
#
# Elastic Compliance Matrix: (Units=1/GPa)
#
#
# Indices 1 2 3 4 5 6 
#
# 1 0.036053 -0.005781 -0.008840 0.000000 0.000000 0.000000
# 2 -0.005781 0.010852 -0.002088 0.000000 0.000000 0.000000
# 3 -0.008840 -0.002088 0.013936 0.000000 0.000000 0.000000
# 4 0.000000 0.000000 0.000000 0.026590 0.000000 0.000000
# 5 0.000000 0.000000 0.000000 0.000000 0.085003 0.000000
# 6 0.000000 0.000000 0.000000 0.000000 0.000000 0.039000
#
#
# Mechanical properties :
#
#
# Convention : Reuss Voigt Hill
#
# Bulk Modulus (GPa) = 36.46656 47.05721 41.76189
# Shear Modulus (GPa) = 19.68552 25.54011 22.61281
#
# Velocity S-wave (km/s) = 3.16071 3.60017 3.38757
# Velocity P-wave (km/s) = 5.64148 6.41579 6.04106
#
# Compressibility (1/GPa) = 0.02742238
#
# Stress axis : x y z
#
# Youngs Moduli (GPa) = 27.73701 92.15167 71.75433
#
# Poissons Ratio (x) = 0.53274 0.63433
# Poissons Ratio (y) = 0.16035 0.14981
# Poissons Ratio (z) = 0.24520 0.19240
#
# Static dielectric constant tensor:
#      x y z
#    x 3.342510 0.000000 0.000000 
#    y 0.000000 3.668010 0.000000 
#    z 0.000000 0.000000 3.082040 
# 
# 
# High freq. dielectric constant tensor:
#      x y z
#    x 1.742830 0.000000 0.000000 
#    y 0.000000 1.787950 0.000000 
#    z 0.000000 0.000000 1.773930 
# 
# From -- ./inp_files/61456.got.cif
#   From: 2010.03.12/outbox.cif.g09.slc.cpg/sg74_31_cif.got.tgz:61456.got - 2010.04.16 15:46:19.
