data_PCOD8300290
_publ_section_title
;
Structure prediction by ZEFSAII (Michael W. Deem and Ramdas Pophale) SiO2 
 PCOD8300290
Probable space group: I M M A
;
_chemical_formula_sum "Si O2"
_cell_formula_units_Z 72
_cell_length_a 23.624785
_cell_length_b 10.539351
_cell_length_c 14.452502
_cell_angle_alpha 90.000000
_cell_angle_beta 90.000000
_cell_angle_gamma 90.000000
_cell_volume 3598.527048
_symmetry_space_group_name_H-M "I M M A"
_symmetry_group_IT_number 74
_symmetry_cell_setting 'orthorhombic'
loop_
_space_group_symop_operation_xyz
x,y,z
-x,1/2-y,z
x,-y,-z
-x,1/2+y,-z
-x,-y,-z
x,1/2+y,-z
-x,y,z
x,1/2-y,z
1/2+x,1/2+y,1/2+z
1/2-x,-y,1/2+z
1/2+x,1/2-y,1/2-z
1/2-x,y,1/2-z
1/2-x,1/2-y,1/2-z
1/2+x,y,1/2-z
1/2-x,1/2+y,1/2+z
1/2+x,-y,1/2+z
loop_
_atom_site_type_symbol
_atom_site_label
_atom_site_fract_x
_atom_site_fract_y
_atom_site_fract_z
Si Si1 0.435751 0.892202 0.249423
Si Si2 0.654317 0.500000 0.500000
Si Si3 0.259911 0.395327 0.646576
Si Si4 0.862752 0.607909 0.430203
Si Si5 0.563909 0.612070 0.609362
O O1 0.500000 0.911015 0.215605
O O2 0.426956 0.750000 0.290272
O O3 0.394997 0.914880 0.164301
O O4 0.419073 0.997539 0.323546
O O5 0.691641 0.531878 0.409896
O O6 0.610682 0.613130 0.527521
O O7 0.279333 0.250000 0.657930
O O8 0.250000 0.453236 0.750000
O O9 0.203578 0.407692 0.586677
O O10 0.884135 0.500000 0.500000
O O11 0.875471 0.750000 0.469135
O O12 0.500000 0.591898 0.570396
O O13 0.567295 0.750000 0.659162
#
# Coordination Sequence:
#
# PCOD8300290 Si02
#       5
#    16   8  16  16  16
#     4   9  19  37  61  86 114 153 198 240 288 350
#     4  12  21  36  60  84 115 154 198 236 292 354
#     4  10  21  37  57  81 112 154 199 242 288 344
#     4  10  20  36  56  82 116 152 195 245 294 344
#     4  10  22  38  57  86 120 150 187 239 296 352
#
# _framework density 20.008185999999998
#
# number of rings (size 3 to 8) (size 9 to 14) (size 15 to 20)
#    0.000    2.000    1.111    2.333    0.000    4.889 
#    0.000    2.222    0.000    3.333    0.000    0.000 
#    0.000    0.000    0.000    0.000    0.000    0.000 
#
# Total GULP energy -446139.736084 kJ/mol
# GULP energy per Si atom -12392.770447 kJ/mol
# Density = 1.996265 g / cm^3
# Si number density = 20.008186 Si / 1000 Ang^3
#
#
#
# Elastic Constant Matrix: (Units=GPa)
#
#
# Indices 1 2 3 4 5 6 
#
# 1 112.5808 42.7417 47.6297 0.0000 0.0000 0.0000
# 2 42.7417 135.5400 68.4253 0.0000 0.0000 0.0000
# 3 47.6297 68.4253 96.9785 0.0000 0.0000 0.0000
# 4 0.0000 0.0000 0.0000 34.7727 0.0000 0.0000
# 5 0.0000 0.0000 0.0000 0.0000 15.9979 0.0000
# 6 0.0000 0.0000 0.0000 0.0000 0.0000 -31.2884
#
#
#
# Elastic Compliance Matrix: (Units=1/GPa)
#
#
# Indices 1 2 3 4 5 6 
#
# 1 0.011334 -0.001187 -0.004729 0.000000 0.000000 0.000000
# 2 -0.001187 0.011584 -0.007591 0.000000 0.000000 0.000000
# 3 -0.004729 -0.007591 0.017990 0.000000 0.000000 0.000000
# 4 0.000000 0.000000 0.000000 0.028758 0.000000 0.000000
# 5 0.000000 0.000000 0.000000 0.000000 0.062508 0.000000
# 6 0.000000 0.000000 0.000000 0.000000 0.000000 -0.031961
#
#
# Mechanical properties :
#
#
# Convention : Reuss Voigt Hill
#
# Bulk Modulus (GPa) = 71.96826 73.63250 72.80038
# Shear Modulus (GPa) = 37.91952 16.31660 27.11806
#
# Velocity S-wave (km/s) = 4.35811 2.85879 3.68550
# Velocity P-wave (km/s) = 7.83401 6.91216 7.38748
#
# Compressibility (1/GPa) = 0.01389501
#
# Stress axis : x y z
#
# Youngs Moduli (GPa) = 88.23167 86.32532 55.58642
#
# Poissons Ratio (x) = 0.10243 0.26288
# Poissons Ratio (y) = 0.10469 0.42194
# Poissons Ratio (z) = 0.41727 0.65526
#
# Static dielectric constant tensor:
#      x y z
#    x 3.879510 0.000000 0.000000 
#    y 0.000000 3.713400 0.000000 
#    z 0.000000 0.000000 3.454410 
# 
# 
# High freq. dielectric constant tensor:
#      x y z
#    x 1.802250 0.000000 0.000000 
#    y 0.000000 1.775300 0.000000 
#    z 0.000000 0.000000 1.760180 
# 
# From -- ./inp_files/26004.got.cif
#   From: 2010.03.12/outbox.cif.g09.slc.cpg/sg74_14_cif.got.tgz:26004.got - 2010.04.16 15:46:19.
