data_PCOD8300873
_publ_section_title
;
Structure prediction by ZEFSAII (Michael W. Deem and Ramdas Pophale) SiO2 
 PCOD8300873
Probable space group: I M M A
;
_chemical_formula_sum "Si O2"
_cell_formula_units_Z 96
_cell_length_a 19.561241
_cell_length_b 14.677474
_cell_length_c 17.249023
_cell_angle_alpha 90.000000
_cell_angle_beta 90.000000
_cell_angle_gamma 90.000000
_cell_volume 4952.360201
_symmetry_space_group_name_H-M "I M M A"
_symmetry_group_IT_number 74
_symmetry_cell_setting 'orthorhombic'
loop_
_space_group_symop_operation_xyz
x,y,z
-x,1/2-y,z
x,-y,-z
-x,1/2+y,-z
-x,-y,-z
x,1/2+y,-z
-x,y,z
x,1/2-y,z
1/2+x,1/2+y,1/2+z
1/2-x,-y,1/2+z
1/2+x,1/2-y,1/2-z
1/2-x,y,1/2-z
1/2-x,1/2-y,1/2-z
1/2+x,y,1/2-z
1/2-x,1/2+y,1/2+z
1/2+x,-y,1/2+z
loop_
_atom_site_type_symbol
_atom_site_label
_atom_site_fract_x
_atom_site_fract_y
_atom_site_fract_z
Si Si1 0.792297 0.897917 0.027086
Si Si2 0.923314 0.646753 0.113830
Si Si3 0.259467 0.349415 0.361772
Si Si4 0.076089 0.040970 0.730603
Si Si5 0.296810 0.356284 0.822745
Si Si6 0.862214 0.357698 0.262408
O O1 0.870730 0.873308 0.044550
O O2 0.744635 0.878215 0.099740
O O3 0.766657 0.840932 0.953707
O O4 0.785208 0.000000 0.000000
O O5 0.912076 0.750000 0.144235
O O6 0.908804 0.578100 0.183434
O O7 0.000000 0.634306 0.080546
O O8 0.255949 0.250000 0.324275
O O9 0.187354 0.390341 0.333413
O O10 0.325767 0.390171 0.318297
O O11 0.132909 0.086249 0.674947
O O12 0.000000 0.071177 0.703720
O O13 0.076030 0.929885 0.730157
O O14 0.315215 0.250000 0.818900
O O15 0.250000 0.385356 0.750000
O O16 0.885847 0.250000 0.264902
#
# Coordination Sequence:
#
# PCOD8300873 Si02
#       6
#    16  16  16  16  16  16
#     4  12  22  34  57  89 118 151 194 243 298 352
#     4  10  21  37  56  82 121 161 196 239 292 355
#     4   9  18  33  55  81 111 148 193 245 292 340
#     4  11  22  36  58  86 117 158 201 245 301 356
#     4  11  23  39  62  90 119 153 200 251 293 350
#     4   9  19  36  57  84 118 158 203 249 299 353
#
# _framework density 19.384696000000002
#
# number of rings (size 3 to 8) (size 9 to 14) (size 15 to 20)
#    0.000    1.667    1.667    5.000    2.333    1.667 
#    0.000    0.833    0.000    5.500    0.000    4.667 
#    0.000    0.000    0.000    0.000    0.000    0.000 
#
# Total GULP energy -594739.104447 kJ/mol
# GULP energy per Si atom -12390.398009 kJ/mol
# Density = 1.934058 g / cm^3
# Si number density = 19.384696 Si / 1000 Ang^3
#
#
#
# Elastic Constant Matrix: (Units=GPa)
#
#
# Indices 1 2 3 4 5 6 
#
# 1 105.4343 34.0027 50.6216 0.0000 0.0000 0.0000
# 2 34.0027 97.6136 10.1426 0.0000 0.0000 0.0000
# 3 50.6216 10.1426 124.2131 0.0000 0.0000 0.0000
# 4 0.0000 0.0000 0.0000 -24.9286 0.0000 0.0000
# 5 0.0000 0.0000 0.0000 0.0000 12.0085 0.0000
# 6 0.0000 0.0000 0.0000 0.0000 0.0000 29.5245
#
#
#
# Elastic Compliance Matrix: (Units=1/GPa)
#
#
# Indices 1 2 3 4 5 6 
#
# 1 0.013230 -0.004083 -0.005058 0.000000 0.000000 0.000000
# 2 -0.004083 0.011592 0.000717 0.000000 0.000000 0.000000
# 3 -0.005058 0.000717 0.010054 0.000000 0.000000 0.000000
# 4 0.000000 0.000000 0.000000 -0.040115 0.000000 0.000000
# 5 0.000000 0.000000 0.000000 0.000000 0.083274 0.000000
# 6 0.000000 0.000000 0.000000 0.000000 0.000000 0.033870
#
#
# Mechanical properties :
#
#
# Convention : Reuss Voigt Hill
#
# Bulk Modulus (GPa) = 55.46933 57.42163 56.44548
# Shear Modulus (GPa) = 37.10228 18.82050 27.96139
#
# Velocity S-wave (km/s) = 4.37967 3.11930 3.80208
# Velocity P-wave (km/s) = 7.36563 6.53145 6.96105
#
# Compressibility (1/GPa) = 0.01802798
#
# Stress axis : x y z
#
# Youngs Moduli (GPa) = 75.58607 86.26505 99.46722
#
# Poissons Ratio (x) = 0.35221 0.50314
# Poissons Ratio (y) = 0.30861 -0.07136
# Poissons Ratio (z) = 0.38234 -0.06189
#
# Static dielectric constant tensor:
#      x y z
#    x 3.533750 0.000000 0.000000 
#    y 0.000000 3.687280 0.000000 
#    z 0.000000 0.000000 2.650590 
# 
# 
# High freq. dielectric constant tensor:
#      x y z
#    x 1.742540 0.000000 0.000000 
#    y 0.000000 1.774750 0.000000 
#    z 0.000000 0.000000 1.732650 
# 
# From -- ./inp_files/35305.got.cif
#   From: 2010.03.12/outbox.cif.g09.slc.cpg/sg74_18_cif.got.tgz:35305.got - 2010.04.16 15:46:19.
