data_PCOD8300053
_publ_section_title
;
Structure prediction by ZEFSAII (Michael W. Deem and Ramdas Pophale) SiO2 
 PCOD8300053
Probable space group: I M M A
;
_chemical_formula_sum "Si O2"
_cell_formula_units_Z 120
_cell_length_a 26.875817
_cell_length_b 8.823371
_cell_length_c 27.850859
_cell_angle_alpha 90.000000
_cell_angle_beta 90.000000
_cell_angle_gamma 90.000000
_cell_volume 6604.421925
_symmetry_space_group_name_H-M "I M M A"
_symmetry_group_IT_number 74
_symmetry_cell_setting 'orthorhombic'
loop_
_space_group_symop_operation_xyz
x,y,z
-x,1/2-y,z
x,-y,-z
-x,1/2+y,-z
-x,-y,-z
x,1/2+y,-z
-x,y,z
x,1/2-y,z
1/2+x,1/2+y,1/2+z
1/2-x,-y,1/2+z
1/2+x,1/2-y,1/2-z
1/2-x,y,1/2-z
1/2-x,1/2-y,1/2-z
1/2+x,y,1/2-z
1/2-x,1/2+y,1/2+z
1/2+x,-y,1/2+z
loop_
_atom_site_type_symbol
_atom_site_label
_atom_site_fract_x
_atom_site_fract_y
_atom_site_fract_z
Si Si1 0.846476 0.929862 0.356322
Si Si2 0.500000 0.428576 0.447988
Si Si3 0.693381 0.924546 0.763569
Si Si4 0.445736 0.928899 0.189761
Si Si5 0.095119 0.429416 0.112547
Si Si6 0.177946 0.429159 0.949962
Si Si7 0.394364 0.071069 0.712786
Si Si8 0.291714 0.427794 0.950880
O O1 0.840407 0.750000 0.349641
O O2 0.904188 0.980652 0.349045
O O3 0.827544 0.984537 0.408221
O O4 0.812737 0.010540 0.316872
O O5 0.500000 0.250000 0.453692
O O6 0.500000 0.500000 0.500000
O O7 0.451214 0.483493 0.419597
O O8 0.676620 0.750000 0.762091
O O9 0.750000 0.946008 0.750000
O O10 0.661494 0.018469 0.724910
O O11 0.500000 0.000653 0.177572
O O12 0.449829 0.750000 0.188524
O O13 0.429512 0.979076 0.243072
O O14 0.101315 0.250000 0.112352
O O15 0.145536 0.504584 0.093162
O O16 0.085036 0.486759 0.166148
O O17 0.171190 0.250000 0.952535
O O18 0.234987 0.477321 0.940083
O O19 0.159162 0.500000 0.000000
O O20 0.394744 0.250000 0.703972
O O21 0.295062 0.250000 0.957057
O O22 0.311516 0.500000 0.000000
#
# Coordination Sequence:
#
# PCOD8300053 Si02
#       8
#    16   8  16  16  16  16  16  16
#     4   9  18  33  53  78 106 139 178 218 262 314
#     4  10  24  42  58  76 102 138 178 228 283 330
#     4  10  21  35  51  76 108 142 176 213 261 318
#     4   8  15  30  53  78 103 131 171 219 261 306
#     4  11  23  38  55  77 105 136 175 223 274 326
#     4  10  20  35  53  76 102 134 175 218 267 318
#     4  10  21  35  53  78 105 138 177 219 265 313
#     4   9  19  34  53  79 108 140 176 215 259 312
#
# _framework density 18.169644999999999
#
# number of rings (size 3 to 8) (size 9 to 14) (size 15 to 20)
#    0.000    2.400    0.000    2.800    2.800    4.267 
#    0.000    0.000    0.000    4.000    0.000    0.000 
#    0.000    0.000    0.000    0.000    0.000    0.000 
#
# Total GULP energy -744028.647895 kJ/mol
# GULP energy per Si atom -12400.477465 kJ/mol
# Density = 1.812829 g / cm^3
# Si number density = 18.169645 Si / 1000 Ang^3
#
#
#
# Elastic Constant Matrix: (Units=GPa)
#
#
# Indices 1 2 3 4 5 6 
#
# 1 120.0859 34.7380 77.3730 0.0000 0.0000 0.0000
# 2 34.7380 46.0602 31.1838 0.0000 0.0000 0.0000
# 3 77.3730 31.1838 136.7438 0.0000 0.0000 0.0000
# 4 0.0000 0.0000 0.0000 31.7023 0.0000 0.0000
# 5 0.0000 0.0000 0.0000 0.0000 24.1244 0.0000
# 6 0.0000 0.0000 0.0000 0.0000 0.0000 18.1212
#
#
#
# Elastic Compliance Matrix: (Units=1/GPa)
#
#
# Indices 1 2 3 4 5 6 
#
# 1 0.014534 -0.006378 -0.006769 0.000000 0.000000 0.000000
# 2 -0.006378 0.028474 -0.002884 0.000000 0.000000 0.000000
# 3 -0.006769 -0.002884 0.011801 0.000000 0.000000 0.000000
# 4 0.000000 0.000000 0.000000 0.031543 0.000000 0.000000
# 5 0.000000 0.000000 0.000000 0.000000 0.041452 0.000000
# 6 0.000000 0.000000 0.000000 0.000000 0.000000 0.055184
#
#
# Mechanical properties :
#
#
# Convention : Reuss Voigt Hill
#
# Bulk Modulus (GPa) = 43.96555 65.49774 54.73165
# Shear Modulus (GPa) = 22.45846 25.42925 23.94385
#
# Velocity S-wave (km/s) = 3.51955 3.74511 3.63408
# Velocity P-wave (km/s) = 6.38484 7.40454 6.91352
#
# Compressibility (1/GPa) = 0.02274508
#
# Stress axis : x y z
#
# Youngs Moduli (GPa) = 68.80453 35.11975 84.73999
#
# Poissons Ratio (x) = 0.22401 0.57361
# Poissons Ratio (y) = 0.43887 0.24441
# Poissons Ratio (z) = 0.46574 0.10130
#
# Static dielectric constant tensor:
#      x y z
#    x 3.615210 0.000000 0.000000 
#    y 0.000000 3.277260 0.000000 
#    z 0.000000 0.000000 -0.224900 
# 
# 
# High freq. dielectric constant tensor:
#      x y z
#    x 1.703890 0.000000 0.000000 
#    y 0.000000 1.697320 0.000000 
#    z 0.000000 0.000000 1.699890 
# 
# From -- ./inp_files/65128.got.cif
#   From: 2010.03.12/outbox.cif.g09.slc.cpg/sg74_33_cif.got.tgz:65128.got - 2010.04.16 15:46:19.
