data_PCOD8300369
_publ_section_title
;
Structure prediction by ZEFSAII (Michael W. Deem and Ramdas Pophale) SiO2 
 PCOD8300369
Probable space group: I M M A
;
_chemical_formula_sum "Si O2"
_cell_formula_units_Z 104
_cell_length_a 13.553743
_cell_length_b 26.209752
_cell_length_c 15.339345
_cell_angle_alpha 90.000000
_cell_angle_beta 90.000000
_cell_angle_gamma 90.000000
_cell_volume 5449.152641
_symmetry_space_group_name_H-M "I M M A"
_symmetry_group_IT_number 74
_symmetry_cell_setting 'orthorhombic'
loop_
_space_group_symop_operation_xyz
x,y,z
-x,1/2-y,z
x,-y,-z
-x,1/2+y,-z
-x,-y,-z
x,1/2+y,-z
-x,y,z
x,1/2-y,z
1/2+x,1/2+y,1/2+z
1/2-x,-y,1/2+z
1/2+x,1/2-y,1/2-z
1/2-x,y,1/2-z
1/2-x,1/2-y,1/2-z
1/2+x,y,1/2-z
1/2-x,1/2+y,1/2+z
1/2+x,-y,1/2+z
loop_
_atom_site_type_symbol
_atom_site_label
_atom_site_fract_x
_atom_site_fract_y
_atom_site_fract_z
Si Si1 0.776835 0.000000 0.500000
Si Si2 0.392572 0.067763 0.701223
Si Si3 0.613211 0.307129 0.956180
Si Si4 0.190039 0.692718 0.644102
Si Si5 0.305409 0.408707 0.885357
Si Si6 0.828303 0.539212 0.827746
Si Si7 0.889449 0.350296 0.183796
O O1 0.837970 0.047560 0.543939
O O2 0.716504 0.026416 0.422372
O O3 0.500000 0.090204 0.675854
O O4 0.367584 0.084077 0.798693
O O5 0.311640 0.087052 0.632418
O O6 0.399383 0.006647 0.699886
O O7 0.500000 0.316348 0.930803
O O8 0.646727 0.250000 0.925891
O O9 0.679535 0.350677 0.914206
O O10 0.624314 0.312043 0.059188
O O11 0.188300 0.750000 0.680824
O O12 0.139808 0.656381 0.715053
O O13 0.304663 0.677047 0.625735
O O14 0.750000 0.546161 0.750000
O O15 0.892033 0.589969 0.837875
O O16 0.000000 0.328409 0.165282
#
# Coordination Sequence:
#
# PCOD8300369 Si02
#       7
#     8  16  16  16  16  16  16
#     4  10  20  36  60  82 116 154 188 236 292 348
#     4  10  20  37  57  81 116 152 187 233 294 353
#     4  10  21  38  59  83 112 148 190 238 296 354
#     4  10  21  36  53  76 112 148 187 244 297 343
#     4  10  20  36  59  85 113 151 189 241 291 344
#     4  11  19  37  55  80 117 154 191 235 288 345
#     4  11  21  33  54  79 108 150 196 236 278 341
#
# _framework density 19.085536999999999
#
# number of rings (size 3 to 8) (size 9 to 14) (size 15 to 20)
#    0.000    1.692    4.615    3.231    0.000    1.846 
#    0.000   16.538    0.000    2.308    0.000    0.000 
#    0.000    0.000    0.000    0.000    0.000    0.000 
#
# Total GULP energy -644350.405161 kJ/mol
# GULP energy per Si atom -12391.353945 kJ/mol
# Density = 1.904210 g / cm^3
# Si number density = 19.085537 Si / 1000 Ang^3
#
#
#
# Elastic Constant Matrix: (Units=GPa)
#
#
# Indices 1 2 3 4 5 6 
#
# 1 97.8000 28.9366 3.9642 0.0000 0.0000 0.0000
# 2 28.9366 144.0978 35.5682 -0.0002 0.0001 0.0001
# 3 3.9642 35.5682 67.3204 0.0001 0.0000 0.0000
# 4 0.0000 -0.0002 0.0001 29.9373 0.0001 0.0001
# 5 0.0000 0.0001 0.0000 0.0001 10.0944 -0.0001
# 6 0.0000 0.0001 0.0000 0.0001 -0.0001 13.7191
#
#
#
# Elastic Compliance Matrix: (Units=1/GPa)
#
#
# Indices 1 2 3 4 5 6 
#
# 1 0.010891 -0.002333 0.000591 0.000000 0.000000 0.000000
# 2 -0.002333 0.008480 -0.004343 0.000000 0.000000 0.000000
# 3 0.000591 -0.004343 0.017114 0.000000 0.000000 0.000000
# 4 0.000000 0.000000 0.000000 0.033403 0.000000 0.000000
# 5 0.000000 0.000000 0.000000 0.000000 0.099065 0.000000
# 6 0.000000 0.000000 0.000000 0.000000 0.000000 0.072891
#
#
# Mechanical properties :
#
#
# Convention : Reuss Voigt Hill
#
# Bulk Modulus (GPa) = 41.12517 49.57292 45.34904
# Shear Modulus (GPa) = 19.07526 26.80011 22.93768
#
# Velocity S-wave (km/s) = 3.16486 3.75134 3.47051
# Velocity P-wave (km/s) = 5.91183 6.69283 6.31441
#
# Compressibility (1/GPa) = 0.02431601
#
# Stress axis : x y z
#
# Youngs Moduli (GPa) = 91.81664 117.92087 58.43112
#
# Poissons Ratio (x) = 0.27512 -0.03455
# Poissons Ratio (y) = 0.21421 0.25377
# Poissons Ratio (z) = -0.05429 0.51214
#
# Static dielectric constant tensor:
#      x y z
#    x 3.416610 0.000000 0.000000 
#    y 0.000000 3.760130 0.000000 
#    z 0.000000 0.000000 3.444450 
# 
# 
# High freq. dielectric constant tensor:
#      x y z
#    x 1.728850 0.000000 0.000000 
#    y 0.000000 1.749760 0.000000 
#    z 0.000000 0.000000 1.728830 
# 
# From -- ./inp_files/32741.got.cif
#   From: 2010.03.12/outbox.cif.g09.slc.cpg/sg74_17_cif.got.tgz:32741.got - 2010.04.16 15:46:19.
