data_PCOD8300607
_publ_section_title
;
Structure prediction by ZEFSAII (Michael W. Deem and Ramdas Pophale) SiO2 
 PCOD8300607
Probable space group: I M M A
;
_chemical_formula_sum "Si O2"
_cell_formula_units_Z 96
_cell_length_a 13.413904
_cell_length_b 25.992224
_cell_length_c 13.697417
_cell_angle_alpha 90.000000
_cell_angle_beta 90.000000
_cell_angle_gamma 90.000000
_cell_volume 4775.703024
_symmetry_space_group_name_H-M "I M M A"
_symmetry_group_IT_number 74
_symmetry_cell_setting 'orthorhombic'
loop_
_space_group_symop_operation_xyz
x,y,z
-x,1/2-y,z
x,-y,-z
-x,1/2+y,-z
-x,-y,-z
x,1/2+y,-z
-x,y,z
x,1/2-y,z
1/2+x,1/2+y,1/2+z
1/2-x,-y,1/2+z
1/2+x,1/2-y,1/2-z
1/2-x,y,1/2-z
1/2-x,1/2-y,1/2-z
1/2+x,y,1/2-z
1/2-x,1/2+y,1/2+z
1/2+x,-y,1/2+z
loop_
_atom_site_type_symbol
_atom_site_label
_atom_site_fract_x
_atom_site_fract_y
_atom_site_fract_z
Si Si1 0.119736 0.250000 0.937222
Si Si2 0.704910 0.640263 0.393841
Si Si3 0.617288 0.250000 0.343772
Si Si4 0.884315 0.352338 0.260127
Si Si5 0.390290 0.009253 0.112974
Si Si6 0.758074 0.600819 0.893124
Si Si7 0.613453 0.400032 0.793437
O O1 0.163761 0.198412 0.888833
O O2 0.000000 0.250000 0.927660
O O3 0.160646 0.250000 0.047516
O O4 0.699619 0.613623 0.500055
O O5 0.637916 0.605202 0.321582
O O6 0.818762 0.639637 0.355589
O O7 0.500000 0.250000 0.354518
O O8 0.653253 0.299378 0.285707
O O9 0.850427 0.396900 0.183434
O O10 0.826585 0.357529 0.362712
O O11 0.000000 0.355109 0.280893
O O12 0.500000 0.030412 0.150273
O O13 0.363118 0.957807 0.171981
O O14 0.295804 0.046423 0.122537
O O15 0.404205 0.000000 0.000000
O O16 0.500000 0.384848 0.814702
#
# Coordination Sequence:
#
# PCOD8300607 Si02
#       7
#     8  16   8  16  16  16  16
#     4  11  22  40  67  94 133 181 219 263 329 394
#     4  11  23  39  64  98 126 169 226 263 317 388
#     4   9  18  36  59  85 122 166 208 254 320 392
#     4  10  22  37  58  89 124 163 208 261 323 386
#     4  10  20  39  66  91 122 167 208 254 328 393
#     4  11  22  37  62  93 125 163 211 270 314 391
#     4  10  23  42  65  93 131 169 213 270 321 381
#
# _framework density 20.101752000000001
#
# number of rings (size 3 to 8) (size 9 to 14) (size 15 to 20)
#    0.000    1.667    3.333    1.000    0.000    7.333 
#    0.000    1.250    0.000    1.500    0.000    0.000 
#    0.000    0.000    0.000    0.000    0.000    0.000 
#
# Total GULP energy -594821.629120 kJ/mol
# GULP energy per Si atom -12392.117273 kJ/mol
# Density = 2.005600 g / cm^3
# Si number density = 20.101752 Si / 1000 Ang^3
#
#
#
# Elastic Constant Matrix: (Units=GPa)
#
#
# Indices 1 2 3 4 5 6 
#
# 1 92.6311 40.4797 9.7771 0.0001 0.0001 -0.0001
# 2 40.4797 129.8572 44.6495 0.0001 0.0002 0.0000
# 3 9.7771 44.6495 101.9816 0.0007 0.0010 0.0000
# 4 0.0001 0.0001 0.0007 13.2940 0.0002 0.0003
# 5 0.0001 0.0002 0.0010 0.0002 47.2899 -0.0001
# 6 -0.0001 0.0000 0.0000 0.0003 -0.0001 29.5318
#
#
#
# Elastic Compliance Matrix: (Units=1/GPa)
#
#
# Indices 1 2 3 4 5 6 
#
# 1 0.012529 -0.004112 0.000599 0.000000 0.000000 0.000000
# 2 -0.004112 0.010415 -0.004166 0.000000 0.000000 0.000000
# 3 0.000599 -0.004166 0.011572 -0.000001 0.000000 0.000000
# 4 0.000000 0.000000 -0.000001 0.075222 0.000000 -0.000001
# 5 0.000000 0.000000 0.000000 0.000000 0.021146 0.000000
# 6 0.000000 0.000000 0.000000 -0.000001 0.000000 0.033862
#
#
# Mechanical properties :
#
#
# Convention : Reuss Voigt Hill
#
# Bulk Modulus (GPa) = 52.19366 57.14250 54.66808
# Shear Modulus (GPa) = 26.81127 33.32738 30.06933
#
# Velocity S-wave (km/s) = 3.65605 4.07619 3.87183
# Velocity P-wave (km/s) = 6.62144 7.11633 6.87334
#
# Compressibility (1/GPa) = 0.01915942
#
# Stress axis : x y z
#
# Youngs Moduli (GPa) = 79.81458 96.01794 86.41511
#
# Poissons Ratio (x) = 0.39478 -0.05176
# Poissons Ratio (y) = 0.32816 0.35997
# Poissons Ratio (z) = -0.04780 0.39997
#
# Static dielectric constant tensor:
#      x y z
#    x 3.827650 0.000000 0.000000 
#    y 0.000000 2.833850 0.000000 
#    z 0.000000 0.000000 3.780690 
# 
# 
# High freq. dielectric constant tensor:
#      x y z
#    x 1.793870 0.000000 0.000000 
#    y 0.000000 1.774790 0.000000 
#    z 0.000000 0.000000 1.787740 
# 
# From -- ./inp_files/32649.got.cif
#   From: 2010.03.12/outbox.cif.g09.slc.cpg/sg74_17_cif.got.tgz:32649.got - 2010.04.16 15:46:19.
