data_PCOD8300152
_publ_section_title
;
Structure prediction by ZEFSAII (Michael W. Deem and Ramdas Pophale) SiO2 
 PCOD8300152
Probable space group: I M M A
;
_chemical_formula_sum "Si O2"
_cell_formula_units_Z 120
_cell_length_a 8.858041
_cell_length_b 28.037450
_cell_length_c 24.408761
_cell_angle_alpha 90.000000
_cell_angle_beta 90.000000
_cell_angle_gamma 90.000000
_cell_volume 6062.083767
_symmetry_space_group_name_H-M "I M M A"
_symmetry_group_IT_number 74
_symmetry_cell_setting 'orthorhombic'
loop_
_space_group_symop_operation_xyz
x,y,z
-x,1/2-y,z
x,-y,-z
-x,1/2+y,-z
-x,-y,-z
x,1/2+y,-z
-x,y,z
x,1/2-y,z
1/2+x,1/2+y,1/2+z
1/2-x,-y,1/2+z
1/2+x,1/2-y,1/2-z
1/2-x,y,1/2-z
1/2-x,1/2-y,1/2-z
1/2+x,y,1/2-z
1/2-x,1/2+y,1/2+z
1/2+x,-y,1/2+z
loop_
_atom_site_type_symbol
_atom_site_label
_atom_site_fract_x
_atom_site_fract_y
_atom_site_fract_z
Si Si1 0.178241 0.250000 0.309582
Si Si2 0.167856 0.437851 0.137067
Si Si3 0.179723 0.622744 0.191350
Si Si4 0.167473 0.448254 0.009346
Si Si5 0.176826 0.353821 0.500243
Si Si6 0.679163 0.023936 0.808145
Si Si7 0.174608 0.695736 0.098333
Si Si8 0.821965 0.343156 0.375036
O O1 0.250000 0.250000 0.250000
O O2 0.232489 0.204027 0.343666
O O3 0.000000 0.250000 0.302759
O O4 0.155166 0.437098 0.072567
O O5 0.278008 0.480973 0.152089
O O6 0.240795 0.387575 0.155094
O O7 0.000000 0.443362 0.163292
O O8 0.250000 0.636172 0.250000
O O9 0.247480 0.572811 0.169702
O O10 0.230422 0.663015 0.148440
O O11 0.000000 0.618535 0.197160
O O12 0.000000 0.448660 0.982332
O O13 0.244959 0.500000 0.000000
O O14 0.263368 0.406130 0.981774
O O15 0.238830 0.314885 0.542187
O O16 0.226356 0.338994 0.438833
O O17 0.000000 0.355333 0.505464
O O18 0.500000 0.029712 0.804023
O O19 0.750000 0.010922 0.750000
O O20 0.206885 0.750000 0.115577
O O21 0.000000 0.686282 0.086501
O O22 0.000000 0.351177 0.370273
#
# Coordination Sequence:
#
# PCOD8300152 Si02
#       8
#     8  16  16  16  16  16  16  16
#     4  10  22  40  62  86 114 150 193 238 291 344
#     4  10  20  35  56  83 115 150 191 234 282 339
#     4  10  21  39  61  84 115 152 192 238 292 349
#     4   9  19  35  55  80 113 155 192 226 278 341
#     4  10  21  36  58  87 117 151 194 240 289 341
#     4  11  22  37  58  84 115 150 192 235 285 343
#     4  10  23  41  60  85 117 154 195 240 294 355
#     4   9  20  39  59  81 116 158 192 237 295 344
#
# _framework density 19.795172000000001
#
# number of rings (size 3 to 8) (size 9 to 14) (size 15 to 20)
#    0.000    2.133    0.000    3.200    2.800    4.000 
#    0.000    1.333    0.000    0.000    0.000    0.000 
#    0.000    0.000    0.000    0.000    0.000    0.000 
#
# Total GULP energy -744039.056905 kJ/mol
# GULP energy per Si atom -12400.650948 kJ/mol
# Density = 1.975012 g / cm^3
# Si number density = 19.795172 Si / 1000 Ang^3
#
#
#
# Elastic Constant Matrix: (Units=GPa)
#
#
# Indices 1 2 3 4 5 6 
#
# 1 86.0114 48.4989 40.4755 0.0000 0.0000 0.0000
# 2 48.4989 155.7943 63.5284 0.0000 0.0000 0.0000
# 3 40.4755 63.5284 77.8573 -0.0001 0.0000 0.0000
# 4 0.0000 0.0000 -0.0001 34.9474 0.0000 0.0000
# 5 0.0000 0.0000 0.0000 0.0000 30.1547 0.0000
# 6 0.0000 0.0000 0.0000 0.0000 0.0000 23.6084
#
#
#
# Elastic Compliance Matrix: (Units=1/GPa)
#
#
# Indices 1 2 3 4 5 6 
#
# 1 0.015957 -0.002375 -0.006358 0.000000 0.000000 0.000000
# 2 -0.002375 0.009973 -0.006903 0.000000 0.000000 0.000000
# 3 -0.006358 -0.006903 0.021782 0.000000 0.000000 0.000000
# 4 0.000000 0.000000 0.000000 0.028614 0.000000 0.000000
# 5 0.000000 0.000000 0.000000 0.000000 0.033162 0.000000
# 6 0.000000 0.000000 0.000000 0.000000 0.000000 0.042358
#
#
# Mechanical properties :
#
#
# Convention : Reuss Voigt Hill
#
# Bulk Modulus (GPa) = 60.82470 69.40762 65.11616
# Shear Modulus (GPa) = 26.51145 28.88611 27.69878
#
# Velocity S-wave (km/s) = 3.66360 3.82416 3.74474
# Velocity P-wave (km/s) = 6.97780 7.39175 7.18775
#
# Compressibility (1/GPa) = 0.01644069
#
# Stress axis : x y z
#
# Youngs Moduli (GPa) = 62.66660 100.27288 45.91035
#
# Poissons Ratio (x) = 0.23815 0.29189
# Poissons Ratio (y) = 0.14883 0.31691
# Poissons Ratio (z) = 0.39843 0.69215
#
# Static dielectric constant tensor:
#      x y z
#    x 3.718500 0.000000 0.000000 
#    y 0.000000 3.778330 0.000000 
#    z 0.000000 0.000000 3.483500 
# 
# 
# High freq. dielectric constant tensor:
#      x y z
#    x 1.772000 0.000000 0.000000 
#    y 0.000000 1.782130 0.000000 
#    z 0.000000 0.000000 1.761580 
# 
# From -- ./inp_files/65107.got.cif
#   From: 2010.03.12/outbox.cif.g09.slc.cpg/sg74_33_cif.got.tgz:65107.got - 2010.04.16 15:46:19.
