data_PCOD8300182
_publ_section_title
;
Structure prediction by ZEFSAII (Michael W. Deem and Ramdas Pophale) SiO2 
 PCOD8300182
Probable space group: I M M A
;
_chemical_formula_sum "Si O2"
_cell_formula_units_Z 104
_cell_length_a 26.151523
_cell_length_b 8.849965
_cell_length_c 22.226323
_cell_angle_alpha 90.000000
_cell_angle_beta 90.000000
_cell_angle_gamma 90.000000
_cell_volume 5144.061601
_symmetry_space_group_name_H-M "I M M A"
_symmetry_group_IT_number 74
_symmetry_cell_setting 'orthorhombic'
loop_
_space_group_symop_operation_xyz
x,y,z
-x,1/2-y,z
x,-y,-z
-x,1/2+y,-z
-x,-y,-z
x,1/2+y,-z
-x,y,z
x,1/2-y,z
1/2+x,1/2+y,1/2+z
1/2-x,-y,1/2+z
1/2+x,1/2-y,1/2-z
1/2-x,y,1/2-z
1/2-x,1/2-y,1/2-z
1/2+x,y,1/2-z
1/2-x,1/2+y,1/2+z
1/2+x,-y,1/2+z
loop_
_atom_site_type_symbol
_atom_site_label
_atom_site_fract_x
_atom_site_fract_y
_atom_site_fract_z
Si Si1 0.441758 0.917316 0.728451
Si Si2 0.500000 0.928278 0.436291
Si Si3 0.398369 0.421089 0.395542
Si Si4 0.057702 0.571193 0.439804
Si Si5 0.382040 0.927328 0.172025
Si Si6 0.231376 0.429823 0.684298
Si Si7 0.205648 0.930691 0.064559
O O1 0.500000 0.960705 0.707832
O O2 0.442926 0.750000 0.757404
O O3 0.398566 0.915587 0.676504
O O4 0.421599 0.038721 0.775219
O O5 0.500000 0.750000 0.438179
O O6 0.500000 0.000000 0.500000
O O7 0.550642 0.985885 0.405284
O O8 0.399863 0.250000 0.422351
O O9 0.351538 0.510519 0.424451
O O10 0.080138 0.500000 0.500000
O O11 0.059913 0.750000 0.443793
O O12 0.093751 0.505192 0.388241
O O13 0.000000 0.514917 0.427979
O O14 0.376259 0.750000 0.167322
O O15 0.325768 0.997017 0.179661
O O16 0.233506 0.250000 0.684911
O O17 0.250000 0.490530 0.750000
O O18 0.262107 0.484681 0.623958
O O19 0.206359 0.750000 0.058798
O O20 0.225445 0.000000 0.000000
#
# Coordination Sequence:
#
# PCOD8300182 Si02
#       7
#    16   8  16  16  16  16  16
#     4  10  21  37  56  83 120 156 188 235 297 353
#     4  12  24  38  58  84 114 150 191 232 279 336
#     4  11  22  40  60  83 118 156 194 240 289 343
#     4   9  18  32  50  75 108 143 181 226 278 339
#     4  10  20  35  57  84 111 146 193 243 290 348
#     4   9  19  37  60  85 115 150 194 247 298 347
#     4  11  23  40  62  89 120 158 202 250 304 361
#
# _framework density 20.217487999999999
#
# number of rings (size 3 to 8) (size 9 to 14) (size 15 to 20)
#    0.000    1.846    0.769    3.462    0.000    4.615 
#    0.000    3.077    0.000    4.154    0.000    0.000 
#    0.000    0.000    0.000    0.000    0.000    0.000 
#
# Total GULP energy -644314.934354 kJ/mol
# GULP energy per Si atom -12390.671814 kJ/mol
# Density = 2.017147 g / cm^3
# Si number density = 20.217488 Si / 1000 Ang^3
#
#
#
# Elastic Constant Matrix: (Units=GPa)
#
#
# Indices 1 2 3 4 5 6 
#
# 1 97.8976 21.0341 58.4705 0.0000 0.0000 0.0000
# 2 21.0341 56.1026 30.5740 0.0000 0.0000 0.0000
# 3 58.4705 30.5740 149.9762 0.0000 0.0000 0.0000
# 4 0.0000 0.0000 0.0000 31.9367 0.0000 0.0000
# 5 0.0000 0.0000 0.0000 0.0000 34.6849 0.0000
# 6 0.0000 0.0000 0.0000 0.0000 0.0000 18.0561
#
#
#
# Elastic Compliance Matrix: (Units=1/GPa)
#
#
# Indices 1 2 3 4 5 6 
#
# 1 0.013617 -0.002489 -0.004802 0.000000 0.000000 0.000000
# 2 -0.002489 0.020507 -0.003210 0.000000 0.000000 0.000000
# 3 -0.004802 -0.003210 0.009194 0.000000 0.000000 0.000000
# 4 0.000000 0.000000 0.000000 0.031312 0.000000 0.000000
# 5 0.000000 0.000000 0.000000 0.000000 0.028831 0.000000
# 6 0.000000 0.000000 0.000000 0.000000 0.000000 0.055383
#
#
# Mechanical properties :
#
#
# Convention : Reuss Voigt Hill
#
# Bulk Modulus (GPa) = 44.80826 58.23707 51.52266
# Shear Modulus (GPa) = 26.69734 29.86207 28.27971
#
# Velocity S-wave (km/s) = 3.63782 3.84740 3.74408
# Velocity P-wave (km/s) = 6.31318 6.97169 6.65059
#
# Compressibility (1/GPa) = 0.02231731
#
# Stress axis : x y z
#
# Youngs Moduli (GPa) = 73.43626 48.76373 108.76525
#
# Poissons Ratio (x) = 0.12136 0.52224
# Poissons Ratio (y) = 0.18276 0.34917
# Poissons Ratio (z) = 0.35261 0.15654
#
# Static dielectric constant tensor:
#      x y z
#    x 3.775450 0.000000 0.000000 
#    y 0.000000 3.453170 0.000000 
#    z 0.000000 0.000000 3.990900 
# 
# 
# High freq. dielectric constant tensor:
#      x y z
#    x 1.789130 0.000000 0.000000 
#    y 0.000000 1.768810 0.000000 
#    z 0.000000 0.000000 1.803020 
# 
# From -- ./inp_files/49236.got.cif
#   From: 2010.03.12/outbox.cif.g09.slc.cpg/sg74_25_cif.got.tgz:49236.got - 2010.04.16 15:46:19.
