data_PCOD8300671
_publ_section_title
;
Structure prediction by ZEFSAII (Michael W. Deem and Ramdas Pophale) SiO2 
 PCOD8300671
Probable space group: I M M A
;
_chemical_formula_sum "Si O2"
_cell_formula_units_Z 112
_cell_length_a 15.256730
_cell_length_b 28.344357
_cell_length_c 14.340333
_cell_angle_alpha 90.000000
_cell_angle_beta 90.000000
_cell_angle_gamma 90.000000
_cell_volume 6201.365177
_symmetry_space_group_name_H-M "I M M A"
_symmetry_group_IT_number 74
_symmetry_cell_setting 'orthorhombic'
loop_
_space_group_symop_operation_xyz
x,y,z
-x,1/2-y,z
x,-y,-z
-x,1/2+y,-z
-x,-y,-z
x,1/2+y,-z
-x,y,z
x,1/2-y,z
1/2+x,1/2+y,1/2+z
1/2-x,-y,1/2+z
1/2+x,1/2-y,1/2-z
1/2-x,y,1/2-z
1/2-x,1/2-y,1/2-z
1/2+x,y,1/2-z
1/2-x,1/2+y,1/2+z
1/2+x,-y,1/2+z
loop_
_atom_site_type_symbol
_atom_site_label
_atom_site_fract_x
_atom_site_fract_y
_atom_site_fract_z
Si Si1 0.746181 0.804733 0.639199
Si Si2 0.098841 0.865412 0.578507
Si Si3 0.148958 0.079649 0.250079
Si Si4 0.399998 0.126084 0.430258
Si Si5 0.399563 0.951458 0.040293
Si Si6 0.599500 0.455113 0.552515
Si Si7 0.349263 0.029038 0.758930
O O1 0.734850 0.750000 0.617930
O O2 0.750000 0.814510 0.750000
O O3 0.834732 0.821478 0.586590
O O4 0.661991 0.830005 0.593631
O O5 0.092874 0.889876 0.678613
O O6 0.139829 0.904116 0.506673
O O7 0.000000 0.848289 0.551031
O O8 0.250000 0.096907 0.250000
O O9 0.104266 0.086902 0.150832
O O10 0.142209 0.025862 0.280368
O O11 0.500000 0.144558 0.443492
O O12 0.363432 0.096025 0.519324
O O13 0.500000 0.952479 0.009516
O O14 0.390458 0.945359 0.151509
O O15 0.354930 0.000000 0.000000
O O16 0.646555 0.500000 0.500000
O O17 0.500000 0.455073 0.517833
O O18 0.602630 0.457475 0.663893
O O19 0.250000 0.045641 0.750000
#
# Coordination Sequence:
#
# PCOD8300671 Si02
#       7
#    16  16  16  16  16  16  16
#     4  11  24  40  57  81 113 141 177 236 285 327
#     4  11  21  35  57  80 107 152 189 219 270 327
#     4  11  19  31  49  77 116 151 186 224 260 314
#     4  11  21  35  57  80 107 152 189 219 270 327
#     4  10  21  34  51  76 110 150 188 223 262 317
#     4  10  21  34  51  76 110 150 188 223 262 317
#     4  11  23  31  49  79 113 154 189 226 260 310
#
# _framework density 18.060538999999999
#
# number of rings (size 3 to 8) (size 9 to 14) (size 15 to 20)
#    0.000    1.286    5.714    0.857    2.000    2.286 
#    0.000    1.429    0.000    0.000    0.000    2.000 
#    0.000    4.571    0.000    0.000    0.000    0.000 
#
# Total GULP energy -694140.191612 kJ/mol
# GULP energy per Si atom -12395.360564 kJ/mol
# Density = 1.801943 g / cm^3
# Si number density = 18.060539 Si / 1000 Ang^3
#
#
#
# Elastic Constant Matrix: (Units=GPa)
#
#
# Indices 1 2 3 4 5 6 
#
# 1 82.0100 44.9751 8.6096 0.0000 0.0000 0.0000
# 2 44.9751 112.5237 40.7166 -0.0001 0.0000 0.0000
# 3 8.6096 40.7166 96.5689 -0.0007 -0.0001 0.0000
# 4 0.0000 -0.0001 -0.0007 25.8151 0.0000 0.0000
# 5 0.0000 0.0000 -0.0001 0.0000 18.2639 0.0000
# 6 0.0000 0.0000 0.0000 0.0000 0.0000 18.6607
#
#
#
# Elastic Compliance Matrix: (Units=1/GPa)
#
#
# Indices 1 2 3 4 5 6 
#
# 1 0.015794 -0.006848 0.001479 0.000000 0.000000 0.000000
# 2 -0.006848 0.013456 -0.005063 0.000000 0.000000 0.000000
# 3 0.001479 -0.005063 0.012358 0.000000 0.000000 0.000000
# 4 0.000000 0.000000 0.000000 0.038737 0.000000 0.000000
# 5 0.000000 0.000000 0.000000 0.000000 0.054753 0.000000
# 6 0.000000 0.000000 0.000000 0.000000 0.000000 0.053588
#
#
# Mechanical properties :
#
#
# Convention : Reuss Voigt Hill
#
# Bulk Modulus (GPa) = 48.20527 53.30059 50.75293
# Shear Modulus (GPa) = 23.09844 25.66803 24.38324
#
# Velocity S-wave (km/s) = 3.58011 3.77400 3.67833
# Velocity P-wave (km/s) = 6.62106 6.96900 6.79726
#
# Compressibility (1/GPa) = 0.02074462
#
# Stress axis : x y z
#
# Youngs Moduli (GPa) = 63.31583 74.31528 80.91815
#
# Poissons Ratio (x) = 0.50891 -0.11970
# Poissons Ratio (y) = 0.43359 0.40969
# Poissons Ratio (z) = -0.09366 0.37626
#
# Static dielectric constant tensor:
#      x y z
#    x 3.346530 0.000000 0.000000 
#    y 0.000000 3.162570 0.000000 
#    z 0.000000 0.000000 3.251960 
# 
# 
# High freq. dielectric constant tensor:
#      x y z
#    x 1.703500 0.000000 0.000000 
#    y 0.000000 1.665970 0.000000 
#    z 0.000000 0.000000 1.689010 
# 
# From -- ./inp_files/32946.got.cif
#   From: 2010.03.12/outbox.cif.g09.slc.cpg/sg74_17_cif.got.tgz:32946.got - 2010.04.16 15:46:19.
