data_PCOD8300647
_publ_section_title
;
Structure prediction by ZEFSAII (Michael W. Deem and Ramdas Pophale) SiO2 
 PCOD8300647
Probable space group: I M M A
;
_chemical_formula_sum "Si O2"
_cell_formula_units_Z 56
_cell_length_a 17.026293
_cell_length_b 7.804447
_cell_length_c 22.002647
_cell_angle_alpha 90.000000
_cell_angle_beta 90.000000
_cell_angle_gamma 90.000000
_cell_volume 2923.729365
_symmetry_space_group_name_H-M "I M M A"
_symmetry_group_IT_number 74
_symmetry_cell_setting 'orthorhombic'
loop_
_space_group_symop_operation_xyz
x,y,z
-x,1/2-y,z
x,-y,-z
-x,1/2+y,-z
-x,-y,-z
x,1/2+y,-z
-x,y,z
x,1/2-y,z
1/2+x,1/2+y,1/2+z
1/2-x,-y,1/2+z
1/2+x,1/2-y,1/2-z
1/2-x,y,1/2-z
1/2-x,1/2-y,1/2-z
1/2+x,y,1/2-z
1/2-x,1/2+y,1/2+z
1/2+x,-y,1/2+z
loop_
_atom_site_type_symbol
_atom_site_label
_atom_site_fract_x
_atom_site_fract_y
_atom_site_fract_z
Si Si1 0.500000 0.052083 0.068539
Si Si2 0.840373 0.936854 0.373933
Si Si3 0.907507 0.750000 0.127571
Si Si4 0.340903 0.250000 0.760366
Si Si5 0.688735 0.444236 0.431201
O O1 0.500000 0.250000 0.078976
O O2 0.577291 0.979444 0.097829
O O3 0.500000 0.000000 0.000000
O O4 0.812413 0.750000 0.398390
O O5 0.856515 0.922117 0.300969
O O6 0.770524 0.063434 0.393392
O O7 0.891977 0.750000 0.199727
O O8 0.872248 0.576700 0.098825
O O9 0.000000 0.750000 0.115058
O O10 0.250000 0.250000 0.750000
O O11 0.706346 0.500000 0.500000
O O12 0.654177 0.250000 0.429530
#
# Coordination Sequence:
#
# PCOD8300647 Si02
#       5
#     8  16   8   8  16
#     4  12  24  38  58 102 142 178 222 274 331 397
#     4  10  21  39  68  93 129 179 223 266 333 392
#     4  12  26  46  70 101 133 181 223 282 339 392
#     4  10  20  44  74  90 128 177 232 263 338 398
#     4  12  23  43  69  99 134 176 223 275 341 409
#
# _framework density 19.153618000000002
#
# number of rings (size 3 to 8) (size 9 to 14) (size 15 to 20)
#    0.857    0.000    5.714    3.000    2.000    1.143 
#    0.000    4.286    0.000    0.000    0.000    0.000 
#    0.000    0.000    0.000    0.000    0.000    0.000 
#
# Total GULP energy -346935.252318 kJ/mol
# GULP energy per Si atom -12390.544726 kJ/mol
# Density = 1.911002 g / cm^3
# Si number density = 19.153618 Si / 1000 Ang^3
#
#
#
# Elastic Constant Matrix: (Units=GPa)
#
#
# Indices 1 2 3 4 5 6 
#
# 1 128.0082 26.2936 39.9286 0.0000 0.0000 0.0000
# 2 26.2936 120.7762 40.5837 0.0000 0.0000 0.0000
# 3 39.9286 40.5837 135.2148 0.0000 0.0000 0.0000
# 4 0.0000 0.0000 0.0000 31.7867 0.0000 0.0000
# 5 0.0000 0.0000 0.0000 0.0000 26.5300 0.0000
# 6 0.0000 0.0000 0.0000 0.0000 0.0000 10.4757
#
#
#
# Elastic Compliance Matrix: (Units=1/GPa)
#
#
# Indices 1 2 3 4 5 6 
#
# 1 0.008746 -0.001153 -0.002237 0.000000 0.000000 0.000000
# 2 -0.001153 0.009360 -0.002469 0.000000 0.000000 0.000000
# 3 -0.002237 -0.002469 0.008797 0.000000 0.000000 0.000000
# 4 0.000000 0.000000 0.000000 0.031460 0.000000 0.000000
# 5 0.000000 0.000000 0.000000 0.000000 0.037693 0.000000
# 6 0.000000 0.000000 0.000000 0.000000 0.000000 0.095459
#
#
# Mechanical properties :
#
#
# Convention : Reuss Voigt Hill
#
# Bulk Modulus (GPa) = 65.84542 66.40124 66.12333
# Shear Modulus (GPa) = 24.00440 32.23803 28.12121
#
# Velocity S-wave (km/s) = 3.54398 4.10705 3.83586
# Velocity P-wave (km/s) = 7.15532 7.56528 7.36315
#
# Compressibility (1/GPa) = 0.01518708
#
# Stress axis : x y z
#
# Youngs Moduli (GPa) = 114.33189 106.83342 113.67149
#
# Poissons Ratio (x) = 0.12313 0.25427
# Poissons Ratio (y) = 0.13177 0.28067
# Poissons Ratio (z) = 0.25575 0.26378
#
# Static dielectric constant tensor:
#      x y z
#    x 3.406880 0.000000 0.000000 
#    y 0.000000 3.673320 0.000000 
#    z 0.000000 0.000000 3.067070 
# 
# 
# High freq. dielectric constant tensor:
#      x y z
#    x 1.746620 0.000000 0.000000 
#    y 0.000000 1.741660 0.000000 
#    z 0.000000 0.000000 1.752330 
# 
# From -- ./inp_files/51389.got.cif
#   From: 2010.03.12/outbox.cif.g09.slc.cpg/sg74_26_cif.got.tgz:51389.got - 2010.04.16 15:46:19.
