data_PCOD8300435
_publ_section_title
;
Structure prediction by ZEFSAII (Michael W. Deem and Ramdas Pophale) SiO2 
 PCOD8300435
Probable space group: I M M A
;
_chemical_formula_sum "Si O2"
_cell_formula_units_Z 72
_cell_length_a 14.294897
_cell_length_b 9.444665
_cell_length_c 28.438761
_cell_angle_alpha 90.000000
_cell_angle_beta 90.000000
_cell_angle_gamma 90.000000
_cell_volume 3839.531722
_symmetry_space_group_name_H-M "I M M A"
_symmetry_group_IT_number 74
_symmetry_cell_setting 'orthorhombic'
loop_
_space_group_symop_operation_xyz
x,y,z
-x,1/2-y,z
x,-y,-z
-x,1/2+y,-z
-x,-y,-z
x,1/2+y,-z
-x,y,z
x,1/2-y,z
1/2+x,1/2+y,1/2+z
1/2-x,-y,1/2+z
1/2+x,1/2-y,1/2-z
1/2-x,y,1/2-z
1/2-x,1/2-y,1/2-z
1/2+x,y,1/2-z
1/2-x,1/2+y,1/2+z
1/2+x,-y,1/2+z
loop_
_atom_site_type_symbol
_atom_site_label
_atom_site_fract_x
_atom_site_fract_y
_atom_site_fract_z
Si Si1 0.500000 0.586156 0.048718
Si Si2 0.000000 0.086961 0.307586
Si Si3 0.500000 0.913969 0.696560
Si Si4 0.135525 0.913910 0.367960
Si Si5 0.646693 0.084399 0.639903
Si Si6 0.394255 0.902128 0.461816
O O1 0.500000 0.750000 0.034319
O O2 0.591944 0.549599 0.080555
O O3 0.500000 0.500000 0.000000
O O4 0.000000 0.072043 0.252053
O O5 0.000000 0.250000 0.323457
O O6 0.908783 0.010583 0.327801
O O7 0.500000 0.750000 0.680615
O O8 0.594515 0.990644 0.678735
O O9 0.114207 0.750000 0.356638
O O10 0.244229 0.948650 0.364042
O O11 0.626365 0.250000 0.650092
O O12 0.604823 0.033656 0.590165
O O13 0.500000 0.880313 0.479217
O O14 0.341636 0.750000 0.460749
O O15 0.341236 0.000000 0.500000
#
# Coordination Sequence:
#
# PCOD8300435 Si02
#       6
#     8   8   8  16  16  16
#     4   9  18  34  55  84 116 145 180 223 269 320
#     4  10  22  40  58  79 110 143 177 224 286 339
#     4  11  24  38  55  81 112 144 179 227 280 335
#     4   9  20  38  60  83 110 144 186 230 270 321
#     4  10  20  37  58  81 109 145 187 229 271 321
#     4   9  17  30  48  72 104 141 177 214 258 310
#
# _framework density 18.752286999999999
#
# number of rings (size 3 to 8) (size 9 to 14) (size 15 to 20)
#    0.000    2.444    1.111    1.333    0.000    7.111 
#    0.000    4.444    0.000    0.000    0.000    0.000 
#    0.000    0.000    0.000    0.000    0.000    0.000 
#
# Total GULP energy -446168.768955 kJ/mol
# GULP energy per Si atom -12393.576915 kJ/mol
# Density = 1.870961 g / cm^3
# Si number density = 18.752287 Si / 1000 Ang^3
#
#
#
# Elastic Constant Matrix: (Units=GPa)
#
#
# Indices 1 2 3 4 5 6 
#
# 1 121.5830 55.4054 45.0977 0.0000 0.0000 0.0000
# 2 55.4054 109.9115 76.0677 0.0000 0.0000 0.0000
# 3 45.0977 76.0677 114.9430 0.0000 0.0000 0.0000
# 4 0.0000 0.0000 0.0000 38.1108 0.0000 0.0000
# 5 0.0000 0.0000 0.0000 0.0000 55.7051 0.0000
# 6 0.0000 0.0000 0.0000 0.0000 0.0000 15.5785
#
#
#
# Elastic Compliance Matrix: (Units=1/GPa)
#
#
# Indices 1 2 3 4 5 6 
#
# 1 0.010762 -0.004618 -0.001167 0.000000 0.000000 0.000000
# 2 -0.004618 0.018768 -0.010609 0.000000 0.000000 0.000000
# 3 -0.001167 -0.010609 0.016178 0.000000 0.000000 0.000000
# 4 0.000000 0.000000 0.000000 0.026239 0.000000 0.000000
# 5 0.000000 0.000000 0.000000 0.000000 0.017952 0.000000
# 6 0.000000 0.000000 0.000000 0.000000 0.000000 0.064191
#
#
# Mechanical properties :
#
#
# Convention : Reuss Voigt Hill
#
# Bulk Modulus (GPa) = 77.38438 77.73100 77.55769
# Shear Modulus (GPa) = 26.15294 33.20332 29.67813
#
# Velocity S-wave (km/s) = 3.73856 4.21245 3.98256
# Velocity P-wave (km/s) = 7.74545 8.07472 7.91180
#
# Compressibility (1/GPa) = 0.01292250
#
# Stress axis : x y z
#
# Youngs Moduli (GPa) = 92.92176 53.28222 61.81105
#
# Poissons Ratio (x) = 0.24603 0.07210
# Poissons Ratio (y) = 0.42907 0.65573
# Poissons Ratio (z) = 0.10839 0.56525
#
# Static dielectric constant tensor:
#      x y z
#    x 3.436260 0.000000 0.000000 
#    y 0.000000 3.723010 0.000000 
#    z 0.000000 0.000000 3.357090 
# 
# 
# High freq. dielectric constant tensor:
#      x y z
#    x 1.720530 0.000000 0.000000 
#    y 0.000000 1.726580 0.000000 
#    z 0.000000 0.000000 1.727120 
# 
# From -- ./inp_files/63708.got.cif
#   From: 2010.03.12/outbox.cif.g09.slc.cpg/sg74_32_cif.got.tgz:63708.got - 2010.04.16 15:46:19.
