data_PCOD8300265
_publ_section_title
;
Structure prediction by ZEFSAII (Michael W. Deem and Ramdas Pophale) SiO2 
 PCOD8300265
Probable space group: I M M A
;
_chemical_formula_sum "Si O2"
_cell_formula_units_Z 72
_cell_length_a 9.025608
_cell_length_b 15.174871
_cell_length_c 28.202661
_cell_angle_alpha 90.000000
_cell_angle_beta 90.000000
_cell_angle_gamma 90.000000
_cell_volume 3862.705183
_symmetry_space_group_name_H-M "I M M A"
_symmetry_group_IT_number 74
_symmetry_cell_setting 'orthorhombic'
loop_
_space_group_symop_operation_xyz
x,y,z
-x,1/2-y,z
x,-y,-z
-x,1/2+y,-z
-x,-y,-z
x,1/2+y,-z
-x,y,z
x,1/2-y,z
1/2+x,1/2+y,1/2+z
1/2-x,-y,1/2+z
1/2+x,1/2-y,1/2-z
1/2-x,y,1/2-z
1/2-x,1/2-y,1/2-z
1/2+x,y,1/2-z
1/2-x,1/2+y,1/2+z
1/2+x,-y,1/2+z
loop_
_atom_site_type_symbol
_atom_site_label
_atom_site_fract_x
_atom_site_fract_y
_atom_site_fract_z
Si Si1 0.673467 0.441685 0.699047
Si Si2 0.332152 0.250000 0.701585
Si Si3 0.330335 0.149642 0.557748
Si Si4 0.326163 0.503573 0.888925
Si Si5 0.167987 0.850455 0.946563
O O1 0.500000 0.462260 0.704633
O O2 0.750000 0.451373 0.750000
O O3 0.701810 0.343191 0.675635
O O4 0.746724 0.509301 0.662303
O O5 0.500000 0.250000 0.717482
O O6 0.250000 0.250000 0.750000
O O7 0.500000 0.124771 0.570428
O O8 0.298543 0.250000 0.574006
O O9 0.219385 0.084587 0.583694
O O10 0.302265 0.139308 0.502092
O O11 0.500000 0.503067 0.880749
O O12 0.282138 0.589404 0.918418
O O13 0.193984 0.750000 0.930701
O O14 0.000000 0.879901 0.934955
#
# Coordination Sequence:
#
# PCOD8300265 Si02
#       5
#    16   8  16  16  16
#     4  10  20  36  55  77 106 142 183 226 270 318
#     4   8  16  30  50  72  96 132 172 212 258 306
#     4   9  19  36  57  80 109 145 185 227 270 319
#     4  12  24  34  51  82 115 148 182 220 270 328
#     4   9  19  38  61  81 103 139 186 232 277 324
#
# _framework density 18.639786000000001
#
# number of rings (size 3 to 8) (size 9 to 14) (size 15 to 20)
#    0.000    2.222    0.000    4.667    1.556    5.333 
#    0.000    2.222    0.000    0.667    0.000    0.000 
#    0.000    0.000    0.000    0.000    0.000    0.000 
#
# Total GULP energy -446259.096879 kJ/mol
# GULP energy per Si atom -12396.086024 kJ/mol
# Density = 1.859736 g / cm^3
# Si number density = 18.639786 Si / 1000 Ang^3
#
#
#
# Elastic Constant Matrix: (Units=GPa)
#
#
# Indices 1 2 3 4 5 6 
#
# 1 120.1754 41.6351 47.3396 0.0000 0.0000 0.0000
# 2 41.6351 72.0837 37.5137 0.0000 0.0000 0.0000
# 3 47.3396 37.5137 59.2739 0.0000 0.0000 0.0000
# 4 0.0000 0.0000 0.0000 22.9855 0.0000 0.0000
# 5 0.0000 0.0000 0.0000 0.0000 31.4746 0.0000
# 6 0.0000 0.0000 0.0000 0.0000 0.0000 23.4819
#
#
#
# Elastic Compliance Matrix: (Units=1/GPa)
#
#
# Indices 1 2 3 4 5 6 
#
# 1 0.012571 -0.003036 -0.008119 0.000000 0.000000 0.000000
# 2 -0.003036 0.021419 -0.011131 0.000000 0.000000 0.000000
# 3 -0.008119 -0.011131 0.030400 0.000000 0.000000 0.000000
# 4 0.000000 0.000000 0.000000 0.043506 0.000000 0.000000
# 5 0.000000 0.000000 0.000000 0.000000 0.031772 0.000000
# 6 0.000000 0.000000 0.000000 0.000000 0.000000 0.042586
#
#
# Mechanical properties :
#
#
# Convention : Reuss Voigt Hill
#
# Bulk Modulus (GPa) = 50.45828 56.05666 53.25747
# Shear Modulus (GPa) = 21.41960 23.92469 22.67214
#
# Velocity S-wave (km/s) = 3.39356 3.58652 3.49138
# Velocity P-wave (km/s) = 6.51798 6.87676 6.69977
#
# Compressibility (1/GPa) = 0.01981835
#
# Stress axis : x y z
#
# Youngs Moduli (GPa) = 79.54782 46.68706 32.89506
#
# Poissons Ratio (x) = 0.14174 0.26706
# Poissons Ratio (y) = 0.24150 0.36616
# Poissons Ratio (z) = 0.64582 0.51969
#
# Static dielectric constant tensor:
#      x y z
#    x 3.330490 0.000000 0.000000 
#    y 0.000000 3.342120 0.000000 
#    z 0.000000 0.000000 3.298730 
# 
# 
# High freq. dielectric constant tensor:
#      x y z
#    x 1.720500 0.000000 0.000000 
#    y 0.000000 1.711420 0.000000 
#    z 0.000000 0.000000 1.720990 
# 
# From -- ./inp_files/63612.got.cif
#   From: 2010.03.12/outbox.cif.g09.slc.cpg/sg74_32_cif.got.tgz:63612.got - 2010.04.16 15:46:19.
