data_PCOD8300164
_publ_section_title
;
Structure prediction by ZEFSAII (Michael W. Deem and Ramdas Pophale) SiO2 
 PCOD8300164
Probable space group: I M M A
;
_chemical_formula_sum "Si O2"
_cell_formula_units_Z 88
_cell_length_a 29.562682
_cell_length_b 9.123187
_cell_length_c 17.899859
_cell_angle_alpha 90.000000
_cell_angle_beta 90.000000
_cell_angle_gamma 90.000000
_cell_volume 4827.697154
_symmetry_space_group_name_H-M "I M M A"
_symmetry_group_IT_number 74
_symmetry_cell_setting 'orthorhombic'
loop_
_space_group_symop_operation_xyz
x,y,z
-x,1/2-y,z
x,-y,-z
-x,1/2+y,-z
-x,-y,-z
x,1/2+y,-z
-x,y,z
x,1/2-y,z
1/2+x,1/2+y,1/2+z
1/2-x,-y,1/2+z
1/2+x,1/2-y,1/2-z
1/2-x,y,1/2-z
1/2-x,1/2-y,1/2-z
1/2+x,y,1/2-z
1/2-x,1/2+y,1/2+z
1/2+x,-y,1/2+z
loop_
_atom_site_type_symbol
_atom_site_label
_atom_site_fract_x
_atom_site_fract_y
_atom_site_fract_z
Si Si1 0.948567 0.577093 0.422837
Si Si2 0.199005 0.582645 0.776210
Si Si3 0.878232 0.916884 0.297756
Si Si4 0.675227 0.080907 0.574856
Si Si5 0.000000 0.080772 0.077427
Si Si6 0.920431 0.588922 0.136952
O O1 0.935641 0.500000 0.500000
O O2 0.944895 0.750000 0.434098
O O3 0.911986 0.522627 0.361756
O O4 0.000000 0.534715 0.398203
O O5 0.183756 0.750000 0.790197
O O6 0.250000 0.573525 0.750000
O O7 0.166871 0.514709 0.711329
O O8 0.197125 0.493875 0.853120
O O9 0.863346 0.750000 0.315005
O O10 0.905395 0.925337 0.221483
O O11 0.690788 0.250000 0.572302
O O12 0.621163 0.068059 0.580455
O O13 0.692016 0.000000 0.500000
O O14 0.000000 0.250000 0.061099
O O15 0.044037 0.038771 0.123952
O O16 0.000000 0.000000 0.000000
O O17 0.942115 0.750000 0.123574
#
# Coordination Sequence:
#
# PCOD8300164 Si02
#       6
#    16  16  16  16   8  16
#     4   9  18  33  54  80 110 144 181 223 273 328
#     4  10  21  37  57  81 110 142 177 223 276 326
#     4   9  19  35  57  80 103 140 181 219 269 322
#     4  10  20  35  57  81 105 137 175 217 264 317
#     4  12  24  34  46  68  99 136 173 210 253 296
#     4   9  19  34  52  73  99 134 173 213 257 304
#
# _framework density 18.228152999999999
#
# number of rings (size 3 to 8) (size 9 to 14) (size 15 to 20)
#    0.000    2.364    0.000    3.545    1.273    7.273 
#    0.000    0.909    0.000    2.182    0.000    0.000 
#    0.000    0.000    0.000    0.000    0.000    0.000 
#
# Total GULP energy -545549.134702 kJ/mol
# GULP energy per Si atom -12398.843971 kJ/mol
# Density = 1.818666 g / cm^3
# Si number density = 18.228153 Si / 1000 Ang^3
#
#
#
# Elastic Constant Matrix: (Units=GPa)
#
#
# Indices 1 2 3 4 5 6 
#
# 1 84.8945 51.7581 42.8033 0.0000 0.0000 0.0000
# 2 51.7581 120.4502 44.7792 0.0000 0.0000 0.0000
# 3 42.8033 44.7792 95.9554 0.0000 0.0000 0.0000
# 4 0.0000 0.0000 0.0000 32.3849 0.0000 0.0000
# 5 0.0000 0.0000 0.0000 0.0000 20.9161 0.0000
# 6 0.0000 0.0000 0.0000 0.0000 0.0000 28.7328
#
#
#
# Elastic Compliance Matrix: (Units=1/GPa)
#
#
# Indices 1 2 3 4 5 6 
#
# 1 0.017968 -0.005736 -0.005338 0.000000 0.000000 0.000000
# 2 -0.005736 0.011876 -0.002983 0.000000 0.000000 0.000000
# 3 -0.005338 -0.002983 0.014195 0.000000 0.000000 0.000000
# 4 0.000000 0.000000 0.000000 0.030879 0.000000 0.000000
# 5 0.000000 0.000000 0.000000 0.000000 0.047810 0.000000
# 6 0.000000 0.000000 0.000000 0.000000 0.000000 0.034803
#
#
# Mechanical properties :
#
#
# Convention : Reuss Voigt Hill
#
# Bulk Modulus (GPa) = 62.80045 64.44238 63.62141
# Shear Modulus (GPa) = 26.18413 27.20405 26.69409
#
# Velocity S-wave (km/s) = 3.79419 3.86738 3.83096
# Velocity P-wave (km/s) = 7.32951 7.44124 7.38559
#
# Compressibility (1/GPa) = 0.01592345
#
# Stress axis : x y z
#
# Youngs Moduli (GPa) = 55.65400 84.20127 70.44752
#
# Poissons Ratio (x) = 0.48302 0.37606
# Poissons Ratio (y) = 0.31926 0.21017
# Poissons Ratio (z) = 0.29709 0.25120
#
# Static dielectric constant tensor:
#      x y z
#    x 3.269710 0.000000 0.000000 
#    y 0.000000 3.581280 0.000000 
#    z 0.000000 0.000000 3.305810 
# 
# 
# High freq. dielectric constant tensor:
#      x y z
#    x 1.694750 0.000000 0.000000 
#    y 0.000000 1.711830 0.000000 
#    z 0.000000 0.000000 1.704190 
# 
# From -- ./inp_files/40074.got.cif
#   From: 2010.03.12/outbox.cif.g09.slc.cpg/sg74_21_cif.got.tgz:40074.got - 2010.04.16 15:46:19.
