data_PCOD8300789
_publ_section_title
;
Structure prediction by ZEFSAII (Michael W. Deem and Ramdas Pophale) SiO2 
 PCOD8300789
Probable space group: I M M A
;
_chemical_formula_sum "Si O2"
_cell_formula_units_Z 80
_cell_length_a 13.995448
_cell_length_b 9.983901
_cell_length_c 29.853659
_cell_angle_alpha 90.000000
_cell_angle_beta 90.000000
_cell_angle_gamma 90.000000
_cell_volume 4171.426912
_symmetry_space_group_name_H-M "I M M A"
_symmetry_group_IT_number 74
_symmetry_cell_setting 'orthorhombic'
loop_
_space_group_symop_operation_xyz
x,y,z
-x,1/2-y,z
x,-y,-z
-x,1/2+y,-z
-x,-y,-z
x,1/2+y,-z
-x,y,z
x,1/2-y,z
1/2+x,1/2+y,1/2+z
1/2-x,-y,1/2+z
1/2+x,1/2-y,1/2-z
1/2-x,y,1/2-z
1/2-x,1/2-y,1/2-z
1/2+x,y,1/2-z
1/2-x,1/2+y,1/2+z
1/2+x,-y,1/2+z
loop_
_atom_site_type_symbol
_atom_site_label
_atom_site_fract_x
_atom_site_fract_y
_atom_site_fract_z
Si Si1 0.310204 0.599524 0.963254
Si Si2 0.894255 0.397233 0.863073
Si Si3 0.605357 0.101898 0.438731
Si Si4 0.612619 0.594909 0.865678
Si Si5 0.276365 0.096430 0.799363
O O1 0.349443 0.750000 0.971541
O O2 0.194985 0.596670 0.972440
O O3 0.338203 0.553856 0.912946
O O4 0.357035 0.500000 0.000000
O O5 0.887079 0.250000 0.885278
O O6 0.864935 0.502193 0.900081
O O7 0.826328 0.410566 0.821481
O O8 0.000000 0.425782 0.844605
O O9 0.500000 0.065982 0.460059
O O10 0.599640 0.250000 0.417632
O O11 0.500000 0.571863 0.870410
O O12 0.636231 0.750000 0.854335
O O13 0.650341 0.500603 0.825458
O O14 0.316401 0.250000 0.799100
O O15 0.250000 0.043985 0.750000
#
# Coordination Sequence:
#
# PCOD8300789 Si02
#       5
#    16  16  16  16  16
#     4  10  21  36  55  81 112 147 188 237 287 340
#     4   9  17  30  50  76 106 139 175 217 266 323
#     4   9  17  31  52  77 105 139 178 220 271 330
#     4  10  22  41  61  82 113 152 194 241 289 335
#     4  10  21  36  57  86 116 147 184 228 280 339
#
# _framework density 19.178090000000001
#
# number of rings (size 3 to 8) (size 9 to 14) (size 15 to 20)
#    0.000    2.400    2.000    0.000    0.000    4.000 
#    0.000    2.000    0.000    2.400    0.000    0.000 
#    0.000    0.000    0.000    0.000    0.000    0.000 
#
# Total GULP energy -495555.124091 kJ/mol
# GULP energy per Si atom -12388.878102 kJ/mol
# Density = 1.913444 g / cm^3
# Si number density = 19.178090 Si / 1000 Ang^3
#
#
#
# Elastic Constant Matrix: (Units=GPa)
#
#
# Indices 1 2 3 4 5 6 
#
# 1 76.0599 32.0145 25.4832 0.0000 0.0000 0.0000
# 2 32.0145 103.7834 70.9261 0.0000 0.0000 0.0000
# 3 25.4832 70.9261 99.2772 0.0000 0.0000 0.0000
# 4 0.0000 0.0000 0.0000 37.7623 0.0000 0.0000
# 5 0.0000 0.0000 0.0000 0.0000 6.4351 0.0000
# 6 0.0000 0.0000 0.0000 0.0000 0.0000 24.9521
#
#
#
# Elastic Compliance Matrix: (Units=1/GPa)
#
#
# Indices 1 2 3 4 5 6 
#
# 1 0.015168 -0.003944 -0.001076 0.000000 0.000000 0.000000
# 2 -0.003944 0.019853 -0.013172 0.000000 0.000000 0.000000
# 3 -0.001076 -0.013172 0.019759 0.000000 0.000000 0.000000
# 4 0.000000 0.000000 0.000000 0.026481 0.000000 0.000000
# 5 0.000000 0.000000 0.000000 0.000000 0.155399 0.000000
# 6 0.000000 0.000000 0.000000 0.000000 0.000000 0.040077
#
#
# Mechanical properties :
#
#
# Convention : Reuss Voigt Hill
#
# Bulk Modulus (GPa) = 54.35316 59.55204 56.95260
# Shear Modulus (GPa) = 15.66159 23.87633 19.76896
#
# Velocity S-wave (km/s) = 2.86079 3.53225 3.21411
# Velocity P-wave (km/s) = 6.27017 6.91052 6.59812
#
# Compressibility (1/GPa) = 0.01839820
#
# Stress axis : x y z
#
# Youngs Moduli (GPa) = 65.92857 50.36915 50.60964
#
# Poissons Ratio (x) = 0.19863 0.05446
# Poissons Ratio (y) = 0.25999 0.66661
# Poissons Ratio (z) = 0.07094 0.66344
#
# Static dielectric constant tensor:
#      x y z
#    x 3.612070 0.000000 0.000000 
#    y 0.000000 3.766810 0.000000 
#    z 0.000000 0.000000 3.213230 
# 
# 
# High freq. dielectric constant tensor:
#      x y z
#    x 1.752090 0.000000 0.000000 
#    y 0.000000 1.754050 0.000000 
#    z 0.000000 0.000000 1.718310 
# 
# From -- ./inp_files/59706.got.cif
#   From: 2010.03.12/outbox.cif.g09.slc.cpg/sg74_30_cif.got.tgz:59706.got - 2010.04.16 15:46:19.
