data_PCOD8300982
_publ_section_title
;
Structure prediction by ZEFSAII (Michael W. Deem and Ramdas Pophale) SiO2 
 PCOD8300982
Probable space group: I M M A
;
_chemical_formula_sum "Si O2"
_cell_formula_units_Z 104
_cell_length_a 9.745002
_cell_length_b 21.639572
_cell_length_c 26.900713
_cell_angle_alpha 90.000000
_cell_angle_beta 90.000000
_cell_angle_gamma 90.000000
_cell_volume 5672.759744
_symmetry_space_group_name_H-M "I M M A"
_symmetry_group_IT_number 74
_symmetry_cell_setting 'orthorhombic'
loop_
_space_group_symop_operation_xyz
x,y,z
-x,1/2-y,z
x,-y,-z
-x,1/2+y,-z
-x,-y,-z
x,1/2+y,-z
-x,y,z
x,1/2-y,z
1/2+x,1/2+y,1/2+z
1/2-x,-y,1/2+z
1/2+x,1/2-y,1/2-z
1/2-x,y,1/2-z
1/2-x,1/2-y,1/2-z
1/2+x,y,1/2-z
1/2-x,1/2+y,1/2+z
1/2+x,-y,1/2+z
loop_
_atom_site_type_symbol
_atom_site_label
_atom_site_fract_x
_atom_site_fract_y
_atom_site_fract_z
Si Si1 0.737937 0.607421 0.342082
Si Si2 0.343654 0.444203 0.556238
Si Si3 0.662664 0.581584 0.551103
Si Si4 0.500000 0.180346 0.828602
Si Si5 0.338668 0.250000 0.200021
Si Si6 0.155996 0.633849 0.632654
Si Si7 0.500000 0.179011 0.710907
Si Si8 0.341515 0.018852 0.203994
O O1 0.672632 0.598135 0.395934
O O2 0.634931 0.644751 0.307443
O O3 0.776066 0.543979 0.315774
O O4 0.869854 0.648051 0.352332
O O5 0.500000 0.458177 0.544344
O O6 0.290633 0.408927 0.506614
O O7 0.281963 0.512609 0.565182
O O8 0.500000 0.591584 0.560376
O O9 0.744332 0.630836 0.584926
O O10 0.500000 0.250000 0.846936
O O11 0.500000 0.174920 0.769652
O O12 0.500000 0.250000 0.214072
O O13 0.250000 0.250000 0.250000
O O14 0.298542 0.310045 0.168007
O O15 0.169477 0.570232 0.662210
O O16 0.000000 0.643980 0.614319
O O17 0.500000 0.250000 0.692548
O O18 0.500000 0.008227 0.220222
O O19 0.250000 0.041671 0.250000
#
# Coordination Sequence:
#
# PCOD8300982 Si02
#       8
#    16  16  16   8   8  16   8  16
#     4  12  21  36  58  81 113 144 186 239 284 327
#     4   9  18  35  58  85 113 145 188 233 286 339
#     4   9  18  35  59  85 113 148 186 232 284 344
#     4  11  24  40  54  77 114 149 189 228 271 346
#     4  10  22  40  62  84 120 164 200 234 281 350
#     4  10  21  38  57  85 120 150 189 238 288 340
#     4  11  24  40  60  79 106 157 195 222 277 342
#     4  11  23  35  53  84 117 145 182 234 288 338
#
# _framework density 18.333227999999998
#
# number of rings (size 3 to 8) (size 9 to 14) (size 15 to 20)
#    0.000    1.692    3.077    3.231    1.077    2.462 
#    1.385    0.769    3.385    0.000    0.000    0.000 
#    0.000    0.000    0.000    0.000    0.000    0.000 
#
# Total GULP energy -644733.151662 kJ/mol
# GULP energy per Si atom -12398.714455 kJ/mol
# Density = 1.829150 g / cm^3
# Si number density = 18.333228 Si / 1000 Ang^3
#
#
#
# Elastic Constant Matrix: (Units=GPa)
#
#
# Indices 1 2 3 4 5 6 
#
# 1 79.2784 21.5123 27.7673 0.0000 0.0000 0.0000
# 2 21.5123 79.5747 15.7404 0.0000 0.0000 0.0000
# 3 27.7673 15.7404 81.9411 0.0000 0.0000 0.0000
# 4 0.0000 0.0000 0.0000 -37.4552 0.0000 0.0000
# 5 0.0000 0.0000 0.0000 0.0000 30.3062 0.0000
# 6 0.0000 0.0000 0.0000 0.0000 0.0000 31.5928
#
#
#
# Elastic Compliance Matrix: (Units=1/GPa)
#
#
# Indices 1 2 3 4 5 6 
#
# 1 0.015049 -0.003180 -0.004489 0.000000 0.000000 0.000000
# 2 -0.003180 0.013735 -0.001561 0.000000 0.000000 0.000000
# 3 -0.004489 -0.001561 0.014025 0.000000 0.000000 0.000000
# 4 0.000000 0.000000 0.000000 -0.026699 0.000000 0.000000
# 5 0.000000 0.000000 0.000000 0.000000 0.032997 0.000000
# 6 0.000000 0.000000 0.000000 0.000000 0.000000 0.031653
#
#
# Mechanical properties :
#
#
# Convention : Reuss Voigt Hill
#
# Bulk Modulus (GPa) = 41.06885 41.20379 41.13632
# Shear Modulus (GPa) = 46.58268 16.60703 31.59486
#
# Velocity S-wave (km/s) = 5.04619 3.01299 4.15585
# Velocity P-wave (km/s) = 7.51013 5.88454 6.74647
#
# Compressibility (1/GPa) = 0.02434936
#
# Stress axis : x y z
#
# Youngs Moduli (GPa) = 66.44972 72.80488 71.30237
#
# Poissons Ratio (x) = 0.23155 0.32005
# Poissons Ratio (y) = 0.21134 0.11128
# Poissons Ratio (z) = 0.29827 0.11363
#
# Static dielectric constant tensor:
#      x y z
#    x 3.412190 0.000000 0.000000 
#    y 0.000000 3.398500 0.000000 
#    z 0.000000 0.000000 3.329160 
# 
# 
# High freq. dielectric constant tensor:
#      x y z
#    x 1.709940 0.000000 0.000000 
#    y 0.000000 1.704950 0.000000 
#    z 0.000000 0.000000 1.711390 
# 
# From -- ./inp_files/64826.got.cif
#   From: 2010.03.12/outbox.cif.g09.slc.cpg/sg74_33_cif.got.tgz:64826.got - 2010.04.16 15:46:19.
