data_PCOD8300313
_publ_section_title
;
Structure prediction by ZEFSAII (Michael W. Deem and Ramdas Pophale) SiO2 
 PCOD8300313
Probable space group: I M M A
;
_chemical_formula_sum "Si O2"
_cell_formula_units_Z 88
_cell_length_a 27.313850
_cell_length_b 8.595567
_cell_length_c 19.071880
_cell_angle_alpha 90.000000
_cell_angle_beta 90.000000
_cell_angle_gamma 90.000000
_cell_volume 4477.658371
_symmetry_space_group_name_H-M "I M M A"
_symmetry_group_IT_number 74
_symmetry_cell_setting 'orthorhombic'
loop_
_space_group_symop_operation_xyz
x,y,z
-x,1/2-y,z
x,-y,-z
-x,1/2+y,-z
-x,-y,-z
x,1/2+y,-z
-x,y,z
x,1/2-y,z
1/2+x,1/2+y,1/2+z
1/2-x,-y,1/2+z
1/2+x,1/2-y,1/2-z
1/2-x,y,1/2-z
1/2-x,1/2-y,1/2-z
1/2+x,y,1/2-z
1/2-x,1/2+y,1/2+z
1/2+x,-y,1/2+z
loop_
_atom_site_type_symbol
_atom_site_label
_atom_site_fract_x
_atom_site_fract_y
_atom_site_fract_z
Si Si1 0.904000 0.433250 0.645660
Si Si2 0.366159 0.567131 0.712811
Si Si3 0.500000 0.433087 0.077538
Si Si4 0.221161 0.425362 0.854304
Si Si5 0.874163 0.075255 0.927477
Si Si6 0.810312 0.932908 0.574189
O O1 0.910080 0.250000 0.640863
O O2 0.894594 0.483102 0.725236
O O3 0.860563 0.486091 0.595110
O O4 0.953066 0.513290 0.620250
O O5 0.365692 0.750000 0.726084
O O6 0.309968 0.502472 0.709685
O O7 0.393821 0.524379 0.639421
O O8 0.500000 0.250000 0.071287
O O9 0.500000 0.500000 0.000000
O O10 0.236978 0.250000 0.833792
O O11 0.185318 0.422256 0.922585
O O12 0.268731 0.528198 0.868991
O O13 0.895292 0.250000 0.923229
O O14 0.891636 0.000000 0.000000
O O15 0.818377 0.750000 0.570381
O O16 0.793040 0.000000 0.500000
#
# Coordination Sequence:
#
# PCOD8300313 Si02
#       6
#    16  16   8  16  16  16
#     4  12  25  44  65  89 120 155 196 250 309 366
#     4  10  20  36  57  85 119 158 201 247 298 357
#     4  12  26  48  74 100 123 152 197 250 306 364
#     4   9  19  34  53  79 114 156 200 242 286 343
#     4   9  17  29  49  77 113 155 200 244 286 338
#     4  12  24  38  57  84 117 159 205 252 302 358
#
# _framework density 19.653130000000001
#
# number of rings (size 3 to 8) (size 9 to 14) (size 15 to 20)
#    1.091    0.364    0.000    7.364    0.000    2.182 
#    0.000    3.636    0.000    0.000    0.000    0.636 
#    0.000    0.000    0.000    0.000    0.000    0.000 
#
# Total GULP energy -545456.262582 kJ/mol
# GULP energy per Si atom -12396.733241 kJ/mol
# Density = 1.960840 g / cm^3
# Si number density = 19.653130 Si / 1000 Ang^3
#
#
#
# Elastic Constant Matrix: (Units=GPa)
#
#
# Indices 1 2 3 4 5 6 
#
# 1 89.9677 35.1468 59.8519 0.0000 0.0000 0.0000
# 2 35.1468 161.9957 42.0241 0.0000 0.0000 0.0000
# 3 59.8519 42.0241 103.4882 0.0000 0.0000 0.0000
# 4 0.0000 0.0000 0.0000 37.2262 0.0000 0.0000
# 5 0.0000 0.0000 0.0000 0.0000 41.9333 0.0000
# 6 0.0000 0.0000 0.0000 0.0000 0.0000 28.7446
#
#
#
# Elastic Compliance Matrix: (Units=1/GPa)
#
#
# Indices 1 2 3 4 5 6 
#
# 1 0.018335 -0.001372 -0.010047 0.000000 0.000000 0.000000
# 2 -0.001372 0.007002 -0.002050 0.000000 0.000000 0.000000
# 3 -0.010047 -0.002050 0.016306 0.000000 0.000000 0.000000
# 4 0.000000 0.000000 0.000000 0.026863 0.000000 0.000000
# 5 0.000000 0.000000 0.000000 0.000000 0.023847 0.000000
# 6 0.000000 0.000000 0.000000 0.000000 0.000000 0.034789
#
#
# Mechanical properties :
#
#
# Convention : Reuss Voigt Hill
#
# Bulk Modulus (GPa) = 68.00038 69.94413 68.97226
# Shear Modulus (GPa) = 31.45015 36.14274 33.79645
#
# Velocity S-wave (km/s) = 4.00467 4.29305 4.15136
# Velocity P-wave (km/s) = 7.48723 7.76146 7.62557
#
# Compressibility (1/GPa) = 0.01470580
#
# Stress axis : x y z
#
# Youngs Moduli (GPa) = 54.54146 142.80696 61.32707
#
# Poissons Ratio (x) = 0.19588 0.61614
# Poissons Ratio (y) = 0.07481 0.12574
# Poissons Ratio (z) = 0.54797 0.29279
#
# Static dielectric constant tensor:
#      x y z
#    x 3.223290 0.000000 0.000000 
#    y 0.000000 3.681370 0.000000 
#    z 0.000000 0.000000 3.603920 
# 
# 
# High freq. dielectric constant tensor:
#      x y z
#    x 1.725850 0.000000 0.000000 
#    y 0.000000 1.787140 0.000000 
#    z 0.000000 0.000000 1.771580 
# 
# From -- ./inp_files/54516.got.cif
#   From: 2010.03.12/outbox.cif.g09.slc.cpg/sg74_28_cif.got.tgz:54516.got - 2010.04.16 15:46:19.
