data_PCOD8300358
_publ_section_title
;
Structure prediction by ZEFSAII (Michael W. Deem and Ramdas Pophale) SiO2 
 PCOD8300358
Probable space group: I M M A
;
_chemical_formula_sum "Si O2"
_cell_formula_units_Z 88
_cell_length_a 17.898331
_cell_length_b 9.113635
_cell_length_c 28.573939
_cell_angle_alpha 90.000000
_cell_angle_beta 90.000000
_cell_angle_gamma 90.000000
_cell_volume 4660.948237
_symmetry_space_group_name_H-M "I M M A"
_symmetry_group_IT_number 74
_symmetry_cell_setting 'orthorhombic'
loop_
_space_group_symop_operation_xyz
x,y,z
-x,1/2-y,z
x,-y,-z
-x,1/2+y,-z
-x,-y,-z
x,1/2+y,-z
-x,y,z
x,1/2-y,z
1/2+x,1/2+y,1/2+z
1/2-x,-y,1/2+z
1/2+x,1/2-y,1/2-z
1/2-x,y,1/2-z
1/2-x,1/2-y,1/2-z
1/2+x,y,1/2-z
1/2-x,1/2+y,1/2+z
1/2+x,-y,1/2+z
loop_
_atom_site_type_symbol
_atom_site_label
_atom_site_fract_x
_atom_site_fract_y
_atom_site_fract_z
Si Si1 0.180002 0.415531 0.216404
Si Si2 0.374025 0.421185 0.889757
Si Si3 0.706428 0.579873 0.379072
Si Si4 0.415395 0.078416 0.547875
Si Si5 0.500000 0.426512 0.050652
Si Si6 0.087817 0.413058 0.713326
O O1 0.158092 0.250000 0.204264
O O2 0.250000 0.426514 0.250000
O O3 0.200132 0.496190 0.169140
O O4 0.110432 0.487204 0.243054
O O5 0.397641 0.250000 0.894825
O O6 0.287245 0.445761 0.903314
O O7 0.425569 0.520864 0.922616
O O8 0.382840 0.474912 0.836195
O O9 0.694182 0.750000 0.367897
O O10 0.641878 0.519877 0.413196
O O11 0.500000 0.040788 0.563854
O O12 0.404880 0.250000 0.539514
O O13 0.394667 0.000000 0.500000
O O14 0.500000 0.250000 0.046731
O O15 0.500000 0.500000 0.000000
O O16 0.121029 0.250000 0.721093
O O17 0.000000 0.408813 0.711078
#
# Coordination Sequence:
#
# PCOD8300358 Si02
#       6
#    16  16  16  16   8  16
#     4  11  23  36  53  83 121 155 192 237 286 340
#     4  10  20  38  61  85 113 149 198 245 294 352
#     4  10  21  37  61  88 118 156 197 242 289 347
#     4   9  19  37  60  86 115 148 187 232 286 347
#     4  12  26  42  62  86 118 156 196 248 305 358
#     4  10  20  36  59  82 108 151 200 241 286 348
#
# _framework density 18.880279000000002
#
# number of rings (size 3 to 8) (size 9 to 14) (size 15 to 20)
#    0.000    1.818    2.727    1.364    0.000    4.727 
#    0.000    3.636    0.000    0.000    0.000    0.000 
#    0.000    0.000    0.000    0.000    0.000    0.000 
#
# Total GULP energy -545668.306776 kJ/mol
# GULP energy per Si atom -12401.552427 kJ/mol
# Density = 1.883731 g / cm^3
# Si number density = 18.880279 Si / 1000 Ang^3
#
#
#
# Elastic Constant Matrix: (Units=GPa)
#
#
# Indices 1 2 3 4 5 6 
#
# 1 105.8103 47.4332 60.9097 0.0000 0.0000 0.0000
# 2 47.4332 89.6328 62.4739 0.0000 0.0000 0.0000
# 3 60.9097 62.4739 111.3051 0.0000 0.0000 0.0000
# 4 0.0000 0.0000 0.0000 34.0449 0.0000 0.0000
# 5 0.0000 0.0000 0.0000 0.0000 32.2456 0.0000
# 6 0.0000 0.0000 0.0000 0.0000 0.0000 23.5689
#
#
#
# Elastic Compliance Matrix: (Units=1/GPa)
#
#
# Indices 1 2 3 4 5 6 
#
# 1 0.014438 -0.003505 -0.005934 0.000000 0.000000 0.000000
# 2 -0.003505 0.019177 -0.008846 0.000000 0.000000 0.000000
# 3 -0.005934 -0.008846 0.017196 0.000000 0.000000 0.000000
# 4 0.000000 0.000000 0.000000 0.029373 0.000000 0.000000
# 5 0.000000 0.000000 0.000000 0.000000 0.031012 0.000000
# 6 0.000000 0.000000 0.000000 0.000000 0.000000 0.042429
#
#
# Mechanical properties :
#
#
# Convention : Reuss Voigt Hill
#
# Bulk Modulus (GPa) = 70.21132 72.04240 71.12686
# Shear Modulus (GPa) = 25.64889 27.03398 26.34144
#
# Velocity S-wave (km/s) = 3.68978 3.78810 3.73927
# Velocity P-wave (km/s) = 7.44453 7.57452 7.50981
#
# Compressibility (1/GPa) = 0.01424272
#
# Stress axis : x y z
#
# Youngs Moduli (GPa) = 69.26341 52.14659 58.15164
#
# Poissons Ratio (x) = 0.18275 0.34505
# Poissons Ratio (y) = 0.24274 0.51440
# Poissons Ratio (z) = 0.41099 0.46128
#
# Static dielectric constant tensor:
#      x y z
#    x 4.172440 0.000000 0.000000 
#    y 0.000000 3.505230 0.000000 
#    z 0.000000 0.000000 3.299550 
# 
# 
# High freq. dielectric constant tensor:
#      x y z
#    x 1.744320 0.000000 0.000000 
#    y 0.000000 1.726630 0.000000 
#    z 0.000000 0.000000 1.729790 
# 
# From -- ./inp_files/72980.got.cif
#   From: 2010.03.12/outbox.cif.g09.slc.cpg/sg74_37_cif.got.tgz:72980.got - 2010.04.16 15:46:19.
