data_PCOD8300360
_publ_section_title
;
Structure prediction by ZEFSAII (Michael W. Deem and Ramdas Pophale) SiO2 
 PCOD8300360
Probable space group: I M M A
;
_chemical_formula_sum "Si O2"
_cell_formula_units_Z 88
_cell_length_a 11.647747
_cell_length_b 22.633151
_cell_length_c 17.679589
_cell_angle_alpha 90.000000
_cell_angle_beta 90.000000
_cell_angle_gamma 90.000000
_cell_volume 4660.785481
_symmetry_space_group_name_H-M "I M M A"
_symmetry_group_IT_number 74
_symmetry_cell_setting 'orthorhombic'
loop_
_space_group_symop_operation_xyz
x,y,z
-x,1/2-y,z
x,-y,-z
-x,1/2+y,-z
-x,-y,-z
x,1/2+y,-z
-x,y,z
x,1/2-y,z
1/2+x,1/2+y,1/2+z
1/2-x,-y,1/2+z
1/2+x,1/2-y,1/2-z
1/2-x,y,1/2-z
1/2-x,1/2-y,1/2-z
1/2+x,y,1/2-z
1/2-x,1/2+y,1/2+z
1/2+x,-y,1/2+z
loop_
_atom_site_type_symbol
_atom_site_label
_atom_site_fract_x
_atom_site_fract_y
_atom_site_fract_z
Si Si1 0.500000 0.441279 0.411743
Si Si2 0.233633 0.453414 0.161547
Si Si3 0.132098 0.250000 0.297655
Si Si4 0.232763 0.089457 0.838889
Si Si5 0.500000 0.080935 0.580578
Si Si6 0.363774 0.684544 0.071128
Si Si7 0.370263 0.144926 0.087586
O O1 0.389338 0.426130 0.361423
O O2 0.500000 0.403164 0.490434
O O3 0.500000 0.510928 0.423008
O O4 0.250000 0.442960 0.250000
O O5 0.253940 0.521413 0.138513
O O6 0.324868 0.418262 0.112775
O O7 0.250000 0.250000 0.250000
O O8 0.143628 0.191656 0.346426
O O9 0.000000 0.250000 0.260062
O O10 0.250000 0.096640 0.750000
O O11 0.326098 0.133721 0.871831
O O12 0.108201 0.106910 0.872795
O O13 0.500000 0.686133 0.069635
O O14 0.318172 0.750000 0.094811
O O15 0.310576 0.669102 0.988698
O O16 0.500000 0.133418 0.065872
#
# Coordination Sequence:
#
# PCOD8300360 Si02
#       7
#     8  16   8  16   8  16  16
#     4   9  18  34  56  77 117 165 183 220 296 360
#     4  10  21  35  55  88 120 151 193 238 290 354
#     4  10  20  38  60  84 117 160 202 242 297 356
#     4  10  22  37  60  86 116 149 189 246 298 352
#     4   9  18  36  57  82 114 152 191 227 293 368
#     4  10  21  39  61  83 111 153 198 241 292 353
#     4  10  20  36  59  83 116 155 192 239 294 348
#
# _framework density 18.880938
#
# number of rings (size 3 to 8) (size 9 to 14) (size 15 to 20)
#    0.000    2.182    0.909    1.636    2.545    3.273 
#    1.636    2.273    0.000    0.000    0.000    0.000 
#    0.000    0.000    0.000    0.000    0.000    0.000 
#
# Total GULP energy -545175.197346 kJ/mol
# GULP energy per Si atom -12390.345394 kJ/mol
# Density = 1.883796 g / cm^3
# Si number density = 18.880938 Si / 1000 Ang^3
#
#
#
# Elastic Constant Matrix: (Units=GPa)
#
#
# Indices 1 2 3 4 5 6 
#
# 1 70.2462 44.2979 56.3156 0.0000 0.0000 0.0000
# 2 44.2979 104.8848 50.9102 0.0001 0.0000 0.0000
# 3 56.3156 50.9102 109.2224 0.0002 0.0000 0.0000
# 4 0.0000 0.0001 0.0002 33.3669 0.0000 0.0000
# 5 0.0000 0.0000 0.0000 0.0000 35.5227 0.0000
# 6 0.0000 0.0000 0.0000 0.0000 0.0000 29.4751
#
#
#
# Elastic Compliance Matrix: (Units=1/GPa)
#
#
# Indices 1 2 3 4 5 6 
#
# 1 0.026885 -0.005979 -0.011075 0.000000 0.000000 0.000000
# 2 -0.005979 0.013652 -0.003281 0.000000 0.000000 0.000000
# 3 -0.011075 -0.003281 0.016395 0.000000 0.000000 0.000000
# 4 0.000000 0.000000 0.000000 0.029970 0.000000 0.000000
# 5 0.000000 0.000000 0.000000 0.000000 0.028151 0.000000
# 6 0.000000 0.000000 0.000000 0.000000 0.000000 0.033927
#
#
# Mechanical properties :
#
#
# Convention : Reuss Voigt Hill
#
# Bulk Modulus (GPa) = 61.49083 65.26675 63.37879
# Shear Modulus (GPa) = 25.63191 28.52825 27.08008
#
# Velocity S-wave (km/s) = 3.68850 3.89132 3.79126
# Velocity P-wave (km/s) = 7.12590 7.40489 7.26673
#
# Compressibility (1/GPa) = 0.01626259
#
# Stress axis : x y z
#
# Youngs Moduli (GPa) = 37.19579 73.25030 60.99398
#
# Poissons Ratio (x) = 0.43796 0.67551
# Poissons Ratio (y) = 0.22239 0.20009
# Poissons Ratio (z) = 0.41194 0.24030
#
# Static dielectric constant tensor:
#      x y z
#    x 3.581700 0.000000 0.000000 
#    y 0.000000 3.406780 0.000000 
#    z 0.000000 0.000000 3.177580 
# 
# 
# High freq. dielectric constant tensor:
#      x y z
#    x 1.729090 0.000000 0.000000 
#    y 0.000000 1.725590 0.000000 
#    z 0.000000 0.000000 1.737180 
# 
# From -- ./inp_files/30830.got.cif
#   From: 2010.03.12/outbox.cif.g09.slc.cpg/sg74_16_cif.got.tgz:30830.got - 2010.04.16 15:46:19.
