data_PCOD8300342
_publ_section_title
;
Structure prediction by ZEFSAII (Michael W. Deem and Ramdas Pophale) SiO2 
 PCOD8300342
Probable space group: I M M A
;
_chemical_formula_sum "Si O2"
_cell_formula_units_Z 80
_cell_length_a 19.192429
_cell_length_b 25.082557
_cell_length_c 8.358579
_cell_angle_alpha 90.000000
_cell_angle_beta 90.000000
_cell_angle_gamma 90.000000
_cell_volume 4023.779762
_symmetry_space_group_name_H-M "I M M A"
_symmetry_group_IT_number 74
_symmetry_cell_setting 'orthorhombic'
loop_
_space_group_symop_operation_xyz
x,y,z
-x,1/2-y,z
x,-y,-z
-x,1/2+y,-z
-x,-y,-z
x,1/2+y,-z
-x,y,z
x,1/2-y,z
1/2+x,1/2+y,1/2+z
1/2-x,-y,1/2+z
1/2+x,1/2-y,1/2-z
1/2-x,y,1/2-z
1/2-x,1/2-y,1/2-z
1/2+x,y,1/2-z
1/2-x,1/2+y,1/2+z
1/2+x,-y,1/2+z
loop_
_atom_site_type_symbol
_atom_site_label
_atom_site_fract_x
_atom_site_fract_y
_atom_site_fract_z
Si Si1 0.922589 0.402163 0.748501
Si Si2 0.699590 0.050410 0.896903
Si Si3 0.676913 0.621510 0.817350
Si Si4 0.580139 0.942828 0.580614
Si Si5 0.919299 0.810349 0.489272
O O1 0.878148 0.451330 0.676022
O O2 0.903273 0.345260 0.669589
O O3 0.000000 0.419341 0.702935
O O4 0.913198 0.398455 0.940058
O O5 0.750000 0.060083 0.750000
O O6 0.703579 0.099856 0.014111
O O7 0.720980 0.000000 0.000000
O O8 0.750000 0.643365 0.750000
O O9 0.636712 0.575023 0.715030
O O10 0.623374 0.669351 0.854862
O O11 0.500000 0.944004 0.647135
O O12 0.599221 0.000000 0.500000
O O13 0.897392 0.750000 0.449297
O O14 0.000000 0.814290 0.537339
#
# Coordination Sequence:
#
# PCOD8300342 Si02
#       5
#    16  16  16  16  16
#     4   9  19  35  56  81 108 140 181 229 278 330
#     4  11  22  35  53  77 111 151 189 223 267 327
#     4  11  22  34  54  82 115 150 186 232 282 335
#     4  10  20  36  58  85 118 151 185 227 276 332
#     4   9  19  38  60  79 104 143 191 239 284 331
#
# _framework density 19.881803999999999
#
# number of rings (size 3 to 8) (size 9 to 14) (size 15 to 20)
#    0.000    2.000    0.000    3.600    0.000    3.200 
#    0.000    1.000    0.000   24.000    0.000    0.000 
#    0.000    0.000    0.000    0.000    0.000    0.000 
#
# Total GULP energy -495590.840286 kJ/mol
# GULP energy per Si atom -12389.771007 kJ/mol
# Density = 1.983655 g / cm^3
# Si number density = 19.881804 Si / 1000 Ang^3
#
#
#
# Elastic Constant Matrix: (Units=GPa)
#
#
# Indices 1 2 3 4 5 6 
#
# 1 113.7199 51.1638 61.9311 0.0000 0.0000 0.0000
# 2 51.1638 95.2778 44.8170 0.0000 0.0000 0.0000
# 3 61.9311 44.8170 111.7252 0.0000 0.0000 0.0000
# 4 0.0000 0.0000 0.0000 21.9310 0.0000 0.0000
# 5 0.0000 0.0000 0.0000 0.0000 33.8190 0.0000
# 6 0.0000 0.0000 0.0000 0.0000 0.0000 30.6349
#
#
#
# Elastic Compliance Matrix: (Units=1/GPa)
#
#
# Indices 1 2 3 4 5 6 
#
# 1 0.014199 -0.004835 -0.005931 0.000000 0.000000 0.000000
# 2 -0.004835 0.014583 -0.003170 0.000000 0.000000 0.000000
# 3 -0.005931 -0.003170 0.013510 0.000000 0.000000 0.000000
# 4 0.000000 0.000000 0.000000 0.045597 0.000000 0.000000
# 5 0.000000 0.000000 0.000000 0.000000 0.029569 0.000000
# 6 0.000000 0.000000 0.000000 0.000000 0.000000 0.032642
#
#
# Mechanical properties :
#
#
# Convention : Reuss Voigt Hill
#
# Bulk Modulus (GPa) = 69.34793 70.72741 70.03767
# Shear Modulus (GPa) = 27.35547 28.13107 27.74327
#
# Velocity S-wave (km/s) = 3.71334 3.76562 3.73957
# Velocity P-wave (km/s) = 7.30350 7.38632 7.34502
#
# Compressibility (1/GPa) = 0.01442004
#
# Stress axis : x y z
#
# Youngs Moduli (GPa) = 70.42809 68.57365 74.02027
#
# Poissons Ratio (x) = 0.33154 0.43903
# Poissons Ratio (y) = 0.34050 0.23462
# Poissons Ratio (z) = 0.41773 0.21736
#
# Static dielectric constant tensor:
#      x y z
#    x 3.903720 0.000000 0.000000 
#    y 0.000000 3.520470 0.000000 
#    z 0.000000 0.000000 4.018860 
# 
# 
# High freq. dielectric constant tensor:
#      x y z
#    x 1.791490 0.000000 0.000000 
#    y 0.000000 1.739990 0.000000 
#    z 0.000000 0.000000 1.778930 
# 
# From -- ./inp_files/10927.got.cif
#   From: 2010.03.12/outbox.cif.g09.slc.cpg/sg74_6_cif.got.tgz:10927.got - 2010.04.16 15:46:19.
