data_PCOD8300830
_publ_section_title
;
Structure prediction by ZEFSAII (Michael W. Deem and Ramdas Pophale) SiO2 
 PCOD8300830
Probable space group: I M M A
;
_chemical_formula_sum "Si O2"
_cell_formula_units_Z 80
_cell_length_a 9.892669
_cell_length_b 17.983879
_cell_length_c 23.634700
_cell_angle_alpha 90.000000
_cell_angle_beta 90.000000
_cell_angle_gamma 90.000000
_cell_volume 4204.815497
_symmetry_space_group_name_H-M "I M M A"
_symmetry_group_IT_number 74
_symmetry_cell_setting 'orthorhombic'
loop_
_space_group_symop_operation_xyz
x,y,z
-x,1/2-y,z
x,-y,-z
-x,1/2+y,-z
-x,-y,-z
x,1/2+y,-z
-x,y,z
x,1/2-y,z
1/2+x,1/2+y,1/2+z
1/2-x,-y,1/2+z
1/2+x,1/2-y,1/2-z
1/2-x,y,1/2-z
1/2-x,1/2-y,1/2-z
1/2+x,y,1/2-z
1/2-x,1/2+y,1/2+z
1/2+x,-y,1/2+z
loop_
_atom_site_type_symbol
_atom_site_label
_atom_site_fract_x
_atom_site_fract_y
_atom_site_fract_z
Si Si1 0.154845 0.563810 0.902101
Si Si2 0.000000 0.840208 0.305391
Si Si3 0.739355 0.903005 0.120780
Si Si4 0.000000 0.836796 0.175166
Si Si5 0.149564 0.087981 0.497961
Si Si6 0.850222 0.334092 0.204683
O O1 0.234692 0.491351 0.880436
O O2 0.234158 0.606107 0.952497
O O3 0.154976 0.622283 0.852796
O O4 0.000000 0.544172 0.920620
O O5 0.871160 0.878598 0.333657
O O6 0.000000 0.750000 0.312538
O O7 0.000000 0.866232 0.239804
O O8 0.873763 0.862254 0.138985
O O9 0.693056 0.877326 0.058254
O O10 0.000000 0.750000 0.179647
O O11 0.000000 0.119753 0.481706
O O12 0.139583 0.000000 0.500000
O O13 0.804492 0.250000 0.191576
O O14 0.750000 0.371283 0.250000
O O15 0.000000 0.336892 0.230911
#
# Coordination Sequence:
#
# PCOD8300830 Si02
#       6
#    16   8  16   8  16  16
#     4  10  21  36  59  91 118 150 191 241 289 344
#     4  11  24  42  61  82 119 163 201 248 303 352
#     4  11  21  39  61  87 115 152 197 246 290 350
#     4  11  24  40  59  84 117 159 201 244 303 356
#     4   9  19  35  59  85 114 148 187 234 294 346
#     4   9  19  37  57  80 115 154 186 224 281 341
#
# _framework density 19.025804000000001
#
# number of rings (size 3 to 8) (size 9 to 14) (size 15 to 20)
#    0.000    2.000    2.000    1.200    2.800    5.200 
#    0.000    2.000    0.000    0.000    0.000    0.000 
#    0.000    0.000    0.000    0.000    0.000    0.000 
#
# Total GULP energy -495803.329117 kJ/mol
# GULP energy per Si atom -12395.083228 kJ/mol
# Density = 1.898250 g / cm^3
# Si number density = 19.025804 Si / 1000 Ang^3
#
#
#
# Elastic Constant Matrix: (Units=GPa)
#
#
# Indices 1 2 3 4 5 6 
#
# 1 159.0006 29.8897 71.7138 0.0000 0.0000 0.0000
# 2 29.8897 39.0159 28.3171 0.0000 0.0000 0.0000
# 3 71.7138 28.3171 111.7289 0.0000 0.0000 0.0000
# 4 0.0000 0.0000 0.0000 90.9246 0.0000 0.0000
# 5 0.0000 0.0000 0.0000 0.0000 -56.1167 0.0000
# 6 0.0000 0.0000 0.0000 0.0000 0.0000 22.7146
#
#
#
# Elastic Compliance Matrix: (Units=1/GPa)
#
#
# Indices 1 2 3 4 5 6 
#
# 1 0.009203 -0.003386 -0.005049 0.000000 0.000000 0.000000
# 2 -0.003386 0.032654 -0.006103 0.000000 0.000000 0.000000
# 3 -0.005049 -0.006103 0.013738 0.000000 0.000000 0.000000
# 4 0.000000 0.000000 0.000000 0.010998 0.000000 0.000000
# 5 0.000000 0.000000 0.000000 0.000000 -0.017820 0.000000
# 6 0.000000 0.000000 0.000000 0.000000 0.000000 0.044025
#
#
# Mechanical properties :
#
#
# Convention : Reuss Voigt Hill
#
# Bulk Modulus (GPa) = 37.70825 63.28742 50.49784
# Shear Modulus (GPa) = 38.25222 23.49282 30.87252
#
# Velocity S-wave (km/s) = 4.48877 3.51777 4.03260
# Velocity P-wave (km/s) = 6.83579 7.05945 6.94852
#
# Compressibility (1/GPa) = 0.02651939
#
# Stress axis : x y z
#
# Youngs Moduli (GPa) = 108.66078 30.62440 72.79334
#
# Poissons Ratio (x) = 0.10369 0.36752
# Poissons Ratio (y) = 0.36792 0.44423
# Poissons Ratio (z) = 0.54861 0.18689
#
# Static dielectric constant tensor:
#      x y z
#    x 4.145820 0.000000 0.000000 
#    y 0.000000 3.281850 0.000000 
#    z 0.000000 0.000000 3.748970 
# 
# 
# High freq. dielectric constant tensor:
#      x y z
#    x 1.762380 0.000000 0.000000 
#    y 0.000000 1.715760 0.000000 
#    z 0.000000 0.000000 1.744340 
# 
# From -- ./inp_files/56898.got.cif
#   From: 2010.03.12/outbox.cif.g09.slc.cpg/sg74_29_cif.got.tgz:56898.got - 2010.04.16 15:46:19.
