data_PCOD8300773
_publ_section_title
;
Structure prediction by ZEFSAII (Michael W. Deem and Ramdas Pophale) SiO2 
 PCOD8300773
Probable space group: I M M A
;
_chemical_formula_sum "Si O2"
_cell_formula_units_Z 96
_cell_length_a 20.016652
_cell_length_b 8.816041
_cell_length_c 27.523120
_cell_angle_alpha 90.000000
_cell_angle_beta 90.000000
_cell_angle_gamma 90.000000
_cell_volume 4856.939611
_symmetry_space_group_name_H-M "I M M A"
_symmetry_group_IT_number 74
_symmetry_cell_setting 'orthorhombic'
loop_
_space_group_symop_operation_xyz
x,y,z
-x,1/2-y,z
x,-y,-z
-x,1/2+y,-z
-x,-y,-z
x,1/2+y,-z
-x,y,z
x,1/2-y,z
1/2+x,1/2+y,1/2+z
1/2-x,-y,1/2+z
1/2+x,1/2-y,1/2-z
1/2-x,y,1/2-z
1/2-x,1/2-y,1/2-z
1/2+x,y,1/2-z
1/2-x,1/2+y,1/2+z
1/2+x,-y,1/2+z
loop_
_atom_site_type_symbol
_atom_site_label
_atom_site_fract_x
_atom_site_fract_y
_atom_site_fract_z
Si Si1 0.423493 0.074807 0.295887
Si Si2 0.805420 0.072513 0.616770
Si Si3 0.425299 0.428164 0.949976
Si Si4 0.684405 0.576669 0.781618
Si Si5 0.076992 0.572769 0.103465
Si Si6 0.304855 0.429048 0.449021
O O1 0.500000 0.044847 0.281273
O O2 0.410449 0.250000 0.309444
O O3 0.379018 0.025100 0.250263
O O4 0.402344 0.976141 0.342287
O O5 0.791420 0.250000 0.609727
O O6 0.875145 0.021818 0.592392
O O7 0.810825 0.034735 0.673152
O O8 0.744845 0.980647 0.593305
O O9 0.500000 0.486451 0.936810
O O10 0.425045 0.250000 0.957325
O O11 0.399682 0.500000 0.000000
O O12 0.676399 0.750000 0.799498
O O13 0.750000 0.556872 0.750000
O O14 0.090824 0.750000 0.097705
O O15 0.120555 0.483526 0.063995
O O16 0.000000 0.530737 0.093510
O O17 0.281768 0.500000 0.500000
O O18 0.303650 0.250000 0.453857
#
# Coordination Sequence:
#
# PCOD8300773 Si02
#       6
#    16  16  16  16  16  16
#     4   9  18  34  56  82 114 152 191 231 279 335
#     4  11  23  38  58  84 114 148 189 237 286 337
#     4   9  19  36  57  82 112 146 183 224 273 329
#     4  10  21  36  54  78 109 146 188 233 280 331
#     4  10  21  38  61  89 119 150 187 231 280 336
#     4  12  25  41  61  84 114 150 189 234 283 338
#
# _framework density 19.765533000000001
#
# number of rings (size 3 to 8) (size 9 to 14) (size 15 to 20)
#    0.000    1.833    0.000    4.000    0.000    7.000 
#    0.000    0.000    0.000    0.000    0.000    0.000 
#    0.000    0.000    0.000    0.000    0.000    0.000 
#
# Total GULP energy -595464.713829 kJ/mol
# GULP energy per Si atom -12405.514871 kJ/mol
# Density = 1.972055 g / cm^3
# Si number density = 19.765533 Si / 1000 Ang^3
#
#
#
# Elastic Constant Matrix: (Units=GPa)
#
#
# Indices 1 2 3 4 5 6 
#
# 1 90.2669 36.5649 39.4295 0.0000 0.0000 0.0000
# 2 36.5649 88.0274 35.5185 0.0000 0.0000 0.0000
# 3 39.4295 35.5185 90.8610 0.0000 0.0000 0.0000
# 4 0.0000 0.0000 0.0000 38.2405 0.0000 0.0000
# 5 0.0000 0.0000 0.0000 0.0000 32.5191 0.0000
# 6 0.0000 0.0000 0.0000 0.0000 0.0000 22.5983
#
#
#
# Elastic Compliance Matrix: (Units=1/GPa)
#
#
# Indices 1 2 3 4 5 6 
#
# 1 0.014898 -0.004250 -0.004804 0.000000 0.000000 0.000000
# 2 -0.004250 0.014700 -0.003902 0.000000 0.000000 0.000000
# 3 -0.004804 -0.003902 0.014616 0.000000 0.000000 0.000000
# 4 0.000000 0.000000 0.000000 0.026150 0.000000 0.000000
# 5 0.000000 0.000000 0.000000 0.000000 0.030751 0.000000
# 6 0.000000 0.000000 0.000000 0.000000 0.000000 0.044251
#
#
# Mechanical properties :
#
#
# Convention : Reuss Voigt Hill
#
# Bulk Modulus (GPa) = 54.63826 54.68677 54.66251
# Shear Modulus (GPa) = 28.18824 29.18107 28.68465
#
# Velocity S-wave (km/s) = 3.78051 3.84651 3.81366
# Velocity P-wave (km/s) = 6.83810 6.88878 6.86349
#
# Compressibility (1/GPa) = 0.01830219
#
# Stress axis : x y z
#
# Youngs Moduli (GPa) = 67.12217 68.02734 68.41941
#
# Poissons Ratio (x) = 0.28913 0.32867
# Poissons Ratio (y) = 0.28528 0.26697
# Poissons Ratio (z) = 0.32243 0.26544
#
# Static dielectric constant tensor:
#      x y z
#    x 3.906160 0.000000 0.000000 
#    y 0.000000 3.556530 0.000000 
#    z 0.000000 0.000000 3.500610 
# 
# 
# High freq. dielectric constant tensor:
#      x y z
#    x 1.785250 0.000000 0.000000 
#    y 0.000000 1.769460 0.000000 
#    z 0.000000 0.000000 1.767340 
# 
# From -- ./inp_files/68117.got.cif
#   From: 2010.03.12/outbox.cif.g09.slc.cpg/sg74_35_cif.got.tgz:68117.got - 2010.04.16 15:46:19.
