data_PCOD8300171
_publ_section_title
;
Structure prediction by ZEFSAII (Michael W. Deem and Ramdas Pophale) SiO2 
 PCOD8300171
Probable space group: I M M A
;
_chemical_formula_sum "Si O2"
_cell_formula_units_Z 96
_cell_length_a 24.874186
_cell_length_b 9.024916
_cell_length_c 20.126719
_cell_angle_alpha 90.000000
_cell_angle_beta 90.000000
_cell_angle_gamma 90.000000
_cell_volume 4518.195608
_symmetry_space_group_name_H-M "I M M A"
_symmetry_group_IT_number 74
_symmetry_cell_setting 'orthorhombic'
loop_
_space_group_symop_operation_xyz
x,y,z
-x,1/2-y,z
x,-y,-z
-x,1/2+y,-z
-x,-y,-z
x,1/2+y,-z
-x,y,z
x,1/2-y,z
1/2+x,1/2+y,1/2+z
1/2-x,-y,1/2+z
1/2+x,1/2-y,1/2-z
1/2-x,y,1/2-z
1/2-x,1/2-y,1/2-z
1/2+x,y,1/2-z
1/2-x,1/2+y,1/2+z
1/2+x,-y,1/2+z
loop_
_atom_site_type_symbol
_atom_site_label
_atom_site_fract_x
_atom_site_fract_y
_atom_site_fract_z
Si Si1 0.941184 0.074094 0.385013
Si Si2 0.937895 0.922534 0.110828
Si Si3 0.669869 0.574783 0.934692
Si Si4 0.836843 0.425075 0.065031
Si Si5 0.252555 0.575043 0.674651
Si Si6 0.562451 0.588297 0.739094
O O1 0.945593 0.250000 0.383914
O O2 0.892683 0.021915 0.431926
O O3 0.923870 0.022439 0.311255
O O4 0.000000 0.007881 0.406439
O O5 0.927025 0.750000 0.099820
O O6 0.000000 0.963450 0.094832
O O7 0.898586 0.018723 0.065079
O O8 0.921175 0.965356 0.185844
O O9 0.675537 0.750000 0.942264
O O10 0.701049 0.521892 0.868404
O O11 0.695268 0.500000 0.000000
O O12 0.835047 0.250000 0.055667
O O13 0.805533 0.473514 0.132635
O O14 0.809392 0.500000 0.000000
O O15 0.251789 0.750000 0.681794
O O16 0.250000 0.506263 0.750000
O O17 0.500000 0.619923 0.735173
O O18 0.591296 0.750000 0.726154
#
# Coordination Sequence:
#
# PCOD8300171 Si02
#       6
#    16  16  16  16  16  16
#     4   8  15  28  50  81 113 148 191 234 276 329
#     4  10  21  36  55  83 120 156 190 232 286 348
#     4  10  20  35  57  82 115 153 188 233 282 336
#     4  11  23  39  62  87 117 154 193 240 289 344
#     4   9  20  38  62  89 111 142 193 245 288 335
#     4   8  14  27  49  77 107 143 190 237 278 324
#
# _framework density 21.247420000000002
#
# number of rings (size 3 to 8) (size 9 to 14) (size 15 to 20)
#    0.000    2.667    0.000    2.500    2.333    1.667 
#    0.000    1.667    0.000    3.500    0.000    0.000 
#    0.000    0.000    0.000    0.000    0.000    0.000 
#
# Total GULP energy -594631.778510 kJ/mol
# GULP energy per Si atom -12388.162052 kJ/mol
# Density = 2.119906 g / cm^3
# Si number density = 21.247420 Si / 1000 Ang^3
#
#
#
# Elastic Constant Matrix: (Units=GPa)
#
#
# Indices 1 2 3 4 5 6 
#
# 1 122.9155 30.6694 55.5256 0.0000 0.0000 0.0000
# 2 30.6694 52.7503 32.9584 0.0000 0.0000 0.0000
# 3 55.5256 32.9584 155.2269 0.0000 0.0000 0.0000
# 4 0.0000 0.0000 0.0000 13.1046 0.0000 0.0000
# 5 0.0000 0.0000 0.0000 0.0000 18.2340 0.0000
# 6 0.0000 0.0000 0.0000 0.0000 0.0000 12.9675
#
#
#
# Elastic Compliance Matrix: (Units=1/GPa)
#
#
# Indices 1 2 3 4 5 6 
#
# 1 0.010497 -0.004332 -0.002835 0.000000 0.000000 0.000000
# 2 -0.004332 0.023644 -0.003471 0.000000 0.000000 0.000000
# 3 -0.002835 -0.003471 0.008193 0.000000 0.000000 0.000000
# 4 0.000000 0.000000 0.000000 0.076309 0.000000 0.000000
# 5 0.000000 0.000000 0.000000 0.000000 0.054843 0.000000
# 6 0.000000 0.000000 0.000000 0.000000 0.000000 0.077116
#
#
# Mechanical properties :
#
#
# Convention : Reuss Voigt Hill
#
# Bulk Modulus (GPa) = 47.48473 63.24439 55.36456
# Shear Modulus (GPa) = 17.92773 22.97718 20.45245
#
# Velocity S-wave (km/s) = 2.90791 3.29205 3.10592
# Velocity P-wave (km/s) = 5.80272 6.65435 6.24307
#
# Compressibility (1/GPa) = 0.02105940
#
# Stress axis : x y z
#
# Youngs Moduli (GPa) = 95.26279 42.29354 122.05128
#
# Poissons Ratio (x) = 0.18321 0.34604
# Poissons Ratio (y) = 0.41266 0.42361
# Poissons Ratio (z) = 0.27009 0.14679
#
# Static dielectric constant tensor:
#      x y z
#    x 4.008270 0.000000 0.000000 
#    y 0.000000 2.633220 0.000000 
#    z 0.000000 0.000000 4.364740 
# 
# 
# High freq. dielectric constant tensor:
#      x y z
#    x 1.835940 0.000000 0.000000 
#    y 0.000000 1.779670 0.000000 
#    z 0.000000 0.000000 1.840080 
# 
# From -- ./inp_files/55052.got.cif
#   From: 2010.03.12/outbox.cif.g09.slc.cpg/sg74_28_cif.got.tgz:55052.got - 2010.04.16 15:46:19.
