data_PCOD8300373
_publ_section_title
;
Structure prediction by ZEFSAII (Michael W. Deem and Ramdas Pophale) SiO2 
 PCOD8300373
Probable space group: I M M A
;
_chemical_formula_sum "Si O2"
_cell_formula_units_Z 96
_cell_length_a 20.075175
_cell_length_b 13.723090
_cell_length_c 16.239698
_cell_angle_alpha 90.000000
_cell_angle_beta 90.000000
_cell_angle_gamma 90.000000
_cell_volume 4473.930158
_symmetry_space_group_name_H-M "I M M A"
_symmetry_group_IT_number 74
_symmetry_cell_setting 'orthorhombic'
loop_
_space_group_symop_operation_xyz
x,y,z
-x,1/2-y,z
x,-y,-z
-x,1/2+y,-z
-x,-y,-z
x,1/2+y,-z
-x,y,z
x,1/2-y,z
1/2+x,1/2+y,1/2+z
1/2-x,-y,1/2+z
1/2+x,1/2-y,1/2-z
1/2-x,y,1/2-z
1/2-x,1/2-y,1/2-z
1/2+x,y,1/2-z
1/2-x,1/2+y,1/2+z
1/2+x,-y,1/2+z
loop_
_atom_site_type_symbol
_atom_site_label
_atom_site_fract_x
_atom_site_fract_y
_atom_site_fract_z
Si Si1 0.668112 0.028638 0.412856
Si Si2 0.702439 0.859046 0.964884
Si Si3 0.121360 0.142967 0.615285
Si Si4 0.074166 0.561969 0.620475
Si Si5 0.817749 0.359650 0.787819
Si Si6 0.924576 0.638269 0.796382
O O1 0.743736 0.066303 0.428225
O O2 0.625118 0.112705 0.370451
O O3 0.635791 0.000000 0.500000
O O4 0.661580 0.930597 0.360539
O O5 0.725447 0.750000 0.941885
O O6 0.628772 0.878118 0.929398
O O7 0.691673 0.870044 0.064216
O O8 0.091053 0.250000 0.591568
O O9 0.130265 0.140297 0.713209
O O10 0.073847 0.052082 0.593560
O O11 0.091873 0.572288 0.717092
O O12 0.000000 0.603980 0.603264
O O13 0.809767 0.250000 0.823776
O O14 0.750000 0.400334 0.750000
O O15 0.913165 0.750000 0.771240
O O16 0.000000 0.620216 0.826692
#
# Coordination Sequence:
#
# PCOD8300373 Si02
#       6
#    16  16  16  16  16  16
#     4  12  24  39  66  94 122 160 208 265 312 369
#     4  11  24  40  61  95 132 164 206 256 305 366
#     4  10  21  39  60  88 126 164 204 253 306 368
#     4  11  22  40  64  91 127 169 211 253 303 368
#     4  10  20  36  59  86 121 163 203 247 307 368
#     4  10  23  43  65  90 124 166 209 256 313 373
#
# _framework density 21.457643999999998
#
# number of rings (size 3 to 8) (size 9 to 14) (size 15 to 20)
#    0.000    1.333    1.667    4.500    0.000    5.667 
#    0.000    3.333    0.000    0.500    0.000    0.000 
#    0.000    0.000    0.000    0.000    0.000    0.000 
#
# Total GULP energy -594991.806806 kJ/mol
# GULP energy per Si atom -12395.662642 kJ/mol
# Density = 2.140881 g / cm^3
# Si number density = 21.457644 Si / 1000 Ang^3
#
#
#
# Elastic Constant Matrix: (Units=GPa)
#
#
# Indices 1 2 3 4 5 6 
#
# 1 63.3658 31.0453 31.0307 0.0000 0.0000 0.0000
# 2 31.0453 114.3781 43.0826 0.0000 0.0000 0.0000
# 3 31.0307 43.0826 106.4695 0.0000 0.0000 0.0000
# 4 0.0000 0.0000 0.0000 33.2678 0.0000 0.0000
# 5 0.0000 0.0000 0.0000 0.0000 24.8034 0.0000
# 6 0.0000 0.0000 0.0000 0.0000 0.0000 28.4780
#
#
#
# Elastic Compliance Matrix: (Units=1/GPa)
#
#
# Indices 1 2 3 4 5 6 
#
# 1 0.019687 -0.003755 -0.004218 0.000000 0.000000 0.000000
# 2 -0.003755 0.011031 -0.003369 0.000000 0.000000 0.000000
# 3 -0.004218 -0.003369 0.011985 0.000000 0.000000 0.000000
# 4 0.000000 0.000000 0.000000 0.030059 0.000000 0.000000
# 5 0.000000 0.000000 0.000000 0.000000 0.040317 0.000000
# 6 0.000000 0.000000 0.000000 0.000000 0.000000 0.035115
#
#
# Mechanical properties :
#
#
# Convention : Reuss Voigt Hill
#
# Bulk Modulus (GPa) = 49.95446 54.94784 52.45115
# Shear Modulus (GPa) = 28.16081 29.24683 28.70382
#
# Velocity S-wave (km/s) = 3.62662 3.69589 3.66142
# Velocity P-wave (km/s) = 6.39277 6.62390 6.50936
#
# Compressibility (1/GPa) = 0.02001823
#
# Stress axis : x y z
#
# Youngs Moduli (GPa) = 50.79577 90.65207 83.43569
#
# Poissons Ratio (x) = 0.34036 0.35197
# Poissons Ratio (y) = 0.19071 0.28113
# Poissons Ratio (z) = 0.21428 0.30545
#
# Static dielectric constant tensor:
#      x y z
#    x 3.525170 0.000000 0.000000 
#    y 0.000000 4.017320 0.000000 
#    z 0.000000 0.000000 4.011720 
# 
# 
# High freq. dielectric constant tensor:
#      x y z
#    x 1.809130 0.000000 0.000000 
#    y 0.000000 1.860930 0.000000 
#    z 0.000000 0.000000 1.845070 
# 
# From -- ./inp_files/35285.got.cif
#   From: 2010.03.12/outbox.cif.g09.slc.cpg/sg74_18_cif.got.tgz:35285.got - 2010.04.16 15:46:19.
