data_PCOD8300065
_publ_section_title
;
Structure prediction by ZEFSAII (Michael W. Deem and Ramdas Pophale) SiO2 
 PCOD8300065
Probable space group: I M M A
;
_chemical_formula_sum "Si O2"
_cell_formula_units_Z 96
_cell_length_a 18.139992
_cell_length_b 9.001843
_cell_length_c 32.759996
_cell_angle_alpha 90.000000
_cell_angle_beta 90.000000
_cell_angle_gamma 90.000000
_cell_volume 5349.489821
_symmetry_space_group_name_H-M "I M M A"
_symmetry_group_IT_number 74
_symmetry_cell_setting 'orthorhombic'
loop_
_space_group_symop_operation_xyz
x,y,z
-x,1/2-y,z
x,-y,-z
-x,1/2+y,-z
-x,-y,-z
x,1/2+y,-z
-x,y,z
x,1/2-y,z
1/2+x,1/2+y,1/2+z
1/2-x,-y,1/2+z
1/2+x,1/2-y,1/2-z
1/2-x,y,1/2-z
1/2-x,1/2-y,1/2-z
1/2+x,y,1/2-z
1/2-x,1/2+y,1/2+z
1/2+x,-y,1/2+z
loop_
_atom_site_type_symbol
_atom_site_label
_atom_site_fract_x
_atom_site_fract_y
_atom_site_fract_z
Si Si1 0.351361 0.577498 0.838223
Si Si2 0.726153 0.426223 0.957312
Si Si3 0.918411 0.923022 0.412425
Si Si4 0.913708 0.078442 0.829043
Si Si5 0.702415 0.575837 0.617744
Si Si6 0.414405 0.421094 0.246457
O O1 0.369406 0.750000 0.841704
O O2 0.407331 0.498697 0.868849
O O3 0.267172 0.541397 0.849826
O O4 0.366672 0.523279 0.792163
O O5 0.734721 0.250000 0.960463
O O6 0.642895 0.475610 0.945010
O O7 0.783000 0.489104 0.924182
O O8 0.746255 0.500000 0.000000
O O9 0.909514 0.750000 0.404503
O O10 0.000000 0.963255 0.429263
O O11 0.891247 0.250000 0.832484
O O12 0.000000 0.053232 0.836053
O O13 0.873336 0.984604 0.863894
O O14 0.889844 0.020068 0.784636
O O15 0.695922 0.750000 0.608342
O O16 0.500000 0.443568 0.235832
O O17 0.397236 0.250000 0.257279
#
# Coordination Sequence:
#
# PCOD8300065 Si02
#       6
#    16  16  16  16  16  16
#     4   9  18  31  48  72 101 135 175 215 251 289
#     4  10  20  35  54  76 103 133 167 206 249 298
#     4   9  18  31  47  70 102 139 176 213 251 289
#     4  10  21  36  53  74 100 130 165 205 250 301
#     4  10  20  35  55  77 101 130 165 205 252 303
#     4   9  17  30  48  70  99 136 175 212 248 287
#
# _framework density 17.945637000000001
#
# number of rings (size 3 to 8) (size 9 to 14) (size 15 to 20)
#    0.000    2.500    0.000    2.000    0.000    5.000 
#    0.000    5.000    0.000    0.500    0.000    0.000 
#    0.000    0.000    0.000    0.000    0.000    0.000 
#
# Total GULP energy -595289.615407 kJ/mol
# GULP energy per Si atom -12401.866988 kJ/mol
# Density = 1.790479 g / cm^3
# Si number density = 17.945637 Si / 1000 Ang^3
#
#
#
# Elastic Constant Matrix: (Units=GPa)
#
#
# Indices 1 2 3 4 5 6 
#
# 1 55.5168 32.1894 54.1382 0.0000 0.0000 0.0000
# 2 32.1894 70.9704 50.8873 0.0000 0.0000 0.0000
# 3 54.1382 50.8873 130.6255 0.0000 0.0000 0.0000
# 4 0.0000 0.0000 0.0000 33.7613 0.0000 0.0000
# 5 0.0000 0.0000 0.0000 0.0000 17.6927 0.0000
# 6 0.0000 0.0000 0.0000 0.0000 0.0000 24.4313
#
#
#
# Elastic Compliance Matrix: (Units=1/GPa)
#
#
# Indices 1 2 3 4 5 6 
#
# 1 0.032605 -0.007075 -0.010757 0.000000 0.000000 0.000000
# 2 -0.007075 0.021087 -0.005282 0.000000 0.000000 0.000000
# 3 -0.010757 -0.005282 0.014172 0.000000 0.000000 0.000000
# 4 0.000000 0.000000 0.000000 0.029620 0.000000 0.000000
# 5 0.000000 0.000000 0.000000 0.000000 0.056520 0.000000
# 6 0.000000 0.000000 0.000000 0.000000 0.000000 0.040931
#
#
# Mechanical properties :
#
#
# Convention : Reuss Voigt Hill
#
# Bulk Modulus (GPa) = 46.22323 59.06027 52.64175
# Shear Modulus (GPa) = 20.13086 23.17025 21.65055
#
# Velocity S-wave (km/s) = 3.35292 3.59714 3.47717
# Velocity P-wave (km/s) = 6.38770 7.08764 6.74675
#
# Compressibility (1/GPa) = 0.02163414
#
# Stress axis : x y z
#
# Youngs Moduli (GPa) = 30.67049 47.42241 70.56406
#
# Poissons Ratio (x) = 0.33553 0.75904
# Poissons Ratio (y) = 0.21700 0.37275
# Poissons Ratio (z) = 0.32992 0.25051
#
# Static dielectric constant tensor:
#      x y z
#    x 3.275350 0.000000 0.000000 
#    y 0.000000 3.340200 0.000000 
#    z 0.000000 0.000000 3.247940 
# 
# 
# High freq. dielectric constant tensor:
#      x y z
#    x 1.682100 0.000000 0.000000 
#    y 0.000000 1.699650 0.000000 
#    z 0.000000 0.000000 1.687120 
# 
# From -- ./inp_files/68152.got.cif
#   From: 2010.03.12/outbox.cif.g09.slc.cpg/sg74_35_cif.got.tgz:68152.got - 2010.04.16 15:46:19.
