data_PCOD8300893
_publ_section_title
;
Structure prediction by ZEFSAII (Michael W. Deem and Ramdas Pophale) SiO2 
 PCOD8300893
Probable space group: I M M A
;
_chemical_formula_sum "Si O2"
_cell_formula_units_Z 112
_cell_length_a 27.625487
_cell_length_b 14.943561
_cell_length_c 12.643051
_cell_angle_alpha 90.000000
_cell_angle_beta 90.000000
_cell_angle_gamma 90.000000
_cell_volume 5219.344141
_symmetry_space_group_name_H-M "I M M A"
_symmetry_group_IT_number 74
_symmetry_cell_setting 'orthorhombic'
loop_
_space_group_symop_operation_xyz
x,y,z
-x,1/2-y,z
x,-y,-z
-x,1/2+y,-z
-x,-y,-z
x,1/2+y,-z
-x,y,z
x,1/2-y,z
1/2+x,1/2+y,1/2+z
1/2-x,-y,1/2+z
1/2+x,1/2-y,1/2-z
1/2-x,y,1/2-z
1/2-x,1/2-y,1/2-z
1/2+x,y,1/2-z
1/2-x,1/2+y,1/2+z
1/2+x,-y,1/2+z
loop_
_atom_site_type_symbol
_atom_site_label
_atom_site_fract_x
_atom_site_fract_y
_atom_site_fract_z
Si Si1 0.054503 0.970525 0.761279
Si Si2 0.203471 0.899469 0.513319
Si Si3 0.199483 0.850394 0.278820
Si Si4 0.365476 0.149473 0.200082
Si Si5 0.945434 0.350070 0.037366
Si Si6 0.217751 0.645151 0.844037
Si Si7 0.100535 0.853710 0.181958
O O1 0.090867 0.920198 0.680940
O O2 0.063839 0.925758 0.875747
O O3 0.000000 0.953348 0.722265
O O4 0.063256 0.077373 0.763068
O O5 0.192514 0.849450 0.404371
O O6 0.171917 0.852421 0.603500
O O7 0.260904 0.896046 0.546362
O O8 0.185989 0.000000 0.500000
O O9 0.203554 0.750000 0.235708
O O10 0.250000 0.901750 0.250000
O O11 0.153544 0.890907 0.216228
O O12 0.386251 0.250000 0.207515
O O13 0.338031 0.124555 0.311843
O O14 0.939851 0.250000 0.086678
O O15 0.000000 0.361291 0.990770
O O16 0.906368 0.361280 0.943910
O O17 0.225747 0.750000 0.853740
O O18 0.250000 0.603999 0.750000
O O19 0.091748 0.750000 0.219475
#
# Coordination Sequence:
#
# PCOD8300893 Si02
#       7
#    16  16  16  16  16  16  16
#     4  11  22  36  58  88 117 146 191 249 300 348
#     4  11  21  34  57  85 116 153 191 234 283 340
#     4  10  22  39  57  79 110 148 189 230 272 327
#     4  10  21  38  60  85 117 156 196 241 296 353
#     4   9  18  34  57  85 116 150 188 233 289 346
#     4   8  16  33  56  81 108 143 187 230 276 334
#     4  10  21  37  57  82 116 157 194 231 287 356
#
# _framework density 21.458635999999998
#
# number of rings (size 3 to 8) (size 9 to 14) (size 15 to 20)
#    0.000    2.143    0.000    4.286    0.000    6.857 
#    0.000    2.857    0.000    4.714    0.000    6.000 
#    0.000    0.000    0.000    0.000    0.000    0.000 
#
# Total GULP energy -693917.761923 kJ/mol
# GULP energy per Si atom -12391.388606 kJ/mol
# Density = 2.140980 g / cm^3
# Si number density = 21.458636 Si / 1000 Ang^3
#
#
#
# Elastic Constant Matrix: (Units=GPa)
#
#
# Indices 1 2 3 4 5 6 
#
# 1 123.2344 37.0646 43.6930 0.0000 0.0000 0.0000
# 2 37.0646 98.6446 4.2466 0.0000 0.0000 0.0000
# 3 43.6930 4.2466 76.1602 0.0000 0.0000 0.0000
# 4 0.0000 0.0000 0.0000 24.5815 0.0000 0.0000
# 5 0.0000 0.0000 0.0000 0.0000 29.3330 0.0000
# 6 0.0000 0.0000 0.0000 0.0000 0.0000 28.2226
#
#
#
# Elastic Compliance Matrix: (Units=1/GPa)
#
#
# Indices 1 2 3 4 5 6 
#
# 1 0.011630 -0.004093 -0.006444 0.000000 0.000000 0.000000
# 2 -0.004093 0.011602 0.001701 0.000000 0.000000 0.000000
# 3 -0.006444 0.001701 0.016732 0.000000 0.000000 0.000000
# 4 0.000000 0.000000 0.000000 0.040681 0.000000 0.000000
# 5 0.000000 0.000000 0.000000 0.000000 0.034091 0.000000
# 6 0.000000 0.000000 0.000000 0.000000 0.000000 0.035433
#
#
# Mechanical properties :
#
#
# Convention : Reuss Voigt Hill
#
# Bulk Modulus (GPa) = 44.85666 52.00530 48.43098
# Shear Modulus (GPa) = 28.52714 30.62976 29.57845
#
# Velocity S-wave (km/s) = 3.65005 3.78218 3.71670
# Velocity P-wave (km/s) = 6.22198 6.58490 6.40601
#
# Compressibility (1/GPa) = 0.02229323
#
# Stress axis : x y z
#
# Youngs Moduli (GPa) = 85.98255 86.19274 59.76452
#
# Poissons Ratio (x) = 0.35275 0.38513
# Poissons Ratio (y) = 0.35189 -0.10166
# Poissons Ratio (z) = 0.55408 -0.14661
#
# Static dielectric constant tensor:
#      x y z
#    x 4.083910 0.000000 0.000000 
#    y 0.000000 3.855890 0.000000 
#    z 0.000000 0.000000 3.584620 
# 
# 
# High freq. dielectric constant tensor:
#      x y z
#    x 1.838350 0.000000 0.000000 
#    y 0.000000 1.848120 0.000000 
#    z 0.000000 0.000000 1.805260 
# 
# From -- ./inp_files/27252.got.cif
#   From: 2010.03.12/outbox.cif.g09.slc.cpg/sg74_14_cif.got.tgz:27252.got - 2010.04.16 15:46:19.
