data_PCOD8300836
_publ_section_title
;
Structure prediction by ZEFSAII (Michael W. Deem and Ramdas Pophale) SiO2 
 PCOD8300836
Probable space group: I M M A
;
_chemical_formula_sum "Si O2"
_cell_formula_units_Z 92
_cell_length_a 21.915333
_cell_length_b 15.889891
_cell_length_c 12.839637
_cell_angle_alpha 90.000000
_cell_angle_beta 90.000000
_cell_angle_gamma 90.000000
_cell_volume 4471.175715
_symmetry_space_group_name_H-M "I M M A"
_symmetry_group_IT_number 74
_symmetry_cell_setting 'orthorhombic'
loop_
_space_group_symop_operation_xyz
x,y,z
-x,1/2-y,z
x,-y,-z
-x,1/2+y,-z
-x,-y,-z
x,1/2+y,-z
-x,y,z
x,1/2-y,z
1/2+x,1/2+y,1/2+z
1/2-x,-y,1/2+z
1/2+x,1/2-y,1/2-z
1/2-x,y,1/2-z
1/2-x,1/2-y,1/2-z
1/2+x,y,1/2-z
1/2-x,1/2+y,1/2+z
1/2+x,-y,1/2+z
loop_
_atom_site_type_symbol
_atom_site_label
_atom_site_fract_x
_atom_site_fract_y
_atom_site_fract_z
Si Si1 0.000000 0.086923 0.938350
Si Si2 0.745136 0.346231 0.627196
Si Si3 0.116966 0.250000 0.222563
Si Si4 0.645611 0.092885 0.007337
Si Si5 0.928240 0.750000 0.541268
Si Si6 0.679532 0.914340 0.756946
Si Si7 0.371219 0.049763 0.607829
Si Si8 0.500000 0.250000 0.420566
O O1 0.061942 0.089949 0.869449
O O2 0.000000 0.165975 0.013304
O O3 0.000000 0.000000 0.000000
O O4 0.753213 0.250000 0.591057
O O5 0.750000 0.356515 0.750000
O O6 0.797183 0.402036 0.571775
O O7 0.678425 0.377083 0.593466
O O8 0.090586 0.250000 0.338802
O O9 0.159275 0.330185 0.196414
O O10 0.059912 0.250000 0.147811
O O11 0.597273 0.166675 0.982618
O O12 0.667376 0.104043 0.123882
O O13 0.615435 0.000000 0.000000
O O14 0.000000 0.750000 0.528594
O O15 0.750000 0.935351 0.750000
O O16 0.642921 0.991968 0.707652
O O17 0.371794 0.000000 0.500000
#
# Coordination Sequence:
#
# PCOD8300836 Si02
#       8
#     8  16   8  16   8  16  16   4
#     4  10  24  40  60  94 132 173 231 270 325 417
#     4  11  23  40  67  91 126 171 214 270 340 401
#     4  10  21  36  61  91 128 171 213 279 355 400
#     4  11  22  40  66  95 126 166 225 274 331 410
#     4  10  22  41  60  90 132 163 215 279 334 402
#     4  11  22  38  62  97 133 166 220 285 339 398
#     4  11  22  41  61  91 131 173 217 272 326 399
#     4  12  22  40  66  92 128 190 230 276 348 416
#
# _framework density 20.576243999999999
#
# number of rings (size 3 to 8) (size 9 to 14) (size 15 to 20)
#    0.000    1.217    1.304    6.522    1.217    0.348 
#    6.261    0.000    5.739    0.000    0.000    0.000 
#    0.000    0.000    0.000    0.000    0.000    0.000 
#
# Total GULP energy -570390.138935 kJ/mol
# GULP energy per Si atom -12399.785629 kJ/mol
# Density = 2.052941 g / cm^3
# Si number density = 20.576244 Si / 1000 Ang^3
#
#
#
# Elastic Constant Matrix: (Units=GPa)
#
#
# Indices 1 2 3 4 5 6 
#
# 1 159.5683 54.3542 33.1701 0.0000 0.0000 0.0000
# 2 54.3542 148.2830 24.2475 0.0000 0.0000 0.0000
# 3 33.1701 24.2475 68.3477 0.0000 0.0000 0.0000
# 4 0.0000 0.0000 0.0000 33.4362 0.0000 0.0000
# 5 0.0000 0.0000 0.0000 0.0000 53.9748 0.0000
# 6 0.0000 0.0000 0.0000 0.0000 0.0000 38.9066
#
#
#
# Elastic Compliance Matrix: (Units=1/GPa)
#
#
# Indices 1 2 3 4 5 6 
#
# 1 0.007664 -0.002337 -0.002890 0.000000 0.000000 0.000000
# 2 -0.002337 0.007872 -0.001659 0.000000 0.000000 0.000000
# 3 -0.002890 -0.001659 0.016622 0.000000 0.000000 0.000000
# 4 0.000000 0.000000 0.000000 0.029908 0.000000 0.000000
# 5 0.000000 0.000000 0.000000 0.000000 0.018527 0.000000
# 6 0.000000 0.000000 0.000000 0.000000 0.000000 0.025703
#
#
# Mechanical properties :
#
#
# Convention : Reuss Voigt Hill
#
# Bulk Modulus (GPa) = 54.38797 66.63809 60.51303
# Shear Modulus (GPa) = 39.62132 42.89198 41.25665
#
# Velocity S-wave (km/s) = 4.39291 4.57063 4.48265
# Velocity P-wave (km/s) = 7.22634 7.76598 7.50101
#
# Compressibility (1/GPa) = 0.01838642
#
# Stress axis : x y z
#
# Youngs Moduli (GPa) = 130.48639 127.03974 60.16046
#
# Poissons Ratio (x) = 0.29683 0.17388
# Poissons Ratio (y) = 0.30489 0.09978
# Poissons Ratio (z) = 0.37715 0.21071
#
# Static dielectric constant tensor:
#      x y z
#    x 4.186750 0.000000 0.000000 
#    y 0.000000 4.158770 0.000000 
#    z 0.000000 0.000000 3.517880 
# 
# 
# High freq. dielectric constant tensor:
#      x y z
#    x 1.806150 0.000000 0.000000 
#    y 0.000000 1.822730 0.000000 
#    z 0.000000 0.000000 1.793500 
# 
# From -- ./inp_files/23758.got.cif
#   From: 2010.03.12/outbox.cif.g09.slc.cpg/sg74_12_cif.got.tgz:23758.got - 2010.04.16 15:46:19.
