data_PCOD8300207
_publ_section_title
;
Structure prediction by ZEFSAII (Michael W. Deem and Ramdas Pophale) SiO2 
 PCOD8300207
Probable space group: I M M A
;
_chemical_formula_sum "Si O2"
_cell_formula_units_Z 80
_cell_length_a 15.807451
_cell_length_b 8.948061
_cell_length_c 29.033162
_cell_angle_alpha 90.000000
_cell_angle_beta 90.000000
_cell_angle_gamma 90.000000
_cell_volume 4106.625672
_symmetry_space_group_name_H-M "I M M A"
_symmetry_group_IT_number 74
_symmetry_cell_setting 'orthorhombic'
loop_
_space_group_symop_operation_xyz
x,y,z
-x,1/2-y,z
x,-y,-z
-x,1/2+y,-z
-x,-y,-z
x,1/2+y,-z
-x,y,z
x,1/2-y,z
1/2+x,1/2+y,1/2+z
1/2-x,-y,1/2+z
1/2+x,1/2-y,1/2-z
1/2-x,y,1/2-z
1/2-x,1/2-y,1/2-z
1/2+x,y,1/2-z
1/2-x,1/2+y,1/2+z
1/2+x,-y,1/2+z
loop_
_atom_site_type_symbol
_atom_site_label
_atom_site_fract_x
_atom_site_fract_y
_atom_site_fract_z
Si Si1 0.000000 0.573057 0.716105
Si Si2 0.902184 0.080293 0.133119
Si Si3 0.000000 0.072691 0.389817
Si Si4 0.662045 0.072092 0.269789
Si Si5 0.634208 0.425856 0.952624
Si Si6 0.829647 0.576516 0.046700
O O1 0.084152 0.506262 0.740071
O O2 0.000000 0.750000 0.721887
O O3 0.000000 0.525648 0.663188
O O4 0.877435 0.250000 0.120438
O O5 0.847988 0.023459 0.176897
O O6 0.000000 0.069316 0.147195
O O7 0.884596 0.977900 0.089419
O O8 0.000000 0.250000 0.396984
O O9 0.083941 0.001853 0.411320
O O10 0.661671 0.250000 0.266288
O O11 0.750000 0.006362 0.250000
O O12 0.615488 0.250000 0.954648
O O13 0.732073 0.462597 0.943877
O O14 0.602896 0.500000 0.000000
O O15 0.844608 0.750000 0.040046
O O16 0.862186 0.500000 0.000000
#
# Coordination Sequence:
#
# PCOD8300207 Si02
#       6
#     8  16   8  16  16  16
#     4   9  18  32  48  81 118 143 186 232 272 329
#     4  10  20  35  58  85 114 147 184 228 280 336
#     4  11  22  32  53  85 116 149 187 230 277 329
#     4   9  17  31  53  80 112 149 186 231 280 326
#     4  10  21  38  57  78 110 148 188 231 278 332
#     4  10  22  39  59  83 111 145 186 232 281 336
#
# _framework density 19.480713999999999
#
# number of rings (size 3 to 8) (size 9 to 14) (size 15 to 20)
#    0.000    2.200    1.000    1.800    2.800    3.200 
#    0.000    0.000    0.000    3.000    0.000    0.000 
#    0.000    0.000    0.000    0.000    0.000    0.000 
#
# Total GULP energy -496104.451979 kJ/mol
# GULP energy per Si atom -12402.611299 kJ/mol
# Density = 1.943637 g / cm^3
# Si number density = 19.480714 Si / 1000 Ang^3
#
#
#
# Elastic Constant Matrix: (Units=GPa)
#
#
# Indices 1 2 3 4 5 6 
#
# 1 99.6585 24.0969 64.2744 0.0000 0.0000 0.0000
# 2 24.0969 62.9562 42.3980 0.0000 0.0000 0.0000
# 3 64.2744 42.3980 153.9900 0.0000 0.0000 0.0000
# 4 0.0000 0.0000 0.0000 24.3421 0.0000 0.0000
# 5 0.0000 0.0000 0.0000 0.0000 37.7876 0.0000
# 6 0.0000 0.0000 0.0000 0.0000 0.0000 23.1986
#
#
#
# Elastic Compliance Matrix: (Units=1/GPa)
#
#
# Indices 1 2 3 4 5 6 
#
# 1 0.013883 -0.001733 -0.005318 0.000000 0.000000 0.000000
# 2 -0.001733 0.019716 -0.004705 0.000000 0.000000 0.000000
# 3 -0.005318 -0.004705 0.010009 0.000000 0.000000 0.000000
# 4 0.000000 0.000000 0.000000 0.041081 0.000000 0.000000
# 5 0.000000 0.000000 0.000000 0.000000 0.026464 0.000000
# 6 0.000000 0.000000 0.000000 0.000000 0.000000 0.043106
#
#
# Mechanical properties :
#
#
# Convention : Reuss Voigt Hill
#
# Bulk Modulus (GPa) = 49.75883 64.23812 56.99848
# Shear Modulus (GPa) = 27.10495 29.45468 28.27982
#
# Velocity S-wave (km/s) = 3.73416 3.89265 3.81423
# Velocity P-wave (km/s) = 6.64755 7.29729 6.97999
#
# Compressibility (1/GPa) = 0.02009693
#
# Stress axis : x y z
#
# Youngs Moduli (GPa) = 72.03202 50.72032 99.91105
#
# Poissons Ratio (x) = 0.08788 0.53128
# Poissons Ratio (y) = 0.12480 0.47010
# Poissons Ratio (z) = 0.38303 0.23865
#
# Static dielectric constant tensor:
#      x y z
#    x 3.688180 0.000000 0.000000 
#    y 0.000000 3.234070 0.000000 
#    z 0.000000 0.000000 3.579050 
# 
# 
# High freq. dielectric constant tensor:
#      x y z
#    x 1.765120 0.000000 0.000000 
#    y 0.000000 1.726690 0.000000 
#    z 0.000000 0.000000 1.769110 
# 
# From -- ./inp_files/67557.got.cif
#   From: 2010.03.12/outbox.cif.g09.slc.cpg/sg74_34_cif.got.tgz:67557.got - 2010.04.16 15:46:19.
