data_PCOD8300527
_publ_section_title
;
Structure prediction by ZEFSAII (Michael W. Deem and Ramdas Pophale) SiO2 
 PCOD8300527
Probable space group: I M M A
;
_chemical_formula_sum "Si O2"
_cell_formula_units_Z 88
_cell_length_a 26.871428
_cell_length_b 8.605314
_cell_length_c 19.267013
_cell_angle_alpha 90.000000
_cell_angle_beta 90.000000
_cell_angle_gamma 90.000000
_cell_volume 4455.247741
_symmetry_space_group_name_H-M "I M M A"
_symmetry_group_IT_number 74
_symmetry_cell_setting 'orthorhombic'
loop_
_space_group_symop_operation_xyz
x,y,z
-x,1/2-y,z
x,-y,-z
-x,1/2+y,-z
-x,-y,-z
x,1/2+y,-z
-x,y,z
x,1/2-y,z
1/2+x,1/2+y,1/2+z
1/2-x,-y,1/2+z
1/2+x,1/2-y,1/2-z
1/2-x,y,1/2-z
1/2-x,1/2-y,1/2-z
1/2+x,y,1/2-z
1/2-x,1/2+y,1/2+z
1/2+x,-y,1/2+z
loop_
_atom_site_type_symbol
_atom_site_label
_atom_site_fract_x
_atom_site_fract_y
_atom_site_fract_z
Si Si1 0.379229 0.067708 0.808669
Si Si2 0.500000 0.935169 0.422896
Si Si3 0.272396 0.567842 0.822718
Si Si4 0.402163 0.065816 0.654707
Si Si5 0.305265 0.066864 0.576086
Si Si6 0.058920 0.427363 0.428169
O O1 0.367021 0.250000 0.807606
O O2 0.400411 0.010852 0.734507
O O3 0.330035 0.973207 0.827355
O O4 0.420563 0.029899 0.865446
O O5 0.500000 0.750000 0.425750
O O6 0.451665 0.999852 0.382225
O O7 0.500000 0.000000 0.500000
O O8 0.264424 0.750000 0.831974
O O9 0.250000 0.508154 0.750000
O O10 0.244631 0.481035 0.884590
O O11 0.402582 0.250000 0.650800
O O12 0.353624 0.998753 0.615664
O O13 0.308294 0.250000 0.571879
O O14 0.303728 0.000000 0.500000
O O15 0.078719 0.500000 0.500000
O O16 0.077590 0.250000 0.422646
O O17 0.000000 0.437512 0.424499
#
# Coordination Sequence:
#
# PCOD8300527 Si02
#       6
#    16   8  16  16  16  16
#     4  11  22  38  63  92 121 159 201 247 299 360
#     4  10  20  38  58  84 119 158 199 242 289 346
#     4  11  23  40  61  87 119 156 197 248 303 357
#     4   9  20  36  59  87 120 158 198 241 293 351
#     4  11  22  39  61  89 121 158 202 246 296 356
#     4  10  22  41  63  90 124 160 199 246 299 357
#
# _framework density 19.751987
#
# number of rings (size 3 to 8) (size 9 to 14) (size 15 to 20)
#    0.000    1.636    1.818    2.727    1.273    2.545 
#    0.000    6.364    0.000    0.000    0.000    0.000 
#    0.000    0.000    0.000    0.000    0.000    0.000 
#
# Total GULP energy -545818.015782 kJ/mol
# GULP energy per Si atom -12404.954904 kJ/mol
# Density = 1.970703 g / cm^3
# Si number density = 19.751987 Si / 1000 Ang^3
#
#
#
# Elastic Constant Matrix: (Units=GPa)
#
#
# Indices 1 2 3 4 5 6 
#
# 1 98.5045 18.1382 64.1222 0.0000 0.0000 0.0000
# 2 18.1382 51.6241 32.2158 0.0000 0.0000 0.0000
# 3 64.1222 32.2158 184.0337 0.0000 0.0000 0.0000
# 4 0.0000 0.0000 0.0000 26.2983 0.0000 0.0000
# 5 0.0000 0.0000 0.0000 0.0000 41.1081 0.0000
# 6 0.0000 0.0000 0.0000 0.0000 0.0000 22.8594
#
#
#
# Elastic Compliance Matrix: (Units=1/GPa)
#
#
# Indices 1 2 3 4 5 6 
#
# 1 0.013311 -0.002001 -0.004288 0.000000 0.000000 0.000000
# 2 -0.002001 0.022047 -0.003162 0.000000 0.000000 0.000000
# 3 -0.004288 -0.003162 0.007481 0.000000 0.000000 0.000000
# 4 0.000000 0.000000 0.000000 0.038025 0.000000 0.000000
# 5 0.000000 0.000000 0.000000 0.000000 0.024326 0.000000
# 6 0.000000 0.000000 0.000000 0.000000 0.000000 0.043746
#
#
# Mechanical properties :
#
#
# Convention : Reuss Voigt Hill
#
# Bulk Modulus (GPa) = 41.77509 62.56829 52.17169
# Shear Modulus (GPa) = 28.43839 32.69890 30.56864
#
# Velocity S-wave (km/s) = 3.79855 4.07317 3.93825
# Velocity P-wave (km/s) = 6.35880 7.33939 6.86662
#
# Compressibility (1/GPa) = 0.02393771
#
# Stress axis : x y z
#
# Youngs Moduli (GPa) = 75.12329 45.35706 133.66675
#
# Poissons Ratio (x) = 0.09077 0.57313
# Poissons Ratio (y) = 0.15034 0.42268
# Poissons Ratio (z) = 0.32211 0.14343
#
# Static dielectric constant tensor:
#      x y z
#    x 3.705070 0.000000 0.000000 
#    y 0.000000 3.475960 0.000000 
#    z 0.000000 0.000000 3.760090 
# 
# 
# High freq. dielectric constant tensor:
#      x y z
#    x 1.775980 0.000000 0.000000 
#    y 0.000000 1.760220 0.000000 
#    z 0.000000 0.000000 1.784460 
# 
# From -- ./inp_files/47030.got.cif
#   From: 2010.03.12/outbox.cif.g09.slc.cpg/sg74_24_cif.got.tgz:47030.got - 2010.04.16 15:46:19.
