data_PCOD8300637
_publ_section_title
;
Structure prediction by ZEFSAII (Michael W. Deem and Ramdas Pophale) SiO2 
 PCOD8300637
Probable space group: I M M A
;
_chemical_formula_sum "Si O2"
_cell_formula_units_Z 60
_cell_length_a 8.199069
_cell_length_b 15.572380
_cell_length_c 24.536735
_cell_angle_alpha 90.000000
_cell_angle_beta 90.000000
_cell_angle_gamma 90.000000
_cell_volume 3132.826233
_symmetry_space_group_name_H-M "I M M A"
_symmetry_group_IT_number 74
_symmetry_cell_setting 'orthorhombic'
loop_
_space_group_symop_operation_xyz
x,y,z
-x,1/2-y,z
x,-y,-z
-x,1/2+y,-z
-x,-y,-z
x,1/2+y,-z
-x,y,z
x,1/2-y,z
1/2+x,1/2+y,1/2+z
1/2-x,-y,1/2+z
1/2+x,1/2-y,1/2-z
1/2-x,y,1/2-z
1/2-x,1/2-y,1/2-z
1/2+x,y,1/2-z
1/2-x,1/2+y,1/2+z
1/2+x,-y,1/2+z
loop_
_atom_site_type_symbol
_atom_site_label
_atom_site_fract_x
_atom_site_fract_y
_atom_site_fract_z
Si Si1 0.678610 0.086965 0.135480
Si Si2 0.000000 0.088648 0.469198
Si Si3 0.500000 0.250000 0.952037
Si Si4 0.306225 0.413144 0.811247
Si Si5 0.817680 0.250000 0.190338
Si Si6 0.811652 0.250000 0.872785
O O1 0.500000 0.095670 0.163346
O O2 0.660941 0.091828 0.069541
O O3 0.783208 0.166112 0.155132
O O4 0.752251 0.995722 0.153826
O O5 0.000000 0.165720 0.511353
O O6 0.000000 0.000000 0.500000
O O7 0.669262 0.250000 0.918388
O O8 0.500000 0.397198 0.815929
O O9 0.250000 0.428926 0.750000
O O10 0.209741 0.332576 0.834856
O O11 0.750000 0.250000 0.250000
O O12 0.000000 0.250000 0.205052
O O13 0.000000 0.250000 0.895940
#
# Coordination Sequence:
#
# PCOD8300637 Si02
#       6
#    16   8   4  16   8   8
#     4   9  21  39  62  90 118 158 214 252 313 380
#     4  10  20  40  70  90 116 168 212 266 322 374
#     4  12  22  42  70  90 128 168 220 274 324 368
#     4  11  21  38  61  92 129 168 207 257 316 386
#     4  12  23  36  58  88 130 167 204 254 308 378
#     4  12  25  41  62  93 131 168 216 269 314 386
#
# _framework density 19.152035999999999
#
# number of rings (size 3 to 8) (size 9 to 14) (size 15 to 20)
#    0.800    0.533    1.333    5.600    0.000    4.267 
#    0.000    2.667    0.000    3.200    0.000    0.000 
#    0.000    0.000    0.000    0.000    0.000    0.000 
#
# Total GULP energy -371787.770725 kJ/mol
# GULP energy per Si atom -12392.925691 kJ/mol
# Density = 1.910845 g / cm^3
# Si number density = 19.152036 Si / 1000 Ang^3
#
#
#
# Elastic Constant Matrix: (Units=GPa)
#
#
# Indices 1 2 3 4 5 6 
#
# 1 104.3246 43.5456 40.3014 0.0000 0.0000 0.0000
# 2 43.5456 141.3388 41.2621 -0.0001 0.0000 0.0000
# 3 40.3014 41.2621 115.6501 0.0000 0.0000 0.0000
# 4 0.0000 -0.0001 0.0000 215.8122 0.0000 -0.0001
# 5 0.0000 0.0000 0.0000 0.0000 37.5828 0.0000
# 6 0.0000 0.0000 0.0000 -0.0001 0.0000 -54.1957
#
#
#
# Elastic Compliance Matrix: (Units=1/GPa)
#
#
# Indices 1 2 3 4 5 6 
#
# 1 0.011967 -0.002757 -0.003187 0.000000 0.000000 0.000000
# 2 -0.002757 0.008533 -0.002084 0.000000 0.000000 0.000000
# 3 -0.003187 -0.002084 0.010501 0.000000 0.000000 0.000000
# 4 0.000000 0.000000 0.000000 0.004634 0.000000 0.000000
# 5 0.000000 0.000000 0.000000 0.000000 0.026608 0.000000
# 6 0.000000 0.000000 0.000000 0.000000 0.000000 -0.018452
#
#
# Mechanical properties :
#
#
# Convention : Reuss Voigt Hill
#
# Bulk Modulus (GPa) = 66.90571 67.94796 67.42684
# Shear Modulus (GPa) = 77.12821 55.58682 66.35751
#
# Velocity S-wave (km/s) = 6.35287 5.39323 5.89262
# Velocity P-wave (km/s) = 9.42453 8.62194 9.03216
#
# Compressibility (1/GPa) = 0.01494641
#
# Stress axis : x y z
#
# Youngs Moduli (GPa) = 83.56183 117.19431 95.23154
#
# Poissons Ratio (x) = 0.32307 0.30348
# Poissons Ratio (y) = 0.23035 0.19844
# Poissons Ratio (z) = 0.26629 0.24420
#
# Static dielectric constant tensor:
#      x y z
#    x 3.445910 0.000000 0.000000 
#    y 0.000000 3.567620 0.000000 
#    z 0.000000 0.000000 3.683830 
# 
# 
# High freq. dielectric constant tensor:
#      x y z
#    x 1.727760 0.000000 0.000000 
#    y 0.000000 1.769550 0.000000 
#    z 0.000000 0.000000 1.744460 
# 
# From -- ./inp_files/56357.got.cif
#   From: 2010.03.12/outbox.cif.g09.slc.cpg/sg74_29_cif.got.tgz:56357.got - 2010.04.16 15:46:19.
