data_PCOD8300250
_publ_section_title
;
Structure prediction by ZEFSAII (Michael W. Deem and Ramdas Pophale) SiO2 
 PCOD8300250
Probable space group: I M M A
;
_chemical_formula_sum "Si O2"
_cell_formula_units_Z 60
_cell_length_a 12.518285
_cell_length_b 13.908029
_cell_length_c 17.320807
_cell_angle_alpha 90.000000
_cell_angle_beta 90.000000
_cell_angle_gamma 90.000000
_cell_volume 3015.633401
_symmetry_space_group_name_H-M "I M M A"
_symmetry_group_IT_number 74
_symmetry_cell_setting 'orthorhombic'
loop_
_space_group_symop_operation_xyz
x,y,z
-x,1/2-y,z
x,-y,-z
-x,1/2+y,-z
-x,-y,-z
x,1/2+y,-z
-x,y,z
x,1/2-y,z
1/2+x,1/2+y,1/2+z
1/2-x,-y,1/2+z
1/2+x,1/2-y,1/2-z
1/2-x,y,1/2-z
1/2-x,1/2-y,1/2-z
1/2+x,y,1/2-z
1/2-x,1/2+y,1/2+z
1/2+x,-y,1/2+z
loop_
_atom_site_type_symbol
_atom_site_label
_atom_site_fract_x
_atom_site_fract_y
_atom_site_fract_z
Si Si1 0.703180 0.453732 0.333779
Si Si2 0.308964 0.250000 0.398522
Si Si3 0.000000 0.250000 0.980374
Si Si4 0.886772 0.450322 0.578504
Si Si5 0.125631 0.250000 0.515253
Si Si6 0.500000 0.955310 0.413116
O O1 0.750000 0.478738 0.250000
O O2 0.674607 0.341659 0.343246
O O3 0.800526 0.479762 0.387361
O O4 0.601531 0.515316 0.361232
O O5 0.395426 0.250000 0.466546
O O6 0.191307 0.250000 0.435556
O O7 0.000000 0.341088 0.923633
O O8 0.917074 0.500000 0.500000
O O9 0.842621 0.342292 0.566581
O O10 0.000000 0.446269 0.626020
O O11 0.000000 0.250000 0.493390
O O12 0.500000 0.000000 0.500000
#
# Coordination Sequence:
#
# PCOD8300250 Si02
#       6
#    16   8   4  16   8   8
#     4  12  26  41  65  98 139 174 212 274 343 396
#     4  12  21  40  65 100 131 166 218 282 323 396
#     4  12  24  42  80 102 124 172 258 280 314 394
#     4  10  20  38  63  90 124 168 213 261 316 392
#     4  10  20  35  63  97 118 157 221 264 311 383
#     4  12  24  48  72  98 133 184 235 276 326 412
#
# _framework density 19.896317
#
# number of rings (size 3 to 8) (size 9 to 14) (size 15 to 20)
#    0.000    0.800    5.333    2.800    1.867    0.000 
#    0.000    2.667    0.000    0.000    0.000    0.000 
#    0.000    0.000    0.000    0.000    0.000    0.000 
#
# Total GULP energy -371766.429594 kJ/mol
# GULP energy per Si atom -12392.214320 kJ/mol
# Density = 1.985103 g / cm^3
# Si number density = 19.896317 Si / 1000 Ang^3
#
#
#
# Elastic Constant Matrix: (Units=GPa)
#
#
# Indices 1 2 3 4 5 6 
#
# 1 115.9585 30.7327 55.9809 0.0000 0.0000 0.0000
# 2 30.7327 150.0401 30.9269 0.0000 0.0000 0.0000
# 3 55.9809 30.9269 85.9700 0.0000 0.0000 0.0000
# 4 0.0000 0.0000 0.0000 19.2797 0.0000 0.0000
# 5 0.0000 0.0000 0.0000 0.0000 34.6788 0.0000
# 6 0.0000 0.0000 0.0000 0.0000 0.0000 34.6498
#
#
#
# Elastic Compliance Matrix: (Units=1/GPa)
#
#
# Indices 1 2 3 4 5 6 
#
# 1 0.012707 -0.000969 -0.007926 0.000000 0.000000 0.000000
# 2 -0.000969 0.007273 -0.001985 0.000000 0.000000 0.000000
# 3 -0.007926 -0.001985 0.017507 0.000000 0.000000 0.000000
# 4 0.000000 0.000000 0.000000 0.051868 0.000000 0.000000
# 5 0.000000 0.000000 0.000000 0.000000 0.028836 0.000000
# 6 0.000000 0.000000 0.000000 0.000000 0.000000 0.028860
#
#
# Mechanical properties :
#
#
# Convention : Reuss Voigt Hill
#
# Bulk Modulus (GPa) = 63.58662 65.24996 64.41829
# Shear Modulus (GPa) = 28.72689 33.34354 31.03522
#
# Velocity S-wave (km/s) = 3.80390 4.09817 3.95377
# Velocity P-wave (km/s) = 7.16388 7.43368 7.30003
#
# Compressibility (1/GPa) = 0.01572658
#
# Stress axis : x y z
#
# Youngs Moduli (GPa) = 78.69758 137.50283 57.11974
#
# Poissons Ratio (x) = 0.13325 0.45271
# Poissons Ratio (y) = 0.07626 0.11339
# Poissons Ratio (z) = 0.62373 0.27297
#
# Static dielectric constant tensor:
#      x y z
#    x 3.867320 0.000000 0.000000 
#    y 0.000000 4.141790 0.000000 
#    z 0.000000 0.000000 2.991020 
# 
# 
# High freq. dielectric constant tensor:
#      x y z
#    x 1.801540 0.000000 0.000000 
#    y 0.000000 1.794890 0.000000 
#    z 0.000000 0.000000 1.736240 
# 
# From -- ./inp_files/40654.got.cif
#   From: 2010.03.12/outbox.cif.g09.slc.cpg/sg74_21_cif.got.tgz:40654.got - 2010.04.16 15:46:19.
