data_PCOD8300532
_publ_section_title
;
Structure prediction by ZEFSAII (Michael W. Deem and Ramdas Pophale) SiO2 
 PCOD8300532
Probable space group: I M M A
;
_chemical_formula_sum "Si O2"
_cell_formula_units_Z 80
_cell_length_a 14.648492
_cell_length_b 26.411520
_cell_length_c 10.913497
_cell_angle_alpha 90.000000
_cell_angle_beta 90.000000
_cell_angle_gamma 90.000000
_cell_volume 4222.311280
_symmetry_space_group_name_H-M "I M M A"
_symmetry_group_IT_number 74
_symmetry_cell_setting 'orthorhombic'
loop_
_space_group_symop_operation_xyz
x,y,z
-x,1/2-y,z
x,-y,-z
-x,1/2+y,-z
-x,-y,-z
x,1/2+y,-z
-x,y,z
x,1/2-y,z
1/2+x,1/2+y,1/2+z
1/2-x,-y,1/2+z
1/2+x,1/2-y,1/2-z
1/2-x,y,1/2-z
1/2-x,1/2-y,1/2-z
1/2+x,y,1/2-z
1/2-x,1/2+y,1/2+z
1/2+x,-y,1/2+z
loop_
_atom_site_type_symbol
_atom_site_label
_atom_site_fract_x
_atom_site_fract_y
_atom_site_fract_z
Si Si1 0.601767 0.250000 0.114105
Si Si2 0.250000 0.829519 0.250000
Si Si3 0.604296 0.250000 0.824825
Si Si4 0.240901 0.092493 0.953860
Si Si5 0.337808 0.860800 0.829402
Si Si6 0.750000 0.512538 0.250000
Si Si7 0.898668 0.437011 0.157075
O O1 0.500000 0.250000 0.166605
O O2 0.649633 0.300651 0.162154
O O3 0.602023 0.250000 0.969650
O O4 0.341011 0.798597 0.220304
O O5 0.215482 0.861719 0.135273
O O6 0.500000 0.250000 0.773645
O O7 0.272795 0.045140 0.871386
O O8 0.324580 0.111760 0.039197
O O9 0.150836 0.078571 0.030778
O O10 0.250000 0.872471 0.750000
O O11 0.414908 0.889431 0.750336
O O12 0.839963 0.479511 0.226874
O O13 0.000000 0.457552 0.124696
#
# Coordination Sequence:
#
# PCOD8300532 Si02
#       7
#     8   8   8  16  16   8  16
#     4  11  20  34  57  86 121 154 198 246 292 355
#     4  10  20  39  60  82 120 161 198 244 310 348
#     4  10  21  34  56  87 119 156 199 246 295 361
#     4  10  21  38  62  84 116 160 198 246 296 366
#     4  10  20  38  59  86 118 156 198 243 296 355
#     4  11  22  39  62  86 122 153 198 249 308 358
#     4  11  23  40  63  88 120 158 200 252 303 357
#
# _framework density 18.946967999999998
#
# number of rings (size 3 to 8) (size 9 to 14) (size 15 to 20)
#    0.000    1.600    5.000    1.500    0.000    2.400 
#    0.000    6.000    0.000    4.800    0.000    0.000 
#    0.000    0.000    0.000    0.000    0.000    0.000 
#
# Total GULP energy -495735.030342 kJ/mol
# GULP energy per Si atom -12393.375759 kJ/mol
# Density = 1.890384 g / cm^3
# Si number density = 18.946968 Si / 1000 Ang^3
#
#
#
# Elastic Constant Matrix: (Units=GPa)
#
#
# Indices 1 2 3 4 5 6 
#
# 1 112.8533 46.7625 39.3258 0.0001 -0.0002 0.0000
# 2 46.7625 134.4984 61.2971 0.0011 -0.0002 0.0000
# 3 39.3258 61.2971 118.3880 0.0068 -0.0012 0.0004
# 4 0.0001 0.0011 0.0068 36.0731 -0.0001 0.0005
# 5 -0.0002 -0.0002 -0.0012 -0.0001 14.8122 0.0002
# 6 0.0000 0.0000 0.0004 0.0005 0.0002 11.7372
#
#
#
# Elastic Compliance Matrix: (Units=1/GPa)
#
#
# Indices 1 2 3 4 5 6 
#
# 1 0.010752 -0.002762 -0.002141 0.000000 0.000000 0.000000
# 2 -0.002762 0.010441 -0.004488 0.000001 0.000000 0.000000
# 3 -0.002141 -0.004488 0.011482 -0.000002 0.000001 0.000000
# 4 0.000000 0.000001 -0.000002 0.027721 0.000000 -0.000001
# 5 0.000000 0.000000 0.000001 0.000000 0.067512 -0.000001
# 6 0.000000 0.000000 0.000000 -0.000001 -0.000001 0.085199
#
#
# Mechanical properties :
#
#
# Convention : Reuss Voigt Hill
#
# Bulk Modulus (GPa) = 71.98982 73.39005 72.68993
# Shear Modulus (GPa) = 21.13972 27.08146 24.11059
#
# Velocity S-wave (km/s) = 3.34388 3.78475 3.57112
# Velocity P-wave (km/s) = 7.27919 7.61036 7.44662
#
# Compressibility (1/GPa) = 0.01389085
#
# Stress axis : x y z
#
# Youngs Moduli (GPa) = 93.00731 95.77615 87.09263
#
# Poissons Ratio (x) = 0.26457 0.18649
# Poissons Ratio (y) = 0.25692 0.39091
# Poissons Ratio (z) = 0.19916 0.42988
#
# Static dielectric constant tensor:
#      x y z
#    x 3.350920 0.000000 0.000000 
#    y 0.000000 3.714290 0.000000 
#    z 0.000000 0.000000 3.710110 
# 
# 
# High freq. dielectric constant tensor:
#      x y z
#    x 1.717660 0.000000 0.000000 
#    y 0.000000 1.751650 0.000000 
#    z 0.000000 0.000000 1.748040 
# 
# From -- ./inp_files/20846.got.cif
#   From: 2010.03.12/outbox.cif.g09.slc.cpg/sg74_11_cif.got.tgz:20846.got - 2010.04.16 15:46:19.
