data_PCOD8300995
_publ_section_title
;
Structure prediction by ZEFSAII (Michael W. Deem and Ramdas Pophale) SiO2 
 PCOD8300995
Probable space group: I M M A
;
_chemical_formula_sum "Si O2"
_cell_formula_units_Z 64
_cell_length_a 14.533189
_cell_length_b 8.848662
_cell_length_c 27.607563
_cell_angle_alpha 90.000000
_cell_angle_beta 90.000000
_cell_angle_gamma 90.000000
_cell_volume 3550.312648
_symmetry_space_group_name_H-M "I M M A"
_symmetry_group_IT_number 74
_symmetry_cell_setting 'orthorhombic'
loop_
_space_group_symop_operation_xyz
x,y,z
-x,1/2-y,z
x,-y,-z
-x,1/2+y,-z
-x,-y,-z
x,1/2+y,-z
-x,y,z
x,1/2-y,z
1/2+x,1/2+y,1/2+z
1/2-x,-y,1/2+z
1/2+x,1/2-y,1/2-z
1/2-x,y,1/2-z
1/2-x,1/2-y,1/2-z
1/2+x,y,1/2-z
1/2-x,1/2+y,1/2+z
1/2+x,-y,1/2+z
loop_
_atom_site_type_symbol
_atom_site_label
_atom_site_fract_x
_atom_site_fract_y
_atom_site_fract_z
Si Si1 0.214920 0.572684 0.636921
Si Si2 0.105020 0.927722 0.449093
Si Si3 0.650199 0.414840 0.771875
Si Si4 0.399341 0.573090 0.330317
O O1 0.211275 0.750000 0.629374
O O2 0.174094 0.492184 0.590370
O O3 0.151822 0.530252 0.683308
O O4 0.321079 0.522315 0.642714
O O5 0.118592 0.750000 0.452951
O O6 0.000000 0.970258 0.435415
O O7 0.132807 0.000000 0.500000
O O8 0.614917 0.250000 0.790440
O O9 0.750000 0.395009 0.750000
O O10 0.590214 0.474317 0.726560
O O11 0.500000 0.542107 0.354101
O O12 0.372654 0.750000 0.333701
#
# Coordination Sequence:
#
# PCOD8300995 Si02
#       4
#    16  16  16  16
#     4  11  21  32  50  77 108 139 171 209 255 308
#     4  10  21  38  59  80 102 129 164 208 257 308
#     4   8  15  29  47  68  96 132 174 213 249 292
#     4   9  18  33  52  73 101 140 182 219 255 298
#
# _framework density 18.026582000000001
#
# number of rings (size 3 to 8) (size 9 to 14) (size 15 to 20)
#    0.000    2.500    0.000    4.500    0.000    7.500 
#    0.000    2.500    0.000    0.750    0.000    0.000 
#    0.000    0.000    0.000    0.000    0.000    0.000 
#
# Total GULP energy -396583.164592 kJ/mol
# GULP energy per Si atom -12393.223893 kJ/mol
# Density = 1.798555 g / cm^3
# Si number density = 18.026582 Si / 1000 Ang^3
#
#
#
# Elastic Constant Matrix: (Units=GPa)
#
#
# Indices 1 2 3 4 5 6 
#
# 1 82.3122 30.5329 48.5881 0.0000 0.0000 0.0000
# 2 30.5329 82.7543 46.8442 0.0000 0.0000 0.0000
# 3 48.5881 46.8442 105.5200 0.0000 0.0000 0.0000
# 4 0.0000 0.0000 0.0000 31.4587 0.0000 0.0000
# 5 0.0000 0.0000 0.0000 0.0000 -11.9443 0.0000
# 6 0.0000 0.0000 0.0000 0.0000 0.0000 16.8912
#
#
#
# Elastic Compliance Matrix: (Units=1/GPa)
#
#
# Indices 1 2 3 4 5 6 
#
# 1 0.017052 -0.002467 -0.006757 0.000000 0.000000 0.000000
# 2 -0.002467 0.016497 -0.006188 0.000000 0.000000 0.000000
# 3 -0.006757 -0.006188 0.015335 0.000000 0.000000 0.000000
# 4 0.000000 0.000000 0.000000 0.031788 0.000000 0.000000
# 5 0.000000 0.000000 0.000000 0.000000 -0.083722 0.000000
# 6 0.000000 0.000000 0.000000 0.000000 0.000000 0.059202
#
#
# Mechanical properties :
#
#
# Convention : Reuss Voigt Hill
#
# Bulk Modulus (GPa) = 55.36619 58.05742 56.71180
# Shear Modulus (GPa) = 53.76585 16.92254 35.34420
#
# Velocity S-wave (km/s) = 5.46723 3.06723 4.43275
# Velocity P-wave (km/s) = 8.40443 6.69480 7.59786
#
# Compressibility (1/GPa) = 0.01806157
#
# Stress axis : x y z
#
# Youngs Moduli (GPa) = 58.64262 60.61817 65.20989
#
# Poissons Ratio (x) = 0.14953 0.44062
# Poissons Ratio (y) = 0.14466 0.40349
# Poissons Ratio (z) = 0.39624 0.37508
#
# Static dielectric constant tensor:
#      x y z
#    x 2.045840 0.000000 0.000000 
#    y 0.000000 3.279010 0.000000 
#    z 0.000000 0.000000 3.548730 
# 
# 
# High freq. dielectric constant tensor:
#      x y z
#    x 1.694960 0.000000 0.000000 
#    y 0.000000 1.693670 0.000000 
#    z 0.000000 0.000000 1.677130 
# 
# From -- ./inp_files/56384.got.cif
#   From: 2010.03.12/outbox.cif.g09.slc.cpg/sg74_29_cif.got.tgz:56384.got - 2010.04.16 15:46:19.
