data_PCOD8300768
_publ_section_title
;
Structure prediction by ZEFSAII (Michael W. Deem and Ramdas Pophale) SiO2 
 PCOD8300768
Probable space group: I M M A
;
_chemical_formula_sum "Si O2"
_cell_formula_units_Z 80
_cell_length_a 19.473895
_cell_length_b 16.903204
_cell_length_c 12.744564
_cell_angle_alpha 90.000000
_cell_angle_beta 90.000000
_cell_angle_gamma 90.000000
_cell_volume 4195.143678
_symmetry_space_group_name_H-M "I M M A"
_symmetry_group_IT_number 74
_symmetry_cell_setting 'orthorhombic'
loop_
_space_group_symop_operation_xyz
x,y,z
-x,1/2-y,z
x,-y,-z
-x,1/2+y,-z
-x,-y,-z
x,1/2+y,-z
-x,y,z
x,1/2-y,z
1/2+x,1/2+y,1/2+z
1/2-x,-y,1/2+z
1/2+x,1/2-y,1/2-z
1/2-x,y,1/2-z
1/2-x,1/2-y,1/2-z
1/2+x,y,1/2-z
1/2-x,1/2+y,1/2+z
1/2+x,-y,1/2+z
loop_
_atom_site_type_symbol
_atom_site_label
_atom_site_fract_x
_atom_site_fract_y
_atom_site_fract_z
Si Si1 0.885319 0.053273 0.404612
Si Si2 0.000000 0.344438 0.303718
Si Si3 0.000000 0.156014 0.062433
Si Si4 0.629684 0.158452 0.569445
Si Si5 0.825875 0.080905 0.722947
Si Si6 0.216195 0.339684 0.517373
O O1 0.815493 0.097035 0.438211
O O2 0.935274 0.121375 0.365332
O O3 0.915855 0.000000 0.500000
O O4 0.869375 0.994876 0.309933
O O5 0.000000 0.250000 0.313201
O O6 0.000000 0.373297 0.182831
O O7 0.000000 0.250000 0.062705
O O8 0.931709 0.123920 0.003069
O O9 0.616386 0.250000 0.591551
O O10 0.630780 0.116441 0.681680
O O11 0.702329 0.144985 0.512432
O O12 0.750000 0.050780 0.750000
O O13 0.816699 0.147035 0.632448
O O14 0.199413 0.250000 0.483493
#
# Coordination Sequence:
#
# PCOD8300768 Si02
#       6
#    16   8   8  16  16  16
#     4  10  21  36  54  78 107 137 174 221 270 319
#     4  11  23  40  57  73 103 144 181 219 264 316
#     4   9  20  36  53  77 106 138 176 217 261 308
#     4   9  17  33  56  80 109 142 179 221 261 311
#     4   9  18  32  53  81 110 137 170 218 270 315
#     4   9  17  32  56  82 105 138 181 220 263 314
#
# _framework density 19.069669999999999
#
# number of rings (size 3 to 8) (size 9 to 14) (size 15 to 20)
#    0.000    2.600    0.000    1.500    0.000    4.800 
#    0.000    5.000    0.000   10.800    0.000    0.000 
#    0.000    0.000    0.000    0.000    0.000    0.000 
#
# Total GULP energy -495893.443747 kJ/mol
# GULP energy per Si atom -12397.336094 kJ/mol
# Density = 1.902627 g / cm^3
# Si number density = 19.069670 Si / 1000 Ang^3
#
#
#
# Elastic Constant Matrix: (Units=GPa)
#
#
# Indices 1 2 3 4 5 6 
#
# 1 109.2240 53.0845 64.8768 0.0000 0.0000 0.0000
# 2 53.0845 94.1933 53.2574 0.0000 0.0000 0.0000
# 3 64.8768 53.2574 115.3719 0.0000 0.0000 0.0000
# 4 0.0000 0.0000 0.0000 31.0137 0.0000 0.0000
# 5 0.0000 0.0000 0.0000 0.0000 17.9738 0.0000
# 6 0.0000 0.0000 0.0000 0.0000 0.0000 15.5370
#
#
#
# Elastic Compliance Matrix: (Units=1/GPa)
#
#
# Indices 1 2 3 4 5 6 
#
# 1 0.015372 -0.005109 -0.006286 0.000000 0.000000 0.000000
# 2 -0.005109 0.016064 -0.004542 0.000000 0.000000 0.000000
# 3 -0.006286 -0.004542 0.014299 0.000000 0.000000 0.000000
# 4 0.000000 0.000000 0.000000 0.032244 0.000000 0.000000
# 5 0.000000 0.000000 0.000000 0.000000 0.055636 0.000000
# 6 0.000000 0.000000 0.000000 0.000000 0.000000 0.064363
#
#
# Mechanical properties :
#
#
# Convention : Reuss Voigt Hill
#
# Bulk Modulus (GPa) = 72.14629 73.46963 72.80796
# Shear Modulus (GPa) = 21.32436 22.74293 22.03365
#
# Velocity S-wave (km/s) = 3.34763 3.45718 3.40285
# Velocity P-wave (km/s) = 7.27030 7.38558 7.32817
#
# Compressibility (1/GPa) = 0.01386073
#
# Stress axis : x y z
#
# Youngs Moduli (GPa) = 65.05191 62.25009 69.93463
#
# Poissons Ratio (x) = 0.31806 0.43959
# Poissons Ratio (y) = 0.33238 0.31767
# Poissons Ratio (z) = 0.40890 0.28276
#
# Static dielectric constant tensor:
#      x y z
#    x 3.469400 0.000000 0.000000 
#    y 0.000000 3.367980 0.000000 
#    z 0.000000 0.000000 3.539310 
# 
# 
# High freq. dielectric constant tensor:
#      x y z
#    x 1.737070 0.000000 0.000000 
#    y 0.000000 1.738380 0.000000 
#    z 0.000000 0.000000 1.737730 
# 
# From -- ./inp_files/23602.got.cif
#   From: 2010.03.12/outbox.cif.g09.slc.cpg/sg74_12_cif.got.tgz:23602.got - 2010.04.16 15:46:19.
