data_PCOD8300436
_publ_section_title
;
Structure prediction by ZEFSAII (Michael W. Deem and Ramdas Pophale) SiO2 
 PCOD8300436
Probable space group: I M M A
;
_chemical_formula_sum "Si O2"
_cell_formula_units_Z 96
_cell_length_a 21.859288
_cell_length_b 22.553016
_cell_length_c 9.590438
_cell_angle_alpha 90.000000
_cell_angle_beta 90.000000
_cell_angle_gamma 90.000000
_cell_volume 4728.017573
_symmetry_space_group_name_H-M "I M M A"
_symmetry_group_IT_number 74
_symmetry_cell_setting 'orthorhombic'
loop_
_space_group_symop_operation_xyz
x,y,z
-x,1/2-y,z
x,-y,-z
-x,1/2+y,-z
-x,-y,-z
x,1/2+y,-z
-x,y,z
x,1/2-y,z
1/2+x,1/2+y,1/2+z
1/2-x,-y,1/2+z
1/2+x,1/2-y,1/2-z
1/2-x,y,1/2-z
1/2-x,1/2-y,1/2-z
1/2+x,y,1/2-z
1/2-x,1/2+y,1/2+z
1/2+x,-y,1/2+z
loop_
_atom_site_type_symbol
_atom_site_label
_atom_site_fract_x
_atom_site_fract_y
_atom_site_fract_z
Si Si1 0.124695 0.988136 0.836444
Si Si2 0.118220 0.882794 0.263632
Si Si3 0.500000 0.036939 0.209331
Si Si4 0.345402 0.818098 0.490026
Si Si5 0.000000 0.907681 0.420143
Si Si6 0.297153 0.680077 0.037176
Si Si7 0.180272 0.373060 0.260657
O O1 0.058834 0.957723 0.808992
O O2 0.174388 0.942850 0.773237
O O3 0.133492 0.047730 0.747680
O O4 0.134880 0.000000 0.000000
O O5 0.109360 0.856673 0.107739
O O6 0.058980 0.872858 0.360893
O O7 0.175505 0.845349 0.320376
O O8 0.500000 0.973487 0.138167
O O9 0.500000 0.088235 0.089516
O O10 0.359875 0.750000 0.463280
O O11 0.274594 0.834694 0.461715
O O12 0.360013 0.835622 0.649907
O O13 0.308607 0.750000 0.023934
O O14 0.336623 0.645388 0.918059
O O15 0.250000 0.352297 0.250000
#
# Coordination Sequence:
#
# PCOD8300436 Si02
#       7
#    16  16   8  16   8  16  16
#     4  11  21  37  57  88 118 149 192 239 289 348
#     4  11  21  36  58  83 117 146 184 240 289 338
#     4   9  19  36  60  79 112 153 195 229 275 340
#     4  10  20  37  58  81 112 152 195 236 279 338
#     4   9  20  36  55  85 113 148 187 230 289 349
#     4  10  21  37  59  84 110 151 200 235 275 341
#     4  10  21  37  56  83 118 153 186 233 291 345
#
# _framework density 20.304493999999998
#
# number of rings (size 3 to 8) (size 9 to 14) (size 15 to 20)
#    0.000    1.833    1.667    2.750    0.000    6.667 
#    0.000    1.667    0.000    0.000    0.000    3.500 
#    0.000    0.000    0.000    0.000    0.000    0.000 
#
# Total GULP energy -595074.852656 kJ/mol
# GULP energy per Si atom -12397.392764 kJ/mol
# Density = 2.025828 g / cm^3
# Si number density = 20.304494 Si / 1000 Ang^3
#
#
#
# Elastic Constant Matrix: (Units=GPa)
#
#
# Indices 1 2 3 4 5 6 
#
# 1 31.8365 22.3940 12.1749 0.0000 0.0000 0.0000
# 2 22.3940 92.5602 33.1519 0.0000 0.0000 0.0000
# 3 12.1749 33.1519 93.9542 0.0000 0.0000 0.0000
# 4 0.0000 0.0000 0.0000 40.1269 0.0000 0.0000
# 5 0.0000 0.0000 0.0000 0.0000 29.1682 0.0000
# 6 0.0000 0.0000 0.0000 0.0000 0.0000 17.9688
#
#
#
# Elastic Compliance Matrix: (Units=1/GPa)
#
#
# Indices 1 2 3 4 5 6 
#
# 1 0.038156 -0.008540 -0.001931 0.000000 0.000000 0.000000
# 2 -0.008540 0.014278 -0.003931 0.000000 0.000000 0.000000
# 3 -0.001931 -0.003931 0.012281 0.000000 0.000000 0.000000
# 4 0.000000 0.000000 0.000000 0.024921 0.000000 0.000000
# 5 0.000000 0.000000 0.000000 0.000000 0.034284 0.000000
# 6 0.000000 0.000000 0.000000 0.000000 0.000000 0.055652
#
#
# Mechanical properties :
#
#
# Convention : Reuss Voigt Hill
#
# Bulk Modulus (GPa) = 27.84722 39.31030 33.57876
# Shear Modulus (GPa) = 22.69155 27.49478 25.09316
#
# Velocity S-wave (km/s) = 3.34662 3.68383 3.51927
# Velocity P-wave (km/s) = 5.35516 6.12345 5.75215
#
# Compressibility (1/GPa) = 0.03591023
#
# Stress axis : x y z
#
# Youngs Moduli (GPa) = 26.20829 70.03787 81.42705
#
# Poissons Ratio (x) = 0.59811 0.15724
# Poissons Ratio (y) = 0.22381 0.32012
# Poissons Ratio (z) = 0.05061 0.27535
#
# Static dielectric constant tensor:
#      x y z
#    x 3.457510 0.000000 0.000000 
#    y 0.000000 3.522570 0.000000 
#    z 0.000000 0.000000 3.977940 
# 
# 
# High freq. dielectric constant tensor:
#      x y z
#    x 1.760970 0.000000 0.000000 
#    y 0.000000 1.784970 0.000000 
#    z 0.000000 0.000000 1.812170 
# 
# From -- ./inp_files/13940.got.cif
#   From: 2010.03.12/outbox.cif.g09.slc.cpg/sg74_7_cif.got.tgz:13940.got - 2010.04.16 15:46:19.
