data_PCOD8300660
_publ_section_title
;
Structure prediction by ZEFSAII (Michael W. Deem and Ramdas Pophale) SiO2 
 PCOD8300660
Probable space group: I M M A
;
_chemical_formula_sum "Si O2"
_cell_formula_units_Z 104
_cell_length_a 9.212705
_cell_length_b 19.966799
_cell_length_c 32.309177
_cell_angle_alpha 90.000000
_cell_angle_beta 90.000000
_cell_angle_gamma 90.000000
_cell_volume 5943.215889
_symmetry_space_group_name_H-M "I M M A"
_symmetry_group_IT_number 74
_symmetry_cell_setting 'orthorhombic'
loop_
_space_group_symop_operation_xyz
x,y,z
-x,1/2-y,z
x,-y,-z
-x,1/2+y,-z
-x,-y,-z
x,1/2+y,-z
-x,y,z
x,1/2-y,z
1/2+x,1/2+y,1/2+z
1/2-x,-y,1/2+z
1/2+x,1/2-y,1/2-z
1/2-x,y,1/2-z
1/2-x,1/2-y,1/2-z
1/2+x,y,1/2-z
1/2-x,1/2+y,1/2+z
1/2+x,-y,1/2+z
loop_
_atom_site_type_symbol
_atom_site_label
_atom_site_fract_x
_atom_site_fract_y
_atom_site_fract_z
Si Si1 0.171106 0.173505 0.979237
Si Si2 0.330408 0.250000 0.707138
Si Si3 0.331879 0.674069 0.936685
Si Si4 0.836888 0.580155 0.416597
Si Si5 0.328471 0.944815 0.879223
Si Si6 0.160063 0.869078 0.324831
Si Si7 0.831611 0.013103 0.291145
O O1 0.212576 0.250000 0.966789
O O2 0.232458 0.121095 0.946543
O O3 0.000000 0.164369 0.981858
O O4 0.237226 0.155734 0.023662
O O5 0.500000 0.250000 0.714122
O O6 0.250000 0.250000 0.750000
O O7 0.285509 0.184366 0.682158
O O8 0.500000 0.662605 0.948178
O O9 0.303394 0.750000 0.921975
O O10 0.283961 0.626047 0.898996
O O11 0.772591 0.505225 0.408987
O O12 0.840650 0.616581 0.373020
O O13 0.000000 0.577980 0.435588
O O14 0.500000 0.955743 0.875785
O O15 0.268216 0.948940 0.832089
O O16 0.000000 0.841740 0.312041
O O17 0.195212 0.934327 0.297695
O O18 0.750000 0.038110 0.250000
O O19 0.000000 0.029723 0.284873
#
# Coordination Sequence:
#
# PCOD8300660 Si02
#       7
#    16   8  16  16  16  16  16
#     4  10  21  34  47  68 102 135 163 202 247 288
#     4  12  24  34  46  64  90 124 162 204 250 294
#     4   9  17  32  55  77  95 124 166 201 236 289
#     4   9  18  33  52  71  94 128 166 203 243 288
#     4   8  16  32  52  75 100 124 158 205 246 281
#     4   9  19  34  49  67  91 122 161 204 246 286
#     4   9  17  31  51  72  96 124 156 196 242 288
#
# _framework density 17.498944000000002
#
# number of rings (size 3 to 8) (size 9 to 14) (size 15 to 20)
#    0.000    2.769    0.000    3.462    1.077    4.000 
#    0.000    6.923    0.000    0.462    0.000    0.000 
#    0.000    0.000    0.000    0.000    0.000    0.000 
#
# Total GULP energy -644621.015934 kJ/mol
# GULP energy per Si atom -12396.557999 kJ/mol
# Density = 1.745912 g / cm^3
# Si number density = 17.498944 Si / 1000 Ang^3
#
#
#
# Elastic Constant Matrix: (Units=GPa)
#
#
# Indices 1 2 3 4 5 6 
#
# 1 72.0950 39.3161 44.4575 0.0000 0.0000 0.0000
# 2 39.3161 97.5681 68.7031 0.0000 0.0000 0.0000
# 3 44.4575 68.7031 111.6007 0.0000 0.0000 0.0000
# 4 0.0000 0.0000 0.0000 18.3893 0.0000 0.0000
# 5 0.0000 0.0000 0.0000 0.0000 26.1574 0.0000
# 6 0.0000 0.0000 0.0000 0.0000 0.0000 12.8675
#
#
#
# Elastic Compliance Matrix: (Units=1/GPa)
#
#
# Indices 1 2 3 4 5 6 
#
# 1 0.019304 -0.004173 -0.005121 0.000000 0.000000 0.000000
# 2 -0.004173 0.018994 -0.010031 0.000000 0.000000 0.000000
# 3 -0.005121 -0.010031 0.017176 0.000000 0.000000 0.000000
# 4 0.000000 0.000000 0.000000 0.054379 0.000000 0.000000
# 5 0.000000 0.000000 0.000000 0.000000 0.038230 0.000000
# 6 0.000000 0.000000 0.000000 0.000000 0.000000 0.077715
#
#
# Mechanical properties :
#
#
# Convention : Reuss Voigt Hill
#
# Bulk Modulus (GPa) = 59.43731 65.13523 62.28627
# Shear Modulus (GPa) = 18.51472 20.06866 19.29169
#
# Velocity S-wave (km/s) = 3.25629 3.39019 3.32392
# Velocity P-wave (km/s) = 6.94103 7.25450 7.09949
#
# Compressibility (1/GPa) = 0.01682445
#
# Stress axis : x y z
#
# Youngs Moduli (GPa) = 51.80236 52.64882 58.22188
#
# Poissons Ratio (x) = 0.21968 0.29817
# Poissons Ratio (y) = 0.21615 0.58400
# Poissons Ratio (z) = 0.26530 0.52810
#
# Static dielectric constant tensor:
#      x y z
#    x 3.421490 0.000000 0.000000 
#    y 0.000000 3.221590 0.000000 
#    z 0.000000 0.000000 3.260030 
# 
# 
# High freq. dielectric constant tensor:
#      x y z
#    x 1.657580 0.000000 0.000000 
#    y 0.000000 1.665040 0.000000 
#    z 0.000000 0.000000 1.675570 
# 
# From -- ./inp_files/70549.got.cif
#   From: 2010.03.12/outbox.cif.g09.slc.cpg/sg74_36_cif.got.tgz:70549.got - 2010.04.16 15:46:19.
