data_PCOD8300445
_publ_section_title
;
Structure prediction by ZEFSAII (Michael W. Deem and Ramdas Pophale) SiO2 
 PCOD8300445
Probable space group: I M M A
;
_chemical_formula_sum "Si O2"
_cell_formula_units_Z 88
_cell_length_a 31.308722
_cell_length_b 8.843804
_cell_length_c 16.119585
_cell_angle_alpha 90.000000
_cell_angle_beta 90.000000
_cell_angle_gamma 90.000000
_cell_volume 4463.322889
_symmetry_space_group_name_H-M "I M M A"
_symmetry_group_IT_number 74
_symmetry_cell_setting 'orthorhombic'
loop_
_space_group_symop_operation_xyz
x,y,z
-x,1/2-y,z
x,-y,-z
-x,1/2+y,-z
-x,-y,-z
x,1/2+y,-z
-x,y,z
x,1/2-y,z
1/2+x,1/2+y,1/2+z
1/2-x,-y,1/2+z
1/2+x,1/2-y,1/2-z
1/2-x,y,1/2-z
1/2-x,1/2-y,1/2-z
1/2+x,y,1/2-z
1/2-x,1/2+y,1/2+z
1/2+x,-y,1/2+z
loop_
_atom_site_type_symbol
_atom_site_label
_atom_site_fract_x
_atom_site_fract_y
_atom_site_fract_z
Si Si1 0.828393 0.081704 0.632857
Si Si2 0.255201 0.426297 0.347584
Si Si3 0.953618 0.418947 0.358082
Si Si4 0.607077 0.000000 0.000000
Si Si5 0.615487 0.930061 0.735781
Si Si6 0.158010 0.070278 0.911948
O O1 0.820430 0.250000 0.668515
O O2 0.861771 0.100779 0.556876
O O3 0.783985 0.006149 0.603744
O O4 0.844949 0.971628 0.705089
O O5 0.256750 0.250000 0.370867
O O6 0.250000 0.453566 0.250000
O O7 0.297734 0.505024 0.379052
O O8 0.963193 0.250000 0.330893
O O9 0.924799 0.408160 0.440619
O O10 0.927408 0.492441 0.281501
O O11 0.000000 0.501355 0.371488
O O12 0.615843 0.750000 0.722216
O O13 0.619950 0.017222 0.649163
O O14 0.160068 0.250000 0.917389
O O15 0.146560 0.000000 0.000000
#
# Coordination Sequence:
#
# PCOD8300445 Si02
#       6
#    16  16  16   8  16  16
#     4  11  22  35  54  80 113 157 205 246 295 348
#     4  11  23  39  59  81 112 151 197 247 295 344
#     4   9  18  34  58  86 117 156 198 241 293 355
#     4  10  21  34  52  82 126 162 202 246 293 348
#     4  10  20  37  59  84 115 150 192 240 294 353
#     4  12  25  41  62  86 116 151 196 246 300 357
#
# _framework density 19.716252000000001
#
# number of rings (size 3 to 8) (size 9 to 14) (size 15 to 20)
#    0.000    1.455    1.818    4.091    1.273    2.909 
#    0.000    0.000    0.000   11.455    0.000    0.000 
#    0.000    0.000    0.000    0.000    0.000    0.000 
#
# Total GULP energy -545318.067972 kJ/mol
# GULP energy per Si atom -12393.592454 kJ/mol
# Density = 1.967138 g / cm^3
# Si number density = 19.716252 Si / 1000 Ang^3
#
#
#
# Elastic Constant Matrix: (Units=GPa)
#
#
# Indices 1 2 3 4 5 6 
#
# 1 121.6480 36.7321 60.4075 0.0000 0.0000 0.0000
# 2 36.7321 119.6721 38.1556 0.0000 0.0000 0.0000
# 3 60.4075 38.1556 129.2255 0.0000 0.0000 0.0000
# 4 0.0000 0.0000 0.0000 26.3589 0.0000 0.0000
# 5 0.0000 0.0000 0.0000 0.0000 22.1891 0.0000
# 6 0.0000 0.0000 0.0000 0.0000 0.0000 14.1712
#
#
#
# Elastic Compliance Matrix: (Units=1/GPa)
#
#
# Indices 1 2 3 4 5 6 
#
# 1 0.011097 -0.001934 -0.004616 0.000000 0.000000 0.000000
# 2 -0.001934 0.009562 -0.001919 0.000000 0.000000 0.000000
# 3 -0.004616 -0.001919 0.010463 0.000000 0.000000 0.000000
# 4 0.000000 0.000000 0.000000 0.037938 0.000000 0.000000
# 5 0.000000 0.000000 0.000000 0.000000 0.045067 0.000000
# 6 0.000000 0.000000 0.000000 0.000000 0.000000 0.070566
#
#
# Mechanical properties :
#
#
# Convention : Reuss Voigt Hill
#
# Bulk Modulus (GPa) = 70.50958 71.23736 70.87347
# Shear Modulus (GPa) = 24.22965 28.22718 26.22842
#
# Velocity S-wave (km/s) = 3.50940 3.78785 3.65128
# Velocity P-wave (km/s) = 7.22917 7.43909 7.33488
#
# Compressibility (1/GPa) = 0.01418247
#
# Stress axis : x y z
#
# Youngs Moduli (GPa) = 90.11630 104.58359 95.57579
#
# Poissons Ratio (x) = 0.20229 0.44119
# Poissons Ratio (y) = 0.17431 0.18341
# Poissons Ratio (z) = 0.41599 0.20070
#
# Static dielectric constant tensor:
#      x y z
#    x 4.018510 0.000000 0.000000 
#    y 0.000000 3.457680 0.000000 
#    z 0.000000 0.000000 3.727000 
# 
# 
# High freq. dielectric constant tensor:
#      x y z
#    x 1.764100 0.000000 0.000000 
#    y 0.000000 1.762410 0.000000 
#    z 0.000000 0.000000 1.760590 
# 
# From -- ./inp_files/47023.got.cif
#   From: 2010.03.12/outbox.cif.g09.slc.cpg/sg74_24_cif.got.tgz:47023.got - 2010.04.16 15:46:19.
