data_PCOD8300923
_publ_section_title
;
Structure prediction by ZEFSAII (Michael W. Deem and Ramdas Pophale) SiO2 
 PCOD8300923
Probable space group: I M M A
;
_chemical_formula_sum "Si O2"
_cell_formula_units_Z 56
_cell_length_a 33.819437
_cell_length_b 15.587209
_cell_length_c 4.949925
_cell_angle_alpha 90.000000
_cell_angle_beta 90.000000
_cell_angle_gamma 90.000000
_cell_volume 2609.356096
_symmetry_space_group_name_H-M "I M M A"
_symmetry_group_IT_number 74
_symmetry_cell_setting 'orthorhombic'
loop_
_space_group_symop_operation_xyz
x,y,z
-x,1/2-y,z
x,-y,-z
-x,1/2+y,-z
-x,-y,-z
x,1/2+y,-z
-x,y,z
x,1/2-y,z
1/2+x,1/2+y,1/2+z
1/2-x,-y,1/2+z
1/2+x,1/2-y,1/2-z
1/2-x,y,1/2-z
1/2-x,1/2-y,1/2-z
1/2+x,y,1/2-z
1/2-x,1/2+y,1/2+z
1/2+x,-y,1/2+z
loop_
_atom_site_type_symbol
_atom_site_label
_atom_site_fract_x
_atom_site_fract_y
_atom_site_fract_z
Si Si1 0.614749 0.650164 0.999807
Si Si2 0.838627 0.402708 0.999259
Si Si3 0.278397 0.750000 0.507740
Si Si4 0.956938 0.941987 0.246872
O O1 0.616316 0.750000 0.944246
O O2 0.648626 0.619019 0.197327
O O3 0.573259 0.629693 0.146805
O O4 0.624433 0.605297 0.711739
O O5 0.804053 0.335590 0.053023
O O6 0.822440 0.500000 0.000000
O O7 0.250000 0.750000 0.750000
O O8 0.250000 0.750000 0.250000
O O9 0.000000 0.901899 0.160712
O O10 0.964850 0.000000 0.500000
O O11 0.939832 0.000000 0.000000
#
# Coordination Sequence:
#
# PCOD8300923 Si02
#       4
#    16  16   8  16
#     4  12  22  40  65  95 132 171 225 278 323 386
#     4  12  25  44  69  98 130 173 219 266 332 402
#     4  12  26  46  70  98 135 162 209 274 336 404
#     4  10  21  37  58  89 129 173 222 273 326 382
#
# _framework density 21.461231999999999
#
# number of rings (size 3 to 8) (size 9 to 14) (size 15 to 20)
#    0.000    0.571    2.857    6.857    0.000    1.714 
#    0.000    0.000    0.000    8.571    0.000    0.000 
#    0.000    0.000    0.000    0.000    0.000    0.000 
#
# Total GULP energy -346923.237250 kJ/mol
# GULP energy per Si atom -12390.115616 kJ/mol
# Density = 2.141238 g / cm^3
# Si number density = 21.461232 Si / 1000 Ang^3
#
#
#
# Elastic Constant Matrix: (Units=GPa)
#
#
# Indices 1 2 3 4 5 6 
#
# 1 96.4576 59.5963 16.3757 -0.0036 0.0026 0.0029
# 2 59.5963 167.8452 33.5581 -0.0006 0.0007 0.0005
# 3 16.3757 33.5581 114.3837 0.0063 -0.0302 -0.0195
# 4 -0.0036 -0.0006 0.0063 30.7991 -0.0030 -0.0033
# 5 0.0026 0.0007 -0.0302 -0.0030 43.6179 -0.0041
# 6 0.0029 0.0005 -0.0195 -0.0033 -0.0041 15.2897
#
#
#
# Elastic Compliance Matrix: (Units=1/GPa)
#
#
# Indices 1 2 3 4 5 6 
#
# 1 0.013313 -0.004617 -0.000552 0.000002 -0.000001 -0.000003
# 2 -0.004617 0.007930 -0.001666 0.000000 -0.000001 -0.000002
# 3 -0.000552 -0.001666 0.009310 -0.000002 0.000007 0.000012
# 4 0.000002 0.000000 -0.000002 0.032468 0.000002 0.000007
# 5 -0.000001 -0.000001 0.000007 0.000002 0.022926 0.000006
# 6 -0.000003 -0.000002 0.000012 0.000007 0.000006 0.065404
#
#
# Mechanical properties :
#
#
# Convention : Reuss Voigt Hill
#
# Bulk Modulus (GPa) = 59.22152 66.41628 62.81890
# Shear Modulus (GPa) = 29.29995 35.88511 32.59253
#
# Velocity S-wave (km/s) = 3.69894 4.09356 3.90124
# Velocity P-wave (km/s) = 6.77476 7.30460 7.04467
#
# Compressibility (1/GPa) = 0.01688576
#
# Stress axis : x y z
#
# Youngs Moduli (GPa) = 75.11214 126.10045 107.41002
#
# Poissons Ratio (x) = 0.58219 0.05924
# Poissons Ratio (y) = 0.34678 0.17890
# Poissons Ratio (z) = 0.04142 0.21003
#
# Static dielectric constant tensor:
#      x y z
#    x 4.367270 -0.000030 -0.000040 
#    y -0.000030 3.699010 -0.000030 
#    z -0.000040 -0.000030 4.148010 
# 
# 
# High freq. dielectric constant tensor:
#      x y z
#    x 1.843340 0.000000 0.000000 
#    y 0.000000 1.832490 0.000000 
#    z 0.000000 0.000000 1.868430 
# 
# From -- ./inp_files/1483.got.cif
#   From: 2010.03.12/outbox.cif.g09.slc.cpg/sg74_1_cif.got.tgz:1483.got - 2010.04.16 15:46:19.
