data_PCOD8300476
_publ_section_title
;
Structure prediction by ZEFSAII (Michael W. Deem and Ramdas Pophale) SiO2 
 PCOD8300476
Probable space group: I M M A
;
_chemical_formula_sum "Si O2"
_cell_formula_units_Z 96
_cell_length_a 18.588180
_cell_length_b 29.762617
_cell_length_c 8.836195
_cell_angle_alpha 90.000000
_cell_angle_beta 90.000000
_cell_angle_gamma 90.000000
_cell_volume 4888.473626
_symmetry_space_group_name_H-M "I M M A"
_symmetry_group_IT_number 74
_symmetry_cell_setting 'orthorhombic'
loop_
_space_group_symop_operation_xyz
x,y,z
-x,1/2-y,z
x,-y,-z
-x,1/2+y,-z
-x,-y,-z
x,1/2+y,-z
-x,y,z
x,1/2-y,z
1/2+x,1/2+y,1/2+z
1/2-x,-y,1/2+z
1/2+x,1/2-y,1/2-z
1/2-x,y,1/2-z
1/2-x,1/2-y,1/2-z
1/2+x,y,1/2-z
1/2-x,1/2+y,1/2+z
1/2+x,-y,1/2+z
loop_
_atom_site_type_symbol
_atom_site_label
_atom_site_fract_x
_atom_site_fract_y
_atom_site_fract_z
Si Si1 0.171129 0.124131 0.822678
Si Si2 0.191970 0.548826 0.935869
Si Si3 0.585472 0.700615 0.831788
Si Si4 0.648465 0.956771 0.890918
Si Si5 0.916870 0.697514 0.011346
Si Si6 0.918541 0.378252 0.536135
O O1 0.250000 0.130108 0.750000
O O2 0.139494 0.171022 0.884013
O O3 0.122041 0.107992 0.686476
O O4 0.160157 0.085654 0.949396
O O5 0.273065 0.566058 0.907279
O O6 0.141521 0.537933 0.790615
O O7 0.202233 0.500000 0.000000
O O8 0.500000 0.701119 0.839916
O O9 0.615891 0.750000 0.874339
O O10 0.607311 0.687854 0.660957
O O11 0.617335 0.664524 0.949865
O O12 0.586016 0.921679 0.929955
O O13 0.638417 0.000000 0.000000
O O14 0.909538 0.750000 0.050035
O O15 0.000000 0.682343 0.039125
O O16 0.000000 0.366708 0.575983
#
# Coordination Sequence:
#
# PCOD8300476 Si02
#       6
#    16  16  16  16  16  16
#     4  12  23  37  56  87 122 156 199 246 295 352
#     4  10  21  37  62  85 113 153 197 242 295 358
#     4   8  16  34  59  83 108 147 197 239 282 346
#     4  10  20  37  61  85 111 148 196 244 294 350
#     4   9  19  38  62  85 116 159 201 244 300 360
#     4  11  22  36  57  85 118 153 191 241 297 353
#
# _framework density 19.638031999999999
#
# number of rings (size 3 to 8) (size 9 to 14) (size 15 to 20)
#    0.000    2.000    1.667    3.500    2.333    1.333 
#    0.000    2.500    0.000    5.500    0.000    0.000 
#    0.000    0.000    0.000    0.000    0.000    0.000 
#
# Total GULP energy -594692.352415 kJ/mol
# GULP energy per Si atom -12389.424009 kJ/mol
# Density = 1.959333 g / cm^3
# Si number density = 19.638032 Si / 1000 Ang^3
#
#
#
# Elastic Constant Matrix: (Units=GPa)
#
#
# Indices 1 2 3 4 5 6 
#
# 1 58.0969 35.3864 38.6396 -0.0005 0.0002 0.0000
# 2 35.3864 95.1118 41.0460 0.0001 0.0008 0.0001
# 3 38.6396 41.0460 108.1640 0.0030 -0.0025 0.0001
# 4 -0.0005 0.0001 0.0030 40.3900 0.0001 0.0000
# 5 0.0002 0.0008 -0.0025 0.0001 25.9998 -0.0001
# 6 0.0000 0.0001 0.0001 0.0000 -0.0001 30.2925
#
#
#
# Elastic Compliance Matrix: (Units=1/GPa)
#
#
# Indices 1 2 3 4 5 6 
#
# 1 0.025711 -0.006699 -0.006643 0.000001 -0.000001 0.000000
# 2 -0.006699 0.014318 -0.003040 0.000000 -0.000001 0.000000
# 3 -0.006643 -0.003040 0.012772 -0.000001 0.000001 0.000000
# 4 0.000001 0.000000 -0.000001 0.024759 0.000000 0.000000
# 5 -0.000001 -0.000001 0.000001 0.000000 0.038462 0.000000
# 6 0.000000 0.000000 0.000000 0.000000 0.000000 0.033011
#
#
# Mechanical properties :
#
#
# Convention : Reuss Voigt Hill
#
# Bulk Modulus (GPa) = 49.90747 54.61296 52.26021
# Shear Modulus (GPa) = 26.52850 29.08983 27.80917
#
# Velocity S-wave (km/s) = 3.67941 3.85294 3.76718
# Velocity P-wave (km/s) = 6.59694 6.90389 6.75216
#
# Compressibility (1/GPa) = 0.02003708
#
# Stress axis : x y z
#
# Youngs Moduli (GPa) = 38.89398 69.83985 78.29675
#
# Poissons Ratio (x) = 0.46787 0.52009
# Poissons Ratio (y) = 0.26056 0.23805
# Poissons Ratio (z) = 0.25836 0.21234
#
# Static dielectric constant tensor:
#      x y z
#    x 3.471350 0.000000 -0.000010 
#    y 0.000000 3.644220 -0.000010 
#    z -0.000010 -0.000010 3.845350 
# 
# 
# High freq. dielectric constant tensor:
#      x y z
#    x 1.733010 0.000000 0.000000 
#    y 0.000000 1.768200 0.000000 
#    z 0.000000 0.000000 1.779490 
# 
# From -- ./inp_files/12653.got.cif
#   From: 2010.03.12/outbox.cif.g09.slc.cpg/sg74_7_cif.got.tgz:12653.got - 2010.04.16 15:46:19.
