data_PCOD8300580
_publ_section_title
;
Structure prediction by ZEFSAII (Michael W. Deem and Ramdas Pophale) SiO2 
 PCOD8300580
Probable space group: I M M A
;
_chemical_formula_sum "Si O2"
_cell_formula_units_Z 64
_cell_length_a 17.678505
_cell_length_b 23.641986
_cell_length_c 7.611628
_cell_angle_alpha 90.000000
_cell_angle_beta 90.000000
_cell_angle_gamma 90.000000
_cell_volume 3181.317735
_symmetry_space_group_name_H-M "I M M A"
_symmetry_group_IT_number 74
_symmetry_cell_setting 'orthorhombic'
loop_
_space_group_symop_operation_xyz
x,y,z
-x,1/2-y,z
x,-y,-z
-x,1/2+y,-z
-x,-y,-z
x,1/2+y,-z
-x,y,z
x,1/2-y,z
1/2+x,1/2+y,1/2+z
1/2-x,-y,1/2+z
1/2+x,1/2-y,1/2-z
1/2-x,y,1/2-z
1/2-x,1/2-y,1/2-z
1/2+x,y,1/2-z
1/2-x,1/2+y,1/2+z
1/2+x,-y,1/2+z
loop_
_atom_site_type_symbol
_atom_site_label
_atom_site_fract_x
_atom_site_fract_y
_atom_site_fract_z
Si Si1 0.911081 0.870254 0.376302
Si Si2 0.410622 0.250000 0.730123
Si Si3 0.162072 0.137096 0.271232
Si Si4 0.913563 0.066015 0.976455
Si Si5 0.910483 0.250000 0.163429
O O1 0.883577 0.806800 0.327087
O O2 0.861551 0.890947 0.542553
O O3 0.892327 0.913712 0.219263
O O4 0.000000 0.871749 0.422577
O O5 0.500000 0.250000 0.714164
O O6 0.376760 0.250000 0.533517
O O7 0.250000 0.148901 0.250000
O O8 0.117376 0.195630 0.267097
O O9 0.139605 0.096410 0.114005
O O10 0.000000 0.083146 0.016804
O O11 0.899963 0.000000 0.000000
O O12 0.000000 0.250000 0.164400
#
# Coordination Sequence:
#
# PCOD8300580 Si02
#       5
#    16   8  16  16   8
#     4  10  20  38  65  92 119 160 214 260 309 371
#     4   9  17  33  62  91 113 150 201 260 314 359
#     4  12  25  40  59  97 133 168 200 253 326 393
#     4  10  22  43  67  90 118 162 223 274 306 360
#     4  11  20  39  67  90 125 167 211 261 313 373
#
# _framework density 20.117450000000002
#
# number of rings (size 3 to 8) (size 9 to 14) (size 15 to 20)
#    0.000    1.500    2.500    3.375    0.000    3.000 
#    4.500    5.000    0.000    0.000    0.000    0.000 
#    0.000    0.000    0.000    0.000    0.000    0.000 
#
# Total GULP energy -396904.503831 kJ/mol
# GULP energy per Si atom -12403.265745 kJ/mol
# Density = 2.007166 g / cm^3
# Si number density = 20.117450 Si / 1000 Ang^3
#
#
#
# Elastic Constant Matrix: (Units=GPa)
#
#
# Indices 1 2 3 4 5 6 
#
# 1 88.2302 41.3235 57.9136 0.0000 0.0000 0.0000
# 2 41.3235 84.9484 41.9759 0.0000 0.0000 0.0000
# 3 57.9136 41.9759 146.7185 0.0000 0.0000 0.0000
# 4 0.0000 0.0000 0.0000 94.3685 0.0000 0.0000
# 5 0.0000 0.0000 0.0000 0.0000 10.9539 0.0000
# 6 0.0000 0.0000 0.0000 0.0000 0.0000 23.0968
#
#
#
# Elastic Compliance Matrix: (Units=1/GPa)
#
#
# Indices 1 2 3 4 5 6 
#
# 1 0.017553 -0.005957 -0.005224 0.000000 0.000000 0.000000
# 2 -0.005957 0.015732 -0.002149 0.000000 0.000000 0.000000
# 3 -0.005224 -0.002149 0.009493 0.000000 0.000000 0.000000
# 4 0.000000 0.000000 0.000000 0.010597 0.000000 0.000000
# 5 0.000000 0.000000 0.000000 0.000000 0.091292 0.000000
# 6 0.000000 0.000000 0.000000 0.000000 0.000000 0.043296
#
#
# Mechanical properties :
#
#
# Convention : Reuss Voigt Hill
#
# Bulk Modulus (GPa) = 62.05011 66.92477 64.48744
# Shear Modulus (GPa) = 22.72758 37.59611 30.16184
#
# Velocity S-wave (km/s) = 3.36481 4.32769 3.87626
# Velocity P-wave (km/s) = 6.78283 7.63617 7.22212
#
# Compressibility (1/GPa) = 0.01611601
#
# Stress axis : x y z
#
# Youngs Moduli (GPa) = 56.96882 63.56503 105.34183
#
# Poissons Ratio (x) = 0.37868 0.55035
# Poissons Ratio (y) = 0.33939 0.22641
# Poissons Ratio (z) = 0.29763 0.13662
#
# Static dielectric constant tensor:
#      x y z
#    x 3.371370 0.000000 0.000000 
#    y 0.000000 3.102570 0.000000 
#    z 0.000000 0.000000 3.875930 
# 
# 
# High freq. dielectric constant tensor:
#      x y z
#    x 1.759340 0.000000 0.000000 
#    y 0.000000 1.781320 0.000000 
#    z 0.000000 0.000000 1.804110 
# 
# From -- ./inp_files/8869.got.cif
#   From: 2010.03.12/outbox.cif.g09.slc.cpg/sg74_5_cif.got.tgz:8869.got - 2010.04.16 15:46:19.
