data_PCOD8300038
_publ_section_title
;
Structure prediction by ZEFSAII (Michael W. Deem and Ramdas Pophale) SiO2 
 PCOD8300038
Probable space group: I M M A
;
_chemical_formula_sum "Si O2"
_cell_formula_units_Z 80
_cell_length_a 24.856497
_cell_length_b 17.120240
_cell_length_c 10.404505
_cell_angle_alpha 90.000000
_cell_angle_beta 90.000000
_cell_angle_gamma 90.000000
_cell_volume 4427.628719
_symmetry_space_group_name_H-M "I M M A"
_symmetry_group_IT_number 74
_symmetry_cell_setting 'orthorhombic'
loop_
_space_group_symop_operation_xyz
x,y,z
-x,1/2-y,z
x,-y,-z
-x,1/2+y,-z
-x,-y,-z
x,1/2+y,-z
-x,y,z
x,1/2-y,z
1/2+x,1/2+y,1/2+z
1/2-x,-y,1/2+z
1/2+x,1/2-y,1/2-z
1/2-x,y,1/2-z
1/2-x,1/2-y,1/2-z
1/2+x,y,1/2-z
1/2-x,1/2+y,1/2+z
1/2+x,-y,1/2+z
loop_
_atom_site_type_symbol
_atom_site_label
_atom_site_fract_x
_atom_site_fract_y
_atom_site_fract_z
Si Si1 0.500000 0.836629 0.528359
Si Si2 0.112627 0.091712 0.016953
Si Si3 0.282609 0.842909 0.624171
Si Si4 0.778744 0.842540 0.375564
Si Si5 0.113307 0.842895 0.262094
Si Si6 0.500000 0.164329 0.776246
O O1 0.500000 0.750000 0.590677
O O2 0.445609 0.881426 0.571580
O O3 0.500000 0.828920 0.376550
O O4 0.158458 0.117576 0.119108
O O5 0.128303 0.129260 0.880414
O O6 0.111514 0.000000 0.000000
O O7 0.290104 0.750000 0.620788
O O8 0.250000 0.869586 0.750000
O O9 0.247358 0.875690 0.504956
O O10 0.772543 0.750000 0.375411
O O11 0.750000 0.878061 0.250000
O O12 0.841468 0.867039 0.365128
O O13 0.107320 0.750000 0.251090
O O14 0.056053 0.879056 0.313004
O O15 0.500000 0.250000 0.840558
#
# Coordination Sequence:
#
# PCOD8300038 Si02
#       6
#     8  16  16  16  16   8
#     4   9  17  31  53  74  99 134 172 212 264 314
#     4  11  20  31  47  77 107 134 167 217 268 315
#     4  10  20  35  52  71 101 141 183 220 255 306
#     4   9  15  26  49  72  89 122 171 219 257 293
#     4   9  15  27  47  69  94 127 171 210 255 304
#     4   7  12  21  39  68  93 113 146 204 251 287
#
# _framework density 18.068362
#
# number of rings (size 3 to 8) (size 9 to 14) (size 15 to 20)
#    0.000    2.600    2.000    3.300    0.000    0.000 
#    3.600    0.000    0.000    1.200    0.000    5.600 
#    0.000    6.400    0.000    0.000    0.000    0.000 
#
# Total GULP energy -495591.201479 kJ/mol
# GULP energy per Si atom -12389.780037 kJ/mol
# Density = 1.802724 g / cm^3
# Si number density = 18.068362 Si / 1000 Ang^3
#
#
#
# Elastic Constant Matrix: (Units=GPa)
#
#
# Indices 1 2 3 4 5 6 
#
# 1 195.5774 42.9097 64.9785 0.0000 0.0000 0.0000
# 2 42.9097 57.3392 15.1145 0.0000 0.0000 0.0000
# 3 64.9785 15.1145 82.3176 0.0000 0.0000 0.0000
# 4 0.0000 0.0000 0.0000 6.4877 0.0000 0.0000
# 5 0.0000 0.0000 0.0000 0.0000 20.4193 0.0000
# 6 0.0000 0.0000 0.0000 0.0000 0.0000 16.9042
#
#
#
# Elastic Compliance Matrix: (Units=1/GPa)
#
#
# Indices 1 2 3 4 5 6 
#
# 1 0.007893 -0.004481 -0.005408 0.000000 0.000000 0.000000
# 2 -0.004481 0.020871 -0.000295 0.000000 0.000000 0.000000
# 3 -0.005408 -0.000295 0.016471 0.000000 0.000000 0.000000
# 4 0.000000 0.000000 0.000000 0.154138 0.000000 0.000000
# 5 0.000000 0.000000 0.000000 0.000000 0.048973 0.000000
# 6 0.000000 0.000000 0.000000 0.000000 0.000000 0.059157
#
#
# Mechanical properties :
#
#
# Convention : Reuss Voigt Hill
#
# Bulk Modulus (GPa) = 40.21297 64.58218 52.39757
# Shear Modulus (GPa) = 14.87389 22.91100 18.89245
#
# Velocity S-wave (km/s) = 2.87226 3.56479 3.23710
# Velocity P-wave (km/s) = 5.77098 7.26391 6.56005
#
# Compressibility (1/GPa) = 0.02486760
#
# Stress axis : x y z
#
# Youngs Moduli (GPa) = 126.69730 47.91263 60.71383
#
# Poissons Ratio (x) = 0.21471 0.32831
# Poissons Ratio (y) = 0.56775 0.01791
# Poissons Ratio (z) = 0.68512 0.01413
#
# Static dielectric constant tensor:
#      x y z
#    x 4.000180 0.000000 0.000000 
#    y 0.000000 2.978430 0.000000 
#    z 0.000000 0.000000 3.034220 
# 
# 
# High freq. dielectric constant tensor:
#      x y z
#    x 1.731290 0.000000 0.000000 
#    y 0.000000 1.659210 0.000000 
#    z 0.000000 0.000000 1.647970 
# 
# From -- ./inp_files/25130.got.cif
#   From: 2010.03.12/outbox.cif.g09.slc.cpg/sg74_13_cif.got.tgz:25130.got - 2010.04.16 15:46:19.
