data_PCOD8300364
_publ_section_title
;
Structure prediction by ZEFSAII (Michael W. Deem and Ramdas Pophale) SiO2 
 PCOD8300364
Probable space group: I M M A
;
_chemical_formula_sum "Si O2"
_cell_formula_units_Z 80
_cell_length_a 18.807147
_cell_length_b 9.493539
_cell_length_c 23.424152
_cell_angle_alpha 90.000000
_cell_angle_beta 90.000000
_cell_angle_gamma 90.000000
_cell_volume 4182.297627
_symmetry_space_group_name_H-M "I M M A"
_symmetry_group_IT_number 74
_symmetry_cell_setting 'orthorhombic'
loop_
_space_group_symop_operation_xyz
x,y,z
-x,1/2-y,z
x,-y,-z
-x,1/2+y,-z
-x,-y,-z
x,1/2+y,-z
-x,y,z
x,1/2-y,z
1/2+x,1/2+y,1/2+z
1/2-x,-y,1/2+z
1/2+x,1/2-y,1/2-z
1/2-x,y,1/2-z
1/2-x,1/2-y,1/2-z
1/2+x,y,1/2-z
1/2-x,1/2+y,1/2+z
1/2+x,-y,1/2+z
loop_
_atom_site_type_symbol
_atom_site_label
_atom_site_fract_x
_atom_site_fract_y
_atom_site_fract_z
Si Si1 0.177908 0.078666 0.060737
Si Si2 0.808816 0.096051 0.360574
Si Si3 0.333123 0.903532 0.242828
Si Si4 0.916457 0.085154 0.855609
Si Si5 0.421744 0.097228 0.045985
O O1 0.172642 0.250000 0.052965
O O2 0.244126 0.034461 0.101532
O O3 0.108300 0.013699 0.091678
O O4 0.187028 0.000000 0.000000
O O5 0.785370 0.250000 0.337644
O O6 0.878637 0.107708 0.397143
O O7 0.840825 0.006613 0.309568
O O8 0.366263 0.750000 0.228537
O O9 0.250000 0.887402 0.250000
O O10 0.372601 0.962812 0.299219
O O11 0.901298 0.250000 0.869581
O O12 0.000000 0.058983 0.845423
O O13 0.500000 0.035523 0.060168
O O14 0.427824 0.250000 0.017394
O O15 0.381766 0.000000 0.000000
#
# Coordination Sequence:
#
# PCOD8300364 Si02
#       5
#    16  16  16  16  16
#     4  11  23  38  59  86 116 151 194 238 285 340
#     4  10  21  35  55  84 115 148 187 231 278 333
#     4  10  20  36  59  84 110 144 183 225 276 330
#     4  10  22  41  62  85 115 150 190 236 285 339
#     4   9  18  33  51  74 108 147 185 226 273 322
#
# _framework density 19.128240999999999
#
# number of rings (size 3 to 8) (size 9 to 14) (size 15 to 20)
#    0.000    2.000    2.000    1.200    0.000    4.400 
#    0.000    0.000    0.000    0.000    0.000    0.000 
#    0.000    0.000    0.000    0.000    0.000    0.000 
#
# Total GULP energy -495546.220601 kJ/mol
# GULP energy per Si atom -12388.655515 kJ/mol
# Density = 1.908470 g / cm^3
# Si number density = 19.128241 Si / 1000 Ang^3
#
#
#
# Elastic Constant Matrix: (Units=GPa)
#
#
# Indices 1 2 3 4 5 6 
#
# 1 80.4916 25.8117 34.4183 0.0000 0.0000 0.0000
# 2 25.8117 93.5020 64.5844 0.0000 0.0000 0.0000
# 3 34.4183 64.5844 113.5031 0.0000 0.0000 0.0000
# 4 0.0000 0.0000 0.0000 40.6868 0.0000 0.0000
# 5 0.0000 0.0000 0.0000 0.0000 26.4718 0.0000
# 6 0.0000 0.0000 0.0000 0.0000 0.0000 31.5285
#
#
#
# Elastic Compliance Matrix: (Units=1/GPa)
#
#
# Indices 1 2 3 4 5 6 
#
# 1 0.014415 -0.001582 -0.003471 0.000000 0.000000 0.000000
# 2 -0.001582 0.017794 -0.009645 0.000000 0.000000 0.000000
# 3 -0.003471 -0.009645 0.015351 0.000000 0.000000 0.000000
# 4 0.000000 0.000000 0.000000 0.024578 0.000000 0.000000
# 5 0.000000 0.000000 0.000000 0.000000 0.037776 0.000000
# 6 0.000000 0.000000 0.000000 0.000000 0.000000 0.031717
#
#
# Mechanical properties :
#
#
# Convention : Reuss Voigt Hill
#
# Bulk Modulus (GPa) = 55.05440 59.68061 57.36751
# Shear Modulus (GPa) = 28.23543 30.58290 29.40917
#
# Velocity S-wave (km/s) = 3.84619 4.00288 3.92532
# Velocity P-wave (km/s) = 6.96911 7.25480 7.11339
#
# Compressibility (1/GPa) = 0.01816385
#
# Stress axis : x y z
#
# Youngs Moduli (GPa) = 69.37143 56.19918 65.14167
#
# Poissons Ratio (x) = 0.08889 0.22612
# Poissons Ratio (y) = 0.10973 0.62831
# Poissons Ratio (z) = 0.24080 0.54205
#
# Static dielectric constant tensor:
#      x y z
#    x 3.486960 0.000000 0.000000 
#    y 0.000000 4.190160 0.000000 
#    z 0.000000 0.000000 2.556010 
# 
# 
# High freq. dielectric constant tensor:
#      x y z
#    x 1.742980 0.000000 0.000000 
#    y 0.000000 1.748180 0.000000 
#    z 0.000000 0.000000 1.738870 
# 
# From -- ./inp_files/67534.got.cif
#   From: 2010.03.12/outbox.cif.g09.slc.cpg/sg74_34_cif.got.tgz:67534.got - 2010.04.16 15:46:19.
