data_PCOD8300479
_publ_section_title
;
Structure prediction by ZEFSAII (Michael W. Deem and Ramdas Pophale) SiO2 
 PCOD8300479
Probable space group: I M M A
;
_chemical_formula_sum "Si O2"
_cell_formula_units_Z 72
_cell_length_a 21.352841
_cell_length_b 21.644443
_cell_length_c 8.798215
_cell_angle_alpha 90.000000
_cell_angle_beta 90.000000
_cell_angle_gamma 90.000000
_cell_volume 4066.274105
_symmetry_space_group_name_H-M "I M M A"
_symmetry_group_IT_number 74
_symmetry_cell_setting 'orthorhombic'
loop_
_space_group_symop_operation_xyz
x,y,z
-x,1/2-y,z
x,-y,-z
-x,1/2+y,-z
-x,-y,-z
x,1/2+y,-z
-x,y,z
x,1/2-y,z
1/2+x,1/2+y,1/2+z
1/2-x,-y,1/2+z
1/2+x,1/2-y,1/2-z
1/2-x,y,1/2-z
1/2-x,1/2-y,1/2-z
1/2+x,y,1/2-z
1/2-x,1/2+y,1/2+z
1/2+x,-y,1/2+z
loop_
_atom_site_type_symbol
_atom_site_label
_atom_site_fract_x
_atom_site_fract_y
_atom_site_fract_z
Si Si1 0.809450 0.600545 0.156518
Si Si2 0.000000 0.016659 0.241278
Si Si3 0.500000 0.401531 0.959621
Si Si4 0.603867 0.500000 0.500000
Si Si5 0.380548 0.321081 0.901745
Si Si6 0.259727 0.320071 0.084550
O O1 0.750000 0.572100 0.250000
O O2 0.851647 0.548483 0.082289
O O3 0.851646 0.645200 0.257192
O O4 0.784053 0.642482 0.024640
O O5 0.000000 0.064788 0.378396
O O6 0.000000 0.948216 0.315995
O O7 0.939386 0.027918 0.134462
O O8 0.441051 0.357202 0.954784
O O9 0.396302 0.250000 0.859690
O O10 0.332428 0.324273 0.041230
O O11 0.235603 0.250000 0.079866
O O12 0.250000 0.349205 0.250000
#
# Coordination Sequence:
#
# PCOD8300479 Si02
#       6
#    16   8   8   8  16  16
#     4  10  21  37  57  87 116 150 187 234 286 346
#     4  10  24  40  61  75 117 157 192 239 281 334
#     4  11  21  40  59  85 108 153 198 236 284 332
#     4  11  22  42  58  84 114 155 198 232 278 343
#     4  10  20  37  61  86 115 149 192 237 286 347
#     4   9  19  35  57  86 116 147 180 231 298 346
#
# _framework density 17.706627000000001
#
# number of rings (size 3 to 8) (size 9 to 14) (size 15 to 20)
#    0.000    2.000    2.222    1.000    3.111    3.556 
#    4.000    0.000    0.000    0.000    0.000    0.000 
#    0.000    0.000    0.000    0.000    0.000    0.000 
#
# Total GULP energy -446292.831846 kJ/mol
# GULP energy per Si atom -12397.023107 kJ/mol
# Density = 1.766633 g / cm^3
# Si number density = 17.706627 Si / 1000 Ang^3
#
#
#
# Elastic Constant Matrix: (Units=GPa)
#
#
# Indices 1 2 3 4 5 6 
#
# 1 131.6889 74.3452 73.3931 0.0000 0.0000 0.0000
# 2 74.3452 108.2059 59.2203 0.0000 0.0000 0.0000
# 3 73.3931 59.2203 138.0490 0.0000 0.0000 0.0000
# 4 0.0000 0.0000 0.0000 13.2210 0.0000 0.0000
# 5 0.0000 0.0000 0.0000 0.0000 23.5401 0.0000
# 6 0.0000 0.0000 0.0000 0.0000 0.0000 35.5890
#
#
#
# Elastic Compliance Matrix: (Units=1/GPa)
#
#
# Indices 1 2 3 4 5 6 
#
# 1 0.014188 -0.007344 -0.004392 0.000000 0.000000 0.000000
# 2 -0.007344 0.015879 -0.002907 0.000000 0.000000 0.000000
# 3 -0.004392 -0.002907 0.010826 0.000000 0.000000 0.000000
# 4 0.000000 0.000000 0.000000 0.075637 0.000000 0.000000
# 5 0.000000 0.000000 0.000000 0.000000 0.042481 0.000000
# 6 0.000000 0.000000 0.000000 0.000000 0.000000 0.028099
#
#
# Mechanical properties :
#
#
# Convention : Reuss Voigt Hill
#
# Bulk Modulus (GPa) = 86.16813 87.98454 87.07634
# Shear Modulus (GPa) = 22.69995 25.86903 24.28449
#
# Velocity S-wave (km/s) = 3.58439 3.82642 3.70738
# Velocity P-wave (km/s) = 8.11791 8.32587 8.22255
#
# Compressibility (1/GPa) = 0.01160522
#
# Stress axis : x y z
#
# Youngs Moduli (GPa) = 70.48341 62.97777 92.36922
#
# Poissons Ratio (x) = 0.46251 0.40572
# Poissons Ratio (y) = 0.51764 0.26853
# Poissons Ratio (z) = 0.30959 0.18309
#
# Static dielectric constant tensor:
#      x y z
#    x 4.300280 0.000000 0.000000 
#    y 0.000000 3.459940 0.000000 
#    z 0.000000 0.000000 3.552480 
# 
# 
# High freq. dielectric constant tensor:
#      x y z
#    x 1.694720 0.000000 0.000000 
#    y 0.000000 1.680620 0.000000 
#    z 0.000000 0.000000 1.698540 
# 
# From -- ./inp_files/12173.got.cif
#   From: 2010.03.12/outbox.cif.g09.slc.cpg/sg74_7_cif.got.tgz:12173.got - 2010.04.16 15:46:19.
