data_PCOD8300686
_publ_section_title
;
Structure prediction by ZEFSAII (Michael W. Deem and Ramdas Pophale) SiO2 
 PCOD8300686
Probable space group: I M M A
;
_chemical_formula_sum "Si O2"
_cell_formula_units_Z 72
_cell_length_a 13.124176
_cell_length_b 9.430599
_cell_length_c 32.269871
_cell_angle_alpha 90.000000
_cell_angle_beta 90.000000
_cell_angle_gamma 90.000000
_cell_volume 3994.004535
_symmetry_space_group_name_H-M "I M M A"
_symmetry_group_IT_number 74
_symmetry_cell_setting 'orthorhombic'
loop_
_space_group_symop_operation_xyz
x,y,z
-x,1/2-y,z
x,-y,-z
-x,1/2+y,-z
-x,-y,-z
x,1/2+y,-z
-x,y,z
x,1/2-y,z
1/2+x,1/2+y,1/2+z
1/2-x,-y,1/2+z
1/2+x,1/2-y,1/2-z
1/2-x,y,1/2-z
1/2-x,1/2-y,1/2-z
1/2+x,y,1/2-z
1/2-x,1/2+y,1/2+z
1/2+x,-y,1/2+z
loop_
_atom_site_type_symbol
_atom_site_label
_atom_site_fract_x
_atom_site_fract_y
_atom_site_fract_z
Si Si1 0.182814 0.417846 0.312161
Si Si2 0.610271 0.582033 0.722902
Si Si3 0.500000 0.911059 0.459289
Si Si4 0.384410 0.086628 0.890719
Si Si5 0.721609 0.084377 0.542661
O O1 0.171663 0.250000 0.319087
O O2 0.301708 0.466412 0.308907
O O3 0.129799 0.469521 0.269788
O O4 0.128768 0.496692 0.349420
O O5 0.500000 0.524192 0.707773
O O6 0.611941 0.750000 0.724441
O O7 0.500000 0.750000 0.474057
O O8 0.608416 0.942432 0.436369
O O9 0.500000 0.000000 0.500000
O O10 0.500000 0.067918 0.906965
O O11 0.360230 0.250000 0.880499
O O12 0.306930 0.028647 0.925550
O O13 0.738469 0.250000 0.532987
O O14 0.733944 0.000000 0.500000
#
# Coordination Sequence:
#
# PCOD8300686 Si02
#       5
#    16  16   8  16  16
#     4   9  17  30  50  73  94 124 166 202 234 281
#     4   8  14  27  48  72  98 125 156 200 247 282
#     4   8  14  28  50  70  88 114 150 190 230 278
#     4  10  21  35  48  67 100 134 159 193 243 290
#     4   9  18  33  52  72  94 123 158 195 238 284
#
# _framework density 18.027021000000001
#
# number of rings (size 3 to 8) (size 9 to 14) (size 15 to 20)
#    0.000    3.111    0.000    2.000    0.000    2.667 
#    2.000    2.222    0.000    1.333    0.000    0.000 
#    0.000    0.000    0.000    0.000    0.000    0.000 
#
# Total GULP energy -445979.351156 kJ/mol
# GULP energy per Si atom -12388.315310 kJ/mol
# Density = 1.798599 g / cm^3
# Si number density = 18.027021 Si / 1000 Ang^3
#
#
#
# Elastic Constant Matrix: (Units=GPa)
#
#
# Indices 1 2 3 4 5 6 
#
# 1 145.3162 21.2023 35.3970 0.0000 0.0000 0.0000
# 2 21.2023 31.1867 20.3255 0.0000 0.0000 0.0000
# 3 35.3970 20.3255 57.8546 0.0000 0.0000 0.0000
# 4 0.0000 0.0000 0.0000 24.2778 0.0000 0.0000
# 5 0.0000 0.0000 0.0000 0.0000 28.4318 0.0000
# 6 0.0000 0.0000 0.0000 0.0000 0.0000 19.0359
#
#
#
# Elastic Compliance Matrix: (Units=1/GPa)
#
#
# Indices 1 2 3 4 5 6 
#
# 1 0.008301 -0.003026 -0.004016 0.000000 0.000000 0.000000
# 2 -0.003026 0.042691 -0.013146 0.000000 0.000000 0.000000
# 3 -0.004016 -0.013146 0.024360 0.000000 0.000000 0.000000
# 4 0.000000 0.000000 0.000000 0.041190 0.000000 0.000000
# 5 0.000000 0.000000 0.000000 0.000000 0.035172 0.000000
# 6 0.000000 0.000000 0.000000 0.000000 0.000000 0.052532
#
#
# Mechanical properties :
#
#
# Convention : Reuss Voigt Hill
#
# Bulk Modulus (GPa) = 28.59189 43.13412 35.86300
# Shear Modulus (GPa) = 19.50979 24.84460 22.17720
#
# Velocity S-wave (km/s) = 3.29333 3.71642 3.51125
# Velocity P-wave (km/s) = 5.50966 6.51115 6.03123
#
# Compressibility (1/GPa) = 0.03497495
#
# Stress axis : x y z
#
# Youngs Moduli (GPa) = 120.46331 23.42441 41.05059
#
# Poissons Ratio (x) = 0.07089 0.16485
# Poissons Ratio (y) = 0.36458 0.53967
# Poissons Ratio (z) = 0.48374 0.30795
#
# Static dielectric constant tensor:
#      x y z
#    x 4.208680 0.000000 0.000000 
#    y 0.000000 2.975280 0.000000 
#    z 0.000000 0.000000 2.827660 
# 
# 
# High freq. dielectric constant tensor:
#      x y z
#    x 1.727650 0.000000 0.000000 
#    y 0.000000 1.668930 0.000000 
#    z 0.000000 0.000000 1.663750 
# 
# From -- ./inp_files/66726.got.cif
#   From: 2010.03.12/outbox.cif.g09.slc.cpg/sg74_34_cif.got.tgz:66726.got - 2010.04.16 15:46:19.
