data_PCOD8300118
_publ_section_title
;
Structure prediction by ZEFSAII (Michael W. Deem and Ramdas Pophale) SiO2 
 PCOD8300118
Probable space group: I M M A
;
_chemical_formula_sum "Si O2"
_cell_formula_units_Z 112
_cell_length_a 15.371818
_cell_length_b 14.206570
_cell_length_c 24.888575
_cell_angle_alpha 90.000000
_cell_angle_beta 90.000000
_cell_angle_gamma 90.000000
_cell_volume 5435.187130
_symmetry_space_group_name_H-M "I M M A"
_symmetry_group_IT_number 74
_symmetry_cell_setting 'orthorhombic'
loop_
_space_group_symop_operation_xyz
x,y,z
-x,1/2-y,z
x,-y,-z
-x,1/2+y,-z
-x,-y,-z
x,1/2+y,-z
-x,y,z
x,1/2-y,z
1/2+x,1/2+y,1/2+z
1/2-x,-y,1/2+z
1/2+x,1/2-y,1/2-z
1/2-x,y,1/2-z
1/2-x,1/2-y,1/2-z
1/2+x,y,1/2-z
1/2-x,1/2+y,1/2+z
1/2+x,-y,1/2+z
loop_
_atom_site_type_symbol
_atom_site_label
_atom_site_fract_x
_atom_site_fract_y
_atom_site_fract_z
Si Si1 0.405256 0.925697 0.952812
Si Si2 0.195771 0.137847 0.162913
Si Si3 0.848707 0.494111 0.341277
Si Si4 0.797287 0.360806 0.844157
Si Si5 0.285231 0.642985 0.543644
Si Si6 0.595668 0.511260 0.274179
Si Si7 0.902252 0.638446 0.050500
O O1 0.500000 0.872450 0.956532
O O2 0.319879 0.861924 0.960732
O O3 0.404197 0.974334 0.894395
O O4 0.401201 0.000000 0.000000
O O5 0.194986 0.250000 0.171563
O O6 0.179444 0.105917 0.100884
O O7 0.290079 0.095511 0.176680
O O8 0.124698 0.089168 0.200841
O O9 0.794230 0.588551 0.354191
O O10 0.910227 0.509254 0.290256
O O11 0.782132 0.250000 0.837498
O O12 0.839845 0.404102 0.790466
O O13 0.861821 0.388136 0.892341
O O14 0.311379 0.750000 0.539750
O O15 0.338529 0.592993 0.495274
O O16 0.500000 0.533306 0.296267
O O17 0.906064 0.750000 0.045200
O O18 0.000000 0.596549 0.045289
#
# Coordination Sequence:
#
# PCOD8300118 Si02
#       7
#    16  16  16  16  16  16  16
#     4  10  20  35  56  79 106 142 182 228 282 334
#     4   9  19  36  56  77 105 143 183 222 267 322
#     4  10  21  37  57  79 106 140 181 228 277 330
#     4  10  20  36  58  80 106 144 185 225 274 331
#     4   9  18  33  54  80 109 143 184 229 277 329
#     4  11  23  36  52  78 110 142 179 225 276 330
#     4   9  17  30  51  80 112 144 178 221 275 331
#
# _framework density 20.606466000000001
#
# number of rings (size 3 to 8) (size 9 to 14) (size 15 to 20)
#    0.000    2.286    0.000    3.429    0.000    4.286 
#    0.000    1.429    0.000   13.714    0.000    0.000 
#    0.000    0.000    0.000    0.000    0.000    0.000 
#
# Total GULP energy -693951.396927 kJ/mol
# GULP energy per Si atom -12391.989231 kJ/mol
# Density = 2.055956 g / cm^3
# Si number density = 20.606466 Si / 1000 Ang^3
#
#
#
# Elastic Constant Matrix: (Units=GPa)
#
#
# Indices 1 2 3 4 5 6 
#
# 1 91.2906 10.9174 20.2416 0.0000 0.0000 0.0000
# 2 10.9174 80.1647 2.3151 0.0000 0.0000 0.0000
# 3 20.2416 2.3151 101.6310 0.0000 0.0000 0.0000
# 4 0.0000 0.0000 0.0000 20.8894 0.0000 0.0000
# 5 0.0000 0.0000 0.0000 0.0000 1.4312 0.0000
# 6 0.0000 0.0000 0.0000 0.0000 0.0000 15.8247
#
#
#
# Elastic Compliance Matrix: (Units=1/GPa)
#
#
# Indices 1 2 3 4 5 6 
#
# 1 0.011642 -0.001520 -0.002284 0.000000 0.000000 0.000000
# 2 -0.001520 0.012681 0.000014 0.000000 0.000000 0.000000
# 3 -0.002284 0.000014 0.010294 0.000000 0.000000 0.000000
# 4 0.000000 0.000000 0.000000 0.047871 0.000000 0.000000
# 5 0.000000 0.000000 0.000000 0.000000 0.698732 0.000000
# 6 0.000000 0.000000 0.000000 0.000000 0.000000 0.063192
#
#
# Mechanical properties :
#
#
# Convention : Reuss Voigt Hill
#
# Bulk Modulus (GPa) = 36.98581 37.78160 37.38371
# Shear Modulus (GPa) = 5.80717 23.60320 14.70519
#
# Velocity S-wave (km/s) = 1.68055 3.38809 2.67426
# Velocity P-wave (km/s) = 4.66404 5.80346 5.26467
#
# Compressibility (1/GPa) = 0.02703739
#
# Stress axis : x y z
#
# Youngs Moduli (GPa) = 85.89433 78.85895 97.14274
#
# Poissons Ratio (x) = 0.11983 0.22189
# Poissons Ratio (y) = 0.13052 -0.00134
# Poissons Ratio (z) = 0.19619 -0.00109
#
# Static dielectric constant tensor:
#      x y z
#    x 3.878530 0.000000 0.000000 
#    y 0.000000 3.473800 0.000000 
#    z 0.000000 0.000000 4.041530 
# 
# 
# High freq. dielectric constant tensor:
#      x y z
#    x 1.801850 0.000000 0.000000 
#    y 0.000000 1.784730 0.000000 
#    z 0.000000 0.000000 1.821950 
# 
# From -- ./inp_files/60140.got.cif
#   From: 2010.03.12/outbox.cif.g09.slc.cpg/sg74_31_cif.got.tgz:60140.got - 2010.04.16 15:46:19.
