data_PCOD8300737
_publ_section_title
;
Structure prediction by ZEFSAII (Michael W. Deem and Ramdas Pophale) SiO2 
 PCOD8300737
Probable space group: I M M A
;
_chemical_formula_sum "Si O2"
_cell_formula_units_Z 84
_cell_length_a 15.457338
_cell_length_b 20.201568
_cell_length_c 13.581604
_cell_angle_alpha 90.000000
_cell_angle_beta 90.000000
_cell_angle_gamma 90.000000
_cell_volume 4241.025140
_symmetry_space_group_name_H-M "I M M A"
_symmetry_group_IT_number 74
_symmetry_cell_setting 'orthorhombic'
loop_
_space_group_symop_operation_xyz
x,y,z
-x,1/2-y,z
x,-y,-z
-x,1/2+y,-z
-x,-y,-z
x,1/2+y,-z
-x,y,z
x,1/2-y,z
1/2+x,1/2+y,1/2+z
1/2-x,-y,1/2+z
1/2+x,1/2-y,1/2-z
1/2-x,y,1/2-z
1/2-x,1/2-y,1/2-z
1/2+x,y,1/2-z
1/2-x,1/2+y,1/2+z
1/2+x,-y,1/2+z
loop_
_atom_site_type_symbol
_atom_site_label
_atom_site_fract_x
_atom_site_fract_y
_atom_site_fract_z
Si Si1 0.655715 0.878147 0.093366
Si Si2 0.403633 0.750000 0.199922
Si Si3 0.000000 0.370541 0.042207
Si Si4 0.000000 0.916914 0.753228
Si Si5 0.500000 0.750000 0.392926
Si Si6 0.154301 0.985100 0.244873
Si Si7 0.829527 0.569834 0.041537
Si Si8 0.500000 0.079177 0.027079
O O1 0.648671 0.814032 0.163304
O O2 0.638894 0.944212 0.156313
O O3 0.748947 0.878675 0.038310
O O4 0.582896 0.881601 0.011384
O O5 0.500000 0.750000 0.152652
O O6 0.415178 0.750000 0.320528
O O7 0.000000 0.358722 0.162096
O O8 0.087605 0.410602 0.021985
O O9 0.000000 0.309466 0.969297
O O10 0.000000 0.897613 0.640163
O O11 0.914035 0.958269 0.771629
O O12 0.250000 0.017273 0.250000
O O13 0.143887 0.933908 0.155456
O O14 0.795002 0.500000 0.000000
O O15 0.500000 0.000000 0.000000
#
# Coordination Sequence:
#
# PCOD8300737 Si02
#       8
#    16   8   8   8   4  16  16   8
#     4  11  22  39  62  94 127 162 212 265 327 386
#     4  10  22  43  67  92 127 165 209 262 322 391
#     4  12  24  42  59  89 127 175 220 260 320 382
#     4  12  23  35  59  86 122 165 206 260 323 376
#     4  10  24  44  72  90 130 176 226 264 320 398
#     4  10  21  35  56  92 124 154 201 261 320 383
#     4  11  22  37  62  93 129 165 210 269 326 394
#     4  12  21  35  61  90 123 160 206 266 332 375
#
# _framework density 19.806533000000002
#
# number of rings (size 3 to 8) (size 9 to 14) (size 15 to 20)
#    0.286    0.762    4.762    2.571    2.667    0.762 
#    0.000    6.190    0.000    0.000    0.000    3.333 
#    0.000    0.000    0.000    0.000    0.000    0.000 
#
# Total GULP energy -520394.650224 kJ/mol
# GULP energy per Si atom -12390.348815 kJ/mol
# Density = 1.976145 g / cm^3
# Si number density = 19.806533 Si / 1000 Ang^3
#
#
#
# Elastic Constant Matrix: (Units=GPa)
#
#
# Indices 1 2 3 4 5 6 
#
# 1 127.0623 37.0818 60.7547 0.0000 0.0000 0.0000
# 2 37.0818 81.3865 39.2226 0.0000 0.0000 0.0000
# 3 60.7547 39.2226 151.3719 0.0000 0.0000 0.0000
# 4 0.0000 0.0000 0.0000 37.0718 0.0000 0.0000
# 5 0.0000 0.0000 0.0000 0.0000 0.4863 0.0000
# 6 0.0000 0.0000 0.0000 0.0000 0.0000 42.4376
#
#
#
# Elastic Compliance Matrix: (Units=1/GPa)
#
#
# Indices 1 2 3 4 5 6 
#
# 1 0.010386 -0.003112 -0.003362 0.000000 0.000000 0.000000
# 2 -0.003112 0.014973 -0.002631 0.000000 0.000000 0.000000
# 3 -0.003362 -0.002631 0.008637 0.000000 0.000000 0.000000
# 4 0.000000 0.000000 0.000000 0.026975 0.000000 0.000000
# 5 0.000000 0.000000 0.000000 0.000000 2.056165 0.000000
# 6 0.000000 0.000000 0.000000 0.000000 0.000000 0.023564
#
#
# Mechanical properties :
#
#
# Convention : Reuss Voigt Hill
#
# Bulk Modulus (GPa) = 63.34472 70.43767 66.89120
# Shear Modulus (GPa) = 2.31035 30.84993 16.58014
#
# Velocity S-wave (km/s) = 1.08120 3.95088 2.89641
# Velocity P-wave (km/s) = 5.79740 7.51350 6.71053
#
# Compressibility (1/GPa) = 0.01578663
#
# Stress axis : x y z
#
# Youngs Moduli (GPa) = 96.28423 66.78841 115.77628
#
# Poissons Ratio (x) = 0.20783 0.38926
# Poissons Ratio (y) = 0.29961 0.30457
# Poissons Ratio (z) = 0.32373 0.17570
#
# Static dielectric constant tensor:
#      x y z
#    x 3.863040 0.000000 0.000000 
#    y 0.000000 3.268470 0.000000 
#    z 0.000000 0.000000 3.862890 
# 
# 
# High freq. dielectric constant tensor:
#      x y z
#    x 1.788940 0.000000 0.000000 
#    y 0.000000 1.723640 0.000000 
#    z 0.000000 0.000000 1.783870 
# 
# From -- ./inp_files/32292.got.cif
#   From: 2010.03.12/outbox.cif.g09.slc.cpg/sg74_17_cif.got.tgz:32292.got - 2010.04.16 15:46:19.
