data_PCOD8300131
_publ_section_title
;
Structure prediction by ZEFSAII (Michael W. Deem and Ramdas Pophale) SiO2 
 PCOD8300131
Probable space group: I M M A
;
_chemical_formula_sum "Si O2"
_cell_formula_units_Z 88
_cell_length_a 23.928924
_cell_length_b 8.834055
_cell_length_c 20.229586
_cell_angle_alpha 90.000000
_cell_angle_beta 90.000000
_cell_angle_gamma 90.000000
_cell_volume 4276.320668
_symmetry_space_group_name_H-M "I M M A"
_symmetry_group_IT_number 74
_symmetry_cell_setting 'orthorhombic'
loop_
_space_group_symop_operation_xyz
x,y,z
-x,1/2-y,z
x,-y,-z
-x,1/2+y,-z
-x,-y,-z
x,1/2+y,-z
-x,y,z
x,1/2-y,z
1/2+x,1/2+y,1/2+z
1/2-x,-y,1/2+z
1/2+x,1/2-y,1/2-z
1/2-x,y,1/2-z
1/2-x,1/2-y,1/2-z
1/2+x,y,1/2-z
1/2-x,1/2+y,1/2+z
1/2+x,-y,1/2+z
loop_
_atom_site_type_symbol
_atom_site_label
_atom_site_fract_x
_atom_site_fract_y
_atom_site_fract_z
Si Si1 0.500000 0.932052 0.074067
Si Si2 0.782625 0.071597 0.313616
Si Si3 0.761143 0.917056 0.062411
Si Si4 0.608776 0.084249 0.562578
Si Si5 0.937048 0.580212 0.196112
Si Si6 0.090349 0.570870 0.670792
O O1 0.500000 0.750000 0.070914
O O2 0.555719 0.987244 0.112806
O O3 0.500000 0.000000 0.000000
O O4 0.784830 0.250000 0.306843
O O5 0.750000 0.002578 0.250000
O O6 0.845610 0.011308 0.325620
O O7 0.745905 0.022673 0.374944
O O8 0.734257 0.750000 0.071989
O O9 0.826118 0.900693 0.048775
O O10 0.732079 0.000000 0.000000
O O11 0.580939 0.250000 0.565903
O O12 0.597531 0.008030 0.634371
O O13 0.580860 0.000000 0.500000
O O14 0.915160 0.750000 0.215121
O O15 0.934848 0.468730 0.258202
O O16 0.000000 0.589731 0.171401
O O17 0.086131 0.750000 0.658025
#
# Coordination Sequence:
#
# PCOD8300131 Si02
#       6
#     8  16  16  16  16  16
#     4  12  26  46  70  94 123 160 205 260 318 376
#     4  10  22  39  60  89 124 159 197 247 303 360
#     4  10  20  35  56  80 111 151 193 239 288 347
#     4   9  19  34  52  79 114 153 198 242 288 338
#     4  10  20  35  56  81 113 153 193 239 290 341
#     4  11  23  40  63  91 122 156 200 249 301 366
#
# _framework density 20.578440000000001
#
# number of rings (size 3 to 8) (size 9 to 14) (size 15 to 20)
#    0.000    1.818    0.909    3.000    0.000    4.364 
#    0.000    0.000    0.000    0.000    0.000    0.000 
#    0.000    0.000    0.000    0.000    0.000    0.000 
#
# Total GULP energy -545346.890392 kJ/mol
# GULP energy per Si atom -12394.247509 kJ/mol
# Density = 2.053160 g / cm^3
# Si number density = 20.578440 Si / 1000 Ang^3
#
#
#
# Elastic Constant Matrix: (Units=GPa)
#
#
# Indices 1 2 3 4 5 6 
#
# 1 73.3588 41.6011 42.4538 0.0000 0.0000 0.0000
# 2 41.6011 51.8705 41.1549 0.0000 0.0000 0.0000
# 3 42.4538 41.1549 178.6375 0.0000 0.0000 0.0000
# 4 0.0000 0.0000 0.0000 34.6003 0.0000 0.0000
# 5 0.0000 0.0000 0.0000 0.0000 24.7793 0.0000
# 6 0.0000 0.0000 0.0000 0.0000 0.0000 21.0694
#
#
#
# Elastic Compliance Matrix: (Units=1/GPa)
#
#
# Indices 1 2 3 4 5 6 
#
# 1 0.025392 -0.019061 -0.001643 0.000000 0.000000 0.000000
# 2 -0.019061 0.037900 -0.004201 0.000000 0.000000 0.000000
# 3 -0.001643 -0.004201 0.006956 0.000000 0.000000 0.000000
# 4 0.000000 0.000000 0.000000 0.028902 0.000000 0.000000
# 5 0.000000 0.000000 0.000000 0.000000 0.040356 0.000000
# 6 0.000000 0.000000 0.000000 0.000000 0.000000 0.047462
#
#
# Mechanical properties :
#
#
# Convention : Reuss Voigt Hill
#
# Bulk Modulus (GPa) = 48.93195 61.58735 55.25965
# Shear Modulus (GPa) = 20.52618 28.00026 24.26322
#
# Velocity S-wave (km/s) = 3.16169 3.69271 3.43747
# Velocity P-wave (km/s) = 6.09575 6.94079 6.53195
#
# Compressibility (1/GPa) = 0.02043654
#
# Stress axis : x y z
#
# Youngs Moduli (GPa) = 39.38268 26.38548 143.75311
#
# Poissons Ratio (x) = 0.50294 0.23621
# Poissons Ratio (y) = 0.75068 0.60398
# Poissons Ratio (z) = 0.06471 0.11086
#
# Static dielectric constant tensor:
#      x y z
#    x 3.752250 0.000000 0.000000 
#    y 0.000000 3.886390 0.000000 
#    z 0.000000 0.000000 3.765800 
# 
# 
# High freq. dielectric constant tensor:
#      x y z
#    x 1.793920 0.000000 0.000000 
#    y 0.000000 1.798680 0.000000 
#    z 0.000000 0.000000 1.816450 
# 
# From -- ./inp_files/48739.got.cif
#   From: 2010.03.12/outbox.cif.g09.slc.cpg/sg74_25_cif.got.tgz:48739.got - 2010.04.16 15:46:19.
