data_PCOD8300778
_publ_section_title
;
Structure prediction by ZEFSAII (Michael W. Deem and Ramdas Pophale) SiO2 
 PCOD8300778
Probable space group: I M M A
;
_chemical_formula_sum "Si O2"
_cell_formula_units_Z 80
_cell_length_a 27.612668
_cell_length_b 14.483354
_cell_length_c 9.410284
_cell_angle_alpha 90.000000
_cell_angle_beta 90.000000
_cell_angle_gamma 90.000000
_cell_volume 3763.398847
_symmetry_space_group_name_H-M "I M M A"
_symmetry_group_IT_number 74
_symmetry_cell_setting 'orthorhombic'
loop_
_space_group_symop_operation_xyz
x,y,z
-x,1/2-y,z
x,-y,-z
-x,1/2+y,-z
-x,-y,-z
x,1/2+y,-z
-x,y,z
x,1/2-y,z
1/2+x,1/2+y,1/2+z
1/2-x,-y,1/2+z
1/2+x,1/2-y,1/2-z
1/2-x,y,1/2-z
1/2-x,1/2-y,1/2-z
1/2+x,y,1/2-z
1/2-x,1/2+y,1/2+z
1/2+x,-y,1/2+z
loop_
_atom_site_type_symbol
_atom_site_label
_atom_site_fract_x
_atom_site_fract_y
_atom_site_fract_z
Si Si1 0.553327 0.908294 0.908239
Si Si2 0.296912 0.856154 0.653241
Si Si3 0.612796 0.015943 0.332727
Si Si4 0.370397 0.852755 0.123586
Si Si5 0.736033 0.359319 0.900014
O O1 0.500000 0.861430 0.902543
O O2 0.569478 0.928290 0.745511
O O3 0.591800 0.846081 0.993370
O O4 0.550715 0.000000 0.000000
O O5 0.316044 0.750000 0.647185
O O6 0.250000 0.861533 0.750000
O O7 0.339600 0.923862 0.698918
O O8 0.277292 0.896406 0.504387
O O9 0.601795 0.000000 0.500000
O O10 0.615507 0.916799 0.256092
O O11 0.365059 0.750000 0.188376
O O12 0.318950 0.887039 0.058009
O O13 0.740308 0.250000 0.899095
O O14 0.750000 0.404096 0.750000
#
# Coordination Sequence:
#
# PCOD8300778 Si02
#       5
#    16  16  16  16  16
#     4   9  20  40  62  83 110 148 197 249 298 351
#     4  10  21  36  54  80 118 162 205 249 295 350
#     4  11  23  36  58  91 123 158 195 243 310 373
#     4  10  21  39  62  88 119 158 207 253 292 349
#     4   9  17  31  52  77 109 151 193 237 290 343
#
# _framework density 21.257379
#
# number of rings (size 3 to 8) (size 9 to 14) (size 15 to 20)
#    0.000    2.200    0.000    2.400    0.000    8.000 
#    0.000    0.000    0.000    0.000    0.000    2.800 
#    0.000    0.000    0.000    0.000    0.000    0.000 
#
# Total GULP energy -495639.828616 kJ/mol
# GULP energy per Si atom -12390.995715 kJ/mol
# Density = 2.120900 g / cm^3
# Si number density = 21.257379 Si / 1000 Ang^3
#
#
#
# Elastic Constant Matrix: (Units=GPa)
#
#
# Indices 1 2 3 4 5 6 
#
# 1 145.1823 28.0121 44.3765 0.0000 0.0000 0.0000
# 2 28.0121 68.9251 35.3801 0.0000 0.0000 0.0000
# 3 44.3765 35.3801 126.8275 0.0000 0.0000 0.0000
# 4 0.0000 0.0000 0.0000 32.2652 0.0000 0.0000
# 5 0.0000 0.0000 0.0000 0.0000 26.4514 0.0000
# 6 0.0000 0.0000 0.0000 0.0000 0.0000 16.6505
#
#
#
# Elastic Compliance Matrix: (Units=1/GPa)
#
#
# Indices 1 2 3 4 5 6 
#
# 1 0.007967 -0.002109 -0.002199 0.000000 0.000000 0.000000
# 2 -0.002109 0.017492 -0.004142 0.000000 0.000000 0.000000
# 3 -0.002199 -0.004142 0.009810 0.000000 0.000000 0.000000
# 4 0.000000 0.000000 0.000000 0.030993 0.000000 0.000000
# 5 0.000000 0.000000 0.000000 0.000000 0.037805 0.000000
# 6 0.000000 0.000000 0.000000 0.000000 0.000000 0.060058
#
#
# Mechanical properties :
#
#
# Convention : Reuss Voigt Hill
#
# Bulk Modulus (GPa) = 54.44109 61.83025 58.13567
# Shear Modulus (GPa) = 26.71692 30.61783 28.66738
#
# Velocity S-wave (km/s) = 3.54903 3.79930 3.67629
# Velocity P-wave (km/s) = 6.51615 6.95671 6.74003
#
# Compressibility (1/GPa) = 0.01836848
#
# Stress axis : x y z
#
# Youngs Moduli (GPa) = 125.51689 57.17053 101.94098
#
# Poissons Ratio (x) = 0.12057 0.22420
# Poissons Ratio (y) = 0.26471 0.42219
# Poissons Ratio (z) = 0.27605 0.23677
#
# Static dielectric constant tensor:
#      x y z
#    x 4.051850 0.000000 0.000000 
#    y 0.000000 3.716420 0.000000 
#    z 0.000000 0.000000 3.023100 
# 
# 
# High freq. dielectric constant tensor:
#      x y z
#    x 1.825640 0.000000 0.000000 
#    y 0.000000 1.826580 0.000000 
#    z 0.000000 0.000000 1.832010 
# 
# From -- ./inp_files/14907.got.cif
#   From: 2010.03.12/outbox.cif.g09.slc.cpg/sg74_8_cif.got.tgz:14907.got - 2010.04.16 15:46:19.
