data_PCOD8300770
_publ_section_title
;
Structure prediction by ZEFSAII (Michael W. Deem and Ramdas Pophale) SiO2 
 PCOD8300770
Probable space group: I M M A
;
_chemical_formula_sum "Si O2"
_cell_formula_units_Z 64
_cell_length_a 9.237548
_cell_length_b 9.205496
_cell_length_c 40.958806
_cell_angle_alpha 90.000000
_cell_angle_beta 90.000000
_cell_angle_gamma 90.000000
_cell_volume 3482.981676
_symmetry_space_group_name_H-M "I M M A"
_symmetry_group_IT_number 74
_symmetry_cell_setting 'orthorhombic'
loop_
_space_group_symop_operation_xyz
x,y,z
-x,1/2-y,z
x,-y,-z
-x,1/2+y,-z
-x,-y,-z
x,1/2+y,-z
-x,y,z
x,1/2-y,z
1/2+x,1/2+y,1/2+z
1/2-x,-y,1/2+z
1/2+x,1/2-y,1/2-z
1/2-x,y,1/2-z
1/2-x,1/2-y,1/2-z
1/2+x,y,1/2-z
1/2-x,1/2+y,1/2+z
1/2+x,-y,1/2+z
loop_
_atom_site_type_symbol
_atom_site_label
_atom_site_fract_x
_atom_site_fract_y
_atom_site_fract_z
Si Si1 0.666955 0.919894 0.966850
Si Si2 0.170401 0.582541 0.089493
Si Si3 0.668071 0.081232 0.218295
Si Si4 0.833947 0.419371 0.654263
O O1 0.500000 0.951014 0.958018
O O2 0.697226 0.750000 0.971353
O O3 0.767000 0.981226 0.938517
O O4 0.711365 0.000000 0.000000
O O5 0.211534 0.750000 0.082233
O O6 0.238874 0.530949 0.123574
O O7 0.000000 0.559970 0.091520
O O8 0.500000 0.048794 0.223560
O O9 0.701557 0.250000 0.213473
O O10 0.750000 0.019589 0.250000
O O11 0.726320 0.000850 0.186122
O O12 0.817428 0.250000 0.661058
O O13 0.000000 0.462847 0.647113
#
# Coordination Sequence:
#
# PCOD8300770 Si02
#       4
#    16  16  16  16
#     4  10  21  37  58  82 106 136 175 215 256 305
#     4  10  21  36  54  78 108 140 173 212 260 310
#     4   9  18  32  49  70  97 129 165 206 253 304
#     4   9  18  33  52  73  99 133 171 210 253 302
#
# _framework density 18.375060000000001
#
# number of rings (size 3 to 8) (size 9 to 14) (size 15 to 20)
#    0.000    2.500    0.000    1.500    0.000    6.000 
#    0.000    2.500    0.000    0.000    0.000    0.000 
#    0.000    0.000    0.000    0.000    0.000    0.000 
#
# Total GULP energy -396917.259704 kJ/mol
# GULP energy per Si atom -12403.664366 kJ/mol
# Density = 1.833324 g / cm^3
# Si number density = 18.375060 Si / 1000 Ang^3
#
#
#
# Elastic Constant Matrix: (Units=GPa)
#
#
# Indices 1 2 3 4 5 6 
#
# 1 74.8309 44.5772 76.6501 0.0000 0.0000 0.0000
# 2 44.5772 73.6719 76.0848 0.0000 0.0000 0.0000
# 3 76.6501 76.0848 179.9816 0.0000 0.0000 0.0000
# 4 0.0000 0.0000 0.0000 40.0096 0.0000 0.0000
# 5 0.0000 0.0000 0.0000 0.0000 35.0411 0.0000
# 6 0.0000 0.0000 0.0000 0.0000 0.0000 24.5749
#
#
#
# Elastic Compliance Matrix: (Units=1/GPa)
#
#
# Indices 1 2 3 4 5 6 
#
# 1 0.025896 -0.007595 -0.007818 0.000000 0.000000 0.000000
# 2 -0.007595 0.026319 -0.007892 0.000000 0.000000 0.000000
# 3 -0.007818 -0.007892 0.012221 0.000000 0.000000 0.000000
# 4 0.000000 0.000000 0.000000 0.024994 0.000000 0.000000
# 5 0.000000 0.000000 0.000000 0.000000 0.028538 0.000000
# 6 0.000000 0.000000 0.000000 0.000000 0.000000 0.040692
#
#
# Mechanical properties :
#
#
# Convention : Reuss Voigt Hill
#
# Bulk Modulus (GPa) = 56.09207 80.34538 68.21872
# Shear Modulus (GPa) = 23.67293 28.66993 26.17143
#
# Velocity S-wave (km/s) = 3.59321 3.95430 3.77807
# Velocity P-wave (km/s) = 6.91428 8.04169 7.49921
#
# Compressibility (1/GPa) = 0.01782783
#
# Stress axis : x y z
#
# Youngs Moduli (GPa) = 38.61659 37.99479 81.82304
#
# Poissons Ratio (x) = 0.28858 0.63966
# Poissons Ratio (y) = 0.29330 0.64571
# Poissons Ratio (z) = 0.30189 0.29984
#
# Static dielectric constant tensor:
#      x y z
#    x 3.326930 0.000000 0.000000 
#    y 0.000000 3.344690 0.000000 
#    z 0.000000 0.000000 3.559830 
# 
# 
# High freq. dielectric constant tensor:
#      x y z
#    x 1.706220 0.000000 0.000000 
#    y 0.000000 1.708580 0.000000 
#    z 0.000000 0.000000 1.723950 
# 
# From -- ./inp_files/69740.got.cif
#   From: 2010.03.12/outbox.cif.g09.slc.cpg/sg74_35_cif.got.tgz:69740.got - 2010.04.16 15:46:19.
