data_PCOD8300823
_publ_section_title
;
Structure prediction by ZEFSAII (Michael W. Deem and Ramdas Pophale) SiO2 
 PCOD8300823
Probable space group: I M M A
;
_chemical_formula_sum "Si O2"
_cell_formula_units_Z 64
_cell_length_a 23.023447
_cell_length_b 14.345732
_cell_length_c 8.908893
_cell_angle_alpha 90.000000
_cell_angle_beta 90.000000
_cell_angle_gamma 90.000000
_cell_volume 2942.502236
_symmetry_space_group_name_H-M "I M M A"
_symmetry_group_IT_number 74
_symmetry_cell_setting 'orthorhombic'
loop_
_space_group_symop_operation_xyz
x,y,z
-x,1/2-y,z
x,-y,-z
-x,1/2+y,-z
-x,-y,-z
x,1/2+y,-z
-x,y,z
x,1/2-y,z
1/2+x,1/2+y,1/2+z
1/2-x,-y,1/2+z
1/2+x,1/2-y,1/2-z
1/2-x,y,1/2-z
1/2-x,1/2-y,1/2-z
1/2+x,y,1/2-z
1/2-x,1/2+y,1/2+z
1/2+x,-y,1/2+z
loop_
_atom_site_type_symbol
_atom_site_label
_atom_site_fract_x
_atom_site_fract_y
_atom_site_fract_z
Si Si1 0.563983 0.401020 0.576477
Si Si2 0.872714 0.480118 0.651204
Si Si3 0.837632 0.853244 0.867657
Si Si4 0.231518 0.854434 0.421045
O O1 0.557891 0.500000 0.500000
O O2 0.500000 0.354193 0.588084
O O3 0.590616 0.412837 0.742092
O O4 0.606632 0.339627 0.475685
O O5 0.911260 0.500000 0.500000
O O6 0.849003 0.572160 0.736953
O O7 0.821213 0.424728 0.567262
O O8 0.825519 0.750000 0.798781
O O9 0.783576 0.888395 0.968713
O O10 0.212973 0.750000 0.467765
O O11 0.250000 0.855936 0.250000
#
# Coordination Sequence:
#
# PCOD8300823 Si02
#       4
#    16  16  16  16
#     4   9  19  37  60  85 114 154 201 245 294 352
#     4  11  24  36  61  88 125 163 198 245 303 360
#     4  10  22  40  61  89 120 157 203 249 297 359
#     4  10  21  36  58  87 119 152 196 248 299 357
#
# _framework density 21.750195000000001
#
# number of rings (size 3 to 8) (size 9 to 14) (size 15 to 20)
#    0.000    2.000    2.500    0.000    3.500    2.000 
#    0.000    2.500    0.000    0.000    0.000    3.500 
#    0.000    0.000    0.000    0.000    0.000    0.000 
#
# Total GULP energy -396481.600159 kJ/mol
# GULP energy per Si atom -12390.050005 kJ/mol
# Density = 2.170069 g / cm^3
# Si number density = 21.750195 Si / 1000 Ang^3
#
#
#
# Elastic Constant Matrix: (Units=GPa)
#
#
# Indices 1 2 3 4 5 6 
#
# 1 114.9072 18.2085 41.6664 0.0000 0.0000 0.0000
# 2 18.2085 72.5958 31.7541 0.0000 0.0000 0.0000
# 3 41.6664 31.7541 154.4801 0.0000 0.0000 0.0000
# 4 0.0000 0.0000 0.0000 17.5493 0.0000 0.0000
# 5 0.0000 0.0000 0.0000 0.0000 11.4105 0.0000
# 6 0.0000 0.0000 0.0000 0.0000 0.0000 -10.8324
#
#
#
# Elastic Compliance Matrix: (Units=1/GPa)
#
#
# Indices 1 2 3 4 5 6 
#
# 1 0.009779 -0.001427 -0.002344 0.000000 0.000000 0.000000
# 2 -0.001427 0.015344 -0.002769 0.000000 0.000000 0.000000
# 3 -0.002344 -0.002769 0.007675 0.000000 0.000000 0.000000
# 4 0.000000 0.000000 0.000000 0.056982 0.000000 0.000000
# 5 0.000000 0.000000 0.000000 0.000000 0.087638 0.000000
# 6 0.000000 0.000000 0.000000 0.000000 0.000000 -0.092316
#
#
# Mechanical properties :
#
#
# Convention : Reuss Voigt Hill
#
# Bulk Modulus (GPa) = 50.71869 58.36010 54.53939
# Shear Modulus (GPa) = 47.72987 20.31576 34.02281
#
# Velocity S-wave (km/s) = 4.68959 3.05954 3.95935
# Velocity P-wave (km/s) = 7.25895 6.27465 6.78467
#
# Compressibility (1/GPa) = 0.01971660
#
# Stress axis : x y z
#
# Youngs Moduli (GPa) = 102.26124 65.17149 130.29677
#
# Poissons Ratio (x) = 0.09302 0.30544
# Poissons Ratio (y) = 0.14597 0.36080
# Poissons Ratio (z) = 0.23972 0.18046
#
# Static dielectric constant tensor:
#      x y z
#    x 4.145820 0.000000 0.000000 
#    y 0.000000 3.346080 0.000000 
#    z 0.000000 0.000000 4.128500 
# 
# 
# High freq. dielectric constant tensor:
#      x y z
#    x 1.832450 0.000000 0.000000 
#    y 0.000000 1.855020 0.000000 
#    z 0.000000 0.000000 1.870510 
# 
# From -- ./inp_files/8769.got.cif
#   From: 2010.03.12/outbox.cif.g09.slc.cpg/sg74_5_cif.got.tgz:8769.got - 2010.04.16 15:46:19.
