data_PCOD8300805
_publ_section_title
;
Structure prediction by ZEFSAII (Michael W. Deem and Ramdas Pophale) SiO2 
 PCOD8300805
Probable space group: I M M A
;
_chemical_formula_sum "Si O2"
_cell_formula_units_Z 56
_cell_length_a 13.395227
_cell_length_b 20.728270
_cell_length_c 10.183053
_cell_angle_alpha 90.000000
_cell_angle_beta 90.000000
_cell_angle_gamma 90.000000
_cell_volume 2827.425294
_symmetry_space_group_name_H-M "I M M A"
_symmetry_group_IT_number 74
_symmetry_cell_setting 'orthorhombic'
loop_
_space_group_symop_operation_xyz
x,y,z
-x,1/2-y,z
x,-y,-z
-x,1/2+y,-z
-x,-y,-z
x,1/2+y,-z
-x,y,z
x,1/2-y,z
1/2+x,1/2+y,1/2+z
1/2-x,-y,1/2+z
1/2+x,1/2-y,1/2-z
1/2-x,y,1/2-z
1/2-x,1/2-y,1/2-z
1/2+x,y,1/2-z
1/2-x,1/2+y,1/2+z
1/2+x,-y,1/2+z
loop_
_atom_site_type_symbol
_atom_site_label
_atom_site_fract_x
_atom_site_fract_y
_atom_site_fract_z
Si Si1 0.750000 0.134066 0.750000
Si Si2 0.384557 0.821144 0.474639
Si Si3 0.382376 0.949904 0.607264
Si Si4 0.616138 0.973746 0.142461
O O1 0.682343 0.177872 0.656041
O O2 0.676323 0.091582 0.838457
O O3 0.500000 0.833399 0.434945
O O4 0.372332 0.750000 0.539542
O O5 0.347661 0.876609 0.576077
O O6 0.500000 0.953226 0.598212
O O7 0.336691 0.000000 0.500000
O O8 0.347906 0.972255 0.751865
O O9 0.500000 0.957654 0.160289
O O10 0.641300 0.000000 0.000000
#
# Coordination Sequence:
#
# PCOD8300805 Si02
#       4
#     8  16  16  16
#     4  12  21  32  58  82 115 154 192 236 281 350
#     4  10  21  36  56  84 117 152 193 240 288 342
#     4   9  16  33  57  78 103 141 188 232 278 329
#     4  10  22  36  54  86 119 147 187 241 295 340
#
# _framework density 19.806006
#
# number of rings (size 3 to 8) (size 9 to 14) (size 15 to 20)
#    0.000    2.000    2.857    1.286    4.000    0.000 
#    0.000    0.000    0.000    5.143    0.000   12.000 
#    0.000    0.000    0.000    0.000    0.000    0.000 
#
# Total GULP energy -347082.610113 kJ/mol
# GULP energy per Si atom -12395.807504 kJ/mol
# Density = 1.976093 g / cm^3
# Si number density = 19.806006 Si / 1000 Ang^3
#
#
#
# Elastic Constant Matrix: (Units=GPa)
#
#
# Indices 1 2 3 4 5 6 
#
# 1 66.9845 23.1138 9.4411 0.0002 -0.0001 -0.0001
# 2 23.1138 149.2580 55.8801 -0.0004 0.0002 -0.0002
# 3 9.4411 55.8801 137.6171 -0.0031 0.0012 -0.0009
# 4 0.0002 -0.0004 -0.0031 23.4853 0.0006 -0.0005
# 5 -0.0001 0.0002 0.0012 0.0006 -8.4007 0.0001
# 6 -0.0001 -0.0002 -0.0009 -0.0005 0.0001 17.2592
#
#
#
# Elastic Compliance Matrix: (Units=1/GPa)
#
#
# Indices 1 2 3 4 5 6 
#
# 1 0.015773 -0.002403 -0.000106 0.000000 0.000000 0.000000
# 2 -0.002403 0.008267 -0.003192 0.000000 0.000000 0.000000
# 3 -0.000106 -0.003192 0.008570 0.000001 0.000001 0.000000
# 4 0.000000 0.000000 0.000001 0.042580 0.000003 0.000001
# 5 0.000000 0.000000 0.000001 0.000003 -0.119037 0.000001
# 6 0.000000 0.000000 0.000000 0.000001 0.000001 0.057940
#
#
# Mechanical properties :
#
#
# Convention : Reuss Voigt Hill
#
# Bulk Modulus (GPa) = 47.15313 58.96996 53.06155
# Shear Modulus (GPa) = 153.54343 24.16372 88.85357
#
# Velocity S-wave (km/s) = 8.81430 3.49667 6.70517
# Velocity P-wave (km/s) = 11.28931 6.79269 9.31636
#
# Compressibility (1/GPa) = 0.02120750
#
# Stress axis : x y z
#
# Youngs Moduli (GPa) = 63.39981 120.96398 116.68662
#
# Poissons Ratio (x) = 0.29064 0.01242
# Poissons Ratio (y) = 0.15233 0.37246
# Poissons Ratio (z) = 0.00675 0.38612
#
# Static dielectric constant tensor:
#      x y z
#    x 3.737810 0.000000 0.000000 
#    y 0.000000 3.644900 0.000000 
#    z 0.000000 0.000000 3.602060 
# 
# 
# High freq. dielectric constant tensor:
#      x y z
#    x 1.788130 0.000000 0.000000 
#    y 0.000000 1.760140 0.000000 
#    z 0.000000 0.000000 1.753960 
# 
# From -- ./inp_files/8467.got.cif
#   From: 2010.03.12/outbox.cif.g09.slc.cpg/sg74_5_cif.got.tgz:8467.got - 2010.04.16 15:46:19.
