data_PCOD8300059
_publ_section_title
;
Structure prediction by ZEFSAII (Michael W. Deem and Ramdas Pophale) SiO2 
 PCOD8300059
Probable space group: I M M A
;
_chemical_formula_sum "Si O2"
_cell_formula_units_Z 72
_cell_length_a 14.403538
_cell_length_b 14.264126
_cell_length_c 17.548543
_cell_angle_alpha 90.000000
_cell_angle_beta 90.000000
_cell_angle_gamma 90.000000
_cell_volume 3605.416263
_symmetry_space_group_name_H-M "I M M A"
_symmetry_group_IT_number 74
_symmetry_cell_setting 'orthorhombic'
loop_
_space_group_symop_operation_xyz
x,y,z
-x,1/2-y,z
x,-y,-z
-x,1/2+y,-z
-x,-y,-z
x,1/2+y,-z
-x,y,z
x,1/2-y,z
1/2+x,1/2+y,1/2+z
1/2-x,-y,1/2+z
1/2+x,1/2-y,1/2-z
1/2-x,y,1/2-z
1/2-x,1/2-y,1/2-z
1/2+x,y,1/2-z
1/2-x,1/2+y,1/2+z
1/2+x,-y,1/2+z
loop_
_atom_site_type_symbol
_atom_site_label
_atom_site_fract_x
_atom_site_fract_y
_atom_site_fract_z
Si Si1 0.101932 0.750000 0.901240
Si Si2 0.106244 0.050088 0.705058
Si Si3 0.604497 0.046186 0.362944
Si Si4 0.793764 0.551117 0.572884
Si Si5 0.214243 0.750000 0.518930
Si Si6 0.891562 0.750000 0.359834
O O1 0.112694 0.658502 0.846568
O O2 0.173005 0.750000 0.973434
O O3 0.000000 0.750000 0.939733
O O4 0.131035 0.159486 0.692185
O O5 0.000000 0.031514 0.685620
O O6 0.129439 0.017839 0.790372
O O7 0.164041 0.983812 0.650719
O O8 0.500000 0.021483 0.392093
O O9 0.683178 0.026772 0.426248
O O10 0.837800 0.500000 0.500000
O O11 0.821451 0.659554 0.564315
O O12 0.177648 0.750000 0.432253
O O13 0.000000 0.750000 0.386300
#
# Coordination Sequence:
#
# PCOD8300059 Si02
#       6
#     8  16  16  16   8   8
#     4   8  16  33  59  84 113 143 178 231 286 330
#     4  10  21  37  57  80 111 147 188 229 276 331
#     4   9  19  36  57  83 111 146 185 229 280 330
#     4  11  21  35  57  81 113 145 186 228 281 333
#     4  10  20  35  53  83 115 141 182 229 280 334
#     4  10  20  36  57  80 111 149 186 232 276 324
#
# _framework density 19.969954000000001
#
# number of rings (size 3 to 8) (size 9 to 14) (size 15 to 20)
#    0.000    2.222    2.222    0.667    0.000    2.667 
#    0.000    7.778    0.000    0.000    0.000    0.000 
#    0.000    0.000    0.000    0.000    0.000    0.000 
#
# Total GULP energy -446030.674414 kJ/mol
# GULP energy per Si atom -12389.740956 kJ/mol
# Density = 1.992450 g / cm^3
# Si number density = 19.969954 Si / 1000 Ang^3
#
#
#
# Elastic Constant Matrix: (Units=GPa)
#
#
# Indices 1 2 3 4 5 6 
#
# 1 49.4565 42.2824 31.8988 0.0000 0.0000 0.0000
# 2 42.2824 137.1584 46.7912 0.0000 0.0000 0.0000
# 3 31.8988 46.7912 60.6830 0.0000 0.0000 0.0000
# 4 0.0000 0.0000 0.0000 32.7288 0.0000 0.0000
# 5 0.0000 0.0000 0.0000 0.0000 28.3394 0.0000
# 6 0.0000 0.0000 0.0000 0.0000 0.0000 20.6941
#
#
#
# Elastic Compliance Matrix: (Units=1/GPa)
#
#
# Indices 1 2 3 4 5 6 
#
# 1 0.033791 -0.005912 -0.013204 0.000000 0.000000 0.000000
# 2 -0.005912 0.010928 -0.005318 0.000000 0.000000 0.000000
# 3 -0.013204 -0.005318 0.027520 0.000000 0.000000 0.000000
# 4 0.000000 0.000000 0.000000 0.030554 0.000000 0.000000
# 5 0.000000 0.000000 0.000000 0.000000 0.035287 0.000000
# 6 0.000000 0.000000 0.000000 0.000000 0.000000 0.048323
#
#
# Mechanical properties :
#
#
# Convention : Reuss Voigt Hill
#
# Bulk Modulus (GPa) = 42.78899 54.36029 48.57464
# Shear Modulus (GPa) = 20.57093 24.77416 22.67254
#
# Velocity S-wave (km/s) = 3.21299 3.52600 3.37313
# Velocity P-wave (km/s) = 5.93613 6.62246 6.28866
#
# Compressibility (1/GPa) = 0.02337050
#
# Stress axis : x y z
#
# Youngs Moduli (GPa) = 29.59386 91.50997 36.33658
#
# Poissons Ratio (x) = 0.54105 0.47978
# Poissons Ratio (y) = 0.17497 0.19324
# Poissons Ratio (z) = 0.39075 0.48667
#
# Static dielectric constant tensor:
#      x y z
#    x 3.861160 0.000000 0.000000 
#    y 0.000000 3.937930 0.000000 
#    z 0.000000 0.000000 3.256370 
# 
# 
# High freq. dielectric constant tensor:
#      x y z
#    x 1.785890 0.000000 0.000000 
#    y 0.000000 1.794000 0.000000 
#    z 0.000000 0.000000 1.746510 
# 
# From -- ./inp_files/42530.got.cif
#   From: 2010.03.12/outbox.cif.g09.slc.cpg/sg74_22_cif.got.tgz:42530.got - 2010.04.16 15:46:19.
