data_PCOD8300775
_publ_section_title
;
Structure prediction by ZEFSAII (Michael W. Deem and Ramdas Pophale) SiO2 
 PCOD8300775
Probable space group: I M M A
;
_chemical_formula_sum "Si O2"
_cell_formula_units_Z 96
_cell_length_a 23.882433
_cell_length_b 8.891776
_cell_length_c 23.424916
_cell_angle_alpha 90.000000
_cell_angle_beta 90.000000
_cell_angle_gamma 90.000000
_cell_volume 4974.450616
_symmetry_space_group_name_H-M "I M M A"
_symmetry_group_IT_number 74
_symmetry_cell_setting 'orthorhombic'
loop_
_space_group_symop_operation_xyz
x,y,z
-x,1/2-y,z
x,-y,-z
-x,1/2+y,-z
-x,-y,-z
x,1/2+y,-z
-x,y,z
x,1/2-y,z
1/2+x,1/2+y,1/2+z
1/2-x,-y,1/2+z
1/2+x,1/2-y,1/2-z
1/2-x,y,1/2-z
1/2-x,1/2-y,1/2-z
1/2+x,y,1/2-z
1/2-x,1/2+y,1/2+z
1/2+x,-y,1/2+z
loop_
_atom_site_type_symbol
_atom_site_label
_atom_site_fract_x
_atom_site_fract_y
_atom_site_fract_z
Si Si1 0.844212 0.927468 0.138972
Si Si2 0.269650 0.071283 0.134416
Si Si3 0.563730 0.421940 0.167546
Si Si4 0.935124 0.073355 0.060078
Si Si5 0.338556 0.074794 0.770921
Si Si6 0.871831 0.579279 0.558331
O O1 0.846672 0.750000 0.128735
O O2 0.841891 0.972168 0.205184
O O3 0.787622 0.996279 0.112349
O O4 0.898380 0.002054 0.110366
O O5 0.263630 0.250000 0.136979
O O6 0.316242 0.016274 0.089241
O O7 0.288523 0.013455 0.197161
O O8 0.500000 0.462522 0.180546
O O9 0.578228 0.250000 0.185039
O O10 0.601015 0.535187 0.203698
O O11 0.575431 0.442634 0.100283
O O12 0.923440 0.250000 0.056297
O O13 0.000000 0.039062 0.074123
O O14 0.917711 0.000000 0.000000
O O15 0.325952 0.250000 0.778437
O O16 0.886380 0.500000 0.500000
O O17 0.860843 0.750000 0.542686
#
# Coordination Sequence:
#
# PCOD8300775 Si02
#       6
#    16  16  16  16  16  16
#     4  11  23  37  57  85 114 144 180 223 270 326
#     4  10  21  37  56  79 110 146 184 227 274 325
#     4   9  19  36  55  76 106 143 183 227 272 320
#     4  10  22  41  63  85 111 144 182 225 273 324
#     4  10  21  36  54  80 113 145 180 225 276 326
#     4   9  19  34  52  76 105 139 178 222 270 316
#
# _framework density 19.298611999999999
#
# number of rings (size 3 to 8) (size 9 to 14) (size 15 to 20)
#    0.000    2.167    0.000    3.500    0.000   11.000 
#    0.000    5.000    0.000    0.000    0.000    0.000 
#    0.000    0.000    0.000    0.000    0.000    0.000 
#
# Total GULP energy -595270.651004 kJ/mol
# GULP energy per Si atom -12401.471896 kJ/mol
# Density = 1.925469 g / cm^3
# Si number density = 19.298612 Si / 1000 Ang^3
#
#
#
# Elastic Constant Matrix: (Units=GPa)
#
#
# Indices 1 2 3 4 5 6 
#
# 1 88.4725 27.0630 13.9341 0.0000 0.0000 0.0000
# 2 27.0630 70.7400 24.6486 0.0000 0.0000 0.0000
# 3 13.9341 24.6486 50.0470 0.0000 0.0000 0.0000
# 4 0.0000 0.0000 0.0000 35.3196 0.0000 0.0000
# 5 0.0000 0.0000 0.0000 0.0000 20.7783 0.0000
# 6 0.0000 0.0000 0.0000 0.0000 0.0000 30.6339
#
#
#
# Elastic Compliance Matrix: (Units=1/GPa)
#
#
# Indices 1 2 3 4 5 6 
#
# 1 0.012882 -0.004440 -0.001400 0.000000 0.000000 0.000000
# 2 -0.004440 0.018595 -0.007922 0.000000 0.000000 0.000000
# 3 -0.001400 -0.007922 0.024273 0.000000 0.000000 0.000000
# 4 0.000000 0.000000 0.000000 0.028313 0.000000 0.000000
# 5 0.000000 0.000000 0.000000 0.000000 0.048127 0.000000
# 6 0.000000 0.000000 0.000000 0.000000 0.000000 0.032644
#
#
# Mechanical properties :
#
#
# Convention : Reuss Voigt Hill
#
# Bulk Modulus (GPa) = 35.42900 37.83897 36.63399
# Shear Modulus (GPa) = 24.78118 26.92061 25.85089
#
# Velocity S-wave (km/s) = 3.58731 3.73896 3.66392
# Velocity P-wave (km/s) = 5.96293 6.18784 6.07643
#
# Compressibility (1/GPa) = 0.02822547
#
# Stress axis : x y z
#
# Youngs Moduli (GPa) = 77.62972 53.77664 41.19872
#
# Poissons Ratio (x) = 0.23879 0.05766
# Poissons Ratio (y) = 0.34471 0.32638
# Poissons Ratio (z) = 0.10865 0.42602
#
# Static dielectric constant tensor:
#      x y z
#    x 3.574160 0.000000 0.000000 
#    y 0.000000 3.509420 0.000000 
#    z 0.000000 0.000000 3.489970 
# 
# 
# High freq. dielectric constant tensor:
#      x y z
#    x 1.757330 0.000000 0.000000 
#    y 0.000000 1.755850 0.000000 
#    z 0.000000 0.000000 1.744710 
# 
# From -- ./inp_files/49128.got.cif
#   From: 2010.03.12/outbox.cif.g09.slc.cpg/sg74_25_cif.got.tgz:49128.got - 2010.04.16 15:46:19.
