data_PCOD8300675
_publ_section_title
;
Structure prediction by ZEFSAII (Michael W. Deem and Ramdas Pophale) SiO2 
 PCOD8300675
Probable space group: I M M A
;
_chemical_formula_sum "Si O2"
_cell_formula_units_Z 112
_cell_length_a 13.454745
_cell_length_b 30.042847
_cell_length_c 15.244195
_cell_angle_alpha 90.000000
_cell_angle_beta 90.000000
_cell_angle_gamma 90.000000
_cell_volume 6161.990903
_symmetry_space_group_name_H-M "I M M A"
_symmetry_group_IT_number 74
_symmetry_cell_setting 'orthorhombic'
loop_
_space_group_symop_operation_xyz
x,y,z
-x,1/2-y,z
x,-y,-z
-x,1/2+y,-z
-x,-y,-z
x,1/2+y,-z
-x,y,z
x,1/2-y,z
1/2+x,1/2+y,1/2+z
1/2-x,-y,1/2+z
1/2+x,1/2-y,1/2-z
1/2-x,y,1/2-z
1/2-x,1/2-y,1/2-z
1/2+x,y,1/2-z
1/2-x,1/2+y,1/2+z
1/2+x,-y,1/2+z
loop_
_atom_site_type_symbol
_atom_site_label
_atom_site_fract_x
_atom_site_fract_y
_atom_site_fract_z
Si Si1 0.611889 0.054938 0.625069
Si Si2 0.797101 0.077260 0.527273
Si Si3 0.114995 0.649282 0.593343
Si Si4 0.110397 0.030062 0.688147
Si Si5 0.387309 0.383203 0.289270
Si Si6 0.726211 0.032568 0.360483
Si Si7 0.714170 0.797926 0.652596
O O1 0.500000 0.063119 0.590018
O O2 0.688070 0.086527 0.571341
O O3 0.620344 0.064228 0.729719
O O4 0.640271 0.002695 0.615274
O O5 0.851320 0.120669 0.490361
O O6 0.868718 0.056711 0.600027
O O7 0.783769 0.041919 0.450384
O O8 0.132081 0.623392 0.685531
O O9 0.188432 0.691580 0.593265
O O10 0.000000 0.663890 0.583654
O O11 0.000000 0.009593 0.684915
O O12 0.186771 0.988753 0.702249
O O13 0.500000 0.396623 0.307995
O O14 0.315891 0.422093 0.321272
O O15 0.364485 0.338635 0.346751
O O16 0.668942 0.750000 0.620209
O O17 0.750000 0.791036 0.750000
#
# Coordination Sequence:
#
# PCOD8300675 Si02
#       7
#    16  16  16  16  16  16  16
#     4  10  22  36  50  68  96 137 177 216 258 301
#     4  11  21  33  52  71 101 129 170 220 255 301
#     4  10  21  34  52  76 103 134 169 210 254 295
#     4  10  22  36  51  70  97 135 177 216 258 302
#     4  10  21  35  51  73 102 136 172 207 247 295
#     4  11  21  33  50  70 100 133 171 217 252 293
#     4   9  18  34  54  75 101 132 168 203 241 296
#
# _framework density 18.175944000000001
#
# number of rings (size 3 to 8) (size 9 to 14) (size 15 to 20)
#    0.000    1.857    1.429    4.286    4.000    4.000 
#    0.000    2.857    0.000    0.000    0.000    0.000 
#    0.000    2.286    0.000    3.429    0.571    0.000 
#
# Total GULP energy -693964.252002 kJ/mol
# GULP energy per Si atom -12392.218786 kJ/mol
# Density = 1.813457 g / cm^3
# Si number density = 18.175944 Si / 1000 Ang^3
#
#
#
# Elastic Constant Matrix: (Units=GPa)
#
#
# Indices 1 2 3 4 5 6 
#
# 1 120.4196 28.9053 32.4332 -0.0005 0.0001 0.0001
# 2 28.9053 78.9216 22.8344 0.0002 0.0000 0.0000
# 3 32.4332 22.8344 59.4471 -0.0014 0.0002 0.0001
# 4 -0.0005 0.0002 -0.0014 52.1608 -0.0001 0.0001
# 5 0.0001 0.0000 0.0002 -0.0001 28.3427 -0.0001
# 6 0.0001 0.0000 0.0001 0.0001 -0.0001 20.7383
#
#
#
# Elastic Compliance Matrix: (Units=1/GPa)
#
#
# Indices 1 2 3 4 5 6 
#
# 1 0.010114 -0.002371 -0.004607 0.000000 0.000000 0.000000
# 2 -0.002371 0.014811 -0.004395 0.000000 0.000000 0.000000
# 3 -0.004607 -0.004395 0.021024 0.000001 0.000000 0.000000
# 4 0.000000 0.000000 0.000001 0.019171 0.000000 0.000000
# 5 0.000000 0.000000 0.000000 0.000000 0.035282 0.000000
# 6 0.000000 0.000000 0.000000 0.000000 0.000000 0.048220
#
#
# Mechanical properties :
#
#
# Convention : Reuss Voigt Hill
#
# Bulk Modulus (GPa) = 43.10164 47.45936 45.28050
# Shear Modulus (GPa) = 27.91659 31.88938 29.90299
#
# Velocity S-wave (km/s) = 3.92332 4.19320 4.06050
# Velocity P-wave (km/s) = 6.65494 7.04355 6.85200
#
# Compressibility (1/GPa) = 0.02320097
#
# Stress axis : x y z
#
# Youngs Moduli (GPa) = 98.86847 67.51720 47.56546
#
# Poissons Ratio (x) = 0.16011 0.21915
# Poissons Ratio (y) = 0.23446 0.20907
# Poissons Ratio (z) = 0.45552 0.29676
#
# Static dielectric constant tensor:
#      x y z
#    x 3.588250 0.000000 0.000000 
#    y 0.000000 3.335700 0.000000 
#    z 0.000000 0.000000 3.516150 
# 
# 
# High freq. dielectric constant tensor:
#      x y z
#    x 1.721920 0.000000 0.000000 
#    y 0.000000 1.654970 0.000000 
#    z 0.000000 0.000000 1.696310 
# 
# From -- ./inp_files/33120.got.cif
#   From: 2010.03.12/outbox.cif.g09.slc.cpg/sg74_17_cif.got.tgz:33120.got - 2010.04.16 15:46:19.
