data_PCOD8300954
_publ_section_title
;
Structure prediction by ZEFSAII (Michael W. Deem and Ramdas Pophale) SiO2 
 PCOD8300954
Probable space group: I M M A
;
_chemical_formula_sum "Si O2"
_cell_formula_units_Z 96
_cell_length_a 22.984598
_cell_length_b 17.997590
_cell_length_c 12.306411
_cell_angle_alpha 90.000000
_cell_angle_beta 90.000000
_cell_angle_gamma 90.000000
_cell_volume 5090.760686
_symmetry_space_group_name_H-M "I M M A"
_symmetry_group_IT_number 74
_symmetry_cell_setting 'orthorhombic'
loop_
_space_group_symop_operation_xyz
x,y,z
-x,1/2-y,z
x,-y,-z
-x,1/2+y,-z
-x,-y,-z
x,1/2+y,-z
-x,y,z
x,1/2-y,z
1/2+x,1/2+y,1/2+z
1/2-x,-y,1/2+z
1/2+x,1/2-y,1/2-z
1/2-x,y,1/2-z
1/2-x,1/2-y,1/2-z
1/2+x,y,1/2-z
1/2-x,1/2+y,1/2+z
1/2+x,-y,1/2+z
loop_
_atom_site_type_symbol
_atom_site_label
_atom_site_fract_x
_atom_site_fract_y
_atom_site_fract_z
Si Si1 0.567081 0.163410 0.128379
Si Si2 0.433392 0.421936 0.728368
Si Si3 0.933134 0.914645 0.847429
Si Si4 0.137366 0.580750 0.448956
Si Si5 0.123825 0.664817 0.045188
Si Si6 0.752730 0.664289 0.374734
O O1 0.500000 0.143828 0.107276
O O2 0.577622 0.250000 0.145675
O O3 0.589351 0.121718 0.235830
O O4 0.602119 0.136340 0.024833
O O5 0.500000 0.410329 0.764319
O O6 0.426032 0.497100 0.659475
O O7 0.394179 0.424149 0.834235
O O8 0.413481 0.354654 0.651872
O O9 0.000000 0.891908 0.870259
O O10 0.893339 0.886080 0.944331
O O11 0.141380 0.500000 0.500000
O O12 0.201774 0.612927 0.437169
O O13 0.110847 0.750000 0.016007
O O14 0.191338 0.651130 0.068088
O O15 0.772572 0.750000 0.382001
O O16 0.750000 0.638821 0.250000
#
# Coordination Sequence:
#
# PCOD8300954 Si02
#       6
#    16  16  16  16  16  16
#     4  10  21  37  60  89 123 163 202 243 297 359
#     4  11  23  38  61  91 125 158 198 251 304 359
#     4  10  21  39  61  89 126 163 196 240 302 367
#     4  12  23  39  62  91 120 160 205 251 298 353
#     4  11  23  40  63  89 120 158 204 252 303 361
#     4  10  22  43  64  84 117 159 200 250 307 351
#
# _framework density 18.857693000000001
#
# number of rings (size 3 to 8) (size 9 to 14) (size 15 to 20)
#    0.000    1.333    3.333    2.500    0.000    6.000 
#    0.000    0.833    0.000    3.000    0.000    0.000 
#    0.000    0.000    0.000    0.000    0.000    0.000 
#
# Total GULP energy -595502.189147 kJ/mol
# GULP energy per Si atom -12406.295607 kJ/mol
# Density = 1.881477 g / cm^3
# Si number density = 18.857693 Si / 1000 Ang^3
#
#
#
# Elastic Constant Matrix: (Units=GPa)
#
#
# Indices 1 2 3 4 5 6 
#
# 1 84.0934 38.7985 40.8115 0.0000 0.0000 0.0000
# 2 38.7985 41.8887 17.4361 0.0000 0.0000 0.0000
# 3 40.8115 17.4361 95.8283 0.0000 0.0000 0.0000
# 4 0.0000 0.0000 0.0000 25.6743 0.0000 0.0000
# 5 0.0000 0.0000 0.0000 0.0000 98.1003 0.0000
# 6 0.0000 0.0000 0.0000 0.0000 0.0000 11.0439
#
#
#
# Elastic Compliance Matrix: (Units=1/GPa)
#
#
# Indices 1 2 3 4 5 6 
#
# 1 0.024219 -0.019625 -0.006744 0.000000 0.000000 0.000000
# 2 -0.019625 0.041732 0.000765 0.000000 0.000000 0.000000
# 3 -0.006744 0.000765 0.013168 0.000000 0.000000 0.000000
# 4 0.000000 0.000000 0.000000 0.038950 0.000000 0.000000
# 5 0.000000 0.000000 0.000000 0.000000 0.010194 0.000000
# 6 0.000000 0.000000 0.000000 0.000000 0.000000 0.090548
#
#
# Mechanical properties :
#
#
# Convention : Reuss Voigt Hill
#
# Bulk Modulus (GPa) = 35.82810 46.21140 41.01975
# Shear Modulus (GPa) = 17.90053 35.28129 26.59091
#
# Velocity S-wave (km/s) = 3.08432 4.33011 3.75918
# Velocity P-wave (km/s) = 5.63245 7.03977 6.37506
#
# Compressibility (1/GPa) = 0.02791105
#
# Stress axis : x y z
#
# Youngs Moduli (GPa) = 41.29022 23.96249 75.94102
#
# Poissons Ratio (x) = 0.47027 0.51211
# Poissons Ratio (y) = 0.81033 -0.05808
# Poissons Ratio (z) = 0.27844 -0.01833
#
# Static dielectric constant tensor:
#      x y z
#    x 3.441190 0.000000 0.000000 
#    y 0.000000 3.549020 0.000000 
#    z 0.000000 0.000000 3.662780 
# 
# 
# High freq. dielectric constant tensor:
#      x y z
#    x 1.730090 0.000000 0.000000 
#    y 0.000000 1.742980 0.000000 
#    z 0.000000 0.000000 1.742330 
# 
# From -- ./inp_files/22413.got.cif
#   From: 2010.03.12/outbox.cif.g09.slc.cpg/sg74_12_cif.got.tgz:22413.got - 2010.04.16 15:46:19.
