data_PCOD8300316
_publ_section_title
;
Structure prediction by ZEFSAII (Michael W. Deem and Ramdas Pophale) SiO2 
 PCOD8300316
Probable space group: I M M A
;
_chemical_formula_sum "Si O2"
_cell_formula_units_Z 112
_cell_length_a 27.634676
_cell_length_b 14.441688
_cell_length_c 14.178048
_cell_angle_alpha 90.000000
_cell_angle_beta 90.000000
_cell_angle_gamma 90.000000
_cell_volume 5658.336583
_symmetry_space_group_name_H-M "I M M A"
_symmetry_group_IT_number 74
_symmetry_cell_setting 'orthorhombic'
loop_
_space_group_symop_operation_xyz
x,y,z
-x,1/2-y,z
x,-y,-z
-x,1/2+y,-z
-x,-y,-z
x,1/2+y,-z
-x,y,z
x,1/2-y,z
1/2+x,1/2+y,1/2+z
1/2-x,-y,1/2+z
1/2+x,1/2-y,1/2-z
1/2-x,y,1/2-z
1/2-x,1/2-y,1/2-z
1/2+x,y,1/2-z
1/2-x,1/2+y,1/2+z
1/2+x,-y,1/2+z
loop_
_atom_site_type_symbol
_atom_site_label
_atom_site_fract_x
_atom_site_fract_y
_atom_site_fract_z
Si Si1 0.291261 0.144832 0.174143
Si Si2 0.691811 0.356624 0.657357
Si Si3 0.910269 0.142956 0.926811
Si Si4 0.945602 0.473482 0.758540
Si Si5 0.346489 0.535061 0.170310
Si Si6 0.784315 0.856181 0.459024
Si Si7 0.444056 0.852444 0.626336
O O1 0.310000 0.250000 0.190717
O O2 0.250000 0.120113 0.250000
O O3 0.336257 0.074355 0.182588
O O4 0.270351 0.132910 0.068647
O O5 0.697164 0.250000 0.686191
O O6 0.645931 0.373683 0.591510
O O7 0.686544 0.412914 0.753230
O O8 0.738206 0.391220 0.599852
O O9 0.925389 0.250000 0.918379
O O10 0.943180 0.088533 0.852220
O O11 0.918281 0.107337 0.033050
O O12 0.904039 0.445035 0.683477
O O13 0.934587 0.579688 0.786332
O O14 0.000000 0.463074 0.715356
O O15 0.329804 0.578008 0.069735
O O16 0.797909 0.750000 0.436441
O O17 0.500000 0.847559 0.601043
O O18 0.424225 0.750000 0.653016
#
# Coordination Sequence:
#
# PCOD8300316 Si02
#       7
#    16  16  16  16  16  16  16
#     4  10  22  38  56  81 110 139 171 209 259 318
#     4   9  18  32  52  81 112 140 173 210 251 307
#     4   9  17  29  47  73 105 141 178 217 265 318
#     4  10  21  34  48  71 102 136 179 230 276 316
#     4  11  21  34  55  79 106 142 179 216 260 310
#     4  10  20  36  58  80 106 138 171 212 259 311
#     4   9  17  30  48  69  98 141 187 225 264 312
#
# _framework density 19.793803
#
# number of rings (size 3 to 8) (size 9 to 14) (size 15 to 20)
#    0.000    2.286    0.000    3.000    0.000    5.429 
#    0.000    5.714    0.000    1.714    0.000    2.000 
#    0.000    0.000    0.000    0.000    0.000    0.000 
#
# Total GULP energy -694290.545054 kJ/mol
# GULP energy per Si atom -12398.045447 kJ/mol
# Density = 1.974875 g / cm^3
# Si number density = 19.793803 Si / 1000 Ang^3
#
#
#
# Elastic Constant Matrix: (Units=GPa)
#
#
# Indices 1 2 3 4 5 6 
#
# 1 102.0565 35.3604 45.0075 0.0000 0.0000 0.0000
# 2 35.3604 71.0917 22.8158 0.0000 0.0000 0.0000
# 3 45.0075 22.8158 79.0397 0.0000 0.0000 0.0000
# 4 0.0000 0.0000 0.0000 25.3370 0.0000 0.0000
# 5 0.0000 0.0000 0.0000 0.0000 22.1546 0.0000
# 6 0.0000 0.0000 0.0000 0.0000 0.0000 25.9638
#
#
#
# Elastic Compliance Matrix: (Units=1/GPa)
#
#
# Indices 1 2 3 4 5 6 
#
# 1 0.014562 -0.005050 -0.006834 0.000000 0.000000 0.000000
# 2 -0.005050 0.017254 -0.002105 0.000000 0.000000 0.000000
# 3 -0.006834 -0.002105 0.017151 0.000000 0.000000 0.000000
# 4 0.000000 0.000000 0.000000 0.039468 0.000000 0.000000
# 5 0.000000 0.000000 0.000000 0.000000 0.045137 0.000000
# 6 0.000000 0.000000 0.000000 0.000000 0.000000 0.038515
#
#
# Mechanical properties :
#
#
# Convention : Reuss Voigt Hill
#
# Bulk Modulus (GPa) = 47.64477 50.95058 49.29768
# Shear Modulus (GPa) = 24.14736 24.62469 24.38602
#
# Velocity S-wave (km/s) = 3.49656 3.53095 3.51380
# Velocity P-wave (km/s) = 6.35799 6.51307 6.43600
#
# Compressibility (1/GPa) = 0.02098866
#
# Stress axis : x y z
#
# Youngs Moduli (GPa) = 68.67130 57.95900 58.30477
#
# Poissons Ratio (x) = 0.29267 0.39848
# Poissons Ratio (y) = 0.34677 0.12273
# Poissons Ratio (z) = 0.46933 0.12201
#
# Static dielectric constant tensor:
#      x y z
#    x 3.462930 0.000000 0.000000 
#    y 0.000000 3.878800 0.000000 
#    z 0.000000 0.000000 3.441260 
# 
# 
# High freq. dielectric constant tensor:
#      x y z
#    x 1.754970 0.000000 0.000000 
#    y 0.000000 1.786260 0.000000 
#    z 0.000000 0.000000 1.746900 
# 
# From -- ./inp_files/27237.got.cif
#   From: 2010.03.12/outbox.cif.g09.slc.cpg/sg74_14_cif.got.tgz:27237.got - 2010.04.16 15:46:19.
