data_PCOD8300515
_publ_section_title
;
Structure prediction by ZEFSAII (Michael W. Deem and Ramdas Pophale) SiO2 
 PCOD8300515
Probable space group: I M M A
;
_chemical_formula_sum "Si O2"
_cell_formula_units_Z 96
_cell_length_a 29.995381
_cell_length_b 18.831637
_cell_length_c 8.969839
_cell_angle_alpha 90.000000
_cell_angle_beta 90.000000
_cell_angle_gamma 90.000000
_cell_volume 5066.722333
_symmetry_space_group_name_H-M "I M M A"
_symmetry_group_IT_number 74
_symmetry_cell_setting 'orthorhombic'
loop_
_space_group_symop_operation_xyz
x,y,z
-x,1/2-y,z
x,-y,-z
-x,1/2+y,-z
-x,-y,-z
x,1/2+y,-z
-x,y,z
x,1/2-y,z
1/2+x,1/2+y,1/2+z
1/2-x,-y,1/2+z
1/2+x,1/2-y,1/2-z
1/2-x,y,1/2-z
1/2-x,1/2-y,1/2-z
1/2+x,y,1/2-z
1/2-x,1/2+y,1/2+z
1/2+x,-y,1/2+z
loop_
_atom_site_type_symbol
_atom_site_label
_atom_site_fract_x
_atom_site_fract_y
_atom_site_fract_z
Si Si1 0.450119 0.077725 0.063629
Si Si2 0.104802 0.671514 0.365534
Si Si3 0.756609 0.924274 0.072885
Si Si4 0.872092 0.570018 0.791012
Si Si5 0.357082 0.416724 0.614687
Si Si6 0.315136 0.331726 0.094361
O O1 0.500000 0.096990 0.117385
O O2 0.416788 0.087432 0.200951
O O3 0.436802 0.126958 0.924886
O O4 0.447379 0.000000 0.000000
O O5 0.086353 0.750000 0.346148
O O6 0.123044 0.647699 0.206198
O O7 0.145437 0.666755 0.477680
O O8 0.750000 0.925273 0.250000
O O9 0.807826 0.903890 0.049768
O O10 0.727933 0.864627 0.987242
O O11 0.744646 0.000000 0.000000
O O12 0.857920 0.486950 0.779462
O O13 0.831048 0.619717 0.734285
O O14 0.885765 0.580996 0.963255
O O15 0.304983 0.250000 0.144503
#
# Coordination Sequence:
#
# PCOD8300515 Si02
#       6
#    16  16  16  16  16  16
#     4  10  20  37  65  92 113 147 193 241 291 352
#     4  10  21  38  60  86 117 153 191 238 300 353
#     4  12  23  35  58  82 116 159 211 255 295 347
#     4  10  21  39  60  82 124 154 198 245 296 361
#     4  11  21  37  57  87 117 160 200 240 298 349
#     4  10  23  38  57  84 115 160 204 248 297 344
#
# _framework density 18.947161000000001
#
# number of rings (size 3 to 8) (size 9 to 14) (size 15 to 20)
#    0.000    1.500    5.000    1.000    0.000    2.000 
#    0.000    3.333    0.000    0.000    0.000    0.000 
#    0.000    0.000    0.000    0.000    0.000    0.000 
#
# Total GULP energy -595006.869524 kJ/mol
# GULP energy per Si atom -12395.976448 kJ/mol
# Density = 1.890404 g / cm^3
# Si number density = 18.947161 Si / 1000 Ang^3
#
#
#
# Elastic Constant Matrix: (Units=GPa)
#
#
# Indices 1 2 3 4 5 6 
#
# 1 86.7915 61.4947 19.5456 0.0000 0.0000 0.0000
# 2 61.4947 130.5380 50.1421 0.0000 0.0000 0.0000
# 3 19.5456 50.1421 76.6101 0.0000 0.0000 0.0000
# 4 0.0000 0.0000 0.0000 23.1328 0.0000 0.0000
# 5 0.0000 0.0000 0.0000 0.0000 23.4655 0.0000
# 6 0.0000 0.0000 0.0000 0.0000 0.0000 244.3065
#
#
#
# Elastic Compliance Matrix: (Units=1/GPa)
#
#
# Indices 1 2 3 4 5 6 
#
# 1 0.017381 -0.008663 0.001235 0.000000 0.000000 0.000000
# 2 -0.008663 0.014551 -0.007313 0.000000 0.000000 0.000000
# 3 0.001235 -0.007313 0.017525 0.000000 0.000000 0.000000
# 4 0.000000 0.000000 0.000000 0.043229 0.000000 0.000000
# 5 0.000000 0.000000 0.000000 0.000000 0.042616 0.000000
# 6 0.000000 0.000000 0.000000 0.000000 0.000000 0.004093
#
#
# Mechanical properties :
#
#
# Convention : Reuss Voigt Hill
#
# Bulk Modulus (GPa) = 50.06231 61.81160 55.93696
# Shear Modulus (GPa) = 28.48440 69.03144 48.75792
#
# Velocity S-wave (km/s) = 3.88152 6.04258 5.07834
# Velocity P-wave (km/s) = 6.82406 9.02096 7.99829
#
# Compressibility (1/GPa) = 0.01997511
#
# Stress axis : x y z
#
# Youngs Moduli (GPa) = 57.53253 68.72519 57.06235
#
# Poissons Ratio (x) = 0.59534 -0.07049
# Poissons Ratio (y) = 0.49838 0.41732
# Poissons Ratio (z) = -0.07107 0.50262
#
# Static dielectric constant tensor:
#      x y z
#    x 3.485050 0.000000 0.000000 
#    y 0.000000 3.663420 0.000000 
#    z 0.000000 0.000000 3.291840 
# 
# 
# High freq. dielectric constant tensor:
#      x y z
#    x 1.722650 0.000000 0.000000 
#    y 0.000000 1.735920 0.000000 
#    z 0.000000 0.000000 1.742010 
# 
# From -- ./inp_files/15098.got.cif
#   From: 2010.03.12/outbox.cif.g09.slc.cpg/sg74_8_cif.got.tgz:15098.got - 2010.04.16 15:46:19.
