data_PCOD8300464
_publ_section_title
;
Structure prediction by ZEFSAII (Michael W. Deem and Ramdas Pophale) SiO2 
 PCOD8300464
Probable space group: I M M A
;
_chemical_formula_sum "Si O2"
_cell_formula_units_Z 64
_cell_length_a 17.265722
_cell_length_b 20.972416
_cell_length_c 8.658323
_cell_angle_alpha 90.000000
_cell_angle_beta 90.000000
_cell_angle_gamma 90.000000
_cell_volume 3135.212563
_symmetry_space_group_name_H-M "I M M A"
_symmetry_group_IT_number 74
_symmetry_cell_setting 'orthorhombic'
loop_
_space_group_symop_operation_xyz
x,y,z
-x,1/2-y,z
x,-y,-z
-x,1/2+y,-z
-x,-y,-z
x,1/2+y,-z
-x,y,z
x,1/2-y,z
1/2+x,1/2+y,1/2+z
1/2-x,-y,1/2+z
1/2+x,1/2-y,1/2-z
1/2-x,y,1/2-z
1/2-x,1/2-y,1/2-z
1/2+x,y,1/2-z
1/2-x,1/2+y,1/2+z
1/2+x,-y,1/2+z
loop_
_atom_site_type_symbol
_atom_site_label
_atom_site_fract_x
_atom_site_fract_y
_atom_site_fract_z
Si Si1 0.910382 0.750000 0.627973
Si Si2 0.411138 0.507377 0.678106
Si Si3 0.165053 0.887244 0.313493
Si Si4 0.337636 0.750000 0.196756
Si Si5 0.668210 0.627615 0.821341
O O1 0.849718 0.750000 0.486857
O O2 0.891330 0.685203 0.721818
O O3 0.000000 0.750000 0.575361
O O4 0.390336 0.500000 0.500000
O O5 0.500000 0.525427 0.705376
O O6 0.394678 0.441366 0.765356
O O7 0.358293 0.562832 0.742836
O O8 0.250000 0.902979 0.250000
O O9 0.130328 0.819133 0.245978
O O10 0.172162 0.884469 0.496910
O O11 0.250000 0.750000 0.250000
O O12 0.750000 0.647523 0.750000
#
# Coordination Sequence:
#
# PCOD8300464 Si02
#       5
#     8  16  16   8  16
#     4  10  21  37  60  91 123 154 196 250 303 357
#     4  11  24  40  57  82 118 156 197 247 302 357
#     4  10  20  37  60  86 115 150 195 243 292 351
#     4   8  18  35  58  87 118 154 196 246 296 353
#     4  11  22  38  62  88 118 156 198 244 296 357
#
# _framework density 20.413288999999999
#
# number of rings (size 3 to 8) (size 9 to 14) (size 15 to 20)
#    0.000    1.750    0.000    4.125    0.000    6.000 
#    0.000    3.750    0.000    3.000    0.000    1.750 
#    0.000    0.000    0.000    0.000    0.000    0.000 
#
# Total GULP energy -396534.477340 kJ/mol
# GULP energy per Si atom -12391.702417 kJ/mol
# Density = 2.036683 g / cm^3
# Si number density = 20.413289 Si / 1000 Ang^3
#
#
#
# Elastic Constant Matrix: (Units=GPa)
#
#
# Indices 1 2 3 4 5 6 
#
# 1 88.2875 47.4965 47.0250 0.0000 0.0000 0.0000
# 2 47.4965 157.6857 32.0545 0.0000 0.0000 0.0000
# 3 47.0250 32.0545 86.2741 0.0000 0.0000 0.0000
# 4 0.0000 0.0000 0.0000 12.3875 0.0000 0.0000
# 5 0.0000 0.0000 0.0000 0.0000 27.4442 0.0000
# 6 0.0000 0.0000 0.0000 0.0000 0.0000 33.8826
#
#
#
# Elastic Compliance Matrix: (Units=1/GPa)
#
#
# Indices 1 2 3 4 5 6 
#
# 1 0.017708 -0.003647 -0.008297 0.000000 0.000000 0.000000
# 2 -0.003647 0.007611 -0.000840 0.000000 0.000000 0.000000
# 3 -0.008297 -0.000840 0.016425 0.000000 0.000000 0.000000
# 4 0.000000 0.000000 0.000000 0.080727 0.000000 0.000000
# 5 0.000000 0.000000 0.000000 0.000000 0.036438 0.000000
# 6 0.000000 0.000000 0.000000 0.000000 0.000000 0.029514
#
#
# Mechanical properties :
#
#
# Convention : Reuss Voigt Hill
#
# Bulk Modulus (GPa) = 61.81838 65.04437 63.43138
# Shear Modulus (GPa) = 22.79127 28.45429 25.62278
#
# Velocity S-wave (km/s) = 3.34502 3.73756 3.54673
# Velocity P-wave (km/s) = 6.72815 7.11047 6.92195
#
# Compressibility (1/GPa) = 0.01617642
#
# Stress axis : x y z
#
# Youngs Moduli (GPa) = 56.47182 131.38825 60.88152
#
# Poissons Ratio (x) = 0.47920 0.50513
# Poissons Ratio (y) = 0.20596 0.05113
# Poissons Ratio (z) = 0.46854 0.11035
#
# Static dielectric constant tensor:
#      x y z
#    x 3.584710 0.000000 0.000000 
#    y 0.000000 4.453960 0.000000 
#    z 0.000000 0.000000 3.634860 
# 
# 
# High freq. dielectric constant tensor:
#      x y z
#    x 1.784280 0.000000 0.000000 
#    y 0.000000 1.833580 0.000000 
#    z 0.000000 0.000000 1.783670 
# 
# From -- ./inp_files/8860.got.cif
#   From: 2010.03.12/outbox.cif.g09.slc.cpg/sg74_5_cif.got.tgz:8860.got - 2010.04.16 15:46:19.
