data_PCOD8300426
_publ_section_title
;
Structure prediction by ZEFSAII (Michael W. Deem and Ramdas Pophale) SiO2 
 PCOD8300426
Probable space group: I M M A
;
_chemical_formula_sum "Si O2"
_cell_formula_units_Z 112
_cell_length_a 14.606486
_cell_length_b 26.149225
_cell_length_c 14.368477
_cell_angle_alpha 90.000000
_cell_angle_beta 90.000000
_cell_angle_gamma 90.000000
_cell_volume 5488.015204
_symmetry_space_group_name_H-M "I M M A"
_symmetry_group_IT_number 74
_symmetry_cell_setting 'orthorhombic'
loop_
_space_group_symop_operation_xyz
x,y,z
-x,1/2-y,z
x,-y,-z
-x,1/2+y,-z
-x,-y,-z
x,1/2+y,-z
-x,y,z
x,1/2-y,z
1/2+x,1/2+y,1/2+z
1/2-x,-y,1/2+z
1/2+x,1/2-y,1/2-z
1/2-x,y,1/2-z
1/2-x,1/2-y,1/2-z
1/2+x,y,1/2-z
1/2-x,1/2+y,1/2+z
1/2+x,-y,1/2+z
loop_
_atom_site_type_symbol
_atom_site_label
_atom_site_fract_x
_atom_site_fract_y
_atom_site_fract_z
Si Si1 0.108314 0.519428 0.398487
Si Si2 0.250585 0.811051 0.513396
Si Si3 0.392678 0.853060 0.649902
Si Si4 0.257618 0.109965 0.859744
Si Si5 0.101730 0.956427 0.767920
Si Si6 0.102400 0.537963 0.078461
Si Si7 0.900059 0.690774 0.655633
O O1 0.133208 0.500000 0.500000
O O2 0.156571 0.573167 0.378163
O O3 0.147948 0.474917 0.329091
O O4 0.000000 0.527442 0.383252
O O5 0.251933 0.750000 0.501320
O O6 0.345474 0.830411 0.558148
O O7 0.230560 0.836013 0.412727
O O8 0.172149 0.832114 0.583203
O O9 0.500000 0.855101 0.626135
O O10 0.351261 0.909334 0.677333
O O11 0.369439 0.817249 0.737872
O O12 0.250000 0.120962 0.750000
O O13 0.166332 0.086386 0.905658
O O14 0.000000 0.936345 0.744719
O O15 0.099129 0.007913 0.825990
O O16 0.000000 0.556523 0.048936
O O17 0.142585 0.500000 0.000000
O O18 0.907034 0.750000 0.635883
O O19 0.000000 0.664954 0.638926
#
# Coordination Sequence:
#
# PCOD8300426 Si02
#       7
#    16  16  16  16  16  16  16
#     4  10  22  40  62  90 125 160 198 247 302 363
#     4  11  25  42  60  88 122 160 211 264 311 361
#     4  10  20  36  63  96 128 161 194 239 310 382
#     4  12  25  41  62  87 115 162 216 258 305 352
#     4   9  18  34  56  88 123 155 188 232 292 361
#     4  10  20  38  61  85 119 158 198 244 299 364
#     4   9  19  38  62  87 119 158 199 247 306 368
#
# _framework density 20.408106
#
# number of rings (size 3 to 8) (size 9 to 14) (size 15 to 20)
#    0.000    1.857    1.429    2.143    2.000    4.571 
#    2.571    0.000    0.000    0.000    0.000    4.000 
#    0.000    0.000    0.000    0.000    0.000    0.000 
#
# Total GULP energy -694148.085459 kJ/mol
# GULP energy per Si atom -12395.501526 kJ/mol
# Density = 2.036166 g / cm^3
# Si number density = 20.408106 Si / 1000 Ang^3
#
#
#
# Elastic Constant Matrix: (Units=GPa)
#
#
# Indices 1 2 3 4 5 6 
#
# 1 71.2329 31.6360 29.7188 0.0000 0.0000 0.0000
# 2 31.6360 99.0579 46.7858 0.0002 0.0001 0.0000
# 3 29.7188 46.7858 135.4873 0.0005 0.0001 0.0000
# 4 0.0000 0.0002 0.0005 43.1923 0.0001 0.0000
# 5 0.0000 0.0001 0.0001 0.0001 16.9499 0.0000
# 6 0.0000 0.0000 0.0000 0.0000 0.0000 20.8880
#
#
#
# Elastic Compliance Matrix: (Units=1/GPa)
#
#
# Indices 1 2 3 4 5 6 
#
# 1 0.016891 -0.004355 -0.002201 0.000000 0.000000 0.000000
# 2 -0.004355 0.013185 -0.003598 0.000000 0.000000 0.000000
# 3 -0.002201 -0.003598 0.009106 0.000000 0.000000 0.000000
# 4 0.000000 0.000000 0.000000 0.023152 0.000000 0.000000
# 5 0.000000 0.000000 0.000000 0.000000 0.058998 0.000000
# 6 0.000000 0.000000 0.000000 0.000000 0.000000 0.047874
#
#
# Mechanical properties :
#
#
# Convention : Reuss Voigt Hill
#
# Bulk Modulus (GPa) = 52.98179 58.00658 55.49418
# Shear Modulus (GPa) = 25.53558 29.38186 27.45872
#
# Velocity S-wave (km/s) = 3.54113 3.79847 3.67206
# Velocity P-wave (km/s) = 6.53736 6.90817 6.72532
#
# Compressibility (1/GPa) = 0.01887441
#
# Stress axis : x y z
#
# Youngs Moduli (GPa) = 59.20362 75.84275 109.81790
#
# Poissons Ratio (x) = 0.33028 0.24173
# Poissons Ratio (y) = 0.25782 0.39511
# Poissons Ratio (z) = 0.13032 0.27287
#
# Static dielectric constant tensor:
#      x y z
#    x 3.908060 0.000000 0.000000 
#    y 0.000000 3.545710 0.000000 
#    z 0.000000 0.000000 3.750120 
# 
# 
# High freq. dielectric constant tensor:
#      x y z
#    x 1.796420 0.000000 0.000000 
#    y 0.000000 1.782590 0.000000 
#    z 0.000000 0.000000 1.798910 
# 
# From -- ./inp_files/32979.got.cif
#   From: 2010.03.12/outbox.cif.g09.slc.cpg/sg74_17_cif.got.tgz:32979.got - 2010.04.16 15:46:19.
