data_PCOD8300936
_publ_section_title
;
Structure prediction by ZEFSAII (Michael W. Deem and Ramdas Pophale) SiO2 
 PCOD8300936
Probable space group: I M M A
;
_chemical_formula_sum "Si O2"
_cell_formula_units_Z 104
_cell_length_a 21.224289
_cell_length_b 8.980390
_cell_length_c 26.952398
_cell_angle_alpha 90.000000
_cell_angle_beta 90.000000
_cell_angle_gamma 90.000000
_cell_volume 5137.191548
_symmetry_space_group_name_H-M "I M M A"
_symmetry_group_IT_number 74
_symmetry_cell_setting 'orthorhombic'
loop_
_space_group_symop_operation_xyz
x,y,z
-x,1/2-y,z
x,-y,-z
-x,1/2+y,-z
-x,-y,-z
x,1/2+y,-z
-x,y,z
x,1/2-y,z
1/2+x,1/2+y,1/2+z
1/2-x,-y,1/2+z
1/2+x,1/2-y,1/2-z
1/2-x,y,1/2-z
1/2-x,1/2-y,1/2-z
1/2+x,y,1/2-z
1/2-x,1/2+y,1/2+z
1/2+x,-y,1/2+z
loop_
_atom_site_type_symbol
_atom_site_label
_atom_site_fract_x
_atom_site_fract_y
_atom_site_fract_z
Si Si1 0.187643 0.924302 0.777573
Si Si2 0.332892 0.082822 0.388682
Si Si3 0.571897 0.422872 0.549654
Si Si4 0.500000 0.925709 0.947365
Si Si5 0.209733 0.578149 0.552616
Si Si6 0.572426 0.923915 0.224944
Si Si7 0.891715 0.075498 0.612513
O O1 0.183001 0.750000 0.766298
O O2 0.250000 0.990157 0.750000
O O3 0.196528 0.961481 0.835629
O O4 0.121460 0.995301 0.760934
O O5 0.359621 0.250000 0.385508
O O6 0.282477 0.070399 0.432727
O O7 0.390173 0.974467 0.401981
O O8 0.597945 0.500000 0.500000
O O9 0.500000 0.467916 0.559238
O O10 0.581254 0.250000 0.541819
O O11 0.500000 0.750000 0.953084
O O12 0.561129 0.978161 0.919090
O O13 0.500000 0.000000 0.000000
O O14 0.197642 0.500000 0.500000
O O15 0.186439 0.750000 0.550127
O O16 0.176132 0.485340 0.596385
O O17 0.500000 0.981152 0.232291
O O18 0.575076 0.750000 0.236562
O O19 0.595513 0.958193 0.169640
O O20 0.899328 0.250000 0.600650
#
# Coordination Sequence:
#
# PCOD8300936 Si02
#       7
#    16  16  16   8  16  16  16
#     4  10  22  41  63  89 121 156 200 254 305 359
#     4  10  22  39  60  86 119 155 195 247 299 354
#     4  10  21  37  59  87 119 155 195 239 291 356
#     4  12  24  38  58  84 116 154 196 242 291 346
#     4  11  23  39  59  87 120 157 200 245 297 356
#     4  10  22  41  63  89 122 158 200 253 305 358
#     4  11  22  40  61  84 118 157 198 245 295 347
#
# _framework density 20.244524999999999
#
# number of rings (size 3 to 8) (size 9 to 14) (size 15 to 20)
#    0.000    1.538    0.769    3.923    0.000    7.692 
#    0.000    3.077    0.000    0.000    0.000    0.000 
#    0.000    0.000    0.000    0.000    0.000    0.000 
#
# Total GULP energy -644872.491860 kJ/mol
# GULP energy per Si atom -12401.394074 kJ/mol
# Density = 2.019845 g / cm^3
# Si number density = 20.244525 Si / 1000 Ang^3
#
#
#
# Elastic Constant Matrix: (Units=GPa)
#
#
# Indices 1 2 3 4 5 6 
#
# 1 104.4806 35.2508 40.6183 0.0000 0.0000 0.0000
# 2 35.2508 77.2681 33.0286 0.0000 0.0000 0.0000
# 3 40.6183 33.0286 79.3159 0.0000 0.0000 0.0000
# 4 0.0000 0.0000 0.0000 33.5868 0.0000 0.0000
# 5 0.0000 0.0000 0.0000 0.0000 41.2837 0.0000
# 6 0.0000 0.0000 0.0000 0.0000 0.0000 37.4868
#
#
#
# Elastic Compliance Matrix: (Units=1/GPa)
#
#
# Indices 1 2 3 4 5 6 
#
# 1 0.012757 -0.003683 -0.004999 0.000000 0.000000 0.000000
# 2 -0.003683 0.016808 -0.005113 0.000000 0.000000 0.000000
# 3 -0.004999 -0.005113 0.017297 0.000000 0.000000 0.000000
# 4 0.000000 0.000000 0.000000 0.029774 0.000000 0.000000
# 5 0.000000 0.000000 0.000000 0.000000 0.024223 0.000000
# 6 0.000000 0.000000 0.000000 0.000000 0.000000 0.026676
#
#
# Mechanical properties :
#
#
# Convention : Reuss Voigt Hill
#
# Bulk Modulus (GPa) = 51.89027 53.20664 52.54846
# Shear Modulus (GPa) = 30.95029 32.61593 31.78311
#
# Velocity S-wave (km/s) = 3.91426 4.01820 3.96657
# Velocity P-wave (km/s) = 6.79087 6.91860 6.85503
#
# Compressibility (1/GPa) = 0.01927144
#
# Stress axis : x y z
#
# Youngs Moduli (GPa) = 78.38597 59.49630 57.81281
#
# Poissons Ratio (x) = 0.21913 0.28903
# Poissons Ratio (y) = 0.28870 0.29559
# Poissons Ratio (z) = 0.39189 0.30420
#
# Static dielectric constant tensor:
#      x y z
#    x 3.801060 0.000000 0.000000 
#    y 0.000000 3.670060 0.000000 
#    z 0.000000 0.000000 3.742650 
# 
# 
# High freq. dielectric constant tensor:
#      x y z
#    x 1.799350 0.000000 0.000000 
#    y 0.000000 1.791170 0.000000 
#    z 0.000000 0.000000 1.794230 
# 
# From -- ./inp_files/64478.got.cif
#   From: 2010.03.12/outbox.cif.g09.slc.cpg/sg74_33_cif.got.tgz:64478.got - 2010.04.16 15:46:19.
