data_PCOD8300026
_publ_section_title
;
Structure prediction by ZEFSAII (Michael W. Deem and Ramdas Pophale) SiO2 
 PCOD8300026
Probable space group: I M M A
;
_chemical_formula_sum "Si O2"
_cell_formula_units_Z 96
_cell_length_a 16.522544
_cell_length_b 20.770752
_cell_length_c 12.968018
_cell_angle_alpha 90.000000
_cell_angle_beta 90.000000
_cell_angle_gamma 90.000000
_cell_volume 4450.437866
_symmetry_space_group_name_H-M "I M M A"
_symmetry_group_IT_number 74
_symmetry_cell_setting 'orthorhombic'
loop_
_space_group_symop_operation_xyz
x,y,z
-x,1/2-y,z
x,-y,-z
-x,1/2+y,-z
-x,-y,-z
x,1/2+y,-z
-x,y,z
x,1/2-y,z
1/2+x,1/2+y,1/2+z
1/2-x,-y,1/2+z
1/2+x,1/2-y,1/2-z
1/2-x,y,1/2-z
1/2-x,1/2-y,1/2-z
1/2+x,y,1/2-z
1/2-x,1/2+y,1/2+z
1/2+x,-y,1/2+z
loop_
_atom_site_type_symbol
_atom_site_label
_atom_site_fract_x
_atom_site_fract_y
_atom_site_fract_z
Si Si1 0.408181 0.552288 0.682754
Si Si2 0.815635 0.929770 0.166711
Si Si3 0.093560 0.321961 0.706856
Si Si4 0.408951 0.945161 0.921072
Si Si5 0.689834 0.180201 0.341570
Si Si6 0.292803 0.146380 0.979764
O O1 0.500000 0.553574 0.645130
O O2 0.363525 0.492790 0.627484
O O3 0.401455 0.533251 0.803266
O O4 0.373732 0.621991 0.652010
O O5 0.750000 0.951830 0.250000
O O6 0.875012 0.874058 0.211096
O O7 0.768795 0.904706 0.067892
O O8 0.098074 0.250000 0.755528
O O9 0.152312 0.319800 0.607183
O O10 0.000000 0.338460 0.676886
O O11 0.500000 0.924680 0.948374
O O12 0.352420 0.884687 0.937172
O O13 0.379776 0.000000 0.000000
O O14 0.647600 0.250000 0.319177
O O15 0.750000 0.161962 0.250000
O O16 0.737583 0.191907 0.449482
#
# Coordination Sequence:
#
# PCOD8300026 Si02
#       6
#    16  16  16  16  16  16
#     4  11  23  42  64  86 124 165 206 258 312 370
#     4  10  22  37  63  96 128 163 197 252 309 376
#     4  10  21  39  63  95 132 163 201 253 311 375
#     4  10  20  34  58  92 125 158 201 256 313 366
#     4  11  24  42  63  89 124 165 213 263 310 363
#     4  11  22  37  63  91 126 163 207 255 304 369
#
# _framework density 21.570910999999999
#
# number of rings (size 3 to 8) (size 9 to 14) (size 15 to 20)
#    0.000    1.500    1.667    4.000    2.333    5.333 
#    0.000    2.500    0.000    0.000    0.000    0.000 
#    0.000    0.000    0.000    0.000    0.000    0.000 
#
# Total GULP energy -594937.595814 kJ/mol
# GULP energy per Si atom -12394.533246 kJ/mol
# Density = 2.152182 g / cm^3
# Si number density = 21.570911 Si / 1000 Ang^3
#
#
#
# Elastic Constant Matrix: (Units=GPa)
#
#
# Indices 1 2 3 4 5 6 
#
# 1 123.0240 73.0020 18.6720 0.0000 0.0000 0.0000
# 2 73.0020 144.6606 7.6089 0.0000 0.0000 0.0000
# 3 18.6720 7.6089 43.1625 0.0000 0.0000 0.0000
# 4 0.0000 0.0000 0.0000 9.5260 0.0000 0.0000
# 5 0.0000 0.0000 0.0000 0.0000 22.0502 0.0000
# 6 0.0000 0.0000 0.0000 0.0000 0.0000 16.6573
#
#
#
# Elastic Compliance Matrix: (Units=1/GPa)
#
#
# Indices 1 2 3 4 5 6 
#
# 1 0.012340 -0.006002 -0.004280 0.000000 0.000000 0.000000
# 2 -0.006002 0.009897 0.000852 0.000000 0.000000 0.000000
# 3 -0.004280 0.000852 0.024870 0.000000 0.000000 0.000000
# 4 0.000000 0.000000 0.000000 0.104975 0.000000 0.000000
# 5 0.000000 0.000000 0.000000 0.000000 0.045351 0.000000
# 6 0.000000 0.000000 0.000000 0.000000 0.000000 0.060034
#
#
# Mechanical properties :
#
#
# Convention : Reuss Voigt Hill
#
# Bulk Modulus (GPa) = 35.40374 56.60143 46.00258
# Shear Modulus (GPa) = 17.49829 23.75099 20.62464
#
# Velocity S-wave (km/s) = 2.85124 3.32183 3.09549
# Velocity P-wave (km/s) = 5.22377 6.40386 5.84368
#
# Compressibility (1/GPa) = 0.02824560
#
# Stress axis : x y z
#
# Youngs Moduli (GPa) = 81.03948 101.04275 40.20968
#
# Poissons Ratio (x) = 0.60646 0.17210
# Poissons Ratio (y) = 0.48640 -0.03425
# Poissons Ratio (z) = 0.34685 -0.08607
#
# Static dielectric constant tensor:
#      x y z
#    x 4.033360 0.000000 0.000000 
#    y 0.000000 3.769590 0.000000 
#    z 0.000000 0.000000 3.820920 
# 
# 
# High freq. dielectric constant tensor:
#      x y z
#    x 1.849870 0.000000 0.000000 
#    y 0.000000 1.849750 0.000000 
#    z 0.000000 0.000000 1.834120 
# 
# From -- ./inp_files/32406.got.cif
#   From: 2010.03.12/outbox.cif.g09.slc.cpg/sg74_17_cif.got.tgz:32406.got - 2010.04.16 15:46:19.
