data_PCOD8300822
_publ_section_title
;
Structure prediction by ZEFSAII (Michael W. Deem and Ramdas Pophale) SiO2 
 PCOD8300822
Probable space group: I M M A
;
_chemical_formula_sum "Si O2"
_cell_formula_units_Z 96
_cell_length_a 14.623964
_cell_length_b 23.697724
_cell_length_c 14.018325
_cell_angle_alpha 90.000000
_cell_angle_beta 90.000000
_cell_angle_gamma 90.000000
_cell_volume 4858.115891
_symmetry_space_group_name_H-M "I M M A"
_symmetry_group_IT_number 74
_symmetry_cell_setting 'orthorhombic'
loop_
_space_group_symop_operation_xyz
x,y,z
-x,1/2-y,z
x,-y,-z
-x,1/2+y,-z
-x,-y,-z
x,1/2+y,-z
-x,y,z
x,1/2-y,z
1/2+x,1/2+y,1/2+z
1/2-x,-y,1/2+z
1/2+x,1/2-y,1/2-z
1/2-x,y,1/2-z
1/2-x,1/2-y,1/2-z
1/2+x,y,1/2-z
1/2-x,1/2+y,1/2+z
1/2+x,-y,1/2+z
loop_
_atom_site_type_symbol
_atom_site_label
_atom_site_fract_x
_atom_site_fract_y
_atom_site_fract_z
Si Si1 0.396958 0.036207 0.091636
Si Si2 0.779880 0.185125 0.983271
Si Si3 0.395744 0.999110 0.697807
Si Si4 0.732098 0.396957 0.355348
Si Si5 0.106925 0.873759 0.177712
Si Si6 0.396785 0.814525 0.128859
O O1 0.500000 0.059540 0.082295
O O2 0.385128 0.999503 0.187735
O O3 0.328840 0.088539 0.096477
O O4 0.370060 0.000000 0.000000
O O5 0.801497 0.250000 0.004187
O O6 0.840110 0.165174 0.895313
O O7 0.672788 0.175751 0.958480
O O8 0.810492 0.151272 0.078104
O O9 0.500000 0.985542 0.668612
O O10 0.332429 0.952110 0.648800
O O11 0.365596 0.060794 0.661587
O O12 0.750000 0.372221 0.250000
O O13 0.132990 0.854884 0.284442
O O14 0.000000 0.864791 0.160492
O O15 0.500000 0.829038 0.094021
O O16 0.391086 0.750000 0.165135
#
# Coordination Sequence:
#
# PCOD8300822 Si02
#       6
#    16  16  16  16  16  16
#     4   9  19  34  56  86 116 145 181 226 278 342
#     4  11  24  38  57  83 110 150 200 239 275 328
#     4   9  20  38  57  84 117 148 183 226 284 343
#     4  10  23  39  58  81 113 151 189 240 283 328
#     4  10  21  36  58  86 118 150 180 225 283 347
#     4   9  19  36  57  84 118 149 180 226 281 336
#
# _framework density 19.760746999999999
#
# number of rings (size 3 to 8) (size 9 to 14) (size 15 to 20)
#    0.000    2.333    0.000    1.000    4.667    6.667 
#    0.000    1.667    0.000    0.000    0.000    7.000 
#    0.000    0.000    0.000    0.000    0.000    0.000 
#
# Total GULP energy -595200.968208 kJ/mol
# GULP energy per Si atom -12400.020171 kJ/mol
# Density = 1.971577 g / cm^3
# Si number density = 19.760747 Si / 1000 Ang^3
#
#
#
# Elastic Constant Matrix: (Units=GPa)
#
#
# Indices 1 2 3 4 5 6 
#
# 1 61.8027 44.5516 41.3121 0.0003 -0.0001 0.0001
# 2 44.5516 115.2925 58.1706 -0.0021 0.0004 -0.0003
# 3 41.3121 58.1706 82.0841 -0.0022 0.0004 -0.0003
# 4 0.0003 -0.0021 -0.0022 36.2974 0.0003 -0.0003
# 5 -0.0001 0.0004 0.0004 0.0003 13.6805 0.0001
# 6 0.0001 -0.0003 -0.0003 -0.0003 0.0001 22.0357
#
#
#
# Elastic Compliance Matrix: (Units=1/GPa)
#
#
# Indices 1 2 3 4 5 6 
#
# 1 0.026413 -0.005447 -0.009433 -0.000001 0.000001 0.000000
# 2 -0.005447 0.014624 -0.007622 0.000000 0.000000 0.000000
# 3 -0.009433 -0.007622 0.022332 0.000001 0.000000 0.000000
# 4 -0.000001 0.000000 0.000001 0.027550 -0.000001 0.000000
# 5 0.000001 0.000000 0.000000 -0.000001 0.073097 0.000000
# 6 0.000000 0.000000 0.000000 0.000000 0.000000 0.045381
#
#
# Mechanical properties :
#
#
# Convention : Reuss Voigt Hill
#
# Bulk Modulus (GPa) = 54.45451 60.80533 57.62992
# Shear Modulus (GPa) = 19.19218 22.07907 20.63562
#
# Velocity S-wave (km/s) = 3.11983 3.34626 3.23503
# Velocity P-wave (km/s) = 6.37138 6.76517 6.57123
#
# Compressibility (1/GPa) = 0.01836395
#
# Stress axis : x y z
#
# Youngs Moduli (GPa) = 37.86068 68.37942 44.77882
#
# Poissons Ratio (x) = 0.37246 0.42240
# Poissons Ratio (y) = 0.20623 0.34132
# Poissons Ratio (z) = 0.35714 0.52122
#
# Static dielectric constant tensor:
#      x y z
#    x 3.766310 0.000000 0.000000 
#    y 0.000000 3.488510 0.000000 
#    z 0.000000 0.000000 3.435500 
# 
# 
# High freq. dielectric constant tensor:
#      x y z
#    x 1.779530 0.000000 0.000000 
#    y 0.000000 1.759820 0.000000 
#    z 0.000000 0.000000 1.758120 
# 
# From -- ./inp_files/32401.got.cif
#   From: 2010.03.12/outbox.cif.g09.slc.cpg/sg74_17_cif.got.tgz:32401.got - 2010.04.16 15:46:19.
