data_PCOD8300314
_publ_section_title
;
Structure prediction by ZEFSAII (Michael W. Deem and Ramdas Pophale) SiO2 
 PCOD8300314
Probable space group: I M M A
;
_chemical_formula_sum "Si O2"
_cell_formula_units_Z 112
_cell_length_a 28.363913
_cell_length_b 28.005310
_cell_length_c 6.760848
_cell_angle_alpha 90.000000
_cell_angle_beta 90.000000
_cell_angle_gamma 90.000000
_cell_volume 5370.413193
_symmetry_space_group_name_H-M "I M M A"
_symmetry_group_IT_number 74
_symmetry_cell_setting 'orthorhombic'
loop_
_space_group_symop_operation_xyz
x,y,z
-x,1/2-y,z
x,-y,-z
-x,1/2+y,-z
-x,-y,-z
x,1/2+y,-z
-x,y,z
x,1/2-y,z
1/2+x,1/2+y,1/2+z
1/2-x,-y,1/2+z
1/2+x,1/2-y,1/2-z
1/2-x,y,1/2-z
1/2-x,1/2-y,1/2-z
1/2+x,y,1/2-z
1/2-x,1/2+y,1/2+z
1/2+x,-y,1/2+z
loop_
_atom_site_type_symbol
_atom_site_label
_atom_site_fract_x
_atom_site_fract_y
_atom_site_fract_z
Si Si1 0.285724 0.051157 0.919778
Si Si2 0.132967 0.046674 0.873410
Si Si3 0.702832 0.146291 0.144839
Si Si4 0.553687 0.548098 0.096444
Si Si5 0.125109 0.855136 0.954371
Si Si6 0.445068 0.645285 0.872584
Si Si7 0.633734 0.806106 0.130032
O O1 0.250000 0.069384 0.750000
O O2 0.337104 0.044445 0.827112
O O3 0.288965 0.090176 0.095382
O O4 0.267376 0.000000 0.000000
O O5 0.079339 0.055082 0.805527
O O6 0.145207 0.092090 0.004502
O O7 0.141756 0.000000 0.000000
O O8 0.750000 0.166732 0.250000
O O9 0.661889 0.162364 0.292694
O O10 0.683838 0.171283 0.943096
O O11 0.500000 0.541759 0.155820
O O12 0.574050 0.500000 0.000000
O O13 0.562014 0.591387 0.947136
O O14 0.073035 0.853573 0.854659
O O15 0.125024 0.822127 0.145507
O O16 0.500000 0.661136 0.881746
O O17 0.412953 0.679286 0.007935
O O18 0.639233 0.750000 0.121439
#
# Coordination Sequence:
#
# PCOD8300314 Si02
#       7
#    16  16  16  16  16  16  16
#     4  12  23  39  61  96 137 174 212 261 314 383
#     4  12  21  34  59  89 130 174 217 255 313 382
#     4  11  24  43  69  94 132 169 215 269 324 387
#     4  10  20  36  57  89 132 171 210 260 310 372
#     4  11  22  41  63  97 128 169 214 269 324 383
#     4  10  22  42  67  95 133 172 214 269 327 387
#     4  11  25  46  68  94 129 166 217 279 332 386
#
# _framework density 20.855005999999999
#
# number of rings (size 3 to 8) (size 9 to 14) (size 15 to 20)
#    0.000    1.000    2.857    4.714    0.000    4.286 
#    0.000    0.714    0.000    0.000    0.000    0.000 
#    0.000    0.000    0.000    0.000    0.000    0.000 
#
# Total GULP energy -694298.765268 kJ/mol
# GULP energy per Si atom -12398.192237 kJ/mol
# Density = 2.080754 g / cm^3
# Si number density = 20.855006 Si / 1000 Ang^3
#
#
#
# Elastic Constant Matrix: (Units=GPa)
#
#
# Indices 1 2 3 4 5 6 
#
# 1 108.4875 30.5290 40.3590 0.0000 0.0000 0.0000
# 2 30.5290 116.7385 28.0839 0.0000 0.0000 0.0000
# 3 40.3590 28.0839 96.4638 0.0000 0.0000 0.0000
# 4 0.0000 0.0000 0.0000 19.8782 0.0000 0.0000
# 5 0.0000 0.0000 0.0000 0.0000 39.0046 0.0000
# 6 0.0000 0.0000 0.0000 0.0000 0.0000 19.6920
#
#
#
# Elastic Compliance Matrix: (Units=1/GPa)
#
#
# Indices 1 2 3 4 5 6 
#
# 1 0.011318 -0.001958 -0.004165 0.000000 0.000000 0.000000
# 2 -0.001958 0.009550 -0.001961 0.000000 0.000000 0.000000
# 3 -0.004165 -0.001961 0.012680 0.000000 0.000000 0.000000
# 4 0.000000 0.000000 0.000000 0.050306 0.000000 0.000000
# 5 0.000000 0.000000 0.000000 0.000000 0.025638 0.000000
# 6 0.000000 0.000000 0.000000 0.000000 0.000000 0.050782
#
#
# Mechanical properties :
#
#
# Convention : Reuss Voigt Hill
#
# Bulk Modulus (GPa) = 57.53856 57.73708 57.63782
# Shear Modulus (GPa) = 27.43682 30.56281 28.99981
#
# Velocity S-wave (km/s) = 3.63105 3.83233 3.73305
# Velocity P-wave (km/s) = 6.72526 6.87949 6.80281
#
# Compressibility (1/GPa) = 0.01737965
#
# Stress axis : x y z
#
# Youngs Moduli (GPa) = 88.35347 104.71243 78.86261
#
# Poissons Ratio (x) = 0.20501 0.32849
# Poissons Ratio (y) = 0.17298 0.15467
# Poissons Ratio (z) = 0.36802 0.20536
#
# Static dielectric constant tensor:
#      x y z
#    x 3.973710 0.000000 0.000000 
#    y 0.000000 3.619170 0.000000 
#    z 0.000000 0.000000 3.847790 
# 
# 
# High freq. dielectric constant tensor:
#      x y z
#    x 1.824640 0.000000 0.000000 
#    y 0.000000 1.799700 0.000000 
#    z 0.000000 0.000000 1.824460 
# 
# From -- ./inp_files/5336.got.cif
#   From: 2010.03.12/outbox.cif.g09.slc.cpg/sg74_3_cif.got.tgz:5336.got - 2010.04.16 15:46:19.
