data_PCOD8300742
_publ_section_title
;
Structure prediction by ZEFSAII (Michael W. Deem and Ramdas Pophale) SiO2 
 PCOD8300742
Probable space group: I M M A
;
_chemical_formula_sum "Si O2"
_cell_formula_units_Z 96
_cell_length_a 23.536102
_cell_length_b 14.442570
_cell_length_c 14.653216
_cell_angle_alpha 90.000000
_cell_angle_beta 90.000000
_cell_angle_gamma 90.000000
_cell_volume 4980.947568
_symmetry_space_group_name_H-M "I M M A"
_symmetry_group_IT_number 74
_symmetry_cell_setting 'orthorhombic'
loop_
_space_group_symop_operation_xyz
x,y,z
-x,1/2-y,z
x,-y,-z
-x,1/2+y,-z
-x,-y,-z
x,1/2+y,-z
-x,y,z
x,1/2-y,z
1/2+x,1/2+y,1/2+z
1/2-x,-y,1/2+z
1/2+x,1/2-y,1/2-z
1/2-x,y,1/2-z
1/2-x,1/2-y,1/2-z
1/2+x,y,1/2-z
1/2-x,1/2+y,1/2+z
1/2+x,-y,1/2+z
loop_
_atom_site_type_symbol
_atom_site_label
_atom_site_fract_x
_atom_site_fract_y
_atom_site_fract_z
Si Si1 0.336558 0.750000 0.618118
Si Si2 0.766537 0.750000 0.047423
Si Si3 0.632565 0.548584 0.593461
Si Si4 0.934157 0.447649 0.267573
Si Si5 0.616506 0.250000 0.192645
Si Si6 0.261063 0.932303 0.356047
Si Si7 0.133218 0.556910 0.413978
Si Si8 0.138156 0.250000 0.519692
O O1 0.277443 0.750000 0.562113
O O2 0.369286 0.840614 0.582597
O O3 0.332838 0.750000 0.729766
O O4 0.790534 0.658028 0.097796
O O5 0.700252 0.750000 0.061535
O O6 0.615404 0.500000 0.500000
O O7 0.583508 0.524916 0.665418
O O8 0.695507 0.517402 0.628153
O O9 0.921257 0.341065 0.292543
O O10 0.898014 0.519119 0.326242
O O11 0.000000 0.466629 0.282721
O O12 0.640791 0.250000 0.090488
O O13 0.250000 0.913950 0.250000
O O14 0.201146 0.954322 0.403737
O O15 0.112729 0.500000 0.500000
O O16 0.109751 0.659631 0.436518
#
# Coordination Sequence:
#
# PCOD8300742 Si02
#       8
#     8   8  16  16   8  16  16   8
#     4  10  22  35  56  91 120 157 194 253 304 361
#     4  10  21  35  58  91 123 158 202 236 297 374
#     4  11  22  41  63  89 124 159 202 253 306 368
#     4  11  24  42  64  89 118 159 209 256 302 357
#     4  10  21  41  60  86 120 156 201 253 311 357
#     4  11  21  37  61  90 122 164 195 244 303 362
#     4  11  22  39  60  88 124 158 201 245 300 367
#     4  10  22  37  58  90 127 160 197 250 299 364
#
# _framework density 19.273440999999998
#
# number of rings (size 3 to 8) (size 9 to 14) (size 15 to 20)
#    0.000    1.333    5.000    1.000    2.333    1.000 
#    0.000    1.250    0.000    0.000    0.000    0.000 
#    0.000    0.000    0.000    0.000    0.000    0.000 
#
# Total GULP energy -594953.459167 kJ/mol
# GULP energy per Si atom -12394.863733 kJ/mol
# Density = 1.922957 g / cm^3
# Si number density = 19.273441 Si / 1000 Ang^3
#
#
#
# Elastic Constant Matrix: (Units=GPa)
#
#
# Indices 1 2 3 4 5 6 
#
# 1 42.7329 28.0701 4.0341 0.0000 0.0000 0.0000
# 2 28.0701 141.5279 52.5088 0.0000 0.0000 0.0000
# 3 4.0341 52.5088 113.0969 0.0000 0.0000 0.0000
# 4 0.0000 0.0000 0.0000 32.9562 0.0000 0.0000
# 5 0.0000 0.0000 0.0000 0.0000 9.1660 0.0000
# 6 0.0000 0.0000 0.0000 0.0000 0.0000 -7.3069
#
#
#
# Elastic Compliance Matrix: (Units=1/GPa)
#
#
# Indices 1 2 3 4 5 6 
#
# 1 0.027225 -0.006088 0.001855 0.000000 0.000000 0.000000
# 2 -0.006088 0.009898 -0.004378 0.000000 0.000000 0.000000
# 3 0.001855 -0.004378 0.010808 0.000000 0.000000 0.000000
# 4 0.000000 0.000000 0.000000 0.030343 0.000000 0.000000
# 5 0.000000 0.000000 0.000000 0.000000 0.109098 0.000000
# 6 0.000000 0.000000 0.000000 0.000000 0.000000 -0.136858
#
#
# Mechanical properties :
#
#
# Convention : Reuss Voigt Hill
#
# Bulk Modulus (GPa) = 32.56300 51.84263 42.20281
# Shear Modulus (GPa) = 64.12457 21.14605 42.63531
#
# Velocity S-wave (km/s) = 5.77436 3.31593 4.70843
# Velocity P-wave (km/s) = 7.83515 6.45116 7.17659
#
# Compressibility (1/GPa) = 0.03070970
#
# Stress axis : x y z
#
# Youngs Moduli (GPa) = 36.73074 101.03486 92.52009
#
# Poissons Ratio (x) = 0.61511 -0.17167
# Poissons Ratio (y) = 0.22362 0.40506
# Poissons Ratio (z) = -0.06815 0.44234
#
# Static dielectric constant tensor:
#      x y z
#    x 3.128810 0.000000 0.000000 
#    y 0.000000 3.461870 0.000000 
#    z 0.000000 0.000000 3.702020 
# 
# 
# High freq. dielectric constant tensor:
#      x y z
#    x 1.705020 0.000000 0.000000 
#    y 0.000000 1.767080 0.000000 
#    z 0.000000 0.000000 1.766090 
# 
# From -- ./inp_files/32474.got.cif
#   From: 2010.03.12/outbox.cif.g09.slc.cpg/sg74_17_cif.got.tgz:32474.got - 2010.04.16 15:46:19.
