data_PCOD8300623
_publ_section_title
;
Structure prediction by ZEFSAII (Michael W. Deem and Ramdas Pophale) SiO2 
 PCOD8300623
Probable space group: I M M A
;
_chemical_formula_sum "Si O2"
_cell_formula_units_Z 80
_cell_length_a 21.331590
_cell_length_b 10.568402
_cell_length_c 16.966264
_cell_angle_alpha 90.000000
_cell_angle_beta 90.000000
_cell_angle_gamma 90.000000
_cell_volume 3824.888442
_symmetry_space_group_name_H-M "I M M A"
_symmetry_group_IT_number 74
_symmetry_cell_setting 'orthorhombic'
loop_
_space_group_symop_operation_xyz
x,y,z
-x,1/2-y,z
x,-y,-z
-x,1/2+y,-z
-x,-y,-z
x,1/2+y,-z
-x,y,z
x,1/2-y,z
1/2+x,1/2+y,1/2+z
1/2-x,-y,1/2+z
1/2+x,1/2-y,1/2-z
1/2-x,y,1/2-z
1/2-x,1/2-y,1/2-z
1/2+x,y,1/2-z
1/2-x,1/2+y,1/2+z
1/2+x,-y,1/2+z
loop_
_atom_site_type_symbol
_atom_site_label
_atom_site_fract_x
_atom_site_fract_y
_atom_site_fract_z
Si Si1 0.620314 0.391290 0.672020
Si Si2 0.261918 0.750000 0.657193
Si Si3 0.266171 0.505453 0.407055
Si Si4 0.071811 0.250000 0.575040
Si Si5 0.872352 0.514289 0.340546
Si Si6 0.500000 0.601422 0.430538
Si Si7 0.624566 0.750000 0.904977
O O1 0.611514 0.250000 0.705198
O O2 0.682974 0.390602 0.618088
O O3 0.626519 0.484683 0.746132
O O4 0.560959 0.430565 0.620468
O O5 0.250000 0.750000 0.750000
O O6 0.296872 0.623916 0.628449
O O7 0.198196 0.750000 0.607668
O O8 0.257932 0.500000 0.500000
O O9 0.199014 0.534289 0.368646
O O10 0.084732 0.124782 0.625223
O O11 0.114420 0.250000 0.497937
O O12 0.000000 0.250000 0.548447
O O13 0.902262 0.379383 0.366819
O O14 0.500000 0.750000 0.458393
O O15 0.500000 0.500000 0.500000
#
# Coordination Sequence:
#
# PCOD8300623 Si02
#       7
#    16   8  16   8  16   8   8
#     4  11  24  41  69  99 132 172 220 273 336 401
#     4  10  20  40  63  88 132 174 206 272 347 382
#     4  11  23  38  65  99 133 170 219 273 334 393
#     4  12  26  42  66  93 136 188 225 271 333 394
#     4  11  23  42  67  96 137 174 224 275 331 394
#     4  10  24  50  72  96 133 171 220 274 335 399
#     4  10  22  42  62  94 130 174 228 276 321 386
#
# _framework density 20.915641999999998
#
# number of rings (size 3 to 8) (size 9 to 14) (size 15 to 20)
#    0.000    1.200    1.000    6.600    4.200    2.400 
#    3.600    0.000    0.000    0.000    0.000    0.000 
#    0.000    0.000    0.000    0.000    0.000    0.000 
#
# Total GULP energy -495993.783544 kJ/mol
# GULP energy per Si atom -12399.844589 kJ/mol
# Density = 2.086804 g / cm^3
# Si number density = 20.915642 Si / 1000 Ang^3
#
#
#
# Elastic Constant Matrix: (Units=GPa)
#
#
# Indices 1 2 3 4 5 6 
#
# 1 96.2625 27.4780 53.9252 0.0000 0.0000 0.0000
# 2 27.4780 124.2122 54.0066 0.0000 0.0000 0.0000
# 3 53.9252 54.0066 164.7134 0.0000 0.0000 0.0000
# 4 0.0000 0.0000 0.0000 40.5351 0.0000 0.0000
# 5 0.0000 0.0000 0.0000 0.0000 22.2643 0.0000
# 6 0.0000 0.0000 0.0000 0.0000 0.0000 17.1132
#
#
#
# Elastic Compliance Matrix: (Units=1/GPa)
#
#
# Indices 1 2 3 4 5 6 
#
# 1 0.012869 -0.001184 -0.003825 0.000000 0.000000 0.000000
# 2 -0.001184 0.009498 -0.002727 0.000000 0.000000 0.000000
# 3 -0.003825 -0.002727 0.008217 0.000000 0.000000 0.000000
# 4 0.000000 0.000000 0.000000 0.024670 0.000000 0.000000
# 5 0.000000 0.000000 0.000000 0.000000 0.044915 0.000000
# 6 0.000000 0.000000 0.000000 0.000000 0.000000 0.058435
#
#
# Mechanical properties :
#
#
# Convention : Reuss Voigt Hill
#
# Bulk Modulus (GPa) = 66.16577 72.88974 69.52776
# Shear Modulus (GPa) = 27.91538 32.63440 30.27489
#
# Velocity S-wave (km/s) = 3.65727 3.95433 3.80870
# Velocity P-wave (km/s) = 7.03828 7.46820 7.25643
#
# Compressibility (1/GPa) = 0.01511355
#
# Stress axis : x y z
#
# Youngs Moduli (GPa) = 77.70684 105.28347 121.69217
#
# Poissons Ratio (x) = 0.12463 0.46547
# Poissons Ratio (y) = 0.09199 0.33182
# Poissons Ratio (z) = 0.29723 0.28708
#
# Static dielectric constant tensor:
#      x y z
#    x 3.599250 0.000000 0.000000 
#    y 0.000000 4.745900 0.000000 
#    z 0.000000 0.000000 3.747270 
# 
# 
# High freq. dielectric constant tensor:
#      x y z
#    x 1.803680 0.000000 0.000000 
#    y 0.000000 1.832850 0.000000 
#    z 0.000000 0.000000 1.830500 
# 
# From -- ./inp_files/36216.got.cif
#   From: 2010.03.12/outbox.cif.g09.slc.cpg/sg74_19_cif.got.tgz:36216.got - 2010.04.16 15:46:19.
