data_PCOD8300169
_publ_section_title
;
Structure prediction by ZEFSAII (Michael W. Deem and Ramdas Pophale) SiO2 
 PCOD8300169
Probable space group: I M M A
;
_chemical_formula_sum "Si O2"
_cell_formula_units_Z 80
_cell_length_a 18.895254
_cell_length_b 9.509398
_cell_length_c 23.327716
_cell_angle_alpha 90.000000
_cell_angle_beta 90.000000
_cell_angle_gamma 90.000000
_cell_volume 4191.582111
_symmetry_space_group_name_H-M "I M M A"
_symmetry_group_IT_number 74
_symmetry_cell_setting 'orthorhombic'
loop_
_space_group_symop_operation_xyz
x,y,z
-x,1/2-y,z
x,-y,-z
-x,1/2+y,-z
-x,-y,-z
x,1/2+y,-z
-x,y,z
x,1/2-y,z
1/2+x,1/2+y,1/2+z
1/2-x,-y,1/2+z
1/2+x,1/2-y,1/2-z
1/2-x,y,1/2-z
1/2-x,1/2-y,1/2-z
1/2+x,y,1/2-z
1/2-x,1/2+y,1/2+z
1/2+x,-y,1/2+z
loop_
_atom_site_type_symbol
_atom_site_label
_atom_site_fract_x
_atom_site_fract_y
_atom_site_fract_z
Si Si1 0.582539 0.413319 0.839590
Si Si2 0.333529 0.409524 0.255257
Si Si3 0.577677 0.901352 0.454958
Si Si4 0.683629 0.086215 0.940711
Si Si5 0.312007 0.595134 0.360693
O O1 0.500000 0.457052 0.838169
O O2 0.592188 0.250000 0.822074
O O3 0.627445 0.508587 0.795946
O O4 0.611568 0.437363 0.904324
O O5 0.363334 0.250000 0.257721
O O6 0.250000 0.408606 0.250000
O O7 0.343731 0.490084 0.314261
O O8 0.500000 0.964629 0.441213
O O9 0.571028 0.750000 0.484745
O O10 0.618802 0.885592 0.397197
O O11 0.618821 0.000000 0.500000
O O12 0.694763 0.250000 0.956589
O O13 0.747669 0.034256 0.899294
O O14 0.680570 0.000000 0.000000
O O15 0.289599 0.750000 0.335684
#
# Coordination Sequence:
#
# PCOD8300169 Si02
#       5
#    16  16  16  16  16
#     4  10  22  41  63  86 115 155 200 242 289 351
#     4  11  23  38  59  87 116 148 187 236 292 344
#     4   9  18  32  50  75 108 145 184 225 273 328
#     4  10  21  36  57  85 115 151 195 241 290 346
#     4  10  20  35  57  82 112 151 192 234 282 343
#
# _framework density 19.085871999999998
#
# number of rings (size 3 to 8) (size 9 to 14) (size 15 to 20)
#    0.000    2.000    2.000    1.200    0.000    4.800 
#    0.000    2.000    0.000    0.000    0.000    0.000 
#    0.000    0.000    0.000    0.000    0.000    0.000 
#
# Total GULP energy -495563.929433 kJ/mol
# GULP energy per Si atom -12389.098236 kJ/mol
# Density = 1.904243 g / cm^3
# Si number density = 19.085872 Si / 1000 Ang^3
#
#
#
# Elastic Constant Matrix: (Units=GPa)
#
#
# Indices 1 2 3 4 5 6 
#
# 1 84.1001 35.5835 40.3158 0.0000 0.0000 0.0000
# 2 35.5835 110.3287 72.2212 0.0000 0.0000 0.0000
# 3 40.3158 72.2212 118.0315 0.0000 0.0000 0.0000
# 4 0.0000 0.0000 0.0000 35.6543 0.0000 0.0000
# 5 0.0000 0.0000 0.0000 0.0000 26.0671 0.0000
# 6 0.0000 0.0000 0.0000 0.0000 0.0000 21.1596
#
#
#
# Elastic Compliance Matrix: (Units=1/GPa)
#
#
# Indices 1 2 3 4 5 6 
#
# 1 0.014593 -0.002408 -0.003511 0.000000 0.000000 0.000000
# 2 -0.002408 0.015517 -0.008672 0.000000 0.000000 0.000000
# 3 -0.003511 -0.008672 0.014978 0.000000 0.000000 0.000000
# 4 0.000000 0.000000 0.000000 0.028047 0.000000 0.000000
# 5 0.000000 0.000000 0.000000 0.000000 0.038362 0.000000
# 6 0.000000 0.000000 0.000000 0.000000 0.000000 0.047260
#
#
# Mechanical properties :
#
#
# Convention : Reuss Voigt Hill
#
# Bulk Modulus (GPa) = 62.87226 67.63350 65.25288
# Shear Modulus (GPa) = 25.87437 27.53219 26.70328
#
# Velocity S-wave (km/s) = 3.68595 3.80220 3.74453
# Velocity P-wave (km/s) = 7.15041 7.40196 7.27727
#
# Compressibility (1/GPa) = 0.01590527
#
# Stress axis : x y z
#
# Youngs Moduli (GPa) = 68.52814 64.44390 66.76532
#
# Poissons Ratio (x) = 0.15520 0.23440
# Poissons Ratio (y) = 0.16503 0.57900
# Poissons Ratio (z) = 0.24059 0.55887
#
# Static dielectric constant tensor:
#      x y z
#    x 3.548730 0.000000 0.000000 
#    y 0.000000 4.606400 0.000000 
#    z 0.000000 0.000000 3.209530 
# 
# 
# High freq. dielectric constant tensor:
#      x y z
#    x 1.745170 0.000000 0.000000 
#    y 0.000000 1.742720 0.000000 
#    z 0.000000 0.000000 1.734630 
# 
# From -- ./inp_files/67541.got.cif
#   From: 2010.03.12/outbox.cif.g09.slc.cpg/sg74_34_cif.got.tgz:67541.got - 2010.04.16 15:46:19.
