data_PCOD8300161
_publ_section_title
;
Structure prediction by ZEFSAII (Michael W. Deem and Ramdas Pophale) SiO2 
 PCOD8300161
Probable space group: I M M A
;
_chemical_formula_sum "Si O2"
_cell_formula_units_Z 128
_cell_length_a 18.154598
_cell_length_b 16.875085
_cell_length_c 21.776636
_cell_angle_alpha 90.000000
_cell_angle_beta 90.000000
_cell_angle_gamma 90.000000
_cell_volume 6671.498576
_symmetry_space_group_name_H-M "I M M A"
_symmetry_group_IT_number 74
_symmetry_cell_setting 'orthorhombic'
loop_
_space_group_symop_operation_xyz
x,y,z
-x,1/2-y,z
x,-y,-z
-x,1/2+y,-z
-x,-y,-z
x,1/2+y,-z
-x,y,z
x,1/2-y,z
1/2+x,1/2+y,1/2+z
1/2-x,-y,1/2+z
1/2+x,1/2-y,1/2-z
1/2-x,y,1/2-z
1/2-x,1/2-y,1/2-z
1/2+x,y,1/2-z
1/2-x,1/2+y,1/2+z
1/2+x,-y,1/2+z
loop_
_atom_site_type_symbol
_atom_site_label
_atom_site_fract_x
_atom_site_fract_y
_atom_site_fract_z
Si Si1 0.415045 0.547666 0.386967
Si Si2 0.344708 0.836061 0.070598
Si Si3 0.417684 0.416652 0.034021
Si Si4 0.181026 0.840587 0.792483
Si Si5 0.844306 0.494507 0.632046
Si Si6 0.815965 0.661723 0.038860
Si Si7 0.799855 0.924692 0.912419
Si Si8 0.085086 0.981484 0.757485
O O1 0.500000 0.546368 0.406031
O O2 0.378774 0.624712 0.417893
O O3 0.378300 0.468302 0.413460
O O4 0.405919 0.545235 0.312686
O O5 0.377767 0.750000 0.090536
O O6 0.257318 0.831816 0.079107
O O7 0.374968 0.908120 0.111667
O O8 0.366971 0.851675 0.999408
O O9 0.500000 0.383474 0.034255
O O10 0.391366 0.432560 0.103590
O O11 0.409914 0.500000 0.000000
O O12 0.158428 0.750000 0.781597
O O13 0.250000 0.864981 0.750000
O O14 0.204245 0.853627 0.863307
O O15 0.109596 0.893945 0.778752
O O16 0.760849 0.508780 0.607714
O O17 0.857383 0.493904 0.704608
O O18 0.842413 0.750000 0.018840
O O19 0.791981 0.609095 0.980442
O O20 0.000000 0.978533 0.735239
#
# Coordination Sequence:
#
# PCOD8300161 Si02
#       8
#    16  16  16  16  16  16  16  16
#     4  10  23  40  60  85 115 153 201 251 302 360
#     4  10  21  35  54  83 118 155 196 242 293 348
#     4   9  18  32  53  80 112 151 189 231 285 350
#     4  10  20  35  56  85 119 154 194 241 295 357
#     4  11  19  35  61  86 116 154 199 243 295 359
#     4  11  22  37  58  86 120 154 193 244 302 354
#     4  11  20  35  61  87 115 154 194 242 295 361
#     4  10  22  40  61  87 117 156 205 251 294 356
#
# _framework density 19.186094000000001
#
# number of rings (size 3 to 8) (size 9 to 14) (size 15 to 20)
#    0.000    1.750    3.750    1.125    0.000    2.250 
#    0.000    1.250    0.000    6.000    0.000    0.000 
#    0.000    0.000    0.000    0.000    0.000    0.000 
#
# Total GULP energy -793214.166567 kJ/mol
# GULP energy per Si atom -12393.971353 kJ/mol
# Density = 1.914243 g / cm^3
# Si number density = 19.186094 Si / 1000 Ang^3
#
#
#
# Elastic Constant Matrix: (Units=GPa)
#
#
# Indices 1 2 3 4 5 6 
#
# 1 103.7430 32.9438 27.3632 0.0000 0.0000 0.0000
# 2 32.9438 104.8242 37.1353 0.0000 0.0000 0.0000
# 3 27.3632 37.1353 86.2007 0.0000 0.0000 0.0000
# 4 0.0000 0.0000 0.0000 21.9304 0.0000 0.0000
# 5 0.0000 0.0000 0.0000 0.0000 28.7243 0.0000
# 6 0.0000 0.0000 0.0000 0.0000 0.0000 17.4810
#
#
#
# Elastic Compliance Matrix: (Units=1/GPa)
#
#
# Indices 1 2 3 4 5 6 
#
# 1 0.011109 -0.002646 -0.002387 0.000000 0.000000 0.000000
# 2 -0.002646 0.011888 -0.004282 0.000000 0.000000 0.000000
# 3 -0.002387 -0.004282 0.014203 0.000000 0.000000 0.000000
# 4 0.000000 0.000000 0.000000 0.045599 0.000000 0.000000
# 5 0.000000 0.000000 0.000000 0.000000 0.034814 0.000000
# 6 0.000000 0.000000 0.000000 0.000000 0.000000 0.057205
#
#
# Mechanical properties :
#
#
# Convention : Reuss Voigt Hill
#
# Bulk Modulus (GPa) = 53.84417 54.40583 54.12500
# Shear Modulus (GPa) = 25.04562 26.78217 25.91389
#
# Velocity S-wave (km/s) = 3.61696 3.74025 3.67912
# Velocity P-wave (km/s) = 6.75043 6.86084 6.80586
#
# Compressibility (1/GPa) = 0.01857211
#
# Stress axis : x y z
#
# Youngs Moduli (GPa) = 90.01828 84.11788 70.40818
#
# Poissons Ratio (x) = 0.22256 0.16803
# Poissons Ratio (y) = 0.23817 0.30145
# Poissons Ratio (z) = 0.21483 0.36015
#
# Static dielectric constant tensor:
#      x y z
#    x 3.463720 0.000000 0.000000 
#    y 0.000000 3.473890 0.000000 
#    z 0.000000 0.000000 3.505280 
# 
# 
# High freq. dielectric constant tensor:
#      x y z
#    x 1.743380 0.000000 0.000000 
#    y 0.000000 1.733030 0.000000 
#    z 0.000000 0.000000 1.737950 
# 
# From -- ./inp_files/61152.got.cif
#   From: 2010.03.12/outbox.cif.g09.slc.cpg/sg74_31_cif.got.tgz:61152.got - 2010.04.16 15:46:19.
