data_PCOD8300630
_publ_section_title
;
Structure prediction by ZEFSAII (Michael W. Deem and Ramdas Pophale) SiO2 
 PCOD8300630
Probable space group: I M M A
;
_chemical_formula_sum "Si O2"
_cell_formula_units_Z 96
_cell_length_a 23.483762
_cell_length_b 18.029721
_cell_length_c 11.065430
_cell_angle_alpha 90.000000
_cell_angle_beta 90.000000
_cell_angle_gamma 90.000000
_cell_volume 4685.165879
_symmetry_space_group_name_H-M "I M M A"
_symmetry_group_IT_number 74
_symmetry_cell_setting 'orthorhombic'
loop_
_space_group_symop_operation_xyz
x,y,z
-x,1/2-y,z
x,-y,-z
-x,1/2+y,-z
-x,-y,-z
x,1/2+y,-z
-x,y,z
x,1/2-y,z
1/2+x,1/2+y,1/2+z
1/2-x,-y,1/2+z
1/2+x,1/2-y,1/2-z
1/2-x,y,1/2-z
1/2-x,1/2-y,1/2-z
1/2+x,y,1/2-z
1/2-x,1/2+y,1/2+z
1/2+x,-y,1/2+z
loop_
_atom_site_type_symbol
_atom_site_label
_atom_site_fract_x
_atom_site_fract_y
_atom_site_fract_z
Si Si1 0.500000 0.042631 0.628315
Si Si2 0.325028 0.665426 0.121033
Si Si3 0.000000 0.547781 0.621750
Si Si4 0.693558 0.541476 0.696159
Si Si5 0.210801 0.333977 0.007136
Si Si6 0.125148 0.905877 0.146897
Si Si7 0.621322 0.576442 0.924197
O O1 0.443090 0.092762 0.634454
O O2 0.500000 0.000000 0.500000
O O3 0.500000 0.993922 0.749309
O O4 0.335845 0.750000 0.159560
O O5 0.257756 0.650844 0.098285
O O6 0.354250 0.612031 0.218043
O O7 0.356667 0.647446 0.996394
O O8 0.000000 0.500000 0.500000
O O9 0.056933 0.596015 0.614920
O O10 0.750000 0.501282 0.750000
O O11 0.717850 0.608835 0.615840
O O12 0.654848 0.485266 0.617260
O O13 0.655942 0.574081 0.801953
O O14 0.216196 0.250000 0.055994
O O15 0.148857 0.344942 0.946147
O O16 0.627285 0.500000 0.000000
#
# Coordination Sequence:
#
# PCOD8300630 Si02
#       7
#     8  16   8  16  16  16  16
#     4  12  24  42  66  98 130 172 220 274 332 386
#     4  11  23  42  66  95 133 168 210 269 333 391
#     4  10  20  40  64  92 134 170 211 276 332 382
#     4  12  22  36  66  94 126 162 214 267 317 389
#     4  11  25  41  60  92 134 173 207 261 334 393
#     4  12  24  41  66  94 125 167 218 270 318 385
#     4  11  21  39  63  96 128 166 218 270 328 384
#
# _framework density 20.490203999999999
#
# number of rings (size 3 to 8) (size 9 to 14) (size 15 to 20)
#    0.000    0.667    5.000    4.500    0.000    2.333 
#    0.000    2.917    0.000    0.000    0.000    0.000 
#    0.000    0.000    0.000    0.000    0.000    0.000 
#
# Total GULP energy -595025.998591 kJ/mol
# GULP energy per Si atom -12396.374971 kJ/mol
# Density = 2.044357 g / cm^3
# Si number density = 20.490204 Si / 1000 Ang^3
#
#
#
# Elastic Constant Matrix: (Units=GPa)
#
#
# Indices 1 2 3 4 5 6 
#
# 1 165.5594 36.7270 18.3715 0.0000 0.0000 0.0000
# 2 36.7270 78.8439 26.6084 0.0000 0.0000 0.0000
# 3 18.3715 26.6084 80.1798 0.0000 0.0000 0.0000
# 4 0.0000 0.0000 0.0000 30.7393 0.0000 0.0000
# 5 0.0000 0.0000 0.0000 0.0000 32.5608 0.0000
# 6 0.0000 0.0000 0.0000 0.0000 0.0000 16.6557
#
#
#
# Elastic Compliance Matrix: (Units=1/GPa)
#
#
# Indices 1 2 3 4 5 6 
#
# 1 0.006759 -0.002957 -0.000567 0.000000 0.000000 0.000000
# 2 -0.002957 0.015577 -0.004492 0.000000 0.000000 0.000000
# 3 -0.000567 -0.004492 0.014093 0.000000 0.000000 0.000000
# 4 0.000000 0.000000 0.000000 0.032532 0.000000 0.000000
# 5 0.000000 0.000000 0.000000 0.000000 0.030712 0.000000
# 6 0.000000 0.000000 0.000000 0.000000 0.000000 0.060039
#
#
# Mechanical properties :
#
#
# Convention : Reuss Voigt Hill
#
# Bulk Modulus (GPa) = 49.02912 54.22188 51.62550
# Shear Modulus (GPa) = 27.39095 32.18291 29.78693
#
# Velocity S-wave (km/s) = 3.66017 3.96744 3.81690
# Velocity P-wave (km/s) = 6.46858 6.89255 6.68393
#
# Compressibility (1/GPa) = 0.02039604
#
# Stress axis : x y z
#
# Youngs Moduli (GPa) = 147.94957 64.19885 70.95928
#
# Poissons Ratio (x) = 0.18984 0.04026
# Poissons Ratio (y) = 0.43749 0.31873
# Poissons Ratio (z) = 0.08394 0.28836
#
# Static dielectric constant tensor:
#      x y z
#    x 4.645050 0.000000 0.000000 
#    y 0.000000 3.408440 0.000000 
#    z 0.000000 0.000000 3.846040 
# 
# 
# High freq. dielectric constant tensor:
#      x y z
#    x 1.813230 0.000000 0.000000 
#    y 0.000000 1.768810 0.000000 
#    z 0.000000 0.000000 1.815790 
# 
# From -- ./inp_files/23957.got.cif
#   From: 2010.03.12/outbox.cif.g09.slc.cpg/sg74_12_cif.got.tgz:23957.got - 2010.04.16 15:46:19.
