data_PCOD8300268
_publ_section_title
;
Structure prediction by ZEFSAII (Michael W. Deem and Ramdas Pophale) SiO2 
 PCOD8300268
Probable space group: I M M A
;
_chemical_formula_sum "Si O2"
_cell_formula_units_Z 120
_cell_length_a 8.617591
_cell_length_b 26.972192
_cell_length_c 27.780323
_cell_angle_alpha 90.000000
_cell_angle_beta 90.000000
_cell_angle_gamma 90.000000
_cell_volume 6457.128239
_symmetry_space_group_name_H-M "I M M A"
_symmetry_group_IT_number 74
_symmetry_cell_setting 'orthorhombic'
loop_
_space_group_symop_operation_xyz
x,y,z
-x,1/2-y,z
x,-y,-z
-x,1/2+y,-z
-x,-y,-z
x,1/2+y,-z
-x,y,z
x,1/2-y,z
1/2+x,1/2+y,1/2+z
1/2-x,-y,1/2+z
1/2+x,1/2-y,1/2-z
1/2-x,y,1/2-z
1/2-x,1/2-y,1/2-z
1/2+x,y,1/2-z
1/2-x,1/2+y,1/2+z
1/2+x,-y,1/2+z
loop_
_atom_site_type_symbol
_atom_site_label
_atom_site_fract_x
_atom_site_fract_y
_atom_site_fract_z
Si Si1 0.819474 0.943990 0.988200
Si Si2 0.183385 0.304095 0.439615
Si Si3 0.183050 0.750000 0.303030
Si Si4 0.684144 0.597028 0.893649
Si Si5 0.684040 0.927809 0.198925
Si Si6 0.682112 0.853783 0.037731
Si Si7 0.682363 0.841528 0.360548
Si Si8 0.682489 0.040712 0.199945
O O1 0.769036 0.935577 0.933455
O O2 0.000000 0.931773 0.994822
O O3 0.722138 0.910574 0.025345
O O4 0.778757 0.000000 0.000000
O O5 0.255474 0.250000 0.426912
O O6 0.234512 0.345215 0.400191
O O7 0.237988 0.320326 0.492786
O O8 0.000000 0.300451 0.439949
O O9 0.250000 0.750000 0.250000
O O10 0.236768 0.701148 0.330327
O O11 0.000000 0.750000 0.299875
O O12 0.500000 0.590708 0.900434
O O13 0.741357 0.577364 0.841991
O O14 0.500000 0.921927 0.198722
O O15 0.750000 0.909182 0.250000
O O16 0.757028 0.894969 0.156788
O O17 0.737486 0.984466 0.189460
O O18 0.500000 0.848837 0.048086
O O19 0.775818 0.834726 0.083686
O O20 0.500000 0.837649 0.353124
O O21 0.500000 0.042292 0.204065
O O22 0.750000 0.060695 0.250000
#
# Coordination Sequence:
#
# PCOD8300268 Si02
#       8
#    16  16   8  16  16  16  16  16
#     4  10  21  35  51  77 111 146 181 222 275 333
#     4   8  15  30  54  80 105 135 177 226 270 317
#     4  12  26  46  66  84 108 144 190 238 293 346
#     4   9  18  33  53  79 107 141 184 225 270 331
#     4  10  20  36  55  78 105 140 182 225 275 330
#     4  10  21  36  55  80 108 144 186 228 274 327
#     4  12  25  40  58  83 112 142 181 232 286 338
#     4   9  19  34  54  81 110 143 183 225 269 324
#
# _framework density 18.584112000000001
#
# number of rings (size 3 to 8) (size 9 to 14) (size 15 to 20)
#    0.000    2.133    0.000    4.200    2.800    2.133 
#    0.000    0.000    0.000    4.000    0.000    0.000 
#    0.000    0.000    0.000    0.000    0.000    0.000 
#
# Total GULP energy -744049.028479 kJ/mol
# GULP energy per Si atom -12400.817141 kJ/mol
# Density = 1.854181 g / cm^3
# Si number density = 18.584112 Si / 1000 Ang^3
#
#
#
# Elastic Constant Matrix: (Units=GPa)
#
#
# Indices 1 2 3 4 5 6 
#
# 1 66.2456 31.6543 27.0471 0.0000 0.0000 0.0000
# 2 31.6543 135.8919 75.1573 0.0000 0.0000 0.0000
# 3 27.0471 75.1573 127.0230 0.0000 0.0000 0.0000
# 4 0.0000 0.0000 0.0000 23.7496 0.0000 0.0000
# 5 0.0000 0.0000 0.0000 0.0000 30.8369 0.0000
# 6 0.0000 0.0000 0.0000 0.0000 0.0000 16.9054
#
#
#
# Elastic Compliance Matrix: (Units=1/GPa)
#
#
# Indices 1 2 3 4 5 6 
#
# 1 0.017299 -0.002961 -0.001931 0.000000 0.000000 0.000000
# 2 -0.002961 0.011445 -0.006141 0.000000 0.000000 0.000000
# 3 -0.001931 -0.006141 0.011918 0.000000 0.000000 0.000000
# 4 0.000000 0.000000 0.000000 0.042106 0.000000 0.000000
# 5 0.000000 0.000000 0.000000 0.000000 0.032429 0.000000
# 6 0.000000 0.000000 0.000000 0.000000 0.000000 0.059153
#
#
# Mechanical properties :
#
#
# Convention : Reuss Voigt Hill
#
# Bulk Modulus (GPa) = 53.78198 66.31976 60.05087
# Shear Modulus (GPa) = 24.67735 27.31849 25.99792
#
# Velocity S-wave (km/s) = 3.64795 3.83821 3.74429
# Velocity P-wave (km/s) = 6.83710 7.44353 7.14675
#
# Compressibility (1/GPa) = 0.01859359
#
# Stress axis : x y z
#
# Youngs Moduli (GPa) = 57.80708 87.37289 83.91008
#
# Poissons Ratio (x) = 0.25875 0.16205
# Poissons Ratio (y) = 0.17119 0.51532
# Poissons Ratio (z) = 0.11164 0.53659
#
# Static dielectric constant tensor:
#      x y z
#    x 3.342930 0.000000 0.000000 
#    y 0.000000 3.728440 0.000000 
#    z 0.000000 0.000000 3.502190 
# 
# 
# High freq. dielectric constant tensor:
#      x y z
#    x 1.716080 0.000000 0.000000 
#    y 0.000000 1.722830 0.000000 
#    z 0.000000 0.000000 1.716120 
# 
# From -- ./inp_files/65129.got.cif
#   From: 2010.03.12/outbox.cif.g09.slc.cpg/sg74_33_cif.got.tgz:65129.got - 2010.04.16 15:46:19.
