data_PCOD8300976
_publ_section_title
;
Structure prediction by ZEFSAII (Michael W. Deem and Ramdas Pophale) SiO2 
 PCOD8300976
Probable space group: I M M A
;
_chemical_formula_sum "Si O2"
_cell_formula_units_Z 64
_cell_length_a 10.835018
_cell_length_b 14.849101
_cell_length_c 21.440048
_cell_angle_alpha 90.000000
_cell_angle_beta 90.000000
_cell_angle_gamma 90.000000
_cell_volume 3449.495253
_symmetry_space_group_name_H-M "I M M A"
_symmetry_group_IT_number 74
_symmetry_cell_setting 'orthorhombic'
loop_
_space_group_symop_operation_xyz
x,y,z
-x,1/2-y,z
x,-y,-z
-x,1/2+y,-z
-x,-y,-z
x,1/2+y,-z
-x,y,z
x,1/2-y,z
1/2+x,1/2+y,1/2+z
1/2-x,-y,1/2+z
1/2+x,1/2-y,1/2-z
1/2-x,y,1/2-z
1/2-x,1/2-y,1/2-z
1/2+x,y,1/2-z
1/2-x,1/2+y,1/2+z
1/2+x,-y,1/2+z
loop_
_atom_site_type_symbol
_atom_site_label
_atom_site_fract_x
_atom_site_fract_y
_atom_site_fract_z
Si Si1 0.750000 0.900725 0.750000
Si Si2 0.861333 0.750000 0.981595
Si Si3 0.000000 0.643520 0.382820
Si Si4 0.500000 0.017281 0.201250
Si Si5 0.309339 0.602356 0.013308
Si Si6 0.354991 0.750000 0.665554
Si Si7 0.500000 0.848600 0.911662
O O1 0.627535 0.961298 0.762073
O O2 0.715815 0.838151 0.691077
O O3 0.813410 0.839463 0.015770
O O4 0.000000 0.750000 0.999911
O O5 0.838837 0.750000 0.907867
O O6 0.000000 0.588400 0.317713
O O7 0.880324 0.613734 0.421741
O O8 0.000000 0.750000 0.368660
O O9 0.500000 0.074724 0.138827
O O10 0.275612 0.500000 0.000000
O O11 0.382871 0.643500 0.955699
O O12 0.500000 0.750000 0.685897
O O13 0.500000 0.750000 0.879193
#
# Coordination Sequence:
#
# PCOD8300976 Si02
#       7
#     8   8   8   8  16   8   8
#     4  11  24  38  57  88 124 160 213 248 295 356
#     4  11  23  36  56  84 130 169 192 231 310 369
#     4  11  21  39  66  90 112 148 205 266 307 338
#     4  12  24  39  62  90 120 159 201 261 309 353
#     4  11  19  35  57  91 123 148 200 249 292 369
#     4  10  21  38  56  86 126 172 198 239 294 374
#     4  11  19  31  60  90 114 156 189 243 308 353
#
# _framework density 18.553438
#
# number of rings (size 3 to 8) (size 9 to 14) (size 15 to 20)
#    0.000    1.000    6.250    3.000    3.500    0.500 
#    0.000    0.625    2.750    0.000    0.000    0.000 
#    0.000    0.000    0.000    0.000    0.000    0.000 
#
# Total GULP energy -396712.664900 kJ/mol
# GULP energy per Si atom -12397.270778 kJ/mol
# Density = 1.851121 g / cm^3
# Si number density = 18.553438 Si / 1000 Ang^3
#
#
#
# Elastic Constant Matrix: (Units=GPa)
#
#
# Indices 1 2 3 4 5 6 
#
# 1 143.7926 61.7272 37.0870 0.0000 0.0000 0.0000
# 2 61.7272 172.2329 27.2933 0.0000 0.0000 0.0000
# 3 37.0870 27.2933 42.0039 0.0000 0.0000 0.0000
# 4 0.0000 0.0000 0.0000 23.9322 0.0000 0.0000
# 5 0.0000 0.0000 0.0000 0.0000 -2.1898 0.0000
# 6 0.0000 0.0000 0.0000 0.0000 0.0000 18.3221
#
#
#
# Elastic Compliance Matrix: (Units=1/GPa)
#
#
# Indices 1 2 3 4 5 6 
#
# 1 0.009815 -0.002391 -0.007113 0.000000 0.000000 0.000000
# 2 -0.002391 0.007055 -0.002473 0.000000 0.000000 0.000000
# 3 -0.007113 -0.002473 0.031695 0.000000 0.000000 0.000000
# 4 0.000000 0.000000 0.000000 0.041785 0.000000 0.000000
# 5 0.000000 0.000000 0.000000 0.000000 -0.456653 0.000000
# 6 0.000000 0.000000 0.000000 0.000000 0.000000 0.054579
#
#
# Mechanical properties :
#
#
# Convention : Reuss Voigt Hill
#
# Bulk Modulus (GPa) = 40.63211 67.80494 54.21853
# Shear Modulus (GPa) = -17.88478 23.47435 2.79478
#
# Velocity S-wave (km/s) = -3.10814 3.56086 1.22866
# Velocity P-wave (km/s) = 3.01113 7.31652 5.59457
#
# Compressibility (1/GPa) = 0.02461108
#
# Stress axis : x y z
#
# Youngs Moduli (GPa) = 101.88241 141.74754 31.55100
#
# Poissons Ratio (x) = 0.33885 0.22442
# Poissons Ratio (y) = 0.24355 0.07804
# Poissons Ratio (z) = 0.72468 0.35059
#
# Static dielectric constant tensor:
#      x y z
#    x 3.599520 0.000000 0.000000 
#    y 0.000000 3.490090 0.000000 
#    z 0.000000 0.000000 3.182850 
# 
# 
# High freq. dielectric constant tensor:
#      x y z
#    x 1.723700 0.000000 0.000000 
#    y 0.000000 1.721710 0.000000 
#    z 0.000000 0.000000 1.692170 
# 
# From -- ./inp_files/40790.got.cif
#   From: 2010.03.12/outbox.cif.g09.slc.cpg/sg74_21_cif.got.tgz:40790.got - 2010.04.16 15:46:19.
