data_PCOD8300191
_publ_section_title
;
Structure prediction by ZEFSAII (Michael W. Deem and Ramdas Pophale) SiO2 
 PCOD8300191
Probable space group: I M M A
;
_chemical_formula_sum "Si O2"
_cell_formula_units_Z 96
_cell_length_a 17.799319
_cell_length_b 19.901178
_cell_length_c 14.748274
_cell_angle_alpha 90.000000
_cell_angle_beta 90.000000
_cell_angle_gamma 90.000000
_cell_volume 5224.242985
_symmetry_space_group_name_H-M "I M M A"
_symmetry_group_IT_number 74
_symmetry_cell_setting 'orthorhombic'
loop_
_space_group_symop_operation_xyz
x,y,z
-x,1/2-y,z
x,-y,-z
-x,1/2+y,-z
-x,-y,-z
x,1/2+y,-z
-x,y,z
x,1/2-y,z
1/2+x,1/2+y,1/2+z
1/2-x,-y,1/2+z
1/2+x,1/2-y,1/2-z
1/2-x,y,1/2-z
1/2-x,1/2-y,1/2-z
1/2+x,y,1/2-z
1/2-x,1/2+y,1/2+z
1/2+x,-y,1/2+z
loop_
_atom_site_type_symbol
_atom_site_label
_atom_site_fract_x
_atom_site_fract_y
_atom_site_fract_z
Si Si1 0.167817 0.927748 0.792042
Si Si2 0.412466 0.828256 0.841278
Si Si3 0.411218 0.561039 0.339676
Si Si4 0.694672 0.074204 0.496858
Si Si5 0.587778 0.675034 0.203124
Si Si6 0.325905 0.171871 0.976824
O O1 0.250000 0.937374 0.750000
O O2 0.122059 0.870370 0.740581
O O3 0.123645 0.997832 0.786655
O O4 0.172199 0.903932 0.895911
O O5 0.500000 0.844979 0.852302
O O6 0.399635 0.750000 0.819523
O O7 0.371050 0.849564 0.933535
O O8 0.500000 0.551871 0.346953
O O9 0.379494 0.570368 0.440796
O O10 0.386742 0.626237 0.283137
O O11 0.750896 0.129187 0.535379
O O12 0.732980 0.000000 0.500000
O O13 0.500000 0.670801 0.186293
O O14 0.612869 0.750000 0.231539
O O15 0.623744 0.653344 0.108725
O O16 0.304260 0.250000 0.980015
#
# Coordination Sequence:
#
# PCOD8300191 Si02
#       6
#    16  16  16  16  16  16
#     4  11  22  38  59  85 114 152 191 240 287 336
#     4  10  21  37  59  86 116 151 191 235 286 346
#     4  10  23  40  60  84 114 154 194 237 283 341
#     4  10  23  38  57  81 114 152 187 239 284 337
#     4   9  19  36  58  84 115 150 187 233 284 336
#     4  10  20  35  57  85 117 150 188 231 286 343
#
# _framework density 18.375868000000001
#
# number of rings (size 3 to 8) (size 9 to 14) (size 15 to 20)
#    0.000    2.000    1.667    1.000    4.667    7.333 
#    0.000    1.667    0.000    6.000    0.000    0.000 
#    0.000    0.000    0.000    0.000    0.000    0.000 
#
# Total GULP energy -595305.122777 kJ/mol
# GULP energy per Si atom -12402.190058 kJ/mol
# Density = 1.833404 g / cm^3
# Si number density = 18.375868 Si / 1000 Ang^3
#
#
#
# Elastic Constant Matrix: (Units=GPa)
#
#
# Indices 1 2 3 4 5 6 
#
# 1 76.6022 55.7781 44.4832 0.0000 0.0000 0.0000
# 2 55.7781 84.4799 56.7818 0.0000 0.0000 0.0000
# 3 44.4832 56.7818 119.5757 0.0000 0.0000 0.0000
# 4 0.0000 0.0000 0.0000 32.5711 0.0000 0.0000
# 5 0.0000 0.0000 0.0000 0.0000 27.1525 0.0000
# 6 0.0000 0.0000 0.0000 0.0000 0.0000 34.4719
#
#
#
# Elastic Compliance Matrix: (Units=1/GPa)
#
#
# Indices 1 2 3 4 5 6 
#
# 1 0.025527 -0.015381 -0.002193 0.000000 0.000000 0.000000
# 2 -0.015381 0.026653 -0.006935 0.000000 0.000000 0.000000
# 3 -0.002193 -0.006935 0.012472 0.000000 0.000000 0.000000
# 4 0.000000 0.000000 0.000000 0.030702 0.000000 0.000000
# 5 0.000000 0.000000 0.000000 0.000000 0.036829 0.000000
# 6 0.000000 0.000000 0.000000 0.000000 0.000000 0.029009
#
#
# Mechanical properties :
#
#
# Convention : Reuss Voigt Hill
#
# Bulk Modulus (GPa) = 63.95554 66.08267 65.01910
# Shear Modulus (GPa) = 23.21037 27.08010 25.14523
#
# Velocity S-wave (km/s) = 3.55785 3.84301 3.70318
# Velocity P-wave (km/s) = 7.19426 7.46535 7.33106
#
# Compressibility (1/GPa) = 0.01563586
#
# Stress axis : x y z
#
# Youngs Moduli (GPa) = 39.17393 37.51861 80.18135
#
# Poissons Ratio (x) = 0.57706 0.17581
# Poissons Ratio (y) = 0.60252 0.55605
# Poissons Ratio (z) = 0.08590 0.26019
#
# Static dielectric constant tensor:
#      x y z
#    x 3.355020 0.000000 0.000000 
#    y 0.000000 3.561170 0.000000 
#    z 0.000000 0.000000 3.466990 
# 
# 
# High freq. dielectric constant tensor:
#      x y z
#    x 1.713910 0.000000 0.000000 
#    y 0.000000 1.717630 0.000000 
#    z 0.000000 0.000000 1.722450 
# 
# From -- ./inp_files/32385.got.cif
#   From: 2010.03.12/outbox.cif.g09.slc.cpg/sg74_17_cif.got.tgz:32385.got - 2010.04.16 15:46:19.
