data_PCOD8300674
_publ_section_title
;
Structure prediction by ZEFSAII (Michael W. Deem and Ramdas Pophale) SiO2 
 PCOD8300674
Probable space group: I M M A
;
_chemical_formula_sum "Si O2"
_cell_formula_units_Z 96
_cell_length_a 15.177825
_cell_length_b 16.264029
_cell_length_c 18.450106
_cell_angle_alpha 90.000000
_cell_angle_beta 90.000000
_cell_angle_gamma 90.000000
_cell_volume 4554.456377
_symmetry_space_group_name_H-M "I M M A"
_symmetry_group_IT_number 74
_symmetry_cell_setting 'orthorhombic'
loop_
_space_group_symop_operation_xyz
x,y,z
-x,1/2-y,z
x,-y,-z
-x,1/2+y,-z
-x,-y,-z
x,1/2+y,-z
-x,y,z
x,1/2-y,z
1/2+x,1/2+y,1/2+z
1/2-x,-y,1/2+z
1/2+x,1/2-y,1/2-z
1/2-x,y,1/2-z
1/2-x,1/2-y,1/2-z
1/2+x,y,1/2-z
1/2-x,1/2+y,1/2+z
1/2+x,-y,1/2+z
loop_
_atom_site_type_symbol
_atom_site_label
_atom_site_fract_x
_atom_site_fract_y
_atom_site_fract_z
Si Si1 0.399473 0.901726 0.916428
Si Si2 0.248392 0.345197 0.828368
Si Si3 0.235390 0.844920 0.833526
Si Si4 0.905700 0.343398 0.920356
Si Si5 0.900962 0.592247 0.417733
Si Si6 0.899133 0.073955 0.058010
O O1 0.500000 0.882834 0.891756
O O2 0.331612 0.848579 0.870145
O O3 0.376881 0.997330 0.907077
O O4 0.387280 0.878277 0.000245
O O5 0.225257 0.250000 0.819880
O O6 0.250000 0.388430 0.750000
O O7 0.171241 0.389300 0.875381
O O8 0.341525 0.352690 0.866590
O O9 0.201677 0.750000 0.837115
O O10 0.250000 0.872569 0.750000
O O11 0.167307 0.908225 0.874421
O O12 0.909628 0.250000 0.896162
O O13 0.000000 0.386724 0.902043
O O14 0.889221 0.346310 0.006630
O O15 0.000000 0.608803 0.392758
O O16 0.000000 0.063543 0.086893
O O17 0.874461 0.000000 0.000000
#
# Coordination Sequence:
#
# PCOD8300674 Si02
#       6
#    16  16  16  16  16  16
#     4   9  20  39  61  86 116 153 200 251 304 365
#     4  10  21  34  51  79 115 155 195 239 297 362
#     4  11  25  41  62  95 130 167 207 255 322 386
#     4   9  18  34  55  78 108 150 197 245 299 359
#     4   9  19  36  58  83 112 150 196 249 303 353
#     4  10  22  40  63  91 121 159 210 262 309 368
#
# _framework density 21.078257000000001
#
# number of rings (size 3 to 8) (size 9 to 14) (size 15 to 20)
#    0.000    2.333    0.000    2.500    4.667    5.667 
#    0.000    5.000    0.000    0.000    0.000    0.000 
#    0.000    0.000    0.000    0.000    0.000    0.000 
#
# Total GULP energy -594675.719457 kJ/mol
# GULP energy per Si atom -12389.077489 kJ/mol
# Density = 2.103028 g / cm^3
# Si number density = 21.078257 Si / 1000 Ang^3
#
#
#
# Elastic Constant Matrix: (Units=GPa)
#
#
# Indices 1 2 3 4 5 6 
#
# 1 136.9483 25.4897 81.3755 0.0000 0.0000 0.0000
# 2 25.4897 45.2753 28.0142 0.0000 0.0000 0.0000
# 3 81.3755 28.0142 128.4690 0.0000 0.0000 0.0000
# 4 0.0000 0.0000 0.0000 10.4600 0.0000 0.0000
# 5 0.0000 0.0000 0.0000 0.0000 6.4325 0.0000
# 6 0.0000 0.0000 0.0000 0.0000 0.0000 23.3018
#
#
#
# Elastic Compliance Matrix: (Units=1/GPa)
#
#
# Indices 1 2 3 4 5 6 
#
# 1 0.011923 -0.002358 -0.007038 0.000000 0.000000 0.000000
# 2 -0.002358 0.025998 -0.004176 0.000000 0.000000 0.000000
# 3 -0.007038 -0.004176 0.013153 0.000000 0.000000 0.000000
# 4 0.000000 0.000000 0.000000 0.095602 0.000000 0.000000
# 5 0.000000 0.000000 0.000000 0.000000 0.155461 0.000000
# 6 0.000000 0.000000 0.000000 0.000000 0.000000 0.042915
#
#
# Mechanical properties :
#
#
# Convention : Reuss Voigt Hill
#
# Bulk Modulus (GPa) = 41.78747 64.49458 53.14103
# Shear Modulus (GPa) = 13.15192 19.75974 16.45583
#
# Velocity S-wave (km/s) = 2.50062 3.06510 2.79714
# Velocity P-wave (km/s) = 5.31088 6.57195 5.97478
#
# Compressibility (1/GPa) = 0.02393062
#
# Stress axis : x y z
#
# Youngs Moduli (GPa) = 83.87157 38.46409 76.02982
#
# Poissons Ratio (x) = 0.09069 0.53511
# Poissons Ratio (y) = 0.19774 0.31749
# Poissons Ratio (z) = 0.59030 0.16062
#
# Static dielectric constant tensor:
#      x y z
#    x 4.143060 0.000000 0.000000 
#    y 0.000000 3.620440 0.000000 
#    z 0.000000 0.000000 3.911870 
# 
# 
# High freq. dielectric constant tensor:
#      x y z
#    x 1.837090 0.000000 0.000000 
#    y 0.000000 1.811620 0.000000 
#    z 0.000000 0.000000 1.812710 
# 
# From -- ./inp_files/32396.got.cif
#   From: 2010.03.12/outbox.cif.g09.slc.cpg/sg74_17_cif.got.tgz:32396.got - 2010.04.16 15:46:19.
