data_PCOD8300079
_publ_section_title
;
Structure prediction by ZEFSAII (Michael W. Deem and Ramdas Pophale) SiO2 
 PCOD8300079
Probable space group: I M M A
;
_chemical_formula_sum "Si O2"
_cell_formula_units_Z 104
_cell_length_a 32.681601
_cell_length_b 9.151212
_cell_length_c 19.120520
_cell_angle_alpha 90.000000
_cell_angle_beta 90.000000
_cell_angle_gamma 90.000000
_cell_volume 5718.493597
_symmetry_space_group_name_H-M "I M M A"
_symmetry_group_IT_number 74
_symmetry_cell_setting 'orthorhombic'
loop_
_space_group_symop_operation_xyz
x,y,z
-x,1/2-y,z
x,-y,-z
-x,1/2+y,-z
-x,-y,-z
x,1/2+y,-z
-x,y,z
x,1/2-y,z
1/2+x,1/2+y,1/2+z
1/2-x,-y,1/2+z
1/2+x,1/2-y,1/2-z
1/2-x,y,1/2-z
1/2-x,1/2-y,1/2-z
1/2+x,y,1/2-z
1/2-x,1/2+y,1/2+z
1/2+x,-y,1/2+z
loop_
_atom_site_type_symbol
_atom_site_label
_atom_site_fract_x
_atom_site_fract_y
_atom_site_fract_z
Si Si1 0.953951 0.580093 0.070943
Si Si2 0.804373 0.576324 0.927143
Si Si3 0.148946 0.422918 0.690666
Si Si4 0.588131 0.078674 0.926002
Si Si5 0.375056 0.921946 0.344918
Si Si6 0.500000 0.083747 0.929369
Si Si7 0.231365 0.913169 0.673971
O O1 0.952603 0.750000 0.053228
O O2 0.921948 0.543053 0.132973
O O3 0.000000 0.533051 0.094466
O O4 0.940614 0.500000 0.000000
O O5 0.809107 0.750000 0.935389
O O6 0.845858 0.512412 0.895564
O O7 0.766071 0.532816 0.879008
O O8 0.795428 0.500000 0.000000
O O9 0.149269 0.250000 0.690074
O O10 0.119414 0.485557 0.630544
O O11 0.132649 0.477847 0.765897
O O12 0.193797 0.477179 0.671603
O O13 0.595330 0.250000 0.938679
O O14 0.542985 0.048153 0.891031
O O15 0.594403 0.000000 0.000000
O O16 0.365361 0.750000 0.352411
O O17 0.500000 0.250000 0.952171
O O18 0.500000 0.000000 0.000000
O O19 0.216357 0.750000 0.654560
O O20 0.250000 0.915029 0.750000
#
# Coordination Sequence:
#
# PCOD8300079 Si02
#       7
#    16  16  16  16  16   8  16
#     4   9  18  33  52  75 104 139 176 214 258 308
#     4  11  23  38  58  83 109 137 176 221 263 312
#     4  10  21  35  54  80 109 140 176 219 267 316
#     4   9  18  33  52  78 107 139 179 220 264 312
#     4  10  20  35  54  79 110 142 178 218 263 314
#     4   8  14  28  50  72 100 136 173 214 259 308
#     4  10  21  39  58  76 102 139 178 214 260 317
#
# _framework density 18.186608
#
# number of rings (size 3 to 8) (size 9 to 14) (size 15 to 20)
#    0.000    2.308    1.538    0.923    0.000    4.615 
#    1.385    3.077    0.000    0.000    0.000    0.000 
#    0.000    0.000    0.000    0.000    0.000    0.000 
#
# Total GULP energy -644553.469200 kJ/mol
# GULP energy per Si atom -12395.259023 kJ/mol
# Density = 1.814521 g / cm^3
# Si number density = 18.186608 Si / 1000 Ang^3
#
#
#
# Elastic Constant Matrix: (Units=GPa)
#
#
# Indices 1 2 3 4 5 6 
#
# 1 130.9628 32.1214 62.3109 0.0000 0.0000 0.0000
# 2 32.1214 34.2895 30.7671 0.0000 0.0000 0.0000
# 3 62.3109 30.7671 112.7778 0.0000 0.0000 0.0000
# 4 0.0000 0.0000 0.0000 23.5159 0.0000 0.0000
# 5 0.0000 0.0000 0.0000 0.0000 26.1285 0.0000
# 6 0.0000 0.0000 0.0000 0.0000 0.0000 25.7710
#
#
#
# Elastic Compliance Matrix: (Units=1/GPa)
#
#
# Indices 1 2 3 4 5 6 
#
# 1 0.011402 -0.006658 -0.004483 0.000000 0.000000 0.000000
# 2 -0.006658 0.042504 -0.007917 0.000000 0.000000 0.000000
# 3 -0.004483 -0.007917 0.013504 0.000000 0.000000 0.000000
# 4 0.000000 0.000000 0.000000 0.042524 0.000000 0.000000
# 5 0.000000 0.000000 0.000000 0.000000 0.038272 0.000000
# 6 0.000000 0.000000 0.000000 0.000000 0.000000 0.038803
#
#
# Mechanical properties :
#
#
# Convention : Reuss Voigt Hill
#
# Bulk Modulus (GPa) = 34.13750 58.71432 46.42591
# Shear Modulus (GPa) = 21.28643 25.27180 23.27911
#
# Velocity S-wave (km/s) = 3.42489 3.73176 3.58161
# Velocity P-wave (km/s) = 5.86952 7.13600 6.53352
#
# Compressibility (1/GPa) = 0.02929330
#
# Stress axis : x y z
#
# Youngs Moduli (GPa) = 87.70454 23.52700 74.05306
#
# Poissons Ratio (x) = 0.15665 0.33200
# Poissons Ratio (y) = 0.58396 0.58627
# Poissons Ratio (z) = 0.39320 0.18626
#
# Static dielectric constant tensor:
#      x y z
#    x 3.367240 0.000000 0.000000 
#    y 0.000000 3.326920 0.000000 
#    z 0.000000 0.000000 3.372510 
# 
# 
# High freq. dielectric constant tensor:
#      x y z
#    x 1.719880 0.000000 0.000000 
#    y 0.000000 1.698900 0.000000 
#    z 0.000000 0.000000 1.695570 
# 
# From -- ./inp_files/47193.got.cif
#   From: 2010.03.12/outbox.cif.g09.slc.cpg/sg74_24_cif.got.tgz:47193.got - 2010.04.16 15:46:19.
