data_PCOD8300963
_publ_section_title
;
Structure prediction by ZEFSAII (Michael W. Deem and Ramdas Pophale) SiO2 
 PCOD8300963
Probable space group: I M M A
;
_chemical_formula_sum "Si O2"
_cell_formula_units_Z 64
_cell_length_a 10.075348
_cell_length_b 24.599503
_cell_length_c 13.483465
_cell_angle_alpha 90.000000
_cell_angle_beta 90.000000
_cell_angle_gamma 90.000000
_cell_volume 3341.857294
_symmetry_space_group_name_H-M "I M M A"
_symmetry_group_IT_number 74
_symmetry_cell_setting 'orthorhombic'
loop_
_space_group_symop_operation_xyz
x,y,z
-x,1/2-y,z
x,-y,-z
-x,1/2+y,-z
-x,-y,-z
x,1/2+y,-z
-x,y,z
x,1/2-y,z
1/2+x,1/2+y,1/2+z
1/2-x,-y,1/2+z
1/2+x,1/2-y,1/2-z
1/2-x,y,1/2-z
1/2-x,1/2-y,1/2-z
1/2+x,y,1/2-z
1/2-x,1/2+y,1/2+z
1/2+x,-y,1/2+z
loop_
_atom_site_type_symbol
_atom_site_label
_atom_site_fract_x
_atom_site_fract_y
_atom_site_fract_z
Si Si1 0.144112 0.020475 0.609629
Si Si2 0.655774 0.596181 0.834149
Si Si3 0.000000 0.314614 0.891831
Si Si4 0.735656 0.870265 0.052484
Si Si5 0.500000 0.186105 0.836392
O O1 0.246320 0.071169 0.609393
O O2 0.000000 0.041642 0.648927
O O3 0.120967 0.000000 0.500000
O O4 0.192910 0.968156 0.670485
O O5 0.500000 0.605465 0.810345
O O6 0.750000 0.623443 0.750000
O O7 0.688789 0.622673 0.939598
O O8 0.874871 0.340195 0.947433
O O9 0.000000 0.250000 0.905249
O O10 0.000000 0.332712 0.777656
O O11 0.631578 0.833710 0.110201
O O12 0.500000 0.250000 0.841948
#
# Coordination Sequence:
#
# PCOD8300963 Si02
#       5
#    16  16   8  16   8
#     4   8  15  33  56  82 115 152 192 230 274 338
#     4  10  21  37  61  91 124 161 197 236 286 351
#     4  11  26  40  58  91 121 145 194 262 308 349
#     4  11  20  40  62  86 120 162 193 241 301 353
#     4  11  22  40  64  85 109 149 204 248 304 365
#
# _framework density 19.151028
#
# number of rings (size 3 to 8) (size 9 to 14) (size 15 to 20)
#    0.000    2.000    2.500    3.000    1.750    4.000 
#    2.250    1.875    0.000    4.500    0.000    0.000 
#    0.000    0.000    0.000    0.000    0.000    0.000 
#
# Total GULP energy -396554.115832 kJ/mol
# GULP energy per Si atom -12392.316120 kJ/mol
# Density = 1.910744 g / cm^3
# Si number density = 19.151028 Si / 1000 Ang^3
#
#
#
# Elastic Constant Matrix: (Units=GPa)
#
#
# Indices 1 2 3 4 5 6 
#
# 1 134.4619 43.8133 46.6113 0.0000 -0.0001 0.0000
# 2 43.8133 67.0575 28.7453 -0.0001 -0.0001 -0.0001
# 3 46.6113 28.7453 87.4081 -0.0007 0.0004 0.0014
# 4 0.0000 -0.0001 -0.0007 21.6278 0.0001 0.0003
# 5 -0.0001 -0.0001 0.0004 0.0001 49.9524 -0.0001
# 6 0.0000 -0.0001 0.0014 0.0003 -0.0001 -39.7224
#
#
#
# Elastic Compliance Matrix: (Units=1/GPa)
#
#
# Indices 1 2 3 4 5 6 
#
# 1 0.010469 -0.005177 -0.003880 0.000000 0.000000 0.000000
# 2 -0.005177 0.019920 -0.003790 0.000000 0.000000 0.000000
# 3 -0.003880 -0.003790 0.014756 0.000000 0.000000 0.000001
# 4 0.000000 0.000000 0.000000 0.046237 0.000000 0.000000
# 5 0.000000 0.000000 0.000000 0.000000 0.020019 0.000000
# 6 0.000000 0.000000 0.000001 0.000000 0.000000 -0.025175
#
#
# Mechanical properties :
#
#
# Convention : Reuss Voigt Hill
#
# Bulk Modulus (GPa) = 51.41303 58.58526 54.99915
# Shear Modulus (GPa) = 42.22830 17.68873 29.95852
#
# Velocity S-wave (km/s) = 4.70085 3.04245 3.95945
# Velocity P-wave (km/s) = 7.50789 6.55741 7.04869
#
# Compressibility (1/GPa) = 0.01945032
#
# Stress axis : x y z
#
# Youngs Moduli (GPa) = 95.52057 50.20154 67.76786
#
# Poissons Ratio (x) = 0.25988 0.26296
# Poissons Ratio (y) = 0.49449 0.25686
# Poissons Ratio (z) = 0.37064 0.19028
#
# Static dielectric constant tensor:
#      x y z
#    x 2.873340 0.000000 0.000000 
#    y 0.000000 3.652960 0.000000 
#    z 0.000000 0.000000 3.460770 
# 
# 
# High freq. dielectric constant tensor:
#      x y z
#    x 1.742810 0.000000 0.000000 
#    y 0.000000 1.736890 0.000000 
#    z 0.000000 0.000000 1.739440 
# 
# From -- ./inp_files/28878.got.cif
#   From: 2010.03.12/outbox.cif.g09.slc.cpg/sg74_15_cif.got.tgz:28878.got - 2010.04.16 15:46:19.
