data_PCOD8300380
_publ_section_title
;
Structure prediction by ZEFSAII (Michael W. Deem and Ramdas Pophale) SiO2 
 PCOD8300380
Probable space group: I M M A
;
_chemical_formula_sum "Si O2"
_cell_formula_units_Z 112
_cell_length_a 22.863500
_cell_length_b 13.892564
_cell_length_c 16.436822
_cell_angle_alpha 90.000000
_cell_angle_beta 90.000000
_cell_angle_gamma 90.000000
_cell_volume 5220.871116
_symmetry_space_group_name_H-M "I M M A"
_symmetry_group_IT_number 74
_symmetry_cell_setting 'orthorhombic'
loop_
_space_group_symop_operation_xyz
x,y,z
-x,1/2-y,z
x,-y,-z
-x,1/2+y,-z
-x,-y,-z
x,1/2+y,-z
-x,y,z
x,1/2-y,z
1/2+x,1/2+y,1/2+z
1/2-x,-y,1/2+z
1/2+x,1/2-y,1/2-z
1/2-x,y,1/2-z
1/2-x,1/2-y,1/2-z
1/2+x,y,1/2-z
1/2-x,1/2+y,1/2+z
1/2+x,-y,1/2+z
loop_
_atom_site_type_symbol
_atom_site_label
_atom_site_fract_x
_atom_site_fract_y
_atom_site_fract_z
Si Si1 0.847693 0.137561 0.631368
Si Si2 0.840859 0.863413 0.824278
Si Si3 0.436518 0.860900 0.998725
Si Si4 0.933300 0.139769 0.779750
Si Si5 0.857240 0.141461 0.359263
Si Si6 0.741649 0.015109 0.090938
Si Si7 0.567278 0.022403 0.409431
O O1 0.833449 0.250000 0.621491
O O2 0.887426 0.094057 0.557839
O O3 0.885423 0.115517 0.711583
O O4 0.784940 0.082792 0.631213
O O5 0.823715 0.750000 0.831262
O O6 0.858202 0.895586 0.733018
O O7 0.897478 0.884409 0.878691
O O8 0.789345 0.935391 0.850964
O O9 0.500000 0.910001 0.011653
O O10 0.440851 0.750000 0.024070
O O11 0.419875 0.871554 0.903236
O O12 0.926379 0.250000 0.808778
O O13 0.000000 0.122609 0.747491
O O14 0.919510 0.072271 0.856321
O O15 0.835972 0.250000 0.358992
O O16 0.811666 0.088153 0.416842
O O17 0.767515 0.000000 0.000000
O O18 0.500000 0.052686 0.406884
O O19 0.588424 0.000000 0.500000
#
# Coordination Sequence:
#
# PCOD8300380 Si02
#       7
#    16  16  16  16  16  16  16
#     4  10  20  36  59  90 130 171 207 253 313 373
#     4  11  25  43  65  89 119 164 213 263 321 383
#     4   9  17  32  57  90 129 168 205 248 304 372
#     4   9  18  35  62  93 125 164 206 250 310 383
#     4  10  21  39  60  86 122 165 211 258 310 371
#     4  12  23  38  60  86 120 164 214 266 311 370
#     4  10  22  42  66  93 124 157 199 261 325 382
#
# _framework density 21.452358
#
# number of rings (size 3 to 8) (size 9 to 14) (size 15 to 20)
#    0.000    1.857    1.429    2.571    0.000    4.857 
#    0.000    5.714    0.000    3.429    0.000    0.000 
#    0.000    0.000    0.000    0.000    0.000    0.000 
#
# Total GULP energy -694095.750366 kJ/mol
# GULP energy per Si atom -12394.566971 kJ/mol
# Density = 2.140353 g / cm^3
# Si number density = 21.452358 Si / 1000 Ang^3
#
#
#
# Elastic Constant Matrix: (Units=GPa)
#
#
# Indices 1 2 3 4 5 6 
#
# 1 87.4928 46.3527 43.2652 0.0000 0.0000 0.0000
# 2 46.3527 101.5407 46.2188 0.0000 0.0000 0.0000
# 3 43.2652 46.2188 130.3752 0.0000 0.0000 0.0000
# 4 0.0000 0.0000 0.0000 18.7076 0.0000 0.0000
# 5 0.0000 0.0000 0.0000 0.0000 24.4195 0.0000
# 6 0.0000 0.0000 0.0000 0.0000 0.0000 27.8769
#
#
#
# Elastic Compliance Matrix: (Units=1/GPa)
#
#
# Indices 1 2 3 4 5 6 
#
# 1 0.016171 -0.005890 -0.003278 0.000000 0.000000 0.000000
# 2 -0.005890 0.013888 -0.002969 0.000000 0.000000 0.000000
# 3 -0.003278 -0.002969 0.009811 0.000000 0.000000 0.000000
# 4 0.000000 0.000000 0.000000 0.053454 0.000000 0.000000
# 5 0.000000 0.000000 0.000000 0.000000 0.040951 0.000000
# 6 0.000000 0.000000 0.000000 0.000000 0.000000 0.035872
#
#
# Mechanical properties :
#
#
# Convention : Reuss Voigt Hill
#
# Bulk Modulus (GPa) = 64.12023 65.67581 64.89802
# Shear Modulus (GPa) = 25.04759 26.43891 25.74325
#
# Velocity S-wave (km/s) = 3.42071 3.51443 3.46789
# Velocity P-wave (km/s) = 6.74953 6.86655 6.80829
#
# Compressibility (1/GPa) = 0.01559570
#
# Stress axis : x y z
#
# Youngs Moduli (GPa) = 61.83905 72.00310 101.93009
#
# Poissons Ratio (x) = 0.42408 0.33417
# Poissons Ratio (y) = 0.36421 0.30263
# Poissons Ratio (z) = 0.20274 0.21378
#
# Static dielectric constant tensor:
#      x y z
#    x 3.951890 0.000000 0.000000 
#    y 0.000000 3.895800 0.000000 
#    z 0.000000 0.000000 3.935340 
# 
# 
# High freq. dielectric constant tensor:
#      x y z
#    x 1.833780 0.000000 0.000000 
#    y 0.000000 1.846570 0.000000 
#    z 0.000000 0.000000 1.843770 
# 
# From -- ./inp_files/36537.got.cif
#   From: 2010.03.12/outbox.cif.g09.slc.cpg/sg74_19_cif.got.tgz:36537.got - 2010.04.16 15:46:19.
