data_PCOD8300872
_publ_section_title
;
Structure prediction by ZEFSAII (Michael W. Deem and Ramdas Pophale) SiO2 
 PCOD8300872
Probable space group: I M M A
;
_chemical_formula_sum "Si O2"
_cell_formula_units_Z 80
_cell_length_a 8.740937
_cell_length_b 23.071920
_cell_length_c 19.580761
_cell_angle_alpha 90.000000
_cell_angle_beta 90.000000
_cell_angle_gamma 90.000000
_cell_volume 3948.855971
_symmetry_space_group_name_H-M "I M M A"
_symmetry_group_IT_number 74
_symmetry_cell_setting 'orthorhombic'
loop_
_space_group_symop_operation_xyz
x,y,z
-x,1/2-y,z
x,-y,-z
-x,1/2+y,-z
-x,-y,-z
x,1/2+y,-z
-x,y,z
x,1/2-y,z
1/2+x,1/2+y,1/2+z
1/2-x,-y,1/2+z
1/2+x,1/2-y,1/2-z
1/2-x,y,1/2-z
1/2-x,1/2-y,1/2-z
1/2+x,y,1/2-z
1/2-x,1/2+y,1/2+z
1/2+x,-y,1/2+z
loop_
_atom_site_type_symbol
_atom_site_label
_atom_site_fract_x
_atom_site_fract_y
_atom_site_fract_z
Si Si1 0.831944 0.183506 0.185177
Si Si2 0.679626 0.632071 0.935768
Si Si3 0.681341 0.684807 0.077645
Si Si4 0.820463 0.511406 0.922578
Si Si5 0.819252 0.915864 0.324725
O O1 0.856724 0.250000 0.203162
O O2 0.750000 0.152582 0.250000
O O3 0.721890 0.180566 0.119352
O O4 0.000000 0.154973 0.172711
O O5 0.500000 0.619594 0.939102
O O6 0.768692 0.576349 0.907183
O O7 0.742931 0.653856 0.008942
O O8 0.500000 0.688959 0.072647
O O9 0.749917 0.750000 0.085379
O O10 0.732685 0.645463 0.141798
O O11 0.735097 0.468258 0.871879
O O12 0.000000 0.503321 0.911927
O O13 0.768653 0.500000 0.000000
O O14 0.750000 0.920974 0.250000
O O15 0.000000 0.919198 0.318929
#
# Coordination Sequence:
#
# PCOD8300872 Si02
#       5
#    16  16  16  16  16
#     4  10  21  37  56  82 119 160 201 247 300 355
#     4  11  21  36  62  91 121 157 203 250 300 362
#     4   9  19  36  60  90 123 161 203 246 297 361
#     4  11  23  40  63  89 121 156 197 247 304 362
#     4  11  23  41  64  91 125 162 206 252 304 361
#
# _framework density 20.259034
#
# number of rings (size 3 to 8) (size 9 to 14) (size 15 to 20)
#    0.000    1.600    2.000    3.000    0.000    4.000 
#    0.000    4.000    0.000    5.400    0.000    0.000 
#    0.000    0.000    0.000    0.000    0.000    0.000 
#
# Total GULP energy -495973.760364 kJ/mol
# GULP energy per Si atom -12399.344009 kJ/mol
# Density = 2.021292 g / cm^3
# Si number density = 20.259034 Si / 1000 Ang^3
#
#
#
# Elastic Constant Matrix: (Units=GPa)
#
#
# Indices 1 2 3 4 5 6 
#
# 1 69.3514 29.6545 52.2841 0.0000 0.0000 0.0000
# 2 29.6545 125.1508 58.2853 0.0000 0.0000 0.0000
# 3 52.2841 58.2853 166.3656 0.0000 0.0000 0.0000
# 4 0.0000 0.0000 0.0000 26.0694 0.0000 0.0000
# 5 0.0000 0.0000 0.0000 0.0000 26.7897 0.0000
# 6 0.0000 0.0000 0.0000 0.0000 0.0000 20.3255
#
#
#
# Elastic Compliance Matrix: (Units=1/GPa)
#
#
# Indices 1 2 3 4 5 6 
#
# 1 0.019345 -0.002094 -0.005346 0.000000 0.000000 0.000000
# 2 -0.002094 0.009775 -0.002766 0.000000 0.000000 0.000000
# 3 -0.005346 -0.002766 0.008660 0.000000 0.000000 0.000000
# 4 0.000000 0.000000 0.000000 0.038359 0.000000 0.000000
# 5 0.000000 0.000000 0.000000 0.000000 0.037328 0.000000
# 6 0.000000 0.000000 0.000000 0.000000 0.000000 0.049199
#
#
# Mechanical properties :
#
#
# Convention : Reuss Voigt Hill
#
# Bulk Modulus (GPa) = 57.58010 71.25729 64.41869
# Shear Modulus (GPa) = 26.47344 29.34651 27.90997
#
# Velocity S-wave (km/s) = 3.61882 3.81013 3.71571
# Velocity P-wave (km/s) = 6.77826 7.38956 7.09050
#
# Compressibility (1/GPa) = 0.01736711
#
# Stress axis : x y z
#
# Youngs Moduli (GPa) = 51.69273 102.30211 115.47112
#
# Poissons Ratio (x) = 0.21423 0.61730
# Poissons Ratio (y) = 0.10825 0.31945
# Poissons Ratio (z) = 0.27635 0.28302
#
# Static dielectric constant tensor:
#      x y z
#    x 3.668130 0.000000 0.000000 
#    y 0.000000 3.749900 0.000000 
#    z 0.000000 0.000000 3.724760 
# 
# 
# High freq. dielectric constant tensor:
#      x y z
#    x 1.784060 0.000000 0.000000 
#    y 0.000000 1.790230 0.000000 
#    z 0.000000 0.000000 1.797590 
# 
# From -- ./inp_files/39746.got.cif
#   From: 2010.03.12/outbox.cif.g09.slc.cpg/sg74_20_cif.got.tgz:39746.got - 2010.04.16 15:46:19.
