data_PCOD8300403
_publ_section_title
;
Structure prediction by ZEFSAII (Michael W. Deem and Ramdas Pophale) SiO2 
 PCOD8300403
Probable space group: I M M A
;
_chemical_formula_sum "Si O2"
_cell_formula_units_Z 68
_cell_length_a 20.456875
_cell_length_b 14.127055
_cell_length_c 11.633426
_cell_angle_alpha 90.000000
_cell_angle_beta 90.000000
_cell_angle_gamma 90.000000
_cell_volume 3362.006580
_symmetry_space_group_name_H-M "I M M A"
_symmetry_group_IT_number 74
_symmetry_cell_setting 'orthorhombic'
loop_
_space_group_symop_operation_xyz
x,y,z
-x,1/2-y,z
x,-y,-z
-x,1/2+y,-z
-x,-y,-z
x,1/2+y,-z
-x,y,z
x,1/2-y,z
1/2+x,1/2+y,1/2+z
1/2-x,-y,1/2+z
1/2+x,1/2-y,1/2-z
1/2-x,y,1/2-z
1/2-x,1/2-y,1/2-z
1/2+x,y,1/2-z
1/2-x,1/2+y,1/2+z
1/2+x,-y,1/2+z
loop_
_atom_site_type_symbol
_atom_site_label
_atom_site_fract_x
_atom_site_fract_y
_atom_site_fract_z
Si Si1 0.319840 0.500000 0.000000
Si Si2 0.500000 0.750000 0.578279
Si Si3 0.675738 0.250000 0.713073
Si Si4 0.000000 0.534054 0.865509
Si Si5 0.627799 0.048483 0.757301
Si Si6 0.216662 0.094293 0.141243
Si Si7 0.359964 0.250000 0.468087
O O1 0.366514 0.524565 0.107084
O O2 0.270344 0.416326 0.040139
O O3 0.500000 0.850268 0.649070
O O4 0.436180 0.750000 0.498278
O O5 0.750000 0.250000 0.750000
O O6 0.632737 0.161086 0.752110
O O7 0.684973 0.250000 0.577514
O O8 0.938315 0.490755 0.798367
O O9 0.000000 0.500000 0.000000
O O10 0.688828 0.006718 0.684833
O O11 0.250000 0.146061 0.250000
O O12 0.154984 0.156007 0.103718
#
# Coordination Sequence:
#
# PCOD8300403 Si02
#       7
#     8   4   8   8  16  16   8
#     4  10  22  41  64  91 132 172 220 276 346 394
#     4  12  24  42  64  98 134 178 222 272 328 398
#     4  12  24  39  64  97 130 169 220 275 338 398
#     4  12  26  45  69  93 138 178 227 279 330 404
#     4  11  24  42  65  95 132 177 221 272 337 396
#     4  10  20  36  60  93 127 167 217 278 335 393
#     4  12  21  36  63  91 132 171 221 271 331 394
#
# _framework density 20.226016000000001
#
# number of rings (size 3 to 8) (size 9 to 14) (size 15 to 20)
#    0.000    0.941    2.353    6.706    1.647    0.941 
#    0.000    2.353    0.000    0.000    0.000    0.000 
#    0.000    0.000    0.000    0.000    0.000    0.000 
#
# Total GULP energy -421296.287244 kJ/mol
# GULP energy per Si atom -12391.067272 kJ/mol
# Density = 2.017998 g / cm^3
# Si number density = 20.226016 Si / 1000 Ang^3
#
#
#
# Elastic Constant Matrix: (Units=GPa)
#
#
# Indices 1 2 3 4 5 6 
#
# 1 142.4463 51.5865 73.9541 0.0000 0.0000 0.0000
# 2 51.5865 150.1093 51.6827 0.0000 0.0000 0.0000
# 3 73.9541 51.6827 144.3544 0.0000 0.0000 0.0000
# 4 0.0000 0.0000 0.0000 15.4655 0.0000 0.0000
# 5 0.0000 0.0000 0.0000 0.0000 45.5808 0.0000
# 6 0.0000 0.0000 0.0000 0.0000 0.0000 33.3120
#
#
#
# Elastic Compliance Matrix: (Units=1/GPa)
#
#
# Indices 1 2 3 4 5 6 
#
# 1 0.010023 -0.001912 -0.004450 0.000000 0.000000 0.000000
# 2 -0.001912 0.007963 -0.001871 0.000000 0.000000 0.000000
# 3 -0.004450 -0.001871 0.009877 0.000000 0.000000 0.000000
# 4 0.000000 0.000000 0.000000 0.064660 0.000000 0.000000
# 5 0.000000 0.000000 0.000000 0.000000 0.021939 0.000000
# 6 0.000000 0.000000 0.000000 0.000000 0.000000 0.030019
#
#
# Mechanical properties :
#
#
# Convention : Reuss Voigt Hill
#
# Bulk Modulus (GPa) = 87.75145 87.92850 87.83998
# Shear Modulus (GPa) = 30.34926 36.18412 33.26669
#
# Velocity S-wave (km/s) = 3.87784 4.23423 4.05995
# Velocity P-wave (km/s) = 7.97056 8.21415 8.09327
#
# Compressibility (1/GPa) = 0.01139582
#
# Stress axis : x y z
#
# Youngs Moduli (GPa) = 99.76841 125.57581 101.24182
#
# Poissons Ratio (x) = 0.24014 0.45056
# Poissons Ratio (y) = 0.19079 0.18946
# Poissons Ratio (z) = 0.44400 0.23500
#
# Static dielectric constant tensor:
#      x y z
#    x 3.736640 0.000000 0.000000 
#    y 0.000000 4.077600 0.000000 
#    z 0.000000 0.000000 3.797400 
# 
# 
# High freq. dielectric constant tensor:
#      x y z
#    x 1.790610 0.000000 0.000000 
#    y 0.000000 1.793710 0.000000 
#    z 0.000000 0.000000 1.790640 
# 
# From -- ./inp_files/23449.got.cif
#   From: 2010.03.12/outbox.cif.g09.slc.cpg/sg74_12_cif.got.tgz:23449.got - 2010.04.16 15:46:19.
