data_PCOD8300463
_publ_section_title
;
Structure prediction by ZEFSAII (Michael W. Deem and Ramdas Pophale) SiO2 
 PCOD8300463
Probable space group: I M M A
;
_chemical_formula_sum "Si O2"
_cell_formula_units_Z 104
_cell_length_a 23.802562
_cell_length_b 8.665346
_cell_length_c 25.295504
_cell_angle_alpha 90.000000
_cell_angle_beta 90.000000
_cell_angle_gamma 90.000000
_cell_volume 5217.385783
_symmetry_space_group_name_H-M "I M M A"
_symmetry_group_IT_number 74
_symmetry_cell_setting 'orthorhombic'
loop_
_space_group_symop_operation_xyz
x,y,z
-x,1/2-y,z
x,-y,-z
-x,1/2+y,-z
-x,-y,-z
x,1/2+y,-z
-x,y,z
x,1/2-y,z
1/2+x,1/2+y,1/2+z
1/2-x,-y,1/2+z
1/2+x,1/2-y,1/2-z
1/2-x,y,1/2-z
1/2-x,1/2-y,1/2-z
1/2+x,y,1/2-z
1/2-x,1/2+y,1/2+z
1/2+x,-y,1/2+z
loop_
_atom_site_type_symbol
_atom_site_label
_atom_site_fract_x
_atom_site_fract_y
_atom_site_fract_z
Si Si1 0.500000 0.430491 0.443096
Si Si2 0.000000 0.432604 0.395029
Si Si3 0.888130 0.568304 0.443733
Si Si4 0.808660 0.933176 0.844876
Si Si5 0.613277 0.068967 0.250930
Si Si6 0.621330 0.067490 0.442152
Si Si7 0.817814 0.569384 0.646308
Si Si8 0.500000 0.569061 0.220972
O O1 0.500000 0.250000 0.449067
O O2 0.500000 0.500000 0.500000
O O3 0.440296 0.481157 0.417460
O O4 0.054120 0.494389 0.424773
O O5 0.000000 0.480600 0.334314
O O6 0.000000 0.250000 0.397797
O O7 0.870776 0.500000 0.500000
O O8 0.895895 0.750000 0.447730
O O9 0.838200 0.527472 0.403726
O O10 0.811559 0.750000 0.842929
O O11 0.845723 0.997146 0.796357
O O12 0.833060 0.995811 0.900562
O O13 0.744609 0.988434 0.838791
O O14 0.601631 0.250000 0.258376
O O15 0.641465 0.033685 0.194845
O O16 0.554541 0.978891 0.254621
O O17 0.625673 0.250000 0.447654
O O18 0.633198 0.000000 0.500000
O O19 0.818164 0.750000 0.631881
O O20 0.500000 0.750000 0.209826
#
# Coordination Sequence:
#
# PCOD8300463 Si02
#       8
#     8   8  16  16  16  16  16   8
#     4   8  14  25  44  68  93 129 167 212 266 327
#     4  12  23  41  65  91 122 159 201 247 305 366
#     4  12  25  41  62  91 125 162 204 251 302 360
#     4   9  19  35  58  87 114 150 199 251 296 351
#     4  10  20  37  62  87 115 154 201 245 296 359
#     4   9  17  31  51  76 108 142 184 232 288 347
#     4  10  20  37  60  85 117 155 200 248 298 354
#     4  12  24  38  60  91 127 160 194 245 305 361
#
# _framework density 19.933354999999999
#
# number of rings (size 3 to 8) (size 9 to 14) (size 15 to 20)
#    0.000    1.846    1.538    3.462    0.000    3.077 
#    0.000    6.154    0.000    5.538    0.000    0.000 
#    0.000    0.000    0.000    0.000    0.000    0.000 
#
# Total GULP energy -644679.252018 kJ/mol
# GULP energy per Si atom -12397.677923 kJ/mol
# Density = 1.988799 g / cm^3
# Si number density = 19.933355 Si / 1000 Ang^3
#
#
#
# Elastic Constant Matrix: (Units=GPa)
#
#
# Indices 1 2 3 4 5 6 
#
# 1 152.4995 44.4190 53.0273 0.0000 0.0000 0.0000
# 2 44.4190 81.1092 40.0985 0.0000 0.0000 0.0000
# 3 53.0273 40.0985 108.7595 0.0000 0.0000 0.0000
# 4 0.0000 0.0000 0.0000 25.6194 0.0000 0.0000
# 5 0.0000 0.0000 0.0000 0.0000 -343.2981 0.0000
# 6 0.0000 0.0000 0.0000 0.0000 0.0000 21.1751
#
#
#
# Elastic Compliance Matrix: (Units=1/GPa)
#
#
# Indices 1 2 3 4 5 6 
#
# 1 0.008524 -0.003196 -0.002978 0.000000 0.000000 0.000000
# 2 -0.003196 0.016275 -0.004442 0.000000 0.000000 0.000000
# 3 -0.002978 -0.004442 0.012284 0.000000 0.000000 0.000000
# 4 0.000000 0.000000 0.000000 0.039033 0.000000 0.000000
# 5 0.000000 0.000000 0.000000 0.000000 -0.002913 0.000000
# 6 0.000000 0.000000 0.000000 0.000000 0.000000 0.047225
#
#
# Mechanical properties :
#
#
# Convention : Reuss Voigt Hill
#
# Bulk Modulus (GPa) = 63.08482 68.60643 65.84562
# Shear Modulus (GPa) = 34.02657 -45.64582 -5.80962
#
# Velocity S-wave (km/s) = 4.13609 -4.79050 -1.70905
# Velocity P-wave (km/s) = 7.38419 1.97334 5.40464
#
# Compressibility (1/GPa) = 0.01585168
#
# Stress axis : x y z
#
# Youngs Moduli (GPa) = 117.32098 61.44211 81.40541
#
# Poissons Ratio (x) = 0.19636 0.24239
# Poissons Ratio (y) = 0.37495 0.36163
# Poissons Ratio (z) = 0.34933 0.27295
#
# Static dielectric constant tensor:
#      x y z
#    x 3.718360 0.000000 0.000000 
#    y 0.000000 3.396770 0.000000 
#    z 0.000000 0.000000 3.686380 
# 
# 
# High freq. dielectric constant tensor:
#      x y z
#    x 1.794730 0.000000 0.000000 
#    y 0.000000 1.752860 0.000000 
#    z 0.000000 0.000000 1.776000 
# 
# From -- ./inp_files/68293.got.cif
#   From: 2010.03.12/outbox.cif.g09.slc.cpg/sg74_35_cif.got.tgz:68293.got - 2010.04.16 15:46:19.
