data_PCOD8300852
_publ_section_title
;
Structure prediction by ZEFSAII (Michael W. Deem and Ramdas Pophale) SiO2 
 PCOD8300852
Probable space group: I M M A
;
_chemical_formula_sum "Si O2"
_cell_formula_units_Z 72
_cell_length_a 9.812384
_cell_length_b 25.453758
_cell_length_c 15.740856
_cell_angle_alpha 90.000000
_cell_angle_beta 90.000000
_cell_angle_gamma 90.000000
_cell_volume 3931.468428
_symmetry_space_group_name_H-M "I M M A"
_symmetry_group_IT_number 74
_symmetry_cell_setting 'orthorhombic'
loop_
_space_group_symop_operation_xyz
x,y,z
-x,1/2-y,z
x,-y,-z
-x,1/2+y,-z
-x,-y,-z
x,1/2+y,-z
-x,y,z
x,1/2-y,z
1/2+x,1/2+y,1/2+z
1/2-x,-y,1/2+z
1/2+x,1/2-y,1/2-z
1/2-x,y,1/2-z
1/2-x,1/2-y,1/2-z
1/2+x,y,1/2-z
1/2-x,1/2+y,1/2+z
1/2+x,-y,1/2+z
loop_
_atom_site_type_symbol
_atom_site_label
_atom_site_fract_x
_atom_site_fract_y
_atom_site_fract_z
Si Si1 0.500000 0.309804 0.551611
Si Si2 0.228510 0.807129 0.347837
Si Si3 0.282656 0.462157 0.341537
Si Si4 0.500000 0.500585 0.902415
Si Si5 0.500000 0.051264 0.652467
Si Si6 0.500000 0.112031 0.820290
Si Si7 0.500000 0.408817 0.457795
O O1 0.500000 0.250000 0.520533
O O2 0.631645 0.323590 0.607518
O O3 0.500000 0.345904 0.467551
O O4 0.176348 0.750000 0.384216
O O5 0.250000 0.797460 0.250000
O O6 0.126988 0.855598 0.357057
O O7 0.250000 0.436082 0.250000
O O8 0.364926 0.516836 0.328694
O O9 0.366660 0.424834 0.404866
O O10 0.134613 0.468653 0.378940
O O11 0.500000 0.443605 0.863114
O O12 0.500000 0.500000 0.000000
O O13 0.500000 0.101407 0.717478
O O14 0.500000 0.066893 0.553093
#
# Coordination Sequence:
#
# PCOD8300852 Si02
#       7
#     8  16  16   8   8   8   8
#     4  10  23  40  61  86 112 145 201 255 288 342
#     4  10  21  37  55  82 116 156 201 238 279 333
#     4  11  22  41  56  83 117 154 190 239 285 343
#     4  12  25  36  53  83 122 150 197 239 276 340
#     4  11  22  38  55  86 121 161 199 228 275 340
#     4  12  24  34  59  82 125 163 194 240 288 335
#     4  11  23  38  67  82 113 156 196 231 295 356
#
# _framework density 18.313768
#
# number of rings (size 3 to 8) (size 9 to 14) (size 15 to 20)
#    0.000    1.111    2.222    5.667    9.333    1.778 
#    0.000    0.000    0.000    0.667    0.000    0.000 
#    0.000    0.000    0.000    0.000    0.000    0.000 
#
# Total GULP energy -446082.435498 kJ/mol
# GULP energy per Si atom -12391.178764 kJ/mol
# Density = 1.827209 g / cm^3
# Si number density = 18.313768 Si / 1000 Ang^3
#
#
#
# Elastic Constant Matrix: (Units=GPa)
#
#
# Indices 1 2 3 4 5 6 
#
# 1 164.0827 63.1830 62.6040 0.0000 0.0000 0.0000
# 2 63.1830 101.0600 56.2630 -0.0001 0.0000 0.0000
# 3 62.6040 56.2630 136.8542 -0.0002 0.0001 -0.0001
# 4 0.0000 -0.0001 -0.0002 36.2430 0.0000 0.0000
# 5 0.0000 0.0000 0.0001 0.0000 36.8681 0.0000
# 6 0.0000 0.0000 -0.0001 0.0000 0.0000 20.2032
#
#
#
# Elastic Compliance Matrix: (Units=1/GPa)
#
#
# Indices 1 2 3 4 5 6 
#
# 1 0.008514 -0.004091 -0.002213 0.000000 0.000000 0.000000
# 2 -0.004091 0.014798 -0.004212 0.000000 0.000000 0.000000
# 3 -0.002213 -0.004212 0.010051 0.000000 0.000000 0.000000
# 4 0.000000 0.000000 0.000000 0.027592 0.000000 0.000000
# 5 0.000000 0.000000 0.000000 0.000000 0.027124 0.000000
# 6 0.000000 0.000000 0.000000 0.000000 0.000000 0.049497
#
#
# Mechanical properties :
#
#
# Convention : Reuss Voigt Hill
#
# Bulk Modulus (GPa) = 81.09801 85.12187 83.10994
# Shear Modulus (GPa) = 30.72798 33.32598 32.02698
#
# Velocity S-wave (km/s) = 4.10062 4.27045 4.18639
# Velocity P-wave (km/s) = 8.17305 8.41999 8.29744
#
# Compressibility (1/GPa) = 0.01233076
#
# Stress axis : x y z
#
# Youngs Moduli (GPa) = 117.45180 67.57700 99.49220
#
# Poissons Ratio (x) = 0.27646 0.22016
# Poissons Ratio (y) = 0.48051 0.41908
# Poissons Ratio (z) = 0.25991 0.28465
#
# Static dielectric constant tensor:
#      x y z
#    x 3.471130 0.000000 0.000000 
#    y 0.000000 3.525170 0.000000 
#    z 0.000000 0.000000 3.575410 
# 
# 
# High freq. dielectric constant tensor:
#      x y z
#    x 1.729570 0.000000 0.000000 
#    y 0.000000 1.697570 0.000000 
#    z 0.000000 0.000000 1.694840 
# 
# From -- ./inp_files/29268.got.cif
#   From: 2010.03.12/outbox.cif.g09.slc.cpg/sg74_15_cif.got.tgz:29268.got - 2010.04.16 15:46:19.
