data_PCOD8300605
_publ_section_title
;
Structure prediction by ZEFSAII (Michael W. Deem and Ramdas Pophale) SiO2 
 PCOD8300605
Probable space group: I M M A
;
_chemical_formula_sum "Si O2"
_cell_formula_units_Z 48
_cell_length_a 7.459137
_cell_length_b 9.082273
_cell_length_c 37.845712
_cell_angle_alpha 90.000000
_cell_angle_beta 90.000000
_cell_angle_gamma 90.000000
_cell_volume 2563.892524
_symmetry_space_group_name_H-M "I M M A"
_symmetry_group_IT_number 74
_symmetry_cell_setting 'orthorhombic'
loop_
_space_group_symop_operation_xyz
x,y,z
-x,1/2-y,z
x,-y,-z
-x,1/2+y,-z
-x,-y,-z
x,1/2+y,-z
-x,y,z
x,1/2-y,z
1/2+x,1/2+y,1/2+z
1/2-x,-y,1/2+z
1/2+x,1/2-y,1/2-z
1/2-x,y,1/2-z
1/2-x,1/2-y,1/2-z
1/2+x,y,1/2-z
1/2-x,1/2+y,1/2+z
1/2+x,-y,1/2+z
loop_
_atom_site_type_symbol
_atom_site_label
_atom_site_fract_x
_atom_site_fract_y
_atom_site_fract_z
Si Si1 0.000000 0.075550 0.664911
Si Si2 0.296969 0.921611 0.535258
Si Si3 0.500000 0.422342 0.090659
Si Si4 0.207629 0.420078 0.210305
O O1 0.000000 0.250000 0.665962
O O2 0.178656 0.017791 0.683706
O O3 0.000000 0.021262 0.625029
O O4 0.500000 0.970219 0.544132
O O5 0.282041 0.750000 0.527584
O O6 0.175716 0.965780 0.568425
O O7 0.225915 0.000000 0.500000
O O8 0.500000 0.250000 0.100893
O O9 0.263349 0.250000 0.205545
O O10 0.250000 0.471585 0.250000
O O11 0.000000 0.445029 0.201460
#
# Coordination Sequence:
#
# PCOD8300605 Si02
#       4
#     8  16   8  16
#     4  12  26  39  55  86 125 156 188 238 299 351
#     4   9  18  33  55  82 109 141 184 233 283 334
#     4  10  21  37  55  76 110 152 196 234 272 335
#     4  10  20  39  66  88 109 144 193 239 281 342
#
# _framework density 18.721533999999998
#
# number of rings (size 3 to 8) (size 9 to 14) (size 15 to 20)
#    0.000    2.000    1.667    2.000    0.000    4.000 
#    0.000    3.333    0.000    0.000    0.000    0.000 
#    0.000    0.000    0.000    0.000    0.000    0.000 
#
# Total GULP energy -297688.868384 kJ/mol
# GULP energy per Si atom -12403.702849 kJ/mol
# Density = 1.867892 g / cm^3
# Si number density = 18.721534 Si / 1000 Ang^3
#
#
#
# Elastic Constant Matrix: (Units=GPa)
#
#
# Indices 1 2 3 4 5 6 
#
# 1 119.4977 54.5663 75.0557 0.0000 0.0000 0.0000
# 2 54.5663 89.2680 78.0066 0.0000 0.0000 0.0000
# 3 75.0557 78.0066 157.5030 0.0000 0.0000 0.0000
# 4 0.0000 0.0000 0.0000 31.6758 0.0000 0.0000
# 5 0.0000 0.0000 0.0000 0.0000 25.5086 0.0000
# 6 0.0000 0.0000 0.0000 0.0000 0.0000 26.6933
#
#
#
# Elastic Compliance Matrix: (Units=1/GPa)
#
#
# Indices 1 2 3 4 5 6 
#
# 1 0.012861 -0.004418 -0.003941 0.000000 0.000000 0.000000
# 2 -0.004418 0.021267 -0.008428 0.000000 0.000000 0.000000
# 3 -0.003941 -0.008428 0.012401 0.000000 0.000000 0.000000
# 4 0.000000 0.000000 0.000000 0.031570 0.000000 0.000000
# 5 0.000000 0.000000 0.000000 0.000000 0.039202 0.000000
# 6 0.000000 0.000000 0.000000 0.000000 0.000000 0.037463
#
#
# Mechanical properties :
#
#
# Convention : Reuss Voigt Hill
#
# Bulk Modulus (GPa) = 77.18106 86.83620 82.00863
# Shear Modulus (GPa) = 25.95311 27.35155 26.65233
#
# Velocity S-wave (km/s) = 3.72730 3.82641 3.77718
# Velocity P-wave (km/s) = 7.73557 8.12438 7.93236
#
# Compressibility (1/GPa) = 0.01295655
#
# Stress axis : x y z
#
# Youngs Moduli (GPa) = 77.75611 47.02052 80.63907
#
# Poissons Ratio (x) = 0.20773 0.31776
# Poissons Ratio (y) = 0.34352 0.67961
# Poissons Ratio (z) = 0.30640 0.39628
#
# Static dielectric constant tensor:
#      x y z
#    x 3.339680 0.000000 0.000000 
#    y 0.000000 3.299560 0.000000 
#    z 0.000000 0.000000 3.407700 
# 
# 
# High freq. dielectric constant tensor:
#      x y z
#    x 1.744300 0.000000 0.000000 
#    y 0.000000 1.712960 0.000000 
#    z 0.000000 0.000000 1.725430 
# 
# From -- ./inp_files/69517.got.cif
#   From: 2010.03.12/outbox.cif.g09.slc.cpg/sg74_35_cif.got.tgz:69517.got - 2010.04.16 15:46:19.
