data_PCOD8300514
_publ_section_title
;
Structure prediction by ZEFSAII (Michael W. Deem and Ramdas Pophale) SiO2 
 PCOD8300514
Probable space group: I M M A
;
_chemical_formula_sum "Si O2"
_cell_formula_units_Z 68
_cell_length_a 9.235891
_cell_length_b 15.856871
_cell_length_c 24.667256
_cell_angle_alpha 90.000000
_cell_angle_beta 90.000000
_cell_angle_gamma 90.000000
_cell_volume 3612.577169
_symmetry_space_group_name_H-M "I M M A"
_symmetry_group_IT_number 74
_symmetry_cell_setting 'orthorhombic'
loop_
_space_group_symop_operation_xyz
x,y,z
-x,1/2-y,z
x,-y,-z
-x,1/2+y,-z
-x,-y,-z
x,1/2+y,-z
-x,y,z
x,1/2-y,z
1/2+x,1/2+y,1/2+z
1/2-x,-y,1/2+z
1/2+x,1/2-y,1/2-z
1/2-x,y,1/2-z
1/2-x,1/2-y,1/2-z
1/2+x,y,1/2-z
1/2-x,1/2+y,1/2+z
1/2+x,-y,1/2+z
loop_
_atom_site_type_symbol
_atom_site_label
_atom_site_fract_x
_atom_site_fract_y
_atom_site_fract_z
Si Si1 0.000000 0.072979 0.336109
Si Si2 0.256678 0.955902 0.143558
Si Si3 0.000000 0.979429 0.222520
Si Si4 0.834157 0.913532 0.026407
Si Si5 0.160808 0.250000 0.488433
Si Si6 0.500000 0.848277 0.193821
Si Si7 0.500000 0.750000 0.883621
O O1 0.000000 0.172585 0.342204
O O2 0.139724 0.035838 0.367332
O O3 0.000000 0.045520 0.272727
O O4 0.174445 0.923541 0.090790
O O5 0.354167 0.878502 0.164201
O O6 0.143108 0.990467 0.187268
O O7 0.000000 0.884379 0.245363
O O8 0.742554 0.834109 0.006476
O O9 0.000000 0.897912 0.009174
O O10 0.774382 0.000000 0.000000
O O11 0.000000 0.250000 0.515709
O O12 0.142063 0.250000 0.422778
O O13 0.500000 0.750000 0.197070
#
# Coordination Sequence:
#
# PCOD8300514 Si02
#       7
#     8  16   8  16   8   8   4
#     4  10  20  37  65  83 120 152 204 246 306 357
#     4  10  21  37  59  85 117 156 195 243 297 351
#     4  10  20  40  56  87 117 159 192 248 288 356
#     4  11  23  40  62  88 121 163 205 249 311 370
#     4  10  25  39  60  90 130 151 206 260 303 367
#     4  10  22  35  55  81 120 150 195 234 284 345
#     4  10  22  40  64  92 114 158 196 260 312 350
#
# _framework density 18.823126999999999
#
# number of rings (size 3 to 8) (size 9 to 14) (size 15 to 20)
#    0.353    1.647    1.176    4.588    4.941    2.353 
#    0.000    2.353    0.000    0.000    0.000    0.000 
#    0.000    0.000    0.000    0.000    0.000    0.000 
#
# Total GULP energy -421468.141719 kJ/mol
# GULP energy per Si atom -12396.121815 kJ/mol
# Density = 1.878028 g / cm^3
# Si number density = 18.823127 Si / 1000 Ang^3
#
#
#
# Elastic Constant Matrix: (Units=GPa)
#
#
# Indices 1 2 3 4 5 6 
#
# 1 108.2479 61.7462 33.8569 0.0000 0.0000 0.0000
# 2 61.7462 182.4239 48.3369 0.0000 0.0000 0.0000
# 3 33.8569 48.3369 92.6675 0.0000 0.0000 0.0000
# 4 0.0000 0.0000 0.0000 18.6372 0.0000 0.0000
# 5 0.0000 0.0000 0.0000 0.0000 24.1821 0.0000
# 6 0.0000 0.0000 0.0000 0.0000 0.0000 27.4336
#
#
#
# Elastic Compliance Matrix: (Units=1/GPa)
#
#
# Indices 1 2 3 4 5 6 
#
# 1 0.011974 -0.003358 -0.002623 0.000000 0.000000 0.000000
# 2 -0.003358 0.007303 -0.002582 0.000000 0.000000 0.000000
# 3 -0.002623 -0.002582 0.013097 0.000000 0.000000 0.000000
# 4 0.000000 0.000000 0.000000 0.053656 0.000000 0.000000
# 5 0.000000 0.000000 0.000000 0.000000 0.041353 0.000000
# 6 0.000000 0.000000 0.000000 0.000000 0.000000 0.036452
#
#
# Mechanical properties :
#
#
# Convention : Reuss Voigt Hill
#
# Bulk Modulus (GPa) = 65.58968 74.57993 70.08480
# Shear Modulus (GPa) = 26.87558 30.01053 28.44306
#
# Velocity S-wave (km/s) = 3.78272 3.99726 3.89147
# Velocity P-wave (km/s) = 7.34844 7.81099 7.58324
#
# Compressibility (1/GPa) = 0.01524630
#
# Stress axis : x y z
#
# Youngs Moduli (GPa) = 83.51516 136.93932 76.35515
#
# Poissons Ratio (x) = 0.45981 0.20030
# Poissons Ratio (y) = 0.28043 0.19717
# Poissons Ratio (z) = 0.21908 0.35362
#
# Static dielectric constant tensor:
#      x y z
#    x 3.473680 0.000000 0.000000 
#    y 0.000000 3.284010 0.000000 
#    z 0.000000 0.000000 3.415470 
# 
# 
# High freq. dielectric constant tensor:
#      x y z
#    x 1.743410 0.000000 0.000000 
#    y 0.000000 1.721340 0.000000 
#    z 0.000000 0.000000 1.729180 
# 
# From -- ./inp_files/63579.got.cif
#   From: 2010.03.12/outbox.cif.g09.slc.cpg/sg74_32_cif.got.tgz:63579.got - 2010.04.16 15:46:19.
