data_PCOD8300125
_publ_section_title
;
Structure prediction by ZEFSAII (Michael W. Deem and Ramdas Pophale) SiO2 
 PCOD8300125
Probable space group: I M M A
;
_chemical_formula_sum "Si O2"
_cell_formula_units_Z 80
_cell_length_a 24.714427
_cell_length_b 8.844833
_cell_length_c 20.006133
_cell_angle_alpha 90.000000
_cell_angle_beta 90.000000
_cell_angle_gamma 90.000000
_cell_volume 4373.240233
_symmetry_space_group_name_H-M "I M M A"
_symmetry_group_IT_number 74
_symmetry_cell_setting 'orthorhombic'
loop_
_space_group_symop_operation_xyz
x,y,z
-x,1/2-y,z
x,-y,-z
-x,1/2+y,-z
-x,-y,-z
x,1/2+y,-z
-x,y,z
x,1/2-y,z
1/2+x,1/2+y,1/2+z
1/2-x,-y,1/2+z
1/2+x,1/2-y,1/2-z
1/2-x,y,1/2-z
1/2-x,1/2-y,1/2-z
1/2+x,y,1/2-z
1/2-x,1/2+y,1/2+z
1/2+x,-y,1/2+z
loop_
_atom_site_type_symbol
_atom_site_label
_atom_site_fract_x
_atom_site_fract_y
_atom_site_fract_z
Si Si1 0.563466 0.574959 0.430949
Si Si2 0.745682 0.916803 0.329202
Si Si3 0.636199 0.570865 0.178053
Si Si4 0.138221 0.072034 0.177527
Si Si5 0.563791 0.576283 0.931502
O O1 0.582555 0.500000 0.500000
O O2 0.500000 0.551781 0.419839
O O3 0.579744 0.750000 0.432398
O O4 0.592696 0.492386 0.370530
O O5 0.732052 0.750000 0.357954
O O6 0.750000 0.907752 0.250000
O O7 0.804972 0.971974 0.353916
O O8 0.697951 0.029870 0.350901
O O9 0.631331 0.750000 0.187196
O O10 0.627897 0.495964 0.249801
O O11 0.590010 0.510803 0.129927
O O12 0.132925 0.250000 0.181398
O O13 0.500000 0.559935 0.922864
O O14 0.582280 0.750000 0.931800
O O15 0.583528 0.500000 0.000000
#
# Coordination Sequence:
#
# PCOD8300125 Si02
#       5
#    16  16  16  16  16
#     4  10  21  38  58  78 104 139 176 216 264 315
#     4   8  16  32  52  75 105 139 174 213 260 311
#     4  10  20  35  56  80 107 140 177 219 263 308
#     4  11  21  33  54  82 110 140 175 216 260 310
#     4  10  21  37  56  78 106 140 176 216 264 317
#
# _framework density 18.293073
#
# number of rings (size 3 to 8) (size 9 to 14) (size 15 to 20)
#    0.000    2.200    0.000    4.800    0.000    7.600 
#    0.000    1.000    0.000    4.800    0.000    0.000 
#    0.000    0.000    0.000    0.000    0.000    0.000 
#
# Total GULP energy -495983.391526 kJ/mol
# GULP energy per Si atom -12399.584788 kJ/mol
# Density = 1.825144 g / cm^3
# Si number density = 18.293073 Si / 1000 Ang^3
#
#
#
# Elastic Constant Matrix: (Units=GPa)
#
#
# Indices 1 2 3 4 5 6 
#
# 1 62.0091 55.9514 51.2854 0.0000 0.0000 0.0000
# 2 55.9514 152.4020 67.5578 0.0000 0.0000 0.0000
# 3 51.2854 67.5578 98.8499 0.0000 0.0000 0.0000
# 4 0.0000 0.0000 0.0000 32.8909 0.0000 0.0000
# 5 0.0000 0.0000 0.0000 0.0000 2.4047 0.0000
# 6 0.0000 0.0000 0.0000 0.0000 0.0000 28.6732
#
#
#
# Elastic Compliance Matrix: (Units=1/GPa)
#
#
# Indices 1 2 3 4 5 6 
#
# 1 0.031960 -0.006288 -0.012284 0.000000 0.000000 0.000000
# 2 -0.006288 0.010651 -0.004017 0.000000 0.000000 0.000000
# 3 -0.012284 -0.004017 0.019235 0.000000 0.000000 0.000000
# 4 0.000000 0.000000 0.000000 0.030404 0.000000 0.000000
# 5 0.000000 0.000000 0.000000 0.000000 0.415853 0.000000
# 6 0.000000 0.000000 0.000000 0.000000 0.000000 0.034876
#
#
# Mechanical properties :
#
#
# Convention : Reuss Voigt Hill
#
# Bulk Modulus (GPa) = 59.99572 73.65004 66.82288
# Shear Modulus (GPa) = 8.42159 22.02484 15.22322
#
# Velocity S-wave (km/s) = 2.14795 3.47363 2.88789
# Velocity P-wave (km/s) = 6.24658 7.51244 6.90856
#
# Compressibility (1/GPa) = 0.01666786
#
# Stress axis : x y z
#
# Youngs Moduli (GPa) = 31.28882 93.89033 51.98941
#
# Poissons Ratio (x) = 0.59041 0.63864
# Poissons Ratio (y) = 0.19675 0.20882
# Poissons Ratio (z) = 0.38435 0.37712
#
# Static dielectric constant tensor:
#      x y z
#    x 3.709780 0.000000 0.000000 
#    y 0.000000 3.529990 0.000000 
#    z 0.000000 0.000000 3.157250 
# 
# 
# High freq. dielectric constant tensor:
#      x y z
#    x 1.715540 0.000000 0.000000 
#    y 0.000000 1.722930 0.000000 
#    z 0.000000 0.000000 1.688490 
# 
# From -- ./inp_files/46484.got.cif
#   From: 2010.03.12/outbox.cif.g09.slc.cpg/sg74_24_cif.got.tgz:46484.got - 2010.04.16 15:46:19.
