data_PCOD8300189
_publ_section_title
;
Structure prediction by ZEFSAII (Michael W. Deem and Ramdas Pophale) SiO2 
 PCOD8300189
Probable space group: I M M A
;
_chemical_formula_sum "Si O2"
_cell_formula_units_Z 112
_cell_length_a 25.591777
_cell_length_b 14.197604
_cell_length_c 13.909444
_cell_angle_alpha 90.000000
_cell_angle_beta 90.000000
_cell_angle_gamma 90.000000
_cell_volume 5053.884027
_symmetry_space_group_name_H-M "I M M A"
_symmetry_group_IT_number 74
_symmetry_cell_setting 'orthorhombic'
loop_
_space_group_symop_operation_xyz
x,y,z
-x,1/2-y,z
x,-y,-z
-x,1/2+y,-z
-x,-y,-z
x,1/2+y,-z
-x,y,z
x,1/2-y,z
1/2+x,1/2+y,1/2+z
1/2-x,-y,1/2+z
1/2+x,1/2-y,1/2-z
1/2-x,y,1/2-z
1/2-x,1/2-y,1/2-z
1/2+x,y,1/2-z
1/2-x,1/2+y,1/2+z
1/2+x,-y,1/2+z
loop_
_atom_site_type_symbol
_atom_site_label
_atom_site_fract_x
_atom_site_fract_y
_atom_site_fract_z
Si Si1 0.751215 0.861988 0.641755
Si Si2 0.394244 0.855776 0.153049
Si Si3 0.639590 0.139676 0.059690
Si Si4 0.699610 0.643043 0.299302
Si Si5 0.559107 0.640185 0.602540
Si Si6 0.662282 0.361186 0.499352
Si Si7 0.441666 0.457297 0.197926
O O1 0.750859 0.750000 0.644328
O O2 0.750000 0.902762 0.750000
O O3 0.803112 0.898303 0.587681
O O4 0.700138 0.898756 0.585079
O O5 0.418310 0.750000 0.150134
O O6 0.346940 0.860681 0.225544
O O7 0.437640 0.929210 0.189552
O O8 0.371820 0.886544 0.049999
O O9 0.635465 0.250000 0.078698
O O10 0.597266 0.090124 0.124867
O O11 0.716045 0.750000 0.323954
O O12 0.750000 0.592345 0.250000
O O13 0.681427 0.593699 0.399323
O O14 0.500000 0.622134 0.563308
O O15 0.566144 0.750000 0.630858
O O16 0.601979 0.609991 0.522602
O O17 0.570995 0.576966 0.695101
O O18 0.665489 0.250000 0.507871
O O19 0.500000 0.426812 0.169173
#
# Coordination Sequence:
#
# PCOD8300189 Si02
#       7
#    16  16  16  16  16  16  16
#     4   9  16  27  49  84 121 150 177 218 278 346
#     4  10  22  39  57  79 110 148 190 235 282 336
#     4  10  20  35  57  85 116 148 183 228 286 348
#     4   9  17  33  58  84 112 151 197 238 279 334
#     4   9  18  34  57  86 119 153 191 238 292 348
#     4   9  16  29  54  86 119 156 194 233 284 344
#     4  11  23  39  59  82 110 146 190 241 294 348
#
# _framework density 22.161173000000002
#
# number of rings (size 3 to 8) (size 9 to 14) (size 15 to 20)
#    0.000    2.429    0.000    2.571    0.000    8.000 
#    0.000    5.000    0.000    4.286    0.000    0.000 
#    0.000    0.000    0.000    0.000    0.000    0.000 
#
# Total GULP energy -694254.399928 kJ/mol
# GULP energy per Si atom -12397.399999 kJ/mol
# Density = 2.211073 g / cm^3
# Si number density = 22.161173 Si / 1000 Ang^3
#
#
#
# Elastic Constant Matrix: (Units=GPa)
#
#
# Indices 1 2 3 4 5 6 
#
# 1 153.1671 36.7500 96.2256 0.0000 0.0000 0.0000
# 2 36.7500 35.2486 14.8029 0.0000 0.0000 0.0000
# 3 96.2256 14.8029 152.8648 0.0000 0.0000 0.0000
# 4 0.0000 0.0000 0.0000 38.4301 0.0000 0.0000
# 5 0.0000 0.0000 0.0000 0.0000 31.2272 0.0000
# 6 0.0000 0.0000 0.0000 0.0000 0.0000 -8.9303
#
#
#
# Elastic Compliance Matrix: (Units=1/GPa)
#
#
# Indices 1 2 3 4 5 6 
#
# 1 0.014216 -0.011533 -0.007832 0.000000 0.000000 0.000000
# 2 -0.011533 0.038928 0.003490 0.000000 0.000000 0.000000
# 3 -0.007832 0.003490 0.011134 0.000000 0.000000 0.000000
# 4 0.000000 0.000000 0.000000 0.026021 0.000000 0.000000
# 5 0.000000 0.000000 0.000000 0.000000 0.032023 0.000000
# 6 0.000000 0.000000 0.000000 0.000000 0.000000 -0.111979
#
#
# Mechanical properties :
#
#
# Convention : Reuss Voigt Hill
#
# Bulk Modulus (GPa) = 30.74206 70.75973 50.75090
# Shear Modulus (GPa) = 94.45121 25.04555 59.74838
#
# Velocity S-wave (km/s) = 6.53549 3.36542 5.19802
# Velocity P-wave (km/s) = 8.41738 6.86297 7.67961
#
# Compressibility (1/GPa) = 0.03252873
#
# Stress axis : x y z
#
# Youngs Moduli (GPa) = 70.34132 25.68830 89.81514
#
# Poissons Ratio (x) = 0.29626 0.70345
# Poissons Ratio (y) = 0.81123 -0.31345
# Poissons Ratio (z) = 0.55093 -0.08965
#
# Static dielectric constant tensor:
#      x y z
#    x 4.400410 0.000000 0.000000 
#    y 0.000000 3.985700 0.000000 
#    z 0.000000 0.000000 4.384500 
# 
# 
# High freq. dielectric constant tensor:
#      x y z
#    x 1.871390 0.000000 0.000000 
#    y 0.000000 1.862180 0.000000 
#    z 0.000000 0.000000 1.874690 
# 
# From -- ./inp_files/32713.got.cif
#   From: 2010.03.12/outbox.cif.g09.slc.cpg/sg74_17_cif.got.tgz:32713.got - 2010.04.16 15:46:19.
