data_PCOD8300855
_publ_section_title
;
Structure prediction by ZEFSAII (Michael W. Deem and Ramdas Pophale) SiO2 
 PCOD8300855
Probable space group: I M M A
;
_chemical_formula_sum "Si O2"
_cell_formula_units_Z 112
_cell_length_a 19.211380
_cell_length_b 10.165486
_cell_length_c 28.154596
_cell_angle_alpha 90.000000
_cell_angle_beta 90.000000
_cell_angle_gamma 90.000000
_cell_volume 5498.395923
_symmetry_space_group_name_H-M "I M M A"
_symmetry_group_IT_number 74
_symmetry_cell_setting 'orthorhombic'
loop_
_space_group_symop_operation_xyz
x,y,z
-x,1/2-y,z
x,-y,-z
-x,1/2+y,-z
-x,-y,-z
x,1/2+y,-z
-x,y,z
x,1/2-y,z
1/2+x,1/2+y,1/2+z
1/2-x,-y,1/2+z
1/2+x,1/2-y,1/2-z
1/2-x,y,1/2-z
1/2-x,1/2-y,1/2-z
1/2+x,y,1/2-z
1/2-x,1/2+y,1/2+z
1/2+x,-y,1/2+z
loop_
_atom_site_type_symbol
_atom_site_label
_atom_site_fract_x
_atom_site_fract_y
_atom_site_fract_z
Si Si1 0.778868 0.397081 0.363353
Si Si2 0.575869 0.904198 0.600338
Si Si3 0.791843 0.906414 0.956785
Si Si4 0.418433 0.607000 0.035637
Si Si5 0.922761 0.495981 0.639077
Si Si6 0.078594 0.396574 0.740300
Si Si7 0.846111 0.905060 0.804543
O O1 0.750379 0.250000 0.367442
O O2 0.759907 0.456425 0.414816
O O3 0.861246 0.398561 0.353137
O O4 0.732241 0.452628 0.319589
O O5 0.500000 0.971081 0.591584
O O6 0.567241 0.750000 0.599553
O O7 0.629655 0.944430 0.559145
O O8 0.603531 0.944074 0.652170
O O9 0.784485 0.750000 0.968945
O O10 0.771188 0.000000 0.000000
O O11 0.500000 0.611226 0.025320
O O12 0.385906 0.750000 0.023311
O O13 0.405016 0.579849 0.090858
O O14 0.383770 0.500000 0.000000
O O15 0.919466 0.396109 0.682923
O O16 0.000000 0.563096 0.636072
O O17 0.100880 0.250000 0.756901
O O18 0.130532 0.507562 0.759851
O O19 0.000000 0.428019 0.757398
O O20 0.850112 0.750000 0.790466
#
# Coordination Sequence:
#
# PCOD8300855 Si02
#       7
#    16  16  16  16  16  16  16
#     4   9  20  38  56  77 108 144 182 228 277 321
#     4   8  14  27  50  78 107 141 179 217 259 311
#     4   9  18  34  54  76 106 141 176 218 268 320
#     4   9  18  34  55  77 102 133 170 214 266 324
#     4  10  21  37  56  78 107 143 180 220 274 336
#     4  10  21  37  57  83 116 147 175 217 270 320
#     4   9  18  35  58  81 108 145 188 227 264 317
#
# _framework density 20.369577
#
# number of rings (size 3 to 8) (size 9 to 14) (size 15 to 20)
#    0.000    2.857    0.000    2.571    0.000    5.429 
#    0.000   12.143    0.000    0.857    0.000    0.000 
#    0.000    0.000    0.000    0.000    0.000    0.000 
#
# Total GULP energy -693763.047722 kJ/mol
# GULP energy per Si atom -12388.625852 kJ/mol
# Density = 2.032321 g / cm^3
# Si number density = 20.369577 Si / 1000 Ang^3
#
#
#
# Elastic Constant Matrix: (Units=GPa)
#
#
# Indices 1 2 3 4 5 6 
#
# 1 133.2909 33.9962 34.8974 0.0000 0.0000 0.0000
# 2 33.9962 94.8902 58.2786 0.0000 0.0000 0.0000
# 3 34.8974 58.2786 110.9255 0.0000 0.0000 0.0000
# 4 0.0000 0.0000 0.0000 24.6087 0.0000 0.0000
# 5 0.0000 0.0000 0.0000 0.0000 20.8051 0.0000
# 6 0.0000 0.0000 0.0000 0.0000 0.0000 16.5316
#
#
#
# Elastic Compliance Matrix: (Units=1/GPa)
#
#
# Indices 1 2 3 4 5 6 
#
# 1 0.008439 -0.002056 -0.001575 0.000000 0.000000 0.000000
# 2 -0.002056 0.016060 -0.007791 0.000000 0.000000 0.000000
# 3 -0.001575 -0.007791 0.013604 0.000000 0.000000 0.000000
# 4 0.000000 0.000000 0.000000 0.040636 0.000000 0.000000
# 5 0.000000 0.000000 0.000000 0.000000 0.048065 0.000000
# 6 0.000000 0.000000 0.000000 0.000000 0.000000 0.060490
#
#
# Mechanical properties :
#
#
# Convention : Reuss Voigt Hill
#
# Bulk Modulus (GPa) = 65.53390 65.93901 65.73645
# Shear Modulus (GPa) = 23.23161 26.51806 24.87483
#
# Velocity S-wave (km/s) = 3.38080 3.61202 3.49832
# Velocity P-wave (km/s) = 6.89072 7.05955 6.97565
#
# Compressibility (1/GPa) = 0.01525928
#
# Stress axis : x y z
#
# Youngs Moduli (GPa) = 118.49572 62.26610 73.51009
#
# Poissons Ratio (x) = 0.12805 0.11575
# Poissons Ratio (y) = 0.24368 0.57270
# Poissons Ratio (z) = 0.18658 0.48510
#
# Static dielectric constant tensor:
#      x y z
#    x 3.651200 0.000000 0.000000 
#    y 0.000000 3.339480 0.000000 
#    z 0.000000 0.000000 3.597590 
# 
# 
# High freq. dielectric constant tensor:
#      x y z
#    x 1.801260 0.000000 0.000000 
#    y 0.000000 1.754540 0.000000 
#    z 0.000000 0.000000 1.795480 
# 
# From -- ./inp_files/61629.got.cif
#   From: 2010.03.12/outbox.cif.g09.slc.cpg/sg74_31_cif.got.tgz:61629.got - 2010.04.16 15:46:19.
