data_PCOD8300421
_publ_section_title
;
Structure prediction by ZEFSAII (Michael W. Deem and Ramdas Pophale) SiO2 
 PCOD8300421
Probable space group: I M M A
;
_chemical_formula_sum "Si O2"
_cell_formula_units_Z 88
_cell_length_a 15.004418
_cell_length_b 11.548863
_cell_length_c 25.314669
_cell_angle_alpha 90.000000
_cell_angle_beta 90.000000
_cell_angle_gamma 90.000000
_cell_volume 4386.626290
_symmetry_space_group_name_H-M "I M M A"
_symmetry_group_IT_number 74
_symmetry_cell_setting 'orthorhombic'
loop_
_space_group_symop_operation_xyz
x,y,z
-x,1/2-y,z
x,-y,-z
-x,1/2+y,-z
-x,-y,-z
x,1/2+y,-z
-x,y,z
x,1/2-y,z
1/2+x,1/2+y,1/2+z
1/2-x,-y,1/2+z
1/2+x,1/2-y,1/2-z
1/2-x,y,1/2-z
1/2-x,1/2-y,1/2-z
1/2+x,y,1/2-z
1/2-x,1/2+y,1/2+z
1/2+x,-y,1/2+z
loop_
_atom_site_type_symbol
_atom_site_label
_atom_site_fract_x
_atom_site_fract_y
_atom_site_fract_z
Si Si1 0.825169 0.384371 0.892017
Si Si2 0.500000 0.385665 0.236566
Si Si3 0.153872 0.469420 0.773506
Si Si4 0.596542 0.750000 0.108478
Si Si5 0.844635 0.750000 0.279941
Si Si6 0.151456 0.978548 0.438650
Si Si7 0.000000 0.386116 0.382789
Si Si8 0.000000 0.113754 0.961378
O O1 0.794068 0.250000 0.896137
O O2 0.840838 0.422722 0.832462
O O3 0.750290 0.471314 0.914384
O O4 0.914283 0.401921 0.925034
O O5 0.500000 0.250000 0.235035
O O6 0.411945 0.422647 0.268749
O O7 0.500000 0.435810 0.176881
O O8 0.250000 0.504979 0.750000
O O9 0.107553 0.367580 0.738413
O O10 0.500000 0.750000 0.136586
O O11 0.667838 0.750000 0.156587
O O12 0.602597 0.642164 0.069946
O O13 0.750000 0.750000 0.250000
O O14 0.160553 0.000000 0.500000
O O15 0.091189 0.076254 0.411486
O O16 0.000000 0.250000 0.382543
O O17 0.000000 0.250000 0.985020
O O18 0.000000 0.000000 0.000000
#
# Coordination Sequence:
#
# PCOD8300421 Si02
#       8
#    16   8  16   8   8  16   8   8
#     4  11  22  42  66 100 130 162 211 277 342 401
#     4  11  25  43  61  88 129 180 217 250 303 392
#     4  11  22  38  66  97 134 160 204 262 334 388
#     4  12  24  38  62  95 133 172 217 266 330 384
#     4  10  20  36  62  98 130 157 197 267 339 388
#     4  12  25  40  65  91 129 172 218 269 321 380
#     4  11  25  43  63  91 134 175 223 258 307 381
#     4  10  23  44  68  93 130 173 223 284 342 396
#
# _framework density 20.060974000000002
#
# number of rings (size 3 to 8) (size 9 to 14) (size 15 to 20)
#    0.000    0.909    2.727    5.727    2.545    0.364 
#    0.000    3.636    0.000    0.000    0.000    0.000 
#    0.000    0.000    0.000    0.000    0.000    0.000 
#
# Total GULP energy -545360.500380 kJ/mol
# GULP energy per Si atom -12394.556827 kJ/mol
# Density = 2.001531 g / cm^3
# Si number density = 20.060974 Si / 1000 Ang^3
#
#
#
# Elastic Constant Matrix: (Units=GPa)
#
#
# Indices 1 2 3 4 5 6 
#
# 1 138.6183 45.6554 46.5860 0.0000 0.0000 0.0000
# 2 45.6554 93.6486 57.4201 0.0000 0.0000 0.0000
# 3 46.5860 57.4201 143.4637 0.0000 0.0000 0.0000
# 4 0.0000 0.0000 0.0000 19.3209 0.0000 0.0000
# 5 0.0000 0.0000 0.0000 0.0000 14.7167 0.0000
# 6 0.0000 0.0000 0.0000 0.0000 0.0000 -7.8887
#
#
#
# Elastic Compliance Matrix: (Units=1/GPa)
#
#
# Indices 1 2 3 4 5 6 
#
# 1 0.008836 -0.003377 -0.001518 0.000000 0.000000 0.000000
# 2 -0.003377 0.015442 -0.005084 0.000000 0.000000 0.000000
# 3 -0.001518 -0.005084 0.009498 0.000000 0.000000 0.000000
# 4 0.000000 0.000000 0.000000 0.051758 0.000000 0.000000
# 5 0.000000 0.000000 0.000000 0.000000 0.067950 0.000000
# 6 0.000000 0.000000 0.000000 0.000000 0.000000 -0.126764
#
#
# Mechanical properties :
#
#
# Convention : Reuss Voigt Hill
#
# Bulk Modulus (GPa) = 72.36579 75.00595 73.68587
# Shear Modulus (GPa) = 97.49670 20.30104 58.89887
#
# Velocity S-wave (km/s) = 6.97895 3.18459 5.42436
# Velocity P-wave (km/s) = 10.05446 7.14089 8.72022
#
# Compressibility (1/GPa) = 0.01381868
#
# Stress axis : x y z
#
# Youngs Moduli (GPa) = 113.16724 64.75913 105.28601
#
# Poissons Ratio (x) = 0.21872 0.15978
# Poissons Ratio (y) = 0.38221 0.53525
# Poissons Ratio (z) = 0.17175 0.32922
#
# Static dielectric constant tensor:
#      x y z
#    x 3.711000 0.000000 0.000000 
#    y 0.000000 3.857050 0.000000 
#    z 0.000000 0.000000 3.699540 
# 
# 
# High freq. dielectric constant tensor:
#      x y z
#    x 1.799980 0.000000 0.000000 
#    y 0.000000 1.777270 0.000000 
#    z 0.000000 0.000000 1.787490 
# 
# From -- ./inp_files/59869.got.cif
#   From: 2010.03.12/outbox.cif.g09.slc.cpg/sg74_30_cif.got.tgz:59869.got - 2010.04.16 15:46:19.
