data_PCOD8300413
_publ_section_title
;
Structure prediction by ZEFSAII (Michael W. Deem and Ramdas Pophale) SiO2 
 PCOD8300413
Probable space group: I M M A
;
_chemical_formula_sum "Si O2"
_cell_formula_units_Z 104
_cell_length_a 9.307734
_cell_length_b 21.241047
_cell_length_c 26.717626
_cell_angle_alpha 90.000000
_cell_angle_beta 90.000000
_cell_angle_gamma 90.000000
_cell_volume 5282.235376
_symmetry_space_group_name_H-M "I M M A"
_symmetry_group_IT_number 74
_symmetry_cell_setting 'orthorhombic'
loop_
_space_group_symop_operation_xyz
x,y,z
-x,1/2-y,z
x,-y,-z
-x,1/2+y,-z
-x,-y,-z
x,1/2+y,-z
-x,y,z
x,1/2-y,z
1/2+x,1/2+y,1/2+z
1/2-x,-y,1/2+z
1/2+x,1/2-y,1/2-z
1/2-x,y,1/2-z
1/2-x,1/2-y,1/2-z
1/2+x,y,1/2-z
1/2-x,1/2+y,1/2+z
1/2+x,-y,1/2+z
loop_
_atom_site_type_symbol
_atom_site_label
_atom_site_fract_x
_atom_site_fract_y
_atom_site_fract_z
Si Si1 0.500000 0.324171 0.283147
Si Si2 0.781987 0.115366 0.144983
Si Si3 0.157035 0.179065 0.046420
Si Si4 0.668231 0.859973 0.358101
Si Si5 0.166834 0.823994 0.450961
Si Si6 0.000000 0.675659 0.669538
Si Si7 0.834114 0.490816 0.802087
Si Si8 0.326237 0.250000 0.802720
O O1 0.500000 0.250000 0.286139
O O2 0.358757 0.349872 0.309246
O O3 0.500000 0.348266 0.226483
O O4 0.854021 0.128794 0.091544
O O5 0.628860 0.146319 0.139088
O O6 0.776264 0.041546 0.157801
O O7 0.187505 0.250000 0.067039
O O8 0.000000 0.177805 0.020080
O O9 0.279131 0.160048 0.006749
O O10 0.500000 0.839361 0.359237
O O11 0.733040 0.864993 0.413895
O O12 0.686796 0.924446 0.328558
O O13 0.772159 0.811212 0.330982
O O14 0.187538 0.750000 0.439015
O O15 0.000000 0.843506 0.446063
O O16 0.000000 0.750000 0.665712
O O17 0.750000 0.493427 0.750000
O O18 0.000000 0.505080 0.790068
O O19 0.500000 0.250000 0.798537
O O20 0.250000 0.250000 0.750000
#
# Coordination Sequence:
#
# PCOD8300413 Si02
#       8
#     8  16  16  16  16   8  16   8
#     4  11  20  36  60  84 117 159 207 263 316 374
#     4  12  23  39  59  87 126 166 212 260 314 373
#     4  10  20  36  61  90 122 165 211 260 316 374
#     4  11  23  41  66  95 128 165 210 259 317 382
#     4  10  21  38  63  95 127 160 202 260 322 382
#     4  11  24  36  56  88 121 159 209 267 330 374
#     4  11  25  43  64  91 125 171 217 255 307 380
#     4  12  24  40  64  98 134 166 206 262 321 376
#
# _framework density 19.688632999999999
#
# number of rings (size 3 to 8) (size 9 to 14) (size 15 to 20)
#    0.000    1.077    2.308    4.846    2.154    4.308 
#    0.000    0.769    0.000    3.692    0.000    0.000 
#    0.000    0.000    0.000    0.000    0.000    0.000 
#
# Total GULP energy -644778.760755 kJ/mol
# GULP energy per Si atom -12399.591553 kJ/mol
# Density = 1.964382 g / cm^3
# Si number density = 19.688633 Si / 1000 Ang^3
#
#
#
# Elastic Constant Matrix: (Units=GPa)
#
#
# Indices 1 2 3 4 5 6 
#
# 1 147.4799 41.7316 43.5665 0.0000 0.0000 0.0000
# 2 41.7316 86.7074 44.1544 0.0000 0.0000 0.0000
# 3 43.5665 44.1544 103.6592 0.0000 0.0000 0.0000
# 4 0.0000 0.0000 0.0000 27.1219 0.0000 0.0000
# 5 0.0000 0.0000 0.0000 0.0000 36.9371 0.0000
# 6 0.0000 0.0000 0.0000 0.0000 0.0000 25.1440
#
#
#
# Elastic Compliance Matrix: (Units=1/GPa)
#
#
# Indices 1 2 3 4 5 6 
#
# 1 0.008247 -0.002815 -0.002267 0.000000 0.000000 0.000000
# 2 -0.002815 0.015688 -0.005500 0.000000 0.000000 0.000000
# 3 -0.002267 -0.005500 0.012942 0.000000 0.000000 0.000000
# 4 0.000000 0.000000 0.000000 0.036871 0.000000 0.000000
# 5 0.000000 0.000000 0.000000 0.000000 0.027073 0.000000
# 6 0.000000 0.000000 0.000000 0.000000 0.000000 0.039771
#
#
# Mechanical properties :
#
#
# Convention : Reuss Voigt Hill
#
# Bulk Modulus (GPa) = 63.63408 66.30571 64.96989
# Shear Modulus (GPa) = 29.94141 31.73354 30.83748
#
# Velocity S-wave (km/s) = 3.90391 4.01904 3.96189
# Velocity P-wave (km/s) = 7.26024 7.43553 7.34841
#
# Compressibility (1/GPa) = 0.01571485
#
# Stress axis : x y z
#
# Youngs Moduli (GPa) = 121.26017 63.74185 77.26535
#
# Poissons Ratio (x) = 0.17941 0.17517
# Poissons Ratio (y) = 0.34130 0.42493
# Poissons Ratio (z) = 0.27491 0.35055
#
# Static dielectric constant tensor:
#      x y z
#    x 3.774960 0.000000 0.000000 
#    y 0.000000 3.472290 0.000000 
#    z 0.000000 0.000000 3.669020 
# 
# 
# High freq. dielectric constant tensor:
#      x y z
#    x 1.786020 0.000000 0.000000 
#    y 0.000000 1.749060 0.000000 
#    z 0.000000 0.000000 1.769170 
# 
# From -- ./inp_files/64556.got.cif
#   From: 2010.03.12/outbox.cif.g09.slc.cpg/sg74_33_cif.got.tgz:64556.got - 2010.04.16 15:46:19.
