data_PCOD8300635
_publ_section_title
;
Structure prediction by ZEFSAII (Michael W. Deem and Ramdas Pophale) SiO2 
 PCOD8300635
Probable space group: I M M A
;
_chemical_formula_sum "Si O2"
_cell_formula_units_Z 72
_cell_length_a 17.336244
_cell_length_b 8.993126
_cell_length_c 23.124119
_cell_angle_alpha 90.000000
_cell_angle_beta 90.000000
_cell_angle_gamma 90.000000
_cell_volume 3605.212637
_symmetry_space_group_name_H-M "I M M A"
_symmetry_group_IT_number 74
_symmetry_cell_setting 'orthorhombic'
loop_
_space_group_symop_operation_xyz
x,y,z
-x,1/2-y,z
x,-y,-z
-x,1/2+y,-z
-x,-y,-z
x,1/2+y,-z
-x,y,z
x,1/2-y,z
1/2+x,1/2+y,1/2+z
1/2-x,-y,1/2+z
1/2+x,1/2-y,1/2-z
1/2-x,y,1/2-z
1/2-x,1/2-y,1/2-z
1/2+x,y,1/2-z
1/2-x,1/2+y,1/2+z
1/2+x,-y,1/2+z
loop_
_atom_site_type_symbol
_atom_site_label
_atom_site_fract_x
_atom_site_fract_y
_atom_site_fract_z
Si Si1 0.866661 0.917369 0.875786
Si Si2 0.000000 0.076685 0.938925
Si Si3 0.289617 0.576654 0.939710
Si Si4 0.663163 0.579653 0.754919
Si Si5 0.089862 0.076955 0.638434
O O1 0.888705 0.750000 0.895347
O O2 0.779338 0.952972 0.894553
O O3 0.876661 0.933129 0.807274
O O4 0.923532 0.033642 0.904574
O O5 0.000000 0.250000 0.949142
O O6 0.000000 0.000000 0.000000
O O7 0.303324 0.750000 0.950723
O O8 0.366713 0.507421 0.913043
O O9 0.268358 0.500000 0.000000
O O10 0.664481 0.750000 0.777465
O O11 0.750000 0.518485 0.750000
O O12 0.614605 0.481280 0.798856
O O13 0.109833 0.250000 0.634663
O O14 0.000000 0.045649 0.629617
#
# Coordination Sequence:
#
# PCOD8300635 Si02
#       5
#    16   8  16  16  16
#     4  10  22  41  65  93 125 162 207 255 309 372
#     4  12  26  42  62  90 128 168 211 256 309 368
#     4  11  23  42  67  93 121 160 209 258 313 374
#     4  10  20  40  66  93 122 158 204 251 306 368
#     4  11  25  42  61  92 130 166 208 257 309 367
#
# _framework density 19.971083
#
# number of rings (size 3 to 8) (size 9 to 14) (size 15 to 20)
#    0.000    1.333    2.222    3.000    1.556    7.111 
#    0.000    0.000    0.000    0.000    0.000    0.000 
#    0.000    0.000    0.000    0.000    0.000    0.000 
#
# Total GULP energy -446642.353539 kJ/mol
# GULP energy per Si atom -12406.732043 kJ/mol
# Density = 1.992563 g / cm^3
# Si number density = 19.971083 Si / 1000 Ang^3
#
#
#
# Elastic Constant Matrix: (Units=GPa)
#
#
# Indices 1 2 3 4 5 6 
#
# 1 88.7633 56.0801 17.4551 0.0000 0.0000 0.0000
# 2 56.0801 124.9480 37.1013 0.0000 0.0000 0.0000
# 3 17.4551 37.1013 80.2047 0.0000 0.0000 0.0000
# 4 0.0000 0.0000 0.0000 35.8866 0.0000 0.0000
# 5 0.0000 0.0000 0.0000 0.0000 28.6442 0.0000
# 6 0.0000 0.0000 0.0000 0.0000 0.0000 33.8392
#
#
#
# Elastic Compliance Matrix: (Units=1/GPa)
#
#
# Indices 1 2 3 4 5 6 
#
# 1 0.015727 -0.007005 -0.000183 0.000000 0.000000 0.000000
# 2 -0.007005 0.012397 -0.004210 0.000000 0.000000 0.000000
# 3 -0.000183 -0.004210 0.014455 0.000000 0.000000 0.000000
# 4 0.000000 0.000000 0.000000 0.027866 0.000000 0.000000
# 5 0.000000 0.000000 0.000000 0.000000 0.034911 0.000000
# 6 0.000000 0.000000 0.000000 0.000000 0.000000 0.029552
#
#
# Mechanical properties :
#
#
# Convention : Reuss Voigt Hill
#
# Bulk Modulus (GPa) = 50.54321 57.24321 53.89321
# Shear Modulus (GPa) = 30.43241 31.89264 31.16252
#
# Velocity S-wave (km/s) = 3.90785 4.00051 3.95445
# Velocity P-wave (km/s) = 6.76202 7.07559 6.92058
#
# Compressibility (1/GPa) = 0.01978505
#
# Stress axis : x y z
#
# Youngs Moduli (GPa) = 63.58371 80.66199 69.17788
#
# Poissons Ratio (x) = 0.56501 0.01263
# Poissons Ratio (y) = 0.44538 0.29127
# Poissons Ratio (z) = 0.01161 0.33962
#
# Static dielectric constant tensor:
#      x y z
#    x 3.591580 0.000000 0.000000 
#    y 0.000000 3.680230 0.000000 
#    z 0.000000 0.000000 3.697110 
# 
# 
# High freq. dielectric constant tensor:
#      x y z
#    x 1.783610 0.000000 0.000000 
#    y 0.000000 1.780300 0.000000 
#    z 0.000000 0.000000 1.791350 
# 
# From -- ./inp_files/60587.got.cif
#   From: 2010.03.12/outbox.cif.g09.slc.cpg/sg74_31_cif.got.tgz:60587.got - 2010.04.16 15:46:19.
