data_PCOD8300157
_publ_section_title
;
Structure prediction by ZEFSAII (Michael W. Deem and Ramdas Pophale) SiO2 
 PCOD8300157
Probable space group: I M M A
;
_chemical_formula_sum "Si O2"
_cell_formula_units_Z 104
_cell_length_a 25.818332
_cell_length_b 8.835816
_cell_length_c 23.765108
_cell_angle_alpha 90.000000
_cell_angle_beta 90.000000
_cell_angle_gamma 90.000000
_cell_volume 5421.439764
_symmetry_space_group_name_H-M "I M M A"
_symmetry_group_IT_number 74
_symmetry_cell_setting 'orthorhombic'
loop_
_space_group_symop_operation_xyz
x,y,z
-x,1/2-y,z
x,-y,-z
-x,1/2+y,-z
-x,-y,-z
x,1/2+y,-z
-x,y,z
x,1/2-y,z
1/2+x,1/2+y,1/2+z
1/2-x,-y,1/2+z
1/2+x,1/2-y,1/2-z
1/2-x,y,1/2-z
1/2-x,1/2-y,1/2-z
1/2+x,y,1/2-z
1/2-x,1/2+y,1/2+z
1/2+x,-y,1/2+z
loop_
_atom_site_type_symbol
_atom_site_label
_atom_site_fract_x
_atom_site_fract_y
_atom_site_fract_z
Si Si1 0.627769 0.423685 0.736896
Si Si2 0.940892 0.574157 0.850008
Si Si3 0.000000 0.923702 0.440904
Si Si4 0.355106 0.071880 0.439354
Si Si5 0.325380 0.071189 0.157944
Si Si6 0.388147 0.928702 0.061531
Si Si7 0.782959 0.424912 0.853052
O O1 0.619863 0.250000 0.754100
O O2 0.576629 0.481320 0.704878
O O3 0.635715 0.519761 0.793119
O O4 0.676863 0.446787 0.697099
O O5 0.934035 0.750000 0.835755
O O6 0.906341 0.529324 0.903840
O O7 0.000000 0.532196 0.864326
O O8 0.054622 0.963211 0.410354
O O9 0.000000 0.750000 0.456002
O O10 0.000000 0.000000 0.500000
O O11 0.347390 0.250000 0.445170
O O12 0.362415 0.000000 0.500000
O O13 0.304310 0.003537 0.409519
O O14 0.322066 0.250000 0.156505
O O15 0.345207 0.009592 0.098629
O O16 0.268842 0.003634 0.168612
O O17 0.376907 0.750000 0.058631
O O18 0.384537 0.000000 0.000000
O O19 0.772305 0.250000 0.866378
#
# Coordination Sequence:
#
# PCOD8300157 Si02
#       7
#    16  16   8  16  16  16  16
#     4  10  21  38  59  83 110 144 186 232 282 335
#     4   9  19  37  59  83 115 153 191 235 287 338
#     4   8  16  32  56  78 100 134 170 208 255 308
#     4  10  20  35  56  84 117 153 193 235 281 338
#     4  12  24  37  56  84 113 146 186 228 277 334
#     4  10  20  37  58  82 111 142 179 223 272 325
#     4  10  21  38  59  81 109 145 185 232 283 334
#
# _framework density 19.183097
#
# number of rings (size 3 to 8) (size 9 to 14) (size 15 to 20)
#    0.000    2.000    0.000    3.692    0.000    6.154 
#    1.385    3.077    0.000    0.000    0.000    0.000 
#    0.000    0.000    0.000    0.000    0.000    0.000 
#
# Total GULP energy -644801.875931 kJ/mol
# GULP energy per Si atom -12400.036076 kJ/mol
# Density = 1.913944 g / cm^3
# Si number density = 19.183097 Si / 1000 Ang^3
#
#
#
# Elastic Constant Matrix: (Units=GPa)
#
#
# Indices 1 2 3 4 5 6 
#
# 1 54.1491 29.0794 24.9687 0.0000 0.0000 0.0000
# 2 29.0794 113.5123 45.1512 0.0000 0.0000 0.0000
# 3 24.9687 45.1512 94.9364 0.0000 0.0000 0.0000
# 4 0.0000 0.0000 0.0000 35.3069 0.0000 0.0000
# 5 0.0000 0.0000 0.0000 0.0000 18.9068 0.0000
# 6 0.0000 0.0000 0.0000 0.0000 0.0000 30.1501
#
#
#
# Elastic Compliance Matrix: (Units=1/GPa)
#
#
# Indices 1 2 3 4 5 6 
#
# 1 0.022540 -0.004213 -0.003924 0.000000 0.000000 0.000000
# 2 -0.004213 0.011653 -0.004434 0.000000 0.000000 0.000000
# 3 -0.003924 -0.004434 0.013674 0.000000 0.000000 0.000000
# 4 0.000000 0.000000 0.000000 0.028323 0.000000 0.000000
# 5 0.000000 0.000000 0.000000 0.000000 0.052891 0.000000
# 6 0.000000 0.000000 0.000000 0.000000 0.000000 0.033167
#
#
# Mechanical properties :
#
#
# Convention : Reuss Voigt Hill
#
# Bulk Modulus (GPa) = 44.00671 51.22184 47.61427
# Shear Modulus (GPa) = 25.64561 27.76597 26.70579
#
# Velocity S-wave (km/s) = 3.66031 3.80862 3.73520
# Velocity P-wave (km/s) = 6.39171 6.78972 6.59372
#
# Compressibility (1/GPa) = 0.02272381
#
# Stress axis : x y z
#
# Youngs Moduli (GPa) = 44.36626 85.81797 73.13062
#
# Poissons Ratio (x) = 0.36157 0.28698
# Poissons Ratio (y) = 0.18693 0.32425
# Poissons Ratio (z) = 0.17410 0.38050
#
# Static dielectric constant tensor:
#      x y z
#    x 3.789550 0.000000 0.000000 
#    y 0.000000 3.604190 0.000000 
#    z 0.000000 0.000000 3.367460 
# 
# 
# High freq. dielectric constant tensor:
#      x y z
#    x 1.750920 0.000000 0.000000 
#    y 0.000000 1.758890 0.000000 
#    z 0.000000 0.000000 1.736460 
# 
# From -- ./inp_files/55176.got.cif
#   From: 2010.03.12/outbox.cif.g09.slc.cpg/sg74_28_cif.got.tgz:55176.got - 2010.04.16 15:46:19.
