data_PCOD8300621
_publ_section_title
;
Structure prediction by ZEFSAII (Michael W. Deem and Ramdas Pophale) SiO2 
 PCOD8300621
Probable space group: I M M A
;
_chemical_formula_sum "Si O2"
_cell_formula_units_Z 112
_cell_length_a 22.827333
_cell_length_b 14.318455
_cell_length_c 16.188858
_cell_angle_alpha 90.000000
_cell_angle_beta 90.000000
_cell_angle_gamma 90.000000
_cell_volume 5291.362887
_symmetry_space_group_name_H-M "I M M A"
_symmetry_group_IT_number 74
_symmetry_cell_setting 'orthorhombic'
loop_
_space_group_symop_operation_xyz
x,y,z
-x,1/2-y,z
x,-y,-z
-x,1/2+y,-z
-x,-y,-z
x,1/2+y,-z
-x,y,z
x,1/2-y,z
1/2+x,1/2+y,1/2+z
1/2-x,-y,1/2+z
1/2+x,1/2-y,1/2-z
1/2-x,y,1/2-z
1/2-x,1/2-y,1/2-z
1/2+x,y,1/2-z
1/2-x,1/2+y,1/2+z
1/2+x,-y,1/2+z
loop_
_atom_site_type_symbol
_atom_site_label
_atom_site_fract_x
_atom_site_fract_y
_atom_site_fract_z
Si Si1 0.116768 0.646052 0.027744
Si Si2 0.608250 0.033310 0.371039
Si Si3 0.862844 0.857277 0.400400
Si Si4 0.932333 0.355640 0.441186
Si Si5 0.247914 0.392153 0.994812
Si Si6 0.221122 0.145283 0.164465
Si Si7 0.433521 0.001376 0.803814
O O1 0.090246 0.750000 0.044005
O O2 0.103791 0.575120 0.102102
O O3 0.186682 0.659207 0.021563
O O4 0.087300 0.603044 0.944192
O O5 0.673917 0.064455 0.350104
O O6 0.569265 0.038488 0.289041
O O7 0.876676 0.750000 0.380001
O O8 0.898038 0.895018 0.479680
O O9 0.794160 0.868708 0.422553
O O10 0.885853 0.916734 0.321822
O O11 0.913113 0.250000 0.421931
O O12 0.916126 0.415155 0.361539
O O13 0.000000 0.362775 0.464377
O O14 0.233931 0.500000 0.000000
O O15 0.267702 0.358525 0.087375
O O16 0.193873 0.250000 0.170296
O O17 0.250000 0.117491 0.250000
O O18 0.500000 0.036394 0.820771
#
# Coordination Sequence:
#
# PCOD8300621 Si02
#       7
#    16  16  16  16  16  16  16
#     4  10  20  40  63  86 116 151 191 239 308 380
#     4  10  21  38  60  85 114 153 191 248 309 364
#     4  11  23  36  56  85 119 163 204 239 284 345
#     4   9  19  36  56  80 112 151 197 246 291 336
#     4  11  19  35  57  85 119 157 193 236 288 354
#     4  10  21  35  56  88 122 156 197 247 301 354
#     4  11  24  40  60  85 117 156 203 254 304 355
#
# _framework density 21.166568999999999
#
# number of rings (size 3 to 8) (size 9 to 14) (size 15 to 20)
#    0.000    1.714    2.857    4.286    4.000    3.714 
#    0.000    1.429    0.000    3.000    0.000    0.000 
#    0.000    0.000    0.000    0.000    0.000    0.000 
#
# Total GULP energy -694069.377144 kJ/mol
# GULP energy per Si atom -12394.096020 kJ/mol
# Density = 2.111839 g / cm^3
# Si number density = 21.166569 Si / 1000 Ang^3
#
#
#
# Elastic Constant Matrix: (Units=GPa)
#
#
# Indices 1 2 3 4 5 6 
#
# 1 33.2639 4.9997 10.8772 0.0000 0.0000 0.0000
# 2 4.9997 121.8205 24.0565 0.0000 0.0000 0.0000
# 3 10.8772 24.0565 79.6900 0.0000 0.0000 0.0000
# 4 0.0000 0.0000 0.0000 25.0891 0.0000 0.0000
# 5 0.0000 0.0000 0.0000 0.0000 26.0982 0.0000
# 6 0.0000 0.0000 0.0000 0.0000 0.0000 15.2403
#
#
#
# Elastic Compliance Matrix: (Units=1/GPa)
#
#
# Indices 1 2 3 4 5 6 
#
# 1 0.031493 -0.000472 -0.004156 0.000000 0.000000 0.000000
# 2 -0.000472 0.008736 -0.002573 0.000000 0.000000 0.000000
# 3 -0.004156 -0.002573 0.013893 0.000000 0.000000 0.000000
# 4 0.000000 0.000000 0.000000 0.039858 0.000000 0.000000
# 5 0.000000 0.000000 0.000000 0.000000 0.038317 0.000000
# 6 0.000000 0.000000 0.000000 0.000000 0.000000 0.065615
#
#
# Mechanical properties :
#
#
# Convention : Reuss Voigt Hill
#
# Bulk Modulus (GPa) = 25.17629 34.96011 30.06820
# Shear Modulus (GPa) = 22.16774 26.27493 24.22134
#
# Velocity S-wave (km/s) = 3.23971 3.52709 3.38645
# Velocity P-wave (km/s) = 5.09063 5.75671 5.43388
#
# Compressibility (1/GPa) = 0.03971991
#
# Stress axis : x y z
#
# Youngs Moduli (GPa) = 31.75349 114.46570 71.98075
#
# Poissons Ratio (x) = 0.05400 0.29916
# Poissons Ratio (y) = 0.01498 0.18520
# Poissons Ratio (z) = 0.13197 0.29451
#
# Static dielectric constant tensor:
#      x y z
#    x 3.491030 0.000000 0.000000 
#    y 0.000000 3.871810 0.000000 
#    z 0.000000 0.000000 3.960300 
# 
# 
# High freq. dielectric constant tensor:
#      x y z
#    x 1.796810 0.000000 0.000000 
#    y 0.000000 1.840750 0.000000 
#    z 0.000000 0.000000 1.823290 
# 
# From -- ./inp_files/36547.got.cif
#   From: 2010.03.12/outbox.cif.g09.slc.cpg/sg74_19_cif.got.tgz:36547.got - 2010.04.16 15:46:19.
