data_PCOD8300398
_publ_section_title
;
Structure prediction by ZEFSAII (Michael W. Deem and Ramdas Pophale) SiO2 
 PCOD8300398
Probable space group: I M M A
;
_chemical_formula_sum "Si O2"
_cell_formula_units_Z 112
_cell_length_a 14.088347
_cell_length_b 15.516914
_cell_length_c 23.051069
_cell_angle_alpha 90.000000
_cell_angle_beta 90.000000
_cell_angle_gamma 90.000000
_cell_volume 5039.140457
_symmetry_space_group_name_H-M "I M M A"
_symmetry_group_IT_number 74
_symmetry_cell_setting 'orthorhombic'
loop_
_space_group_symop_operation_xyz
x,y,z
-x,1/2-y,z
x,-y,-z
-x,1/2+y,-z
-x,-y,-z
x,1/2+y,-z
-x,y,z
x,1/2-y,z
1/2+x,1/2+y,1/2+z
1/2-x,-y,1/2+z
1/2+x,1/2-y,1/2-z
1/2-x,y,1/2-z
1/2-x,1/2-y,1/2-z
1/2+x,y,1/2-z
1/2-x,1/2+y,1/2+z
1/2+x,-y,1/2+z
loop_
_atom_site_type_symbol
_atom_site_label
_atom_site_fract_x
_atom_site_fract_y
_atom_site_fract_z
Si Si1 0.111581 0.486611 0.839133
Si Si2 0.107438 0.104665 0.623637
Si Si3 0.231246 0.846578 0.816846
Si Si4 0.603715 0.915025 0.463255
Si Si5 0.612415 0.845525 0.249164
Si Si6 0.108318 0.593316 0.604131
Si Si7 0.796358 0.345606 0.506452
O O1 0.159646 0.580462 0.839275
O O2 0.137043 0.439819 0.898891
O O3 0.152786 0.421930 0.789840
O O4 0.000000 0.502603 0.831870
O O5 0.149601 0.141469 0.683645
O O6 0.168520 0.139832 0.571145
O O7 0.000000 0.136577 0.614055
O O8 0.112092 0.002414 0.628499
O O9 0.188146 0.750000 0.825183
O O10 0.250000 0.865099 0.750000
O O11 0.329752 0.848645 0.852598
O O12 0.500000 0.868265 0.461643
O O13 0.682415 0.855601 0.493528
O O14 0.593251 0.000000 0.500000
O O15 0.500000 0.852064 0.250374
O O16 0.645258 0.750000 0.270539
O O17 0.152175 0.591404 0.539102
O O18 0.000000 0.627875 0.602445
O O19 0.820836 0.250000 0.485279
#
# Coordination Sequence:
#
# PCOD8300398 Si02
#       7
#    16  16  16  16  16  16  16
#     4  10  21  39  64  91 123 166 211 260 321 383
#     4  10  20  36  60  89 124 166 209 256 315 382
#     4  11  24  40  61  91 125 163 209 261 317 380
#     4  10  22  41  63  85 114 157 207 258 314 377
#     4   9  18  34  59  93 130 166 208 259 316 382
#     4  11  24  43  66  90 121 163 209 259 316 377
#     4  12  24  37  59  91 125 161 204 257 315 379
#
# _framework density 22.226012000000001
#
# number of rings (size 3 to 8) (size 9 to 14) (size 15 to 20)
#    0.000    1.571    0.000    5.143    0.000    6.571 
#    0.000    2.857    0.000    9.000    0.000    0.000 
#    0.000    0.000    0.000    0.000    0.000    0.000 
#
# Total GULP energy -694372.981747 kJ/mol
# GULP energy per Si atom -12399.517531 kJ/mol
# Density = 2.217542 g / cm^3
# Si number density = 22.226012 Si / 1000 Ang^3
#
#
#
# Elastic Constant Matrix: (Units=GPa)
#
#
# Indices 1 2 3 4 5 6 
#
# 1 107.4446 39.4772 39.5214 0.0000 0.0000 0.0000
# 2 39.4772 99.0607 24.4476 0.0000 0.0000 0.0000
# 3 39.5214 24.4476 122.3114 0.0000 0.0000 0.0000
# 4 0.0000 0.0000 0.0000 8.6571 0.0000 0.0000
# 5 0.0000 0.0000 0.0000 0.0000 43.9633 0.0000
# 6 0.0000 0.0000 0.0000 0.0000 0.0000 22.2504
#
#
#
# Elastic Compliance Matrix: (Units=1/GPa)
#
#
# Indices 1 2 3 4 5 6 
#
# 1 0.011893 -0.003988 -0.003046 0.000000 0.000000 0.000000
# 2 -0.003988 0.011956 -0.001101 0.000000 0.000000 0.000000
# 3 -0.003046 -0.001101 0.009380 0.000000 0.000000 0.000000
# 4 0.000000 0.000000 0.000000 0.115513 0.000000 0.000000
# 5 0.000000 0.000000 0.000000 0.000000 0.022746 0.000000
# 6 0.000000 0.000000 0.000000 0.000000 0.000000 0.044943
#
#
# Mechanical properties :
#
#
# Convention : Reuss Voigt Hill
#
# Bulk Modulus (GPa) = 58.96495 59.52323 59.24409
# Shear Modulus (GPa) = 20.97732 29.99885 25.48809
#
# Velocity S-wave (km/s) = 3.07550 3.67784 3.39007
# Velocity P-wave (km/s) = 6.26090 6.69883 6.48356
#
# Compressibility (1/GPa) = 0.01695923
#
# Stress axis : x y z
#
# Youngs Moduli (GPa) = 84.08606 83.64167 106.60882
#
# Poissons Ratio (x) = 0.33354 0.32470
# Poissons Ratio (y) = 0.33531 0.11740
# Poissons Ratio (z) = 0.25610 0.09211
#
# Static dielectric constant tensor:
#      x y z
#    x 4.225190 0.000000 0.000000 
#    y 0.000000 3.686440 0.000000 
#    z 0.000000 0.000000 4.149070 
# 
# 
# High freq. dielectric constant tensor:
#      x y z
#    x 1.877340 0.000000 0.000000 
#    y 0.000000 1.870810 0.000000 
#    z 0.000000 0.000000 1.884890 
# 
# From -- ./inp_files/60137.got.cif
#   From: 2010.03.12/outbox.cif.g09.slc.cpg/sg74_31_cif.got.tgz:60137.got - 2010.04.16 15:46:19.
