data_PCOD8300972
_publ_section_title
;
Structure prediction by ZEFSAII (Michael W. Deem and Ramdas Pophale) SiO2 
 PCOD8300972
Probable space group: I M M A
;
_chemical_formula_sum "Si O2"
_cell_formula_units_Z 64
_cell_length_a 7.523180
_cell_length_b 12.150848
_cell_length_c 33.804648
_cell_angle_alpha 90.000000
_cell_angle_beta 90.000000
_cell_angle_gamma 90.000000
_cell_volume 3090.184851
_symmetry_space_group_name_H-M "I M M A"
_symmetry_group_IT_number 74
_symmetry_cell_setting 'orthorhombic'
loop_
_space_group_symop_operation_xyz
x,y,z
-x,1/2-y,z
x,-y,-z
-x,1/2+y,-z
-x,-y,-z
x,1/2+y,-z
-x,y,z
x,1/2-y,z
1/2+x,1/2+y,1/2+z
1/2-x,-y,1/2+z
1/2+x,1/2-y,1/2-z
1/2-x,y,1/2-z
1/2-x,1/2-y,1/2-z
1/2+x,y,1/2-z
1/2-x,1/2+y,1/2+z
1/2+x,-y,1/2+z
loop_
_atom_site_type_symbol
_atom_site_label
_atom_site_fract_x
_atom_site_fract_y
_atom_site_fract_z
Si Si1 0.500000 0.069040 0.960053
Si Si2 0.000000 0.624803 0.602766
Si Si3 0.797931 0.870951 0.834082
Si Si4 0.706609 0.750000 0.442450
Si Si5 0.191157 0.250000 0.642724
Si Si6 0.201370 0.915280 0.206200
O O1 0.319234 0.142473 0.956504
O O2 0.500000 0.972465 0.928153
O O3 0.500000 0.000000 0.000000
O O4 0.824027 0.607508 0.628427
O O5 0.000000 0.750000 0.584532
O O6 0.762738 0.750000 0.816250
O O7 0.000000 0.885104 0.849061
O O8 0.756809 0.955346 0.798436
O O9 0.500000 0.750000 0.459183
O O10 0.677434 0.750000 0.394589
O O11 0.196292 0.144776 0.671178
O O12 0.000000 0.250000 0.621278
O O13 0.250000 0.875322 0.250000
O O14 0.000000 0.883271 0.198851
#
# Coordination Sequence:
#
# PCOD8300972 Si02
#       6
#     8   8  16   8   8  16
#     4  11  25  44  72 103 139 172 220 270 333 409
#     4  10  21  37  66  95 123 173 216 275 333 393
#     4   9  20  38  58  85 120 161 217 267 317 390
#     4  11  25  47  72 103 136 183 220 267 334 398
#     4  12  23  40  63  88 122 167 220 266 314 396
#     4  11  23  36  55  84 122 166 213 276 333 379
#
# _framework density 20.710735
#
# number of rings (size 3 to 8) (size 9 to 14) (size 15 to 20)
#    0.000    1.500    1.250    3.750    5.250    4.000 
#    0.000    0.000    0.000    0.000    0.000    0.000 
#    0.000    0.000    0.000    0.000    0.000    0.000 
#
# Total GULP energy -396524.081326 kJ/mol
# GULP energy per Si atom -12391.377541 kJ/mol
# Density = 2.066360 g / cm^3
# Si number density = 20.710735 Si / 1000 Ang^3
#
#
#
# Elastic Constant Matrix: (Units=GPa)
#
#
# Indices 1 2 3 4 5 6 
#
# 1 115.8062 46.1888 23.1810 0.0000 0.0000 0.0000
# 2 46.1888 136.1276 52.4949 0.0000 0.0000 0.0000
# 3 23.1810 52.4949 92.2613 0.0000 0.0000 0.0000
# 4 0.0000 0.0000 0.0000 33.8662 0.0000 0.0000
# 5 0.0000 0.0000 0.0000 0.0000 21.3471 0.0000
# 6 0.0000 0.0000 0.0000 0.0000 0.0000 20.0782
#
#
#
# Elastic Compliance Matrix: (Units=1/GPa)
#
#
# Indices 1 2 3 4 5 6 
#
# 1 0.010027 -0.003114 -0.000748 0.000000 0.000000 0.000000
# 2 -0.003114 0.010378 -0.005123 0.000000 0.000000 0.000000
# 3 -0.000748 -0.005123 0.013941 0.000000 0.000000 0.000000
# 4 0.000000 0.000000 0.000000 0.029528 0.000000 0.000000
# 5 0.000000 0.000000 0.000000 0.000000 0.046845 0.000000
# 6 0.000000 0.000000 0.000000 0.000000 0.000000 0.049805
#
#
# Mechanical properties :
#
#
# Convention : Reuss Voigt Hill
#
# Bulk Modulus (GPa) = 61.05702 65.32493 63.19098
# Shear Modulus (GPa) = 27.18115 29.88032 28.53074
#
# Velocity S-wave (km/s) = 3.62666 3.80247 3.71561
# Velocity P-wave (km/s) = 6.86161 7.13361 6.99894
#
# Compressibility (1/GPa) = 0.01637813
#
# Stress axis : x y z
#
# Youngs Moduli (GPa) = 99.73379 96.35780 71.72981
#
# Poissons Ratio (x) = 0.30004 0.05362
# Poissons Ratio (y) = 0.31056 0.36744
# Poissons Ratio (z) = 0.07455 0.49359
#
# Static dielectric constant tensor:
#      x y z
#    x 3.932990 0.000000 0.000000 
#    y 0.000000 4.135940 0.000000 
#    z 0.000000 0.000000 3.614800 
# 
# 
# High freq. dielectric constant tensor:
#      x y z
#    x 1.822690 0.000000 0.000000 
#    y 0.000000 1.833370 0.000000 
#    z 0.000000 0.000000 1.781110 
# 
# From -- ./inp_files/69825.got.cif
#   From: 2010.03.12/outbox.cif.g09.slc.cpg/sg74_35_cif.got.tgz:69825.got - 2010.04.16 15:46:19.
