data_PCOD8300813
_publ_section_title
;
Structure prediction by ZEFSAII (Michael W. Deem and Ramdas Pophale) SiO2 
 PCOD8300813
Probable space group: I M M A
;
_chemical_formula_sum "Si O2"
_cell_formula_units_Z 72
_cell_length_a 16.516859
_cell_length_b 9.293371
_cell_length_c 24.532090
_cell_angle_alpha 90.000000
_cell_angle_beta 90.000000
_cell_angle_gamma 90.000000
_cell_volume 3765.609540
_symmetry_space_group_name_H-M "I M M A"
_symmetry_group_IT_number 74
_symmetry_cell_setting 'orthorhombic'
loop_
_space_group_symop_operation_xyz
x,y,z
-x,1/2-y,z
x,-y,-z
-x,1/2+y,-z
-x,-y,-z
x,1/2+y,-z
-x,y,z
x,1/2-y,z
1/2+x,1/2+y,1/2+z
1/2-x,-y,1/2+z
1/2+x,1/2-y,1/2-z
1/2-x,y,1/2-z
1/2-x,1/2-y,1/2-z
1/2+x,y,1/2-z
1/2-x,1/2+y,1/2+z
1/2+x,-y,1/2+z
loop_
_atom_site_type_symbol
_atom_site_label
_atom_site_fract_x
_atom_site_fract_y
_atom_site_fract_z
Si Si1 0.000000 0.083651 0.056571
Si Si2 0.406142 0.083353 0.051978
Si Si3 0.124302 0.583472 0.851384
Si Si4 0.188163 0.082519 0.342893
Si Si5 0.909654 0.583700 0.254953
O O1 0.080121 0.044741 0.091794
O O2 0.000000 0.250000 0.040907
O O3 0.000000 0.000000 0.000000
O O4 0.500000 0.049224 0.060130
O O5 0.388510 0.250000 0.042286
O O6 0.361588 0.026107 0.105408
O O7 0.370904 0.000000 0.000000
O O8 0.107978 0.750000 0.836305
O O9 0.219084 0.550924 0.856396
O O10 0.087319 0.484310 0.804782
O O11 0.171916 0.250000 0.331026
O O12 0.158325 0.995877 0.290403
O O13 0.884925 0.750000 0.250558
O O14 0.000000 0.566775 0.280431
#
# Coordination Sequence:
#
# PCOD8300813 Si02
#       5
#     8  16  16  16  16
#     4  10  22  40  62  86 114 152 197 242 289 342
#     4   9  18  33  52  75 106 143 181 223 271 326
#     4  10  21  39  60  82 111 149 191 235 283 341
#     4  10  21  36  57  84 112 147 192 234 281 342
#     4  11  23  37  56  84 117 150 186 231 287 345
#
# _framework density 19.120408999999999
#
# number of rings (size 3 to 8) (size 9 to 14) (size 15 to 20)
#    0.000    2.000    1.111    2.000    0.000    8.444 
#    0.000    2.222    0.000    0.000    0.000    0.000 
#    0.000    0.000    0.000    0.000    0.000    0.000 
#
# Total GULP energy -446488.792205 kJ/mol
# GULP energy per Si atom -12402.466450 kJ/mol
# Density = 1.907689 g / cm^3
# Si number density = 19.120409 Si / 1000 Ang^3
#
#
#
# Elastic Constant Matrix: (Units=GPa)
#
#
# Indices 1 2 3 4 5 6 
#
# 1 101.0371 52.4973 64.0360 0.0000 0.0000 0.0000
# 2 52.4973 81.3193 67.2218 0.0000 0.0000 0.0000
# 3 64.0360 67.2218 146.0680 0.0000 0.0000 0.0000
# 4 0.0000 0.0000 0.0000 40.0779 0.0000 0.0000
# 5 0.0000 0.0000 0.0000 0.0000 20.1643 0.0000
# 6 0.0000 0.0000 0.0000 0.0000 0.0000 21.8397
#
#
#
# Elastic Compliance Matrix: (Units=1/GPa)
#
#
# Indices 1 2 3 4 5 6 
#
# 1 0.016016 -0.007320 -0.003653 0.000000 0.000000 0.000000
# 2 -0.007320 0.023193 -0.007465 0.000000 0.000000 0.000000
# 3 -0.003653 -0.007465 0.011883 0.000000 0.000000 0.000000
# 4 0.000000 0.000000 0.000000 0.024951 0.000000 0.000000
# 5 0.000000 0.000000 0.000000 0.000000 0.049593 0.000000
# 6 0.000000 0.000000 0.000000 0.000000 0.000000 0.045788
#
#
# Mechanical properties :
#
#
# Convention : Reuss Voigt Hill
#
# Bulk Modulus (GPa) = 70.33658 77.32606 73.83132
# Shear Modulus (GPa) = 23.47005 26.06098 24.76552
#
# Velocity S-wave (km/s) = 3.50735 3.69588 3.60285
# Velocity P-wave (km/s) = 7.29849 7.66434 7.48365
#
# Compressibility (1/GPa) = 0.01421735
#
# Stress axis : x y z
#
# Youngs Moduli (GPa) = 62.43920 43.11578 84.15550
#
# Poissons Ratio (x) = 0.31560 0.30738
# Poissons Ratio (y) = 0.45704 0.62820
# Poissons Ratio (z) = 0.22806 0.32185
#
# Static dielectric constant tensor:
#      x y z
#    x 3.645190 0.000000 0.000000 
#    y 0.000000 3.424040 0.000000 
#    z 0.000000 0.000000 3.551900 
# 
# 
# High freq. dielectric constant tensor:
#      x y z
#    x 1.753360 0.000000 0.000000 
#    y 0.000000 1.736290 0.000000 
#    z 0.000000 0.000000 1.742450 
# 
# From -- ./inp_files/60588.got.cif
#   From: 2010.03.12/outbox.cif.g09.slc.cpg/sg74_31_cif.got.tgz:60588.got - 2010.04.16 15:46:19.
