data_PCOD8300575
_publ_section_title
;
Structure prediction by ZEFSAII (Michael W. Deem and Ramdas Pophale) SiO2 
 PCOD8300575
Probable space group: I M M A
;
_chemical_formula_sum "Si O2"
_cell_formula_units_Z 96
_cell_length_a 27.371029
_cell_length_b 19.490837
_cell_length_c 8.848872
_cell_angle_alpha 90.000000
_cell_angle_beta 90.000000
_cell_angle_gamma 90.000000
_cell_volume 4720.733973
_symmetry_space_group_name_H-M "I M M A"
_symmetry_group_IT_number 74
_symmetry_cell_setting 'orthorhombic'
loop_
_space_group_symop_operation_xyz
x,y,z
-x,1/2-y,z
x,-y,-z
-x,1/2+y,-z
-x,-y,-z
x,1/2+y,-z
-x,y,z
x,1/2-y,z
1/2+x,1/2+y,1/2+z
1/2-x,-y,1/2+z
1/2+x,1/2-y,1/2-z
1/2-x,y,1/2-z
1/2-x,1/2-y,1/2-z
1/2+x,y,1/2-z
1/2-x,1/2+y,1/2+z
1/2+x,-y,1/2+z
loop_
_atom_site_type_symbol
_atom_site_label
_atom_site_fract_x
_atom_site_fract_y
_atom_site_fract_z
Si Si1 0.604752 0.329444 0.435798
Si Si2 0.555657 0.437888 0.611546
Si Si3 0.808181 0.572976 0.916680
Si Si4 0.201280 0.072830 0.433159
Si Si5 0.554508 0.173501 0.125951
Si Si6 0.605426 0.573163 0.077931
O O1 0.609569 0.250000 0.484008
O O2 0.560481 0.364971 0.526913
O O3 0.653769 0.370761 0.478031
O O4 0.593558 0.336794 0.258578
O O5 0.570228 0.500000 0.500000
O O6 0.500000 0.446849 0.669292
O O7 0.594669 0.438435 0.746875
O O8 0.817269 0.563295 0.738016
O O9 0.754638 0.608613 0.942306
O O10 0.815925 0.500000 0.000000
O O11 0.158841 0.107028 0.538750
O O12 0.214046 0.000000 0.500000
O O13 0.500000 0.160105 0.189545
O O14 0.558873 0.250000 0.059664
O O15 0.563824 0.121934 0.988951
O O16 0.604027 0.500000 0.000000
#
# Coordination Sequence:
#
# PCOD8300575 Si02
#       6
#    16  16  16  16  16  16
#     4  11  23  39  60  88 121 163 206 247 302 366
#     4  11  25  41  61  90 122 162 207 256 310 365
#     4  10  20  38  64  90 123 157 198 249 300 367
#     4   9  20  36  59  97 121 153 198 245 308 357
#     4  10  21  38  59  84 119 161 203 249 300 358
#     4  11  22  38  62  91 120 151 200 253 308 362
#
# _framework density 20.335819999999998
#
# number of rings (size 3 to 8) (size 9 to 14) (size 15 to 20)
#    0.000    1.667    1.667    2.500    7.000    4.333 
#    0.000    2.500    0.000    1.000    0.000    0.000 
#    0.000    0.000    0.000    0.000    0.000    0.000 
#
# Total GULP energy -594905.567556 kJ/mol
# GULP energy per Si atom -12393.865991 kJ/mol
# Density = 2.028954 g / cm^3
# Si number density = 20.335820 Si / 1000 Ang^3
#
#
#
# Elastic Constant Matrix: (Units=GPa)
#
#
# Indices 1 2 3 4 5 6 
#
# 1 125.7525 48.3364 49.3367 0.0000 0.0000 0.0000
# 2 48.3364 110.4096 35.4604 0.0000 0.0000 0.0000
# 3 49.3367 35.4604 100.4886 0.0000 0.0000 0.0000
# 4 0.0000 0.0000 0.0000 27.6112 0.0000 0.0000
# 5 0.0000 0.0000 0.0000 0.0000 31.8034 0.0000
# 6 0.0000 0.0000 0.0000 0.0000 0.0000 16.3892
#
#
#
# Elastic Compliance Matrix: (Units=1/GPa)
#
#
# Indices 1 2 3 4 5 6 
#
# 1 0.010898 -0.003443 -0.004136 0.000000 0.000000 0.000000
# 2 -0.003443 0.011303 -0.002298 0.000000 0.000000 0.000000
# 3 -0.004136 -0.002298 0.012793 0.000000 0.000000 0.000000
# 4 0.000000 0.000000 0.000000 0.036217 0.000000 0.000000
# 5 0.000000 0.000000 0.000000 0.000000 0.031443 0.000000
# 6 0.000000 0.000000 0.000000 0.000000 0.000000 0.061016
#
#
# Mechanical properties :
#
#
# Convention : Reuss Voigt Hill
#
# Bulk Modulus (GPa) = 65.61619 66.99086 66.30352
# Shear Modulus (GPa) = 26.52484 28.72860 27.62672
#
# Velocity S-wave (km/s) = 3.61548 3.76268 3.68982
# Velocity P-wave (km/s) = 7.05445 7.20353 7.12938
#
# Compressibility (1/GPa) = 0.01524014
#
# Stress axis : x y z
#
# Youngs Moduli (GPa) = 91.75982 88.47600 78.16889
#
# Poissons Ratio (x) = 0.30461 0.32328
# Poissons Ratio (y) = 0.31591 0.17964
# Poissons Ratio (z) = 0.37949 0.20333
#
# Static dielectric constant tensor:
#      x y z
#    x 4.160900 0.000000 0.000000 
#    y 0.000000 3.658460 0.000000 
#    z 0.000000 0.000000 3.296830 
# 
# 
# High freq. dielectric constant tensor:
#      x y z
#    x 1.815130 0.000000 0.000000 
#    y 0.000000 1.765740 0.000000 
#    z 0.000000 0.000000 1.787530 
# 
# From -- ./inp_files/15131.got.cif
#   From: 2010.03.12/outbox.cif.g09.slc.cpg/sg74_8_cif.got.tgz:15131.got - 2010.04.16 15:46:19.
