data_PCOD8300764
_publ_section_title
;
Structure prediction by ZEFSAII (Michael W. Deem and Ramdas Pophale) SiO2 
 PCOD8300764
Probable space group: I M M A
;
_chemical_formula_sum "Si O2"
_cell_formula_units_Z 80
_cell_length_a 9.337404
_cell_length_b 18.545321
_cell_length_c 26.485565
_cell_angle_alpha 90.000000
_cell_angle_beta 90.000000
_cell_angle_gamma 90.000000
_cell_volume 4586.376955
_symmetry_space_group_name_H-M "I M M A"
_symmetry_group_IT_number 74
_symmetry_cell_setting 'orthorhombic'
loop_
_space_group_symop_operation_xyz
x,y,z
-x,1/2-y,z
x,-y,-z
-x,1/2+y,-z
-x,-y,-z
x,1/2+y,-z
-x,y,z
x,1/2-y,z
1/2+x,1/2+y,1/2+z
1/2-x,-y,1/2+z
1/2+x,1/2-y,1/2-z
1/2-x,y,1/2-z
1/2-x,1/2-y,1/2-z
1/2+x,y,1/2-z
1/2-x,1/2+y,1/2+z
1/2+x,-y,1/2+z
loop_
_atom_site_type_symbol
_atom_site_label
_atom_site_fract_x
_atom_site_fract_y
_atom_site_fract_z
Si Si1 0.163768 0.465548 0.861246
Si Si2 0.334506 0.830670 0.299304
Si Si3 0.162990 0.603058 0.799702
Si Si4 0.168221 0.832422 0.905290
Si Si5 0.167986 0.038377 0.447516
O O1 0.202810 0.384658 0.844633
O O2 0.183883 0.518986 0.813627
O O3 0.273006 0.484812 0.905142
O O4 0.000000 0.471455 0.881053
O O5 0.500000 0.835950 0.284853
O O6 0.291818 0.750000 0.316778
O O7 0.250000 0.854584 0.250000
O O8 0.250000 0.624127 0.750000
O O9 0.214572 0.650571 0.847643
O O10 0.000000 0.621301 0.786817
O O11 0.206045 0.750000 0.918369
O O12 0.253834 0.883966 0.943876
O O13 0.000000 0.848528 0.911766
O O14 0.000000 0.050622 0.439609
O O15 0.202929 0.000000 0.500000
#
# Coordination Sequence:
#
# PCOD8300764 Si02
#       5
#    16  16  16  16  16
#     4   9  18  32  49  69  96 130 167 206 244 289
#     4   9  17  29  46  70 100 132 165 202 245 292
#     4   9  17  28  44  69  99 130 163 197 233 277
#     4   9  19  36  55  75 101 132 165 200 238 285
#     4  10  21  36  54  76  99 124 159 205 253 296
#
# _framework density 17.442962000000001
#
# number of rings (size 3 to 8) (size 9 to 14) (size 15 to 20)
#    0.000    2.800    0.000    2.400    0.000    6.400 
#    0.000    1.000    0.000    3.600    0.000    0.000 
#    0.000    0.000    0.000    0.000    0.000    0.000 
#
# Total GULP energy -495945.890812 kJ/mol
# GULP energy per Si atom -12398.647270 kJ/mol
# Density = 1.740326 g / cm^3
# Si number density = 17.442962 Si / 1000 Ang^3
#
#
#
# Elastic Constant Matrix: (Units=GPa)
#
#
# Indices 1 2 3 4 5 6 
#
# 1 72.4203 53.6080 56.6804 0.0000 0.0000 0.0000
# 2 53.6080 129.9962 57.7804 0.0000 0.0000 0.0000
# 3 56.6804 57.7804 90.7698 0.0000 0.0000 0.0000
# 4 0.0000 0.0000 0.0000 16.4483 0.0000 0.0000
# 5 0.0000 0.0000 0.0000 0.0000 32.3693 0.0000
# 6 0.0000 0.0000 0.0000 0.0000 0.0000 21.2272
#
#
#
# Elastic Compliance Matrix: (Units=1/GPa)
#
#
# Indices 1 2 3 4 5 6 
#
# 1 0.029646 -0.005574 -0.014964 0.000000 0.000000 0.000000
# 2 -0.005574 0.011776 -0.004015 0.000000 0.000000 0.000000
# 3 -0.014964 -0.004015 0.022917 0.000000 0.000000 0.000000
# 4 0.000000 0.000000 0.000000 0.060797 0.000000 0.000000
# 5 0.000000 0.000000 0.000000 0.000000 0.030893 0.000000
# 6 0.000000 0.000000 0.000000 0.000000 0.000000 0.047109
#
#
# Mechanical properties :
#
#
# Convention : Reuss Voigt Hill
#
# Bulk Modulus (GPa) = 65.65102 69.92487 67.78794
# Shear Modulus (GPa) = 19.43081 22.35012 20.89047
#
# Velocity S-wave (km/s) = 3.34123 3.58344 3.46445
# Velocity P-wave (km/s) = 7.25288 7.56942 7.41284
#
# Compressibility (1/GPa) = 0.01523206
#
# Stress axis : x y z
#
# Youngs Moduli (GPa) = 33.73099 84.91846 43.63592
#
# Poissons Ratio (x) = 0.47337 0.65296
# Poissons Ratio (y) = 0.18803 0.17521
# Poissons Ratio (z) = 0.50475 0.34097
#
# Static dielectric constant tensor:
#      x y z
#    x 3.202460 0.000000 0.000000 
#    y 0.000000 3.417940 0.000000 
#    z 0.000000 0.000000 2.996600 
# 
# 
# High freq. dielectric constant tensor:
#      x y z
#    x 1.672130 0.000000 0.000000 
#    y 0.000000 1.680710 0.000000 
#    z 0.000000 0.000000 1.650600 
# 
# From -- ./inp_files/63914.got.cif
#   From: 2010.03.12/outbox.cif.g09.slc.cpg/sg74_32_cif.got.tgz:63914.got - 2010.04.16 15:46:19.
