data_PCOD8300181
_publ_section_title
;
Structure prediction by ZEFSAII (Michael W. Deem and Ramdas Pophale) SiO2 
 PCOD8300181
Probable space group: I M M A
;
_chemical_formula_sum "Si O2"
_cell_formula_units_Z 56
_cell_length_a 10.005610
_cell_length_b 33.297788
_cell_length_c 9.538606
_cell_angle_alpha 90.000000
_cell_angle_beta 90.000000
_cell_angle_gamma 90.000000
_cell_volume 3177.926621
_symmetry_space_group_name_H-M "I M M A"
_symmetry_group_IT_number 74
_symmetry_cell_setting 'orthorhombic'
loop_
_space_group_symop_operation_xyz
x,y,z
-x,1/2-y,z
x,-y,-z
-x,1/2+y,-z
-x,-y,-z
x,1/2+y,-z
-x,y,z
x,1/2-y,z
1/2+x,1/2+y,1/2+z
1/2-x,-y,1/2+z
1/2+x,1/2-y,1/2-z
1/2-x,y,1/2-z
1/2-x,1/2-y,1/2-z
1/2+x,y,1/2-z
1/2-x,1/2+y,1/2+z
1/2+x,-y,1/2+z
loop_
_atom_site_type_symbol
_atom_site_label
_atom_site_fract_x
_atom_site_fract_y
_atom_site_fract_z
Si Si1 0.500000 0.038990 0.407308
Si Si2 0.352445 0.750000 0.372488
Si Si3 0.000000 0.458352 0.418549
Si Si4 0.342598 0.162562 0.611975
Si Si5 0.745832 0.593617 0.587254
O O1 0.500000 0.028652 0.243355
O O2 0.372577 0.064090 0.450459
O O3 0.500000 0.000000 0.500000
O O4 0.500000 0.750000 0.304518
O O5 0.250000 0.750000 0.250000
O O6 0.333724 0.792180 0.455318
O O7 0.000000 0.500000 0.500000
O O8 0.123829 0.430496 0.460176
O O9 0.500000 0.151757 0.642155
O O10 0.250000 0.159078 0.750000
O O11 0.274668 0.134297 0.497642
O O12 0.750000 0.605535 0.750000
#
# Coordination Sequence:
#
# PCOD8300181 Si02
#       5
#     8   8   8  16  16
#     4  10  20  36  56  75 104 141 177 224 273 316
#     4   8  16  32  53  78 110 142 176 222 271 314
#     4  10  22  36  54  79 106 139 181 222 269 322
#     4  10  20  35  57  84 111 143 183 226 270 320
#     4  10  21  37  55  78 110 145 177 219 273 323
#
# _framework density 17.621552999999999
#
# number of rings (size 3 to 8) (size 9 to 14) (size 15 to 20)
#    0.000    2.286    1.429    0.857    2.000    2.286 
#    0.000    0.714    0.000    0.000    0.000    0.000 
#    0.000    0.000    0.000    0.000    0.000    0.000 
#
# Total GULP energy -346902.555391 kJ/mol
# GULP energy per Si atom -12389.376978 kJ/mol
# Density = 1.758145 g / cm^3
# Si number density = 17.621553 Si / 1000 Ang^3
#
#
#
# Elastic Constant Matrix: (Units=GPa)
#
#
# Indices 1 2 3 4 5 6 
#
# 1 147.6247 83.0204 44.5781 0.0027 -0.0007 -0.0006
# 2 83.0204 184.0637 82.6647 -0.0011 0.0006 0.0010
# 3 44.5781 82.6647 66.7833 -0.0079 0.0025 0.0011
# 4 0.0027 -0.0011 -0.0079 32.5110 0.0011 0.0012
# 5 -0.0007 0.0006 0.0025 0.0011 29.4958 -0.0016
# 6 -0.0006 0.0010 0.0011 0.0012 -0.0016 93.4823
#
#
#
# Elastic Compliance Matrix: (Units=1/GPa)
#
#
# Indices 1 2 3 4 5 6 
#
# 1 0.009226 -0.003143 -0.002269 -0.000001 0.000000 0.000000
# 2 -0.003143 0.013304 -0.014370 -0.000003 0.000001 0.000000
# 3 -0.002269 -0.014370 0.034276 0.000008 -0.000003 0.000000
# 4 -0.000001 -0.000003 0.000008 0.030759 -0.000001 0.000000
# 5 0.000000 0.000001 -0.000003 -0.000001 0.033903 0.000001
# 6 0.000000 0.000000 0.000000 0.000000 0.000001 0.010697
#
#
# Mechanical properties :
#
#
# Convention : Reuss Voigt Hill
#
# Bulk Modulus (GPa) = 57.99408 90.99978 74.49693
# Shear Modulus (GPa) = 28.17276 43.64505 35.90890
#
# Velocity S-wave (km/s) = 4.00280 4.98214 4.51908
# Velocity P-wave (km/s) = 7.37194 9.21135 8.34250
#
# Compressibility (1/GPa) = 0.01724314
#
# Stress axis : x y z
#
# Youngs Moduli (GPa) = 108.38570 75.16448 29.17503
#
# Poissons Ratio (x) = 0.23621 0.06619
# Poissons Ratio (y) = 0.34060 0.41925
# Poissons Ratio (z) = 0.24590 1.08014
#
# Static dielectric constant tensor:
#      x y z
#    x 3.620490 0.000000 0.000000 
#    y 0.000000 3.697870 0.000000 
#    z 0.000000 0.000000 3.016990 
# 
# 
# High freq. dielectric constant tensor:
#      x y z
#    x 1.707400 0.000000 0.000000 
#    y 0.000000 1.699400 0.000000 
#    z 0.000000 0.000000 1.646720 
# 
# From -- ./inp_files/7116.got.cif
#   From: 2010.03.12/outbox.cif.g09.slc.cpg/sg74_4_cif.got.tgz:7116.got - 2010.04.16 15:46:19.
