data_PCOD8300579
_publ_section_title
;
Structure prediction by ZEFSAII (Michael W. Deem and Ramdas Pophale) SiO2 
 PCOD8300579
Probable space group: I M M A
;
_chemical_formula_sum "Si O2"
_cell_formula_units_Z 112
_cell_length_a 28.600492
_cell_length_b 16.921496
_cell_length_c 11.685002
_cell_angle_alpha 90.000000
_cell_angle_beta 90.000000
_cell_angle_gamma 90.000000
_cell_volume 5655.109920
_symmetry_space_group_name_H-M "I M M A"
_symmetry_group_IT_number 74
_symmetry_cell_setting 'orthorhombic'
loop_
_space_group_symop_operation_xyz
x,y,z
-x,1/2-y,z
x,-y,-z
-x,1/2+y,-z
-x,-y,-z
x,1/2+y,-z
-x,y,z
x,1/2-y,z
1/2+x,1/2+y,1/2+z
1/2-x,-y,1/2+z
1/2+x,1/2-y,1/2-z
1/2-x,y,1/2-z
1/2-x,1/2-y,1/2-z
1/2+x,y,1/2-z
1/2-x,1/2+y,1/2+z
1/2+x,-y,1/2+z
loop_
_atom_site_type_symbol
_atom_site_label
_atom_site_fract_x
_atom_site_fract_y
_atom_site_fract_z
Si Si1 0.140387 0.584933 0.049188
Si Si2 0.629103 0.044441 0.800812
Si Si3 0.609228 0.660162 0.996790
Si Si4 0.788653 0.341327 0.110467
Si Si5 0.946823 0.415388 0.299708
Si Si6 0.689284 0.099758 0.148239
Si Si7 0.947092 0.659218 0.939225
O O1 0.146618 0.586518 0.185509
O O2 0.153627 0.500000 0.000000
O O3 0.177883 0.646526 0.998108
O O4 0.087568 0.606681 0.014814
O O5 0.612590 0.111191 0.887209
O O6 0.584506 0.991017 0.771267
O O7 0.670630 0.990807 0.855283
O O8 0.597600 0.750000 0.028921
O O9 0.568096 0.625569 0.917918
O O10 0.658365 0.655579 0.931601
O O11 0.773540 0.250000 0.118137
O O12 0.742331 0.395727 0.103162
O O13 0.816786 0.366802 0.223571
O O14 0.940155 0.354145 0.196019
O O15 0.000000 0.443765 0.312046
O O16 0.936114 0.750000 0.965171
O O17 0.000000 0.636767 0.975442
#
# Coordination Sequence:
#
# PCOD8300579 Si02
#       7
#    16  16  16  16  16  16  16
#     4  12  22  39  58  88 125 163 202 243 301 364
#     4  11  24  40  59  88 123 166 205 243 303 372
#     4  11  23  39  59  84 122 162 198 245 305 369
#     4  11  22  37  65  94 117 150 198 260 313 356
#     4  10  20  38  65  92 118 154 207 262 305 355
#     4  10  20  41  62  88 116 150 205 255 308 363
#     4  10  21  37  62  92 120 156 203 257 310 357
#
# _framework density 19.805097
#
# number of rings (size 3 to 8) (size 9 to 14) (size 15 to 20)
#    0.000    1.286    2.857    5.143    0.000    5.143 
#    0.000    0.000    0.000    1.714    0.000    0.000 
#    0.000    0.000    0.000    0.000    0.000    0.000 
#
# Total GULP energy -694643.177199 kJ/mol
# GULP energy per Si atom -12404.342450 kJ/mol
# Density = 1.976002 g / cm^3
# Si number density = 19.805097 Si / 1000 Ang^3
#
#
#
# Elastic Constant Matrix: (Units=GPa)
#
#
# Indices 1 2 3 4 5 6 
#
# 1 99.1410 19.6356 19.0288 0.0000 0.0000 0.0000
# 2 19.6356 74.3349 24.7255 0.0000 0.0000 0.0000
# 3 19.0288 24.7255 70.4447 0.0000 0.0000 0.0000
# 4 0.0000 0.0000 0.0000 29.1769 0.0000 0.0000
# 5 0.0000 0.0000 0.0000 0.0000 16.5897 0.0000
# 6 0.0000 0.0000 0.0000 0.0000 0.0000 19.3261
#
#
#
# Elastic Compliance Matrix: (Units=1/GPa)
#
#
# Indices 1 2 3 4 5 6 
#
# 1 0.010936 -0.002158 -0.002197 0.000000 0.000000 0.000000
# 2 -0.002158 0.015657 -0.004912 0.000000 0.000000 0.000000
# 3 -0.002197 -0.004912 0.016513 0.000000 0.000000 0.000000
# 4 0.000000 0.000000 0.000000 0.034274 0.000000 0.000000
# 5 0.000000 0.000000 0.000000 0.000000 0.060278 0.000000
# 6 0.000000 0.000000 0.000000 0.000000 0.000000 0.051743
#
#
# Mechanical properties :
#
#
# Convention : Reuss Voigt Hill
#
# Bulk Modulus (GPa) = 40.69766 41.18891 40.94328
# Shear Modulus (GPa) = 23.13474 25.05393 24.09433
#
# Velocity S-wave (km/s) = 3.42149 3.56058 3.49172
# Velocity P-wave (km/s) = 6.01685 6.14377 6.08064
#
# Compressibility (1/GPa) = 0.02457144
#
# Stress axis : x y z
#
# Youngs Moduli (GPa) = 91.44396 63.87057 60.55800
#
# Poissons Ratio (x) = 0.13784 0.13302
# Poissons Ratio (y) = 0.19734 0.29749
# Poissons Ratio (z) = 0.20086 0.31376
#
# Static dielectric constant tensor:
#      x y z
#    x 3.635410 0.000000 0.000000 
#    y 0.000000 3.492820 0.000000 
#    z 0.000000 0.000000 3.514160 
# 
# 
# High freq. dielectric constant tensor:
#      x y z
#    x 1.778110 0.000000 0.000000 
#    y 0.000000 1.766460 0.000000 
#    z 0.000000 0.000000 1.764850 
# 
# From -- ./inp_files/21163.got.cif
#   From: 2010.03.12/outbox.cif.g09.slc.cpg/sg74_11_cif.got.tgz:21163.got - 2010.04.16 15:46:19.
