data_PCOD8300121
_publ_section_title
;
Structure prediction by ZEFSAII (Michael W. Deem and Ramdas Pophale) SiO2 
 PCOD8300121
Probable space group: I M M A
;
_chemical_formula_sum "Si O2"
_cell_formula_units_Z 80
_cell_length_a 8.991058
_cell_length_b 27.872693
_cell_length_c 17.697637
_cell_angle_alpha 90.000000
_cell_angle_beta 90.000000
_cell_angle_gamma 90.000000
_cell_volume 4435.116309
_symmetry_space_group_name_H-M "I M M A"
_symmetry_group_IT_number 74
_symmetry_cell_setting 'orthorhombic'
loop_
_space_group_symop_operation_xyz
x,y,z
-x,1/2-y,z
x,-y,-z
-x,1/2+y,-z
-x,-y,-z
x,1/2+y,-z
-x,y,z
x,1/2-y,z
1/2+x,1/2+y,1/2+z
1/2-x,-y,1/2+z
1/2+x,1/2-y,1/2-z
1/2-x,y,1/2-z
1/2-x,1/2-y,1/2-z
1/2+x,y,1/2-z
1/2-x,1/2+y,1/2+z
1/2+x,-y,1/2+z
loop_
_atom_site_type_symbol
_atom_site_label
_atom_site_fract_x
_atom_site_fract_y
_atom_site_fract_z
Si Si1 0.336628 0.040787 0.437839
Si Si2 0.176670 0.959918 0.169257
Si Si3 0.324357 0.105907 0.954868
Si Si4 0.162032 0.806414 0.819857
Si Si5 0.323770 0.195317 0.487602
O O1 0.500000 0.064836 0.427369
O O2 0.219859 0.080809 0.465194
O O3 0.349930 0.000000 0.500000
O O4 0.285397 0.013702 0.361154
O O5 0.250000 0.953481 0.250000
O O6 0.245749 0.919794 0.114973
O O7 0.000000 0.951954 0.173106
O O8 0.500000 0.104135 0.944084
O O9 0.266307 0.160642 0.956309
O O10 0.147792 0.750000 0.806503
O O11 0.250000 0.830366 0.750000
O O12 0.233957 0.815579 0.902111
O O13 0.000000 0.830356 0.818095
O O14 0.500000 0.186387 0.493459
O O15 0.286163 0.250000 0.510237
#
# Coordination Sequence:
#
# PCOD8300121 Si02
#       5
#    16  16  16  16  16
#     4   8  16  32  52  73  99 131 163 199 247 300
#     4  10  20  35  56  80 106 135 168 208 255 308
#     4  11  21  32  51  78 106 136 172 213 255 304
#     4   8  14  25  42  63  86 115 153 198 247 294
#     4   9  18  33  51  70  97 137 181 221 262 307
#
# _framework density 18.037859000000001
#
# number of rings (size 3 to 8) (size 9 to 14) (size 15 to 20)
#    0.000    2.800    0.000    4.800    0.000    5.600 
#    0.000    3.000    0.000    0.600    0.000    0.000 
#    0.000    0.000    0.000    0.000    0.000    0.000 
#
# Total GULP energy -495675.629372 kJ/mol
# GULP energy per Si atom -12391.890734 kJ/mol
# Density = 1.799680 g / cm^3
# Si number density = 18.037859 Si / 1000 Ang^3
#
#
#
# Elastic Constant Matrix: (Units=GPa)
#
#
# Indices 1 2 3 4 5 6 
#
# 1 106.8476 50.4022 52.3311 0.0000 0.0000 0.0000
# 2 50.4022 87.3610 48.3577 0.0000 0.0000 0.0000
# 3 52.3311 48.3577 98.0141 0.0000 0.0000 -0.0001
# 4 0.0000 0.0000 0.0000 20.6940 0.0000 0.0000
# 5 0.0000 0.0000 0.0000 0.0000 30.0227 0.0000
# 6 0.0000 0.0000 -0.0001 0.0000 0.0000 21.4419
#
#
#
# Elastic Compliance Matrix: (Units=1/GPa)
#
#
# Indices 1 2 3 4 5 6 
#
# 1 0.014411 -0.005579 -0.004942 0.000000 0.000000 0.000000
# 2 -0.005579 0.017907 -0.005856 0.000000 0.000000 0.000000
# 3 -0.004942 -0.005856 0.015730 0.000000 0.000000 0.000000
# 4 0.000000 0.000000 0.000000 0.048323 0.000000 0.000000
# 5 0.000000 0.000000 0.000000 0.000000 0.033308 0.000000
# 6 0.000000 0.000000 0.000000 0.000000 0.000000 0.046638
#
#
# Mechanical properties :
#
#
# Convention : Reuss Voigt Hill
#
# Bulk Modulus (GPa) = 65.38196 66.04499 65.71347
# Shear Modulus (GPa) = 23.34594 23.84051 23.59322
#
# Velocity S-wave (km/s) = 3.60151 3.63945 3.62053
# Velocity P-wave (km/s) = 7.32258 7.37258 7.34762
#
# Compressibility (1/GPa) = 0.01529474
#
# Stress axis : x y z
#
# Youngs Moduli (GPa) = 69.39052 55.84359 63.57091
#
# Poissons Ratio (x) = 0.31155 0.31416
# Poissons Ratio (y) = 0.38712 0.37229
# Poissons Ratio (z) = 0.34292 0.32704
#
# Static dielectric constant tensor:
#      x y z
#    x 3.427990 0.000000 0.000000 
#    y 0.000000 3.253770 0.000000 
#    z 0.000000 0.000000 3.341780 
# 
# 
# High freq. dielectric constant tensor:
#      x y z
#    x 1.693420 0.000000 0.000000 
#    y 0.000000 1.681320 0.000000 
#    z 0.000000 0.000000 1.679850 
# 
# From -- ./inp_files/39731.got.cif
#   From: 2010.03.12/outbox.cif.g09.slc.cpg/sg74_20_cif.got.tgz:39731.got - 2010.04.16 15:46:19.
