data_PCOD8300042
_publ_section_title
;
Structure prediction by ZEFSAII (Michael W. Deem and Ramdas Pophale) SiO2 
 PCOD8300042
Probable space group: I M M A
;
_chemical_formula_sum "Si O2"
_cell_formula_units_Z 112
_cell_length_a 27.235001
_cell_length_b 21.345878
_cell_length_c 11.321363
_cell_angle_alpha 90.000000
_cell_angle_beta 90.000000
_cell_angle_gamma 90.000000
_cell_volume 6581.731085
_symmetry_space_group_name_H-M "I M M A"
_symmetry_group_IT_number 74
_symmetry_cell_setting 'orthorhombic'
loop_
_space_group_symop_operation_xyz
x,y,z
-x,1/2-y,z
x,-y,-z
-x,1/2+y,-z
-x,-y,-z
x,1/2+y,-z
-x,y,z
x,1/2-y,z
1/2+x,1/2+y,1/2+z
1/2-x,-y,1/2+z
1/2+x,1/2-y,1/2-z
1/2-x,y,1/2-z
1/2-x,1/2-y,1/2-z
1/2+x,y,1/2-z
1/2-x,1/2+y,1/2+z
1/2+x,-y,1/2+z
loop_
_atom_site_type_symbol
_atom_site_label
_atom_site_fract_x
_atom_site_fract_y
_atom_site_fract_z
Si Si1 0.154589 0.973569 0.313156
Si Si2 0.807551 0.081590 0.474541
Si Si3 0.145954 0.177914 0.053287
Si Si4 0.198337 0.061892 0.934556
Si Si5 0.055699 0.990320 0.189789
Si Si6 0.554599 0.103848 0.483204
Si Si7 0.198600 0.178435 0.291360
O O1 0.153339 0.922380 0.418701
O O2 0.185997 0.947892 0.202962
O O3 0.097566 0.989167 0.289006
O O4 0.182881 0.033424 0.367156
O O5 0.755490 0.067935 0.536653
O O6 0.814992 0.149239 0.417356
O O7 0.158078 0.250000 0.015751
O O8 0.088570 0.164302 0.035504
O O9 0.157937 0.167619 0.191279
O O10 0.174823 0.127312 0.975829
O O11 0.176142 0.000000 0.000000
O O12 0.000000 0.982281 0.240671
O O13 0.059571 0.056708 0.125732
O O14 0.068462 0.933508 0.101706
O O15 0.500000 0.130812 0.492161
O O16 0.207357 0.250000 0.321066
O O17 0.250000 0.147485 0.250000
#
# Coordination Sequence:
#
# PCOD8300042 Si02
#       7
#    16  16  16  16  16  16  16
#     4  11  22  34  51  81 111 138 177 230 262 317
#     4  11  23  33  51  77 106 143 190 216 264 314
#     4  11  22  34  55  83 109 140 176 219 274 323
#     4  12  21  34  53  77 109 144 178 222 266 320
#     4   9  17  32  56  82 107 139 174 217 275 323
#     4   9  17  32  54  82 110 136 170 217 274 326
#     4  10  20  35  53  72 102 141 179 220 266 322
#
# _framework density 17.0168
#
# number of rings (size 3 to 8) (size 9 to 14) (size 15 to 20)
#    0.000    1.571    4.286    3.857    0.000    0.286 
#    0.000    2.143    0.000    2.571    0.000    0.000 
#    0.000    0.000    0.000    0.000    0.000    0.000 
#
# Total GULP energy -694000.498382 kJ/mol
# GULP energy per Si atom -12392.866043 kJ/mol
# Density = 1.697807 g / cm^3
# Si number density = 17.016800 Si / 1000 Ang^3
#
#
#
# Elastic Constant Matrix: (Units=GPa)
#
#
# Indices 1 2 3 4 5 6 
#
# 1 100.7787 36.5898 37.3969 0.0000 0.0000 0.0000
# 2 36.5898 84.3661 48.8561 0.0000 0.0000 0.0000
# 3 37.3969 48.8561 101.2522 0.0000 0.0000 0.0000
# 4 0.0000 0.0000 0.0000 29.7835 0.0000 0.0000
# 5 0.0000 0.0000 0.0000 0.0000 23.4274 0.0000
# 6 0.0000 0.0000 0.0000 0.0000 0.0000 23.3975
#
#
#
# Elastic Compliance Matrix: (Units=1/GPa)
#
#
# Indices 1 2 3 4 5 6 
#
# 1 0.012299 -0.003752 -0.002732 0.000000 0.000000 0.000000
# 2 -0.003752 0.017594 -0.007104 0.000000 0.000000 0.000000
# 3 -0.002732 -0.007104 0.014313 0.000000 0.000000 0.000000
# 4 0.000000 0.000000 0.000000 0.033576 0.000000 0.000000
# 5 0.000000 0.000000 0.000000 0.000000 0.042685 0.000000
# 6 0.000000 0.000000 0.000000 0.000000 0.000000 0.042740
#
#
# Mechanical properties :
#
#
# Convention : Reuss Voigt Hill
#
# Bulk Modulus (GPa) = 58.71823 59.12028 58.91925
# Shear Modulus (GPa) = 25.50258 26.22528 25.86393
#
# Velocity S-wave (km/s) = 3.87547 3.93000 3.90283
# Velocity P-wave (km/s) = 7.38963 7.44385 7.41679
#
# Compressibility (1/GPa) = 0.01703049
#
# Stress axis : x y z
#
# Youngs Moduli (GPa) = 81.30903 56.83746 69.86597
#
# Poissons Ratio (x) = 0.21324 0.19088
# Poissons Ratio (y) = 0.30506 0.49631
# Poissons Ratio (z) = 0.22215 0.40376
#
# Static dielectric constant tensor:
#      x y z
#    x 3.350840 0.000000 0.000000 
#    y 0.000000 3.141570 0.000000 
#    z 0.000000 0.000000 3.198250 
# 
# 
# High freq. dielectric constant tensor:
#      x y z
#    x 1.659960 0.000000 0.000000 
#    y 0.000000 1.644170 0.000000 
#    z 0.000000 0.000000 1.643330 
# 
# From -- ./inp_files/26479.got.cif
#   From: 2010.03.12/outbox.cif.g09.slc.cpg/sg74_14_cif.got.tgz:26479.got - 2010.04.16 15:46:19.
