data_PCOD8300142
_publ_section_title
;
Structure prediction by ZEFSAII (Michael W. Deem and Ramdas Pophale) SiO2 
 PCOD8300142
Probable space group: I M M A
;
_chemical_formula_sum "Si O2"
_cell_formula_units_Z 72
_cell_length_a 9.026328
_cell_length_b 14.355382
_cell_length_c 29.831631
_cell_angle_alpha 90.000000
_cell_angle_beta 90.000000
_cell_angle_gamma 90.000000
_cell_volume 3865.474948
_symmetry_space_group_name_H-M "I M M A"
_symmetry_group_IT_number 74
_symmetry_cell_setting 'orthorhombic'
loop_
_space_group_symop_operation_xyz
x,y,z
-x,1/2-y,z
x,-y,-z
-x,1/2+y,-z
-x,-y,-z
x,1/2+y,-z
-x,y,z
x,1/2-y,z
1/2+x,1/2+y,1/2+z
1/2-x,-y,1/2+z
1/2+x,1/2-y,1/2-z
1/2-x,y,1/2-z
1/2-x,1/2-y,1/2-z
1/2+x,y,1/2-z
1/2-x,1/2+y,1/2+z
1/2+x,-y,1/2+z
loop_
_atom_site_type_symbol
_atom_site_label
_atom_site_fract_x
_atom_site_fract_y
_atom_site_fract_z
Si Si1 0.325737 0.750000 0.584542
Si Si2 0.169537 0.750000 0.490337
Si Si3 0.669355 0.750000 0.203865
Si Si4 0.825460 0.547703 0.298346
Si Si5 0.324949 0.445351 0.376606
Si Si6 0.170643 0.051916 0.545852
O O1 0.500000 0.750000 0.579838
O O2 0.265824 0.750000 0.534586
O O3 0.271670 0.658772 0.611129
O O4 0.204239 0.839053 0.459783
O O5 0.000000 0.750000 0.506546
O O6 0.500000 0.750000 0.217326
O O7 0.750000 0.750000 0.250000
O O8 0.705658 0.651327 0.179411
O O9 0.750000 0.539212 0.250000
O O10 0.754371 0.470947 0.330353
O O11 0.000000 0.528736 0.293579
O O12 0.500000 0.451969 0.370113
O O13 0.277046 0.515464 0.415579
O O14 0.000000 0.033638 0.559442
O O15 0.210263 0.000000 0.500000
#
# Coordination Sequence:
#
# PCOD8300142 Si02
#       6
#     8   8   8  16  16  16
#     4  10  22  38  56  78 108 147 190 235 282 333
#     4  10  20  35  57  83 113 147 186 231 280 335
#     4   8  16  31  54  81 109 142 176 214 267 326
#     4  10  20  37  60  86 116 149 186 230 278 331
#     4  11  23  38  57  82 112 148 190 234 282 335
#     4  10  20  35  56  82 111 144 184 229 277 330
#
# _framework density 18.626431
#
# number of rings (size 3 to 8) (size 9 to 14) (size 15 to 20)
#    0.000    2.000    2.222    1.333    0.000    4.000 
#    0.000    5.000    0.000    0.000    0.000    0.000 
#    0.000    0.000    0.000    0.000    0.000    0.000 
#
# Total GULP energy -446286.428147 kJ/mol
# GULP energy per Si atom -12396.845226 kJ/mol
# Density = 1.858404 g / cm^3
# Si number density = 18.626431 Si / 1000 Ang^3
#
#
#
# Elastic Constant Matrix: (Units=GPa)
#
#
# Indices 1 2 3 4 5 6 
#
# 1 50.3337 31.5409 37.7818 0.0000 0.0000 0.0000
# 2 31.5409 136.1842 55.8888 0.0000 0.0000 0.0000
# 3 37.7818 55.8888 93.5359 0.0000 0.0000 0.0000
# 4 0.0000 0.0000 0.0000 511.6775 0.0000 0.0000
# 5 0.0000 0.0000 0.0000 0.0000 37.1396 0.0000
# 6 0.0000 0.0000 0.0000 0.0000 0.0000 20.2412
#
#
#
# Elastic Compliance Matrix: (Units=1/GPa)
#
#
# Indices 1 2 3 4 5 6 
#
# 1 0.029163 -0.002544 -0.010260 0.000000 0.000000 0.000000
# 2 -0.002544 0.009950 -0.004918 0.000000 0.000000 0.000000
# 3 -0.010260 -0.004918 0.017774 0.000000 0.000000 0.000000
# 4 0.000000 0.000000 0.000000 0.001954 0.000000 0.000000
# 5 0.000000 0.000000 0.000000 0.000000 0.026925 0.000000
# 6 0.000000 0.000000 0.000000 0.000000 0.000000 0.049404
#
#
# Mechanical properties :
#
#
# Convention : Reuss Voigt Hill
#
# Bulk Modulus (GPa) = 46.63310 58.94187 52.78748
# Shear Modulus (GPa) = 28.12755 124.13449 76.13102
#
# Velocity S-wave (km/s) = 3.89020 8.17245 6.40010
# Velocity P-wave (km/s) = 6.72819 10.98931 9.11135
#
# Compressibility (1/GPa) = 0.02144400
#
# Stress axis : x y z
#
# Youngs Moduli (GPa) = 34.29057 100.49805 56.26249
#
# Poissons Ratio (x) = 0.25564 0.57723
# Poissons Ratio (y) = 0.08722 0.27670
# Poissons Ratio (z) = 0.35181 0.49425
#
# Static dielectric constant tensor:
#      x y z
#    x 3.407250 0.000000 0.000000 
#    y 0.000000 4.009040 0.000000 
#    z 0.000000 0.000000 3.169980 
# 
# 
# High freq. dielectric constant tensor:
#      x y z
#    x 1.725970 0.000000 0.000000 
#    y 0.000000 1.737690 0.000000 
#    z 0.000000 0.000000 1.706080 
# 
# From -- ./inp_files/63646.got.cif
#   From: 2010.03.12/outbox.cif.g09.slc.cpg/sg74_32_cif.got.tgz:63646.got - 2010.04.16 15:46:19.
