data_PCOD8300795
_publ_section_title
;
Structure prediction by ZEFSAII (Michael W. Deem and Ramdas Pophale) SiO2 
 PCOD8300795
Probable space group: I M M A
;
_chemical_formula_sum "Si O2"
_cell_formula_units_Z 88
_cell_length_a 34.191684
_cell_length_b 11.816635
_cell_length_c 11.001889
_cell_angle_alpha 90.000000
_cell_angle_beta 90.000000
_cell_angle_gamma 90.000000
_cell_volume 4445.100362
_symmetry_space_group_name_H-M "I M M A"
_symmetry_group_IT_number 74
_symmetry_cell_setting 'orthorhombic'
loop_
_space_group_symop_operation_xyz
x,y,z
-x,1/2-y,z
x,-y,-z
-x,1/2+y,-z
-x,-y,-z
x,1/2+y,-z
-x,y,z
x,1/2-y,z
1/2+x,1/2+y,1/2+z
1/2-x,-y,1/2+z
1/2+x,1/2-y,1/2-z
1/2-x,y,1/2-z
1/2-x,1/2-y,1/2-z
1/2+x,y,1/2-z
1/2-x,1/2+y,1/2+z
1/2+x,-y,1/2+z
loop_
_atom_site_type_symbol
_atom_site_label
_atom_site_fract_x
_atom_site_fract_y
_atom_site_fract_z
Si Si1 0.725340 0.379274 0.640211
Si Si2 0.346385 0.878693 0.853147
Si Si3 0.929628 0.877522 0.268255
Si Si4 0.000000 0.387852 0.910850
Si Si5 0.359638 0.020089 0.634355
Si Si6 0.908610 0.000000 0.500000
Si Si7 0.215985 0.000000 0.500000
O O1 0.716323 0.250000 0.666598
O O2 0.750000 0.435115 0.750000
O O3 0.684069 0.436558 0.617627
O O4 0.754939 0.394935 0.527300
O O5 0.332821 0.750000 0.863278
O O6 0.310826 0.962576 0.886797
O O7 0.359153 0.905024 0.714263
O O8 0.381787 0.898821 0.947284
O O9 0.934433 0.750000 0.311649
O O10 0.962042 0.909532 0.170133
O O11 0.886976 0.892374 0.207145
O O12 0.935027 0.952672 0.389876
O O13 0.000000 0.250000 0.958000
O O14 0.000000 0.500000 0.000000
O O15 0.377439 0.000000 0.500000
#
# Coordination Sequence:
#
# PCOD8300795 Si02
#       7
#    16  16  16   8  16   8   8
#     4  11  22  36  53  75 107 148 190 235 289 347
#     4  10  21  36  56  80 112 152 191 242 294 344
#     4  10  21  39  64  90 120 159 197 244 300 359
#     4  10  22  43  68  98 132 167 207 246 299 366
#     4  11  22  38  55  80 114 148 199 241 291 354
#     4   9  20  37  60  89 120 150 196 241 288 357
#     4  11  20  38  54  79 106 144 192 243 292 356
#
# _framework density 19.797077999999999
#
# number of rings (size 3 to 8) (size 9 to 14) (size 15 to 20)
#    0.000    1.636    2.727    2.182    0.000    1.818 
#    0.000    7.273    0.000    0.000    0.000    0.000 
#    0.000    0.000    0.000    0.000    0.000    0.000 
#
# Total GULP energy -545143.020944 kJ/mol
# GULP energy per Si atom -12389.614112 kJ/mol
# Density = 1.975202 g / cm^3
# Si number density = 19.797078 Si / 1000 Ang^3
#
#
#
# Elastic Constant Matrix: (Units=GPa)
#
#
# Indices 1 2 3 4 5 6 
#
# 1 82.7626 34.7762 31.6327 0.0000 0.0000 0.0000
# 2 34.7762 103.7579 43.7489 0.0000 0.0000 0.0000
# 3 31.6327 43.7489 121.5798 0.0000 0.0000 0.0000
# 4 0.0000 0.0000 0.0000 24.2533 0.0000 0.0000
# 5 0.0000 0.0000 0.0000 0.0000 30.8570 0.0000
# 6 0.0000 0.0000 0.0000 0.0000 0.0000 23.9814
#
#
#
# Elastic Compliance Matrix: (Units=1/GPa)
#
#
# Indices 1 2 3 4 5 6 
#
# 1 0.014638 -0.003891 -0.002409 0.000000 0.000000 0.000000
# 2 -0.003891 0.012396 -0.003448 0.000000 0.000000 0.000000
# 3 -0.002409 -0.003448 0.010092 0.000000 0.000000 0.000000
# 4 0.000000 0.000000 0.000000 0.041232 0.000000 0.000000
# 5 0.000000 0.000000 0.000000 0.000000 0.032408 0.000000
# 6 0.000000 0.000000 0.000000 0.000000 0.000000 0.041699
#
#
# Mechanical properties :
#
#
# Convention : Reuss Voigt Hill
#
# Bulk Modulus (GPa) = 56.71635 58.71287 57.71461
# Shear Modulus (GPa) = 28.11571 29.01450 28.56510
#
# Velocity S-wave (km/s) = 3.77264 3.83246 3.80267
# Velocity P-wave (km/s) = 6.90566 7.02178 6.96396
#
# Compressibility (1/GPa) = 0.01763160
#
# Stress axis : x y z
#
# Youngs Moduli (GPa) = 68.31460 80.67286 99.08360
#
# Poissons Ratio (x) = 0.31387 0.23865
# Poissons Ratio (y) = 0.26579 0.34166
# Poissons Ratio (z) = 0.16454 0.27817
#
# Static dielectric constant tensor:
#      x y z
#    x 3.559770 0.000000 0.000000 
#    y 0.000000 3.502600 0.000000 
#    z 0.000000 0.000000 3.797220 
# 
# 
# High freq. dielectric constant tensor:
#      x y z
#    x 1.768680 0.000000 0.000000 
#    y 0.000000 1.758080 0.000000 
#    z 0.000000 0.000000 1.776270 
# 
# From -- ./inp_files/27017.got.cif
#   From: 2010.03.12/outbox.cif.g09.slc.cpg/sg74_14_cif.got.tgz:27017.got - 2010.04.16 15:46:19.
