data_PCOD8300560
_publ_section_title
;
Structure prediction by ZEFSAII (Michael W. Deem and Ramdas Pophale) SiO2 
 PCOD8300560
Probable space group: I M M A
;
_chemical_formula_sum "Si O2"
_cell_formula_units_Z 72
_cell_length_a 17.222941
_cell_length_b 26.496220
_cell_length_c 8.341593
_cell_angle_alpha 90.000000
_cell_angle_beta 90.000000
_cell_angle_gamma 90.000000
_cell_volume 3806.626188
_symmetry_space_group_name_H-M "I M M A"
_symmetry_group_IT_number 74
_symmetry_cell_setting 'orthorhombic'
loop_
_space_group_symop_operation_xyz
x,y,z
-x,1/2-y,z
x,-y,-z
-x,1/2+y,-z
-x,-y,-z
x,1/2+y,-z
-x,y,z
x,1/2-y,z
1/2+x,1/2+y,1/2+z
1/2-x,-y,1/2+z
1/2+x,1/2-y,1/2-z
1/2-x,y,1/2-z
1/2-x,1/2-y,1/2-z
1/2+x,y,1/2-z
1/2-x,1/2+y,1/2+z
1/2+x,-y,1/2+z
loop_
_atom_site_type_symbol
_atom_site_label
_atom_site_fract_x
_atom_site_fract_y
_atom_site_fract_z
Si Si1 0.500000 0.396590 0.403566
Si Si2 0.628438 0.547750 0.406967
Si Si3 0.000000 0.864296 0.550615
Si Si4 0.250000 0.878957 0.250000
Si Si5 0.000000 0.462256 0.649246
Si Si6 0.000000 0.694363 0.122687
Si Si7 0.372869 0.191642 0.888558
O O1 0.575858 0.424925 0.462280
O O2 0.500000 0.395802 0.212774
O O3 0.500000 0.340044 0.467983
O O4 0.665740 0.500000 0.500000
O O5 0.695993 0.585232 0.355398
O O6 0.577129 0.529269 0.255414
O O7 0.000000 0.904114 0.404781
O O8 0.923540 0.829020 0.537834
O O9 0.296572 0.842563 0.128711
O O10 0.000000 0.500000 0.500000
O O11 0.923529 0.685258 0.228229
O O12 0.000000 0.750000 0.051119
O O13 0.350099 0.250000 0.919380
#
# Coordination Sequence:
#
# PCOD8300560 Si02
#       7
#     8  16   8   8   8   8  16
#     4  11  20  40  62  87 122 151 202 248 295 337
#     4  11  23  40  60  89 119 156 201 246 298 357
#     4  11  20  37  63  89 117 154 204 254 285 344
#     4  12  21  40  62  86 128 154 197 240 302 372
#     4  11  20  39  66  86 115 154 210 250 294 341
#     4   9  17  34  62  88 113 151 206 247 284 339
#     4  10  20  38  63  89 116 159 203 246 294 350
#
# _framework density 18.914387000000001
#
# number of rings (size 3 to 8) (size 9 to 14) (size 15 to 20)
#    0.000    1.333    4.444    5.333    0.000    1.778 
#    4.000    0.000    0.000    1.333    0.000    0.000 
#    0.000    0.000    0.000    0.000    0.000    0.000 
#
# Total GULP energy -446441.952693 kJ/mol
# GULP energy per Si atom -12401.165353 kJ/mol
# Density = 1.887134 g / cm^3
# Si number density = 18.914387 Si / 1000 Ang^3
#
#
#
# Elastic Constant Matrix: (Units=GPa)
#
#
# Indices 1 2 3 4 5 6 
#
# 1 118.3893 60.8821 36.7438 0.0000 0.0000 0.0000
# 2 60.8821 146.9322 48.4930 0.0000 0.0000 0.0000
# 3 36.7438 48.4930 91.6067 -0.0002 0.0001 0.0003
# 4 0.0000 0.0000 -0.0002 38.9995 0.0000 0.0000
# 5 0.0000 0.0000 0.0001 0.0000 -4.8785 0.0000
# 6 0.0000 0.0000 0.0003 0.0000 0.0000 28.0273
#
#
#
# Elastic Compliance Matrix: (Units=1/GPa)
#
#
# Indices 1 2 3 4 5 6 
#
# 1 0.011174 -0.003818 -0.002461 0.000000 0.000000 0.000000
# 2 -0.003818 0.009551 -0.003525 0.000000 0.000000 0.000000
# 3 -0.002461 -0.003525 0.013769 0.000000 0.000000 0.000000
# 4 0.000000 0.000000 0.000000 0.025641 0.000000 0.000000
# 5 0.000000 0.000000 0.000000 0.000000 -0.204981 0.000000
# 6 0.000000 0.000000 0.000000 0.000000 0.000000 0.035679
#
#
# Mechanical properties :
#
#
# Convention : Reuss Voigt Hill
#
# Bulk Modulus (GPa) = 67.17090 72.12956 69.65023
# Shear Modulus (GPa) = -59.10328 26.48362 -16.30983
#
# Velocity S-wave (km/s) = -5.59604 3.74596 -2.93968
# Velocity P-wave (km/s) = 2.48273 7.54501 5.03802
#
# Compressibility (1/GPa) = 0.01488740
#
# Stress axis : x y z
#
# Youngs Moduli (GPa) = 89.49544 104.70093 72.62633
#
# Poissons Ratio (x) = 0.39972 0.17872
# Poissons Ratio (y) = 0.34167 0.25598
# Poissons Ratio (z) = 0.22024 0.36903
#
# Static dielectric constant tensor:
#      x y z
#    x 3.343680 0.000000 0.000000 
#    y 0.000000 3.769000 0.000000 
#    z 0.000000 0.000000 3.201520 
# 
# 
# High freq. dielectric constant tensor:
#      x y z
#    x 1.721950 0.000000 0.000000 
#    y 0.000000 1.763510 0.000000 
#    z 0.000000 0.000000 1.711280 
# 
# From -- ./inp_files/10744.got.cif
#   From: 2010.03.12/outbox.cif.g09.slc.cpg/sg74_6_cif.got.tgz:10744.got - 2010.04.16 15:46:19.
