data_PCOD8300086
_publ_section_title
;
Structure prediction by ZEFSAII (Michael W. Deem and Ramdas Pophale) SiO2 
 PCOD8300086
Probable space group: I M M A
;
_chemical_formula_sum "Si O2"
_cell_formula_units_Z 96
_cell_length_a 9.126457
_cell_length_b 23.015110
_cell_length_c 25.310736
_cell_angle_alpha 90.000000
_cell_angle_beta 90.000000
_cell_angle_gamma 90.000000
_cell_volume 5316.429276
_symmetry_space_group_name_H-M "I M M A"
_symmetry_group_IT_number 74
_symmetry_cell_setting 'orthorhombic'
loop_
_space_group_symop_operation_xyz
x,y,z
-x,1/2-y,z
x,-y,-z
-x,1/2+y,-z
-x,-y,-z
x,1/2+y,-z
-x,y,z
x,1/2-y,z
1/2+x,1/2+y,1/2+z
1/2-x,-y,1/2+z
1/2+x,1/2-y,1/2-z
1/2-x,y,1/2-z
1/2-x,1/2-y,1/2-z
1/2+x,y,1/2-z
1/2-x,1/2+y,1/2+z
1/2+x,-y,1/2+z
loop_
_atom_site_type_symbol
_atom_site_label
_atom_site_fract_x
_atom_site_fract_y
_atom_site_fract_z
Si Si1 0.671580 0.183190 0.303059
Si Si2 0.328403 0.183195 0.695656
Si Si3 0.331921 0.117003 0.405628
Si Si4 0.667961 0.989493 0.439571
Si Si5 0.170540 0.184790 0.495273
Si Si6 0.328807 0.620572 0.101768
O O1 0.500000 0.174771 0.294376
O O2 0.711890 0.250000 0.315612
O O3 0.750000 0.161575 0.250000
O O4 0.730816 0.143858 0.351285
O O5 0.500000 0.170842 0.701640
O O6 0.297196 0.250000 0.680342
O O7 0.250000 0.166982 0.750000
O O8 0.262251 0.141564 0.651677
O O9 0.500000 0.135588 0.411851
O O10 0.249428 0.141932 0.455720
O O11 0.313173 0.047799 0.405193
O O12 0.500000 0.967188 0.437731
O O13 0.776135 0.943324 0.413935
O O14 0.715374 0.000000 0.500000
O O15 0.231019 0.250000 0.488211
O O16 0.203746 0.165138 0.554643
O O17 0.000000 0.181724 0.482627
O O18 0.500000 0.618397 0.115907
#
# Coordination Sequence:
#
# PCOD8300086 Si02
#       6
#    16  16  16  16  16  16
#     4   9  18  33  53  77 104 135 171 213 264 319
#     4  10  21  38  61  87 115 148 186 230 282 337
#     4  10  20  35  55  78 105 139 181 226 272 323
#     4  10  20  36  56  78 108 147 188 230 277 327
#     4  10  21  34  50  77 111 142 174 220 275 329
#     4  11  22  36  56  81 113 149 188 229 274 332
#
# _framework density 18.057233
#
# number of rings (size 3 to 8) (size 9 to 14) (size 15 to 20)
#    0.000    2.000    1.667    2.000    0.000    5.000 
#    0.000    2.500    0.000    2.000    0.000    0.000 
#    0.000    0.000    0.000    0.000    0.000    0.000 
#
# Total GULP energy -595388.599329 kJ/mol
# GULP energy per Si atom -12403.929153 kJ/mol
# Density = 1.801613 g / cm^3
# Si number density = 18.057233 Si / 1000 Ang^3
#
#
#
# Elastic Constant Matrix: (Units=GPa)
#
#
# Indices 1 2 3 4 5 6 
#
# 1 72.0282 38.7736 57.1646 0.0000 0.0000 0.0000
# 2 38.7736 75.8162 38.0003 0.0000 0.0000 0.0000
# 3 57.1646 38.0003 106.1851 0.0000 0.0000 0.0000
# 4 0.0000 0.0000 0.0000 22.2715 0.0000 0.0000
# 5 0.0000 0.0000 0.0000 0.0000 34.4914 0.0000
# 6 0.0000 0.0000 0.0000 0.0000 0.0000 30.6797
#
#
#
# Elastic Compliance Matrix: (Units=1/GPa)
#
#
# Indices 1 2 3 4 5 6 
#
# 1 0.027885 -0.008209 -0.012074 0.000000 0.000000 0.000000
# 2 -0.008209 0.018489 -0.002197 0.000000 0.000000 0.000000
# 3 -0.012074 -0.002197 0.016704 0.000000 0.000000 0.000000
# 4 0.000000 0.000000 0.000000 0.044900 0.000000 0.000000
# 5 0.000000 0.000000 0.000000 0.000000 0.028993 0.000000
# 6 0.000000 0.000000 0.000000 0.000000 0.000000 0.032595
#
#
# Mechanical properties :
#
#
# Convention : Reuss Voigt Hill
#
# Bulk Modulus (GPa) = 55.19619 57.98963 56.59291
# Shear Modulus (GPa) = 22.66887 25.49457 24.08172
#
# Velocity S-wave (km/s) = 3.54699 3.76157 3.65586
# Velocity P-wave (km/s) = 6.88539 7.14492 7.01636
#
# Compressibility (1/GPa) = 0.01811719
#
# Stress axis : x y z
#
# Youngs Moduli (GPa) = 35.86157 54.08492 59.86597
#
# Poissons Ratio (x) = 0.44399 0.72283
# Poissons Ratio (y) = 0.29439 0.13155
# Poissons Ratio (z) = 0.43300 0.11885
#
# Static dielectric constant tensor:
#      x y z
#    x 3.345690 0.000000 0.000000 
#    y 0.000000 3.358430 0.000000 
#    z 0.000000 0.000000 3.354980 
# 
# 
# High freq. dielectric constant tensor:
#      x y z
#    x 1.700090 0.000000 0.000000 
#    y 0.000000 1.698040 0.000000 
#    z 0.000000 0.000000 1.701260 
# 
# From -- ./inp_files/57241.got.cif
#   From: 2010.03.12/outbox.cif.g09.slc.cpg/sg74_29_cif.got.tgz:57241.got - 2010.04.16 15:46:19.
