data_PCOD8300133
_publ_section_title
;
Structure prediction by ZEFSAII (Michael W. Deem and Ramdas Pophale) SiO2 
 PCOD8300133
Probable space group: I M M A
;
_chemical_formula_sum "Si O2"
_cell_formula_units_Z 64
_cell_length_a 18.022638
_cell_length_b 19.301431
_cell_length_c 9.758782
_cell_angle_alpha 90.000000
_cell_angle_beta 90.000000
_cell_angle_gamma 90.000000
_cell_volume 3394.716292
_symmetry_space_group_name_H-M "I M M A"
_symmetry_group_IT_number 74
_symmetry_cell_setting 'orthorhombic'
loop_
_space_group_symop_operation_xyz
x,y,z
-x,1/2-y,z
x,-y,-z
-x,1/2+y,-z
-x,-y,-z
x,1/2+y,-z
-x,y,z
x,1/2-y,z
1/2+x,1/2+y,1/2+z
1/2-x,-y,1/2+z
1/2+x,1/2-y,1/2-z
1/2-x,y,1/2-z
1/2-x,1/2-y,1/2-z
1/2+x,y,1/2-z
1/2-x,1/2+y,1/2+z
1/2+x,-y,1/2+z
loop_
_atom_site_type_symbol
_atom_site_label
_atom_site_fract_x
_atom_site_fract_y
_atom_site_fract_z
Si Si1 0.193887 0.170664 0.866176
Si Si2 0.587283 0.454016 0.630484
Si Si3 0.822138 0.028610 0.347921
Si Si4 0.702160 0.823243 0.881354
O O1 0.168655 0.250000 0.838126
O O2 0.250000 0.143509 0.750000
O O3 0.121895 0.122523 0.874909
O O4 0.237561 0.161454 0.004584
O O5 0.613092 0.500000 0.500000
O O6 0.500000 0.444048 0.630509
O O7 0.610730 0.489607 0.773582
O O8 0.750000 0.022629 0.250000
O O9 0.849094 0.108935 0.365049
O O10 0.805038 0.000000 0.500000
O O11 0.658160 0.750000 0.911996
O O12 0.750000 0.810348 0.750000
#
# Coordination Sequence:
#
# PCOD8300133 Si02
#       4
#    16  16  16  16
#     4  10  20  35  56  81 106 135 176 224 273 323
#     4  11  23  37  53  77 111 149 186 222 263 316
#     4  11  20  33  56  80 106 139 179 225 274 321
#     4   9  17  29  49  76 102 129 167 217 267 312
#
# _framework density 18.852827999999999
#
# number of rings (size 3 to 8) (size 9 to 14) (size 15 to 20)
#    0.000    1.750    0.000    7.500    0.000    1.000 
#    0.000    0.000    0.000    2.250    0.000    0.000 
#    0.000    0.000    0.000    0.000    0.000    0.000 
#
# Total GULP energy -396504.679061 kJ/mol
# GULP energy per Si atom -12390.771221 kJ/mol
# Density = 1.880992 g / cm^3
# Si number density = 18.852828 Si / 1000 Ang^3
#
#
#
# Elastic Constant Matrix: (Units=GPa)
#
#
# Indices 1 2 3 4 5 6 
#
# 1 58.0951 27.2144 38.2662 0.0000 0.0000 0.0000
# 2 27.2144 120.3719 40.6055 0.0000 0.0000 0.0000
# 3 38.2662 40.6055 142.3031 0.0000 0.0000 0.0000
# 4 0.0000 0.0000 0.0000 28.5480 0.0000 0.0000
# 5 0.0000 0.0000 0.0000 0.0000 20.8780 0.0000
# 6 0.0000 0.0000 0.0000 0.0000 0.0000 23.3723
#
#
#
# Elastic Compliance Matrix: (Units=1/GPa)
#
#
# Indices 1 2 3 4 5 6 
#
# 1 0.022044 -0.003302 -0.004986 0.000000 0.000000 0.000000
# 2 -0.003302 0.009687 -0.001876 0.000000 0.000000 0.000000
# 3 -0.004986 -0.001876 0.008903 0.000000 0.000000 0.000000
# 4 0.000000 0.000000 0.000000 0.035029 0.000000 0.000000
# 5 0.000000 0.000000 0.000000 0.000000 0.047897 0.000000
# 6 0.000000 0.000000 0.000000 0.000000 0.000000 0.042786
#
#
# Mechanical properties :
#
#
# Convention : Reuss Voigt Hill
#
# Bulk Modulus (GPa) = 49.24499 59.21581 54.23040
# Shear Modulus (GPa) = 25.84750 28.87191 27.35971
#
# Velocity S-wave (km/s) = 3.70674 3.91760 3.81363
# Velocity P-wave (km/s) = 6.67063 7.20702 6.94401
#
# Compressibility (1/GPa) = 0.02030664
#
# Stress axis : x y z
#
# Youngs Moduli (GPa) = 45.36414 103.23069 112.31846
#
# Poissons Ratio (x) = 0.34087 0.55996
# Poissons Ratio (y) = 0.14979 0.21073
# Poissons Ratio (z) = 0.22616 0.19368
#
# Static dielectric constant tensor:
#      x y z
#    x 2.899120 0.000000 0.000000 
#    y 0.000000 4.249740 0.000000 
#    z 0.000000 0.000000 3.775030 
# 
# 
# High freq. dielectric constant tensor:
#      x y z
#    x 1.667400 0.000000 0.000000 
#    y 0.000000 1.765000 0.000000 
#    z 0.000000 0.000000 1.757750 
# 
# From -- ./inp_files/10234.got.cif
#   From: 2010.03.12/outbox.cif.g09.slc.cpg/sg74_6_cif.got.tgz:10234.got - 2010.04.16 15:46:19.
