data_PCOD8300465
_publ_section_title
;
Structure prediction by ZEFSAII (Michael W. Deem and Ramdas Pophale) SiO2 
 PCOD8300465
Probable space group: I M M A
;
_chemical_formula_sum "Si O2"
_cell_formula_units_Z 88
_cell_length_a 8.626242
_cell_length_b 27.358824
_cell_length_c 18.400259
_cell_angle_alpha 90.000000
_cell_angle_beta 90.000000
_cell_angle_gamma 90.000000
_cell_volume 4342.531720
_symmetry_space_group_name_H-M "I M M A"
_symmetry_group_IT_number 74
_symmetry_cell_setting 'orthorhombic'
loop_
_space_group_symop_operation_xyz
x,y,z
-x,1/2-y,z
x,-y,-z
-x,1/2+y,-z
-x,-y,-z
x,1/2+y,-z
-x,y,z
x,1/2-y,z
1/2+x,1/2+y,1/2+z
1/2-x,-y,1/2+z
1/2+x,1/2-y,1/2-z
1/2-x,y,1/2-z
1/2-x,1/2-y,1/2-z
1/2+x,y,1/2-z
1/2-x,1/2+y,1/2+z
1/2+x,-y,1/2+z
loop_
_atom_site_type_symbol
_atom_site_label
_atom_site_fract_x
_atom_site_fract_y
_atom_site_fract_z
Si Si1 0.316549 0.845955 0.920342
Si Si2 0.825358 0.196604 0.672828
Si Si3 0.684548 0.250000 0.167941
Si Si4 0.182717 0.565234 0.674801
Si Si5 0.183488 0.955032 0.328120
Si Si6 0.678569 0.876019 0.429060
O O1 0.500000 0.843134 0.923653
O O2 0.255937 0.797980 0.876628
O O3 0.256505 0.895924 0.883535
O O4 0.254435 0.850644 0.001298
O O5 0.836453 0.250000 0.635985
O O6 0.750000 0.202457 0.750000
O O7 0.701352 0.164023 0.632084
O O8 0.000000 0.173399 0.674961
O O9 0.500000 0.250000 0.173924
O O10 0.750000 0.250000 0.250000
O O11 0.250000 0.584056 0.750000
O O12 0.241155 0.510475 0.657039
O O13 0.000000 0.566007 0.679659
O O14 0.250000 0.936250 0.250000
O O15 0.241513 0.925238 0.398465
O O16 0.000000 0.951309 0.323340
O O17 0.500000 0.887315 0.443852
#
# Coordination Sequence:
#
# PCOD8300465 Si02
#       6
#    16  16   8  16  16  16
#     4  10  22  40  59  86 119 156 195 238 295 353
#     4  10  21  38  60  83 110 148 192 239 288 344
#     4  10  22  40  66  92 119 152 191 238 290 348
#     4   9  19  36  61  87 115 150 194 243 293 349
#     4  10  20  37  60  86 116 155 197 242 290 346
#     4  12  25  38  55  83 118 156 194 242 291 343
#
# _framework density 20.264676000000001
#
# number of rings (size 3 to 8) (size 9 to 14) (size 15 to 20)
#    0.000    1.818    0.000    3.818    1.273    4.000 
#    0.000    3.636    0.000    0.000    0.000    0.000 
#    0.000    0.000    0.000    0.000    0.000    0.000 
#
# Total GULP energy -545352.291568 kJ/mol
# GULP energy per Si atom -12394.370263 kJ/mol
# Density = 2.021855 g / cm^3
# Si number density = 20.264676 Si / 1000 Ang^3
#
#
#
# Elastic Constant Matrix: (Units=GPa)
#
#
# Indices 1 2 3 4 5 6 
#
# 1 32.8523 26.5054 16.3180 0.0000 0.0000 0.0000
# 2 26.5054 123.7316 63.4364 0.0000 0.0000 0.0000
# 3 16.3180 63.4364 95.4661 0.0003 0.0000 0.0001
# 4 0.0000 0.0000 0.0003 37.5595 0.0000 0.0000
# 5 0.0000 0.0000 0.0000 0.0000 34.9865 0.0000
# 6 0.0000 0.0000 0.0001 0.0000 0.0000 20.8518
#
#
#
# Elastic Compliance Matrix: (Units=1/GPa)
#
#
# Indices 1 2 3 4 5 6 
#
# 1 0.036960 -0.007096 -0.001602 0.000000 0.000000 0.000000
# 2 -0.007096 0.013620 -0.007838 0.000000 0.000000 0.000000
# 3 -0.001602 -0.007838 0.015957 0.000000 0.000000 0.000000
# 4 0.000000 0.000000 0.000000 0.026624 0.000000 0.000000
# 5 0.000000 0.000000 0.000000 0.000000 0.028582 0.000000
# 6 0.000000 0.000000 0.000000 0.000000 0.000000 0.047957
#
#
# Mechanical properties :
#
#
# Convention : Reuss Voigt Hill
#
# Bulk Modulus (GPa) = 29.88158 51.61884 40.75021
# Shear Modulus (GPa) = 23.37219 28.39891 25.88555
#
# Velocity S-wave (km/s) = 3.39978 3.74759 3.57791
# Velocity P-wave (km/s) = 5.49445 6.65233 6.10092
#
# Compressibility (1/GPa) = 0.03346544
#
# Stress axis : x y z
#
# Youngs Moduli (GPa) = 27.05605 73.41893 62.66858
#
# Poissons Ratio (x) = 0.52098 0.10042
# Poissons Ratio (y) = 0.19199 0.49118
# Poissons Ratio (z) = 0.04335 0.57544
#
# Static dielectric constant tensor:
#      x y z
#    x 3.628820 0.000000 0.000000 
#    y 0.000000 4.164460 0.000000 
#    z 0.000000 0.000000 3.707330 
# 
# 
# High freq. dielectric constant tensor:
#      x y z
#    x 1.785660 0.000000 0.000000 
#    y 0.000000 1.808090 0.000000 
#    z 0.000000 0.000000 1.787520 
# 
# From -- ./inp_files/40153.got.cif
#   From: 2010.03.12/outbox.cif.g09.slc.cpg/sg74_21_cif.got.tgz:40153.got - 2010.04.16 15:46:19.
