data_PCOD8300459
_publ_section_title
;
Structure prediction by ZEFSAII (Michael W. Deem and Ramdas Pophale) SiO2 
 PCOD8300459
Probable space group: I M M A
;
_chemical_formula_sum "Si O2"
_cell_formula_units_Z 104
_cell_length_a 9.303061
_cell_length_b 20.903711
_cell_length_c 27.869778
_cell_angle_alpha 90.000000
_cell_angle_beta 90.000000
_cell_angle_gamma 90.000000
_cell_volume 5419.793883
_symmetry_space_group_name_H-M "I M M A"
_symmetry_group_IT_number 74
_symmetry_cell_setting 'orthorhombic'
loop_
_space_group_symop_operation_xyz
x,y,z
-x,1/2-y,z
x,-y,-z
-x,1/2+y,-z
-x,-y,-z
x,1/2+y,-z
-x,y,z
x,1/2-y,z
1/2+x,1/2+y,1/2+z
1/2-x,-y,1/2+z
1/2+x,1/2-y,1/2-z
1/2-x,y,1/2-z
1/2-x,1/2-y,1/2-z
1/2+x,y,1/2-z
1/2-x,1/2+y,1/2+z
1/2+x,-y,1/2+z
loop_
_atom_site_type_symbol
_atom_site_label
_atom_site_fract_x
_atom_site_fract_y
_atom_site_fract_z
Si Si1 0.337875 0.082253 0.794134
Si Si2 0.831432 0.138581 0.126740
Si Si3 0.834466 0.087784 0.940066
Si Si4 0.830171 0.179910 0.021051
Si Si5 0.663252 0.177441 0.650332
Si Si6 0.663536 0.010590 0.116288
Si Si7 0.831370 0.250000 0.199611
O O1 0.500000 0.095271 0.777797
O O2 0.250000 0.051726 0.750000
O O3 0.265766 0.149450 0.808597
O O4 0.330161 0.034247 0.837934
O O5 0.787690 0.169087 0.076034
O O6 0.742205 0.074363 0.133166
O O7 0.788383 0.187326 0.169067
O O8 0.000000 0.122508 0.128438
O O9 0.816850 0.139868 0.898863
O O10 0.000000 0.066387 0.946614
O O11 0.743838 0.023826 0.928357
O O12 0.770413 0.122173 0.987835
O O13 0.769098 0.250000 0.005877
O O14 0.000000 0.180758 0.014023
O O15 0.500000 0.172043 0.668714
O O16 0.708659 0.250000 0.640367
O O17 0.500000 0.025148 0.100837
O O18 0.750000 0.250000 0.250000
O O19 0.000000 0.250000 0.210285
#
# Coordination Sequence:
#
# PCOD8300459 Si02
#       7
#    16  16  16  16  16  16   8
#     4  10  21  36  53  72  97 133 176 222 270 318
#     4  10  20  37  60  84 110 141 179 223 273 325
#     4   9  17  31  54  82 109 143 184 223 265 313
#     4   9  16  30  56  86 113 141 181 230 271 314
#     4   9  17  30  49  75 106 137 173 217 263 313
#     4  10  22  38  54  76 110 146 180 222 272 328
#     4  10  22  40  62  88 116 146 182 230 285 342
#
# _framework density 19.188922000000002
#
# number of rings (size 3 to 8) (size 9 to 14) (size 15 to 20)
#    0.000    2.462    0.769    1.385    0.000    6.154 
#    0.000    6.923    0.000    2.308    0.000    0.000 
#    0.000    0.000    0.000    0.000    0.000    0.000 
#
# Total GULP energy -644730.902744 kJ/mol
# GULP energy per Si atom -12398.671207 kJ/mol
# Density = 1.914525 g / cm^3
# Si number density = 19.188922 Si / 1000 Ang^3
#
#
#
# Elastic Constant Matrix: (Units=GPa)
#
#
# Indices 1 2 3 4 5 6 
#
# 1 94.1802 57.8128 47.2287 0.0000 0.0000 0.0000
# 2 57.8128 126.0258 38.1943 0.0000 0.0000 0.0000
# 3 47.2287 38.1943 103.2870 0.0000 0.0000 0.0000
# 4 0.0000 0.0000 0.0000 14.7316 0.0000 0.0000
# 5 0.0000 0.0000 0.0000 0.0000 22.8952 0.0000
# 6 0.0000 0.0000 0.0000 0.0000 0.0000 19.6409
#
#
#
# Elastic Compliance Matrix: (Units=1/GPa)
#
#
# Indices 1 2 3 4 5 6 
#
# 1 0.017231 -0.006213 -0.005581 0.000000 0.000000 0.000000
# 2 -0.006213 0.011177 -0.001292 0.000000 0.000000 0.000000
# 3 -0.005581 -0.001292 0.012712 0.000000 0.000000 0.000000
# 4 0.000000 0.000000 0.000000 0.067881 0.000000 0.000000
# 5 0.000000 0.000000 0.000000 0.000000 0.043677 0.000000
# 6 0.000000 0.000000 0.000000 0.000000 0.000000 0.050914
#
#
# Mechanical properties :
#
#
# Convention : Reuss Voigt Hill
#
# Bulk Modulus (GPa) = 66.90645 67.77383 67.34014
# Shear Modulus (GPa) = 21.29959 23.47069 22.38514
#
# Velocity S-wave (km/s) = 3.33527 3.50113 3.41921
# Velocity P-wave (km/s) = 7.05514 7.19304 7.12442
#
# Compressibility (1/GPa) = 0.01494624
#
# Stress axis : x y z
#
# Youngs Moduli (GPa) = 58.03627 89.47329 78.66775
#
# Poissons Ratio (x) = 0.55588 0.43908
# Poissons Ratio (y) = 0.36057 0.10165
# Poissons Ratio (z) = 0.32392 0.11561
#
# Static dielectric constant tensor:
#      x y z
#    x 3.464400 0.000000 0.000000 
#    y 0.000000 3.588610 0.000000 
#    z 0.000000 0.000000 3.555170 
# 
# 
# High freq. dielectric constant tensor:
#      x y z
#    x 1.723160 0.000000 0.000000 
#    y 0.000000 1.750510 0.000000 
#    z 0.000000 0.000000 1.747910 
# 
# From -- ./inp_files/64448.got.cif
#   From: 2010.03.12/outbox.cif.g09.slc.cpg/sg74_33_cif.got.tgz:64448.got - 2010.04.16 15:46:19.
