data_PCOD8300488
_publ_section_title
;
Structure prediction by ZEFSAII (Michael W. Deem and Ramdas Pophale) SiO2 
 PCOD8300488
Probable space group: I M M A
;
_chemical_formula_sum "Si O2"
_cell_formula_units_Z 112
_cell_length_a 15.071214
_cell_length_b 23.954962
_cell_length_c 15.826444
_cell_angle_alpha 90.000000
_cell_angle_beta 90.000000
_cell_angle_gamma 90.000000
_cell_volume 5713.826754
_symmetry_space_group_name_H-M "I M M A"
_symmetry_group_IT_number 74
_symmetry_cell_setting 'orthorhombic'
loop_
_space_group_symop_operation_xyz
x,y,z
-x,1/2-y,z
x,-y,-z
-x,1/2+y,-z
-x,-y,-z
x,1/2+y,-z
-x,y,z
x,1/2-y,z
1/2+x,1/2+y,1/2+z
1/2-x,-y,1/2+z
1/2+x,1/2-y,1/2-z
1/2-x,y,1/2-z
1/2-x,1/2-y,1/2-z
1/2+x,y,1/2-z
1/2-x,1/2+y,1/2+z
1/2+x,-y,1/2+z
loop_
_atom_site_type_symbol
_atom_site_label
_atom_site_fract_x
_atom_site_fract_y
_atom_site_fract_z
Si Si1 0.904684 0.903341 0.774328
Si Si2 0.336310 0.686755 0.610984
Si Si3 0.765348 0.404228 0.847492
Si Si4 0.191379 0.100284 0.393088
Si Si5 0.657831 0.985291 0.591509
Si Si6 0.601391 0.814232 0.424958
Si Si7 0.900271 0.438672 0.538277
O O1 0.889080 0.842552 0.813363
O O2 0.832863 0.916327 0.702571
O O3 0.905305 0.948480 0.849530
O O4 0.000000 0.904425 0.729966
O O5 0.321863 0.750000 0.637630
O O6 0.239147 0.659671 0.602537
O O7 0.392389 0.680285 0.525746
O O8 0.750000 0.390311 0.750000
O O9 0.824859 0.458975 0.855997
O O10 0.821676 0.352490 0.884741
O O11 0.670709 0.417082 0.892498
O O12 0.255007 0.051288 0.428121
O O13 0.108311 0.102338 0.456843
O O14 0.614535 0.000000 0.500000
O O15 0.500000 0.831631 0.398936
O O16 0.619253 0.750000 0.397550
O O17 0.882348 0.500000 0.500000
O O18 0.000000 0.433979 0.576222
#
# Coordination Sequence:
#
# PCOD8300488 Si02
#       7
#    16  16  16  16  16  16  16
#     4  11  24  35  53  87 122 155 197 246 297 352
#     4  10  20  37  62  84 112 155 202 245 292 349
#     4  12  22  38  63  90 123 152 198 254 301 357
#     4  11  19  39  58  81 120 157 200 240 292 355
#     4  11  20  37  59  81 116 159 196 240 295 354
#     4  10  22  41  64  87 115 156 200 244 302 365
#     4  11  22  39  63  89 122 165 205 239 293 364
#
# _framework density 19.601573999999999
#
# number of rings (size 3 to 8) (size 9 to 14) (size 15 to 20)
#    0.000    1.143    4.286    4.286    0.000    3.714 
#    0.000    0.000    0.000    3.000    0.000    0.000 
#    0.000    0.000    0.000    0.000    0.000    0.000 
#
# Total GULP energy -693976.864651 kJ/mol
# GULP energy per Si atom -12392.444012 kJ/mol
# Density = 1.955696 g / cm^3
# Si number density = 19.601574 Si / 1000 Ang^3
#
#
#
# Elastic Constant Matrix: (Units=GPa)
#
#
# Indices 1 2 3 4 5 6 
#
# 1 118.8169 45.0663 38.0644 0.0000 0.0000 0.0000
# 2 45.0663 106.9700 31.4639 -0.0002 0.0000 0.0000
# 3 38.0644 31.4639 104.8458 -0.0005 0.0000 0.0000
# 4 0.0000 -0.0002 -0.0005 22.9870 0.0000 0.0000
# 5 0.0000 0.0000 0.0000 0.0000 17.1956 0.0000
# 6 0.0000 0.0000 0.0000 0.0000 0.0000 10.4957
#
#
#
# Elastic Compliance Matrix: (Units=1/GPa)
#
#
# Indices 1 2 3 4 5 6 
#
# 1 0.010708 -0.003694 -0.002779 0.000000 0.000000 0.000000
# 2 -0.003694 0.011528 -0.002118 0.000000 0.000000 0.000000
# 3 -0.002779 -0.002118 0.011182 0.000000 0.000000 0.000000
# 4 0.000000 0.000000 0.000000 0.043503 0.000000 0.000000
# 5 0.000000 0.000000 0.000000 0.000000 0.058154 0.000000
# 6 0.000000 0.000000 0.000000 0.000000 0.000000 0.095277
#
#
# Mechanical properties :
#
#
# Convention : Reuss Voigt Hill
#
# Bulk Modulus (GPa) = 61.59306 62.20243 61.89774
# Shear Modulus (GPa) = 19.76710 24.53821 22.15266
#
# Velocity S-wave (km/s) = 3.17905 3.54199 3.36541
# Velocity P-wave (km/s) = 6.70566 6.96634 6.83724
#
# Compressibility (1/GPa) = 0.01623560
#
# Stress axis : x y z
#
# Youngs Moduli (GPa) = 93.39200 86.74779 89.42588
#
# Poissons Ratio (x) = 0.32042 0.24851
# Poissons Ratio (y) = 0.34496 0.18944
# Poissons Ratio (z) = 0.25953 0.18377
#
# Static dielectric constant tensor:
#      x y z
#    x 3.601480 0.000000 0.000000 
#    y 0.000000 3.589110 0.000000 
#    z 0.000000 0.000000 3.542330 
# 
# 
# High freq. dielectric constant tensor:
#      x y z
#    x 1.760480 0.000000 0.000000 
#    y 0.000000 1.756110 0.000000 
#    z 0.000000 0.000000 1.762440 
# 
# From -- ./inp_files/32717.got.cif
#   From: 2010.03.12/outbox.cif.g09.slc.cpg/sg74_17_cif.got.tgz:32717.got - 2010.04.16 15:46:19.
