data_PCOD8300452
_publ_section_title
;
Structure prediction by ZEFSAII (Michael W. Deem and Ramdas Pophale) SiO2 
 PCOD8300452
Probable space group: I M M A
;
_chemical_formula_sum "Si O2"
_cell_formula_units_Z 104
_cell_length_a 15.655484
_cell_length_b 29.130756
_cell_length_c 11.438530
_cell_angle_alpha 90.000000
_cell_angle_beta 90.000000
_cell_angle_gamma 90.000000
_cell_volume 5216.611204
_symmetry_space_group_name_H-M "I M M A"
_symmetry_group_IT_number 74
_symmetry_cell_setting 'orthorhombic'
loop_
_space_group_symop_operation_xyz
x,y,z
-x,1/2-y,z
x,-y,-z
-x,1/2+y,-z
-x,-y,-z
x,1/2+y,-z
-x,y,z
x,1/2-y,z
1/2+x,1/2+y,1/2+z
1/2-x,-y,1/2+z
1/2+x,1/2-y,1/2-z
1/2-x,y,1/2-z
1/2-x,1/2-y,1/2-z
1/2+x,y,1/2-z
1/2-x,1/2+y,1/2+z
1/2+x,-y,1/2+z
loop_
_atom_site_type_symbol
_atom_site_label
_atom_site_fract_x
_atom_site_fract_y
_atom_site_fract_z
Si Si1 0.907029 0.367735 0.083637
Si Si2 0.315564 0.583313 0.046303
Si Si3 0.098893 0.983414 0.291228
Si Si4 0.639610 0.547264 0.452248
Si Si5 0.750000 0.850830 0.250000
Si Si6 0.102008 0.911800 0.685216
Si Si7 0.600841 0.196103 0.614926
O O1 0.859843 0.382590 0.204464
O O2 0.000000 0.350583 0.121423
O O3 0.918541 0.411237 0.996834
O O4 0.865751 0.326665 0.007576
O O5 0.383437 0.546113 0.093164
O O6 0.234375 0.555464 0.998019
O O7 0.282290 0.619787 0.140260
O O8 0.359417 0.608528 0.935205
O O9 0.145806 0.955620 0.187873
O O10 0.000000 0.983913 0.262156
O O11 0.132788 0.035363 0.301932
O O12 0.600197 0.500000 0.500000
O O13 0.666361 0.820812 0.284812
O O14 0.000000 0.909081 0.682545
O O15 0.500000 0.183048 0.641304
O O16 0.610306 0.250000 0.601477
#
# Coordination Sequence:
#
# PCOD8300452 Si02
#       7
#    16  16  16  16   8  16  16
#     4  10  20  37  59  87 113 148 201 244 299 368
#     4  12  23  37  52  81 123 159 201 247 296 353
#     4  11  21  35  53  75 112 165 215 252 296 351
#     4  12  21  33  53  80 117 158 197 245 290 346
#     4  12  23  40  62  96 122 158 206 256 309 374
#     4  10  22  37  56  81 115 162 209 253 302 361
#     4  10  22  43  70  95 122 157 199 258 321 375
#
# _framework density 19.936312999999998
#
# number of rings (size 3 to 8) (size 9 to 14) (size 15 to 20)
#    0.000    1.077    4.615    2.538    0.000    4.923 
#    0.000    0.000    0.000    2.769    0.000    2.154 
#    0.000    0.000    0.000    0.000    0.000    0.000 
#
# Total GULP energy -644416.262509 kJ/mol
# GULP energy per Si atom -12392.620433 kJ/mol
# Density = 1.989094 g / cm^3
# Si number density = 19.936313 Si / 1000 Ang^3
#
#
#
# Elastic Constant Matrix: (Units=GPa)
#
#
# Indices 1 2 3 4 5 6 
#
# 1 70.1445 30.1012 40.7657 0.0006 -0.0001 0.0000
# 2 30.1012 95.2005 41.6663 -0.0023 0.0002 0.0000
# 3 40.7657 41.6663 127.8964 -0.0007 0.0000 -0.0002
# 4 0.0006 -0.0023 -0.0007 23.3372 0.0004 0.0000
# 5 -0.0001 0.0002 0.0000 0.0004 29.4332 0.0000
# 6 0.0000 0.0000 -0.0002 0.0000 0.0000 23.4357
#
#
#
# Elastic Compliance Matrix: (Units=1/GPa)
#
#
# Indices 1 2 3 4 5 6 
#
# 1 0.018627 -0.003838 -0.004687 -0.000001 0.000000 0.000000
# 2 -0.003838 0.013042 -0.003025 0.000001 0.000000 0.000000
# 3 -0.004687 -0.003025 0.010298 0.000000 0.000000 0.000000
# 4 -0.000001 0.000001 0.000000 0.042850 -0.000001 0.000000
# 5 0.000000 0.000000 0.000000 -0.000001 0.033975 0.000000
# 6 0.000000 0.000000 0.000000 0.000000 0.000000 0.042670
#
#
# Mechanical properties :
#
#
# Convention : Reuss Voigt Hill
#
# Bulk Modulus (GPa) = 53.00443 57.58977 55.29710
# Shear Modulus (GPa) = 26.19822 27.28844 26.74333
#
# Velocity S-wave (km/s) = 3.62898 3.70372 3.66654
# Velocity P-wave (km/s) = 6.64860 6.87311 6.76179
#
# Compressibility (1/GPa) = 0.01886635
#
# Stress axis : x y z
#
# Youngs Moduli (GPa) = 53.68473 76.67586 97.10354
#
# Poissons Ratio (x) = 0.29432 0.45510
# Poissons Ratio (y) = 0.20607 0.29377
# Poissons Ratio (z) = 0.25161 0.23197
#
# Static dielectric constant tensor:
#      x y z
#    x 3.652600 0.000000 0.000000 
#    y 0.000000 3.406240 0.000000 
#    z 0.000000 0.000000 3.808910 
# 
# 
# High freq. dielectric constant tensor:
#      x y z
#    x 1.779710 0.000000 0.000000 
#    y 0.000000 1.741570 0.000000 
#    z 0.000000 0.000000 1.784030 
# 
# From -- ./inp_files/22746.got.cif
#   From: 2010.03.12/outbox.cif.g09.slc.cpg/sg74_12_cif.got.tgz:22746.got - 2010.04.16 15:46:19.
