data_PCOD8300810
_publ_section_title
;
Structure prediction by ZEFSAII (Michael W. Deem and Ramdas Pophale) SiO2 
 PCOD8300810
Probable space group: I M M A
;
_chemical_formula_sum "Si O2"
_cell_formula_units_Z 72
_cell_length_a 11.011122
_cell_length_b 26.277651
_cell_length_c 12.400178
_cell_angle_alpha 90.000000
_cell_angle_beta 90.000000
_cell_angle_gamma 90.000000
_cell_volume 3587.947124
_symmetry_space_group_name_H-M "I M M A"
_symmetry_group_IT_number 74
_symmetry_cell_setting 'orthorhombic'
loop_
_space_group_symop_operation_xyz
x,y,z
-x,1/2-y,z
x,-y,-z
-x,1/2+y,-z
-x,-y,-z
x,1/2+y,-z
-x,y,z
x,1/2-y,z
1/2+x,1/2+y,1/2+z
1/2-x,-y,1/2+z
1/2+x,1/2-y,1/2-z
1/2-x,y,1/2-z
1/2-x,1/2-y,1/2-z
1/2+x,y,1/2-z
1/2-x,1/2+y,1/2+z
1/2+x,-y,1/2+z
loop_
_atom_site_type_symbol
_atom_site_label
_atom_site_fract_x
_atom_site_fract_y
_atom_site_fract_z
Si Si1 0.287835 0.750000 0.872794
Si Si2 0.500000 0.923174 0.437050
Si Si3 0.224881 0.358351 0.869512
Si Si4 0.641424 0.250000 0.578271
Si Si5 0.750000 0.073960 0.250000
Si Si6 0.000000 0.971318 0.829539
Si Si7 0.634154 0.359734 0.074894
O O1 0.250000 0.750000 0.750000
O O2 0.365830 0.800062 0.896922
O O3 0.169558 0.750000 0.950159
O O4 0.615241 0.888299 0.421407
O O5 0.500000 0.941679 0.558941
O O6 0.500000 0.968645 0.350916
O O7 0.250000 0.379257 0.750000
O O8 0.197385 0.298657 0.862920
O O9 0.339098 0.367911 0.948111
O O10 0.500000 0.250000 0.595701
O O11 0.626067 0.041179 0.265902
O O12 0.731712 0.109754 0.146091
O O13 0.500000 0.381084 0.098957
#
# Coordination Sequence:
#
# PCOD8300810 Si02
#       7
#     8   8  16   8   8   8  16
#     4  10  21  36  56  93 131 168 212 258 309 388
#     4  11  24  45  69  91 128 168 222 264 323 388
#     4  11  24  42  65  95 127 170 216 263 316 385
#     4  10  21  38  62  92 126 166 214 257 320 383
#     4  12  22  43  68  92 134 165 216 262 338 382
#     4  11  26  44  67  99 130 171 214 281 327 385
#     4  11  23  39  62  96 131 171 209 262 322 384
#
# _framework density 20.067184999999998
#
# number of rings (size 3 to 8) (size 9 to 14) (size 15 to 20)
#    0.000    1.111    5.556    0.667    3.111    0.889 
#    0.000    0.000    0.000    4.000    0.000    0.000 
#    0.000    0.000    0.000    0.000    0.000    0.000 
#
# Total GULP energy -446380.514029 kJ/mol
# GULP energy per Si atom -12399.458723 kJ/mol
# Density = 2.002151 g / cm^3
# Si number density = 20.067185 Si / 1000 Ang^3
#
#
#
# Elastic Constant Matrix: (Units=GPa)
#
#
# Indices 1 2 3 4 5 6 
#
# 1 112.7205 18.8554 23.8897 -0.0001 0.0000 0.0000
# 2 18.8554 85.9292 8.3827 -0.0003 0.0000 -0.0001
# 3 23.8897 8.3827 114.8061 -0.0010 0.0006 -0.0005
# 4 -0.0001 -0.0003 -0.0010 20.7238 0.0002 -0.0002
# 5 0.0000 0.0000 0.0006 0.0002 20.2320 0.0000
# 6 0.0000 -0.0001 -0.0005 -0.0002 0.0000 12.9873
#
#
#
# Elastic Compliance Matrix: (Units=1/GPa)
#
#
# Indices 1 2 3 4 5 6 
#
# 1 0.009586 -0.001923 -0.001854 0.000000 0.000000 0.000000
# 2 -0.001923 0.012107 -0.000484 0.000000 0.000000 0.000000
# 3 -0.001854 -0.000484 0.009132 0.000000 0.000000 0.000000
# 4 0.000000 0.000000 0.000000 0.048254 -0.000001 0.000001
# 5 0.000000 0.000000 0.000000 -0.000001 0.049427 0.000000
# 6 0.000000 0.000000 0.000000 0.000001 0.000000 0.076998
#
#
# Mechanical properties :
#
#
# Convention : Reuss Voigt Hill
#
# Bulk Modulus (GPa) = 44.83801 46.19016 45.51409
# Shear Modulus (GPa) = 22.57757 28.27715 25.42736
#
# Velocity S-wave (km/s) = 3.35789 3.75790 3.56351
# Velocity P-wave (km/s) = 6.11771 6.47278 6.29774
#
# Compressibility (1/GPa) = 0.02230251
#
# Stress axis : x y z
#
# Youngs Moduli (GPa) = 104.31758 82.59979 109.51047
#
# Poissons Ratio (x) = 0.15880 0.20307
# Poissons Ratio (y) = 0.20056 0.05299
# Poissons Ratio (z) = 0.19344 0.03997
#
# Static dielectric constant tensor:
#      x y z
#    x 3.519430 0.000000 0.000000 
#    y 0.000000 3.676740 0.000000 
#    z 0.000000 0.000000 3.598250 
# 
# 
# High freq. dielectric constant tensor:
#      x y z
#    x 1.784880 0.000000 0.000000 
#    y 0.000000 1.781710 0.000000 
#    z 0.000000 0.000000 1.787070 
# 
# From -- ./inp_files/18859.got.cif
#   From: 2010.03.12/outbox.cif.g09.slc.cpg/sg74_10_cif.got.tgz:18859.got - 2010.04.16 15:46:19.
