data_PCOD8300930
_publ_section_title
;
Structure prediction by ZEFSAII (Michael W. Deem and Ramdas Pophale) SiO2 
 PCOD8300930
Probable space group: I M M A
;
_chemical_formula_sum "Si O2"
_cell_formula_units_Z 96
_cell_length_a 23.918044
_cell_length_b 9.077409
_cell_length_c 21.341015
_cell_angle_alpha 90.000000
_cell_angle_beta 90.000000
_cell_angle_gamma 90.000000
_cell_volume 4633.430311
_symmetry_space_group_name_H-M "I M M A"
_symmetry_group_IT_number 74
_symmetry_cell_setting 'orthorhombic'
loop_
_space_group_symop_operation_xyz
x,y,z
-x,1/2-y,z
x,-y,-z
-x,1/2+y,-z
-x,-y,-z
x,1/2+y,-z
-x,y,z
x,1/2-y,z
1/2+x,1/2+y,1/2+z
1/2-x,-y,1/2+z
1/2+x,1/2-y,1/2-z
1/2-x,y,1/2-z
1/2-x,1/2-y,1/2-z
1/2+x,y,1/2-z
1/2-x,1/2+y,1/2+z
1/2+x,-y,1/2+z
loop_
_atom_site_type_symbol
_atom_site_label
_atom_site_fract_x
_atom_site_fract_y
_atom_site_fract_z
Si Si1 0.819554 0.575803 0.561578
Si Si2 0.933908 0.085145 0.059485
Si Si3 0.240656 0.077323 0.177252
Si Si4 0.627802 0.423476 0.665387
Si Si5 0.559789 0.077055 0.092355
Si Si6 0.437596 0.582178 0.763078
O O1 0.791110 0.500000 0.500000
O O2 0.817148 0.750000 0.551826
O O3 0.790634 0.536589 0.628618
O O4 0.883516 0.512259 0.562480
O O5 0.908559 0.250000 0.062003
O O6 0.000000 0.093258 0.054809
O O7 0.917737 0.994204 0.120125
O O8 0.908322 0.000000 0.000000
O O9 0.227591 0.250000 0.174862
O O10 0.250000 0.029048 0.250000
O O11 0.188526 0.987277 0.150596
O O12 0.628784 0.250000 0.657699
O O13 0.607237 0.470467 0.734080
O O14 0.500000 0.012980 0.065427
O O15 0.559979 0.250000 0.081686
O O16 0.561287 0.040437 0.165049
O O17 0.500000 0.563831 0.734429
O O18 0.416620 0.750000 0.752361
#
# Coordination Sequence:
#
# PCOD8300930 Si02
#       6
#    16  16  16  16  16  16
#     4  10  21  37  59  86 115 148 185 231 286 341
#     4  10  21  38  59  82 111 148 190 236 286 342
#     4  10  22  42  65  83 105 147 204 255 293 339
#     4  12  24  35  53  82 115 148 183 230 289 353
#     4   8  15  31  57  86 113 144 185 227 267 321
#     4   9  17  32  56  83 111 146 190 237 278 322
#
# _framework density 20.718990999999999
#
# number of rings (size 3 to 8) (size 9 to 14) (size 15 to 20)
#    0.000    2.167    0.000    4.500    0.000    8.000 
#    0.000    4.167    0.000    1.000    0.000    0.000 
#    0.000    0.000    0.000    0.000    0.000    0.000 
#
# Total GULP energy -594828.686941 kJ/mol
# GULP energy per Si atom -12392.264311 kJ/mol
# Density = 2.067183 g / cm^3
# Si number density = 20.718991 Si / 1000 Ang^3
#
#
#
# Elastic Constant Matrix: (Units=GPa)
#
#
# Indices 1 2 3 4 5 6 
#
# 1 70.8965 30.1600 47.8609 0.0000 0.0000 0.0000
# 2 30.1600 81.6300 40.7259 0.0000 0.0000 0.0000
# 3 47.8609 40.7259 103.7420 0.0000 0.0000 0.0000
# 4 0.0000 0.0000 0.0000 29.4773 0.0000 0.0000
# 5 0.0000 0.0000 0.0000 0.0000 18.4947 0.0000
# 6 0.0000 0.0000 0.0000 0.0000 0.0000 19.5065
#
#
#
# Elastic Compliance Matrix: (Units=1/GPa)
#
#
# Indices 1 2 3 4 5 6 
#
# 1 0.021346 -0.003698 -0.008396 0.000000 0.000000 0.000000
# 2 -0.003698 0.015875 -0.004526 0.000000 0.000000 0.000000
# 3 -0.008396 -0.004526 0.015290 0.000000 0.000000 0.000000
# 4 0.000000 0.000000 0.000000 0.033924 0.000000 0.000000
# 5 0.000000 0.000000 0.000000 0.000000 0.054070 0.000000
# 6 0.000000 0.000000 0.000000 0.000000 0.000000 0.051265
#
#
# Mechanical properties :
#
#
# Convention : Reuss Voigt Hill
#
# Bulk Modulus (GPa) = 51.89305 54.86245 53.37775
# Shear Modulus (GPa) = 21.60447 22.66381 22.13414
#
# Velocity S-wave (km/s) = 3.23265 3.31095 3.27203
# Velocity P-wave (km/s) = 6.24771 6.41509 6.33195
#
# Compressibility (1/GPa) = 0.01927040
#
# Stress axis : x y z
#
# Youngs Moduli (GPa) = 46.84624 62.99347 65.40354
#
# Poissons Ratio (x) = 0.23294 0.54916
# Poissons Ratio (y) = 0.17323 0.29601
# Poissons Ratio (z) = 0.39334 0.28510
#
# Static dielectric constant tensor:
#      x y z
#    x 3.959760 0.000000 0.000000 
#    y 0.000000 3.581940 0.000000 
#    z 0.000000 0.000000 3.664210 
# 
# 
# High freq. dielectric constant tensor:
#      x y z
#    x 1.812080 0.000000 0.000000 
#    y 0.000000 1.780460 0.000000 
#    z 0.000000 0.000000 1.817850 
# 
# From -- ./inp_files/61908.got.cif
#   From: 2010.03.12/outbox.cif.g09.slc.cpg/sg74_31_cif.got.tgz:61908.got - 2010.04.16 15:46:19.
