data_PCOD8300021
_publ_section_title
;
Structure prediction by ZEFSAII (Michael W. Deem and Ramdas Pophale) SiO2 
 PCOD8300021
Probable space group: I M M A
;
_chemical_formula_sum "Si O2"
_cell_formula_units_Z 120
_cell_length_a 29.964431
_cell_length_b 15.087214
_cell_length_c 14.267740
_cell_angle_alpha 90.000000
_cell_angle_beta 90.000000
_cell_angle_gamma 90.000000
_cell_volume 6450.156801
_symmetry_space_group_name_H-M "I M M A"
_symmetry_group_IT_number 74
_symmetry_cell_setting 'orthorhombic'
loop_
_space_group_symop_operation_xyz
x,y,z
-x,1/2-y,z
x,-y,-z
-x,1/2+y,-z
-x,-y,-z
x,1/2+y,-z
-x,y,z
x,1/2-y,z
1/2+x,1/2+y,1/2+z
1/2-x,-y,1/2+z
1/2+x,1/2-y,1/2-z
1/2-x,y,1/2-z
1/2-x,1/2-y,1/2-z
1/2+x,y,1/2-z
1/2-x,1/2+y,1/2+z
1/2+x,-y,1/2+z
loop_
_atom_site_type_symbol
_atom_site_label
_atom_site_fract_x
_atom_site_fract_y
_atom_site_fract_z
Si Si1 0.331254 0.850943 0.841362
Si Si2 0.452159 0.496478 0.241977
Si Si3 0.853631 0.504233 0.804750
Si Si4 0.430580 0.150562 0.890473
Si Si5 0.332243 0.850255 0.170083
Si Si6 0.570013 0.349990 0.099995
Si Si7 0.192120 0.000000 0.000000
Si Si8 0.234789 0.853554 0.493483
O O1 0.324658 0.750000 0.806510
O O2 0.331787 0.913387 0.750415
O O3 0.376846 0.862680 0.898073
O O4 0.292176 0.879007 0.912490
O O5 0.500000 0.493840 0.298124
O O6 0.407932 0.492845 0.305711
O O7 0.453556 0.586308 0.182646
O O8 0.453852 0.413706 0.172280
O O9 0.834117 0.414465 0.759541
O O10 0.839925 0.509639 0.911585
O O11 0.444961 0.250000 0.863291
O O12 0.377295 0.140576 0.889032
O O13 0.446480 0.127440 0.995371
O O14 0.325447 0.750000 0.207464
O O15 0.292827 0.877661 0.099837
O O16 0.556857 0.250000 0.127408
O O17 0.220898 0.088687 0.990971
O O18 0.247286 0.750000 0.494271
#
# Coordination Sequence:
#
# PCOD8300021 Si02
#       8
#    16  16  16  16  16  16   8  16
#     4   9  17  33  56  82 110 146 177 200 247 317
#     4  10  21  35  51  73  98 131 178 224 265 313
#     4  10  23  39  55  73 105 143 177 225 276 312
#     4   9  16  28  49  77 111 144 167 194 244 312
#     4   9  17  33  56  82 110 146 177 200 247 317
#     4   9  16  28  49  77 111 144 167 194 244 312
#     4  12  26  40  51  76 106 136 185 240 278 294
#     4  10  20  34  58  87 115 141 173 208 244 314
#
# _framework density 18.604199999999999
#
# number of rings (size 3 to 8) (size 9 to 14) (size 15 to 20)
#    0.000    2.400    1.333    1.200    0.000    4.800 
#    0.000    4.333    0.000    0.000    0.000    0.000 
#    0.000    9.600    0.000    0.000    0.000    0.000 
#
# Total GULP energy -743824.826535 kJ/mol
# GULP energy per Si atom -12397.080442 kJ/mol
# Density = 1.856186 g / cm^3
# Si number density = 18.604200 Si / 1000 Ang^3
#
#
#
# Elastic Constant Matrix: (Units=GPa)
#
#
# Indices 1 2 3 4 5 6 
#
# 1 90.8885 14.5780 17.5614 0.0000 0.0000 0.0000
# 2 14.5780 63.5234 0.6872 0.0000 0.0000 0.0000
# 3 17.5614 0.6872 40.3977 0.0000 0.0000 0.0000
# 4 0.0000 0.0000 0.0000 8.2396 0.0000 0.0000
# 5 0.0000 0.0000 0.0000 0.0000 6.7765 0.0000
# 6 0.0000 0.0000 0.0000 0.0000 0.0000 8.5459
#
#
#
# Elastic Compliance Matrix: (Units=1/GPa)
#
#
# Indices 1 2 3 4 5 6 
#
# 1 0.012493 -0.002809 -0.005383 0.000000 0.000000 0.000000
# 2 -0.002809 0.016377 0.000942 0.000000 0.000000 0.000000
# 3 -0.005383 0.000942 0.027078 0.000000 0.000000 0.000000
# 4 0.000000 0.000000 0.000000 0.121366 0.000000 0.000000
# 5 0.000000 0.000000 0.000000 0.000000 0.147568 0.000000
# 6 0.000000 0.000000 0.000000 0.000000 0.000000 0.117016
#
#
# Mechanical properties :
#
#
# Convention : Reuss Voigt Hill
#
# Bulk Modulus (GPa) = 24.12619 28.94030 26.53325
# Shear Modulus (GPa) = 10.63350 15.51126 13.07238
#
# Velocity S-wave (km/s) = 2.39333 2.89061 2.65364
# Velocity P-wave (km/s) = 4.54243 5.17014 4.86642
#
# Compressibility (1/GPa) = 0.04144873
#
# Stress axis : x y z
#
# Youngs Moduli (GPa) = 80.04395 61.06259 36.93038
#
# Poissons Ratio (x) = 0.17151 0.19880
# Poissons Ratio (y) = 0.22483 -0.03481
# Poissons Ratio (z) = 0.43089 -0.05755
#
# Static dielectric constant tensor:
#      x y z
#    x 3.361680 0.000000 0.000000 
#    y 0.000000 3.706580 0.000000 
#    z 0.000000 0.000000 3.001930 
# 
# 
# High freq. dielectric constant tensor:
#      x y z
#    x 1.719450 0.000000 0.000000 
#    y 0.000000 1.738800 0.000000 
#    z 0.000000 0.000000 1.675620 
# 
# From -- ./inp_files/38012.got.cif
#   From: 2010.03.12/outbox.cif.g09.slc.cpg/sg74_20_cif.got.tgz:38012.got - 2010.04.16 15:46:19.
