data_PCOD8300056
_publ_section_title
;
Structure prediction by ZEFSAII (Michael W. Deem and Ramdas Pophale) SiO2 
 PCOD8300056
Probable space group: I M M A
;
_chemical_formula_sum "Si O2"
_cell_formula_units_Z 72
_cell_length_a 15.617361
_cell_length_b 14.126259
_cell_length_c 17.948666
_cell_angle_alpha 90.000000
_cell_angle_beta 90.000000
_cell_angle_gamma 90.000000
_cell_volume 3959.742910
_symmetry_space_group_name_H-M "I M M A"
_symmetry_group_IT_number 74
_symmetry_cell_setting 'orthorhombic'
loop_
_space_group_symop_operation_xyz
x,y,z
-x,1/2-y,z
x,-y,-z
-x,1/2+y,-z
-x,-y,-z
x,1/2+y,-z
-x,y,z
x,1/2-y,z
1/2+x,1/2+y,1/2+z
1/2-x,-y,1/2+z
1/2+x,1/2-y,1/2-z
1/2-x,y,1/2-z
1/2-x,1/2-y,1/2-z
1/2+x,y,1/2-z
1/2-x,1/2+y,1/2+z
1/2+x,-y,1/2+z
loop_
_atom_site_type_symbol
_atom_site_label
_atom_site_fract_x
_atom_site_fract_y
_atom_site_fract_z
Si Si1 0.405115 0.750000 0.720828
Si Si2 0.400627 0.750000 0.419311
Si Si3 0.901090 0.451147 0.858147
Si Si4 0.202135 0.250000 0.070430
Si Si5 0.155924 0.941524 0.722139
Si Si6 0.261351 0.452665 0.075432
O O1 0.500000 0.750000 0.687850
O O2 0.344526 0.750000 0.649599
O O3 0.394500 0.842727 0.772349
O O4 0.500000 0.750000 0.434071
O O5 0.374003 0.842292 0.371557
O O6 0.360962 0.750000 0.500726
O O7 0.889731 0.476515 0.770814
O O8 0.836825 0.516820 0.905693
O O9 0.000000 0.470205 0.882293
O O10 0.263166 0.340329 0.065431
O O11 0.250000 0.917213 0.750000
O O12 0.167706 0.979894 0.637839
O O13 0.293344 0.500000 0.000000
#
# Coordination Sequence:
#
# PCOD8300056 Si02
#       6
#     8   8  16   8  16  16
#     4  12  21  32  56  84 109 145 177 215 274 327
#     4  10  21  33  49  79 115 144 171 219 268 318
#     4  10  20  35  54  78 107 142 184 221 263 318
#     4  12  20  32  51  83 116 139 170 213 267 329
#     4  10  20  35  53  77 111 144 179 223 262 320
#     4  11  22  36  55  78 112 147 178 220 272 320
#
# _framework density 18.182998000000001
#
# number of rings (size 3 to 8) (size 9 to 14) (size 15 to 20)
#    0.000    1.333    6.667    2.000    0.000    1.333 
#    0.000    6.111    0.000    2.667    0.000    1.556 
#    0.000    0.000    0.000    0.000    0.000    0.000 
#
# Total GULP energy -446293.466470 kJ/mol
# GULP energy per Si atom -12397.040735 kJ/mol
# Density = 1.814161 g / cm^3
# Si number density = 18.182998 Si / 1000 Ang^3
#
#
#
# Elastic Constant Matrix: (Units=GPa)
#
#
# Indices 1 2 3 4 5 6 
#
# 1 26.1365 14.6569 18.2449 0.0000 0.0000 0.0000
# 2 14.6569 103.1673 49.2791 0.0000 0.0000 0.0000
# 3 18.2449 49.2791 142.5403 0.0000 0.0000 0.0000
# 4 0.0000 0.0000 0.0000 17.2293 0.0000 0.0000
# 5 0.0000 0.0000 0.0000 0.0000 19.3447 0.0000
# 6 0.0000 0.0000 0.0000 0.0000 0.0000 17.2767
#
#
#
# Elastic Compliance Matrix: (Units=1/GPa)
#
#
# Indices 1 2 3 4 5 6 
#
# 1 0.043494 -0.004216 -0.004109 0.000000 0.000000 0.000000
# 2 -0.004216 0.012019 -0.003616 0.000000 0.000000 0.000000
# 3 -0.004109 -0.003616 0.008792 0.000000 0.000000 0.000000
# 4 0.000000 0.000000 0.000000 0.058041 0.000000 0.000000
# 5 0.000000 0.000000 0.000000 0.000000 0.051694 0.000000
# 6 0.000000 0.000000 0.000000 0.000000 0.000000 0.057881
#
#
# Mechanical properties :
#
#
# Convention : Reuss Voigt Hill
#
# Bulk Modulus (GPa) = 24.73913 48.46733 36.60323
# Shear Modulus (GPa) = 18.56827 23.41435 20.99131
#
# Velocity S-wave (km/s) = 3.19907 3.59235 3.40140
# Velocity P-wave (km/s) = 5.22308 6.62721 5.96659
#
# Compressibility (1/GPa) = 0.04042179
#
# Stress axis : x y z
#
# Youngs Moduli (GPa) = 22.99183 83.20168 113.74577
#
# Poissons Ratio (x) = 0.35079 0.46744
# Poissons Ratio (y) = 0.09694 0.41125
# Poissons Ratio (z) = 0.09448 0.30082
#
# Static dielectric constant tensor:
#      x y z
#    x 3.226930 0.000000 0.000000 
#    y 0.000000 3.680000 0.000000 
#    z 0.000000 0.000000 3.749890 
# 
# 
# High freq. dielectric constant tensor:
#      x y z
#    x 1.673870 0.000000 0.000000 
#    y 0.000000 1.711150 0.000000 
#    z 0.000000 0.000000 1.698830 
# 
# From -- ./inp_files/40983.got.cif
#   From: 2010.03.12/outbox.cif.g09.slc.cpg/sg74_21_cif.got.tgz:40983.got - 2010.04.16 15:46:19.
