data_PCOD8300365
_publ_section_title
;
Structure prediction by ZEFSAII (Michael W. Deem and Ramdas Pophale) SiO2 
 PCOD8300365
Probable space group: I M M A
;
_chemical_formula_sum "Si O2"
_cell_formula_units_Z 96
_cell_length_a 8.654183
_cell_length_b 29.849316
_cell_length_c 19.372289
_cell_angle_alpha 90.000000
_cell_angle_beta 90.000000
_cell_angle_gamma 90.000000
_cell_volume 5004.277650
_symmetry_space_group_name_H-M "I M M A"
_symmetry_group_IT_number 74
_symmetry_cell_setting 'orthorhombic'
loop_
_space_group_symop_operation_xyz
x,y,z
-x,1/2-y,z
x,-y,-z
-x,1/2+y,-z
-x,-y,-z
x,1/2+y,-z
-x,y,z
x,1/2-y,z
1/2+x,1/2+y,1/2+z
1/2-x,-y,1/2+z
1/2+x,1/2-y,1/2-z
1/2-x,y,1/2-z
1/2-x,1/2-y,1/2-z
1/2+x,y,1/2-z
1/2-x,1/2+y,1/2+z
1/2+x,-y,1/2+z
loop_
_atom_site_type_symbol
_atom_site_label
_atom_site_fract_x
_atom_site_fract_y
_atom_site_fract_z
Si Si1 0.182789 0.872273 0.419490
Si Si2 0.182804 0.199197 0.324640
Si Si3 0.683090 0.022176 0.426952
Si Si4 0.682632 0.700410 0.181153
Si Si5 0.183655 0.952950 0.326262
Si Si6 0.184156 0.880159 0.573317
O O1 0.241286 0.826853 0.384386
O O2 0.249393 0.913678 0.375711
O O3 0.244480 0.869208 0.496753
O O4 0.000000 0.876224 0.419374
O O5 0.234309 0.250000 0.347265
O O6 0.250000 0.187271 0.250000
O O7 0.241782 0.160771 0.377752
O O8 0.000000 0.197281 0.319965
O O9 0.500000 0.019036 0.424169
O O10 0.736190 0.072669 0.411561
O O11 0.742321 0.000000 0.500000
O O12 0.757216 0.997984 0.361410
O O13 0.500000 0.700333 0.186465
O O14 0.751180 0.750000 0.172871
O O15 0.750000 0.677580 0.250000
O O16 0.250000 0.947394 0.250000
O O17 0.000000 0.952771 0.321522
O O18 0.000000 0.885546 0.577934
#
# Coordination Sequence:
#
# PCOD8300365 Si02
#       6
#    16  16  16  16  16  16
#     4   9  18  32  52  78 106 140 180 223 271 326
#     4   9  19  36  59  86 116 150 188 234 286 342
#     4  11  23  39  58  82 113 148 190 238 290 342
#     4   9  17  30  48  71 101 137 175 217 264 314
#     4  11  22  37  58  82 111 146 188 231 280 337
#     4  10  20  36  59  84 111 147 189 229 280 340
#
# _framework density 19.183588
#
# number of rings (size 3 to 8) (size 9 to 14) (size 15 to 20)
#    0.000    2.167    1.667    1.500    0.000    2.667 
#    0.000    6.667    0.000    0.000    0.000    4.667 
#    0.000    0.000    0.000    0.000    0.000    0.000 
#
# Total GULP energy -594909.721695 kJ/mol
# GULP energy per Si atom -12393.952535 kJ/mol
# Density = 1.913993 g / cm^3
# Si number density = 19.183588 Si / 1000 Ang^3
#
#
#
# Elastic Constant Matrix: (Units=GPa)
#
#
# Indices 1 2 3 4 5 6 
#
# 1 37.1331 28.3454 28.7747 0.0001 0.0000 0.0000
# 2 28.3454 146.7232 95.2843 0.0003 0.0000 0.0000
# 3 28.7747 95.2843 166.6386 0.0010 0.0000 0.0001
# 4 0.0001 0.0003 0.0010 13.5271 0.0000 0.0001
# 5 0.0000 0.0000 0.0000 0.0000 27.6135 0.0000
# 6 0.0000 0.0000 0.0001 0.0001 0.0000 19.4117
#
#
#
# Elastic Compliance Matrix: (Units=1/GPa)
#
#
# Indices 1 2 3 4 5 6 
#
# 1 0.032646 -0.004209 -0.003231 0.000000 0.000000 0.000000
# 2 -0.004209 0.011384 -0.005783 0.000000 0.000000 0.000000
# 3 -0.003231 -0.005783 0.009865 -0.000001 0.000000 0.000000
# 4 0.000000 0.000000 -0.000001 0.073926 0.000000 0.000000
# 5 0.000000 0.000000 0.000000 0.000000 0.036214 0.000000
# 6 0.000000 0.000000 0.000000 0.000000 0.000000 0.051515
#
#
# Mechanical properties :
#
#
# Convention : Reuss Voigt Hill
#
# Bulk Modulus (GPa) = 36.42790 72.81151 54.61971
# Shear Modulus (GPa) = 19.90877 25.31651 22.61264
#
# Velocity S-wave (km/s) = 3.22499 3.63670 3.43702
# Velocity P-wave (km/s) = 5.73565 7.46134 6.65467
#
# Compressibility (1/GPa) = 0.02745149
#
# Stress axis : x y z
#
# Youngs Moduli (GPa) = 30.63120 87.84268 101.36470
#
# Poissons Ratio (x) = 0.36973 0.32747
# Poissons Ratio (y) = 0.12893 0.58615
# Poissons Ratio (z) = 0.09896 0.50796
#
# Static dielectric constant tensor:
#      x y z
#    x 3.244490 0.000000 0.000000 
#    y 0.000000 3.818370 0.000000 
#    z 0.000000 0.000000 4.345080 
# 
# 
# High freq. dielectric constant tensor:
#      x y z
#    x 1.723640 0.000000 0.000000 
#    y 0.000000 1.758720 0.000000 
#    z 0.000000 0.000000 1.750970 
# 
# From -- ./inp_files/49172.got.cif
#   From: 2010.03.12/outbox.cif.g09.slc.cpg/sg74_25_cif.got.tgz:49172.got - 2010.04.16 15:46:19.
