data_PCOD8300017
_publ_section_title
;
Structure prediction by ZEFSAII (Michael W. Deem and Ramdas Pophale) SiO2 
 PCOD8300017
Probable space group: I M M A
;
_chemical_formula_sum "Si O2"
_cell_formula_units_Z 80
_cell_length_a 15.457675
_cell_length_b 22.421117
_cell_length_c 10.941717
_cell_angle_alpha 90.000000
_cell_angle_beta 90.000000
_cell_angle_gamma 90.000000
_cell_volume 3792.162112
_symmetry_space_group_name_H-M "I M M A"
_symmetry_group_IT_number 74
_symmetry_cell_setting 'orthorhombic'
loop_
_space_group_symop_operation_xyz
x,y,z
-x,1/2-y,z
x,-y,-z
-x,1/2+y,-z
-x,-y,-z
x,1/2+y,-z
-x,y,z
x,1/2-y,z
1/2+x,1/2+y,1/2+z
1/2-x,-y,1/2+z
1/2+x,1/2-y,1/2-z
1/2-x,y,1/2-z
1/2-x,1/2-y,1/2-z
1/2+x,y,1/2-z
1/2-x,1/2+y,1/2+z
1/2+x,-y,1/2+z
loop_
_atom_site_type_symbol
_atom_site_label
_atom_site_fract_x
_atom_site_fract_y
_atom_site_fract_z
Si Si1 0.754537 0.131518 0.383474
Si Si2 0.192880 0.815923 0.371301
Si Si3 0.402944 0.964730 0.875503
Si Si4 0.597569 0.429548 0.489114
Si Si5 0.600725 0.080355 0.756962
O O1 0.750000 0.163998 0.250000
O O2 0.757818 0.176794 0.498316
O O3 0.838955 0.090459 0.387067
O O4 0.665551 0.093318 0.389466
O O5 0.149623 0.750000 0.373419
O O6 0.250000 0.821241 0.250000
O O7 0.124895 0.869428 0.356507
O O8 0.500000 0.942763 0.835635
O O9 0.361386 0.014143 0.783096
O O10 0.411229 0.000000 0.000000
O O11 0.601157 0.500000 0.500000
O O12 0.500000 0.409091 0.454012
O O13 0.626759 0.400856 0.619444
O O14 0.500000 0.071424 0.768471
#
# Coordination Sequence:
#
# PCOD8300017 Si02
#       5
#    16  16  16  16  16
#     4  12  24  37  62  92 124 165 199 246 313 376
#     4  11  24  42  62  85 116 158 213 263 299 352
#     4  10  20  34  57  93 130 160 196 248 307 373
#     4  10  21  37  58  89 127 161 200 246 300 370
#     4  10  20  38  63  90 120 159 207 257 304 361
#
# _framework density 21.096145
#
# number of rings (size 3 to 8) (size 9 to 14) (size 15 to 20)
#    0.000    1.400    4.000    1.800    0.000    4.000 
#    0.000    0.000    0.000    0.600    0.000    2.800 
#    0.000    0.000    0.000    0.000    0.000    0.000 
#
# Total GULP energy -495570.287321 kJ/mol
# GULP energy per Si atom -12389.257183 kJ/mol
# Density = 2.104813 g / cm^3
# Si number density = 21.096145 Si / 1000 Ang^3
#
#
#
# Elastic Constant Matrix: (Units=GPa)
#
#
# Indices 1 2 3 4 5 6 
#
# 1 70.4052 23.9092 29.8149 0.0000 0.0000 0.0000
# 2 23.9092 72.7556 23.5518 0.0000 0.0000 0.0000
# 3 29.8149 23.5518 143.6496 0.0000 -0.0001 0.0000
# 4 0.0000 0.0000 0.0000 13.7923 0.0000 0.0000
# 5 0.0000 0.0000 -0.0001 0.0000 2.6314 0.0000
# 6 0.0000 0.0000 0.0000 0.0000 0.0000 12.4114
#
#
#
# Elastic Compliance Matrix: (Units=1/GPa)
#
#
# Indices 1 2 3 4 5 6 
#
# 1 0.016959 -0.004682 -0.002752 0.000000 0.000000 0.000000
# 2 -0.004682 0.015808 -0.001620 0.000000 0.000000 0.000000
# 3 -0.002752 -0.001620 0.007798 0.000000 0.000000 0.000000
# 4 0.000000 0.000000 0.000000 0.072504 0.000001 0.000000
# 5 0.000000 0.000000 0.000000 0.000001 0.380029 0.000000
# 6 0.000000 0.000000 0.000000 0.000000 0.000000 0.080571
#
#
# Mechanical properties :
#
#
# Convention : Reuss Voigt Hill
#
# Bulk Modulus (GPa) = 44.53105 49.04025 46.78565
# Shear Modulus (GPa) = 8.34357 19.73598 14.03977
#
# Velocity S-wave (km/s) = 1.99088 3.06195 2.58255
# Velocity P-wave (km/s) = 5.14191 5.98308 5.57838
#
# Compressibility (1/GPa) = 0.02245624
#
# Stress axis : x y z
#
# Youngs Moduli (GPa) = 58.96550 63.26018 128.23460
#
# Poissons Ratio (x) = 0.29620 0.35293
# Poissons Ratio (y) = 0.27609 0.20773
# Poissons Ratio (z) = 0.16229 0.10248
#
# Static dielectric constant tensor:
#      x y z
#    x 3.748540 0.000000 0.000000 
#    y 0.000000 3.670960 0.000000 
#    z 0.000000 0.000000 4.557980 
# 
# 
# High freq. dielectric constant tensor:
#      x y z
#    x 1.816010 0.000000 0.000000 
#    y 0.000000 1.784250 0.000000 
#    z 0.000000 0.000000 1.855040 
# 
# From -- ./inp_files/20496.got.cif
#   From: 2010.03.12/outbox.cif.g09.slc.cpg/sg74_11_cif.got.tgz:20496.got - 2010.04.16 15:46:19.
