data_PCOD8300474
_publ_section_title
;
Structure prediction by ZEFSAII (Michael W. Deem and Ramdas Pophale) SiO2 
 PCOD8300474
Probable space group: I M M A
;
_chemical_formula_sum "Si O2"
_cell_formula_units_Z 96
_cell_length_a 24.809077
_cell_length_b 20.465860
_cell_length_c 11.220407
_cell_angle_alpha 90.000000
_cell_angle_beta 90.000000
_cell_angle_gamma 90.000000
_cell_volume 5697.039314
_symmetry_space_group_name_H-M "I M M A"
_symmetry_group_IT_number 74
_symmetry_cell_setting 'orthorhombic'
loop_
_space_group_symop_operation_xyz
x,y,z
-x,1/2-y,z
x,-y,-z
-x,1/2+y,-z
-x,-y,-z
x,1/2+y,-z
-x,y,z
x,1/2-y,z
1/2+x,1/2+y,1/2+z
1/2-x,-y,1/2+z
1/2+x,1/2-y,1/2-z
1/2-x,y,1/2-z
1/2-x,1/2-y,1/2-z
1/2+x,y,1/2-z
1/2-x,1/2+y,1/2+z
1/2+x,-y,1/2+z
loop_
_atom_site_type_symbol
_atom_site_label
_atom_site_fract_x
_atom_site_fract_y
_atom_site_fract_z
Si Si1 0.062119 0.071665 0.054146
Si Si2 0.138609 0.677380 0.052532
Si Si3 0.222533 0.852743 0.862366
Si Si4 0.812687 0.427609 0.486688
Si Si5 0.143485 0.452492 0.244989
Si Si6 0.185794 0.591091 0.252403
O O1 0.088025 0.071765 0.185953
O O2 0.000000 0.090737 0.065888
O O3 0.090255 0.127356 0.974353
O O4 0.070243 0.000000 0.000000
O O5 0.115723 0.750000 0.079623
O O6 0.170083 0.651998 0.169439
O O7 0.178835 0.686559 0.939528
O O8 0.250000 0.813208 0.750000
O O9 0.268120 0.875251 0.952847
O O10 0.195276 0.916011 0.805815
O O11 0.786205 0.500000 0.500000
O O12 0.859783 0.436578 0.386843
O O13 0.835298 0.399583 0.611554
O O14 0.154404 0.527075 0.207381
O O15 0.250000 0.580622 0.250000
#
# Coordination Sequence:
#
# PCOD8300474 Si02
#       6
#    16  16  16  16  16  16
#     4  10  20  37  61  79  97 130 178 233 283 318
#     4  11  23  34  49  77 111 142 176 220 273 324
#     4   9  17  29  46  70 102 140 179 212 253 308
#     4   9  16  26  45  74 105 141 175 207 254 305
#     4   9  17  29  51  78 101 129 174 227 269 304
#     4  11  18  29  48  73 112 149 176 210 249 317
#
# _framework density 16.850857999999999
#
# number of rings (size 3 to 8) (size 9 to 14) (size 15 to 20)
#    0.000    2.167    3.333    2.500    0.000    1.000 
#    0.000    0.000    0.000    6.500    0.000    0.000 
#    0.000    0.000    0.000    0.000    0.000    0.000 
#
# Total GULP energy -594690.046840 kJ/mol
# GULP energy per Si atom -12389.375976 kJ/mol
# Density = 1.681250 g / cm^3
# Si number density = 16.850858 Si / 1000 Ang^3
#
#
#
# Elastic Constant Matrix: (Units=GPa)
#
#
# Indices 1 2 3 4 5 6 
#
# 1 89.0204 30.9727 38.6912 0.0000 0.0000 0.0000
# 2 30.9727 91.4617 35.1273 0.0000 0.0000 0.0000
# 3 38.6912 35.1273 108.7977 0.0000 0.0000 0.0000
# 4 0.0000 0.0000 0.0000 8.0346 0.0000 0.0000
# 5 0.0000 0.0000 0.0000 0.0000 17.8928 0.0000
# 6 0.0000 0.0000 0.0000 0.0000 0.0000 7.7054
#
#
#
# Elastic Compliance Matrix: (Units=1/GPa)
#
#
# Indices 1 2 3 4 5 6 
#
# 1 0.014085 -0.003249 -0.003960 0.000000 0.000000 0.000000
# 2 -0.003249 0.013231 -0.003116 0.000000 0.000000 0.000000
# 3 -0.003960 -0.003116 0.011606 0.000000 0.000000 0.000000
# 4 0.000000 0.000000 0.000000 0.124462 0.000000 0.000000
# 5 0.000000 0.000000 0.000000 0.000000 0.055888 0.000000
# 6 0.000000 0.000000 0.000000 0.000000 0.000000 0.129779
#
#
# Mechanical properties :
#
#
# Convention : Reuss Voigt Hill
#
# Bulk Modulus (GPa) = 54.73176 55.42913 55.08044
# Shear Modulus (GPa) = 13.30525 19.02580 16.16553
#
# Velocity S-wave (km/s) = 2.81301 3.36381 3.10066
# Velocity P-wave (km/s) = 6.56516 6.93198 6.75106
#
# Compressibility (1/GPa) = 0.01827093
#
# Stress axis : x y z
#
# Youngs Moduli (GPa) = 70.99812 75.58227 86.16360
#
# Poissons Ratio (x) = 0.24555 0.34121
# Poissons Ratio (y) = 0.23066 0.26852
# Poissons Ratio (z) = 0.28115 0.23554
#
# Static dielectric constant tensor:
#      x y z
#    x 2.855780 0.000000 0.000000 
#    y 0.000000 2.913080 0.000000 
#    z 0.000000 0.000000 3.528260 
# 
# 
# High freq. dielectric constant tensor:
#      x y z
#    x 1.608680 0.000000 0.000000 
#    y 0.000000 1.633640 0.000000 
#    z 0.000000 0.000000 1.663970 
# 
# From -- ./inp_files/24075.got.cif
#   From: 2010.03.12/outbox.cif.g09.slc.cpg/sg74_13_cif.got.tgz:24075.got - 2010.04.16 15:46:19.
