data_PCOD8300034
_publ_section_title
;
Structure prediction by ZEFSAII (Michael W. Deem and Ramdas Pophale) SiO2 
 PCOD8300034
Probable space group: I M M A
;
_chemical_formula_sum "Si O2"
_cell_formula_units_Z 80
_cell_length_a 13.159076
_cell_length_b 24.067144
_cell_length_c 12.595334
_cell_angle_alpha 90.000000
_cell_angle_beta 90.000000
_cell_angle_gamma 90.000000
_cell_volume 3988.959622
_symmetry_space_group_name_H-M "I M M A"
_symmetry_group_IT_number 74
_symmetry_cell_setting 'orthorhombic'
loop_
_space_group_symop_operation_xyz
x,y,z
-x,1/2-y,z
x,-y,-z
-x,1/2+y,-z
-x,-y,-z
x,1/2+y,-z
-x,y,z
x,1/2-y,z
1/2+x,1/2+y,1/2+z
1/2-x,-y,1/2+z
1/2+x,1/2-y,1/2-z
1/2-x,y,1/2-z
1/2-x,1/2-y,1/2-z
1/2+x,y,1/2-z
1/2-x,1/2+y,1/2+z
1/2+x,-y,1/2+z
loop_
_atom_site_type_symbol
_atom_site_label
_atom_site_fract_x
_atom_site_fract_y
_atom_site_fract_z
Si Si1 0.121099 0.997341 0.329477
Si Si2 0.178551 0.311970 0.392286
Si Si3 0.880779 0.914988 0.501891
Si Si4 0.118276 0.028436 0.104903
Si Si5 0.886217 0.654202 0.833504
O O1 0.149077 0.939093 0.386219
O O2 0.000000 0.005990 0.322141
O O3 0.168056 0.047350 0.402654
O O4 0.167082 0.999395 0.209884
O O5 0.132977 0.250000 0.407206
O O6 0.155746 0.350960 0.493451
O O7 0.125400 0.344379 0.294214
O O8 0.300296 0.304807 0.378956
O O9 0.000000 0.918947 0.516216
O O10 0.135610 0.094345 0.114681
O O11 0.000000 0.014765 0.102701
O O12 0.168297 0.000000 0.000000
O O13 0.000000 0.674406 0.863323
#
# Coordination Sequence:
#
# PCOD8300034 Si02
#       5
#    16  16  16  16  16
#     4   8  14  27  49  75 104 137 169 206 261 318
#     4  11  22  33  49  76 102 134 184 223 258 314
#     4   9  16  29  50  75 105 137 168 210 262 313
#     4   9  16  29  50  75 105 138 171 211 256 313
#     4  10  20  35  49  69 105 140 172 214 267 318
#
# _framework density 20.055353
#
# number of rings (size 3 to 8) (size 9 to 14) (size 15 to 20)
#    0.000    2.600    2.000    3.000    0.000    2.800 
#    3.600    0.000    0.000    0.000    0.000    4.200 
#    0.000   16.000    0.000    0.000    0.000    1.200 
#
# Total GULP energy -495652.028586 kJ/mol
# GULP energy per Si atom -12391.300715 kJ/mol
# Density = 2.000971 g / cm^3
# Si number density = 20.055353 Si / 1000 Ang^3
#
#
#
# Elastic Constant Matrix: (Units=GPa)
#
#
# Indices 1 2 3 4 5 6 
#
# 1 32.3179 6.5173 16.3735 0.0000 0.0000 0.0000
# 2 6.5173 129.4766 65.8147 0.0000 0.0000 0.0000
# 3 16.3735 65.8147 119.9333 -0.0001 0.0000 0.0000
# 4 0.0000 0.0000 -0.0001 21.4332 0.0000 0.0000
# 5 0.0000 0.0000 0.0000 0.0000 8.2815 0.0000
# 6 0.0000 0.0000 0.0000 0.0000 0.0000 20.6544
#
#
#
# Elastic Compliance Matrix: (Units=1/GPa)
#
#
# Indices 1 2 3 4 5 6 
#
# 1 0.033314 0.000881 -0.005031 0.000000 0.000000 0.000000
# 2 0.000881 0.010734 -0.006011 0.000000 0.000000 0.000000
# 3 -0.005031 -0.006011 0.012323 0.000000 0.000000 0.000000
# 4 0.000000 0.000000 0.000000 0.046657 0.000000 0.000000
# 5 0.000000 0.000000 0.000000 0.000000 0.120751 0.000000
# 6 0.000000 0.000000 0.000000 0.000000 0.000000 0.048416
#
#
# Mechanical properties :
#
#
# Convention : Reuss Voigt Hill
#
# Bulk Modulus (GPa) = 27.74023 51.01542 39.37782
# Shear Modulus (GPa) = 16.41847 22.94197 19.68022
#
# Velocity S-wave (km/s) = 2.86432 3.38588 3.13596
# Velocity P-wave (km/s) = 4.98006 6.38577 5.72621
#
# Compressibility (1/GPa) = 0.03604873
#
# Stress axis : x y z
#
# Youngs Moduli (GPa) = 30.01733 93.15760 81.14646
#
# Poissons Ratio (x) = -0.08203 0.40828
# Poissons Ratio (y) = -0.02643 0.48776
# Poissons Ratio (z) = 0.15103 0.55996
#
# Static dielectric constant tensor:
#      x y z
#    x 3.755630 0.000000 0.000000 
#    y 0.000000 3.461530 0.000000 
#    z 0.000000 0.000000 3.753240 
# 
# 
# High freq. dielectric constant tensor:
#      x y z
#    x 1.810490 0.000000 0.000000 
#    y 0.000000 1.755240 0.000000 
#    z 0.000000 0.000000 1.744160 
# 
# From -- ./inp_files/20448.got.cif
#   From: 2010.03.12/outbox.cif.g09.slc.cpg/sg74_11_cif.got.tgz:20448.got - 2010.04.16 15:46:19.
