data_PCOD8300854
_publ_section_title
;
Structure prediction by ZEFSAII (Michael W. Deem and Ramdas Pophale) SiO2 
 PCOD8300854
Probable space group: I M M A
;
_chemical_formula_sum "Si O2"
_cell_formula_units_Z 104
_cell_length_a 9.076956
_cell_length_b 21.223875
_cell_length_c 28.256629
_cell_angle_alpha 90.000000
_cell_angle_beta 90.000000
_cell_angle_gamma 90.000000
_cell_volume 5443.588136
_symmetry_space_group_name_H-M "I M M A"
_symmetry_group_IT_number 74
_symmetry_cell_setting 'orthorhombic'
loop_
_space_group_symop_operation_xyz
x,y,z
-x,1/2-y,z
x,-y,-z
-x,1/2+y,-z
-x,-y,-z
x,1/2+y,-z
-x,y,z
x,1/2-y,z
1/2+x,1/2+y,1/2+z
1/2-x,-y,1/2+z
1/2+x,1/2-y,1/2-z
1/2-x,y,1/2-z
1/2-x,1/2-y,1/2-z
1/2+x,y,1/2-z
1/2-x,1/2+y,1/2+z
1/2+x,-y,1/2+z
loop_
_atom_site_type_symbol
_atom_site_label
_atom_site_fract_x
_atom_site_fract_y
_atom_site_fract_z
Si Si1 0.169183 0.928236 0.047581
Si Si2 0.674486 0.368718 0.147529
Si Si3 0.321261 0.750000 0.697570
Si Si4 0.160372 0.177160 0.792718
Si Si5 0.328223 0.109874 0.865371
Si Si6 0.171255 0.495815 0.299141
Si Si7 0.669583 0.573880 0.559115
O O1 0.276093 0.888320 0.080691
O O2 0.000000 0.918328 0.062070
O O3 0.212852 0.000713 0.056537
O O4 0.194821 0.902488 0.994577
O O5 0.500000 0.353474 0.146059
O O6 0.765948 0.310330 0.168183
O O7 0.711026 0.426815 0.181748
O O8 0.727389 0.386412 0.094491
O O9 0.500000 0.750000 0.701389
O O10 0.250000 0.750000 0.750000
O O11 0.140443 0.250000 0.781793
O O12 0.250000 0.144068 0.750000
O O13 0.249664 0.168886 0.840921
O O14 0.000000 0.144654 0.795797
O O15 0.500000 0.120320 0.863186
O O16 0.276698 0.046230 0.838427
O O17 0.250000 0.508455 0.250000
O O18 0.000000 0.502775 0.289720
O O19 0.500000 0.582983 0.574649
#
# Coordination Sequence:
#
# PCOD8300854 Si02
#       7
#    16  16   8  16  16  16  16
#     4   9  18  33  55  84 117 150 187 226 277 336
#     4  11  22  39  60  85 116 152 193 238 292 348
#     4  12  26  44  64  88 116 154 202 248 297 354
#     4  10  21  37  56  78 106 144 187 228 273 327
#     4  11  21  34  53  82 114 147 186 228 280 333
#     4  10  22  35  50  78 113 146 181 224 276 334
#     4   9  18  34  57  85 114 149 188 229 277 337
#
# _framework density 19.105046999999999
#
# number of rings (size 3 to 8) (size 9 to 14) (size 15 to 20)
#    0.000    1.846    1.538    3.923    0.000    6.462 
#    0.000    1.538    1.692    0.000    0.000    0.000 
#    0.000    0.000    0.000    0.000    0.000    0.000 
#
# Total GULP energy -644691.074824 kJ/mol
# GULP energy per Si atom -12397.905285 kJ/mol
# Density = 1.906156 g / cm^3
# Si number density = 19.105047 Si / 1000 Ang^3
#
#
#
# Elastic Constant Matrix: (Units=GPa)
#
#
# Indices 1 2 3 4 5 6 
#
# 1 118.2158 31.4425 63.6568 0.0000 0.0000 0.0000
# 2 31.4425 41.5970 21.4288 0.0000 0.0000 0.0000
# 3 63.6568 21.4288 120.9619 0.0000 0.0000 0.0000
# 4 0.0000 0.0000 0.0000 29.5225 0.0000 0.0000
# 5 0.0000 0.0000 0.0000 0.0000 41.9491 0.0000
# 6 0.0000 0.0000 0.0000 0.0000 0.0000 20.7808
#
#
#
# Elastic Compliance Matrix: (Units=1/GPa)
#
#
# Indices 1 2 3 4 5 6 
#
# 1 0.013521 -0.007213 -0.005838 0.000000 0.000000 0.000000
# 2 -0.007213 0.030302 -0.001572 0.000000 0.000000 0.000000
# 3 -0.005838 -0.001572 0.011618 0.000000 0.000000 0.000000
# 4 0.000000 0.000000 0.000000 0.033872 0.000000 0.000000
# 5 0.000000 0.000000 0.000000 0.000000 0.023838 0.000000
# 6 0.000000 0.000000 0.000000 0.000000 0.000000 0.048121
#
#
# Mechanical properties :
#
#
# Convention : Reuss Voigt Hill
#
# Bulk Modulus (GPa) = 38.17505 57.09233 47.63369
# Shear Modulus (GPa) = 25.09394 29.40025 27.24710
#
# Velocity S-wave (km/s) = 3.62812 3.92710 3.78057
# Velocity P-wave (km/s) = 6.12993 7.10712 6.63653
#
# Compressibility (1/GPa) = 0.02619512
#
# Stress axis : x y z
#
# Youngs Moduli (GPa) = 73.95848 33.00067 86.07538
#
# Poissons Ratio (x) = 0.23804 0.50248
# Poissons Ratio (y) = 0.53347 0.13533
# Poissons Ratio (z) = 0.43175 0.05189
#
# Static dielectric constant tensor:
#      x y z
#    x 3.639520 0.000000 0.000000 
#    y 0.000000 3.296260 0.000000 
#    z 0.000000 0.000000 3.628220 
# 
# 
# High freq. dielectric constant tensor:
#      x y z
#    x 1.751180 0.000000 0.000000 
#    y 0.000000 1.719180 0.000000 
#    z 0.000000 0.000000 1.750320 
# 
# From -- ./inp_files/64798.got.cif
#   From: 2010.03.12/outbox.cif.g09.slc.cpg/sg74_33_cif.got.tgz:64798.got - 2010.04.16 15:46:19.
