data_PCOD8300529
_publ_section_title
;
Structure prediction by ZEFSAII (Michael W. Deem and Ramdas Pophale) SiO2 
 PCOD8300529
Probable space group: I M M A
;
_chemical_formula_sum "Si O2"
_cell_formula_units_Z 104
_cell_length_a 11.908009
_cell_length_b 25.510339
_cell_length_c 18.133996
_cell_angle_alpha 90.000000
_cell_angle_beta 90.000000
_cell_angle_gamma 90.000000
_cell_volume 5508.697185
_symmetry_space_group_name_H-M "I M M A"
_symmetry_group_IT_number 74
_symmetry_cell_setting 'orthorhombic'
loop_
_space_group_symop_operation_xyz
x,y,z
-x,1/2-y,z
x,-y,-z
-x,1/2+y,-z
-x,-y,-z
x,1/2+y,-z
-x,y,z
x,1/2-y,z
1/2+x,1/2+y,1/2+z
1/2-x,-y,1/2+z
1/2+x,1/2-y,1/2-z
1/2-x,y,1/2-z
1/2-x,1/2-y,1/2-z
1/2+x,y,1/2-z
1/2-x,1/2+y,1/2+z
1/2+x,-y,1/2+z
loop_
_atom_site_type_symbol
_atom_site_label
_atom_site_fract_x
_atom_site_fract_y
_atom_site_fract_z
Si Si1 0.241449 0.550461 0.163037
Si Si2 0.130148 0.451970 0.401346
Si Si3 0.870425 0.391175 0.546351
Si Si4 0.000000 0.080133 0.138688
Si Si5 0.221901 0.630558 0.829249
Si Si6 0.284372 0.811399 0.523683
Si Si7 0.500000 0.866599 0.493032
Si Si8 0.500000 0.460939 0.610377
O O1 0.250000 0.551454 0.250000
O O2 0.292070 0.499302 0.124264
O O3 0.303743 0.598595 0.122457
O O4 0.109061 0.555527 0.154724
O O5 0.146747 0.439725 0.488745
O O6 0.169177 0.401650 0.355406
O O7 0.000000 0.464525 0.383692
O O8 0.827520 0.337859 0.508651
O O9 0.000000 0.383772 0.566014
O O10 0.884311 0.090574 0.183266
O O11 0.000000 0.126110 0.079782
O O12 0.000000 0.023485 0.099087
O O13 0.250000 0.656396 0.750000
O O14 0.199634 0.675855 0.889389
O O15 0.275193 0.750000 0.512560
O O16 0.388197 0.833618 0.474450
O O17 0.500000 0.926032 0.463067
#
# Coordination Sequence:
#
# PCOD8300529 Si02
#       8
#    16  16  16   8  16  16   8   8
#     4  12  25  36  56  87 122 153 187 230 283 345
#     4  10  21  36  58  81 116 160 199 226 270 335
#     4  10  22  41  60  83 113 153 191 240 289 338
#     4  10  21  33  55  80 120 158 191 227 273 338
#     4  10  21  34  53  82 119 159 191 232 283 335
#     4  10  21  39  62  85 107 143 198 250 296 341
#     4  10  20  38  58  86 114 145 186 244 295 337
#     4  12  23  35  57  88 115 156 194 226 279 338
#
# _framework density 18.879237
#
# number of rings (size 3 to 8) (size 9 to 14) (size 15 to 20)
#    0.000    1.538    3.077    1.846    3.231    3.077 
#    0.000    0.000    0.000    0.462    0.000    0.000 
#    0.000    0.000    0.000    0.000    0.000    0.000 
#
# Total GULP energy -644411.912626 kJ/mol
# GULP energy per Si atom -12392.536781 kJ/mol
# Density = 1.883627 g / cm^3
# Si number density = 18.879237 Si / 1000 Ang^3
#
#
#
# Elastic Constant Matrix: (Units=GPa)
#
#
# Indices 1 2 3 4 5 6 
#
# 1 150.6673 37.6396 49.3365 0.0000 0.0000 0.0000
# 2 37.6396 99.9852 31.6593 0.0000 0.0000 0.0000
# 3 49.3365 31.6593 85.7625 0.0000 0.0000 0.0000
# 4 0.0000 0.0000 0.0000 14.3307 0.0000 0.0000
# 5 0.0000 0.0000 0.0000 0.0000 19.5874 0.0000
# 6 0.0000 0.0000 0.0000 0.0000 0.0000 25.8793
#
#
#
# Elastic Compliance Matrix: (Units=1/GPa)
#
#
# Indices 1 2 3 4 5 6 
#
# 1 0.008474 -0.001864 -0.004186 0.000000 0.000000 0.000000
# 2 -0.001864 0.011735 -0.003260 0.000000 0.000000 0.000000
# 3 -0.004186 -0.003260 0.015272 0.000000 0.000000 0.000000
# 4 0.000000 0.000000 0.000000 0.069780 0.000000 0.000000
# 5 0.000000 0.000000 0.000000 0.000000 0.051053 0.000000
# 6 0.000000 0.000000 0.000000 0.000000 0.000000 0.038641
#
#
# Mechanical properties :
#
#
# Convention : Reuss Voigt Hill
#
# Bulk Modulus (GPa) = 59.31187 63.74287 61.52737
# Shear Modulus (GPa) = 22.81058 26.47811 24.64435
#
# Velocity S-wave (km/s) = 3.47974 3.74906 3.61691
# Velocity P-wave (km/s) = 6.90141 7.25102 7.07838
#
# Compressibility (1/GPa) = 0.01686003
#
# Stress axis : x y z
#
# Youngs Moduli (GPa) = 118.01136 85.21187 65.48037
#
# Poissons Ratio (x) = 0.15887 0.27413
# Poissons Ratio (y) = 0.22002 0.21344
# Poissons Ratio (z) = 0.49405 0.27776
#
# Static dielectric constant tensor:
#      x y z
#    x 4.059190 0.000000 0.000000 
#    y 0.000000 3.097720 0.000000 
#    z 0.000000 0.000000 3.327190 
# 
# 
# High freq. dielectric constant tensor:
#      x y z
#    x 1.755990 0.000000 0.000000 
#    y 0.000000 1.697910 0.000000 
#    z 0.000000 0.000000 1.716680 
# 
# From -- ./inp_files/41727.got.cif
#   From: 2010.03.12/outbox.cif.g09.slc.cpg/sg74_21_cif.got.tgz:41727.got - 2010.04.16 15:46:19.
