data_PCOD8300192
_publ_section_title
;
Structure prediction by ZEFSAII (Michael W. Deem and Ramdas Pophale) SiO2 
 PCOD8300192
Probable space group: I M M A
;
_chemical_formula_sum "Si O2"
_cell_formula_units_Z 80
_cell_length_a 26.268604
_cell_length_b 19.931166
_cell_length_c 7.550502
_cell_angle_alpha 90.000000
_cell_angle_beta 90.000000
_cell_angle_gamma 90.000000
_cell_volume 3953.170326
_symmetry_space_group_name_H-M "I M M A"
_symmetry_group_IT_number 74
_symmetry_cell_setting 'orthorhombic'
loop_
_space_group_symop_operation_xyz
x,y,z
-x,1/2-y,z
x,-y,-z
-x,1/2+y,-z
-x,-y,-z
x,1/2+y,-z
-x,y,z
x,1/2-y,z
1/2+x,1/2+y,1/2+z
1/2-x,-y,1/2+z
1/2+x,1/2-y,1/2-z
1/2-x,y,1/2-z
1/2-x,1/2-y,1/2-z
1/2+x,y,1/2-z
1/2-x,1/2+y,1/2+z
1/2+x,-y,1/2+z
loop_
_atom_site_type_symbol
_atom_site_label
_atom_site_fract_x
_atom_site_fract_y
_atom_site_fract_z
Si Si1 0.000000 0.077658 0.569117
Si Si2 0.670503 0.675494 0.824636
Si Si3 0.825945 0.000000 0.000000
Si Si4 0.500000 0.922177 0.482890
Si Si5 0.392587 0.624963 0.490778
Si Si6 0.250000 0.426832 0.250000
Si Si7 0.414098 0.175469 0.893306
O O1 0.000000 0.089945 0.776352
O O2 0.050571 0.118234 0.514165
O O3 0.000000 0.000000 0.500000
O O4 0.693338 0.750000 0.805013
O O5 0.639121 0.661497 0.643751
O O6 0.715621 0.623193 0.867228
O O7 0.637390 0.670401 0.999082
O O8 0.862819 0.058217 0.928808
O O9 0.788963 0.974827 0.847843
O O10 0.551059 0.891489 0.570625
O O11 0.500000 0.000000 0.500000
O O12 0.400302 0.668127 0.313922
O O13 0.438588 0.250000 0.915680
#
# Coordination Sequence:
#
# PCOD8300192 Si02
#       7
#     8  16   8   8  16   8  16
#     4  10  23  35  57  89 120 158 196 245 294 350
#     4  10  22  40  61  83 113 156 199 246 295 351
#     4  10  22  37  58  88 116 155 192 254 302 358
#     4  10  20  35  57  85 122 151 190 233 298 361
#     4  10  21  38  60  88 121 153 195 245 299 358
#     4  10  23  38  58  84 117 148 198 252 300 352
#     4  10  22  39  60  86 120 160 200 243 298 361
#
# _framework density 20.236922
#
# number of rings (size 3 to 8) (size 9 to 14) (size 15 to 20)
#    0.000    2.000    1.000    1.200    5.600    1.600 
#    0.000    2.500    0.000    6.000    0.000    0.000 
#    0.000    0.000    0.000    0.000    0.000    0.000 
#
# Total GULP energy -495579.753749 kJ/mol
# GULP energy per Si atom -12389.493844 kJ/mol
# Density = 2.019086 g / cm^3
# Si number density = 20.236922 Si / 1000 Ang^3
#
#
#
# Elastic Constant Matrix: (Units=GPa)
#
#
# Indices 1 2 3 4 5 6 
#
# 1 108.2144 42.4106 9.8114 0.0000 0.0000 0.0000
# 2 42.4106 118.4062 2.4730 0.0000 0.0000 0.0000
# 3 9.8114 2.4730 40.4496 0.0000 0.0000 0.0000
# 4 0.0000 0.0000 0.0000 26.9902 0.0000 0.0000
# 5 0.0000 0.0000 0.0000 0.0000 13.8297 0.0000
# 6 0.0000 0.0000 0.0000 0.0000 0.0000 322.0497
#
#
#
# Elastic Compliance Matrix: (Units=1/GPa)
#
#
# Indices 1 2 3 4 5 6 
#
# 1 0.010983 -0.003883 -0.002427 0.000000 0.000000 0.000000
# 2 -0.003883 0.009829 0.000341 0.000000 0.000000 0.000000
# 3 -0.002427 0.000341 0.025290 0.000000 0.000000 0.000000
# 4 0.000000 0.000000 0.000000 0.037050 0.000000 0.000000
# 5 0.000000 0.000000 0.000000 0.000000 0.072308 0.000000
# 6 0.000000 0.000000 0.000000 0.000000 0.000000 0.003105
#
#
# Mechanical properties :
#
#
# Convention : Reuss Voigt Hill
#
# Bulk Modulus (GPa) = 29.27024 41.82890 35.54957
# Shear Modulus (GPa) = 27.48897 86.73228 57.11063
#
# Velocity S-wave (km/s) = 3.68959 6.55374 5.31811
# Velocity P-wave (km/s) = 5.71366 8.83080 7.43737
#
# Compressibility (1/GPa) = 0.03416439
#
# Stress axis : x y z
#
# Youngs Moduli (GPa) = 91.05177 101.73734 39.54156
#
# Poissons Ratio (x) = 0.39506 0.09595
# Poissons Ratio (y) = 0.35356 -0.01348
# Poissons Ratio (z) = 0.22094 -0.03469
#
# Static dielectric constant tensor:
#      x y z
#    x 4.006870 0.000000 0.000000 
#    y 0.000000 4.000040 0.000000 
#    z 0.000000 0.000000 3.383940 
# 
# 
# High freq. dielectric constant tensor:
#      x y z
#    x 1.802670 0.000000 0.000000 
#    y 0.000000 1.805910 0.000000 
#    z 0.000000 0.000000 1.772420 
# 
# From -- ./inp_files/14998.got.cif
#   From: 2010.03.12/outbox.cif.g09.slc.cpg/sg74_8_cif.got.tgz:14998.got - 2010.04.16 15:46:19.
