data_PCOD8300832
_publ_section_title
;
Structure prediction by ZEFSAII (Michael W. Deem and Ramdas Pophale) SiO2 
 PCOD8300832
Probable space group: I M M A
;
_chemical_formula_sum "Si O2"
_cell_formula_units_Z 80
_cell_length_a 20.824681
_cell_length_b 17.234877
_cell_length_c 11.554183
_cell_angle_alpha 90.000000
_cell_angle_beta 90.000000
_cell_angle_gamma 90.000000
_cell_volume 4146.921244
_symmetry_space_group_name_H-M "I M M A"
_symmetry_group_IT_number 74
_symmetry_cell_setting 'orthorhombic'
loop_
_space_group_symop_operation_xyz
x,y,z
-x,1/2-y,z
x,-y,-z
-x,1/2+y,-z
-x,-y,-z
x,1/2+y,-z
-x,y,z
x,1/2-y,z
1/2+x,1/2+y,1/2+z
1/2-x,-y,1/2+z
1/2+x,1/2-y,1/2-z
1/2-x,y,1/2-z
1/2-x,1/2-y,1/2-z
1/2+x,y,1/2-z
1/2-x,1/2+y,1/2+z
1/2+x,-y,1/2+z
loop_
_atom_site_type_symbol
_atom_site_label
_atom_site_fract_x
_atom_site_fract_y
_atom_site_fract_z
Si Si1 0.708787 0.901709 0.903123
Si Si2 0.307923 0.921823 0.160856
Si Si3 0.073403 0.915679 0.979558
Si Si4 0.425956 0.840376 0.278736
Si Si5 0.837898 0.161623 0.186108
O O1 0.782604 0.890937 0.869663
O O2 0.664056 0.844753 0.825960
O O3 0.687636 0.987860 0.867741
O O4 0.702892 0.879530 0.037757
O O5 0.250000 0.901654 0.250000
O O6 0.376717 0.892852 0.206582
O O7 0.097052 0.873500 0.863756
O O8 0.000000 0.931520 0.954087
O O9 0.085513 0.858968 0.086937
O O10 0.107017 0.000000 0.000000
O O11 0.500000 0.860167 0.244055
O O12 0.411156 0.750000 0.257537
O O13 0.828905 0.250000 0.148393
#
# Coordination Sequence:
#
# PCOD8300832 Si02
#       5
#    16  16  16  16  16
#     4  10  22  36  56  85 117 148 194 244 294 353
#     4  11  21  37  62  85 113 156 197 244 293 355
#     4  10  21  36  60  88 116 154 199 243 290 353
#     4  10  22  39  57  83 120 155 193 246 301 346
#     4  11  21  36  58  82 119 156 186 242 308 354
#
# _framework density 19.291419999999999
#
# number of rings (size 3 to 8) (size 9 to 14) (size 15 to 20)
#    0.000    1.600    2.000    4.200    2.800    3.200 
#    0.000    3.000    0.000    0.000    0.000    0.000 
#    0.000    0.000    0.000    0.000    0.000    0.000 
#
# Total GULP energy -495861.500741 kJ/mol
# GULP energy per Si atom -12396.537519 kJ/mol
# Density = 1.924751 g / cm^3
# Si number density = 19.291420 Si / 1000 Ang^3
#
#
#
# Elastic Constant Matrix: (Units=GPa)
#
#
# Indices 1 2 3 4 5 6 
#
# 1 86.9085 49.8911 65.8584 0.0000 0.0000 0.0000
# 2 49.8911 100.4926 30.6220 0.0000 0.0000 0.0000
# 3 65.8584 30.6220 139.4664 0.0000 0.0000 0.0000
# 4 0.0000 0.0000 0.0000 25.4191 0.0000 0.0000
# 5 0.0000 0.0000 0.0000 0.0000 27.8737 0.0000
# 6 0.0000 0.0000 0.0000 0.0000 0.0000 25.4519
#
#
#
# Elastic Compliance Matrix: (Units=1/GPa)
#
#
# Indices 1 2 3 4 5 6 
#
# 1 0.023573 -0.008907 -0.009176 0.000000 0.000000 0.000000
# 2 -0.008907 0.014030 0.001126 0.000000 0.000000 0.000000
# 3 -0.009176 0.001126 0.011256 0.000000 0.000000 0.000000
# 4 0.000000 0.000000 0.000000 0.039340 0.000000 0.000000
# 5 0.000000 0.000000 0.000000 0.000000 0.035876 0.000000
# 6 0.000000 0.000000 0.000000 0.000000 0.000000 0.039290
#
#
# Mechanical properties :
#
#
# Convention : Reuss Voigt Hill
#
# Bulk Modulus (GPa) = 66.91518 68.84559 67.88039
# Shear Modulus (GPa) = 24.72043 27.78200 26.25122
#
# Velocity S-wave (km/s) = 3.58358 3.79901 3.69287
# Velocity P-wave (km/s) = 7.20309 7.41673 7.31069
#
# Compressibility (1/GPa) = 0.01494429
#
# Stress axis : x y z
#
# Youngs Moduli (GPa) = 42.42144 71.27545 88.84115
#
# Poissons Ratio (x) = 0.63486 0.81519
# Poissons Ratio (y) = 0.37785 -0.10000
# Poissons Ratio (z) = 0.38925 -0.08023
#
# Static dielectric constant tensor:
#      x y z
#    x 3.429320 0.000000 0.000000 
#    y 0.000000 3.532580 0.000000 
#    z 0.000000 0.000000 3.819330 
# 
# 
# High freq. dielectric constant tensor:
#      x y z
#    x 1.738250 0.000000 0.000000 
#    y 0.000000 1.757750 0.000000 
#    z 0.000000 0.000000 1.751140 
# 
# From -- ./inp_files/20489.got.cif
#   From: 2010.03.12/outbox.cif.g09.slc.cpg/sg74_11_cif.got.tgz:20489.got - 2010.04.16 15:46:19.
