data_PCOD8300058
_publ_section_title
;
Structure prediction by ZEFSAII (Michael W. Deem and Ramdas Pophale) SiO2 
 PCOD8300058
Probable space group: I M M A
;
_chemical_formula_sum "Si O2"
_cell_formula_units_Z 88
_cell_length_a 8.712989
_cell_length_b 27.544890
_cell_length_c 19.561636
_cell_angle_alpha 90.000000
_cell_angle_beta 90.000000
_cell_angle_gamma 90.000000
_cell_volume 4694.759846
_symmetry_space_group_name_H-M "I M M A"
_symmetry_group_IT_number 74
_symmetry_cell_setting 'orthorhombic'
loop_
_space_group_symop_operation_xyz
x,y,z
-x,1/2-y,z
x,-y,-z
-x,1/2+y,-z
-x,-y,-z
x,1/2+y,-z
-x,y,z
x,1/2-y,z
1/2+x,1/2+y,1/2+z
1/2-x,-y,1/2+z
1/2+x,1/2-y,1/2-z
1/2-x,y,1/2-z
1/2-x,1/2-y,1/2-z
1/2+x,y,1/2-z
1/2-x,1/2+y,1/2+z
1/2+x,-y,1/2+z
loop_
_atom_site_type_symbol
_atom_site_label
_atom_site_fract_x
_atom_site_fract_y
_atom_site_fract_z
Si Si1 0.819130 0.375365 0.677442
Si Si2 0.181635 0.750000 0.674914
Si Si3 0.179731 0.667046 0.916661
Si Si4 0.181520 0.461546 0.588908
Si Si5 0.324690 0.305921 0.942471
Si Si6 0.681882 0.567005 0.939089
O O1 0.750000 0.362220 0.750000
O O2 0.760633 0.428401 0.651798
O O3 0.764253 0.335467 0.622852
O O4 0.000000 0.374749 0.684685
O O5 0.250000 0.750000 0.750000
O O6 0.234218 0.701787 0.635934
O O7 0.000000 0.750000 0.678964
O O8 0.232583 0.611770 0.903207
O O9 0.000000 0.672073 0.903844
O O10 0.218241 0.682630 0.993514
O O11 0.238120 0.517065 0.597687
O O12 0.235869 0.436854 0.518043
O O13 0.000000 0.462834 0.584997
O O14 0.500000 0.320870 0.960944
O O15 0.313481 0.250000 0.922441
O O16 0.500000 0.574722 0.932530
#
# Coordination Sequence:
#
# PCOD8300058 Si02
#       6
#    16   8  16  16  16  16
#     4  10  20  35  53  79 114 153 197 243 294 348
#     4  12  26  46  68  90 119 154 189 230 286 348
#     4  12  23  36  58  92 124 150 187 235 288 346
#     4   8  15  30  55  81 106 144 199 246 285 343
#     4  10  20  36  59  82 108 151 203 243 283 340
#     4   9  16  32  58  83 107 146 195 242 290 339
#
# _framework density 18.744302999999999
#
# number of rings (size 3 to 8) (size 9 to 14) (size 15 to 20)
#    0.000    2.000    2.727    3.545    0.000    1.091 
#    0.000    3.636    0.000    2.182    0.000    0.000 
#    0.000    0.000    0.000    0.000    0.000    0.000 
#
# Total GULP energy -545525.173499 kJ/mol
# GULP energy per Si atom -12398.299398 kJ/mol
# Density = 1.870164 g / cm^3
# Si number density = 18.744303 Si / 1000 Ang^3
#
#
#
# Elastic Constant Matrix: (Units=GPa)
#
#
# Indices 1 2 3 4 5 6 
#
# 1 83.6341 44.2891 40.5538 0.0000 0.0000 0.0000
# 2 44.2891 148.9463 65.6223 0.0001 0.0000 0.0000
# 3 40.5538 65.6223 120.2517 0.0004 0.0000 0.0001
# 4 0.0000 0.0001 0.0004 27.4396 0.0000 0.0000
# 5 0.0000 0.0000 0.0000 0.0000 27.3802 0.0000
# 6 0.0000 0.0000 0.0001 0.0000 0.0000 11.1628
#
#
#
# Elastic Compliance Matrix: (Units=1/GPa)
#
#
# Indices 1 2 3 4 5 6 
#
# 1 0.015240 -0.002985 -0.003511 0.000000 0.000000 0.000000
# 2 -0.002985 0.009424 -0.004136 0.000000 0.000000 0.000000
# 3 -0.003511 -0.004136 0.011757 0.000000 0.000000 0.000000
# 4 0.000000 0.000000 0.000000 0.036444 0.000000 0.000000
# 5 0.000000 0.000000 0.000000 0.000000 0.036523 0.000000
# 6 0.000000 0.000000 0.000000 0.000000 0.000000 0.089583
#
#
# Mechanical properties :
#
#
# Convention : Reuss Voigt Hill
#
# Bulk Modulus (GPa) = 65.97429 72.64025 69.30727
# Shear Modulus (GPa) = 22.19412 26.68765 24.44088
#
# Velocity S-wave (km/s) = 3.44473 3.77739 3.61489
# Velocity P-wave (km/s) = 7.14807 7.60672 7.38096
#
# Compressibility (1/GPa) = 0.01515742
#
# Stress axis : x y z
#
# Youngs Moduli (GPa) = 65.61772 106.11716 85.05707
#
# Poissons Ratio (x) = 0.31674 0.29860
# Poissons Ratio (y) = 0.19586 0.35179
# Poissons Ratio (z) = 0.23036 0.43889
#
# Static dielectric constant tensor:
#      x y z
#    x 3.175590 0.000000 0.000000 
#    y 0.000000 3.902000 0.000000 
#    z 0.000000 0.000000 3.100470 
# 
# 
# High freq. dielectric constant tensor:
#      x y z
#    x 1.702500 0.000000 0.000000 
#    y 0.000000 1.751190 0.000000 
#    z 0.000000 0.000000 1.705390 
# 
# From -- ./inp_files/40079.got.cif
#   From: 2010.03.12/outbox.cif.g09.slc.cpg/sg74_21_cif.got.tgz:40079.got - 2010.04.16 15:46:19.
