data_PCOD8300100
_publ_section_title
;
Structure prediction by ZEFSAII (Michael W. Deem and Ramdas Pophale) SiO2 
 PCOD8300100
Probable space group: I M M A
;
_chemical_formula_sum "Si O2"
_cell_formula_units_Z 96
_cell_length_a 14.059825
_cell_length_b 21.949776
_cell_length_c 16.396120
_cell_angle_alpha 90.000000
_cell_angle_beta 90.000000
_cell_angle_gamma 90.000000
_cell_volume 5060.006746
_symmetry_space_group_name_H-M "I M M A"
_symmetry_group_IT_number 74
_symmetry_cell_setting 'orthorhombic'
loop_
_space_group_symop_operation_xyz
x,y,z
-x,1/2-y,z
x,-y,-z
-x,1/2+y,-z
-x,-y,-z
x,1/2+y,-z
-x,y,z
x,1/2-y,z
1/2+x,1/2+y,1/2+z
1/2-x,-y,1/2+z
1/2+x,1/2-y,1/2-z
1/2-x,y,1/2-z
1/2-x,1/2-y,1/2-z
1/2+x,y,1/2-z
1/2-x,1/2+y,1/2+z
1/2+x,-y,1/2+z
loop_
_atom_site_type_symbol
_atom_site_label
_atom_site_fract_x
_atom_site_fract_y
_atom_site_fract_z
Si Si1 0.760495 0.680799 0.051782
Si Si2 0.608460 0.521021 0.591977
Si Si3 0.228873 0.137465 0.126834
Si Si4 0.890879 0.107145 0.839558
Si Si5 0.609437 0.680112 0.184641
Si Si6 0.108720 0.319662 0.265803
O O1 0.791708 0.750000 0.066563
O O2 0.844031 0.637352 0.081637
O O3 0.664433 0.665636 0.101281
O O4 0.743321 0.669129 0.957221
O O5 0.626956 0.500000 0.500000
O O6 0.500000 0.546178 0.600052
O O7 0.687604 0.570018 0.615513
O O8 0.623670 0.465377 0.655313
O O9 0.148814 0.176971 0.173620
O O10 0.327291 0.135963 0.178078
O O11 0.849878 0.135715 0.755582
O O12 0.000000 0.125558 0.845580
O O13 0.500000 0.666079 0.165628
O O14 0.624617 0.750000 0.213133
O O15 0.116661 0.250000 0.296298
O O16 0.000000 0.342539 0.268586
#
# Coordination Sequence:
#
# PCOD8300100 Si02
#       6
#    16  16  16  16  16  16
#     4  11  21  33  55  85 115 146 189 240 290 345
#     4  10  20  37  58  82 116 155 196 244 288 333
#     4  11  21  38  60  85 115 150 195 237 293 354
#     4  10  20  35  55  80 113 153 193 230 280 334
#     4   9  19  36  55  80 117 153 188 234 285 343
#     4  10  22  41  63  88 118 147 184 242 304 359
#
# _framework density 18.972307000000001
#
# number of rings (size 3 to 8) (size 9 to 14) (size 15 to 20)
#    0.000    1.833    1.667    3.500    0.000    3.667 
#    6.000    1.667    0.000    0.500    0.000    0.000 
#    0.000    0.000    0.000    0.000    0.000    0.000 
#
# Total GULP energy -595208.275753 kJ/mol
# GULP energy per Si atom -12400.172412 kJ/mol
# Density = 1.892913 g / cm^3
# Si number density = 18.972307 Si / 1000 Ang^3
#
#
#
# Elastic Constant Matrix: (Units=GPa)
#
#
# Indices 1 2 3 4 5 6 
#
# 1 115.0480 48.6959 55.5187 0.0000 0.0000 0.0000
# 2 48.6959 81.5929 39.1796 -0.0002 0.0000 0.0000
# 3 55.5187 39.1796 116.5477 -0.0004 0.0000 0.0000
# 4 0.0000 -0.0002 -0.0004 25.1642 0.0000 0.0000
# 5 0.0000 0.0000 0.0000 0.0000 26.8653 0.0000
# 6 0.0000 0.0000 0.0000 0.0000 0.0000 31.3016
#
#
#
# Elastic Compliance Matrix: (Units=1/GPa)
#
#
# Indices 1 2 3 4 5 6 
#
# 1 0.013259 -0.005820 -0.004360 0.000000 0.000000 0.000000
# 2 -0.005820 0.017170 -0.003000 0.000000 0.000000 0.000000
# 3 -0.004360 -0.003000 0.011665 0.000000 0.000000 0.000000
# 4 0.000000 0.000000 0.000000 0.039739 0.000000 0.000000
# 5 0.000000 0.000000 0.000000 0.000000 0.037223 0.000000
# 6 0.000000 0.000000 0.000000 0.000000 0.000000 0.031947
#
#
# Mechanical properties :
#
#
# Convention : Reuss Voigt Hill
#
# Bulk Modulus (GPa) = 63.54859 66.66413 65.10636
# Shear Modulus (GPa) = 27.38124 27.98585 27.68354
#
# Velocity S-wave (km/s) = 3.80310 3.84486 3.82403
# Velocity P-wave (km/s) = 7.27000 7.41110 7.34089
#
# Compressibility (1/GPa) = 0.01573599
#
# Stress axis : x y z
#
# Youngs Moduli (GPa) = 75.41911 58.24223 85.72406
#
# Poissons Ratio (x) = 0.33896 0.37373
# Poissons Ratio (y) = 0.43893 0.25713
# Poissons Ratio (z) = 0.32881 0.17470
#
# Static dielectric constant tensor:
#      x y z
#    x 3.475510 0.000000 0.000000 
#    y 0.000000 3.466580 0.000000 
#    z 0.000000 0.000000 3.541240 
# 
# 
# High freq. dielectric constant tensor:
#      x y z
#    x 1.739400 0.000000 0.000000 
#    y 0.000000 1.728590 0.000000 
#    z 0.000000 0.000000 1.737530 
# 
# From -- ./inp_files/32346.got.cif
#   From: 2010.03.12/outbox.cif.g09.slc.cpg/sg74_17_cif.got.tgz:32346.got - 2010.04.16 15:46:19.
