data_PCOD8300943
_publ_section_title
;
Structure prediction by ZEFSAII (Michael W. Deem and Ramdas Pophale) SiO2 
 PCOD8300943
Probable space group: I M M A
;
_chemical_formula_sum "Si O2"
_cell_formula_units_Z 112
_cell_length_a 23.789970
_cell_length_b 14.050044
_cell_length_c 14.852794
_cell_angle_alpha 90.000000
_cell_angle_beta 90.000000
_cell_angle_gamma 90.000000
_cell_volume 4964.548255
_symmetry_space_group_name_H-M "I M M A"
_symmetry_group_IT_number 74
_symmetry_cell_setting 'orthorhombic'
loop_
_space_group_symop_operation_xyz
x,y,z
-x,1/2-y,z
x,-y,-z
-x,1/2+y,-z
-x,-y,-z
x,1/2+y,-z
-x,y,z
x,1/2-y,z
1/2+x,1/2+y,1/2+z
1/2-x,-y,1/2+z
1/2+x,1/2-y,1/2-z
1/2-x,y,1/2-z
1/2-x,1/2-y,1/2-z
1/2+x,y,1/2-z
1/2-x,1/2+y,1/2+z
1/2+x,-y,1/2+z
loop_
_atom_site_type_symbol
_atom_site_label
_atom_site_fract_x
_atom_site_fract_y
_atom_site_fract_z
Si Si1 0.270063 0.110247 0.007276
Si Si2 0.628094 0.504224 0.715332
Si Si3 0.935487 0.640240 0.100971
Si Si4 0.437805 0.863043 0.053531
Si Si5 0.351592 0.146029 0.441039
Si Si6 0.376860 0.359291 0.121898
Si Si7 0.665206 0.855016 0.169550
O O1 0.210409 0.159700 0.019469
O O2 0.311781 0.134727 0.089959
O O3 0.292609 0.150013 0.913128
O O4 0.260614 0.000000 0.000000
O O5 0.578737 0.432887 0.681853
O O6 0.652490 0.565595 0.634265
O O7 0.608308 0.578504 0.791057
O O8 0.678140 0.434716 0.754247
O O9 0.925686 0.750000 0.132174
O O10 0.000000 0.624788 0.071998
O O11 0.896035 0.614251 0.016602
O O12 0.500000 0.903030 0.073551
O O13 0.437417 0.750000 0.044609
O O14 0.396000 0.891007 0.133949
O O15 0.415311 0.903050 0.958046
O O16 0.369876 0.250000 0.402559
O O17 0.391576 0.250000 0.144457
O O18 0.663268 0.750000 0.213803
#
# Coordination Sequence:
#
# PCOD8300943 Si02
#       7
#    16  16  16  16  16  16  16
#     4  11  20  41  67  93 131 176 223 263 323 396
#     4  12  23  39  62  99 129 162 214 271 329 397
#     4  10  24  48  72  94 127 172 224 283 342 395
#     4   8  16  33  56  83 121 170 214 249 301 379
#     4  11  25  45  69  94 124 170 223 274 332 401
#     4  10  21  37  59  91 136 179 215 267 325 384
#     4  10  21  38  62  92 129 170 211 265 325 383
#
# _framework density 22.559957000000001
#
# number of rings (size 3 to 8) (size 9 to 14) (size 15 to 20)
#    0.000    1.714    1.429    4.286    0.000    2.857 
#    2.571    3.571    0.000    7.714    0.000    0.000 
#    0.000    0.000    0.000    0.000    0.000    0.000 
#
# Total GULP energy -694180.889250 kJ/mol
# GULP energy per Si atom -12396.087308 kJ/mol
# Density = 2.250861 g / cm^3
# Si number density = 22.559957 Si / 1000 Ang^3
#
#
#
# Elastic Constant Matrix: (Units=GPa)
#
#
# Indices 1 2 3 4 5 6 
#
# 1 123.1476 14.9401 45.5205 0.0000 0.0000 0.0000
# 2 14.9401 137.3511 66.7451 0.0000 0.0000 0.0000
# 3 45.5205 66.7451 119.4134 0.0000 0.0000 0.0000
# 4 0.0000 0.0000 0.0000 37.4698 0.0000 0.0000
# 5 0.0000 0.0000 0.0000 0.0000 15.0136 0.0000
# 6 0.0000 0.0000 0.0000 0.0000 0.0000 21.7327
#
#
#
# Elastic Compliance Matrix: (Units=1/GPa)
#
#
# Indices 1 2 3 4 5 6 
#
# 1 0.009552 0.001003 -0.004202 0.000000 0.000000 0.000000
# 2 0.001003 0.010101 -0.006028 0.000000 0.000000 0.000000
# 3 -0.004202 -0.006028 0.013345 0.000000 0.000000 0.000000
# 4 0.000000 0.000000 0.000000 0.026688 0.000000 0.000000
# 5 0.000000 0.000000 0.000000 0.000000 0.066606 0.000000
# 6 0.000000 0.000000 0.000000 0.000000 0.000000 0.046014
#
#
# Mechanical properties :
#
#
# Convention : Reuss Voigt Hill
#
# Bulk Modulus (GPa) = 68.75650 70.48042 69.61846
# Shear Modulus (GPa) = 25.56133 31.69030 28.62581
#
# Velocity S-wave (km/s) = 3.36972 3.75202 3.56599
# Velocity P-wave (km/s) = 6.75895 7.07668 6.91964
#
# Compressibility (1/GPa) = 0.01454408
#
# Stress axis : x y z
#
# Youngs Moduli (GPa) = 104.69243 99.00176 74.93290
#
# Poissons Ratio (x) = -0.09928 0.31484
# Poissons Ratio (y) = -0.10499 0.45170
# Poissons Ratio (z) = 0.43988 0.59679
#
# Static dielectric constant tensor:
#      x y z
#    x 4.053900 0.000000 0.000000 
#    y 0.000000 4.259960 0.000000 
#    z 0.000000 0.000000 3.948770 
# 
# 
# High freq. dielectric constant tensor:
#      x y z
#    x 1.866400 0.000000 0.000000 
#    y 0.000000 1.918410 0.000000 
#    z 0.000000 0.000000 1.876300 
# 
# From -- ./inp_files/36554.got.cif
#   From: 2010.03.12/outbox.cif.g09.slc.cpg/sg74_19_cif.got.tgz:36554.got - 2010.04.16 15:46:19.
