data_PCOD8300530
_publ_section_title
;
Structure prediction by ZEFSAII (Michael W. Deem and Ramdas Pophale) SiO2 
 PCOD8300530
Probable space group: I M M A
;
_chemical_formula_sum "Si O2"
_cell_formula_units_Z 64
_cell_length_a 7.720272
_cell_length_b 27.499598
_cell_length_c 15.345155
_cell_angle_alpha 90.000000
_cell_angle_beta 90.000000
_cell_angle_gamma 90.000000
_cell_volume 3257.843564
_symmetry_space_group_name_H-M "I M M A"
_symmetry_group_IT_number 74
_symmetry_cell_setting 'orthorhombic'
loop_
_space_group_symop_operation_xyz
x,y,z
-x,1/2-y,z
x,-y,-z
-x,1/2+y,-z
-x,-y,-z
x,1/2+y,-z
-x,y,z
x,1/2-y,z
1/2+x,1/2+y,1/2+z
1/2-x,-y,1/2+z
1/2+x,1/2-y,1/2-z
1/2-x,y,1/2-z
1/2-x,1/2-y,1/2-z
1/2+x,y,1/2-z
1/2-x,1/2+y,1/2+z
1/2+x,-y,1/2+z
loop_
_atom_site_type_symbol
_atom_site_label
_atom_site_fract_x
_atom_site_fract_y
_atom_site_fract_z
Si Si1 0.294085 0.377186 0.155408
Si Si2 0.000000 0.448212 0.107771
Si Si3 0.195158 0.196761 0.487746
Si Si4 0.500000 0.557912 0.401526
Si Si5 0.811565 0.854293 0.152583
O O1 0.500000 0.388990 0.144514
O O2 0.250000 0.354761 0.250000
O O3 0.220807 0.339066 0.083682
O O4 0.177294 0.425467 0.145544
O O5 0.000000 0.504271 0.138721
O O6 0.000000 0.443841 0.004814
O O7 0.287312 0.250000 0.488692
O O8 0.190543 0.172546 0.583371
O O9 0.000000 0.204353 0.457653
O O10 0.328857 0.587764 0.368921
O O11 0.750000 0.845955 0.250000
O O12 0.000000 0.829509 0.142469
#
# Coordination Sequence:
#
# PCOD8300530 Si02
#       5
#    16   8  16   8  16
#     4  11  22  39  63  89 125 163 198 250 303 355
#     4  11  20  44  62  91 124 157 207 248 301 357
#     4  10  22  40  61  86 117 155 203 250 299 360
#     4   9  22  38  64  85 122 157 199 254 293 359
#     4  10  20  38  58  86 117 157 193 245 298 349
#
# _framework density 19.644895999999999
#
# number of rings (size 3 to 8) (size 9 to 14) (size 15 to 20)
#    0.750    1.000    3.750    0.750    0.000    2.500 
#    0.000    3.750    0.000    0.000    0.000    0.000 
#    0.000    0.000    0.000    0.000    0.000    0.000 
#
# Total GULP energy -396480.255916 kJ/mol
# GULP energy per Si atom -12390.007997 kJ/mol
# Density = 1.960018 g / cm^3
# Si number density = 19.644896 Si / 1000 Ang^3
#
#
#
# Elastic Constant Matrix: (Units=GPa)
#
#
# Indices 1 2 3 4 5 6 
#
# 1 77.6947 31.0461 10.0778 0.0001 0.0000 0.0000
# 2 31.0461 143.1496 51.7288 0.0005 0.0000 0.0000
# 3 10.0778 51.7288 137.6566 0.0014 -0.0001 0.0000
# 4 0.0001 0.0005 0.0014 10.8494 0.0000 0.0000
# 5 0.0000 0.0000 -0.0001 0.0000 21.2492 0.0001
# 6 0.0000 0.0000 0.0000 0.0000 0.0001 18.8827
#
#
#
# Elastic Compliance Matrix: (Units=1/GPa)
#
#
# Indices 1 2 3 4 5 6 
#
# 1 0.014094 -0.003106 0.000135 0.000000 0.000000 0.000000
# 2 -0.003106 0.008768 -0.003067 0.000000 0.000000 0.000000
# 3 0.000135 -0.003067 0.008407 -0.000001 0.000000 0.000000
# 4 0.000000 0.000000 -0.000001 0.092171 0.000000 0.000000
# 5 0.000000 0.000000 0.000000 0.000000 0.047061 0.000000
# 6 0.000000 0.000000 0.000000 0.000000 0.000000 0.052959
#
#
# Mechanical properties :
#
#
# Convention : Reuss Voigt Hill
#
# Bulk Modulus (GPa) = 52.10059 60.46737 56.28398
# Shear Modulus (GPa) = 20.66690 27.90613 24.28651
#
# Velocity S-wave (km/s) = 3.24701 3.77308 3.51989
# Velocity P-wave (km/s) = 6.37465 7.05893 6.72550
#
# Compressibility (1/GPa) = 0.01919364
#
# Stress axis : x y z
#
# Youngs Moduli (GPa) = 70.95047 114.05541 118.94541
#
# Poissons Ratio (x) = 0.35421 -0.01608
# Poissons Ratio (y) = 0.22034 0.36485
# Poissons Ratio (z) = -0.00959 0.34985
#
# Static dielectric constant tensor:
#      x y z
#    x 3.454200 0.000000 0.000000 
#    y 0.000000 3.800760 0.000000 
#    z 0.000000 0.000000 3.550810 
# 
# 
# High freq. dielectric constant tensor:
#      x y z
#    x 1.753050 0.000000 0.000000 
#    y 0.000000 1.754880 0.000000 
#    z 0.000000 0.000000 1.776510 
# 
# From -- ./inp_files/29330.got.cif
#   From: 2010.03.12/outbox.cif.g09.slc.cpg/sg74_15_cif.got.tgz:29330.got - 2010.04.16 15:46:19.
