data_PCOD8300332
_publ_section_title
;
Structure prediction by ZEFSAII (Michael W. Deem and Ramdas Pophale) SiO2 
 PCOD8300332
Probable space group: I M M A
;
_chemical_formula_sum "Si O2"
_cell_formula_units_Z 96
_cell_length_a 8.658821
_cell_length_b 27.321277
_cell_length_c 20.275288
_cell_angle_alpha 90.000000
_cell_angle_beta 90.000000
_cell_angle_gamma 90.000000
_cell_volume 4796.525836
_symmetry_space_group_name_H-M "I M M A"
_symmetry_group_IT_number 74
_symmetry_cell_setting 'orthorhombic'
loop_
_space_group_symop_operation_xyz
x,y,z
-x,1/2-y,z
x,-y,-z
-x,1/2+y,-z
-x,-y,-z
x,1/2+y,-z
-x,y,z
x,1/2-y,z
1/2+x,1/2+y,1/2+z
1/2-x,-y,1/2+z
1/2+x,1/2-y,1/2-z
1/2-x,y,1/2-z
1/2-x,1/2-y,1/2-z
1/2+x,y,1/2-z
1/2-x,1/2+y,1/2+z
1/2+x,-y,1/2+z
loop_
_atom_site_type_symbol
_atom_site_label
_atom_site_fract_x
_atom_site_fract_y
_atom_site_fract_z
Si Si1 0.680789 0.034983 0.059275
Si Si2 0.682456 0.194774 0.317808
Si Si3 0.819127 0.361610 0.053491
Si Si4 0.817907 0.018198 0.820384
Si Si5 0.821594 0.193620 0.563517
Si Si6 0.318325 0.622158 0.180328
O O1 0.500000 0.029569 0.072758
O O2 0.722440 0.089846 0.038262
O O3 0.772251 0.021926 0.125649
O O4 0.734489 0.000000 0.000000
O O5 0.500000 0.194891 0.313513
O O6 0.745034 0.250000 0.329067
O O7 0.750000 0.172919 0.250000
O O8 0.739177 0.160827 0.377438
O O9 0.000000 0.373728 0.055039
O O10 0.785013 0.322140 0.997102
O O11 0.750000 0.002027 0.750000
O O12 0.752734 0.070687 0.842872
O O13 0.000000 0.021455 0.813931
O O14 0.789461 0.250000 0.579697
O O15 0.772875 0.163150 0.627729
O O16 0.000000 0.184163 0.545239
O O17 0.500000 0.615123 0.187431
O O18 0.250000 0.639188 0.250000
#
# Coordination Sequence:
#
# PCOD8300332 Si02
#       6
#    16  16  16  16  16  16
#     4  11  24  41  60  83 114 151 190 235 287 342
#     4   9  19  36  57  82 112 145 181 222 269 322
#     4  11  23  38  58  85 115 147 187 236 285 336
#     4  11  22  38  61  87 116 150 190 235 284 341
#     4  10  22  39  58  82 114 152 192 234 283 340
#     4  10  20  36  58  84 115 150 189 233 282 338
#
# _framework density 20.014485000000001
#
# number of rings (size 3 to 8) (size 9 to 14) (size 15 to 20)
#    0.000    1.667    0.000    5.500    0.000   10.000 
#    0.000    3.333    0.000    0.000    0.000    0.000 
#    0.000    0.000    0.000    0.000    0.000    0.000 
#
# Total GULP energy -595502.492002 kJ/mol
# GULP energy per Si atom -12406.301917 kJ/mol
# Density = 1.996893 g / cm^3
# Si number density = 20.014485 Si / 1000 Ang^3
#
#
#
# Elastic Constant Matrix: (Units=GPa)
#
#
# Indices 1 2 3 4 5 6 
#
# 1 74.1425 14.0915 32.9963 0.0000 0.0000 0.0000
# 2 14.0915 70.9074 31.2002 0.0000 0.0000 0.0000
# 3 32.9963 31.2002 101.2949 -0.0001 0.0000 0.0000
# 4 0.0000 0.0000 -0.0001 41.5493 0.0000 0.0000
# 5 0.0000 0.0000 0.0000 0.0000 34.9411 0.0000
# 6 0.0000 0.0000 0.0000 0.0000 0.0000 28.0169
#
#
#
# Elastic Compliance Matrix: (Units=1/GPa)
#
#
# Indices 1 2 3 4 5 6 
#
# 1 0.015837 -0.001015 -0.004846 0.000000 0.000000 0.000000
# 2 -0.001015 0.016379 -0.004714 0.000000 0.000000 0.000000
# 3 -0.004846 -0.004714 0.012903 0.000000 0.000000 0.000000
# 4 0.000000 0.000000 0.000000 0.024068 0.000000 0.000000
# 5 0.000000 0.000000 0.000000 0.000000 0.028620 0.000000
# 6 0.000000 0.000000 0.000000 0.000000 0.000000 0.035693
#
#
# Mechanical properties :
#
#
# Convention : Reuss Voigt Hill
#
# Bulk Modulus (GPa) = 41.72230 44.76900 43.24565
# Shear Modulus (GPa) = 30.74281 32.10524 31.42402
#
# Velocity S-wave (km/s) = 3.92347 4.00947 3.96670
# Velocity P-wave (km/s) = 6.43554 6.62203 6.52945
#
# Compressibility (1/GPa) = 0.02396800
#
# Stress axis : x y z
#
# Youngs Moduli (GPa) = 63.14236 61.05392 77.50196
#
# Poissons Ratio (x) = 0.06196 0.37560
# Poissons Ratio (y) = 0.06408 0.36537
# Poissons Ratio (z) = 0.30601 0.28783
#
# Static dielectric constant tensor:
#      x y z
#    x 3.576880 0.000000 0.000000 
#    y 0.000000 3.618050 0.000000 
#    z 0.000000 0.000000 3.786970 
# 
# 
# High freq. dielectric constant tensor:
#      x y z
#    x 1.784110 0.000000 0.000000 
#    y 0.000000 1.780790 0.000000 
#    z 0.000000 0.000000 1.792460 
# 
# From -- ./inp_files/49039.got.cif
#   From: 2010.03.12/outbox.cif.g09.slc.cpg/sg74_25_cif.got.tgz:49039.got - 2010.04.16 15:46:19.
