data_PCOD8300261
_publ_section_title
;
Structure prediction by ZEFSAII (Michael W. Deem and Ramdas Pophale) SiO2 
 PCOD8300261
Probable space group: I M M A
;
_chemical_formula_sum "Si O2"
_cell_formula_units_Z 88
_cell_length_a 9.500194
_cell_length_b 33.808072
_cell_length_c 15.009087
_cell_angle_alpha 90.000000
_cell_angle_beta 90.000000
_cell_angle_gamma 90.000000
_cell_volume 4820.667234
_symmetry_space_group_name_H-M "I M M A"
_symmetry_group_IT_number 74
_symmetry_cell_setting 'orthorhombic'
loop_
_space_group_symop_operation_xyz
x,y,z
-x,1/2-y,z
x,-y,-z
-x,1/2+y,-z
-x,-y,-z
x,1/2+y,-z
-x,y,z
x,1/2-y,z
1/2+x,1/2+y,1/2+z
1/2-x,-y,1/2+z
1/2+x,1/2-y,1/2-z
1/2-x,y,1/2-z
1/2-x,1/2-y,1/2-z
1/2+x,y,1/2-z
1/2-x,1/2+y,1/2+z
1/2+x,-y,1/2+z
loop_
_atom_site_type_symbol
_atom_site_label
_atom_site_fract_x
_atom_site_fract_y
_atom_site_fract_z
Si Si1 0.663154 0.442905 0.836181
Si Si2 0.663560 0.533987 0.836257
Si Si3 0.843145 0.296593 0.669905
Si Si4 0.166833 0.906175 0.516658
Si Si5 0.668179 0.750000 0.842944
Si Si6 0.666759 0.317913 0.023586
O O1 0.500000 0.435139 0.815673
O O2 0.750000 0.430220 0.750000
O O3 0.688987 0.488540 0.862508
O O4 0.720662 0.416336 0.917484
O O5 0.500000 0.542486 0.817665
O O6 0.750000 0.546144 0.750000
O O7 0.725184 0.561421 0.914698
O O8 0.852673 0.250000 0.681028
O O9 0.750000 0.314924 0.750000
O O10 0.773303 0.306437 0.573975
O O11 0.000000 0.315208 0.676752
O O12 0.216918 0.862444 0.546177
O O13 0.000000 0.909031 0.515313
O O14 0.500000 0.750000 0.826169
O O15 0.750000 0.750000 0.750000
O O16 0.719023 0.711595 0.899026
O O17 0.500000 0.314101 0.017899
#
# Coordination Sequence:
#
# PCOD8300261 Si02
#       6
#    16  16  16  16   8  16
#     4   9  17  30  48  70  96 125 157 191 229 275
#     4   9  17  30  48  69  93 122 157 196 234 274
#     4   9  16  28  47  69  91 118 149 183 224 272
#     4   9  17  29  48  71  93 123 160 194 228 275
#     4  10  20  36  55  72  92 122 159 198 237 278
#     4   9  17  31  50  70  94 124 158 192 231 281
#
# _framework density 18.254735
#
# number of rings (size 3 to 8) (size 9 to 14) (size 15 to 20)
#    0.000    2.909    0.909    0.545    0.000    3.636 
#    0.000    1.818    0.000    6.545    0.000    0.000 
#    0.000    0.000    0.000    0.000    0.000    0.000 
#
# Total GULP energy -545444.448942 kJ/mol
# GULP energy per Si atom -12396.464749 kJ/mol
# Density = 1.821319 g / cm^3
# Si number density = 18.254735 Si / 1000 Ang^3
#
#
#
# Elastic Constant Matrix: (Units=GPa)
#
#
# Indices 1 2 3 4 5 6 
#
# 1 35.0411 20.8377 40.5374 0.0000 0.0000 0.0000
# 2 20.8377 101.6958 69.4976 -0.0003 0.0000 0.0001
# 3 40.5374 69.4976 156.6571 -0.0007 0.0001 0.0000
# 4 0.0000 -0.0003 -0.0007 18.1831 0.0001 0.0000
# 5 0.0000 0.0000 0.0001 0.0001 31.8348 0.0000
# 6 0.0000 0.0001 0.0000 0.0000 0.0000 8.1587
#
#
#
# Elastic Compliance Matrix: (Units=1/GPa)
#
#
# Indices 1 2 3 4 5 6 
#
# 1 0.040922 -0.001648 -0.009858 0.000000 0.000000 0.000000
# 2 -0.001648 0.014178 -0.005863 0.000000 0.000000 0.000000
# 3 -0.009858 -0.005863 0.011535 0.000000 0.000000 0.000000
# 4 0.000000 0.000000 0.000000 0.054996 0.000000 0.000000
# 5 0.000000 0.000000 0.000000 0.000000 0.031412 0.000000
# 6 0.000000 0.000000 0.000000 0.000000 0.000000 0.122568
#
#
# Mechanical properties :
#
#
# Convention : Reuss Voigt Hill
#
# Bulk Modulus (GPa) = 31.35130 61.68216 46.51673
# Shear Modulus (GPa) = 15.57716 22.47008 19.02362
#
# Velocity S-wave (km/s) = 2.92434 3.51225 3.23169
# Velocity P-wave (km/s) = 5.34920 7.09302 6.28191
#
# Compressibility (1/GPa) = 0.03189660
#
# Stress axis : x y z
#
# Youngs Moduli (GPa) = 24.43653 70.53282 86.68977
#
# Poissons Ratio (x) = 0.11625 0.85460
# Poissons Ratio (y) = 0.04028 0.50828
# Poissons Ratio (z) = 0.24090 0.41355
#
# Static dielectric constant tensor:
#      x y z
#    x 3.071280 0.000000 0.000000 
#    y 0.000000 3.457900 0.000000 
#    z 0.000000 0.000000 3.494630 
# 
# 
# High freq. dielectric constant tensor:
#      x y z
#    x 1.657360 0.000000 0.000000 
#    y 0.000000 1.709630 0.000000 
#    z 0.000000 0.000000 1.714570 
# 
# From -- ./inp_files/19076.got.cif
#   From: 2010.03.12/outbox.cif.g09.slc.cpg/sg74_10_cif.got.tgz:19076.got - 2010.04.16 15:46:19.
