data_PCOD8300682
_publ_section_title
;
Structure prediction by ZEFSAII (Michael W. Deem and Ramdas Pophale) SiO2 
 PCOD8300682
Probable space group: I M M A
;
_chemical_formula_sum "Si O2"
_cell_formula_units_Z 96
_cell_length_a 15.164343
_cell_length_b 20.590261
_cell_length_c 14.666591
_cell_angle_alpha 90.000000
_cell_angle_beta 90.000000
_cell_angle_gamma 90.000000
_cell_volume 4579.463818
_symmetry_space_group_name_H-M "I M M A"
_symmetry_group_IT_number 74
_symmetry_cell_setting 'orthorhombic'
loop_
_space_group_symop_operation_xyz
x,y,z
-x,1/2-y,z
x,-y,-z
-x,1/2+y,-z
-x,-y,-z
x,1/2+y,-z
-x,y,z
x,1/2-y,z
1/2+x,1/2+y,1/2+z
1/2-x,-y,1/2+z
1/2+x,1/2-y,1/2-z
1/2-x,y,1/2-z
1/2-x,1/2-y,1/2-z
1/2+x,y,1/2-z
1/2-x,1/2+y,1/2+z
1/2+x,-y,1/2+z
loop_
_atom_site_type_symbol
_atom_site_label
_atom_site_fract_x
_atom_site_fract_y
_atom_site_fract_z
Si Si1 0.401297 0.938568 0.603429
Si Si2 0.796346 0.676647 0.839615
Si Si3 0.402346 0.374236 0.576727
Si Si4 0.779663 0.821828 0.471871
Si Si5 0.899196 0.444596 0.569755
Si Si6 0.652614 0.955390 0.267693
O O1 0.500000 0.959022 0.630066
O O2 0.382408 0.864855 0.635415
O O3 0.388599 0.936555 0.492696
O O4 0.336924 0.984296 0.661961
O O5 0.829163 0.750000 0.824324
O O6 0.750000 0.648362 0.750000
O O7 0.722739 0.671871 0.919024
O O8 0.500000 0.343134 0.558284
O O9 0.321735 0.324754 0.563944
O O10 0.402279 0.399909 0.680251
O O11 0.815845 0.750000 0.443677
O O12 0.840947 0.879051 0.433238
O O13 0.863931 0.500000 0.500000
O O14 0.894355 0.473033 0.672395
O O15 0.000000 0.427006 0.545020
O O16 0.750000 0.928449 0.250000
#
# Coordination Sequence:
#
# PCOD8300682 Si02
#       6
#    16  16  16  16  16  16
#     4  10  21  34  57  89 119 153 194 248 310 370
#     4   9  19  35  56  84 117 156 199 243 298 365
#     4  10  21  39  62  92 125 155 196 251 313 372
#     4  10  22  41  65  92 124 163 206 254 309 363
#     4  11  26  44  62  89 125 166 213 256 298 356
#     4  12  23  37  62  88 120 161 202 253 309 364
#
# _framework density 20.963153999999999
#
# number of rings (size 3 to 8) (size 9 to 14) (size 15 to 20)
#    0.000    1.667    1.667    2.500    7.000    2.333 
#    0.000    5.000    0.000    5.000    0.000    0.000 
#    0.000    0.000    0.000    0.000    0.000    0.000 
#
# Total GULP energy -594918.863909 kJ/mol
# GULP energy per Si atom -12394.142998 kJ/mol
# Density = 2.091544 g / cm^3
# Si number density = 20.963154 Si / 1000 Ang^3
#
#
#
# Elastic Constant Matrix: (Units=GPa)
#
#
# Indices 1 2 3 4 5 6 
#
# 1 95.9797 30.9080 24.3399 0.0000 0.0000 0.0000
# 2 30.9080 77.7292 29.2751 -0.0003 0.0000 0.0000
# 3 24.3399 29.2751 139.8365 -0.0011 0.0000 0.0000
# 4 0.0000 -0.0003 -0.0011 18.7366 0.0000 0.0000
# 5 0.0000 0.0000 0.0000 0.0000 26.0413 0.0000
# 6 0.0000 0.0000 0.0000 0.0000 0.0000 21.5244
#
#
#
# Elastic Compliance Matrix: (Units=1/GPa)
#
#
# Indices 1 2 3 4 5 6 
#
# 1 0.012130 -0.004373 -0.001196 0.000000 0.000000 0.000000
# 2 -0.004373 0.015543 -0.002493 0.000000 0.000000 0.000000
# 3 -0.001196 -0.002493 0.007881 0.000000 0.000000 0.000000
# 4 0.000000 0.000000 0.000000 0.053371 0.000000 0.000000
# 5 0.000000 0.000000 0.000000 0.000000 0.038401 0.000000
# 6 0.000000 0.000000 0.000000 0.000000 0.000000 0.046459
#
#
# Mechanical properties :
#
#
# Convention : Reuss Voigt Hill
#
# Bulk Modulus (GPa) = 51.46400 53.62125 52.54262
# Shear Modulus (GPa) = 25.46009 28.52864 26.99436
#
# Velocity S-wave (km/s) = 3.48877 3.69303 3.59235
# Velocity P-wave (km/s) = 6.38997 6.61959 6.50579
#
# Compressibility (1/GPa) = 0.01943106
#
# Stress axis : x y z
#
# Youngs Moduli (GPa) = 82.43766 64.33798 126.88374
#
# Poissons Ratio (x) = 0.28135 0.15174
# Poissons Ratio (y) = 0.36051 0.31629
# Poissons Ratio (z) = 0.09859 0.16038
#
# Static dielectric constant tensor:
#      x y z
#    x 3.597290 0.000000 0.000000 
#    y 0.000000 3.587010 0.000000 
#    z 0.000000 0.000000 4.036070 
# 
# 
# High freq. dielectric constant tensor:
#      x y z
#    x 1.807210 0.000000 0.000000 
#    y 0.000000 1.802720 0.000000 
#    z 0.000000 0.000000 1.833530 
# 
# From -- ./inp_files/32326.got.cif
#   From: 2010.03.12/outbox.cif.g09.slc.cpg/sg74_17_cif.got.tgz:32326.got - 2010.04.16 15:46:19.
