data_PCOD8300865
_publ_section_title
;
Structure prediction by ZEFSAII (Michael W. Deem and Ramdas Pophale) SiO2 
 PCOD8300865
Probable space group: I M M A
;
_chemical_formula_sum "Si O2"
_cell_formula_units_Z 80
_cell_length_a 24.414366
_cell_length_b 17.057018
_cell_length_c 9.705788
_cell_angle_alpha 90.000000
_cell_angle_beta 90.000000
_cell_angle_gamma 90.000000
_cell_volume 4041.842252
_symmetry_space_group_name_H-M "I M M A"
_symmetry_group_IT_number 74
_symmetry_cell_setting 'orthorhombic'
loop_
_space_group_symop_operation_xyz
x,y,z
-x,1/2-y,z
x,-y,-z
-x,1/2+y,-z
-x,-y,-z
x,1/2+y,-z
-x,y,z
x,1/2-y,z
1/2+x,1/2+y,1/2+z
1/2-x,-y,1/2+z
1/2+x,1/2-y,1/2-z
1/2-x,y,1/2-z
1/2-x,1/2-y,1/2-z
1/2+x,y,1/2-z
1/2-x,1/2+y,1/2+z
1/2+x,-y,1/2+z
loop_
_atom_site_type_symbol
_atom_site_label
_atom_site_fract_x
_atom_site_fract_y
_atom_site_fract_z
Si Si1 0.063800 0.413847 0.459829
Si Si2 0.638216 0.160555 0.829497
Si Si3 0.137962 0.587355 0.043730
Si Si4 0.759854 0.568015 0.403334
Si Si5 0.937869 0.839602 0.825567
O O1 0.085774 0.500000 0.500000
O O2 0.092854 0.349265 0.553824
O O3 0.077428 0.396401 0.300938
O O4 0.000000 0.405987 0.490208
O O5 0.640446 0.250000 0.779374
O O6 0.621916 0.104918 0.701513
O O7 0.697330 0.138887 0.893594
O O8 0.203466 0.599464 0.028307
O O9 0.120424 0.500000 0.000000
O O10 0.105067 0.647042 0.947676
O O11 0.784710 0.500000 0.500000
O O12 0.750000 0.533118 0.250000
O O13 0.933019 0.750000 0.775850
O O14 0.000000 0.857127 0.876671
#
# Coordination Sequence:
#
# PCOD8300865 Si02
#       5
#    16  16  16  16  16
#     4  10  21  38  59  81 108 145 186 227 272 325
#     4  11  22  35  56  85 115 145 179 227 281 329
#     4  10  21  37  57  81 108 145 188 226 269 324
#     4   9  20  37  57  80 109 145 185 228 273 324
#     4  10  21  37  56  79 110 145 179 222 275 325
#
# _framework density 19.792954999999999
#
# number of rings (size 3 to 8) (size 9 to 14) (size 15 to 20)
#    0.000    2.000    0.000    3.000    0.000   10.000 
#    0.000    0.000    0.000    3.000    0.000    0.000 
#    0.000    0.000    0.000    0.000    0.000    0.000 
#
# Total GULP energy -496089.039525 kJ/mol
# GULP energy per Si atom -12402.225988 kJ/mol
# Density = 1.974791 g / cm^3
# Si number density = 19.792955 Si / 1000 Ang^3
#
#
#
# Elastic Constant Matrix: (Units=GPa)
#
#
# Indices 1 2 3 4 5 6 
#
# 1 80.4498 37.6649 65.0003 0.0000 0.0000 0.0000
# 2 37.6649 94.3313 41.1890 0.0000 0.0000 0.0000
# 3 65.0003 41.1890 99.1793 0.0000 0.0000 0.0000
# 4 0.0000 0.0000 0.0000 33.3341 0.0000 0.0000
# 5 0.0000 0.0000 0.0000 0.0000 35.7329 0.0000
# 6 0.0000 0.0000 0.0000 0.0000 0.0000 24.5331
#
#
#
# Elastic Compliance Matrix: (Units=1/GPa)
#
#
# Indices 1 2 3 4 5 6 
#
# 1 0.027491 -0.003798 -0.016440 0.000000 0.000000 0.000000
# 2 -0.003798 0.013474 -0.003106 0.000000 0.000000 0.000000
# 3 -0.016440 -0.003106 0.022147 0.000000 0.000000 0.000000
# 4 0.000000 0.000000 0.000000 0.029999 0.000000 0.000000
# 5 0.000000 0.000000 0.000000 0.000000 0.027985 0.000000
# 6 0.000000 0.000000 0.000000 0.000000 0.000000 0.040761
#
#
# Mechanical properties :
#
#
# Convention : Reuss Voigt Hill
#
# Bulk Modulus (GPa) = 60.88925 62.40766 61.64845
# Shear Modulus (GPa) = 23.36221 27.39377 25.37799
#
# Velocity S-wave (km/s) = 3.43932 3.72427 3.58463
# Velocity P-wave (km/s) = 6.82655 7.07759 6.95320
#
# Compressibility (1/GPa) = 0.01642326
#
# Stress axis : x y z
#
# Youngs Moduli (GPa) = 36.37556 74.21740 45.15296
#
# Poissons Ratio (x) = 0.28191 0.74229
# Poissons Ratio (y) = 0.13817 0.14026
# Poissons Ratio (z) = 0.59800 0.23054
#
# Static dielectric constant tensor:
#      x y z
#    x 3.604460 0.000000 0.000000 
#    y 0.000000 3.523800 0.000000 
#    z 0.000000 0.000000 3.571110 
# 
# 
# High freq. dielectric constant tensor:
#      x y z
#    x 1.775460 0.000000 0.000000 
#    y 0.000000 1.763580 0.000000 
#    z 0.000000 0.000000 1.772380 
# 
# From -- ./inp_files/10950.got.cif
#   From: 2010.03.12/outbox.cif.g09.slc.cpg/sg74_6_cif.got.tgz:10950.got - 2010.04.16 15:46:19.
