data_PCOD8300011
_publ_section_title
;
Structure prediction by ZEFSAII (Michael W. Deem and Ramdas Pophale) SiO2 
 PCOD8300011
Probable space group: I M M A
;
_chemical_formula_sum "Si O2"
_cell_formula_units_Z 64
_cell_length_a 13.261535
_cell_length_b 15.029352
_cell_length_c 15.157647
_cell_angle_alpha 90.000000
_cell_angle_beta 90.000000
_cell_angle_gamma 90.000000
_cell_volume 3021.105146
_symmetry_space_group_name_H-M "I M M A"
_symmetry_group_IT_number 74
_symmetry_cell_setting 'orthorhombic'
loop_
_space_group_symop_operation_xyz
x,y,z
-x,1/2-y,z
x,-y,-z
-x,1/2+y,-z
-x,-y,-z
x,1/2+y,-z
-x,y,z
x,1/2-y,z
1/2+x,1/2+y,1/2+z
1/2-x,-y,1/2+z
1/2+x,1/2-y,1/2-z
1/2-x,y,1/2-z
1/2-x,1/2-y,1/2-z
1/2+x,y,1/2-z
1/2-x,1/2+y,1/2+z
1/2+x,-y,1/2+z
loop_
_atom_site_type_symbol
_atom_site_label
_atom_site_fract_x
_atom_site_fract_y
_atom_site_fract_z
Si Si1 0.000000 0.650986 0.270038
Si Si2 0.000000 0.508198 0.604011
Si Si3 0.824070 0.149820 0.866556
Si Si4 0.216132 0.519156 0.602383
Si Si5 0.113619 0.852018 0.934102
O O1 0.095951 0.634329 0.209111
O O2 0.000000 0.750000 0.308386
O O3 0.000000 0.590016 0.355601
O O4 0.000000 0.500000 0.500000
O O5 0.894538 0.555746 0.634498
O O6 0.777685 0.250000 0.861704
O O7 0.737883 0.075736 0.850562
O O8 0.875775 0.133724 0.961322
O O9 0.208701 0.500000 0.500000
O O10 0.305298 0.589846 0.621226
O O11 0.132862 0.750000 0.908447
O O12 0.000000 0.881203 0.907361
#
# Coordination Sequence:
#
# PCOD8300011 Si02
#       5
#     8   8  16  16  16
#     4  10  20  34  57  85 114 145 174 221 283 336
#     4  10  22  40  48  67 104 149 200 227 243 316
#     4   9  17  30  51  86 121 141 167 217 284 341
#     4   9  19  32  52  74 109 154 189 219 261 312
#     4   9  16  29  53  86 115 138 173 225 279 329
#
# _framework density 21.1843
#
# number of rings (size 3 to 8) (size 9 to 14) (size 15 to 20)
#    0.000    2.750    1.250    0.000    1.750    3.500 
#    0.000    6.875    0.000    0.000    0.000    7.000 
#    0.000    0.000    0.000    0.000    0.000    0.000 
#
# Total GULP energy -396439.562329 kJ/mol
# GULP energy per Si atom -12388.736323 kJ/mol
# Density = 2.113608 g / cm^3
# Si number density = 21.184300 Si / 1000 Ang^3
#
#
#
# Elastic Constant Matrix: (Units=GPa)
#
#
# Indices 1 2 3 4 5 6 
#
# 1 207.5030 88.6092 17.9977 0.0000 0.0000 0.0000
# 2 88.6092 112.2501 32.9470 0.0000 0.0000 0.0000
# 3 17.9977 32.9470 47.0854 0.0000 0.0000 0.0000
# 4 0.0000 0.0000 0.0000 25.6685 0.0000 0.0000
# 5 0.0000 0.0000 0.0000 0.0000 14.5411 0.0000
# 6 0.0000 0.0000 0.0000 0.0000 0.0000 -3.4463
#
#
#
# Elastic Compliance Matrix: (Units=1/GPa)
#
#
# Indices 1 2 3 4 5 6 
#
# 1 0.007362 -0.006274 0.001576 0.000000 0.000000 0.000000
# 2 -0.006274 0.016558 -0.009188 0.000000 0.000000 0.000000
# 3 0.001576 -0.009188 0.027065 0.000000 0.000000 0.000000
# 4 0.000000 0.000000 0.000000 0.038958 0.000000 0.000000
# 5 0.000000 0.000000 0.000000 0.000000 0.068771 0.000000
# 6 0.000000 0.000000 0.000000 0.000000 0.000000 -0.290164
#
#
# Mechanical properties :
#
#
# Convention : Reuss Voigt Hill
#
# Bulk Modulus (GPa) = 43.07966 71.77181 57.42574
# Shear Modulus (GPa) = -52.11485 22.50496 -14.80495
#
# Velocity S-wave (km/s) = -4.96529 3.26289 -2.64647
# Velocity P-wave (km/s) = 3.53445 6.93892 4.22234
#
# Compressibility (1/GPa) = 0.02321281
#
# Stress axis : x y z
#
# Youngs Moduli (GPa) = 135.84064 60.39391 36.94848
#
# Poissons Ratio (x) = 0.37890 -0.05823
# Poissons Ratio (y) = 0.85223 0.33948
# Poissons Ratio (z) = -0.21410 0.55490
#
# Static dielectric constant tensor:
#      x y z
#    x 4.911640 0.000000 0.000000 
#    y 0.000000 3.887060 0.000000 
#    z 0.000000 0.000000 3.446160 
# 
# 
# High freq. dielectric constant tensor:
#      x y z
#    x 1.847580 0.000000 0.000000 
#    y 0.000000 1.809970 0.000000 
#    z 0.000000 0.000000 1.797230 
# 
# From -- ./inp_files/30254.got.cif
#   From: 2010.03.12/outbox.cif.g09.slc.cpg/sg74_16_cif.got.tgz:30254.got - 2010.04.16 15:46:19.
