data_PCOD8300060
_publ_section_title
;
Structure prediction by ZEFSAII (Michael W. Deem and Ramdas Pophale) SiO2 
 PCOD8300060
Probable space group: I M M A
;
_chemical_formula_sum "Si O2"
_cell_formula_units_Z 80
_cell_length_a 25.708705
_cell_length_b 20.876474
_cell_length_c 7.456120
_cell_angle_alpha 90.000000
_cell_angle_beta 90.000000
_cell_angle_gamma 90.000000
_cell_volume 4001.752628
_symmetry_space_group_name_H-M "I M M A"
_symmetry_group_IT_number 74
_symmetry_cell_setting 'orthorhombic'
loop_
_space_group_symop_operation_xyz
x,y,z
-x,1/2-y,z
x,-y,-z
-x,1/2+y,-z
-x,-y,-z
x,1/2+y,-z
-x,y,z
x,1/2-y,z
1/2+x,1/2+y,1/2+z
1/2-x,-y,1/2+z
1/2+x,1/2-y,1/2-z
1/2-x,y,1/2-z
1/2-x,1/2-y,1/2-z
1/2+x,y,1/2-z
1/2-x,1/2+y,1/2+z
1/2+x,-y,1/2+z
loop_
_atom_site_type_symbol
_atom_site_label
_atom_site_fract_x
_atom_site_fract_y
_atom_site_fract_z
Si Si1 0.806119 0.641652 0.801349
Si Si2 0.810880 0.873692 0.220575
Si Si3 0.843124 0.988931 0.797804
Si Si4 0.882205 0.680022 0.514259
Si Si5 0.942620 0.559248 0.631609
O O1 0.750000 0.670557 0.750000
O O2 0.807239 0.568588 0.722620
O O3 0.848933 0.682587 0.697514
O O4 0.821469 0.641548 0.011586
O O5 0.750000 0.864665 0.250000
O O6 0.844049 0.825841 0.342532
O O7 0.829853 0.943652 0.295706
O O8 0.902578 0.963605 0.784459
O O9 0.827871 0.000000 0.000000
O O10 0.909548 0.750000 0.497550
O O11 0.924709 0.623412 0.525901
O O12 0.945451 0.500000 0.500000
O O13 0.000000 0.572188 0.714591
#
# Coordination Sequence:
#
# PCOD8300060 Si02
#       5
#    16  16  16  16  16
#     4  10  20  35  53  84 116 156 195 235 279 341
#     4  11  20  35  56  84 117 159 193 232 281 343
#     4   9  19  33  56  87 118 145 190 241 293 339
#     4  11  24  39  57  83 118 156 193 239 288 344
#     4  10  20  38  64  86 110 145 191 246 294 340
#
# _framework density 19.991240999999999
#
# number of rings (size 3 to 8) (size 9 to 14) (size 15 to 20)
#    0.000    1.800    4.000    0.600    0.000    2.400 
#    0.000    0.000    0.000    0.000    0.000    2.800 
#    0.000    0.000    0.000    0.000    0.000    0.000 
#
# Total GULP energy -495590.539960 kJ/mol
# GULP energy per Si atom -12389.763499 kJ/mol
# Density = 1.994574 g / cm^3
# Si number density = 19.991241 Si / 1000 Ang^3
#
#
#
# Elastic Constant Matrix: (Units=GPa)
#
#
# Indices 1 2 3 4 5 6 
#
# 1 87.6554 16.0420 2.6572 0.0000 0.0000 0.0000
# 2 16.0420 116.4600 14.7201 0.0000 0.0000 0.0000
# 3 2.6572 14.7201 74.0748 0.0000 0.0000 0.0000
# 4 0.0000 0.0000 0.0000 13.5642 0.0000 0.0000
# 5 0.0000 0.0000 0.0000 0.0000 22.3115 0.0000
# 6 0.0000 0.0000 0.0000 0.0000 0.0000 -84.0548
#
#
#
# Elastic Compliance Matrix: (Units=1/GPa)
#
#
# Indices 1 2 3 4 5 6 
#
# 1 0.011704 -0.001599 -0.000102 0.000000 0.000000 0.000000
# 2 -0.001599 0.009026 -0.001736 0.000000 0.000000 0.000000
# 3 -0.000102 -0.001736 0.013849 0.000000 0.000000 0.000000
# 4 0.000000 0.000000 0.000000 0.073724 0.000000 0.000000
# 5 0.000000 0.000000 0.000000 0.000000 0.044820 0.000000
# 6 0.000000 0.000000 0.000000 0.000000 0.000000 -0.011897
#
#
# Mechanical properties :
#
#
# Convention : Reuss Voigt Hill
#
# Bulk Modulus (GPa) = 36.09625 38.33651 37.21638
# Shear Modulus (GPa) = 31.77925 6.68225 19.23075
#
# Velocity S-wave (km/s) = 3.99138 1.83026 3.10491
# Velocity P-wave (km/s) = 6.27190 4.86670 5.61344
#
# Compressibility (1/GPa) = 0.02770371
#
# Stress axis : x y z
#
# Youngs Moduli (GPa) = 85.44015 110.78608 72.20963
#
# Poissons Ratio (x) = 0.17718 0.00737
# Poissons Ratio (y) = 0.13664 0.12538
# Poissons Ratio (z) = 0.00872 0.19236
#
# Static dielectric constant tensor:
#      x y z
#    x 3.809610 0.000000 0.000000 
#    y 0.000000 3.874250 0.000000 
#    z 0.000000 0.000000 3.513100 
# 
# 
# High freq. dielectric constant tensor:
#      x y z
#    x 1.759770 0.000000 0.000000 
#    y 0.000000 1.784930 0.000000 
#    z 0.000000 0.000000 1.769460 
# 
# From -- ./inp_files/16139.got.cif
#   From: 2010.03.12/outbox.cif.g09.slc.cpg/sg74_9_cif.got.tgz:16139.got - 2010.04.16 15:46:19.
