data_PCOD8300664
_publ_section_title
;
Structure prediction by ZEFSAII (Michael W. Deem and Ramdas Pophale) SiO2 
 PCOD8300664
Probable space group: I M M A
;
_chemical_formula_sum "Si O2"
_cell_formula_units_Z 104
_cell_length_a 20.150942
_cell_length_b 8.840382
_cell_length_c 31.939754
_cell_angle_alpha 90.000000
_cell_angle_beta 90.000000
_cell_angle_gamma 90.000000
_cell_volume 5689.812454
_symmetry_space_group_name_H-M "I M M A"
_symmetry_group_IT_number 74
_symmetry_cell_setting 'orthorhombic'
loop_
_space_group_symop_operation_xyz
x,y,z
-x,1/2-y,z
x,-y,-z
-x,1/2+y,-z
-x,-y,-z
x,1/2+y,-z
-x,y,z
x,1/2-y,z
1/2+x,1/2+y,1/2+z
1/2-x,-y,1/2+z
1/2+x,1/2-y,1/2-z
1/2-x,y,1/2-z
1/2-x,1/2-y,1/2-z
1/2+x,y,1/2-z
1/2-x,1/2+y,1/2+z
1/2+x,-y,1/2+z
loop_
_atom_site_type_symbol
_atom_site_label
_atom_site_fract_x
_atom_site_fract_y
_atom_site_fract_z
Si Si1 0.825532 0.083118 0.833951
Si Si2 0.129066 0.080606 0.927598
Si Si3 0.739466 0.069706 0.042932
Si Si4 0.692327 0.571560 0.126277
Si Si5 0.925482 0.072074 0.227639
Si Si6 0.424936 0.074766 0.814298
Si Si7 0.000000 0.072209 0.044891
O O1 0.823660 0.250000 0.813200
O O2 0.857863 0.093086 0.878994
O O3 0.750526 0.020746 0.841163
O O4 0.869734 0.976224 0.805220
O O5 0.120981 0.250000 0.946739
O O6 0.186444 0.994231 0.952449
O O7 0.063561 0.982466 0.930213
O O8 0.740063 0.250000 0.040476
O O9 0.695378 0.017210 0.082452
O O10 0.709232 0.000000 0.000000
O O11 0.700769 0.750000 0.116756
O O12 0.622269 0.529965 0.147147
O O13 0.927541 0.250000 0.227860
O O14 0.000000 0.009160 0.216721
O O15 0.903600 0.016712 0.273322
O O16 0.500000 0.035396 0.827972
O O17 0.416734 0.250000 0.803084
O O18 0.000000 0.250000 0.041371
O O19 0.000000 0.000000 0.000000
#
# Coordination Sequence:
#
# PCOD8300664 Si02
#       7
#    16  16  16  16  16  16   8
#     4   9  19  34  52  73 101 138 176 217 264 315
#     4  10  21  37  53  73 101 136 178 224 272 318
#     4  11  21  35  56  80 106 138 173 213 262 315
#     4   9  19  36  56  81 109 136 173 219 265 316
#     4  10  21  34  49  73 106 142 180 224 266 309
#     4   9  18  35  59  82 105 138 176 213 260 321
#     4  12  24  36  50  70  98 134 178 226 274 324
#
# _framework density 18.278282000000001
#
# number of rings (size 3 to 8) (size 9 to 14) (size 15 to 20)
#    0.000    2.154    0.000    4.385    1.077    5.231 
#    0.000    3.077    0.000    0.462    0.000    0.000 
#    0.000    0.000    0.000    0.000    0.000    0.000 
#
# Total GULP energy -644734.513727 kJ/mol
# GULP energy per Si atom -12398.740649 kJ/mol
# Density = 1.823668 g / cm^3
# Si number density = 18.278282 Si / 1000 Ang^3
#
#
#
# Elastic Constant Matrix: (Units=GPa)
#
#
# Indices 1 2 3 4 5 6 
#
# 1 98.3543 38.7844 57.0574 0.0000 0.0000 0.0000
# 2 38.7844 110.1142 48.8657 0.0000 0.0000 0.0000
# 3 57.0574 48.8657 94.6511 0.0000 0.0000 0.0000
# 4 0.0000 0.0000 0.0000 31.6601 0.0000 0.0000
# 5 0.0000 0.0000 0.0000 0.0000 11.9052 0.0000
# 6 0.0000 0.0000 0.0000 0.0000 0.0000 20.6190
#
#
#
# Elastic Compliance Matrix: (Units=1/GPa)
#
#
# Indices 1 2 3 4 5 6 
#
# 1 0.015890 -0.001746 -0.008677 0.000000 0.000000 0.000000
# 2 -0.001746 0.011972 -0.005128 0.000000 0.000000 0.000000
# 3 -0.008677 -0.005128 0.018444 0.000000 0.000000 0.000000
# 4 0.000000 0.000000 0.000000 0.031585 0.000000 0.000000
# 5 0.000000 0.000000 0.000000 0.000000 0.083997 0.000000
# 6 0.000000 0.000000 0.000000 0.000000 0.000000 0.048499
#
#
# Mechanical properties :
#
#
# Convention : Reuss Voigt Hill
#
# Bulk Modulus (GPa) = 65.77950 65.83718 65.80834
# Shear Modulus (GPa) = 20.27924 23.39766 21.83845
#
# Velocity S-wave (km/s) = 3.33449 3.58170 3.46030
# Velocity P-wave (km/s) = 7.13379 7.29399 7.21434
#
# Compressibility (1/GPa) = 0.01520231
#
# Stress axis : x y z
#
# Youngs Moduli (GPa) = 62.93423 83.52599 54.21954
#
# Poissons Ratio (x) = 0.14583 0.47047
# Poissons Ratio (y) = 0.10988 0.27806
# Poissons Ratio (z) = 0.54609 0.42836
#
# Static dielectric constant tensor:
#      x y z
#    x 3.453890 0.000000 0.000000 
#    y 0.000000 3.224230 0.000000 
#    z 0.000000 0.000000 3.342260 
# 
# 
# High freq. dielectric constant tensor:
#      x y z
#    x 1.698690 0.000000 0.000000 
#    y 0.000000 1.712010 0.000000 
#    z 0.000000 0.000000 1.704310 
# 
# From -- ./inp_files/68222.got.cif
#   From: 2010.03.12/outbox.cif.g09.slc.cpg/sg74_35_cif.got.tgz:68222.got - 2010.04.16 15:46:19.
