data_PCOD8300864
_publ_section_title
;
Structure prediction by ZEFSAII (Michael W. Deem and Ramdas Pophale) SiO2 
 PCOD8300864
Probable space group: I M M A
;
_chemical_formula_sum "Si O2"
_cell_formula_units_Z 96
_cell_length_a 17.781229
_cell_length_b 14.193663
_cell_length_c 20.892900
_cell_angle_alpha 90.000000
_cell_angle_beta 90.000000
_cell_angle_gamma 90.000000
_cell_volume 5272.966234
_symmetry_space_group_name_H-M "I M M A"
_symmetry_group_IT_number 74
_symmetry_cell_setting 'orthorhombic'
loop_
_space_group_symop_operation_xyz
x,y,z
-x,1/2-y,z
x,-y,-z
-x,1/2+y,-z
-x,-y,-z
x,1/2+y,-z
-x,y,z
x,1/2-y,z
1/2+x,1/2+y,1/2+z
1/2-x,-y,1/2+z
1/2+x,1/2-y,1/2-z
1/2-x,y,1/2-z
1/2-x,1/2-y,1/2-z
1/2+x,y,1/2-z
1/2-x,1/2+y,1/2+z
1/2+x,-y,1/2+z
loop_
_atom_site_type_symbol
_atom_site_label
_atom_site_fract_x
_atom_site_fract_y
_atom_site_fract_z
Si Si1 0.831944 0.497173 0.926187
Si Si2 0.088590 0.357739 0.500844
Si Si3 0.413132 0.858048 0.659453
Si Si4 0.156094 0.501676 0.594305
Si Si5 0.414116 0.497556 0.229113
Si Si6 0.087736 0.357438 0.836922
O O1 0.862459 0.592165 0.893778
O O2 0.743438 0.489886 0.917905
O O3 0.868185 0.404278 0.895390
O O4 0.854753 0.500000 0.000000
O O5 0.114633 0.250000 0.506981
O O6 0.112879 0.412049 0.564933
O O7 0.127937 0.402399 0.438741
O O8 0.000000 0.366610 0.491841
O O9 0.500000 0.869648 0.639187
O O10 0.388397 0.750000 0.664154
O O11 0.399913 0.904653 0.728624
O O12 0.141624 0.506460 0.669585
O O13 0.500000 0.501504 0.204649
O O14 0.394070 0.589822 0.270578
O O15 0.113964 0.250000 0.829594
O O16 0.000000 0.366333 0.852889
#
# Coordination Sequence:
#
# PCOD8300864 Si02
#       6
#    16  16  16  16  16  16
#     4  11  22  37  54  81 113 151 183 229 276 333
#     4  10  21  37  56  79 109 148 194 232 264 316
#     4   9  20  38  58  82 110 142 186 235 278 327
#     4  11  21  37  55  83 116 150 179 226 280 328
#     4   9  18  35  60  82 108 144 184 226 275 333
#     4   9  20  38  58  82 110 142 186 235 278 327
#
# _framework density 18.206071000000001
#
# number of rings (size 3 to 8) (size 9 to 14) (size 15 to 20)
#    0.000    2.167    1.667    3.500    0.000    7.333 
#    0.000    6.667    0.000    0.000    0.000    0.000 
#    0.000    0.000    0.000    0.000    0.000    0.000 
#
# Total GULP energy -595351.652783 kJ/mol
# GULP energy per Si atom -12403.159433 kJ/mol
# Density = 1.816463 g / cm^3
# Si number density = 18.206071 Si / 1000 Ang^3
#
#
#
# Elastic Constant Matrix: (Units=GPa)
#
#
# Indices 1 2 3 4 5 6 
#
# 1 46.9923 20.2540 25.1841 0.0000 0.0000 0.0000
# 2 20.2540 143.4554 39.2913 0.0000 0.0000 0.0000
# 3 25.1841 39.2913 120.5695 0.0000 0.0000 0.0000
# 4 0.0000 0.0000 0.0000 10.7366 0.0000 0.0000
# 5 0.0000 0.0000 0.0000 0.0000 32.6376 0.0000
# 6 0.0000 0.0000 0.0000 0.0000 0.0000 12.7137
#
#
#
# Elastic Compliance Matrix: (Units=1/GPa)
#
#
# Indices 1 2 3 4 5 6 
#
# 1 0.024618 -0.002270 -0.004402 0.000000 0.000000 0.000000
# 2 -0.002270 0.007863 -0.002088 0.000000 0.000000 0.000000
# 3 -0.004402 -0.002088 0.009894 0.000000 0.000000 0.000000
# 4 0.000000 0.000000 0.000000 0.093139 0.000000 0.000000
# 5 0.000000 0.000000 0.000000 0.000000 0.030639 0.000000
# 6 0.000000 0.000000 0.000000 0.000000 0.000000 0.078656
#
#
# Mechanical properties :
#
#
# Convention : Reuss Voigt Hill
#
# Bulk Modulus (GPa) = 40.23523 53.38621 46.81072
# Shear Modulus (GPa) = 18.47643 26.30345 22.38994
#
# Velocity S-wave (km/s) = 3.18913 3.80513 3.51066
# Velocity P-wave (km/s) = 5.97567 6.97799 6.49619
#
# Compressibility (1/GPa) = 0.02485384
#
# Stress axis : x y z
#
# Youngs Moduli (GPa) = 40.62115 127.17350 101.07074
#
# Poissons Ratio (x) = 0.28868 0.44495
# Poissons Ratio (y) = 0.09221 0.21107
# Poissons Ratio (z) = 0.17883 0.26558
#
# Static dielectric constant tensor:
#      x y z
#    x 3.332960 0.000000 0.000000 
#    y 0.000000 3.563000 0.000000 
#    z 0.000000 0.000000 3.283000 
# 
# 
# High freq. dielectric constant tensor:
#      x y z
#    x 1.705990 0.000000 0.000000 
#    y 0.000000 1.711230 0.000000 
#    z 0.000000 0.000000 1.704840 
# 
# From -- ./inp_files/51907.got.cif
#   From: 2010.03.12/outbox.cif.g09.slc.cpg/sg74_26_cif.got.tgz:51907.got - 2010.04.16 15:46:19.
