data_PCOD8300349
_publ_section_title
;
Structure prediction by ZEFSAII (Michael W. Deem and Ramdas Pophale) SiO2 
 PCOD8300349
Probable space group: I M M A
;
_chemical_formula_sum "Si O2"
_cell_formula_units_Z 112
_cell_length_a 22.605366
_cell_length_b 18.966404
_cell_length_c 13.556062
_cell_angle_alpha 90.000000
_cell_angle_beta 90.000000
_cell_angle_gamma 90.000000
_cell_volume 5812.059968
_symmetry_space_group_name_H-M "I M M A"
_symmetry_group_IT_number 74
_symmetry_cell_setting 'orthorhombic'
loop_
_space_group_symop_operation_xyz
x,y,z
-x,1/2-y,z
x,-y,-z
-x,1/2+y,-z
-x,-y,-z
x,1/2+y,-z
-x,y,z
x,1/2-y,z
1/2+x,1/2+y,1/2+z
1/2-x,-y,1/2+z
1/2+x,1/2-y,1/2-z
1/2-x,y,1/2-z
1/2-x,1/2-y,1/2-z
1/2+x,y,1/2-z
1/2-x,1/2+y,1/2+z
1/2+x,-y,1/2+z
loop_
_atom_site_type_symbol
_atom_site_label
_atom_site_fract_x
_atom_site_fract_y
_atom_site_fract_z
Si Si1 0.568650 0.833005 0.065673
Si Si2 0.342056 0.572991 0.954720
Si Si3 0.110506 0.668374 0.049891
Si Si4 0.931952 0.584782 0.233507
Si Si5 0.791506 0.423964 0.035246
Si Si6 0.433439 0.326150 0.340147
Si Si7 0.142887 0.055621 0.232088
O O1 0.500000 0.844827 0.036176
O O2 0.582382 0.750000 0.076653
O O3 0.583904 0.872606 0.167372
O O4 0.611054 0.865690 0.980957
O O5 0.330069 0.560804 0.839742
O O6 0.366412 0.500000 0.000000
O O7 0.276526 0.591642 0.992976
O O8 0.121096 0.750000 0.070811
O O9 0.076569 0.637231 0.142961
O O10 0.174039 0.634031 0.028187
O O11 0.069582 0.653045 0.955263
O O12 0.887462 0.520114 0.216972
O O13 0.000000 0.558407 0.236630
O O14 0.812358 0.500000 0.000000
O O15 0.807022 0.423988 0.151945
O O16 0.500000 0.319133 0.306288
O O17 0.401442 0.250000 0.324423
O O18 0.406795 0.384881 0.270610
#
# Coordination Sequence:
#
# PCOD8300349 Si02
#       7
#    16  16  16  16  16  16  16
#     4  10  23  42  62  88 121 155 197 246 294 347
#     4  11  23  40  62  84 112 156 197 241 291 345
#     4  10  20  36  58  86 120 157 192 239 298 352
#     4  11  21  35  59  90 122 158 197 241 293 354
#     4  10  21  39  61  85 117 151 192 240 292 348
#     4   9  19  34  53  82 119 155 194 238 288 349
#     4  11  21  37  59  89 116 154 193 247 292 354
#
# _framework density 19.270277
#
# number of rings (size 3 to 8) (size 9 to 14) (size 15 to 20)
#    0.000    1.714    2.857    1.714    0.000    4.000 
#    0.000    4.286    0.000    6.000    0.000    0.000 
#    0.000    0.000    0.000    0.000    0.000    0.000 
#
# Total GULP energy -694268.334187 kJ/mol
# GULP energy per Si atom -12397.648825 kJ/mol
# Density = 1.922642 g / cm^3
# Si number density = 19.270277 Si / 1000 Ang^3
#
#
#
# Elastic Constant Matrix: (Units=GPa)
#
#
# Indices 1 2 3 4 5 6 
#
# 1 75.3608 37.3444 8.0433 0.0000 0.0000 0.0000
# 2 37.3444 98.5780 9.5061 0.0000 0.0000 0.0000
# 3 8.0433 9.5061 64.7787 0.0000 0.0000 0.0000
# 4 0.0000 0.0000 0.0000 30.2141 0.0000 0.0000
# 5 0.0000 0.0000 0.0000 0.0000 21.1231 0.0000
# 6 0.0000 0.0000 0.0000 0.0000 0.0000 25.5711
#
#
#
# Elastic Compliance Matrix: (Units=1/GPa)
#
#
# Indices 1 2 3 4 5 6 
#
# 1 0.016419 -0.006110 -0.001142 0.000000 0.000000 0.000000
# 2 -0.006110 0.012564 -0.001085 0.000000 0.000000 0.000000
# 3 -0.001142 -0.001085 0.015738 0.000000 0.000000 0.000000
# 4 0.000000 0.000000 0.000000 0.033097 0.000000 0.000000
# 5 0.000000 0.000000 0.000000 0.000000 0.047342 0.000000
# 6 0.000000 0.000000 0.000000 0.000000 0.000000 0.039107
#
#
# Mechanical properties :
#
#
# Convention : Reuss Voigt Hill
#
# Bulk Modulus (GPa) = 35.65475 38.72281 37.18878
# Shear Modulus (GPa) = 26.27579 27.63656 26.95618
#
# Velocity S-wave (km/s) = 3.69662 3.79113 3.74417
# Velocity P-wave (km/s) = 6.06322 6.26911 6.16703
#
# Compressibility (1/GPa) = 0.02804676
#
# Stress axis : x y z
#
# Youngs Moduli (GPa) = 60.90464 79.59560 63.53968
#
# Poissons Ratio (x) = 0.48632 0.07257
# Poissons Ratio (y) = 0.37212 0.06894
# Poissons Ratio (z) = 0.06956 0.08636
#
# Static dielectric constant tensor:
#      x y z
#    x 3.392310 0.000000 0.000000 
#    y 0.000000 3.650460 0.000000 
#    z 0.000000 0.000000 3.463300 
# 
# 
# High freq. dielectric constant tensor:
#      x y z
#    x 1.743610 0.000000 0.000000 
#    y 0.000000 1.757110 0.000000 
#    z 0.000000 0.000000 1.749830 
# 
# From -- ./inp_files/25387.got.cif
#   From: 2010.03.12/outbox.cif.g09.slc.cpg/sg74_13_cif.got.tgz:25387.got - 2010.04.16 15:46:19.
