data_PCOD8300868
_publ_section_title
;
Structure prediction by ZEFSAII (Michael W. Deem and Ramdas Pophale) SiO2 
 PCOD8300868
Probable space group: I M M A
;
_chemical_formula_sum "Si O2"
_cell_formula_units_Z 96
_cell_length_a 19.844072
_cell_length_b 9.156444
_cell_length_c 27.806023
_cell_angle_alpha 90.000000
_cell_angle_beta 90.000000
_cell_angle_gamma 90.000000
_cell_volume 5052.385911
_symmetry_space_group_name_H-M "I M M A"
_symmetry_group_IT_number 74
_symmetry_cell_setting 'orthorhombic'
loop_
_space_group_symop_operation_xyz
x,y,z
-x,1/2-y,z
x,-y,-z
-x,1/2+y,-z
-x,-y,-z
x,1/2+y,-z
-x,y,z
x,1/2-y,z
1/2+x,1/2+y,1/2+z
1/2-x,-y,1/2+z
1/2+x,1/2-y,1/2-z
1/2-x,y,1/2-z
1/2-x,1/2-y,1/2-z
1/2+x,y,1/2-z
1/2-x,1/2+y,1/2+z
1/2+x,-y,1/2+z
loop_
_atom_site_type_symbol
_atom_site_label
_atom_site_fract_x
_atom_site_fract_y
_atom_site_fract_z
Si Si1 0.421705 0.580291 0.451533
Si Si2 0.921966 0.919381 0.394695
Si Si3 0.815821 0.921910 0.776419
Si Si4 0.319807 0.580235 0.613282
Si Si5 0.808714 0.921110 0.549316
Si Si6 0.421932 0.417152 0.785268
O O1 0.398564 0.500000 0.500000
O O2 0.500000 0.552667 0.440748
O O3 0.405026 0.750000 0.457776
O O4 0.380569 0.515081 0.407367
O O5 0.903579 0.750000 0.402430
O O6 0.906570 0.966540 0.339875
O O7 0.000000 0.946806 0.406910
O O8 0.878757 0.018258 0.430338
O O9 0.819499 0.750000 0.770152
O O10 0.750000 0.985821 0.750000
O O11 0.811374 0.968005 0.831784
O O12 0.882274 0.985790 0.752478
O O13 0.338774 0.750000 0.608127
O O14 0.250216 0.543785 0.586877
O O15 0.816856 0.750000 0.539744
O O16 0.789502 0.000000 0.500000
O O17 0.500000 0.438841 0.773565
O O18 0.400487 0.250000 0.778438
#
# Coordination Sequence:
#
# PCOD8300868 Si02
#       6
#    16  16  16  16  16  16
#     4  10  21  37  58  83 110 142 180 222 269 322
#     4   9  19  37  59  82 110 144 181 222 268 318
#     4  10  21  37  56  80 111 144 181 226 271 318
#     4  10  22  38  56  80 110 144 182 225 271 319
#     4  11  23  38  57  81 109 142 181 225 272 323
#     4   9  19  36  57  82 112 144 180 223 268 317
#
# _framework density 19.000924000000001
#
# number of rings (size 3 to 8) (size 9 to 14) (size 15 to 20)
#    0.000    2.167    0.000    3.500    0.000    8.333 
#    0.000    5.000    0.000    0.000    0.000    0.000 
#    0.000    0.000    0.000    0.000    0.000    0.000 
#
# Total GULP energy -595427.585370 kJ/mol
# GULP energy per Si atom -12404.741362 kJ/mol
# Density = 1.895768 g / cm^3
# Si number density = 19.000924 Si / 1000 Ang^3
#
#
#
# Elastic Constant Matrix: (Units=GPa)
#
#
# Indices 1 2 3 4 5 6 
#
# 1 77.6134 44.2237 53.7634 0.0000 0.0000 0.0000
# 2 44.2237 72.7092 57.0104 0.0000 0.0000 0.0000
# 3 53.7634 57.0104 126.9537 0.0000 0.0000 0.0000
# 4 0.0000 0.0000 0.0000 35.6615 0.0000 0.0000
# 5 0.0000 0.0000 0.0000 0.0000 39.4727 0.0000
# 6 0.0000 0.0000 0.0000 0.0000 0.0000 34.4959
#
#
#
# Elastic Compliance Matrix: (Units=1/GPa)
#
#
# Indices 1 2 3 4 5 6 
#
# 1 0.021605 -0.009209 -0.005014 0.000000 0.000000 0.000000
# 2 -0.009209 0.025154 -0.007395 0.000000 0.000000 0.000000
# 3 -0.005014 -0.007395 0.013321 0.000000 0.000000 0.000000
# 4 0.000000 0.000000 0.000000 0.028041 0.000000 0.000000
# 5 0.000000 0.000000 0.000000 0.000000 0.025334 0.000000
# 6 0.000000 0.000000 0.000000 0.000000 0.000000 0.028989
#
#
# Mechanical properties :
#
#
# Convention : Reuss Voigt Hill
#
# Bulk Modulus (GPa) = 59.37442 65.25238 62.31340
# Shear Modulus (GPa) = 26.13755 30.07795 28.10775
#
# Velocity S-wave (km/s) = 3.71292 3.98298 3.85032
# Velocity P-wave (km/s) = 7.04962 7.45442 7.25484
#
# Compressibility (1/GPa) = 0.01684227
#
# Stress axis : x y z
#
# Youngs Moduli (GPa) = 46.28564 39.75582 75.06812
#
# Poissons Ratio (x) = 0.36613 0.37638
# Poissons Ratio (y) = 0.42626 0.55516
# Poissons Ratio (z) = 0.23207 0.29401
#
# Static dielectric constant tensor:
#      x y z
#    x 3.451280 0.000000 0.000000 
#    y 0.000000 3.413060 0.000000 
#    z 0.000000 0.000000 3.535010 
# 
# 
# High freq. dielectric constant tensor:
#      x y z
#    x 1.745510 0.000000 0.000000 
#    y 0.000000 1.736770 0.000000 
#    z 0.000000 0.000000 1.744460 
# 
# From -- ./inp_files/64315.got.cif
#   From: 2010.03.12/outbox.cif.g09.slc.cpg/sg74_33_cif.got.tgz:64315.got - 2010.04.16 15:46:19.
