data_PCOD8300381
_publ_section_title
;
Structure prediction by ZEFSAII (Michael W. Deem and Ramdas Pophale) SiO2 
 PCOD8300381
Probable space group: I M M A
;
_chemical_formula_sum "Si O2"
_cell_formula_units_Z 80
_cell_length_a 18.338030
_cell_length_b 23.610733
_cell_length_c 8.990579
_cell_angle_alpha 90.000000
_cell_angle_beta 90.000000
_cell_angle_gamma 90.000000
_cell_volume 3892.689920
_symmetry_space_group_name_H-M "I M M A"
_symmetry_group_IT_number 74
_symmetry_cell_setting 'orthorhombic'
loop_
_space_group_symop_operation_xyz
x,y,z
-x,1/2-y,z
x,-y,-z
-x,1/2+y,-z
-x,-y,-z
x,1/2+y,-z
-x,y,z
x,1/2-y,z
1/2+x,1/2+y,1/2+z
1/2-x,-y,1/2+z
1/2+x,1/2-y,1/2-z
1/2-x,y,1/2-z
1/2-x,1/2-y,1/2-z
1/2+x,y,1/2-z
1/2-x,1/2+y,1/2+z
1/2+x,-y,1/2+z
loop_
_atom_site_type_symbol
_atom_site_label
_atom_site_fract_x
_atom_site_fract_y
_atom_site_fract_z
Si Si1 0.916516 0.684963 0.250020
Si Si2 0.418026 0.250000 0.231957
Si Si3 0.723384 0.750000 0.918056
Si Si4 0.213834 0.642584 0.408310
Si Si5 0.583491 0.138948 0.424965
Si Si6 0.287863 0.946397 0.596958
O O1 0.891082 0.750000 0.230631
O O2 0.871695 0.654384 0.381711
O O3 0.000000 0.681374 0.297928
O O4 0.901950 0.651865 0.097290
O O5 0.500000 0.250000 0.170023
O O6 0.365293 0.250000 0.088954
O O7 0.401726 0.304556 0.332090
O O8 0.750000 0.750000 0.750000
O O9 0.751717 0.805142 0.004639
O O10 0.250000 0.635458 0.250000
O O11 0.225499 0.587142 0.506449
O O12 0.500000 0.118185 0.401091
O O13 0.639706 0.090658 0.372106
O O14 0.250000 0.965771 0.750000
O O15 0.312383 0.000000 0.500000
#
# Coordination Sequence:
#
# PCOD8300381 Si02
#       6
#    16   8   8  16  16  16
#     4  10  20  36  63  99 134 167 204 250 311 381
#     4  10  20  36  59  91 130 167 199 245 310 371
#     4  12  25  34  55  92 132 170 205 250 306 377
#     4  12  23  39  63  91 126 169 208 261 316 372
#     4  10  20  39  67  95 128 168 209 254 312 387
#     4  12  27  46  67  92 124 163 215 269 320 370
#
# _framework density 20.551342000000002
#
# number of rings (size 3 to 8) (size 9 to 14) (size 15 to 20)
#    0.000    1.000    4.000    3.900    0.000    1.200 
#    0.000    1.000    0.000    1.200    0.000    0.000 
#    0.000    0.000    0.000    0.000    0.000    0.000 
#
# Total GULP energy -496101.520888 kJ/mol
# GULP energy per Si atom -12402.538022 kJ/mol
# Density = 2.050457 g / cm^3
# Si number density = 20.551342 Si / 1000 Ang^3
#
#
#
# Elastic Constant Matrix: (Units=GPa)
#
#
# Indices 1 2 3 4 5 6 
#
# 1 91.3567 32.2805 18.5328 0.0000 0.0000 0.0000
# 2 32.2805 101.0140 24.2268 0.0000 0.0000 0.0000
# 3 18.5328 24.2268 80.4484 0.0000 0.0000 0.0000
# 4 0.0000 0.0000 0.0000 32.6713 0.0000 0.0000
# 5 0.0000 0.0000 0.0000 0.0000 34.7095 0.0000
# 6 0.0000 0.0000 0.0000 0.0000 0.0000 19.0878
#
#
#
# Elastic Compliance Matrix: (Units=1/GPa)
#
#
# Indices 1 2 3 4 5 6 
#
# 1 0.012582 -0.003584 -0.001819 0.000000 0.000000 0.000000
# 2 -0.003584 0.011691 -0.002695 0.000000 0.000000 0.000000
# 3 -0.001819 -0.002695 0.013661 0.000000 0.000000 0.000000
# 4 0.000000 0.000000 0.000000 0.030608 0.000000 0.000000
# 5 0.000000 0.000000 0.000000 0.000000 0.028811 0.000000
# 6 0.000000 0.000000 0.000000 0.000000 0.000000 0.052390
#
#
# Mechanical properties :
#
#
# Convention : Reuss Voigt Hill
#
# Bulk Modulus (GPa) = 46.00429 46.98880 46.49655
# Shear Modulus (GPa) = 28.87090 30.47898 29.67494
#
# Velocity S-wave (km/s) = 3.75216 3.85524 3.80405
# Velocity P-wave (km/s) = 6.41913 6.53689 6.47828
#
# Compressibility (1/GPa) = 0.02173710
#
# Stress axis : x y z
#
# Youngs Moduli (GPa) = 79.48092 85.53263 73.20118
#
# Poissons Ratio (x) = 0.30658 0.13315
# Poissons Ratio (y) = 0.28489 0.19729
# Poissons Ratio (z) = 0.14457 0.23052
#
# Static dielectric constant tensor:
#      x y z
#    x 4.111440 0.000000 0.000000 
#    y 0.000000 3.504020 0.000000 
#    z 0.000000 0.000000 3.745260 
# 
# 
# High freq. dielectric constant tensor:
#      x y z
#    x 1.816970 0.000000 0.000000 
#    y 0.000000 1.776530 0.000000 
#    z 0.000000 0.000000 1.810760 
# 
# From -- ./inp_files/12318.got.cif
#   From: 2010.03.12/outbox.cif.g09.slc.cpg/sg74_7_cif.got.tgz:12318.got - 2010.04.16 15:46:19.
