data_PCOD8300769
_publ_section_title
;
Structure prediction by ZEFSAII (Michael W. Deem and Ramdas Pophale) SiO2 
 PCOD8300769
Probable space group: I M M A
;
_chemical_formula_sum "Si O2"
_cell_formula_units_Z 104
_cell_length_a 8.989712
_cell_length_b 22.084750
_cell_length_c 28.688893
_cell_angle_alpha 90.000000
_cell_angle_beta 90.000000
_cell_angle_gamma 90.000000
_cell_volume 5695.764924
_symmetry_space_group_name_H-M "I M M A"
_symmetry_group_IT_number 74
_symmetry_cell_setting 'orthorhombic'
loop_
_space_group_symop_operation_xyz
x,y,z
-x,1/2-y,z
x,-y,-z
-x,1/2+y,-z
-x,-y,-z
x,1/2+y,-z
-x,y,z
x,1/2-y,z
1/2+x,1/2+y,1/2+z
1/2-x,-y,1/2+z
1/2+x,1/2-y,1/2-z
1/2-x,y,1/2-z
1/2-x,1/2-y,1/2-z
1/2+x,y,1/2-z
1/2-x,1/2+y,1/2+z
1/2+x,-y,1/2+z
loop_
_atom_site_type_symbol
_atom_site_label
_atom_site_fract_x
_atom_site_fract_y
_atom_site_fract_z
Si Si1 0.834410 0.821221 0.794411
Si Si2 0.828421 0.559518 0.545688
Si Si3 0.824094 0.924187 0.444766
Si Si4 0.675837 0.511075 0.300067
Si Si5 0.327079 0.596052 0.855664
Si Si6 0.676685 0.250000 0.698725
Si Si7 0.825372 0.129757 0.856499
O O1 0.842389 0.750000 0.791647
O O2 0.750000 0.849165 0.750000
O O3 0.736561 0.840107 0.838421
O O4 0.000000 0.849059 0.796416
O O5 0.763969 0.493375 0.559800
O O6 0.771344 0.591811 0.498085
O O7 0.798277 0.602500 0.589267
O O8 0.000000 0.546376 0.536357
O O9 0.748006 0.879537 0.407406
O O10 0.000000 0.917647 0.436502
O O11 0.500000 0.504597 0.294637
O O12 0.750000 0.506412 0.250000
O O13 0.735741 0.458188 0.332926
O O14 0.721472 0.574735 0.322976
O O15 0.500000 0.587453 0.843769
O O16 0.500000 0.250000 0.706222
O O17 0.750000 0.250000 0.750000
O O18 0.728802 0.191368 0.668865
O O19 0.000000 0.131973 0.864963
#
# Coordination Sequence:
#
# PCOD8300769 Si02
#       7
#    16  16  16  16  16   8  16
#     4  10  21  37  55  75 102 137 176 214 253 303
#     4   8  16  30  52  81 108 136 169 211 258 307
#     4   9  16  32  56  79 105 136 173 212 256 314
#     4  11  22  34  49  74 107 138 173 214 263 317
#     4  11  20  33  54  79 106 137 172 212 263 310
#     4  10  22  40  58  78 108 144 188 234 277 328
#     4  10  21  36  54  78 107 140 177 224 275 321
#
# _framework density 18.259180000000001
#
# number of rings (size 3 to 8) (size 9 to 14) (size 15 to 20)
#    0.000    2.154    1.538    3.231    0.000    2.154 
#    0.000    3.077    1.692    0.000    0.000    0.000 
#    0.000    0.000    0.000    0.000    0.000    0.000 
#
# Total GULP energy -644415.921980 kJ/mol
# GULP energy per Si atom -12392.613884 kJ/mol
# Density = 1.821762 g / cm^3
# Si number density = 18.259180 Si / 1000 Ang^3
#
#
#
# Elastic Constant Matrix: (Units=GPa)
#
#
# Indices 1 2 3 4 5 6 
#
# 1 64.5266 22.7684 52.0390 0.0000 0.0000 0.0000
# 2 22.7684 44.8201 42.2546 0.0000 0.0000 0.0000
# 3 52.0390 42.2546 154.9241 0.0000 0.0000 0.0000
# 4 0.0000 0.0000 0.0000 29.4818 0.0000 0.0000
# 5 0.0000 0.0000 0.0000 0.0000 28.6486 0.0000
# 6 0.0000 0.0000 0.0000 0.0000 0.0000 22.2808
#
#
#
# Elastic Compliance Matrix: (Units=1/GPa)
#
#
# Indices 1 2 3 4 5 6 
#
# 1 0.022302 -0.005744 -0.005925 0.000000 0.000000 0.000000
# 2 -0.005744 0.031513 -0.006666 0.000000 0.000000 0.000000
# 3 -0.005925 -0.006666 0.010263 0.000000 0.000000 0.000000
# 4 0.000000 0.000000 0.000000 0.033919 0.000000 0.000000
# 5 0.000000 0.000000 0.000000 0.000000 0.034906 0.000000
# 6 0.000000 0.000000 0.000000 0.000000 0.000000 0.044882
#
#
# Mechanical properties :
#
#
# Convention : Reuss Voigt Hill
#
# Bulk Modulus (GPa) = 36.48299 55.37718 45.93008
# Shear Modulus (GPa) = 22.36227 25.89616 24.12922
#
# Velocity S-wave (km/s) = 3.50339 3.77006 3.63917
# Velocity P-wave (km/s) = 6.03233 7.02462 6.54730
#
# Compressibility (1/GPa) = 0.02741004
#
# Stress axis : x y z
#
# Youngs Moduli (GPa) = 44.83822 31.73252 97.43798
#
# Poissons Ratio (x) = 0.18227 0.57730
# Poissons Ratio (y) = 0.25754 0.64949
# Poissons Ratio (z) = 0.26566 0.21152
#
# Static dielectric constant tensor:
#      x y z
#    x 3.363780 0.000000 0.000000 
#    y 0.000000 3.271780 0.000000 
#    z 0.000000 0.000000 3.656390 
# 
# 
# High freq. dielectric constant tensor:
#      x y z
#    x 1.698100 0.000000 0.000000 
#    y 0.000000 1.687490 0.000000 
#    z 0.000000 0.000000 1.722500 
# 
# From -- ./inp_files/64759.got.cif
#   From: 2010.03.12/outbox.cif.g09.slc.cpg/sg74_33_cif.got.tgz:64759.got - 2010.04.16 15:46:19.
