data_PCOD8300237
_publ_section_title
;
Structure prediction by ZEFSAII (Michael W. Deem and Ramdas Pophale) SiO2 
 PCOD8300237
Probable space group: I M M A
;
_chemical_formula_sum "Si O2"
_cell_formula_units_Z 96
_cell_length_a 8.728100
_cell_length_b 28.259188
_cell_length_c 18.830806
_cell_angle_alpha 90.000000
_cell_angle_beta 90.000000
_cell_angle_gamma 90.000000
_cell_volume 4644.599823
_symmetry_space_group_name_H-M "I M M A"
_symmetry_group_IT_number 74
_symmetry_cell_setting 'orthorhombic'
loop_
_space_group_symop_operation_xyz
x,y,z
-x,1/2-y,z
x,-y,-z
-x,1/2+y,-z
-x,-y,-z
x,1/2+y,-z
-x,y,z
x,1/2-y,z
1/2+x,1/2+y,1/2+z
1/2-x,-y,1/2+z
1/2+x,1/2-y,1/2-z
1/2-x,y,1/2-z
1/2-x,1/2-y,1/2-z
1/2+x,y,1/2-z
1/2-x,1/2+y,1/2+z
1/2+x,-y,1/2+z
loop_
_atom_site_type_symbol
_atom_site_label
_atom_site_fract_x
_atom_site_fract_y
_atom_site_fract_z
Si Si1 0.321664 0.803762 0.977738
Si Si2 0.821324 0.947077 0.434139
Si Si3 0.669692 0.800967 0.377091
Si Si4 0.682097 0.030761 0.172456
Si Si5 0.818507 0.098965 0.069289
Si Si6 0.171662 0.104881 0.818397
O O1 0.500000 0.811017 0.962444
O O2 0.270824 0.750000 0.953517
O O3 0.233571 0.846401 0.938157
O O4 0.292986 0.809606 0.061355
O O5 0.739171 0.938720 0.509334
O O6 0.775438 0.902290 0.387407
O O7 0.000000 0.949968 0.451007
O O8 0.766365 0.991393 0.385955
O O9 0.500000 0.804242 0.412962
O O10 0.696730 0.750000 0.341423
O O11 0.675807 0.838353 0.312695
O O12 0.500000 0.033410 0.178531
O O13 0.750000 0.018705 0.250000
O O14 0.751147 0.080332 0.144239
O O15 0.000000 0.097451 0.069936
O O16 0.250000 0.081244 0.750000
O O17 0.000000 0.084285 0.826123
#
# Coordination Sequence:
#
# PCOD8300237 Si02
#       6
#    16  16  16  16  16  16
#     4  10  20  35  59  90 122 157 199 249 303 358
#     4  11  23  40  62  88 120 158 204 255 302 354
#     4   9  18  33  51  73 105 147 195 246 301 359
#     4  11  25  44  65  91 124 162 203 252 308 366
#     4  12  24  39  64  95 126 163 204 250 301 361
#     4  11  22  34  51  76 110 155 201 250 304 359
#
# _framework density 20.669163999999999
#
# number of rings (size 3 to 8) (size 9 to 14) (size 15 to 20)
#    0.000    1.333    1.667    4.500    0.000    8.000 
#    0.000    0.000    0.000    0.500    0.000    0.000 
#    0.000    0.000    0.000    0.000    0.000    0.000 
#
# Total GULP energy -594709.331785 kJ/mol
# GULP energy per Si atom -12389.777746 kJ/mol
# Density = 2.062212 g / cm^3
# Si number density = 20.669164 Si / 1000 Ang^3
#
#
#
# Elastic Constant Matrix: (Units=GPa)
#
#
# Indices 1 2 3 4 5 6 
#
# 1 109.8132 53.6211 40.6837 0.0000 0.0000 0.0000
# 2 53.6211 98.3008 51.5533 -0.0003 0.0000 0.0001
# 3 40.6837 51.5533 71.2308 0.0005 0.0001 0.0001
# 4 0.0000 -0.0003 0.0005 -39.4063 0.0000 -0.0001
# 5 0.0000 0.0000 0.0001 0.0000 31.2708 0.0001
# 6 0.0000 0.0001 0.0001 -0.0001 0.0001 23.6004
#
#
#
# Elastic Compliance Matrix: (Units=1/GPa)
#
#
# Indices 1 2 3 4 5 6 
#
# 1 0.012988 -0.005149 -0.003692 0.000000 0.000000 0.000000
# 2 -0.005149 0.018437 -0.010403 0.000000 0.000000 0.000000
# 3 -0.003692 -0.010403 0.023677 0.000000 0.000000 0.000000
# 4 0.000000 0.000000 0.000000 -0.025377 0.000000 0.000000
# 5 0.000000 0.000000 0.000000 0.000000 0.031979 0.000000
# 6 0.000000 0.000000 0.000000 0.000000 0.000000 0.042372
#
#
# Mechanical properties :
#
#
# Convention : Reuss Voigt Hill
#
# Bulk Modulus (GPa) = 60.18779 63.45121 61.81950
# Shear Modulus (GPa) = 33.76035 11.99210 22.87622
#
# Velocity S-wave (km/s) = 4.04588 2.41133 3.33044
# Velocity P-wave (km/s) = 7.14201 6.20627 6.69052
#
# Compressibility (1/GPa) = 0.01661467
#
# Stress axis : x y z
#
# Youngs Moduli (GPa) = 76.99309 54.23796 42.23509
#
# Poissons Ratio (x) = 0.27925 0.15593
# Poissons Ratio (y) = 0.39640 0.43939
# Poissons Ratio (z) = 0.28426 0.56426
#
# Static dielectric constant tensor:
#      x y z
#    x 3.779070 0.000000 0.000000 
#    y 0.000000 4.102400 0.000000 
#    z 0.000000 0.000000 3.548370 
# 
# 
# High freq. dielectric constant tensor:
#      x y z
#    x 1.816340 0.000000 0.000000 
#    y 0.000000 1.822990 0.000000 
#    z 0.000000 0.000000 1.773630 
# 
# From -- ./inp_files/49175.got.cif
#   From: 2010.03.12/outbox.cif.g09.slc.cpg/sg74_25_cif.got.tgz:49175.got - 2010.04.16 15:46:19.
