data_PCOD8300001
_publ_section_title
;
Structure prediction by ZEFSAII (Michael W. Deem and Ramdas Pophale) SiO2 
 PCOD8300001
Probable space group: I M M A
;
_chemical_formula_sum "Si O2"
_cell_formula_units_Z 56
_cell_length_a 16.949434
_cell_length_b 8.911511
_cell_length_c 18.317733
_cell_angle_alpha 90.000000
_cell_angle_beta 90.000000
_cell_angle_gamma 90.000000
_cell_volume 2766.803218
_symmetry_space_group_name_H-M "I M M A"
_symmetry_group_IT_number 74
_symmetry_cell_setting 'orthorhombic'
loop_
_space_group_symop_operation_xyz
x,y,z
-x,1/2-y,z
x,-y,-z
-x,1/2+y,-z
-x,-y,-z
x,1/2+y,-z
-x,y,z
x,1/2-y,z
1/2+x,1/2+y,1/2+z
1/2-x,-y,1/2+z
1/2+x,1/2-y,1/2-z
1/2-x,y,1/2-z
1/2-x,1/2-y,1/2-z
1/2+x,y,1/2-z
1/2-x,1/2+y,1/2+z
1/2+x,-y,1/2+z
loop_
_atom_site_type_symbol
_atom_site_label
_atom_site_fract_x
_atom_site_fract_y
_atom_site_fract_z
Si Si1 0.800138 0.426213 0.077344
Si Si2 0.852135 0.425481 0.328088
Si Si3 0.500000 0.926195 0.922237
Si Si4 0.909088 0.926596 0.185960
O O1 0.811030 0.250000 0.066319
O O2 0.728621 0.464623 0.131572
O O3 0.879416 0.495947 0.111509
O O4 0.781562 0.500000 0.000000
O O5 0.858828 0.250000 0.309513
O O6 0.923219 0.480635 0.379061
O O7 0.855988 0.515017 0.252646
O O8 0.500000 0.750000 0.933627
O O9 0.500000 0.000000 0.000000
O O10 0.898703 0.750000 0.178076
O O11 0.000000 0.972393 0.198318
#
# Coordination Sequence:
#
# PCOD8300001 Si02
#       4
#    16  16   8  16
#     4  11  24  41  63  91 123 161 203 250 305 362
#     4  10  21  39  62  89 122 160 201 246 301 362
#     4  10  20  34  56  86 123 160 195 240 292 352
#     4  11  24  41  63  91 121 159 206 253 303 360
#
# _framework density 20.239965000000002
#
# number of rings (size 3 to 8) (size 9 to 14) (size 15 to 20)
#    0.000    1.429    1.429    3.429    0.000    9.143 
#    0.000    0.000    0.000    0.000    0.000    0.000 
#    0.000    0.000    0.000    0.000    0.000    0.000 
#
# Total GULP energy -347391.026086 kJ/mol
# GULP energy per Si atom -12406.822360 kJ/mol
# Density = 2.019390 g / cm^3
# Si number density = 20.239965 Si / 1000 Ang^3
#
#
#
# Elastic Constant Matrix: (Units=GPa)
#
#
# Indices 1 2 3 4 5 6 
#
# 1 89.7839 54.5167 56.0028 0.0000 0.0000 0.0000
# 2 54.5167 90.6001 58.2624 0.0000 0.0000 0.0000
# 3 56.0028 58.2624 94.2875 0.0000 0.0000 0.0000
# 4 0.0000 0.0000 0.0000 45.2776 0.0000 0.0000
# 5 0.0000 0.0000 0.0000 0.0000 -18.5281 0.0000
# 6 0.0000 0.0000 0.0000 0.0000 0.0000 24.3258
#
#
#
# Elastic Compliance Matrix: (Units=1/GPa)
#
#
# Indices 1 2 3 4 5 6 
#
# 1 0.020301 -0.007403 -0.007483 0.000000 0.000000 0.000000
# 2 -0.007403 0.021015 -0.008589 0.000000 0.000000 0.000000
# 3 -0.007483 -0.008589 0.020358 0.000000 0.000000 0.000000
# 4 0.000000 0.000000 0.000000 0.022086 0.000000 0.000000
# 5 0.000000 0.000000 0.000000 0.000000 -0.053972 0.000000
# 6 0.000000 0.000000 0.000000 0.000000 0.000000 0.041109
#
#
# Mechanical properties :
#
#
# Convention : Reuss Voigt Hill
#
# Bulk Modulus (GPa) = 67.91807 68.02618 67.97212
# Shear Modulus (GPa) = 40.73171 17.27436 29.00303
#
# Velocity S-wave (km/s) = 4.49089 2.92460 3.78955
# Velocity P-wave (km/s) = 7.77946 6.71470 7.26661
#
# Compressibility (1/GPa) = 0.01472362
#
# Stress axis : x y z
#
# Youngs Moduli (GPa) = 49.25923 47.58402 49.12172
#
# Poissons Ratio (x) = 0.35228 0.36758
# Poissons Ratio (y) = 0.36469 0.42189
# Poissons Ratio (z) = 0.36861 0.40868
#
# Static dielectric constant tensor:
#      x y z
#    x 3.921750 0.000000 0.000000 
#    y 0.000000 3.594820 0.000000 
#    z 0.000000 0.000000 3.550290 
# 
# 
# High freq. dielectric constant tensor:
#      x y z
#    x 1.801220 0.000000 0.000000 
#    y 0.000000 1.789810 0.000000 
#    z 0.000000 0.000000 1.800360 
# 
# From -- ./inp_files/38830.got.cif
#   From: 2010.03.12/outbox.cif.g09.slc.cpg/sg74_20_cif.got.tgz:38830.got - 2010.04.16 15:46:19.
