data_PCOD8300222
_publ_section_title
;
Structure prediction by ZEFSAII (Michael W. Deem and Ramdas Pophale) SiO2 
 PCOD8300222
Probable space group: I M M A
;
_chemical_formula_sum "Si O2"
_cell_formula_units_Z 96
_cell_length_a 22.217455
_cell_length_b 27.816022
_cell_length_c 7.620547
_cell_angle_alpha 90.000000
_cell_angle_beta 90.000000
_cell_angle_gamma 90.000000
_cell_volume 4709.507321
_symmetry_space_group_name_H-M "I M M A"
_symmetry_group_IT_number 74
_symmetry_cell_setting 'orthorhombic'
loop_
_space_group_symop_operation_xyz
x,y,z
-x,1/2-y,z
x,-y,-z
-x,1/2+y,-z
-x,-y,-z
x,1/2+y,-z
-x,y,z
x,1/2-y,z
1/2+x,1/2+y,1/2+z
1/2-x,-y,1/2+z
1/2+x,1/2-y,1/2-z
1/2-x,y,1/2-z
1/2-x,1/2-y,1/2-z
1/2+x,y,1/2-z
1/2-x,1/2+y,1/2+z
1/2+x,-y,1/2+z
loop_
_atom_site_type_symbol
_atom_site_label
_atom_site_fract_x
_atom_site_fract_y
_atom_site_fract_z
Si Si1 0.568671 0.354228 0.833041
Si Si2 0.430973 0.448228 0.027208
Si Si3 0.377606 0.305253 0.136749
Si Si4 0.748214 0.305084 0.957786
Si Si5 0.631925 0.146112 0.490526
Si Si6 0.068913 0.552435 0.934984
O O1 0.500000 0.360513 0.773976
O O2 0.605613 0.331049 0.670050
O O3 0.596312 0.405124 0.908180
O O4 0.571921 0.316040 0.991432
O O5 0.500000 0.453006 0.967778
O O6 0.424914 0.437187 0.230674
O O7 0.398430 0.500000 0.000000
O O8 0.376974 0.250000 0.188669
O O9 0.397170 0.333882 0.311790
O O10 0.314000 0.320857 0.048236
O O11 0.764207 0.250000 0.010466
O O12 0.750000 0.310603 0.750000
O O13 0.797722 0.342023 0.031553
O O14 0.614903 0.090154 0.521546
O O15 0.000000 0.561351 0.997422
O O16 0.089602 0.500000 0.000000
#
# Coordination Sequence:
#
# PCOD8300222 Si02
#       6
#    16  16  16  16  16  16
#     4  11  23  38  58  89 127 164 203 253 312 376
#     4   9  17  33  56  82 117 159 202 248 296 357
#     4  11  24  42  63  89 122 164 211 260 312 374
#     4  10  21  41  67  90 114 155 212 265 313 370
#     4  12  22  37  65  92 121 157 210 262 312 359
#     4  10  20  35  58  91 127 163 206 252 303 372
#
# _framework density 20.384298000000001
#
# number of rings (size 3 to 8) (size 9 to 14) (size 15 to 20)
#    0.000    1.500    3.333    2.500    0.000    5.667 
#    0.000    0.000    0.000    7.500    0.000    0.000 
#    0.000    0.000    0.000    0.000    0.000    0.000 
#
# Total GULP energy -594835.600790 kJ/mol
# GULP energy per Si atom -12392.408350 kJ/mol
# Density = 2.033790 g / cm^3
# Si number density = 20.384298 Si / 1000 Ang^3
#
#
#
# Elastic Constant Matrix: (Units=GPa)
#
#
# Indices 1 2 3 4 5 6 
#
# 1 46.5691 32.3267 16.6045 0.0000 0.0000 0.0000
# 2 32.3267 89.7570 28.8832 0.0000 0.0000 0.0000
# 3 16.6045 28.8832 134.0341 0.0000 0.0000 0.0000
# 4 0.0000 0.0000 0.0000 33.1997 0.0000 0.0000
# 5 0.0000 0.0000 0.0000 0.0000 27.0220 0.0000
# 6 0.0000 0.0000 0.0000 0.0000 0.0000 29.2759
#
#
#
# Elastic Compliance Matrix: (Units=1/GPa)
#
#
# Indices 1 2 3 4 5 6 
#
# 1 0.028887 -0.009942 -0.001436 0.000000 0.000000 0.000000
# 2 -0.009942 0.015393 -0.002085 0.000000 0.000000 0.000000
# 3 -0.001436 -0.002085 0.008088 0.000000 0.000000 0.000000
# 4 0.000000 0.000000 0.000000 0.030121 0.000000 0.000000
# 5 0.000000 0.000000 0.000000 0.000000 0.037007 0.000000
# 6 0.000000 0.000000 0.000000 0.000000 0.000000 0.034158
#
#
# Mechanical properties :
#
#
# Convention : Reuss Voigt Hill
#
# Bulk Modulus (GPa) = 39.30650 47.33211 43.31930
# Shear Modulus (GPa) = 26.44664 30.73591 28.59128
#
# Velocity S-wave (km/s) = 3.60586 3.88728 3.74921
# Velocity P-wave (km/s) = 6.05482 6.58925 6.32768
#
# Compressibility (1/GPa) = 0.02544108
#
# Stress axis : x y z
#
# Youngs Moduli (GPa) = 34.61804 64.96535 123.63846
#
# Poissons Ratio (x) = 0.64586 0.17757
# Poissons Ratio (y) = 0.34416 0.25784
# Poissons Ratio (z) = 0.04972 0.13548
#
# Static dielectric constant tensor:
#      x y z
#    x 3.367580 0.000000 0.000000 
#    y 0.000000 3.786030 0.000000 
#    z 0.000000 0.000000 3.948410 
# 
# 
# High freq. dielectric constant tensor:
#      x y z
#    x 1.750750 0.000000 0.000000 
#    y 0.000000 1.791720 0.000000 
#    z 0.000000 0.000000 1.824920 
# 
# From -- ./inp_files/12678.got.cif
#   From: 2010.03.12/outbox.cif.g09.slc.cpg/sg74_7_cif.got.tgz:12678.got - 2010.04.16 15:46:19.
