data_PCOD8300208
_publ_section_title
;
Structure prediction by ZEFSAII (Michael W. Deem and Ramdas Pophale) SiO2 
 PCOD8300208
Probable space group: I M M A
;
_chemical_formula_sum "Si O2"
_cell_formula_units_Z 88
_cell_length_a 26.438854
_cell_length_b 9.085943
_cell_length_c 19.182102
_cell_angle_alpha 90.000000
_cell_angle_beta 90.000000
_cell_angle_gamma 90.000000
_cell_volume 4607.961380
_symmetry_space_group_name_H-M "I M M A"
_symmetry_group_IT_number 74
_symmetry_cell_setting 'orthorhombic'
loop_
_space_group_symop_operation_xyz
x,y,z
-x,1/2-y,z
x,-y,-z
-x,1/2+y,-z
-x,-y,-z
x,1/2+y,-z
-x,y,z
x,1/2-y,z
1/2+x,1/2+y,1/2+z
1/2-x,-y,1/2+z
1/2+x,1/2-y,1/2-z
1/2-x,y,1/2-z
1/2-x,1/2-y,1/2-z
1/2+x,y,1/2-z
1/2-x,1/2+y,1/2+z
1/2+x,-y,1/2+z
loop_
_atom_site_type_symbol
_atom_site_label
_atom_site_fract_x
_atom_site_fract_y
_atom_site_fract_z
Si Si1 0.693365 0.421280 0.427156
Si Si2 0.500000 0.074666 0.575147
Si Si3 0.909584 0.420273 0.151752
Si Si4 0.610890 0.922244 0.811258
Si Si5 0.724819 0.425199 0.180260
Si Si6 0.440228 0.585745 0.066505
O O1 0.688227 0.500000 0.500000
O O2 0.698089 0.250000 0.442278
O O3 0.644680 0.456386 0.380612
O O4 0.742999 0.479377 0.386387
O O5 0.500000 0.250000 0.566416
O O6 0.500000 0.000000 0.500000
O O7 0.450532 0.025664 0.616995
O O8 0.924587 0.250000 0.139195
O O9 0.906879 0.456980 0.233236
O O10 0.607742 0.750000 0.826968
O O11 0.667499 0.982158 0.825132
O O12 0.573233 0.005314 0.862165
O O13 0.725843 0.250000 0.185268
O O14 0.750000 0.491241 0.250000
O O15 0.500000 0.591239 0.060467
O O16 0.417430 0.750000 0.066443
O O17 0.417066 0.500000 0.000000
#
# Coordination Sequence:
#
# PCOD8300208 Si02
#       6
#    16   8  16  16  16  16
#     4  10  20  35  58  85 115 150 191 233 279 335
#     4  12  26  42  60  82 115 154 193 242 294 342
#     4  10  21  38  60  87 116 152 195 235 281 342
#     4  10  20  35  61  90 116 151 193 236 282 338
#     4   9  16  33  58  83 111 148 191 230 272 329
#     4  10  22  40  60  83 115 152 191 237 289 342
#
# _framework density 19.097383000000001
#
# number of rings (size 3 to 8) (size 9 to 14) (size 15 to 20)
#    0.000    2.000    1.818    1.909    1.273    4.727 
#    0.000    2.727    0.000    1.091    0.000    0.000 
#    0.000    0.000    0.000    0.000    0.000    0.000 
#
# Total GULP energy -545673.244296 kJ/mol
# GULP energy per Si atom -12401.664643 kJ/mol
# Density = 1.905392 g / cm^3
# Si number density = 19.097383 Si / 1000 Ang^3
#
#
#
# Elastic Constant Matrix: (Units=GPa)
#
#
# Indices 1 2 3 4 5 6 
#
# 1 64.1546 43.5823 33.2956 0.0000 0.0000 0.0000
# 2 43.5823 87.0171 67.2657 0.0000 0.0000 0.0000
# 3 33.2956 67.2657 147.3591 0.0000 0.0000 0.0000
# 4 0.0000 0.0000 0.0000 26.7118 0.0000 0.0000
# 5 0.0000 0.0000 0.0000 0.0000 49.1381 0.0000
# 6 0.0000 0.0000 0.0000 0.0000 0.0000 16.4402
#
#
#
# Elastic Compliance Matrix: (Units=1/GPa)
#
#
# Indices 1 2 3 4 5 6 
#
# 1 0.023627 -0.011909 0.000098 0.000000 0.000000 0.000000
# 2 -0.011909 0.023761 -0.008155 0.000000 0.000000 0.000000
# 3 0.000098 -0.008155 0.010487 0.000000 0.000000 0.000000
# 4 0.000000 0.000000 0.000000 0.037437 0.000000 0.000000
# 5 0.000000 0.000000 0.000000 0.000000 0.020351 0.000000
# 6 0.000000 0.000000 0.000000 0.000000 0.000000 0.060827
#
#
# Mechanical properties :
#
#
# Convention : Reuss Voigt Hill
#
# Bulk Modulus (GPa) = 55.73790 65.20199 60.46995
# Shear Modulus (GPa) = 22.48179 28.75049 25.61614
#
# Velocity S-wave (km/s) = 3.43478 3.88424 3.66641
# Velocity P-wave (km/s) = 6.70670 7.37105 7.04671
#
# Compressibility (1/GPa) = 0.01794111
#
# Stress axis : x y z
#
# Youngs Moduli (GPa) = 42.32484 42.08609 95.35790
#
# Poissons Ratio (x) = 0.50120 -0.00932
# Poissons Ratio (y) = 0.50404 0.77768
# Poissons Ratio (z) = -0.00413 0.34323
#
# Static dielectric constant tensor:
#      x y z
#    x 3.584840 0.000000 0.000000 
#    y 0.000000 3.341410 0.000000 
#    z 0.000000 0.000000 3.577810 
# 
# 
# High freq. dielectric constant tensor:
#      x y z
#    x 1.747560 0.000000 0.000000 
#    y 0.000000 1.717770 0.000000 
#    z 0.000000 0.000000 1.757350 
# 
# From -- ./inp_files/54511.got.cif
#   From: 2010.03.12/outbox.cif.g09.slc.cpg/sg74_28_cif.got.tgz:54511.got - 2010.04.16 15:46:19.
