data_PCOD8300180
_publ_section_title
;
Structure prediction by ZEFSAII (Michael W. Deem and Ramdas Pophale) SiO2 
 PCOD8300180
Probable space group: I M M A
;
_chemical_formula_sum "Si O2"
_cell_formula_units_Z 88
_cell_length_a 8.803387
_cell_length_b 24.103709
_cell_length_c 20.299602
_cell_angle_alpha 90.000000
_cell_angle_beta 90.000000
_cell_angle_gamma 90.000000
_cell_volume 4307.459399
_symmetry_space_group_name_H-M "I M M A"
_symmetry_group_IT_number 74
_symmetry_cell_setting 'orthorhombic'
loop_
_space_group_symop_operation_xyz
x,y,z
-x,1/2-y,z
x,-y,-z
-x,1/2+y,-z
-x,-y,-z
x,1/2+y,-z
-x,y,z
x,1/2-y,z
1/2+x,1/2+y,1/2+z
1/2-x,-y,1/2+z
1/2+x,1/2-y,1/2-z
1/2-x,y,1/2-z
1/2-x,1/2-y,1/2-z
1/2+x,y,1/2-z
1/2-x,1/2+y,1/2+z
1/2+x,-y,1/2+z
loop_
_atom_site_type_symbol
_atom_site_label
_atom_site_fract_x
_atom_site_fract_y
_atom_site_fract_z
Si Si1 0.680639 0.336243 0.573365
Si Si2 0.816701 0.250000 0.675050
Si Si3 0.331663 0.143548 0.314326
Si Si4 0.670285 0.811663 0.938937
Si Si5 0.334080 0.986617 0.688796
Si Si6 0.680994 0.963282 0.440686
O O1 0.500000 0.331172 0.582972
O O2 0.760171 0.304806 0.634994
O O3 0.728852 0.309050 0.504581
O O4 0.736683 0.399895 0.565617
O O5 0.750000 0.250000 0.750000
O O6 0.000000 0.250000 0.678159
O O7 0.500000 0.169899 0.320415
O O8 0.250000 0.170202 0.250000
O O9 0.241866 0.150820 0.382093
O O10 0.344766 0.078636 0.303097
O O11 0.500000 0.833150 0.955073
O O12 0.664289 0.750000 0.909584
O O13 0.500000 0.013792 0.687916
O O14 0.250000 0.014283 0.750000
O O15 0.251834 0.004475 0.622114
O O16 0.500000 0.964254 0.446652
O O17 0.750820 0.000000 0.500000
#
# Coordination Sequence:
#
# PCOD8300180 Si02
#       6
#    16   8  16  16  16  16
#     4  11  22  39  65  93 122 159 203 251 309 374
#     4  12  26  46  68  92 125 164 211 268 324 380
#     4  10  20  35  57  83 114 154 197 242 290 347
#     4  11  23  38  57  81 114 154 194 243 295 347
#     4   9  18  34  55  80 112 148 186 231 287 347
#     4   9  18  34  58  89 122 155 196 246 300 363
#
# _framework density 20.429675
#
# number of rings (size 3 to 8) (size 9 to 14) (size 15 to 20)
#    0.000    1.818    0.909    3.545    0.000    5.818 
#    0.000    3.636    0.000    3.818    0.000    0.000 
#    0.000    0.000    0.000    0.000    0.000    0.000 
#
# Total GULP energy -545253.722747 kJ/mol
# GULP energy per Si atom -12392.130062 kJ/mol
# Density = 2.038318 g / cm^3
# Si number density = 20.429675 Si / 1000 Ang^3
#
#
#
# Elastic Constant Matrix: (Units=GPa)
#
#
# Indices 1 2 3 4 5 6 
#
# 1 105.1253 30.0916 53.1200 0.0000 0.0000 -0.0001
# 2 30.0916 81.6546 47.1014 0.0000 0.0000 0.0001
# 3 53.1200 47.1014 186.6725 0.0000 0.0000 -0.0004
# 4 0.0000 0.0000 0.0000 34.4620 0.0000 -0.0001
# 5 0.0000 0.0000 0.0000 0.0000 37.7206 0.0001
# 6 -0.0001 0.0001 -0.0004 -0.0001 0.0001 -317.9716
#
#
#
# Elastic Compliance Matrix: (Units=1/GPa)
#
#
# Indices 1 2 3 4 5 6 
#
# 1 0.011626 -0.002781 -0.002607 0.000000 0.000000 0.000000
# 2 -0.002781 0.014998 -0.002993 0.000000 0.000000 0.000000
# 3 -0.002607 -0.002993 0.006854 0.000000 0.000000 0.000000
# 4 0.000000 0.000000 0.000000 0.029018 0.000000 0.000000
# 5 0.000000 0.000000 0.000000 0.000000 0.026511 0.000000
# 6 0.000000 0.000000 0.000000 0.000000 0.000000 -0.003145
#
#
# Mechanical properties :
#
#
# Convention : Reuss Voigt Hill
#
# Bulk Modulus (GPa) = 59.82002 70.45315 65.13658
# Shear Modulus (GPa) = 46.21352 -32.94851 6.63251
#
# Velocity S-wave (km/s) = 4.76129 -4.02030 1.80376
# Velocity P-wave (km/s) = 7.71823 3.60696 6.02417
#
# Compressibility (1/GPa) = 0.01671681
#
# Stress axis : x y z
#
# Youngs Moduli (GPa) = 86.01770 66.67579 145.90224
#
# Poissons Ratio (x) = 0.18541 0.38030
# Poissons Ratio (y) = 0.23919 0.43669
# Poissons Ratio (z) = 0.22421 0.19956
#
# Static dielectric constant tensor:
#      x y z
#    x 3.839210 0.000000 0.000000 
#    y 0.000000 3.637900 0.000000 
#    z 0.000000 0.000000 3.860720 
# 
# 
# High freq. dielectric constant tensor:
#      x y z
#    x 1.787080 0.000000 0.000000 
#    y 0.000000 1.789090 0.000000 
#    z 0.000000 0.000000 1.812060 
# 
# From -- ./inp_files/48692.got.cif
#   From: 2010.03.12/outbox.cif.g09.slc.cpg/sg74_25_cif.got.tgz:48692.got - 2010.04.16 15:46:19.
