data_PCOD8300073
_publ_section_title
;
Structure prediction by ZEFSAII (Michael W. Deem and Ramdas Pophale) SiO2 
 PCOD8300073
Probable space group: I M M A
;
_chemical_formula_sum "Si O2"
_cell_formula_units_Z 104
_cell_length_a 9.057149
_cell_length_b 20.989931
_cell_length_c 28.211583
_cell_angle_alpha 90.000000
_cell_angle_beta 90.000000
_cell_angle_gamma 90.000000
_cell_volume 5363.273930
_symmetry_space_group_name_H-M "I M M A"
_symmetry_group_IT_number 74
_symmetry_cell_setting 'orthorhombic'
loop_
_space_group_symop_operation_xyz
x,y,z
-x,1/2-y,z
x,-y,-z
-x,1/2+y,-z
-x,-y,-z
x,1/2+y,-z
-x,y,z
x,1/2-y,z
1/2+x,1/2+y,1/2+z
1/2-x,-y,1/2+z
1/2+x,1/2-y,1/2-z
1/2-x,y,1/2-z
1/2-x,1/2-y,1/2-z
1/2+x,y,1/2-z
1/2-x,1/2+y,1/2+z
1/2+x,-y,1/2+z
loop_
_atom_site_type_symbol
_atom_site_label
_atom_site_fract_x
_atom_site_fract_y
_atom_site_fract_z
Si Si1 0.829111 0.820628 0.641424
Si Si2 0.826614 0.250000 0.698447
Si Si3 0.671577 0.605589 0.559945
Si Si4 0.673311 0.487859 0.619769
Si Si5 0.171507 0.937221 0.701636
Si Si6 0.673966 0.353321 0.879414
Si Si7 0.667591 0.179870 0.530032
O O1 0.771927 0.750000 0.653734
O O2 0.748027 0.846991 0.595940
O O3 0.798526 0.864013 0.687414
O O4 0.000000 0.821015 0.628217
O O5 0.750000 0.250000 0.750000
O O6 0.782874 0.312943 0.667812
O O7 0.000000 0.250000 0.707874
O O8 0.500000 0.619536 0.565021
O O9 0.706324 0.531441 0.572845
O O10 0.721950 0.625111 0.506874
O O11 0.500000 0.486720 0.630666
O O12 0.759738 0.516642 0.663388
O O13 0.732647 0.417276 0.614428
O O14 0.250000 0.953110 0.750000
O O15 0.000000 0.953050 0.706329
O O16 0.500000 0.367385 0.879573
O O17 0.720501 0.314757 0.925981
O O18 0.500000 0.163991 0.547119
O O19 0.670657 0.250000 0.505646
#
# Coordination Sequence:
#
# PCOD8300073 Si02
#       7
#    16   8  16  16  16  16  16
#     4   9  18  32  50  75 109 147 189 236 284 335
#     4  10  24  44  66  90 116 146 184 234 289 348
#     4   9  19  35  55  82 115 151 194 238 280 331
#     4  10  21  38  59  83 113 150 190 236 288 342
#     4  10  20  35  54  77 107 144 187 235 286 340
#     4  11  23  41  61  86 118 148 183 230 285 344
#     4  10  20  35  58  86 116 153 194 235 280 334
#
# _framework density 19.391141000000001
#
# number of rings (size 3 to 8) (size 9 to 14) (size 15 to 20)
#    0.000    2.154    0.769    1.846    0.000    5.538 
#    0.000    4.615    0.000    0.000    0.000    0.000 
#    0.000    0.000    0.000    0.000    0.000    0.000 
#
# Total GULP energy -644533.168272 kJ/mol
# GULP energy per Si atom -12394.868621 kJ/mol
# Density = 1.934701 g / cm^3
# Si number density = 19.391141 Si / 1000 Ang^3
#
#
#
# Elastic Constant Matrix: (Units=GPa)
#
#
# Indices 1 2 3 4 5 6 
#
# 1 51.4868 17.5194 30.2539 0.0000 0.0000 0.0000
# 2 17.5194 98.9751 30.7316 0.0000 0.0000 0.0000
# 3 30.2539 30.7316 106.1247 0.0000 0.0000 0.0000
# 4 0.0000 0.0000 0.0000 17.7044 0.0000 0.0000
# 5 0.0000 0.0000 0.0000 0.0000 33.8815 0.0000
# 6 0.0000 0.0000 0.0000 0.0000 0.0000 30.5184
#
#
#
# Elastic Compliance Matrix: (Units=1/GPa)
#
#
# Indices 1 2 3 4 5 6 
#
# 1 0.023804 -0.002315 -0.006116 0.000000 0.000000 0.000000
# 2 -0.002315 0.011327 -0.002620 0.000000 0.000000 0.000000
# 3 -0.006116 -0.002620 0.011925 0.000000 0.000000 0.000000
# 4 0.000000 0.000000 0.000000 0.056483 0.000000 0.000000
# 5 0.000000 0.000000 0.000000 0.000000 0.029515 0.000000
# 6 0.000000 0.000000 0.000000 0.000000 0.000000 0.032767
#
#
# Mechanical properties :
#
#
# Convention : Reuss Voigt Hill
#
# Bulk Modulus (GPa) = 40.07259 45.95516 43.01388
# Shear Modulus (GPa) = 25.47908 28.29299 26.88603
#
# Velocity S-wave (km/s) = 3.62878 3.82392 3.72763
# Velocity P-wave (km/s) = 6.18609 6.57624 6.38415
#
# Compressibility (1/GPa) = 0.02495471
#
# Stress axis : x y z
#
# Youngs Moduli (GPa) = 42.01046 88.28617 83.85697
#
# Poissons Ratio (x) = 0.20434 0.51284
# Poissons Ratio (y) = 0.09723 0.21972
# Poissons Ratio (z) = 0.25692 0.23133
#
# Static dielectric constant tensor:
#      x y z
#    x 3.874370 0.000000 0.000000 
#    y 0.000000 4.410340 0.000000 
#    z 0.000000 0.000000 3.463840 
# 
# 
# High freq. dielectric constant tensor:
#      x y z
#    x 1.755980 0.000000 0.000000 
#    y 0.000000 1.765680 0.000000 
#    z 0.000000 0.000000 1.746490 
# 
# From -- ./inp_files/64532.got.cif
#   From: 2010.03.12/outbox.cif.g09.slc.cpg/sg74_33_cif.got.tgz:64532.got - 2010.04.16 15:46:19.
