data_PCOD8300110
_publ_section_title
;
Structure prediction by ZEFSAII (Michael W. Deem and Ramdas Pophale) SiO2 
 PCOD8300110
Probable space group: I M M A
;
_chemical_formula_sum "Si O2"
_cell_formula_units_Z 96
_cell_length_a 23.713182
_cell_length_b 9.069816
_cell_length_c 24.027174
_cell_angle_alpha 90.000000
_cell_angle_beta 90.000000
_cell_angle_gamma 90.000000
_cell_volume 5167.625167
_symmetry_space_group_name_H-M "I M M A"
_symmetry_group_IT_number 74
_symmetry_cell_setting 'orthorhombic'
loop_
_space_group_symop_operation_xyz
x,y,z
-x,1/2-y,z
x,-y,-z
-x,1/2+y,-z
-x,-y,-z
x,1/2+y,-z
-x,y,z
x,1/2-y,z
1/2+x,1/2+y,1/2+z
1/2-x,-y,1/2+z
1/2+x,1/2-y,1/2-z
1/2-x,y,1/2-z
1/2-x,1/2-y,1/2-z
1/2+x,y,1/2-z
1/2-x,1/2+y,1/2+z
1/2+x,-y,1/2+z
loop_
_atom_site_type_symbol
_atom_site_label
_atom_site_fract_x
_atom_site_fract_y
_atom_site_fract_z
Si Si1 0.860835 0.076789 0.161288
Si Si2 0.269614 0.077019 0.160095
Si Si3 0.564317 0.419271 0.138156
Si Si4 0.935298 0.077251 0.056764
Si Si5 0.361343 0.075330 0.773287
Si Si6 0.841347 0.582474 0.556537
O O1 0.870134 0.250000 0.171671
O O2 0.795414 0.036384 0.153862
O O3 0.895722 0.023356 0.107351
O O4 0.882808 0.986111 0.214165
O O5 0.279652 0.250000 0.170546
O O6 0.298652 0.022523 0.103290
O O7 0.300028 0.993299 0.211316
O O8 0.500000 0.464411 0.129330
O O9 0.571274 0.250000 0.158688
O O10 0.591332 0.527818 0.182892
O O11 0.594948 0.439314 0.078705
O O12 0.928354 0.250000 0.047356
O O13 0.000000 0.035050 0.070814
O O14 0.915110 0.000000 0.000000
O O15 0.356157 0.250000 0.771374
O O16 0.830866 0.500000 0.500000
O O17 0.827187 0.750000 0.543625
#
# Coordination Sequence:
#
# PCOD8300110 Si02
#       6
#    16  16  16  16  16  16
#     4  10  20  35  56  78 101 138 182 214 249 309
#     4   9  19  36  54  72 101 141 180 215 254 307
#     4   9  19  37  57  74  99 140 183 216 251 304
#     4   9  19  36  56  78 105 136 170 210 257 307
#     4  11  22  34  51  79 111 136 165 215 271 312
#     4   9  18  32  50  74 102 133 170 213 260 306
#
# _framework density 18.577199
#
# number of rings (size 3 to 8) (size 9 to 14) (size 15 to 20)
#    0.000    2.500    0.000    3.000    0.000    8.000 
#    0.000    1.667    0.000    0.000    0.000    0.000 
#    0.000    0.000    0.000    0.000    0.000    0.000 
#
# Total GULP energy -595219.908511 kJ/mol
# GULP energy per Si atom -12400.414761 kJ/mol
# Density = 1.853492 g / cm^3
# Si number density = 18.577199 Si / 1000 Ang^3
#
#
#
# Elastic Constant Matrix: (Units=GPa)
#
#
# Indices 1 2 3 4 5 6 
#
# 1 53.0476 10.4131 21.3948 0.0000 0.0000 0.0000
# 2 10.4131 58.4410 41.1477 0.0000 0.0000 0.0000
# 3 21.3948 41.1477 123.1266 0.0000 0.0000 0.0000
# 4 0.0000 0.0000 0.0000 35.9474 0.0000 0.0000
# 5 0.0000 0.0000 0.0000 0.0000 24.2581 0.0000
# 6 0.0000 0.0000 0.0000 0.0000 0.0000 16.5968
#
#
#
# Elastic Compliance Matrix: (Units=1/GPa)
#
#
# Indices 1 2 3 4 5 6 
#
# 1 0.020370 -0.001487 -0.003042 0.000000 0.000000 0.000000
# 2 -0.001487 0.022485 -0.007256 0.000000 0.000000 0.000000
# 3 -0.003042 -0.007256 0.011075 0.000000 0.000000 0.000000
# 4 0.000000 0.000000 0.000000 0.027818 0.000000 0.000000
# 5 0.000000 0.000000 0.000000 0.000000 0.041223 0.000000
# 6 0.000000 0.000000 0.000000 0.000000 0.000000 0.060253
#
#
# Mechanical properties :
#
#
# Convention : Reuss Voigt Hill
#
# Bulk Modulus (GPa) = 32.93925 42.28071 37.60998
# Shear Modulus (GPa) = 23.05041 26.13775 24.59408
#
# Velocity S-wave (km/s) = 3.52631 3.75504 3.64247
# Velocity P-wave (km/s) = 5.86083 6.45053 6.16274
#
# Compressibility (1/GPa) = 0.03035892
#
# Stress axis : x y z
#
# Youngs Moduli (GPa) = 49.09171 44.47401 90.29166
#
# Poissons Ratio (x) = 0.06615 0.27471
# Poissons Ratio (y) = 0.07302 0.65514
# Poissons Ratio (z) = 0.14936 0.32270
#
# Static dielectric constant tensor:
#      x y z
#    x 3.521180 0.000000 0.000000 
#    y 0.000000 3.231140 0.000000 
#    z 0.000000 0.000000 3.456530 
# 
# 
# High freq. dielectric constant tensor:
#      x y z
#    x 1.721240 0.000000 0.000000 
#    y 0.000000 1.705970 0.000000 
#    z 0.000000 0.000000 1.723290 
# 
# From -- ./inp_files/49120.got.cif
#   From: 2010.03.12/outbox.cif.g09.slc.cpg/sg74_25_cif.got.tgz:49120.got - 2010.04.16 15:46:19.
