data_PCOD8300047
_publ_section_title
;
Structure prediction by ZEFSAII (Michael W. Deem and Ramdas Pophale) SiO2 
 PCOD8300047
Probable space group: I M M A
;
_chemical_formula_sum "Si O2"
_cell_formula_units_Z 88
_cell_length_a 8.817646
_cell_length_b 22.243281
_cell_length_c 24.749097
_cell_angle_alpha 90.000000
_cell_angle_beta 90.000000
_cell_angle_gamma 90.000000
_cell_volume 4854.123991
_symmetry_space_group_name_H-M "I M M A"
_symmetry_group_IT_number 74
_symmetry_cell_setting 'orthorhombic'
loop_
_space_group_symop_operation_xyz
x,y,z
-x,1/2-y,z
x,-y,-z
-x,1/2+y,-z
-x,-y,-z
x,1/2+y,-z
-x,y,z
x,1/2-y,z
1/2+x,1/2+y,1/2+z
1/2-x,-y,1/2+z
1/2+x,1/2-y,1/2-z
1/2-x,y,1/2-z
1/2-x,1/2-y,1/2-z
1/2+x,y,1/2-z
1/2-x,1/2+y,1/2+z
1/2+x,-y,1/2+z
loop_
_atom_site_type_symbol
_atom_site_label
_atom_site_fract_x
_atom_site_fract_y
_atom_site_fract_z
Si Si1 0.179288 0.818099 0.402532
Si Si2 0.180344 0.750000 0.690910
Si Si3 0.820926 0.962249 0.693493
Si Si4 0.324545 0.181397 0.488451
Si Si5 0.178920 0.639416 0.872074
Si Si6 0.822138 0.600561 0.305762
O O1 0.239781 0.750000 0.394585
O O2 0.234328 0.844245 0.459993
O O3 0.244952 0.859278 0.354399
O O4 0.000000 0.820082 0.401927
O O5 0.250000 0.750000 0.750000
O O6 0.234487 0.691035 0.659940
O O7 0.000000 0.750000 0.694924
O O8 0.750000 0.940600 0.750000
O O9 0.740758 0.925036 0.646241
O O10 0.000000 0.950366 0.694316
O O11 0.780111 0.031518 0.682498
O O12 0.500000 0.176539 0.502739
O O13 0.277045 0.250000 0.476417
O O14 0.283096 0.143106 0.435613
O O15 0.000000 0.646249 0.861468
O O16 0.750000 0.623167 0.250000
O O17 0.000000 0.609403 0.300231
#
# Coordination Sequence:
#
# PCOD8300047 Si02
#       6
#    16   8  16  16  16  16
#     4   9  18  33  54  80 107 135 170 214 260 310
#     4  12  24  36  52  76 106 138 175 218 265 312
#     4  10  20  35  53  74 101 138 178 215 260 315
#     4   9  18  34  53  74 102 136 171 212 260 307
#     4  11  21  36  54  75 104 137 175 221 264 305
#     4   9  19  35  54  77 107 138 171 213 260 311
#
# _framework density 18.128914000000002
#
# number of rings (size 3 to 8) (size 9 to 14) (size 15 to 20)
#    0.000    2.182    0.909    2.455    0.000    3.273 
#    0.000    0.909    0.000    5.455    0.000    0.000 
#    0.000    0.000    0.000    0.000    0.000    0.000 
#
# Total GULP energy -545692.278044 kJ/mol
# GULP energy per Si atom -12402.097228 kJ/mol
# Density = 1.808765 g / cm^3
# Si number density = 18.128914 Si / 1000 Ang^3
#
#
#
# Elastic Constant Matrix: (Units=GPa)
#
#
# Indices 1 2 3 4 5 6 
#
# 1 65.6492 35.2211 53.0337 0.0000 0.0000 0.0000
# 2 35.2211 81.4049 79.3776 0.0000 0.0000 0.0000
# 3 53.0337 79.3776 168.2478 0.0000 0.0000 0.0000
# 4 0.0000 0.0000 0.0000 30.0253 0.0000 0.0000
# 5 0.0000 0.0000 0.0000 0.0000 33.8267 0.0000
# 6 0.0000 0.0000 0.0000 0.0000 0.0000 22.0624
#
#
#
# Elastic Compliance Matrix: (Units=1/GPa)
#
#
# Indices 1 2 3 4 5 6 
#
# 1 0.021475 -0.004984 -0.004418 0.000000 0.000000 0.000000
# 2 -0.004984 0.023907 -0.009708 0.000000 0.000000 0.000000
# 3 -0.004418 -0.009708 0.011916 0.000000 0.000000 0.000000
# 4 0.000000 0.000000 0.000000 0.033305 0.000000 0.000000
# 5 0.000000 0.000000 0.000000 0.000000 0.029562 0.000000
# 6 0.000000 0.000000 0.000000 0.000000 0.000000 0.045326
#
#
# Mechanical properties :
#
#
# Convention : Reuss Voigt Hill
#
# Bulk Modulus (GPa) = 52.41357 72.28517 62.34937
# Shear Modulus (GPa) = 23.80144 27.02752 25.41448
#
# Velocity S-wave (km/s) = 3.62733 3.86534 3.74822
# Velocity P-wave (km/s) = 6.82039 7.73826 7.29377
#
# Compressibility (1/GPa) = 0.01907903
#
# Stress axis : x y z
#
# Youngs Moduli (GPa) = 46.56527 41.82904 83.91771
#
# Poissons Ratio (x) = 0.20846 0.37075
# Poissons Ratio (y) = 0.23206 0.81468
# Poissons Ratio (z) = 0.20573 0.40608
#
# Static dielectric constant tensor:
#      x y z
#    x 3.326740 0.000000 0.000000 
#    y 0.000000 3.357020 0.000000 
#    z 0.000000 0.000000 3.509360 
# 
# 
# High freq. dielectric constant tensor:
#      x y z
#    x 1.703940 0.000000 0.000000 
#    y 0.000000 1.689450 0.000000 
#    z 0.000000 0.000000 1.709560 
# 
# From -- ./inp_files/48705.got.cif
#   From: 2010.03.12/outbox.cif.g09.slc.cpg/sg74_25_cif.got.tgz:48705.got - 2010.04.16 15:46:19.
