data_PCOD8300098
_publ_section_title
;
Structure prediction by ZEFSAII (Michael W. Deem and Ramdas Pophale) SiO2 
 PCOD8300098
Probable space group: I M M A
;
_chemical_formula_sum "Si O2"
_cell_formula_units_Z 88
_cell_length_a 9.514336
_cell_length_b 23.645388
_cell_length_c 20.000622
_cell_angle_alpha 90.000000
_cell_angle_beta 90.000000
_cell_angle_gamma 90.000000
_cell_volume 4499.543257
_symmetry_space_group_name_H-M "I M M A"
_symmetry_group_IT_number 74
_symmetry_cell_setting 'orthorhombic'
loop_
_space_group_symop_operation_xyz
x,y,z
-x,1/2-y,z
x,-y,-z
-x,1/2+y,-z
-x,-y,-z
x,1/2+y,-z
-x,y,z
x,1/2-y,z
1/2+x,1/2+y,1/2+z
1/2-x,-y,1/2+z
1/2+x,1/2-y,1/2-z
1/2-x,y,1/2-z
1/2-x,1/2-y,1/2-z
1/2+x,y,1/2-z
1/2-x,1/2+y,1/2+z
1/2+x,-y,1/2+z
loop_
_atom_site_type_symbol
_atom_site_label
_atom_site_fract_x
_atom_site_fract_y
_atom_site_fract_z
Si Si1 0.348074 0.486557 0.305081
Si Si2 0.337071 0.346347 0.926810
Si Si3 0.343257 0.645425 0.690380
Si Si4 0.834146 0.961089 0.060085
Si Si5 0.343565 0.186002 0.075515
Si Si6 0.833581 0.750000 0.320801
O O1 0.500000 0.514896 0.295366
O O2 0.250000 0.515436 0.250000
O O3 0.358302 0.420144 0.294304
O O4 0.291376 0.500264 0.377805
O O5 0.500000 0.363251 0.919267
O O6 0.243397 0.402103 0.929848
O O7 0.293026 0.305350 0.865165
O O8 0.309532 0.314814 0.996861
O O9 0.500000 0.672827 0.689135
O O10 0.250000 0.673494 0.750000
O O11 0.270239 0.651628 0.618235
O O12 0.000000 0.949207 0.052141
O O13 0.777211 0.000000 0.000000
O O14 0.500000 0.160985 0.088896
O O15 0.336369 0.250000 0.100668
O O16 0.750000 0.750000 0.250000
O O17 0.000000 0.750000 0.305541
#
# Coordination Sequence:
#
# PCOD8300098 Si02
#       6
#    16  16  16  16  16   8
#     4   9  19  35  54  76 107 144 179 220 272 327
#     4  10  21  39  61  84 114 151 193 241 294 352
#     4  10  20  35  55  80 110 146 186 227 271 323
#     4  10  21  37  57  84 118 151 187 237 293 347
#     4  10  20  36  57  78 105 143 183 227 278 328
#     4  10  22  42  64  88 119 156 199 252 309 362
#
# _framework density 19.557542000000002
#
# number of rings (size 3 to 8) (size 9 to 14) (size 15 to 20)
#    0.000    2.182    0.909    1.636    0.000    6.182 
#    0.000    3.636    0.000    0.000    0.000    0.000 
#    0.000    0.000    0.000    0.000    0.000    0.000 
#
# Total GULP energy -545336.677108 kJ/mol
# GULP energy per Si atom -12394.015389 kJ/mol
# Density = 1.951303 g / cm^3
# Si number density = 19.557542 Si / 1000 Ang^3
#
#
#
# Elastic Constant Matrix: (Units=GPa)
#
#
# Indices 1 2 3 4 5 6 
#
# 1 105.7747 39.3949 79.4154 0.0000 0.0000 0.0000
# 2 39.3949 68.5182 37.7002 0.0000 0.0000 0.0000
# 3 79.4154 37.7002 163.3512 0.0000 0.0000 0.0000
# 4 0.0000 0.0000 0.0000 32.7368 0.0000 0.0000
# 5 0.0000 0.0000 0.0000 0.0000 37.3975 0.0000
# 6 0.0000 0.0000 0.0000 0.0000 0.0000 33.7937
#
#
#
# Elastic Compliance Matrix: (Units=1/GPa)
#
#
# Indices 1 2 3 4 5 6 
#
# 1 0.016737 -0.005895 -0.006777 0.000000 0.000000 0.000000
# 2 -0.005895 0.018794 -0.001472 0.000000 0.000000 0.000000
# 3 -0.006777 -0.001472 0.009756 0.000000 0.000000 0.000000
# 4 0.000000 0.000000 0.000000 0.030547 0.000000 0.000000
# 5 0.000000 0.000000 0.000000 0.000000 0.026740 0.000000
# 6 0.000000 0.000000 0.000000 0.000000 0.000000 0.029591
#
#
# Mechanical properties :
#
#
# Convention : Reuss Voigt Hill
#
# Bulk Modulus (GPa) = 58.81989 72.29612 65.55800
# Shear Modulus (GPa) = 30.09919 32.86117 31.48018
#
# Velocity S-wave (km/s) = 3.92727 4.10351 4.01636
# Velocity P-wave (km/s) = 7.12076 7.71348 7.42304
#
# Compressibility (1/GPa) = 0.01700105
#
# Stress axis : x y z
#
# Youngs Moduli (GPa) = 59.74666 53.20985 102.50109
#
# Poissons Ratio (x) = 0.31365 0.69462
# Poissons Ratio (y) = 0.35218 0.15085
# Poissons Ratio (z) = 0.40488 0.07831
#
# Static dielectric constant tensor:
#      x y z
#    x 3.824810 0.000000 0.000000 
#    y 0.000000 -25.466640 0.000000 
#    z 0.000000 0.000000 3.456690 
# 
# 
# High freq. dielectric constant tensor:
#      x y z
#    x 1.761310 0.000000 0.000000 
#    y 0.000000 1.744020 0.000000 
#    z 0.000000 0.000000 1.773740 
# 
# From -- ./inp_files/48699.got.cif
#   From: 2010.03.12/outbox.cif.g09.slc.cpg/sg74_25_cif.got.tgz:48699.got - 2010.04.16 15:46:19.
