data_PCOD8300655
_publ_section_title
;
Structure prediction by ZEFSAII (Michael W. Deem and Ramdas Pophale) SiO2 
 PCOD8300655
Probable space group: I M M A
;
_chemical_formula_sum "Si O2"
_cell_formula_units_Z 88
_cell_length_a 8.231838
_cell_length_b 31.403964
_cell_length_c 17.346497
_cell_angle_alpha 90.000000
_cell_angle_beta 90.000000
_cell_angle_gamma 90.000000
_cell_volume 4484.283603
_symmetry_space_group_name_H-M "I M M A"
_symmetry_group_IT_number 74
_symmetry_cell_setting 'orthorhombic'
loop_
_space_group_symop_operation_xyz
x,y,z
-x,1/2-y,z
x,-y,-z
-x,1/2+y,-z
-x,-y,-z
x,1/2+y,-z
-x,y,z
x,1/2-y,z
1/2+x,1/2+y,1/2+z
1/2-x,-y,1/2+z
1/2+x,1/2-y,1/2-z
1/2-x,y,1/2-z
1/2-x,1/2-y,1/2-z
1/2+x,y,1/2-z
1/2-x,1/2+y,1/2+z
1/2+x,-y,1/2+z
loop_
_atom_site_type_symbol
_atom_site_label
_atom_site_fract_x
_atom_site_fract_y
_atom_site_fract_z
Si Si1 0.191199 0.645967 0.537754
Si Si2 0.000000 0.298150 0.018092
Si Si3 0.693699 0.083506 0.335545
Si Si4 0.685847 0.510837 0.331514
Si Si5 0.750000 0.144819 0.750000
Si Si6 0.500000 0.298472 0.664602
Si Si7 0.677263 0.591671 0.106409
O O1 0.329529 0.682084 0.549789
O O2 0.205908 0.613437 0.607767
O O3 0.246160 0.623260 0.458243
O O4 0.000000 0.662249 0.533552
O O5 0.000000 0.250000 0.048491
O O6 0.000000 0.299823 0.926560
O O7 0.500000 0.089685 0.345961
O O8 0.750000 0.095828 0.250000
O O9 0.756405 0.035372 0.355106
O O10 0.500000 0.502228 0.320865
O O11 0.750000 0.527279 0.250000
O O12 0.716113 0.548557 0.392558
O O13 0.650523 0.176296 0.697086
O O14 0.659622 0.114449 0.810580
O O15 0.500000 0.250000 0.694961
O O16 0.500000 0.576487 0.080795
#
# Coordination Sequence:
#
# PCOD8300655 Si02
#       7
#    16   8  16  16   8   8  16
#     4  11  24  42  65  95 125 163 212 253 314 379
#     4  11  24  44  68  94 127 163 204 263 322 380
#     4  10  21  40  64  93 125 161 205 256 310 374
#     4  10  21  33  54  85 122 165 210 255 304 359
#     4  12  21  36  56  82 116 160 210 252 307 362
#     4  11  24  40  60  85 118 159 213 268 314 371
#     4  11  23  35  54  83 121 167 207 259 300 359
#
# _framework density 19.624093999999999
#
# number of rings (size 3 to 8) (size 9 to 14) (size 15 to 20)
#    0.000    1.273    4.545    1.364    2.545    3.273 
#    0.000    3.636    0.000    0.545    0.000    0.000 
#    0.000    0.000    0.000    0.000    0.000    0.000 
#
# Total GULP energy -545197.510195 kJ/mol
# GULP energy per Si atom -12390.852504 kJ/mol
# Density = 1.957943 g / cm^3
# Si number density = 19.624094 Si / 1000 Ang^3
#
#
#
# Elastic Constant Matrix: (Units=GPa)
#
#
# Indices 1 2 3 4 5 6 
#
# 1 96.6075 45.7426 15.2574 0.0000 0.0000 0.0000
# 2 45.7426 123.5580 40.7205 0.0001 0.0000 0.0000
# 3 15.2574 40.7205 67.2645 0.0003 -0.0001 0.0000
# 4 0.0000 0.0001 0.0003 27.3344 0.0000 0.0000
# 5 0.0000 0.0000 -0.0001 0.0000 27.2821 0.0000
# 6 0.0000 0.0000 0.0000 0.0000 0.0000 4.4494
#
#
#
# Elastic Compliance Matrix: (Units=1/GPa)
#
#
# Indices 1 2 3 4 5 6 
#
# 1 0.012551 -0.004633 -0.000042 0.000000 0.000000 0.000000
# 2 -0.004633 0.011820 -0.006105 0.000000 0.000000 0.000000
# 3 -0.000042 -0.006105 0.018572 0.000000 0.000000 0.000000
# 4 0.000000 0.000000 0.000000 0.036584 0.000000 0.000000
# 5 0.000000 0.000000 0.000000 0.000000 0.036654 0.000000
# 6 0.000000 0.000000 0.000000 0.000000 0.000000 0.224752
#
#
# Mechanical properties :
#
#
# Convention : Reuss Voigt Hill
#
# Bulk Modulus (GPa) = 46.76471 54.54123 50.65297
# Shear Modulus (GPa) = 13.52734 24.19381 18.86058
#
# Velocity S-wave (km/s) = 2.62834 3.51502 3.10351
# Velocity P-wave (km/s) = 5.75264 6.65787 6.22174
#
# Compressibility (1/GPa) = 0.02138365
#
# Stress axis : x y z
#
# Youngs Moduli (GPa) = 79.67243 84.59920 53.84401
#
# Poissons Ratio (x) = 0.39192 0.00229
# Poissons Ratio (y) = 0.36910 0.32872
# Poissons Ratio (z) = 0.00338 0.51648
#
# Static dielectric constant tensor:
#      x y z
#    x 3.585400 0.000000 0.000000 
#    y 0.000000 3.629160 0.000000 
#    z 0.000000 0.000000 3.402390 
# 
# 
# High freq. dielectric constant tensor:
#      x y z
#    x 1.772510 0.000000 0.000000 
#    y 0.000000 1.759220 0.000000 
#    z 0.000000 0.000000 1.749360 
# 
# From -- ./inp_files/40171.got.cif
#   From: 2010.03.12/outbox.cif.g09.slc.cpg/sg74_21_cif.got.tgz:40171.got - 2010.04.16 15:46:19.
