data_PCOD8300338
_publ_section_title
;
Structure prediction by ZEFSAII (Michael W. Deem and Ramdas Pophale) SiO2 
 PCOD8300338
Probable space group: I M M A
;
_chemical_formula_sum "Si O2"
_cell_formula_units_Z 88
_cell_length_a 8.701505
_cell_length_b 18.790146
_cell_length_c 27.360564
_cell_angle_alpha 90.000000
_cell_angle_beta 90.000000
_cell_angle_gamma 90.000000
_cell_volume 4473.521966
_symmetry_space_group_name_H-M "I M M A"
_symmetry_group_IT_number 74
_symmetry_cell_setting 'orthorhombic'
loop_
_space_group_symop_operation_xyz
x,y,z
-x,1/2-y,z
x,-y,-z
-x,1/2+y,-z
-x,-y,-z
x,1/2+y,-z
-x,y,z
x,1/2-y,z
1/2+x,1/2+y,1/2+z
1/2-x,-y,1/2+z
1/2+x,1/2-y,1/2-z
1/2-x,y,1/2-z
1/2-x,1/2-y,1/2-z
1/2+x,y,1/2-z
1/2-x,1/2+y,1/2+z
1/2+x,-y,1/2+z
loop_
_atom_site_type_symbol
_atom_site_label
_atom_site_fract_x
_atom_site_fract_y
_atom_site_fract_z
Si Si1 0.179605 0.750000 0.197420
Si Si2 0.678755 0.167516 0.016023
Si Si3 0.822010 0.109316 0.662325
Si Si4 0.824851 0.084069 0.095045
Si Si5 0.318143 0.029096 0.299663
Si Si6 0.824379 0.928352 0.065129
O O1 0.250000 0.750000 0.250000
O O2 0.234024 0.682227 0.168158
O O3 0.000000 0.750000 0.202333
O O4 0.500000 0.154752 0.005582
O O5 0.722387 0.250000 0.007112
O O6 0.718655 0.145702 0.071860
O O7 0.781461 0.115469 0.982988
O O8 0.799276 0.091462 0.605872
O O9 0.000000 0.117381 0.675280
O O10 0.749245 0.050301 0.697663
O O11 0.768350 0.070824 0.150994
O O12 0.000000 0.110897 0.096072
O O13 0.811794 0.013902 0.060402
O O14 0.500000 0.025129 0.296100
O O15 0.250000 0.065110 0.250000
O O16 0.000000 0.909300 0.080334
#
# Coordination Sequence:
#
# PCOD8300338 Si02
#       6
#     8  16  16  16  16  16
#     4  12  24  38  52  70 102 146 190 234 285 332
#     4  11  24  38  55  83 117 150 188 233 282 339
#     4  11  22  36  54  78 109 144 185 233 279 330
#     4   9  20  38  59  84 113 146 188 233 278 334
#     4  10  20  36  58  85 113 142 182 229 278 336
#     4  10  21  38  59  83 111 147 189 233 280 335
#
# _framework density 19.671302000000001
#
# number of rings (size 3 to 8) (size 9 to 14) (size 15 to 20)
#    0.000    1.636    0.000    6.273    1.273    8.000 
#    0.000    0.000    0.000    0.545    0.000    0.000 
#    0.000    0.000    0.000    0.000    0.000    0.000 
#
# Total GULP energy -545533.034370 kJ/mol
# GULP energy per Si atom -12398.478054 kJ/mol
# Density = 1.962653 g / cm^3
# Si number density = 19.671302 Si / 1000 Ang^3
#
#
#
# Elastic Constant Matrix: (Units=GPa)
#
#
# Indices 1 2 3 4 5 6 
#
# 1 101.4819 24.9551 27.6072 0.0000 0.0000 0.0000
# 2 24.9551 50.2461 31.0064 0.0000 0.0000 0.0000
# 3 27.6072 31.0064 96.3858 0.0000 0.0000 0.0000
# 4 0.0000 0.0000 0.0000 14.3370 0.0000 0.0000
# 5 0.0000 0.0000 0.0000 0.0000 37.0059 0.0000
# 6 0.0000 0.0000 0.0000 0.0000 0.0000 29.2971
#
#
#
# Elastic Compliance Matrix: (Units=1/GPa)
#
#
# Indices 1 2 3 4 5 6 
#
# 1 0.011473 -0.004579 -0.001813 0.000000 0.000000 0.000000
# 2 -0.004579 0.026659 -0.007264 0.000000 0.000000 0.000000
# 3 -0.001813 -0.007264 0.013231 0.000000 0.000000 0.000000
# 4 0.000000 0.000000 0.000000 0.069750 0.000000 0.000000
# 5 0.000000 0.000000 0.000000 0.000000 0.027023 0.000000
# 6 0.000000 0.000000 0.000000 0.000000 0.000000 0.034133
#
#
# Mechanical properties :
#
#
# Convention : Reuss Voigt Hill
#
# Bulk Modulus (GPa) = 41.58016 46.13901 43.85958
# Shear Modulus (GPa) = 22.97796 27.09766 25.03781
#
# Velocity S-wave (km/s) = 3.42145 3.71553 3.57152
# Velocity P-wave (km/s) = 6.06562 6.47401 6.27314
#
# Compressibility (1/GPa) = 0.02404993
#
# Stress axis : x y z
#
# Youngs Moduli (GPa) = 87.15873 37.51043 75.57918
#
# Poissons Ratio (x) = 0.17178 0.13703
# Poissons Ratio (y) = 0.39914 0.54903
# Poissons Ratio (z) = 0.15802 0.27249
#
# Static dielectric constant tensor:
#      x y z
#    x 3.556670 0.000000 0.000000 
#    y 0.000000 3.338170 0.000000 
#    z 0.000000 0.000000 3.684450 
# 
# 
# High freq. dielectric constant tensor:
#      x y z
#    x 1.775610 0.000000 0.000000 
#    y 0.000000 1.739900 0.000000 
#    z 0.000000 0.000000 1.773760 
# 
# From -- ./inp_files/70212.got.cif
#   From: 2010.03.12/outbox.cif.g09.slc.cpg/sg74_36_cif.got.tgz:70212.got - 2010.04.16 15:46:19.
