data_PCOD8300361
_publ_section_title
;
Structure prediction by ZEFSAII (Michael W. Deem and Ramdas Pophale) SiO2 
 PCOD8300361
Probable space group: I M M A
;
_chemical_formula_sum "Si O2"
_cell_formula_units_Z 88
_cell_length_a 8.932144
_cell_length_b 18.735415
_cell_length_c 27.533187
_cell_angle_alpha 90.000000
_cell_angle_beta 90.000000
_cell_angle_gamma 90.000000
_cell_volume 4607.607938
_symmetry_space_group_name_H-M "I M M A"
_symmetry_group_IT_number 74
_symmetry_cell_setting 'orthorhombic'
loop_
_space_group_symop_operation_xyz
x,y,z
-x,1/2-y,z
x,-y,-z
-x,1/2+y,-z
-x,-y,-z
x,1/2+y,-z
-x,y,z
x,1/2-y,z
1/2+x,1/2+y,1/2+z
1/2-x,-y,1/2+z
1/2+x,1/2-y,1/2-z
1/2-x,y,1/2-z
1/2-x,1/2-y,1/2-z
1/2+x,y,1/2-z
1/2-x,1/2+y,1/2+z
1/2+x,-y,1/2+z
loop_
_atom_site_type_symbol
_atom_site_label
_atom_site_fract_x
_atom_site_fract_y
_atom_site_fract_z
Si Si1 0.170977 0.750000 0.300379
Si Si2 0.176193 0.168103 0.025511
Si Si3 0.335719 0.119747 0.664284
Si Si4 0.677447 0.073345 0.099817
Si Si5 0.323424 0.034197 0.300346
Si Si6 0.832795 0.938266 0.058865
O O1 0.250000 0.750000 0.250000
O O2 0.211895 0.820568 0.329486
O O3 0.000000 0.750000 0.289580
O O4 0.217549 0.250000 0.012639
O O5 0.266301 0.145431 0.073814
O O6 0.000000 0.160563 0.035193
O O7 0.228508 0.115738 0.982000
O O8 0.500000 0.146493 0.681436
O O9 0.339579 0.105781 0.607735
O O10 0.290860 0.049967 0.694793
O O11 0.500000 0.072525 0.105362
O O12 0.749607 0.072961 0.153463
O O13 0.727307 0.006907 0.065715
O O14 0.500000 0.050650 0.300382
O O15 0.250000 0.061593 0.250000
O O16 0.000000 0.966028 0.045805
#
# Coordination Sequence:
#
# PCOD8300361 Si02
#       6
#     8  16  16  16  16  16
#     4  12  24  34  46  66  98 142 184 226 275 326
#     4  10  21  37  59  84 111 147 190 234 281 334
#     4   9  19  34  53  75 103 137 178 227 272 322
#     4  11  22  36  56  83 117 152 185 226 276 332
#     4  10  20  36  59  84 108 138 180 229 277 329
#     4   9  19  36  59  82 107 144 189 233 277 328
#
# _framework density 19.098848
#
# number of rings (size 3 to 8) (size 9 to 14) (size 15 to 20)
#    0.000    2.000    0.000    5.182    1.273    8.364 
#    0.000    0.000    0.000    0.545    0.000    0.000 
#    0.000    0.000    0.000    0.000    0.000    0.000 
#
# Total GULP energy -545542.274092 kJ/mol
# GULP energy per Si atom -12398.688048 kJ/mol
# Density = 1.905538 g / cm^3
# Si number density = 19.098848 Si / 1000 Ang^3
#
#
#
# Elastic Constant Matrix: (Units=GPa)
#
#
# Indices 1 2 3 4 5 6 
#
# 1 105.6416 30.9963 42.8196 0.0000 0.0000 0.0000
# 2 30.9963 57.1907 46.6223 0.0000 0.0000 0.0000
# 3 42.8196 46.6223 117.2040 0.0000 0.0000 0.0000
# 4 0.0000 0.0000 0.0000 12.7861 0.0000 0.0000
# 5 0.0000 0.0000 0.0000 0.0000 30.3782 0.0000
# 6 0.0000 0.0000 0.0000 0.0000 0.0000 20.6201
#
#
#
# Elastic Compliance Matrix: (Units=1/GPa)
#
#
# Indices 1 2 3 4 5 6 
#
# 1 0.011771 -0.004253 -0.002609 0.000000 0.000000 0.000000
# 2 -0.004253 0.027413 -0.009351 0.000000 0.000000 0.000000
# 3 -0.002609 -0.009351 0.013205 0.000000 0.000000 0.000000
# 4 0.000000 0.000000 0.000000 0.078210 0.000000 0.000000
# 5 0.000000 0.000000 0.000000 0.000000 0.032918 0.000000
# 6 0.000000 0.000000 0.000000 0.000000 0.000000 0.048496
#
#
# Mechanical properties :
#
#
# Convention : Reuss Voigt Hill
#
# Bulk Modulus (GPa) = 50.08999 57.87921 53.98460
# Shear Modulus (GPa) = 19.91285 23.39674 21.65480
#
# Velocity S-wave (km/s) = 3.23247 3.50385 3.37089
# Velocity P-wave (km/s) = 6.34156 6.83667 6.59377
#
# Compressibility (1/GPa) = 0.01996407
#
# Stress axis : x y z
#
# Youngs Moduli (GPa) = 84.95252 36.47856 75.72987
#
# Poissons Ratio (x) = 0.15515 0.19755
# Poissons Ratio (y) = 0.36132 0.70814
# Poissons Ratio (z) = 0.22161 0.34110
#
# Static dielectric constant tensor:
#      x y z
#    x 4.726620 0.000000 0.000000 
#    y 0.000000 3.310020 0.000000 
#    z 0.000000 0.000000 3.604320 
# 
# 
# High freq. dielectric constant tensor:
#      x y z
#    x 1.738310 0.000000 0.000000 
#    y 0.000000 1.720200 0.000000 
#    z 0.000000 0.000000 1.753190 
# 
# From -- ./inp_files/70210.got.cif
#   From: 2010.03.12/outbox.cif.g09.slc.cpg/sg74_36_cif.got.tgz:70210.got - 2010.04.16 15:46:19.
