data_PCOD8300415
_publ_section_title
;
Structure prediction by ZEFSAII (Michael W. Deem and Ramdas Pophale) SiO2 
 PCOD8300415
Probable space group: I M M A
;
_chemical_formula_sum "Si O2"
_cell_formula_units_Z 104
_cell_length_a 21.496564
_cell_length_b 8.927677
_cell_length_c 27.574842
_cell_angle_alpha 90.000000
_cell_angle_beta 90.000000
_cell_angle_gamma 90.000000
_cell_volume 5292.008706
_symmetry_space_group_name_H-M "I M M A"
_symmetry_group_IT_number 74
_symmetry_cell_setting 'orthorhombic'
loop_
_space_group_symop_operation_xyz
x,y,z
-x,1/2-y,z
x,-y,-z
-x,1/2+y,-z
-x,-y,-z
x,1/2+y,-z
-x,y,z
x,1/2-y,z
1/2+x,1/2+y,1/2+z
1/2-x,-y,1/2+z
1/2+x,1/2-y,1/2-z
1/2-x,y,1/2-z
1/2-x,1/2-y,1/2-z
1/2+x,y,1/2-z
1/2-x,1/2+y,1/2+z
1/2+x,-y,1/2+z
loop_
_atom_site_type_symbol
_atom_site_label
_atom_site_fract_x
_atom_site_fract_y
_atom_site_fract_z
Si Si1 0.846073 0.082363 0.371427
Si Si2 0.928907 0.425419 0.705058
Si Si3 0.500000 0.423170 0.550740
Si Si4 0.741490 0.070531 0.447285
Si Si5 0.428868 0.925823 0.692346
Si Si6 0.125391 0.427011 0.896687
Si Si7 0.432784 0.085415 0.041939
O O1 0.830647 0.250000 0.351422
O O2 0.789295 0.019753 0.404442
O O3 0.904623 0.088862 0.405786
O O4 0.871007 0.973837 0.329269
O O5 0.922042 0.250000 0.715114
O O6 0.917024 0.515736 0.753940
O O7 0.000000 0.460211 0.686050
O O8 0.500000 0.250000 0.540139
O O9 0.500000 0.500000 0.500000
O O10 0.439887 0.471727 0.580235
O O11 0.742745 0.250000 0.452838
O O12 0.757498 0.000000 0.500000
O O13 0.675311 0.012311 0.429403
O O14 0.500000 0.961879 0.676778
O O15 0.415152 0.750000 0.690481
O O16 0.378954 0.009938 0.657966
O O17 0.139284 0.250000 0.896152
O O18 0.500000 0.006438 0.047764
O O19 0.439354 0.250000 0.020957
O O20 0.393344 0.000000 0.000000
#
# Coordination Sequence:
#
# PCOD8300415 Si02
#       7
#    16  16   8  16  16  16  16
#     4  10  21  37  56  78 110 152 197 243 290 345
#     4  10  21  36  58  89 122 154 193 244 296 349
#     4  10  22  36  56  86 118 150 186 234 287 342
#     4  11  24  41  60  85 117 157 202 245 293 350
#     4  10  20  36  61  91 121 155 191 234 292 355
#     4  11  22  39  61  87 119 155 194 240 292 348
#     4   9  17  29  47  72 101 135 177 228 285 340
#
# _framework density 19.652273000000001
#
# number of rings (size 3 to 8) (size 9 to 14) (size 15 to 20)
#    0.000    1.846    0.769    3.231    0.000    6.462 
#    0.000    2.308    0.000    4.615    0.000    0.000 
#    0.000    0.000    0.000    0.000    0.000    0.000 
#
# Total GULP energy -644267.383625 kJ/mol
# GULP energy per Si atom -12389.757377 kJ/mol
# Density = 1.960754 g / cm^3
# Si number density = 19.652273 Si / 1000 Ang^3
#
#
#
# Elastic Constant Matrix: (Units=GPa)
#
#
# Indices 1 2 3 4 5 6 
#
# 1 94.4203 33.1508 40.4055 0.0000 0.0000 0.0000
# 2 33.1508 69.2573 40.2598 0.0000 0.0000 0.0000
# 3 40.4055 40.2598 93.4160 0.0000 0.0000 0.0000
# 4 0.0000 0.0000 0.0000 41.0739 0.0000 0.0000
# 5 0.0000 0.0000 0.0000 0.0000 166.9567 0.0000
# 6 0.0000 0.0000 0.0000 0.0000 0.0000 27.8326
#
#
#
# Elastic Compliance Matrix: (Units=1/GPa)
#
#
# Indices 1 2 3 4 5 6 
#
# 1 0.013856 -0.004201 -0.004183 0.000000 0.000000 0.000000
# 2 -0.004201 0.020539 -0.007035 0.000000 0.000000 0.000000
# 3 -0.004183 -0.007035 0.015546 0.000000 0.000000 0.000000
# 4 0.000000 0.000000 0.000000 0.024346 0.000000 0.000000
# 5 0.000000 0.000000 0.000000 0.000000 0.005990 0.000000
# 6 0.000000 0.000000 0.000000 0.000000 0.000000 0.035929
#
#
# Mechanical properties :
#
#
# Convention : Reuss Voigt Hill
#
# Bulk Modulus (GPa) = 52.34487 53.85841 53.10164
# Shear Modulus (GPa) = 32.59240 56.72448 44.65844
#
# Velocity S-wave (km/s) = 4.07683 5.37836 4.77217
# Velocity P-wave (km/s) = 6.98957 8.12614 7.57919
#
# Compressibility (1/GPa) = 0.01910407
#
# Stress axis : x y z
#
# Youngs Moduli (GPa) = 72.17241 48.68774 64.32637
#
# Poissons Ratio (x) = 0.20453 0.26905
# Poissons Ratio (y) = 0.30318 0.45252
# Poissons Ratio (z) = 0.30187 0.34251
#
# Static dielectric constant tensor:
#      x y z
#    x 3.589690 0.000000 0.000000 
#    y 0.000000 3.300830 0.000000 
#    z 0.000000 0.000000 3.568080 
# 
# 
# High freq. dielectric constant tensor:
#      x y z
#    x 1.755920 0.000000 0.000000 
#    y 0.000000 1.770590 0.000000 
#    z 0.000000 0.000000 1.768660 
# 
# From -- ./inp_files/68283.got.cif
#   From: 2010.03.12/outbox.cif.g09.slc.cpg/sg74_35_cif.got.tgz:68283.got - 2010.04.16 15:46:19.
