data_PCOD8300256
_publ_section_title
;
Structure prediction by ZEFSAII (Michael W. Deem and Ramdas Pophale) SiO2 
 PCOD8300256
Probable space group: I M M A
;
_chemical_formula_sum "Si O2"
_cell_formula_units_Z 96
_cell_length_a 9.305823
_cell_length_b 29.278071
_cell_length_c 19.019884
_cell_angle_alpha 90.000000
_cell_angle_beta 90.000000
_cell_angle_gamma 90.000000
_cell_volume 5182.091910
_symmetry_space_group_name_H-M "I M M A"
_symmetry_group_IT_number 74
_symmetry_cell_setting 'orthorhombic'
loop_
_space_group_symop_operation_xyz
x,y,z
-x,1/2-y,z
x,-y,-z
-x,1/2+y,-z
-x,-y,-z
x,1/2+y,-z
-x,y,z
x,1/2-y,z
1/2+x,1/2+y,1/2+z
1/2-x,-y,1/2+z
1/2+x,1/2-y,1/2-z
1/2-x,y,1/2-z
1/2-x,1/2-y,1/2-z
1/2+x,y,1/2-z
1/2-x,1/2+y,1/2+z
1/2+x,-y,1/2+z
loop_
_atom_site_type_symbol
_atom_site_label
_atom_site_fract_x
_atom_site_fract_y
_atom_site_fract_z
Si Si1 0.837674 0.800717 0.187915
Si Si2 0.834712 0.472443 0.069665
Si Si3 0.164429 0.949761 0.178016
Si Si4 0.829443 0.620481 0.566861
Si Si5 0.835375 0.628335 0.073315
Si Si6 0.667858 0.302071 0.178546
O O1 0.775706 0.750000 0.177104
O O2 0.750000 0.826126 0.250000
O O3 0.822688 0.824297 0.113373
O O4 0.000000 0.800561 0.214140
O O5 0.817911 0.501958 0.139804
O O6 0.740165 0.428056 0.086307
O O7 0.000000 0.457913 0.056996
O O8 0.781106 0.500000 0.000000
O O9 0.250000 0.949768 0.250000
O O10 0.221967 0.911602 0.124181
O O11 0.000000 0.938863 0.196840
O O12 0.769882 0.634431 0.491430
O O13 0.783661 0.660788 0.620506
O O14 0.000000 0.614854 0.564254
O O15 0.000000 0.618004 0.049528
O O16 0.500000 0.306833 0.194339
O O17 0.704185 0.250000 0.153424
O O18 0.750000 0.313921 0.250000
#
# Coordination Sequence:
#
# PCOD8300256 Si02
#       6
#    16  16  16  16  16  16
#     4   9  18  32  51  75 104 140 182 228 273 319
#     4  10  20  39  60  77 108 152 190 225 278 340
#     4  10  21  36  56  80 106 143 185 226 272 327
#     4  11  23  36  57  88 115 142 183 234 283 328
#     4  10  20  36  54  75 109 149 186 222 270 334
#     4   9  20  40  62  85 116 151 188 233 287 345
#
# _framework density 18.525338000000001
#
# number of rings (size 3 to 8) (size 9 to 14) (size 15 to 20)
#    0.000    2.167    1.667    1.000    0.000    5.000 
#    0.000    3.333    0.000    0.000    0.000    0.000 
#    0.000    0.000    0.000    0.000    0.000    0.000 
#
# Total GULP energy -595088.024996 kJ/mol
# GULP energy per Si atom -12397.667187 kJ/mol
# Density = 1.848317 g / cm^3
# Si number density = 18.525338 Si / 1000 Ang^3
#
#
#
# Elastic Constant Matrix: (Units=GPa)
#
#
# Indices 1 2 3 4 5 6 
#
# 1 70.9776 52.3083 61.6201 0.0000 0.0000 0.0000
# 2 52.3083 120.3589 70.8787 -0.0001 0.0000 0.0000
# 3 61.6201 70.8787 137.4190 -0.0002 0.0000 0.0000
# 4 0.0000 -0.0001 -0.0002 34.7173 0.0000 0.0000
# 5 0.0000 0.0000 0.0000 0.0000 37.7534 0.0000
# 6 0.0000 0.0000 0.0000 0.0000 0.0000 28.4124
#
#
#
# Elastic Compliance Matrix: (Units=1/GPa)
#
#
# Indices 1 2 3 4 5 6 
#
# 1 0.026097 -0.006392 -0.008405 0.000000 0.000000 0.000000
# 2 -0.006392 0.013499 -0.004096 0.000000 0.000000 0.000000
# 3 -0.008405 -0.004096 0.013159 0.000000 0.000000 0.000000
# 4 0.000000 0.000000 0.000000 0.028804 0.000000 0.000000
# 5 0.000000 0.000000 0.000000 0.000000 0.026488 0.000000
# 6 0.000000 0.000000 0.000000 0.000000 0.000000 0.035196
#
#
# Mechanical properties :
#
#
# Convention : Reuss Voigt Hill
#
# Bulk Modulus (GPa) = 66.81151 77.59662 72.20407
# Shear Modulus (GPa) = 26.87921 29.77318 28.32620
#
# Velocity S-wave (km/s) = 3.81326 4.01329 3.91455
# Velocity P-wave (km/s) = 7.45192 7.96574 7.71311
#
# Compressibility (1/GPa) = 0.01496748
#
# Stress axis : x y z
#
# Youngs Moduli (GPa) = 38.31916 74.08140 75.99517
#
# Poissons Ratio (x) = 0.47352 0.63875
# Poissons Ratio (y) = 0.24493 0.31129
# Poissons Ratio (z) = 0.32208 0.30345
#
# Static dielectric constant tensor:
#      x y z
#    x 3.359580 0.000000 0.000000 
#    y 0.000000 3.634710 0.000000 
#    z 0.000000 0.000000 3.368460 
# 
# 
# High freq. dielectric constant tensor:
#      x y z
#    x 1.711330 0.000000 0.000000 
#    y 0.000000 1.730420 0.000000 
#    z 0.000000 0.000000 1.717430 
# 
# From -- ./inp_files/49100.got.cif
#   From: 2010.03.12/outbox.cif.g09.slc.cpg/sg74_25_cif.got.tgz:49100.got - 2010.04.16 15:46:19.
