data_PCOD8300028
_publ_section_title
;
Structure prediction by ZEFSAII (Michael W. Deem and Ramdas Pophale) SiO2 
 PCOD8300028
Probable space group: I M M A
;
_chemical_formula_sum "Si O2"
_cell_formula_units_Z 128
_cell_length_a 19.683766
_cell_length_b 18.547911
_cell_length_c 18.040789
_cell_angle_alpha 90.000000
_cell_angle_beta 90.000000
_cell_angle_gamma 90.000000
_cell_volume 6586.561086
_symmetry_space_group_name_H-M "I M M A"
_symmetry_group_IT_number 74
_symmetry_cell_setting 'orthorhombic'
loop_
_space_group_symop_operation_xyz
x,y,z
-x,1/2-y,z
x,-y,-z
-x,1/2+y,-z
-x,-y,-z
x,1/2+y,-z
-x,y,z
x,1/2-y,z
1/2+x,1/2+y,1/2+z
1/2-x,-y,1/2+z
1/2+x,1/2-y,1/2-z
1/2-x,y,1/2-z
1/2-x,1/2-y,1/2-z
1/2+x,y,1/2-z
1/2-x,1/2+y,1/2+z
1/2+x,-y,1/2+z
loop_
_atom_site_type_symbol
_atom_site_label
_atom_site_fract_x
_atom_site_fract_y
_atom_site_fract_z
Si Si1 0.925002 0.664493 0.956336
Si Si2 0.682973 0.930552 0.772831
Si Si3 0.340294 0.832323 0.020801
Si Si4 0.649112 0.463310 0.072310
Si Si5 0.078830 0.093803 0.641089
Si Si6 0.578194 0.831363 0.709731
Si Si7 0.687781 0.335164 0.572127
Si Si8 0.822921 0.584800 0.223248
O O1 0.927885 0.750000 0.953847
O O2 0.865363 0.637820 0.009879
O O3 0.000000 0.635762 0.981314
O O4 0.909080 0.637845 0.872839
O O5 0.750000 0.885146 0.750000
O O6 0.697124 0.958879 0.856309
O O7 0.616977 0.881040 0.768752
O O8 0.678482 0.998088 0.716486
O O9 0.342691 0.750000 0.993787
O O10 0.390351 0.843398 0.089857
O O11 0.263716 0.854650 0.045109
O O12 0.368567 0.881621 0.952880
O O13 0.587463 0.515528 0.099971
O O14 0.684534 0.500000 0.000000
O O15 0.116715 0.102485 0.719454
O O16 0.000000 0.107625 0.655232
O O17 0.500000 0.835532 0.731705
O O18 0.605352 0.750000 0.716788
O O19 0.681502 0.250000 0.587762
O O20 0.663818 0.378294 0.644543
O O21 0.750000 0.615021 0.250000
#
# Coordination Sequence:
#
# PCOD8300028 Si02
#       8
#    16  16  16  16  16  16  16  16
#     4   8  16  33  55  81 114 150 187 226 279 347
#     4  10  22  35  55  87 114 144 192 242 280 334
#     4  10  21  36  57  86 116 149 192 245 297 347
#     4   9  21  39  58  79 112 155 192 231 285 349
#     4  10  21  39  60  81 111 156 201 238 289 356
#     4   9  19  38  60  81 114 156 187 227 293 350
#     4  10  20  34  59  87 116 155 195 240 291 351
#     4  10  20  38  56  80 117 154 190 234 292 351
#
# _framework density 19.433509000000001
#
# number of rings (size 3 to 8) (size 9 to 14) (size 15 to 20)
#    0.000    2.500    1.250    0.750    3.500    6.500 
#    0.000    0.625    0.000    1.500    0.000    0.000 
#    0.000    0.000    0.000    0.000    0.000    0.000 
#
# Total GULP energy -792932.555739 kJ/mol
# GULP energy per Si atom -12389.571183 kJ/mol
# Density = 1.938928 g / cm^3
# Si number density = 19.433509 Si / 1000 Ang^3
#
#
#
# Elastic Constant Matrix: (Units=GPa)
#
#
# Indices 1 2 3 4 5 6 
#
# 1 123.6300 24.6472 49.3869 0.0000 0.0000 0.0000
# 2 24.6472 73.0020 36.3394 0.0000 0.0000 0.0000
# 3 49.3869 36.3394 97.6012 0.0000 0.0000 0.0000
# 4 0.0000 0.0000 0.0000 27.1389 0.0000 0.0000
# 5 0.0000 0.0000 0.0000 0.0000 24.0092 0.0000
# 6 0.0000 0.0000 0.0000 0.0000 0.0000 23.1118
#
#
#
# Elastic Compliance Matrix: (Units=1/GPa)
#
#
# Indices 1 2 3 4 5 6 
#
# 1 0.010206 -0.001074 -0.004764 0.000000 0.000000 0.000000
# 2 -0.001074 0.016928 -0.005759 0.000000 0.000000 0.000000
# 3 -0.004764 -0.005759 0.014801 0.000000 0.000000 0.000000
# 4 0.000000 0.000000 0.000000 0.036847 0.000000 0.000000
# 5 0.000000 0.000000 0.000000 0.000000 0.041651 0.000000
# 6 0.000000 0.000000 0.000000 0.000000 0.000000 0.043268
#
#
# Mechanical properties :
#
#
# Convention : Reuss Voigt Hill
#
# Bulk Modulus (GPa) = 53.36369 57.22002 55.29186
# Shear Modulus (GPa) = 25.88763 27.10929 26.49846
#
# Velocity S-wave (km/s) = 3.65377 3.73899 3.69663
# Velocity P-wave (km/s) = 6.73196 6.93888 6.83620
#
# Compressibility (1/GPa) = 0.01873933
#
# Stress axis : x y z
#
# Youngs Moduli (GPa) = 97.98105 59.07477 67.56369
#
# Poissons Ratio (x) = 0.06346 0.32190
# Poissons Ratio (y) = 0.10525 0.38910
# Poissons Ratio (z) = 0.46682 0.34022
#
# Static dielectric constant tensor:
#      x y z
#    x 3.493600 0.000000 0.000000 
#    y 0.000000 3.434210 0.000000 
#    z 0.000000 0.000000 3.594110 
# 
# 
# High freq. dielectric constant tensor:
#      x y z
#    x 1.744020 0.000000 0.000000 
#    y 0.000000 1.740920 0.000000 
#    z 0.000000 0.000000 1.757280 
# 
# From -- ./inp_files/45616.got.cif
#   From: 2010.03.12/outbox.cif.g09.slc.cpg/sg74_23_cif.got.tgz:45616.got - 2010.04.16 15:46:19.
