data_PCOD8300004
_publ_section_title
;
Structure prediction by ZEFSAII (Michael W. Deem and Ramdas Pophale) SiO2 
 PCOD8300004
Probable space group: I M M A
;
_chemical_formula_sum "Si O2"
_cell_formula_units_Z 80
_cell_length_a 15.816032
_cell_length_b 21.601204
_cell_length_c 11.923056
_cell_angle_alpha 90.000000
_cell_angle_beta 90.000000
_cell_angle_gamma 90.000000
_cell_volume 4073.456446
_symmetry_space_group_name_H-M "I M M A"
_symmetry_group_IT_number 74
_symmetry_cell_setting 'orthorhombic'
loop_
_space_group_symop_operation_xyz
x,y,z
-x,1/2-y,z
x,-y,-z
-x,1/2+y,-z
-x,-y,-z
x,1/2+y,-z
-x,y,z
x,1/2-y,z
1/2+x,1/2+y,1/2+z
1/2-x,-y,1/2+z
1/2+x,1/2-y,1/2-z
1/2-x,y,1/2-z
1/2-x,1/2-y,1/2-z
1/2+x,y,1/2-z
1/2-x,1/2+y,1/2+z
1/2+x,-y,1/2+z
loop_
_atom_site_type_symbol
_atom_site_label
_atom_site_fract_x
_atom_site_fract_y
_atom_site_fract_z
Si Si1 0.594843 0.818820 0.801780
Si Si2 0.000000 0.897182 0.992158
Si Si3 0.659602 0.322478 0.436384
Si Si4 0.680469 0.402483 0.034317
Si Si5 0.670987 0.979325 0.175605
Si Si6 0.500000 0.496286 0.685265
O O1 0.500000 0.823830 0.753983
O O2 0.613487 0.750000 0.847851
O O3 0.656467 0.833115 0.697831
O O4 0.605238 0.865910 0.904224
O O5 0.080961 0.853381 0.998364
O O6 0.000000 0.939051 0.880641
O O7 0.000000 0.938760 0.102418
O O8 0.661886 0.250000 0.466126
O O9 0.742033 0.356082 0.482423
O O10 0.706242 0.460591 0.111024
O O11 0.648708 0.425187 0.913029
O O12 0.750000 0.956392 0.250000
O O13 0.585165 0.994490 0.241508
#
# Coordination Sequence:
#
# PCOD8300004 Si02
#       6
#    16   8  16  16  16   8
#     4  10  20  34  56  88 120 149 188 241 299 358
#     4  11  21  38  64  91 117 155 198 250 305 362
#     4  11  21  37  62  92 120 154 196 251 306 353
#     4  11  23  36  61  83 122 156 196 241 297 354
#     4  11  24  40  58  90 120 159 206 245 292 360
#     4  11  24  39  64  87 124 163 196 248 309 345
#
# _framework density 19.639341999999999
#
# number of rings (size 3 to 8) (size 9 to 14) (size 15 to 20)
#    0.000    1.200    1.000    6.300    2.800    5.600 
#    0.000    0.000    0.000   13.200    0.000    0.000 
#    0.000    0.000    0.000    0.000    0.000    0.000 
#
# Total GULP energy -496080.962321 kJ/mol
# GULP energy per Si atom -12402.024058 kJ/mol
# Density = 1.959464 g / cm^3
# Si number density = 19.639342 Si / 1000 Ang^3
#
#
#
# Elastic Constant Matrix: (Units=GPa)
#
#
# Indices 1 2 3 4 5 6 
#
# 1 94.8213 29.2113 20.7745 0.0000 0.0000 0.0000
# 2 29.2113 119.3633 40.6625 0.0000 0.0000 0.0000
# 3 20.7745 40.6625 75.1107 0.0000 0.0000 0.0000
# 4 0.0000 0.0000 0.0000 34.0999 0.0000 0.0000
# 5 0.0000 0.0000 0.0000 0.0000 48.7568 0.0000
# 6 0.0000 0.0000 0.0000 0.0000 0.0000 35.9186
#
#
#
# Elastic Compliance Matrix: (Units=1/GPa)
#
#
# Indices 1 2 3 4 5 6 
#
# 1 0.011660 -0.002152 -0.002060 0.000000 0.000000 0.000000
# 2 -0.002152 0.010669 -0.005181 0.000000 0.000000 0.000000
# 3 -0.002060 -0.005181 0.016688 0.000000 0.000000 0.000000
# 4 0.000000 0.000000 0.000000 0.029326 0.000000 0.000000
# 5 0.000000 0.000000 0.000000 0.000000 0.020510 0.000000
# 6 0.000000 0.000000 0.000000 0.000000 0.000000 0.027841
#
#
# Mechanical properties :
#
#
# Convention : Reuss Voigt Hill
#
# Bulk Modulus (GPa) = 49.42590 52.28796 50.85693
# Shear Modulus (GPa) = 35.15581 36.99820 36.07701
#
# Velocity S-wave (km/s) = 4.23551 4.34508 4.29065
# Velocity P-wave (km/s) = 7.01005 7.20103 7.10618
#
# Compressibility (1/GPa) = 0.02023231
#
# Stress axis : x y z
#
# Youngs Moduli (GPa) = 85.76023 93.72687 59.92246
#
# Poissons Ratio (x) = 0.20168 0.12345
# Poissons Ratio (y) = 0.18454 0.31045
# Poissons Ratio (z) = 0.17668 0.48559
#
# Static dielectric constant tensor:
#      x y z
#    x 3.590290 0.000000 0.000000 
#    y 0.000000 3.783560 0.000000 
#    z 0.000000 0.000000 3.452300 
# 
# 
# High freq. dielectric constant tensor:
#      x y z
#    x 1.772550 0.000000 0.000000 
#    y 0.000000 1.778210 0.000000 
#    z 0.000000 0.000000 1.742470 
# 
# From -- ./inp_files/20571.got.cif
#   From: 2010.03.12/outbox.cif.g09.slc.cpg/sg74_11_cif.got.tgz:20571.got - 2010.04.16 15:46:19.
