data_PCOD8300857
_publ_section_title
;
Structure prediction by ZEFSAII (Michael W. Deem and Ramdas Pophale) SiO2 
 PCOD8300857
Probable space group: I M M A
;
_chemical_formula_sum "Si O2"
_cell_formula_units_Z 112
_cell_length_a 14.112134
_cell_length_b 17.261055
_cell_length_c 24.084722
_cell_angle_alpha 90.000000
_cell_angle_beta 90.000000
_cell_angle_gamma 90.000000
_cell_volume 5866.805167
_symmetry_space_group_name_H-M "I M M A"
_symmetry_group_IT_number 74
_symmetry_cell_setting 'orthorhombic'
loop_
_space_group_symop_operation_xyz
x,y,z
-x,1/2-y,z
x,-y,-z
-x,1/2+y,-z
-x,-y,-z
x,1/2+y,-z
-x,y,z
x,1/2-y,z
1/2+x,1/2+y,1/2+z
1/2-x,-y,1/2+z
1/2+x,1/2-y,1/2-z
1/2-x,y,1/2-z
1/2-x,1/2-y,1/2-z
1/2+x,y,1/2-z
1/2-x,1/2+y,1/2+z
1/2+x,-y,1/2+z
loop_
_atom_site_type_symbol
_atom_site_label
_atom_site_fract_x
_atom_site_fract_y
_atom_site_fract_z
Si Si1 0.108138 0.054248 0.879449
Si Si2 0.718388 0.158367 0.546057
Si Si3 0.723872 0.837714 0.661641
Si Si4 0.391705 0.042628 0.276647
Si Si5 0.390220 0.893926 0.561599
Si Si6 0.892149 0.057029 0.551260
Si Si7 0.391609 0.448536 0.151566
O O1 0.172912 0.126505 0.896889
O O2 0.000000 0.082325 0.879541
O O3 0.139420 0.026708 0.817747
O O4 0.123605 0.983629 0.922321
O O5 0.713247 0.250000 0.544755
O O6 0.659081 0.121076 0.496580
O O7 0.827646 0.132343 0.542478
O O8 0.740158 0.750000 0.680723
O O9 0.674497 0.882935 0.712687
O O10 0.655993 0.839625 0.608214
O O11 0.825409 0.873782 0.645101
O O12 0.500000 0.066382 0.290611
O O13 0.380253 0.015291 0.213251
O O14 0.500000 0.871878 0.556299
O O15 0.000000 0.086125 0.555634
O O16 0.878104 0.000000 0.500000
O O17 0.860283 0.013332 0.607520
O O18 0.500000 0.422273 0.140419
#
# Coordination Sequence:
#
# PCOD8300857 Si02
#       7
#    16  16  16  16  16  16  16
#     4   9  18  34  55  77 105 141 178 215 254 302
#     4  12  23  33  52  82 112 139 168 213 272 323
#     4  11  21  32  50  78 114 150 177 212 263 310
#     4   9  19  35  55  78 103 138 184 225 260 306
#     4  10  21  37  56  78 107 145 184 214 246 304
#     4  10  21  39  61  79  99 134 179 223 264 309
#     4  10  21  37  57  78 100 136 186 228 261 306
#
# _framework density 19.090458000000002
#
# number of rings (size 3 to 8) (size 9 to 14) (size 15 to 20)
#    0.000    1.857    0.000    6.429    0.000    5.714 
#    0.000    1.429    0.000    6.000    0.000    4.000 
#    0.000    0.000    0.000    0.000    0.000    0.000 
#
# Total GULP energy -694539.392323 kJ/mol
# GULP energy per Si atom -12402.489149 kJ/mol
# Density = 1.904701 g / cm^3
# Si number density = 19.090458 Si / 1000 Ang^3
#
#
#
# Elastic Constant Matrix: (Units=GPa)
#
#
# Indices 1 2 3 4 5 6 
#
# 1 100.8396 35.1127 39.8079 0.0000 0.0000 0.0000
# 2 35.1127 51.8307 32.8355 0.0000 0.0000 0.0000
# 3 39.8079 32.8355 114.4826 0.0000 0.0000 0.0000
# 4 0.0000 0.0000 0.0000 8.6801 0.0000 0.0000
# 5 0.0000 0.0000 0.0000 0.0000 23.4732 0.0000
# 6 0.0000 0.0000 0.0000 0.0000 0.0000 17.0293
#
#
#
# Elastic Compliance Matrix: (Units=1/GPa)
#
#
# Indices 1 2 3 4 5 6 
#
# 1 0.013558 -0.007574 -0.002542 0.000000 0.000000 0.000000
# 2 -0.007574 0.027809 -0.005342 0.000000 0.000000 0.000000
# 3 -0.002542 -0.005342 0.011151 0.000000 0.000000 0.000000
# 4 0.000000 0.000000 0.000000 0.115206 0.000000 0.000000
# 5 0.000000 0.000000 0.000000 0.000000 0.042602 0.000000
# 6 0.000000 0.000000 0.000000 0.000000 0.000000 0.058722
#
#
# Mechanical properties :
#
#
# Convention : Reuss Voigt Hill
#
# Bulk Modulus (GPa) = 46.29442 53.62944 49.96193
# Shear Modulus (GPa) = 16.27791 20.46300 18.37045
#
# Velocity S-wave (km/s) = 2.92322 3.27753 3.10544
# Velocity P-wave (km/s) = 5.97464 6.51738 6.25190
#
# Compressibility (1/GPa) = 0.02160087
#
# Stress axis : x y z
#
# Youngs Moduli (GPa) = 73.75968 35.95926 89.67740
#
# Poissons Ratio (x) = 0.27237 0.22794
# Poissons Ratio (y) = 0.55868 0.47909
# Poissons Ratio (z) = 0.18748 0.19211
#
# Static dielectric constant tensor:
#      x y z
#    x 3.769890 0.000000 0.000000 
#    y 0.000000 3.099290 0.000000 
#    z 0.000000 0.000000 3.660640 
# 
# 
# High freq. dielectric constant tensor:
#      x y z
#    x 1.764820 0.000000 0.000000 
#    y 0.000000 1.696680 0.000000 
#    z 0.000000 0.000000 1.751030 
# 
# From -- ./inp_files/67237.got.cif
#   From: 2010.03.12/outbox.cif.g09.slc.cpg/sg74_34_cif.got.tgz:67237.got - 2010.04.16 15:46:19.
