data_PCOD8300329
_publ_section_title
;
Structure prediction by ZEFSAII (Michael W. Deem and Ramdas Pophale) SiO2 
 PCOD8300329
Probable space group: I M M A
;
_chemical_formula_sum "Si O2"
_cell_formula_units_Z 96
_cell_length_a 9.240800
_cell_length_b 18.461217
_cell_length_c 29.568447
_cell_angle_alpha 90.000000
_cell_angle_beta 90.000000
_cell_angle_gamma 90.000000
_cell_volume 5044.271027
_symmetry_space_group_name_H-M "I M M A"
_symmetry_group_IT_number 74
_symmetry_cell_setting 'orthorhombic'
loop_
_space_group_symop_operation_xyz
x,y,z
-x,1/2-y,z
x,-y,-z
-x,1/2+y,-z
-x,-y,-z
x,1/2+y,-z
-x,y,z
x,1/2-y,z
1/2+x,1/2+y,1/2+z
1/2-x,-y,1/2+z
1/2+x,1/2-y,1/2-z
1/2-x,y,1/2-z
1/2-x,1/2-y,1/2-z
1/2+x,y,1/2-z
1/2-x,1/2+y,1/2+z
1/2+x,-y,1/2+z
loop_
_atom_site_type_symbol
_atom_site_label
_atom_site_fract_x
_atom_site_fract_y
_atom_site_fract_z
Si Si1 0.830825 0.552968 0.629109
Si Si2 0.331279 0.167309 0.205141
Si Si3 0.338735 0.665217 0.208333
Si Si4 0.167500 0.832220 0.039638
Si Si5 0.330624 0.572027 0.974734
Si Si6 0.670346 0.093033 0.632295
O O1 0.788146 0.619236 0.661806
O O2 0.789544 0.572844 0.577897
O O3 0.735589 0.484932 0.644141
O O4 0.000000 0.533127 0.632936
O O5 0.500000 0.160829 0.215467
O O6 0.286627 0.250000 0.193968
O O7 0.250000 0.139241 0.250000
O O8 0.500000 0.630445 0.205877
O O9 0.354262 0.750000 0.215843
O O10 0.250000 0.629927 0.250000
O O11 0.248864 0.651983 0.163082
O O12 0.211065 0.750000 0.051761
O O13 0.206585 0.884700 0.081150
O O14 0.000000 0.837631 0.027363
O O15 0.255978 0.857764 0.996086
O O16 0.500000 0.579591 0.982626
O O17 0.272052 0.500000 0.000000
O O18 0.500000 0.093968 0.642068
#
# Coordination Sequence:
#
# PCOD8300329 Si02
#       6
#    16  16  16  16  16  16
#     4  10  21  37  58  84 115 148 187 234 285 343
#     4   9  19  37  60  84 112 147 185 231 288 345
#     4  10  21  37  57  80 108 144 186 233 283 333
#     4  10  22  38  56  81 113 150 191 234 282 339
#     4  10  20  36  58  83 112 147 190 238 287 341
#     4  11  22  36  56  81 113 151 189 230 279 336
#
# _framework density 19.031492
#
# number of rings (size 3 to 8) (size 9 to 14) (size 15 to 20)
#    0.000    2.000    1.667    1.500    0.000    5.667 
#    0.000    3.333    0.000    2.000    0.000    0.000 
#    0.000    0.000    0.000    0.000    0.000    0.000 
#
# Total GULP energy -595331.125521 kJ/mol
# GULP energy per Si atom -12402.731782 kJ/mol
# Density = 1.898818 g / cm^3
# Si number density = 19.031492 Si / 1000 Ang^3
#
#
#
# Elastic Constant Matrix: (Units=GPa)
#
#
# Indices 1 2 3 4 5 6 
#
# 1 75.2197 34.2812 52.5751 0.0000 0.0000 0.0000
# 2 34.2812 84.6433 46.2969 0.0000 0.0000 0.0000
# 3 52.5751 46.2969 126.9461 0.0000 0.0000 0.0000
# 4 0.0000 0.0000 0.0000 35.5719 0.0000 0.0000
# 5 0.0000 0.0000 0.0000 0.0000 34.7439 0.0000
# 6 0.0000 0.0000 0.0000 0.0000 0.0000 31.2088
#
#
#
# Elastic Compliance Matrix: (Units=1/GPa)
#
#
# Indices 1 2 3 4 5 6 
#
# 1 0.019969 -0.004452 -0.006647 0.000000 0.000000 0.000000
# 2 -0.004452 0.015751 -0.003900 0.000000 0.000000 0.000000
# 3 -0.006647 -0.003900 0.012053 0.000000 0.000000 0.000000
# 4 0.000000 0.000000 0.000000 0.028112 0.000000 0.000000
# 5 0.000000 0.000000 0.000000 0.000000 0.028782 0.000000
# 6 0.000000 0.000000 0.000000 0.000000 0.000000 0.032042
#
#
# Mechanical properties :
#
#
# Convention : Reuss Voigt Hill
#
# Bulk Modulus (GPa) = 56.26151 61.45729 58.85940
# Shear Modulus (GPa) = 28.96336 30.54864 29.75600
#
# Velocity S-wave (km/s) = 3.90534 4.01079 3.95842
# Velocity P-wave (km/s) = 7.06839 7.33561 7.20324
#
# Compressibility (1/GPa) = 0.01777414
#
# Stress axis : x y z
#
# Youngs Moduli (GPa) = 50.07732 63.48868 82.97027
#
# Poissons Ratio (x) = 0.28267 0.55147
# Poissons Ratio (y) = 0.22296 0.32362
# Poissons Ratio (z) = 0.33284 0.24763
#
# Static dielectric constant tensor:
#      x y z
#    x 3.513320 0.000000 0.000000 
#    y 0.000000 3.397030 0.000000 
#    z 0.000000 0.000000 3.519680 
# 
# 
# High freq. dielectric constant tensor:
#      x y z
#    x 1.740770 0.000000 0.000000 
#    y 0.000000 1.731980 0.000000 
#    z 0.000000 0.000000 1.744660 
# 
# From -- ./inp_files/64251.got.cif
#   From: 2010.03.12/outbox.cif.g09.slc.cpg/sg74_33_cif.got.tgz:64251.got - 2010.04.16 15:46:19.
