data_PCOD8300472
_publ_section_title
;
Structure prediction by ZEFSAII (Michael W. Deem and Ramdas Pophale) SiO2 
 PCOD8300472
Probable space group: I M M A
;
_chemical_formula_sum "Si O2"
_cell_formula_units_Z 72
_cell_length_a 14.332841
_cell_length_b 8.832059
_cell_length_c 29.961434
_cell_angle_alpha 90.000000
_cell_angle_beta 90.000000
_cell_angle_gamma 90.000000
_cell_volume 3792.772908
_symmetry_space_group_name_H-M "I M M A"
_symmetry_group_IT_number 74
_symmetry_cell_setting 'orthorhombic'
loop_
_space_group_symop_operation_xyz
x,y,z
-x,1/2-y,z
x,-y,-z
-x,1/2+y,-z
-x,-y,-z
x,1/2+y,-z
-x,y,z
x,1/2-y,z
1/2+x,1/2+y,1/2+z
1/2-x,-y,1/2+z
1/2+x,1/2-y,1/2-z
1/2-x,y,1/2-z
1/2-x,1/2-y,1/2-z
1/2+x,y,1/2-z
1/2-x,1/2+y,1/2+z
1/2+x,-y,1/2+z
loop_
_atom_site_type_symbol
_atom_site_label
_atom_site_fract_x
_atom_site_fract_y
_atom_site_fract_z
Si Si1 0.000000 0.929717 0.337296
Si Si2 0.702246 0.429271 0.548992
Si Si3 0.500000 0.571456 0.264338
Si Si4 0.686850 0.926799 0.709211
Si Si5 0.314518 0.572183 0.873861
Si Si6 0.500000 0.575562 0.453017
O O1 0.000000 0.750000 0.338550
O O2 0.000000 0.990856 0.286395
O O3 0.089630 0.990890 0.362617
O O4 0.710655 0.500000 0.500000
O O5 0.720663 0.250000 0.546718
O O6 0.779426 0.508308 0.579241
O O7 0.598757 0.465863 0.570713
O O8 0.500000 0.750000 0.264746
O O9 0.410323 0.514027 0.290943
O O10 0.666218 0.750000 0.714580
O O11 0.750000 0.985964 0.750000
O O12 0.738438 0.966865 0.663541
O O13 0.332614 0.750000 0.877398
O O14 0.500000 0.750000 0.464009
O O15 0.500000 0.500000 0.500000
#
# Coordination Sequence:
#
# PCOD8300472 Si02
#       6
#     8  16   8  16  16   8
#     4  11  23  39  59  85 115 153 195 242 298 355
#     4  10  20  37  60  88 122 157 196 242 292 348
#     4  11  23  36  58  88 120 154 195 246 298 347
#     4  10  21  38  59  83 115 155 196 238 287 346
#     4  11  23  39  61  87 115 154 200 244 292 349
#     4   8  16  31  54  81 111 149 185 224 279 338
#
# _framework density 18.983473
#
# number of rings (size 3 to 8) (size 9 to 14) (size 15 to 20)
#    0.000    1.778    2.222    2.000    0.000    4.889 
#    0.000    2.778    0.000    0.000    0.000    0.000 
#    0.000    0.000    0.000    0.000    0.000    0.000 
#
# Total GULP energy -446340.614785 kJ/mol
# GULP energy per Si atom -12398.350411 kJ/mol
# Density = 1.894027 g / cm^3
# Si number density = 18.983473 Si / 1000 Ang^3
#
#
#
# Elastic Constant Matrix: (Units=GPa)
#
#
# Indices 1 2 3 4 5 6 
#
# 1 153.5207 60.0290 56.0672 0.0000 0.0000 0.0000
# 2 60.0290 71.8040 42.7286 0.0000 0.0000 0.0000
# 3 56.0672 42.7286 94.6619 0.0000 0.0000 0.0000
# 4 0.0000 0.0000 0.0000 28.7575 0.0000 0.0000
# 5 0.0000 0.0000 0.0000 0.0000 30.6409 0.0000
# 6 0.0000 0.0000 0.0000 0.0000 0.0000 21.3122
#
#
#
# Elastic Compliance Matrix: (Units=1/GPa)
#
#
# Indices 1 2 3 4 5 6 
#
# 1 0.010271 -0.006791 -0.003018 0.000000 0.000000 0.000000
# 2 -0.006791 0.023531 -0.006599 0.000000 0.000000 0.000000
# 3 -0.003018 -0.006599 0.015330 0.000000 0.000000 0.000000
# 4 0.000000 0.000000 0.000000 0.034774 0.000000 0.000000
# 5 0.000000 0.000000 0.000000 0.000000 0.032636 0.000000
# 6 0.000000 0.000000 0.000000 0.000000 0.000000 0.046921
#
#
# Mechanical properties :
#
#
# Convention : Reuss Voigt Hill
#
# Bulk Modulus (GPa) = 61.29012 70.84848 66.06930
# Shear Modulus (GPa) = 24.78681 26.88624 25.83653
#
# Velocity S-wave (km/s) = 3.61737 3.76746 3.69318
# Velocity P-wave (km/s) = 7.05715 7.50514 7.28459
#
# Compressibility (1/GPa) = 0.01631584
#
# Stress axis : x y z
#
# Youngs Moduli (GPa) = 97.35687 42.49676 65.22949
#
# Poissons Ratio (x) = 0.28859 0.19689
# Poissons Ratio (y) = 0.66114 0.43047
# Poissons Ratio (z) = 0.29386 0.28045
#
# Static dielectric constant tensor:
#      x y z
#    x 3.703580 0.000000 0.000000 
#    y 0.000000 3.350900 0.000000 
#    z 0.000000 0.000000 3.335420 
# 
# 
# High freq. dielectric constant tensor:
#      x y z
#    x 1.750110 0.000000 0.000000 
#    y 0.000000 1.745980 0.000000 
#    z 0.000000 0.000000 1.723850 
# 
# From -- ./inp_files/63643.got.cif
#   From: 2010.03.12/outbox.cif.g09.slc.cpg/sg74_32_cif.got.tgz:63643.got - 2010.04.16 15:46:19.
