data_PCOD8300856
_publ_section_title
;
Structure prediction by ZEFSAII (Michael W. Deem and Ramdas Pophale) SiO2 
 PCOD8300856
Probable space group: I M M A
;
_chemical_formula_sum "Si O2"
_cell_formula_units_Z 96
_cell_length_a 19.671542
_cell_length_b 9.289277
_cell_length_c 28.608338
_cell_angle_alpha 90.000000
_cell_angle_beta 90.000000
_cell_angle_gamma 90.000000
_cell_volume 5227.727555
_symmetry_space_group_name_H-M "I M M A"
_symmetry_group_IT_number 74
_symmetry_cell_setting 'orthorhombic'
loop_
_space_group_symop_operation_xyz
x,y,z
-x,1/2-y,z
x,-y,-z
-x,1/2+y,-z
-x,-y,-z
x,1/2+y,-z
-x,y,z
x,1/2-y,z
1/2+x,1/2+y,1/2+z
1/2-x,-y,1/2+z
1/2+x,1/2-y,1/2-z
1/2-x,y,1/2-z
1/2-x,1/2-y,1/2-z
1/2+x,y,1/2-z
1/2-x,1/2+y,1/2+z
1/2+x,-y,1/2+z
loop_
_atom_site_type_symbol
_atom_site_label
_atom_site_fract_x
_atom_site_fract_y
_atom_site_fract_z
Si Si1 0.147024 0.591093 0.785873
Si Si2 0.314604 0.582731 0.098939
Si Si3 0.421791 0.419431 0.632737
Si Si4 0.577751 0.913275 0.953520
Si Si5 0.325333 0.919245 0.451425
Si Si6 0.803061 0.410586 0.311444
O O1 0.115315 0.750000 0.793350
O O2 0.105581 0.483412 0.818735
O O3 0.144770 0.548265 0.730754
O O4 0.225896 0.595781 0.796200
O O5 0.332257 0.750000 0.094956
O O6 0.378756 0.486388 0.086260
O O7 0.249962 0.543330 0.066863
O O8 0.303259 0.540624 0.152164
O O9 0.500000 0.464420 0.625058
O O10 0.412951 0.250000 0.637576
O O11 0.378896 0.474073 0.587794
O O12 0.500000 0.921469 0.937586
O O13 0.601246 0.750000 0.962060
O O14 0.592040 0.000000 0.000000
O O15 0.333968 0.750000 0.460390
O O16 0.339624 0.000000 0.500000
O O17 0.822735 0.250000 0.330901
#
# Coordination Sequence:
#
# PCOD8300856 Si02
#       6
#    16  16  16  16  16  16
#     4   9  18  34  56  82 108 138 179 223 269 327
#     4  11  21  34  55  84 113 145 184 227 275 328
#     4  10  21  38  57  78 111 150 187 232 284 334
#     4  10  21  37  56  78 107 144 183 223 271 328
#     4  10  22  37  53  79 110 143 186 233 280 326
#     4   9  18  33  55  82 111 140 174 221 274 324
#
# _framework density 18.363620000000001
#
# number of rings (size 3 to 8) (size 9 to 14) (size 15 to 20)
#    0.000    2.167    1.667    2.500    0.000    5.667 
#    0.000    2.500    0.000    1.000    0.000    0.000 
#    0.000    0.000    0.000    0.000    0.000    0.000 
#
# Total GULP energy -594959.854723 kJ/mol
# GULP energy per Si atom -12394.996973 kJ/mol
# Density = 1.832182 g / cm^3
# Si number density = 18.363620 Si / 1000 Ang^3
#
#
#
# Elastic Constant Matrix: (Units=GPa)
#
#
# Indices 1 2 3 4 5 6 
#
# 1 61.2958 42.5780 41.0126 0.0000 0.0000 0.0000
# 2 42.5780 82.1236 42.9938 0.0000 0.0000 0.0000
# 3 41.0126 42.9938 79.5872 0.0000 0.0000 0.0000
# 4 0.0000 0.0000 0.0000 32.7640 0.0000 0.0000
# 5 0.0000 0.0000 0.0000 0.0000 16.5493 0.0000
# 6 0.0000 0.0000 0.0000 0.0000 0.0000 18.0560
#
#
#
# Elastic Compliance Matrix: (Units=1/GPa)
#
#
# Indices 1 2 3 4 5 6 
#
# 1 0.030230 -0.010482 -0.009915 0.000000 0.000000 0.000000
# 2 -0.010482 0.020613 -0.005734 0.000000 0.000000 0.000000
# 3 -0.009915 -0.005734 0.020772 0.000000 0.000000 0.000000
# 4 0.000000 0.000000 0.000000 0.030521 0.000000 0.000000
# 5 0.000000 0.000000 0.000000 0.000000 0.060425 0.000000
# 6 0.000000 0.000000 0.000000 0.000000 0.000000 0.055383
#
#
# Mechanical properties :
#
#
# Convention : Reuss Voigt Hill
#
# Bulk Modulus (GPa) = 51.67368 52.90839 52.29104
# Shear Modulus (GPa) = 18.07284 19.90200 18.98742
#
# Velocity S-wave (km/s) = 3.14054 3.29564 3.21903
# Velocity P-wave (km/s) = 6.43047 6.58451 6.50794
#
# Compressibility (1/GPa) = 0.01935221
#
# Stress axis : x y z
#
# Youngs Moduli (GPa) = 33.07994 48.51269 48.14202
#
# Poissons Ratio (x) = 0.50851 0.47735
# Poissons Ratio (y) = 0.34675 0.27604
# Poissons Ratio (z) = 0.32800 0.27817
#
# Static dielectric constant tensor:
#      x y z
#    x 3.344430 0.000000 0.000000 
#    y 0.000000 3.258270 0.000000 
#    z 0.000000 0.000000 -26.678780 
# 
# 
# High freq. dielectric constant tensor:
#      x y z
#    x 1.700150 0.000000 0.000000 
#    y 0.000000 1.713450 0.000000 
#    z 0.000000 0.000000 1.715450 
# 
# From -- ./inp_files/64260.got.cif
#   From: 2010.03.12/outbox.cif.g09.slc.cpg/sg74_33_cif.got.tgz:64260.got - 2010.04.16 15:46:19.
