data_PCOD8300324
_publ_section_title
;
Structure prediction by ZEFSAII (Michael W. Deem and Ramdas Pophale) SiO2 
 PCOD8300324
Probable space group: I M M A
;
_chemical_formula_sum "Si O2"
_cell_formula_units_Z 96
_cell_length_a 8.601083
_cell_length_b 23.654141
_cell_length_c 25.280494
_cell_angle_alpha 90.000000
_cell_angle_beta 90.000000
_cell_angle_gamma 90.000000
_cell_volume 5143.347600
_symmetry_space_group_name_H-M "I M M A"
_symmetry_group_IT_number 74
_symmetry_cell_setting 'orthorhombic'
loop_
_space_group_symop_operation_xyz
x,y,z
-x,1/2-y,z
x,-y,-z
-x,1/2+y,-z
-x,-y,-z
x,1/2+y,-z
-x,y,z
x,1/2-y,z
1/2+x,1/2+y,1/2+z
1/2-x,-y,1/2+z
1/2+x,1/2-y,1/2-z
1/2-x,y,1/2-z
1/2-x,1/2-y,1/2-z
1/2+x,y,1/2-z
1/2-x,1/2+y,1/2+z
1/2+x,-y,1/2+z
loop_
_atom_site_type_symbol
_atom_site_label
_atom_site_fract_x
_atom_site_fract_y
_atom_site_fract_z
Si Si1 0.815299 0.750000 0.943278
Si Si2 0.184206 0.935261 0.807497
Si Si3 0.316471 0.555320 0.193284
Si Si4 0.184519 0.364635 0.400280
Si Si5 0.816721 0.134710 0.597848
Si Si6 0.182960 0.250000 0.936061
Si Si7 0.815355 0.562994 0.500438
O O1 0.750661 0.803275 0.911988
O O2 0.000000 0.750000 0.942289
O O3 0.751292 0.750000 0.003754
O O4 0.250000 0.921130 0.750000
O O5 0.244221 0.886365 0.845787
O O6 0.000000 0.935867 0.805716
O O7 0.244545 0.996387 0.826899
O O8 0.500000 0.546730 0.197162
O O9 0.250000 0.573330 0.250000
O O10 0.270766 0.604502 0.152526
O O11 0.240653 0.406613 0.446437
O O12 0.000000 0.362073 0.396083
O O13 0.740109 0.195964 0.596468
O O14 0.749676 0.097313 0.549664
O O15 0.000000 0.142104 0.592371
O O16 0.000000 0.250000 0.937867
O O17 0.744553 0.500000 0.500000
O O18 0.000000 0.560239 0.497038
#
# Coordination Sequence:
#
# PCOD8300324 Si02
#       7
#     8  16  16  16  16   8  16
#     4  11  23  39  56  81 118 155 191 233 289 344
#     4  11  22  38  60  86 119 154 190 234 285 341
#     4  10  20  36  60  87 116 151 192 238 287 343
#     4  11  21  36  60  85 113 150 195 237 282 337
#     4  10  20  36  58  82 111 150 196 237 280 341
#     4  11  23  37  56  81 116 153 190 239 290 340
#     4   9  17  30  52  82 112 141 180 230 279 334
#
# _framework density 18.664885999999999
#
# number of rings (size 3 to 8) (size 9 to 14) (size 15 to 20)
#    0.000    1.667    1.667    5.000    0.000    4.667 
#    0.000    0.833    0.000    2.500    0.000    0.000 
#    0.000    0.000    0.000    0.000    0.000    0.000 
#
# Total GULP energy -595384.339475 kJ/mol
# GULP energy per Si atom -12403.840406 kJ/mol
# Density = 1.862240 g / cm^3
# Si number density = 18.664886 Si / 1000 Ang^3
#
#
#
# Elastic Constant Matrix: (Units=GPa)
#
#
# Indices 1 2 3 4 5 6 
#
# 1 87.7364 50.1997 52.2683 0.0000 0.0000 0.0000
# 2 50.1997 173.9201 86.4282 0.0000 0.0000 0.0000
# 3 52.2683 86.4282 121.6474 0.0000 0.0000 0.0000
# 4 0.0000 0.0000 0.0000 30.2481 0.0000 0.0000
# 5 0.0000 0.0000 0.0000 0.0000 26.8618 0.0000
# 6 0.0000 0.0000 0.0000 0.0000 0.0000 25.5406
#
#
#
# Elastic Compliance Matrix: (Units=1/GPa)
#
#
# Indices 1 2 3 4 5 6 
#
# 1 0.015683 -0.001821 -0.005445 0.000000 0.000000 0.000000
# 2 -0.001821 0.009099 -0.005682 0.000000 0.000000 0.000000
# 3 -0.005445 -0.005682 0.014597 0.000000 0.000000 0.000000
# 4 0.000000 0.000000 0.000000 0.033060 0.000000 0.000000
# 5 0.000000 0.000000 0.000000 0.000000 0.037228 0.000000
# 6 0.000000 0.000000 0.000000 0.000000 0.000000 0.039153
#
#
# Mechanical properties :
#
#
# Convention : Reuss Voigt Hill
#
# Bulk Modulus (GPa) = 74.16601 84.56625 79.36613
# Shear Modulus (GPa) = 27.89995 29.49061 28.69528
#
# Velocity S-wave (km/s) = 3.87044 3.97924 3.92521
# Velocity P-wave (km/s) = 7.73276 8.15589 7.94714
#
# Compressibility (1/GPa) = 0.01348327
#
# Stress axis : x y z
#
# Youngs Moduli (GPa) = 63.76137 109.90003 68.50619
#
# Poissons Ratio (x) = 0.20013 0.37301
# Poissons Ratio (y) = 0.11611 0.38928
# Poissons Ratio (z) = 0.34718 0.62449
#
# Static dielectric constant tensor:
#      x y z
#    x 3.318020 0.000000 0.000000 
#    y 0.000000 3.506260 0.000000 
#    z 0.000000 0.000000 3.769150 
# 
# 
# High freq. dielectric constant tensor:
#      x y z
#    x 1.719060 0.000000 0.000000 
#    y 0.000000 1.729260 0.000000 
#    z 0.000000 0.000000 1.727740 
# 
# From -- ./inp_files/57370.got.cif
#   From: 2010.03.12/outbox.cif.g09.slc.cpg/sg74_29_cif.got.tgz:57370.got - 2010.04.16 15:46:19.
