data_PCOD8300618
_publ_section_title
;
Structure prediction by ZEFSAII (Michael W. Deem and Ramdas Pophale) SiO2 
 PCOD8300618
Probable space group: I M M A
;
_chemical_formula_sum "Si O2"
_cell_formula_units_Z 64
_cell_length_a 17.737609
_cell_length_b 20.908664
_cell_length_c 8.569304
_cell_angle_alpha 90.000000
_cell_angle_beta 90.000000
_cell_angle_gamma 90.000000
_cell_volume 3178.095261
_symmetry_space_group_name_H-M "I M M A"
_symmetry_group_IT_number 74
_symmetry_cell_setting 'orthorhombic'
loop_
_space_group_symop_operation_xyz
x,y,z
-x,1/2-y,z
x,-y,-z
-x,1/2+y,-z
-x,-y,-z
x,1/2+y,-z
-x,y,z
x,1/2-y,z
1/2+x,1/2+y,1/2+z
1/2-x,-y,1/2+z
1/2+x,1/2-y,1/2-z
1/2-x,y,1/2-z
1/2-x,1/2-y,1/2-z
1/2+x,y,1/2-z
1/2-x,1/2+y,1/2+z
1/2+x,-y,1/2+z
loop_
_atom_site_type_symbol
_atom_site_label
_atom_site_fract_x
_atom_site_fract_y
_atom_site_fract_z
Si Si1 0.792386 0.373921 0.997048
Si Si2 0.250000 0.526995 0.750000
Si Si3 0.000000 0.250000 0.340501
Si Si4 0.653216 0.411164 0.824054
Si Si5 0.872387 0.250000 0.088683
Si Si6 0.500000 0.359084 0.909368
Si Si7 0.500000 0.250000 0.660845
O O1 0.709429 0.364516 0.921220
O O2 0.850746 0.390235 0.857585
O O3 0.792336 0.431208 0.121058
O O4 0.817834 0.311013 0.088591
O O5 0.313518 0.483062 0.833398
O O6 0.076199 0.250000 0.241264
O O7 0.000000 0.184537 0.437480
O O8 0.571931 0.405970 0.904113
O O9 0.924072 0.250000 0.937093
O O10 0.500000 0.313745 0.760889
#
# Coordination Sequence:
#
# PCOD8300618 Si02
#       7
#    16   8   4  16   8   8   4
#     4  10  22  39  68  92 128 162 215 262 318 366
#     4  10  22  43  62  97 132 156 214 276 304 370
#     4  10  28  40  58  96 148 156 208 264 326 376
#     4  10  21  41  66  95 122 169 212 261 310 383
#     4  11  22  42  64  94 125 170 204 262 321 382
#     4  11  22  42  64  92 127 172 205 261 324 376
#     4  10  20  40  62  88 134 148 208 262 302 380
#
# _framework density 20.137848000000002
#
# number of rings (size 3 to 8) (size 9 to 14) (size 15 to 20)
#    0.000    2.000    2.500    3.000    3.500    4.500 
#    0.000    7.500    0.000    0.000    0.000    0.000 
#    0.000    0.000    0.000    0.000    0.000    0.000 
#
# Total GULP energy -396750.078927 kJ/mol
# GULP energy per Si atom -12398.439966 kJ/mol
# Density = 2.009201 g / cm^3
# Si number density = 20.137848 Si / 1000 Ang^3
#
#
#
# Elastic Constant Matrix: (Units=GPa)
#
#
# Indices 1 2 3 4 5 6 
#
# 1 144.4728 77.6500 58.0375 0.0000 0.0000 0.0000
# 2 77.6500 152.2978 57.7555 0.0000 0.0000 0.0000
# 3 58.0375 57.7555 114.9487 0.0000 0.0000 0.0000
# 4 0.0000 0.0000 0.0000 19.4849 0.0000 0.0000
# 5 0.0000 0.0000 0.0000 0.0000 10.8403 0.0000
# 6 0.0000 0.0000 0.0000 0.0000 0.0000 26.7194
#
#
#
# Elastic Compliance Matrix: (Units=1/GPa)
#
#
# Indices 1 2 3 4 5 6 
#
# 1 0.010406 -0.004093 -0.003197 0.000000 0.000000 0.000000
# 2 -0.004093 0.009722 -0.002818 0.000000 0.000000 0.000000
# 3 -0.003197 -0.002818 0.011730 0.000000 0.000000 0.000000
# 4 0.000000 0.000000 0.000000 0.051322 0.000000 0.000000
# 5 0.000000 0.000000 0.000000 0.000000 0.092248 0.000000
# 6 0.000000 0.000000 0.000000 0.000000 0.000000 0.037426
#
#
# Mechanical properties :
#
#
# Convention : Reuss Voigt Hill
#
# Bulk Modulus (GPa) = 85.90726 88.73391 87.32058
# Shear Modulus (GPa) = 21.10142 25.96067 23.53105
#
# Velocity S-wave (km/s) = 3.24056 3.59437 3.42204
# Velocity P-wave (km/s) = 7.53352 7.83485 7.68566
#
# Compressibility (1/GPa) = 0.01164046
#
# Stress axis : x y z
#
# Youngs Moduli (GPa) = 96.09743 102.86351 85.25258
#
# Poissons Ratio (x) = 0.42102 0.27259
# Poissons Ratio (y) = 0.39333 0.24024
# Poissons Ratio (z) = 0.30727 0.28987
#
# Static dielectric constant tensor:
#      x y z
#    x 3.590980 0.000000 0.000000 
#    y 0.000000 3.533590 0.000000 
#    z 0.000000 0.000000 3.823200 
# 
# 
# High freq. dielectric constant tensor:
#      x y z
#    x 1.772890 0.000000 0.000000 
#    y 0.000000 1.779750 0.000000 
#    z 0.000000 0.000000 1.800580 
# 
# From -- ./inp_files/10380.got.cif
#   From: 2010.03.12/outbox.cif.g09.slc.cpg/sg74_6_cif.got.tgz:10380.got - 2010.04.16 15:46:19.
