data_PCOD8300827
_publ_section_title
;
Structure prediction by ZEFSAII (Michael W. Deem and Ramdas Pophale) SiO2 
 PCOD8300827
Probable space group: I M M A
;
_chemical_formula_sum "Si O2"
_cell_formula_units_Z 96
_cell_length_a 22.939090
_cell_length_b 18.155378
_cell_length_c 10.969787
_cell_angle_alpha 90.000000
_cell_angle_beta 90.000000
_cell_angle_gamma 90.000000
_cell_volume 4568.563606
_symmetry_space_group_name_H-M "I M M A"
_symmetry_group_IT_number 74
_symmetry_cell_setting 'orthorhombic'
loop_
_space_group_symop_operation_xyz
x,y,z
-x,1/2-y,z
x,-y,-z
-x,1/2+y,-z
-x,-y,-z
x,1/2+y,-z
-x,y,z
x,1/2-y,z
1/2+x,1/2+y,1/2+z
1/2-x,-y,1/2+z
1/2+x,1/2-y,1/2-z
1/2-x,y,1/2-z
1/2-x,1/2-y,1/2-z
1/2+x,y,1/2-z
1/2-x,1/2+y,1/2+z
1/2+x,-y,1/2+z
loop_
_atom_site_type_symbol
_atom_site_label
_atom_site_fract_x
_atom_site_fract_y
_atom_site_fract_z
Si Si1 0.066798 0.667623 0.503364
Si Si2 0.261146 0.583383 0.027721
Si Si3 0.349707 0.104869 0.176232
Si Si4 0.932871 0.422921 0.930893
Si Si5 0.868802 0.435951 0.681110
Si Si6 0.656356 0.836660 0.560474
O O1 0.077168 0.750000 0.451144
O O2 0.099067 0.659597 0.633290
O O3 0.088795 0.607219 0.408694
O O4 0.000000 0.652392 0.529785
O O5 0.301467 0.587456 0.150472
O O6 0.241716 0.500000 0.000000
O O7 0.295397 0.616771 0.912858
O O8 0.202961 0.632737 0.039282
O O9 0.329637 0.123816 0.311783
O O10 0.374555 0.022695 0.159500
O O11 0.889418 0.419202 0.816784
O O12 0.000000 0.406897 0.894275
O O13 0.927534 0.500000 0.000000
O O14 0.909096 0.358814 0.019667
O O15 0.661685 0.750000 0.572689
#
# Coordination Sequence:
#
# PCOD8300827 Si02
#       6
#    16  16  16  16  16  16
#     4  10  21  36  58  91 131 171 212 268 331 385
#     4   9  21  39  65  95 125 161 205 263 316 381
#     4  10  21  39  63  95 125 166 215 263 322 383
#     4  11  24  43  66  91 124 170 223 270 314 379
#     4  10  21  41  67  93 122 164 222 273 320 376
#     4  12  25  41  63  94 134 171 208 261 325 392
#
# _framework density 21.013169999999999
#
# number of rings (size 3 to 8) (size 9 to 14) (size 15 to 20)
#    0.000    1.667    1.667    3.500    0.000    8.333 
#    0.000    0.833    0.000    0.000    0.000    0.000 
#    0.000    0.000    0.000    0.000    0.000    0.000 
#
# Total GULP energy -595077.404637 kJ/mol
# GULP energy per Si atom -12397.445930 kJ/mol
# Density = 2.096534 g / cm^3
# Si number density = 21.013170 Si / 1000 Ang^3
#
#
#
# Elastic Constant Matrix: (Units=GPa)
#
#
# Indices 1 2 3 4 5 6 
#
# 1 117.4982 64.9663 47.3446 0.0000 0.0000 0.0000
# 2 64.9663 112.4965 24.7150 0.0000 0.0000 0.0000
# 3 47.3446 24.7150 89.9791 0.0000 0.0000 0.0000
# 4 0.0000 0.0000 0.0000 21.6277 0.0000 0.0000
# 5 0.0000 0.0000 0.0000 0.0000 26.7473 0.0000
# 6 0.0000 0.0000 0.0000 0.0000 0.0000 24.1673
#
#
#
# Elastic Compliance Matrix: (Units=1/GPa)
#
#
# Indices 1 2 3 4 5 6 
#
# 1 0.014916 -0.007332 -0.005834 0.000000 0.000000 0.000000
# 2 -0.007332 0.013064 0.000269 0.000000 0.000000 0.000000
# 3 -0.005834 0.000269 0.014110 0.000000 0.000000 0.000000
# 4 0.000000 0.000000 0.000000 0.046237 0.000000 0.000000
# 5 0.000000 0.000000 0.000000 0.000000 0.037387 0.000000
# 6 0.000000 0.000000 0.000000 0.000000 0.000000 0.041378
#
#
# Mechanical properties :
#
#
# Convention : Reuss Voigt Hill
#
# Bulk Modulus (GPa) = 61.36568 66.00284 63.68426
# Shear Modulus (GPa) = 25.21220 26.70498 25.95859
#
# Velocity S-wave (km/s) = 3.46761 3.56879 3.51857
# Velocity P-wave (km/s) = 6.73047 6.96133 6.84687
#
# Compressibility (1/GPa) = 0.01629575
#
# Stress axis : x y z
#
# Youngs Moduli (GPa) = 67.04430 76.54563 70.87417
#
# Poissons Ratio (x) = 0.56122 0.41350
# Poissons Ratio (y) = 0.49156 -0.01910
# Poissons Ratio (z) = 0.39115 -0.02063
#
# Static dielectric constant tensor:
#      x y z
#    x 3.882740 0.000000 0.000000 
#    y 0.000000 3.721050 0.000000 
#    z 0.000000 0.000000 3.887840 
# 
# 
# High freq. dielectric constant tensor:
#      x y z
#    x 1.830960 0.000000 0.000000 
#    y 0.000000 1.815320 0.000000 
#    z 0.000000 0.000000 1.819080 
# 
# From -- ./inp_files/25158.got.cif
#   From: 2010.03.12/outbox.cif.g09.slc.cpg/sg74_13_cif.got.tgz:25158.got - 2010.04.16 15:46:19.
