data_PCOD8300821
_publ_section_title
;
Structure prediction by ZEFSAII (Michael W. Deem and Ramdas Pophale) SiO2 
 PCOD8300821
Probable space group: I M M A
;
_chemical_formula_sum "Si O2"
_cell_formula_units_Z 104
_cell_length_a 25.805947
_cell_length_b 9.261207
_cell_length_c 21.376030
_cell_angle_alpha 90.000000
_cell_angle_beta 90.000000
_cell_angle_gamma 90.000000
_cell_volume 5108.747552
_symmetry_space_group_name_H-M "I M M A"
_symmetry_group_IT_number 74
_symmetry_cell_setting 'orthorhombic'
loop_
_space_group_symop_operation_xyz
x,y,z
-x,1/2-y,z
x,-y,-z
-x,1/2+y,-z
-x,-y,-z
x,1/2+y,-z
-x,y,z
x,1/2-y,z
1/2+x,1/2+y,1/2+z
1/2-x,-y,1/2+z
1/2+x,1/2-y,1/2-z
1/2-x,y,1/2-z
1/2-x,1/2-y,1/2-z
1/2+x,y,1/2-z
1/2-x,1/2+y,1/2+z
1/2+x,-y,1/2+z
loop_
_atom_site_type_symbol
_atom_site_label
_atom_site_fract_x
_atom_site_fract_y
_atom_site_fract_z
Si Si1 0.118408 0.089054 0.438961
Si Si2 0.611675 0.081805 0.614673
Si Si3 0.058456 0.412370 0.321505
Si Si4 0.702562 0.079528 0.439726
Si Si5 0.000000 0.918218 0.065571
Si Si6 0.291599 0.081118 0.152288
Si Si7 0.855082 0.081519 0.745882
O O1 0.131904 0.250000 0.460873
O O2 0.067122 0.083068 0.396168
O O3 0.166702 0.028753 0.398982
O O4 0.107161 0.000000 0.500000
O O5 0.620533 0.250000 0.599246
O O6 0.550951 0.040927 0.606486
O O7 0.633937 0.042416 0.682536
O O8 0.644811 0.984142 0.567322
O O9 0.071906 0.250000 0.297269
O O10 0.093723 0.530854 0.289394
O O11 0.000000 0.454040 0.305918
O O12 0.700758 0.250000 0.452227
O O13 0.735559 0.043963 0.376866
O O14 0.728006 0.000000 0.500000
O O15 0.000000 0.750000 0.049428
O O16 0.000000 0.000000 0.000000
O O17 0.297689 0.250000 0.166950
O O18 0.303825 0.998268 0.217672
O O19 0.846823 0.250000 0.735532
#
# Coordination Sequence:
#
# PCOD8300821 Si02
#       7
#    16  16  16  16   8  16  16
#     4   9  17  30  48  71 102 139 182 228 279 336
#     4  10  23  41  61  87 120 156 192 241 298 350
#     4   9  19  35  52  72 105 147 187 236 293 351
#     4  11  23  39  62  90 120 155 195 241 291 348
#     4  10  22  42  64  86 118 156 193 238 293 348
#     4   9  20  38  57  80 115 155 189 231 288 347
#     4  10  21  36  58  86 114 148 193 244 292 341
#
# _framework density 20.357240999999998
#
# number of rings (size 3 to 8) (size 9 to 14) (size 15 to 20)
#    0.000    2.308    0.000    2.769    1.077    8.000 
#    0.000    3.077    0.000    0.000    0.000    0.000 
#    0.000    0.000    0.000    0.000    0.000    0.000 
#
# Total GULP energy -644632.318620 kJ/mol
# GULP energy per Si atom -12396.775358 kJ/mol
# Density = 2.031091 g / cm^3
# Si number density = 20.357241 Si / 1000 Ang^3
#
#
#
# Elastic Constant Matrix: (Units=GPa)
#
#
# Indices 1 2 3 4 5 6 
#
# 1 108.7185 40.9215 36.2626 0.0000 0.0000 0.0000
# 2 40.9215 75.5212 56.8488 0.0000 0.0000 0.0000
# 3 36.2626 56.8488 98.0365 0.0000 0.0000 0.0000
# 4 0.0000 0.0000 0.0000 34.7795 0.0000 0.0000
# 5 0.0000 0.0000 0.0000 0.0000 21.1221 0.0000
# 6 0.0000 0.0000 0.0000 0.0000 0.0000 24.9082
#
#
#
# Elastic Compliance Matrix: (Units=1/GPa)
#
#
# Indices 1 2 3 4 5 6 
#
# 1 0.011627 -0.005435 -0.001149 0.000000 0.000000 0.000000
# 2 -0.005435 0.026039 -0.013089 0.000000 0.000000 0.000000
# 3 -0.001149 -0.013089 0.018215 0.000000 0.000000 0.000000
# 4 0.000000 0.000000 0.000000 0.028753 0.000000 0.000000
# 5 0.000000 0.000000 0.000000 0.000000 0.047344 0.000000
# 6 0.000000 0.000000 0.000000 0.000000 0.000000 0.040147
#
#
# Mechanical properties :
#
#
# Convention : Reuss Voigt Hill
#
# Bulk Modulus (GPa) = 60.47758 61.14910 60.81334
# Shear Modulus (GPa) = 23.04320 26.04485 24.54402
#
# Velocity S-wave (km/s) = 3.36808 3.58074 3.47604
# Velocity P-wave (km/s) = 6.70059 6.87014 6.78589
#
# Compressibility (1/GPa) = 0.01653505
#
# Stress axis : x y z
#
# Youngs Moduli (GPa) = 86.00561 38.40352 54.89905
#
# Poissons Ratio (x) = 0.20874 0.06307
# Poissons Ratio (y) = 0.46747 0.71858
# Poissons Ratio (z) = 0.09881 0.50266
#
# Static dielectric constant tensor:
#      x y z
#    x 3.760780 0.000000 0.000000 
#    y 0.000000 3.594470 0.000000 
#    z 0.000000 0.000000 3.697340 
# 
# 
# High freq. dielectric constant tensor:
#      x y z
#    x 1.797170 0.000000 0.000000 
#    y 0.000000 1.788660 0.000000 
#    z 0.000000 0.000000 1.793890 
# 
# From -- ./inp_files/49352.got.cif
#   From: 2010.03.12/outbox.cif.g09.slc.cpg/sg74_25_cif.got.tgz:49352.got - 2010.04.16 15:46:19.
