data_PCOD8300611
_publ_section_title
;
Structure prediction by ZEFSAII (Michael W. Deem and Ramdas Pophale) SiO2 
 PCOD8300611
Probable space group: I M M A
;
_chemical_formula_sum "Si O2"
_cell_formula_units_Z 72
_cell_length_a 15.669302
_cell_length_b 14.516066
_cell_length_c 14.890621
_cell_angle_alpha 90.000000
_cell_angle_beta 90.000000
_cell_angle_gamma 90.000000
_cell_volume 3386.970352
_symmetry_space_group_name_H-M "I M M A"
_symmetry_group_IT_number 74
_symmetry_cell_setting 'orthorhombic'
loop_
_space_group_symop_operation_xyz
x,y,z
-x,1/2-y,z
x,-y,-z
-x,1/2+y,-z
-x,-y,-z
x,1/2+y,-z
-x,y,z
x,1/2-y,z
1/2+x,1/2+y,1/2+z
1/2-x,-y,1/2+z
1/2+x,1/2-y,1/2-z
1/2-x,y,1/2-z
1/2-x,1/2-y,1/2-z
1/2+x,y,1/2-z
1/2-x,1/2+y,1/2+z
1/2+x,-y,1/2+z
loop_
_atom_site_type_symbol
_atom_site_label
_atom_site_fract_x
_atom_site_fract_y
_atom_site_fract_z
Si Si1 0.000000 0.401128 0.954383
Si Si2 0.830661 0.459409 0.685536
Si Si3 0.000000 0.861029 0.248193
Si Si4 0.149474 0.848987 0.933700
Si Si5 0.096221 0.647419 0.736962
Si Si6 0.270043 0.000000 0.000000
O O1 0.000000 0.408385 0.848239
O O2 0.000000 0.500000 0.000000
O O3 0.915173 0.347467 0.982802
O O4 0.750000 0.430471 0.750000
O O5 0.844843 0.569282 0.694265
O O6 0.818926 0.443014 0.577920
O O7 0.913503 0.397835 0.706090
O O8 0.000000 0.750000 0.246537
O O9 0.196840 0.750000 0.932560
O O10 0.095186 0.864274 0.843934
O O11 0.215879 0.930269 0.940617
O O12 0.130096 0.750000 0.710044
O O13 0.000000 0.634359 0.701833
#
# Coordination Sequence:
#
# PCOD8300611 Si02
#       6
#     8  16   8  16  16   8
#     4  12  20  36  67  97 129 167 215 277 352 411
#     4  12  25  45  71  97 132 177 225 278 334 403
#     4  12  28  47  66  94 140 188 229 276 327 394
#     4  11  21  36  62  99 132 159 207 279 349 403
#     4  10  20  39  68 102 133 162 207 278 354 407
#     4  12  26  40  64  94 128 178 228 269 322 397
#
# _framework density 21.257936000000001
#
# number of rings (size 3 to 8) (size 9 to 14) (size 15 to 20)
#    0.000    0.667    5.556    3.667    0.000    3.111 
#    0.000    0.000    0.000    0.000    0.000    0.000 
#    0.000    0.000    0.000    0.000    0.000    0.000 
#
# Total GULP energy -446219.514700 kJ/mol
# GULP energy per Si atom -12394.986519 kJ/mol
# Density = 2.120955 g / cm^3
# Si number density = 21.257936 Si / 1000 Ang^3
#
#
#
# Elastic Constant Matrix: (Units=GPa)
#
#
# Indices 1 2 3 4 5 6 
#
# 1 108.0841 35.2223 31.7159 0.0000 0.0000 0.0000
# 2 35.2223 127.8201 5.9206 0.0000 0.0000 0.0000
# 3 31.7159 5.9206 98.4546 0.0000 0.0000 0.0000
# 4 0.0000 0.0000 0.0000 25.2701 0.0000 0.0000
# 5 0.0000 0.0000 0.0000 0.0000 21.1701 0.0000
# 6 0.0000 0.0000 0.0000 0.0000 0.0000 30.9802
#
#
#
# Elastic Compliance Matrix: (Units=1/GPa)
#
#
# Indices 1 2 3 4 5 6 
#
# 1 0.011216 -0.002931 -0.003437 0.000000 0.000000 0.000000
# 2 -0.002931 0.008612 0.000426 0.000000 0.000000 0.000000
# 3 -0.003437 0.000426 0.011238 0.000000 0.000000 0.000000
# 4 0.000000 0.000000 0.000000 0.039572 0.000000 0.000000
# 5 0.000000 0.000000 0.000000 0.000000 0.047236 0.000000
# 6 0.000000 0.000000 0.000000 0.000000 0.000000 0.032279
#
#
# Mechanical properties :
#
#
# Convention : Reuss Voigt Hill
#
# Bulk Modulus (GPa) = 52.13136 53.34184 52.73660
# Shear Modulus (GPa) = 29.68577 32.91741 31.30159
#
# Velocity S-wave (km/s) = 3.74097 3.93934 3.84144
# Velocity P-wave (km/s) = 6.57543 6.77040 6.67363
#
# Compressibility (1/GPa) = 0.01918231
#
# Stress axis : x y z
#
# Youngs Moduli (GPa) = 89.15969 116.12327 88.98042
#
# Poissons Ratio (x) = 0.34041 0.30580
# Poissons Ratio (y) = 0.26137 -0.03795
# Poissons Ratio (z) = 0.30642 -0.04952
#
# Static dielectric constant tensor:
#      x y z
#    x 3.812520 0.000000 0.000000 
#    y 0.000000 3.985030 0.000000 
#    z 0.000000 0.000000 3.740660 
# 
# 
# High freq. dielectric constant tensor:
#      x y z
#    x 1.828570 0.000000 0.000000 
#    y 0.000000 1.840610 0.000000 
#    z 0.000000 0.000000 1.822820 
# 
# From -- ./inp_files/33864.got.cif
#   From: 2010.03.12/outbox.cif.g09.slc.cpg/sg74_17_cif.got.tgz:33864.got - 2010.04.16 15:46:19.
