data_PCOD8300368
_publ_section_title
;
Structure prediction by ZEFSAII (Michael W. Deem and Ramdas Pophale) SiO2 
 PCOD8300368
Probable space group: I M M A
;
_chemical_formula_sum "Si O2"
_cell_formula_units_Z 80
_cell_length_a 18.061517
_cell_length_b 25.030560
_cell_length_c 9.323224
_cell_angle_alpha 90.000000
_cell_angle_beta 90.000000
_cell_angle_gamma 90.000000
_cell_volume 4214.935266
_symmetry_space_group_name_H-M "I M M A"
_symmetry_group_IT_number 74
_symmetry_cell_setting 'orthorhombic'
loop_
_space_group_symop_operation_xyz
x,y,z
-x,1/2-y,z
x,-y,-z
-x,1/2+y,-z
-x,-y,-z
x,1/2+y,-z
-x,y,z
x,1/2-y,z
1/2+x,1/2+y,1/2+z
1/2-x,-y,1/2+z
1/2+x,1/2-y,1/2-z
1/2-x,y,1/2-z
1/2-x,1/2-y,1/2-z
1/2+x,y,1/2-z
1/2-x,1/2+y,1/2+z
1/2+x,-y,1/2+z
loop_
_atom_site_type_symbol
_atom_site_label
_atom_site_fract_x
_atom_site_fract_y
_atom_site_fract_z
Si Si1 0.415800 0.949310 0.407784
Si Si2 0.825684 0.154077 0.832323
Si Si3 0.643159 0.250000 0.145570
Si Si4 0.308701 0.250000 0.451391
Si Si5 0.913044 0.835968 0.434990
Si Si6 0.916709 0.452712 0.581486
O O1 0.500000 0.933862 0.456617
O O2 0.362383 0.897384 0.411532
O O3 0.416641 0.969279 0.245908
O O4 0.385906 0.000000 0.500000
O O5 0.750000 0.137987 0.750000
O O6 0.877766 0.183917 0.714732
O O7 0.814789 0.196707 0.956727
O O8 0.631993 0.250000 0.318668
O O9 0.728613 0.250000 0.115480
O O10 0.605854 0.198087 0.074713
O O11 0.879175 0.895739 0.452440
O O12 0.000000 0.836607 0.409151
O O13 0.872940 0.500000 0.500000
O O14 0.000000 0.448672 0.520436
#
# Coordination Sequence:
#
# PCOD8300368 Si02
#       6
#    16  16   8   8  16  16
#     4   9  19  36  58  85 117 149 185 238 294 342
#     4  11  20  38  62  85 113 161 200 241 290 363
#     4  11  22  39  55  80 113 150 188 248 296 356
#     4  11  24  38  58  81 116 152 195 239 311 346
#     4  10  20  36  59  85 113 150 197 242 286 348
#     4   8  15  29  51  78 107 141 179 219 272 334
#
# _framework density 18.980125000000001
#
# number of rings (size 3 to 8) (size 9 to 14) (size 15 to 20)
#    0.000    2.200    2.000    3.000    0.000    1.600 
#    0.000   11.500    4.400    0.000    0.000    0.000 
#    0.000    0.000    0.000    0.000    0.000    0.000 
#
# Total GULP energy -495562.302579 kJ/mol
# GULP energy per Si atom -12389.057564 kJ/mol
# Density = 1.893693 g / cm^3
# Si number density = 18.980125 Si / 1000 Ang^3
#
#
#
# Elastic Constant Matrix: (Units=GPa)
#
#
# Indices 1 2 3 4 5 6 
#
# 1 77.3511 39.1828 31.2652 0.0000 0.0000 0.0000
# 2 39.1828 134.9564 74.6791 0.0000 0.0000 0.0000
# 3 31.2652 74.6791 94.9237 0.0000 0.0000 0.0000
# 4 0.0000 0.0000 0.0000 41.8868 0.0000 0.0000
# 5 0.0000 0.0000 0.0000 0.0000 27.6777 0.0000
# 6 0.0000 0.0000 0.0000 0.0000 0.0000 31.9784
#
#
#
# Elastic Compliance Matrix: (Units=1/GPa)
#
#
# Indices 1 2 3 4 5 6 
#
# 1 0.015561 -0.002978 -0.002782 0.000000 0.000000 0.000000
# 2 -0.002978 0.013693 -0.009791 0.000000 0.000000 0.000000
# 3 -0.002782 -0.009791 0.019154 0.000000 0.000000 0.000000
# 4 0.000000 0.000000 0.000000 0.023874 0.000000 0.000000
# 5 0.000000 0.000000 0.000000 0.000000 0.036130 0.000000
# 6 0.000000 0.000000 0.000000 0.000000 0.000000 0.031271
#
#
# Mechanical properties :
#
#
# Convention : Reuss Voigt Hill
#
# Bulk Modulus (GPa) = 57.78941 66.38726 62.08834
# Shear Modulus (GPa) = 28.31965 31.11553 29.71759
#
# Velocity S-wave (km/s) = 3.86692 4.05331 3.96121
# Velocity P-wave (km/s) = 7.10288 7.54712 7.32836
#
# Compressibility (1/GPa) = 0.01730421
#
# Stress axis : x y z
#
# Youngs Moduli (GPa) = 64.26155 73.03159 52.20755
#
# Poissons Ratio (x) = 0.21752 0.14525
# Poissons Ratio (y) = 0.19140 0.51118
# Poissons Ratio (z) = 0.17879 0.71508
#
# Static dielectric constant tensor:
#      x y z
#    x 3.452460 0.000000 0.000000 
#    y 0.000000 2.980450 0.000000 
#    z 0.000000 0.000000 3.728050 
# 
# 
# High freq. dielectric constant tensor:
#      x y z
#    x 1.721010 0.000000 0.000000 
#    y 0.000000 1.745420 0.000000 
#    z 0.000000 0.000000 1.731720 
# 
# From -- ./inp_files/11026.got.cif
#   From: 2010.03.12/outbox.cif.g09.slc.cpg/sg74_6_cif.got.tgz:11026.got - 2010.04.16 15:46:19.
