data_PCOD8300108
_publ_section_title
;
Structure prediction by ZEFSAII (Michael W. Deem and Ramdas Pophale) SiO2 
 PCOD8300108
Probable space group: I M M A
;
_chemical_formula_sum "Si O2"
_cell_formula_units_Z 64
_cell_length_a 10.260400
_cell_length_b 17.906185
_cell_length_c 18.880600
_cell_angle_alpha 90.000000
_cell_angle_beta 90.000000
_cell_angle_gamma 90.000000
_cell_volume 3468.831071
_symmetry_space_group_name_H-M "I M M A"
_symmetry_group_IT_number 74
_symmetry_cell_setting 'orthorhombic'
loop_
_space_group_symop_operation_xyz
x,y,z
-x,1/2-y,z
x,-y,-z
-x,1/2+y,-z
-x,-y,-z
x,1/2+y,-z
-x,y,z
x,1/2-y,z
1/2+x,1/2+y,1/2+z
1/2-x,-y,1/2+z
1/2+x,1/2-y,1/2-z
1/2-x,y,1/2-z
1/2-x,1/2-y,1/2-z
1/2+x,y,1/2-z
1/2-x,1/2+y,1/2+z
1/2+x,-y,1/2+z
loop_
_atom_site_type_symbol
_atom_site_label
_atom_site_fract_x
_atom_site_fract_y
_atom_site_fract_z
Si Si1 0.258094 0.438645 0.830121
Si Si2 0.000000 0.337162 0.443703
Si Si3 0.000000 0.029746 0.163114
Si Si4 0.000000 0.412963 0.018961
Si Si5 0.743532 0.662136 0.040511
Si Si6 0.000000 0.954734 0.676867
O O1 0.250000 0.407858 0.750000
O O2 0.123735 0.477541 0.850561
O O3 0.285700 0.369216 0.881318
O O4 0.372315 0.498155 0.840438
O O5 0.873807 0.360270 0.488665
O O6 0.000000 0.380028 0.369286
O O7 0.000000 0.250000 0.425328
O O8 0.000000 0.095108 0.104518
O O9 0.000000 0.068088 0.240236
O O10 0.000000 0.500000 0.000000
O O11 0.125821 0.372492 0.989544
O O12 0.758752 0.750000 0.047630
#
# Coordination Sequence:
#
# PCOD8300108 Si02
#       6
#    16   8   8   8  16   8
#     4  10  20  35  56  84 112 146 187 229 276 335
#     4  10  23  39  57  83 116 149 190 236 283 331
#     4  10  20  35  55  86 111 137 193 237 270 327
#     4  12  21  36  62  83 110 150 190 230 278 331
#     4  11  23  38  56  85 118 149 186 233 280 337
#     4  10  21  36  59  82 110 146 190 234 277 329
#
# _framework density 18.450019999999999
#
# number of rings (size 3 to 8) (size 9 to 14) (size 15 to 20)
#    0.000    1.500    2.500    2.625    0.000    1.500 
#    0.000    1.250    0.000   17.250    0.000    0.000 
#    0.000    0.000    0.000    0.000    0.000    0.000 
#
# Total GULP energy -396887.589999 kJ/mol
# GULP energy per Si atom -12402.737187 kJ/mol
# Density = 1.840803 g / cm^3
# Si number density = 18.450020 Si / 1000 Ang^3
#
#
#
# Elastic Constant Matrix: (Units=GPa)
#
#
# Indices 1 2 3 4 5 6 
#
# 1 136.1652 41.8270 41.3166 0.0000 0.0000 0.0000
# 2 41.8270 82.2861 75.0717 0.0000 0.0000 0.0000
# 3 41.3166 75.0717 153.6223 0.0000 0.0000 0.0000
# 4 0.0000 0.0000 0.0000 30.2491 0.0000 0.0000
# 5 0.0000 0.0000 0.0000 0.0000 36.5875 0.0000
# 6 0.0000 0.0000 0.0000 0.0000 0.0000 93.4622
#
#
#
# Elastic Compliance Matrix: (Units=1/GPa)
#
#
# Indices 1 2 3 4 5 6 
#
# 1 0.008712 -0.004134 -0.000323 0.000000 0.000000 0.000000
# 2 -0.004134 0.023891 -0.010563 0.000000 0.000000 0.000000
# 3 -0.000323 -0.010563 0.011758 0.000000 0.000000 0.000000
# 4 0.000000 0.000000 0.000000 0.033059 0.000000 0.000000
# 5 0.000000 0.000000 0.000000 0.000000 0.027332 0.000000
# 6 0.000000 0.000000 0.000000 0.000000 0.000000 0.010700
#
#
# Mechanical properties :
#
#
# Convention : Reuss Voigt Hill
#
# Bulk Modulus (GPa) = 69.82562 76.50047 73.16305
# Shear Modulus (GPa) = 33.27456 46.31696 39.79576
#
# Velocity S-wave (km/s) = 4.25137 5.01583 4.64934
# Velocity P-wave (km/s) = 7.87571 8.66593 8.28025
#
# Compressibility (1/GPa) = 0.01432139
#
# Stress axis : x y z
#
# Youngs Moduli (GPa) = 114.78702 41.85674 85.04567
#
# Poissons Ratio (x) = 0.17302 0.02747
# Poissons Ratio (y) = 0.47448 0.89836
# Poissons Ratio (z) = 0.03708 0.44214
#
# Static dielectric constant tensor:
#      x y z
#    x 4.221880 0.000000 0.000000 
#    y 0.000000 3.173360 0.000000 
#    z 0.000000 0.000000 3.708060 
# 
# 
# High freq. dielectric constant tensor:
#      x y z
#    x 1.741670 0.000000 0.000000 
#    y 0.000000 1.692610 0.000000 
#    z 0.000000 0.000000 1.733130 
# 
# From -- ./inp_files/40754.got.cif
#   From: 2010.03.12/outbox.cif.g09.slc.cpg/sg74_21_cif.got.tgz:40754.got - 2010.04.16 15:46:19.
