data_PCOD8300186
_publ_section_title
;
Structure prediction by ZEFSAII (Michael W. Deem and Ramdas Pophale) SiO2 
 PCOD8300186
Probable space group: I M M A
;
_chemical_formula_sum "Si O2"
_cell_formula_units_Z 96
_cell_length_a 26.130356
_cell_length_b 22.334879
_cell_length_c 8.706489
_cell_angle_alpha 90.000000
_cell_angle_beta 90.000000
_cell_angle_gamma 90.000000
_cell_volume 5081.266653
_symmetry_space_group_name_H-M "I M M A"
_symmetry_group_IT_number 74
_symmetry_cell_setting 'orthorhombic'
loop_
_space_group_symop_operation_xyz
x,y,z
-x,1/2-y,z
x,-y,-z
-x,1/2+y,-z
-x,-y,-z
x,1/2+y,-z
-x,y,z
x,1/2-y,z
1/2+x,1/2+y,1/2+z
1/2-x,-y,1/2+z
1/2+x,1/2-y,1/2-z
1/2-x,y,1/2-z
1/2-x,1/2-y,1/2-z
1/2+x,y,1/2-z
1/2-x,1/2+y,1/2+z
1/2+x,-y,1/2+z
loop_
_atom_site_type_symbol
_atom_site_label
_atom_site_fract_x
_atom_site_fract_y
_atom_site_fract_z
Si Si1 0.248856 0.377235 0.580478
Si Si2 0.055557 0.565323 0.073242
Si Si3 0.233090 0.750000 0.996536
Si Si4 0.830549 0.250000 0.283545
Si Si5 0.354168 0.878245 0.891053
Si Si6 0.441794 0.563820 0.066950
Si Si7 0.654694 0.066317 0.428243
O O1 0.250000 0.407134 0.750000
O O2 0.262690 0.307699 0.603829
O O3 0.194481 0.387302 0.501223
O O4 0.292167 0.404113 0.472599
O O5 0.066863 0.560979 0.252457
O O6 0.000000 0.597230 0.044324
O O7 0.052452 0.500000 0.000000
O O8 0.103762 0.599892 0.996247
O O9 0.180254 0.750000 0.899277
O O10 0.277986 0.750000 0.873754
O O11 0.860337 0.311026 0.325155
O O12 0.349333 0.928036 0.756097
O O13 0.404920 0.887310 0.991232
O O14 0.500000 0.580894 0.024259
O O15 0.426500 0.500000 0.000000
O O16 0.654514 0.000000 0.500000
#
# Coordination Sequence:
#
# PCOD8300186 Si02
#       7
#    16  16   8   8  16  16  16
#     4  11  22  35  55  83 113 147 189 238 292 350
#     4   9  18  34  54  77 108 146 187 229 273 332
#     4   9  17  36  58  78 105 145 194 236 278 345
#     4   9  18  36  61  82 107 149 197 240 290 338
#     4  11  22  38  60  83 116 151 195 242 291 348
#     4  10  20  35  57  85 114 149 190 233 285 348
#     4  11  22  34  52  81 114 151 188 234 295 351
#
# _framework density 18.892927
#
# number of rings (size 3 to 8) (size 9 to 14) (size 15 to 20)
#    0.000    1.833    1.667    3.750    0.000    4.000 
#    0.000    0.417    0.000    0.000    0.000    2.917 
#    0.000    0.000    0.000    0.000    0.000    0.000 
#
# Total GULP energy -594846.548158 kJ/mol
# GULP energy per Si atom -12392.636420 kJ/mol
# Density = 1.884993 g / cm^3
# Si number density = 18.892927 Si / 1000 Ang^3
#
#
#
# Elastic Constant Matrix: (Units=GPa)
#
#
# Indices 1 2 3 4 5 6 
#
# 1 133.2504 34.6081 50.0190 0.0000 0.0000 0.0000
# 2 34.6081 67.0782 29.3241 0.0000 0.0000 0.0000
# 3 50.0190 29.3241 121.6404 0.0000 0.0000 0.0000
# 4 0.0000 0.0000 0.0000 16.5501 0.0000 0.0000
# 5 0.0000 0.0000 0.0000 0.0000 52.1962 0.0000
# 6 0.0000 0.0000 0.0000 0.0000 0.0000 -111.8881
#
#
#
# Elastic Compliance Matrix: (Units=1/GPa)
#
#
# Indices 1 2 3 4 5 6 
#
# 1 0.009596 -0.003606 -0.003077 0.000000 0.000000 0.000000
# 2 -0.003606 0.018019 -0.002861 0.000000 0.000000 0.000000
# 3 -0.003077 -0.002861 0.010176 0.000000 0.000000 0.000000
# 4 0.000000 0.000000 0.000000 0.060423 0.000000 0.000000
# 5 0.000000 0.000000 0.000000 0.000000 0.019158 0.000000
# 6 0.000000 0.000000 0.000000 0.000000 0.000000 -0.008938
#
#
# Mechanical properties :
#
#
# Convention : Reuss Voigt Hill
#
# Bulk Modulus (GPa) = 53.46565 61.09683 57.28124
# Shear Modulus (GPa) = 37.38122 5.23950 21.31036
#
# Velocity S-wave (km/s) = 4.45295 1.66712 3.36215
# Velocity P-wave (km/s) = 7.40264 6.00952 6.74216
#
# Compressibility (1/GPa) = 0.01870360
#
# Stress axis : x y z
#
# Youngs Moduli (GPa) = 104.20869 55.49635 98.27206
#
# Poissons Ratio (x) = 0.20012 0.30235
# Poissons Ratio (y) = 0.37577 0.28117
# Poissons Ratio (z) = 0.32062 0.15878
#
# Static dielectric constant tensor:
#      x y z
#    x 4.016560 0.000000 0.000000 
#    y 0.000000 3.379870 0.000000 
#    z 0.000000 0.000000 3.517630 
# 
# 
# High freq. dielectric constant tensor:
#      x y z
#    x 1.742200 0.000000 0.000000 
#    y 0.000000 1.696370 0.000000 
#    z 0.000000 0.000000 1.749780 
# 
# From -- ./inp_files/14090.got.cif
#   From: 2010.03.12/outbox.cif.g09.slc.cpg/sg74_8_cif.got.tgz:14090.got - 2010.04.16 15:46:19.
