data_PCOD8300129
_publ_section_title
;
Structure prediction by ZEFSAII (Michael W. Deem and Ramdas Pophale) SiO2 
 PCOD8300129
Probable space group: I M M A
;
_chemical_formula_sum "Si O2"
_cell_formula_units_Z 104
_cell_length_a 20.554396
_cell_length_b 9.182277
_cell_length_c 29.500005
_cell_angle_alpha 90.000000
_cell_angle_beta 90.000000
_cell_angle_gamma 90.000000
_cell_volume 5567.717594
_symmetry_space_group_name_H-M "I M M A"
_symmetry_group_IT_number 74
_symmetry_cell_setting 'orthorhombic'
loop_
_space_group_symop_operation_xyz
x,y,z
-x,1/2-y,z
x,-y,-z
-x,1/2+y,-z
-x,-y,-z
x,1/2+y,-z
-x,y,z
x,1/2-y,z
1/2+x,1/2+y,1/2+z
1/2-x,-y,1/2+z
1/2+x,1/2-y,1/2-z
1/2-x,y,1/2-z
1/2-x,1/2-y,1/2-z
1/2+x,y,1/2-z
1/2-x,1/2+y,1/2+z
1/2+x,-y,1/2+z
loop_
_atom_site_type_symbol
_atom_site_label
_atom_site_fract_x
_atom_site_fract_y
_atom_site_fract_z
Si Si1 0.684006 0.582702 0.773210
Si Si2 0.426470 0.580112 0.456687
Si Si3 0.142047 0.422318 0.548946
Si Si4 0.426494 0.418551 0.722352
Si Si5 0.000000 0.084529 0.545519
Si Si6 0.851081 0.917691 0.132263
Si Si7 0.720702 0.082140 0.126278
O O1 0.678900 0.750000 0.758336
O O2 0.750000 0.517334 0.750000
O O3 0.620410 0.500941 0.756469
O O4 0.680628 0.564513 0.827401
O O5 0.395867 0.500000 0.500000
O O6 0.500000 0.526616 0.448086
O O7 0.424045 0.750000 0.466051
O O8 0.383874 0.535014 0.414260
O O9 0.150521 0.500000 0.500000
O O10 0.156056 0.250000 0.543167
O O11 0.191533 0.488558 0.585193
O O12 0.068940 0.450260 0.570157
O O13 0.500000 0.478389 0.727287
O O14 0.423715 0.250000 0.735412
O O15 0.404088 0.443838 0.670985
O O16 0.000000 0.250000 0.530464
O O17 0.000000 0.000000 0.500000
O O18 0.827379 0.750000 0.131681
O O19 0.791467 0.024852 0.139545
O O20 0.723924 0.250000 0.110946
#
# Coordination Sequence:
#
# PCOD8300129 Si02
#       7
#    16  16  16  16   8  16  16
#     4  10  21  40  61  82 114 154 193 236 287 342
#     4   9  18  33  52  75 106 142 179 222 270 321
#     4  10  20  37  60  86 116 148 186 231 282 337
#     4  10  21  37  60  89 115 143 187 241 293 347
#     4   8  16  32  56  82 108 142 180 224 274 330
#     4  10  20  35  56  80 109 146 186 229 282 338
#     4  11  23  38  57  82 113 149 190 232 277 333
#
# _framework density 18.679106999999998
#
# number of rings (size 3 to 8) (size 9 to 14) (size 15 to 20)
#    0.000    2.154    1.538    1.385    0.000    5.538 
#    1.385    1.538    0.000    2.769    0.000    0.000 
#    0.000    0.000    0.000    0.000    0.000    0.000 
#
# Total GULP energy -644615.294701 kJ/mol
# GULP energy per Si atom -12396.447975 kJ/mol
# Density = 1.863659 g / cm^3
# Si number density = 18.679107 Si / 1000 Ang^3
#
#
#
# Elastic Constant Matrix: (Units=GPa)
#
#
# Indices 1 2 3 4 5 6 
#
# 1 126.5877 54.0493 48.2359 0.0000 0.0000 0.0000
# 2 54.0493 75.5433 48.6832 0.0000 0.0000 0.0000
# 3 48.2359 48.6832 96.9907 0.0000 0.0000 0.0000
# 4 0.0000 0.0000 0.0000 31.5594 0.0000 0.0000
# 5 0.0000 0.0000 0.0000 0.0000 26.5629 0.0000
# 6 0.0000 0.0000 0.0000 0.0000 0.0000 26.4424
#
#
#
# Elastic Compliance Matrix: (Units=1/GPa)
#
#
# Indices 1 2 3 4 5 6 
#
# 1 0.011740 -0.006854 -0.002398 0.000000 0.000000 0.000000
# 2 -0.006854 0.023568 -0.008421 0.000000 0.000000 0.000000
# 3 -0.002398 -0.008421 0.015730 0.000000 0.000000 0.000000
# 4 0.000000 0.000000 0.000000 0.031686 0.000000 0.000000
# 5 0.000000 0.000000 0.000000 0.000000 0.037646 0.000000
# 6 0.000000 0.000000 0.000000 0.000000 0.000000 0.037818
#
#
# Mechanical properties :
#
#
# Convention : Reuss Voigt Hill
#
# Bulk Modulus (GPa) = 63.72995 66.78427 65.25711
# Shear Modulus (GPa) = 25.15516 26.78983 25.97250
#
# Velocity S-wave (km/s) = 3.67372 3.79121 3.73293
# Velocity P-wave (km/s) = 7.22408 7.41589 7.32061
#
# Compressibility (1/GPa) = 0.01569121
#
# Stress axis : x y z
#
# Youngs Moduli (GPa) = 85.17861 42.42983 63.57349
#
# Poissons Ratio (x) = 0.29082 0.15246
# Poissons Ratio (y) = 0.58383 0.53536
# Poissons Ratio (z) = 0.20428 0.35730
#
# Static dielectric constant tensor:
#      x y z
#    x 3.840930 0.000000 0.000000 
#    y 0.000000 3.437930 0.000000 
#    z 0.000000 0.000000 3.370110 
# 
# 
# High freq. dielectric constant tensor:
#      x y z
#    x 1.728940 0.000000 0.000000 
#    y 0.000000 1.724900 0.000000 
#    z 0.000000 0.000000 1.721490 
# 
# From -- ./inp_files/68237.got.cif
#   From: 2010.03.12/outbox.cif.g09.slc.cpg/sg74_35_cif.got.tgz:68237.got - 2010.04.16 15:46:19.
