data_PCOD8300684
_publ_section_title
;
Structure prediction by ZEFSAII (Michael W. Deem and Ramdas Pophale) SiO2 
 PCOD8300684
Probable space group: I M M A
;
_chemical_formula_sum "Si O2"
_cell_formula_units_Z 112
_cell_length_a 13.523014
_cell_length_b 14.209404
_cell_length_c 32.707653
_cell_angle_alpha 90.000000
_cell_angle_beta 90.000000
_cell_angle_gamma 90.000000
_cell_volume 6284.905348
_symmetry_space_group_name_H-M "I M M A"
_symmetry_group_IT_number 74
_symmetry_cell_setting 'orthorhombic'
loop_
_space_group_symop_operation_xyz
x,y,z
-x,1/2-y,z
x,-y,-z
-x,1/2+y,-z
-x,-y,-z
x,1/2+y,-z
-x,y,z
x,1/2-y,z
1/2+x,1/2+y,1/2+z
1/2-x,-y,1/2+z
1/2+x,1/2-y,1/2-z
1/2-x,y,1/2-z
1/2-x,1/2-y,1/2-z
1/2+x,y,1/2-z
1/2-x,1/2+y,1/2+z
1/2+x,-y,1/2+z
loop_
_atom_site_type_symbol
_atom_site_label
_atom_site_fract_x
_atom_site_fract_y
_atom_site_fract_z
Si Si1 0.882867 0.354853 0.482005
Si Si2 0.117027 0.460879 0.562713
Si Si3 0.701636 0.538679 0.147614
Si Si4 0.615466 0.643167 0.824013
Si Si5 0.116445 0.854841 0.275980
Si Si6 0.614370 0.457115 0.694195
Si Si7 0.384690 0.649159 0.733308
O O1 0.838704 0.250000 0.473203
O O2 0.847952 0.432483 0.448776
O O3 0.850631 0.389434 0.527023
O O4 0.000000 0.350402 0.480638
O O5 0.171437 0.422897 0.603300
O O6 0.000000 0.458644 0.570029
O O7 0.677200 0.427181 0.147289
O O8 0.639525 0.584865 0.184154
O O9 0.817227 0.565162 0.155020
O O10 0.500000 0.614896 0.825926
O O11 0.629603 0.750000 0.839691
O O12 0.662531 0.631467 0.778229
O O13 0.160805 0.750000 0.280343
O O14 0.155823 0.900554 0.233586
O O15 0.000000 0.852065 0.271250
O O16 0.500000 0.434862 0.684136
O O17 0.635629 0.567126 0.701537
O O18 0.500000 0.654899 0.743351
O O19 0.348173 0.750000 0.715180
#
# Coordination Sequence:
#
# PCOD8300684 Si02
#       7
#    16  16  16  16  16  16  16
#     4   8  15  31  52  71  97 129 148 167 218 291
#     4   9  18  30  47  74 101 122 149 184 224 282
#     4  12  21  30  48  73  98 125 162 206 245 280
#     4   9  17  28  43  66  95 122 150 191 243 292
#     4  10  21  36  51  67  92 127 165 206 250 291
#     4  10  21  35  47  62  91 132 174 211 244 277
#     4   8  14  27  45  60  80 116 159 198 235 277
#
# _framework density 17.820474999999998
#
# number of rings (size 3 to 8) (size 9 to 14) (size 15 to 20)
#    0.000    2.571    1.429    3.429    0.000    2.857 
#    0.000    4.286    0.000    0.000    0.000    2.000 
#    0.000    1.143    0.000    0.000    0.000    0.000 
#
# Total GULP energy -694005.712081 kJ/mol
# GULP energy per Si atom -12392.959144 kJ/mol
# Density = 1.777991 g / cm^3
# Si number density = 17.820475 Si / 1000 Ang^3
#
#
#
# Elastic Constant Matrix: (Units=GPa)
#
#
# Indices 1 2 3 4 5 6 
#
# 1 42.7472 11.1296 30.2246 0.0000 0.0000 0.0000
# 2 11.1296 81.6397 16.5974 0.0000 0.0000 0.0000
# 3 30.2246 16.5974 87.7480 0.0000 0.0000 0.0000
# 4 0.0000 0.0000 0.0000 10.3352 0.0000 0.0000
# 5 0.0000 0.0000 0.0000 0.0000 23.8092 0.0000
# 6 0.0000 0.0000 0.0000 0.0000 0.0000 9.5301
#
#
#
# Elastic Compliance Matrix: (Units=1/GPa)
#
#
# Indices 1 2 3 4 5 6 
#
# 1 0.031286 -0.002157 -0.010368 0.000000 0.000000 0.000000
# 2 -0.002157 0.012888 -0.001695 0.000000 0.000000 0.000000
# 3 -0.010368 -0.001695 0.015288 0.000000 0.000000 0.000000
# 4 0.000000 0.000000 0.000000 0.096756 0.000000 0.000000
# 5 0.000000 0.000000 0.000000 0.000000 0.042001 0.000000
# 6 0.000000 0.000000 0.000000 0.000000 0.000000 0.104931
#
#
# Mechanical properties :
#
#
# Convention : Reuss Voigt Hill
#
# Bulk Modulus (GPa) = 32.23587 36.44869 34.34228
# Shear Modulus (GPa) = 14.62285 19.01378 16.81832
#
# Velocity S-wave (km/s) = 2.86766 3.26998 3.07541
# Velocity P-wave (km/s) = 5.39380 5.89531 5.65013
#
# Compressibility (1/GPa) = 0.03102134
#
# Stress axis : x y z
#
# Youngs Moduli (GPa) = 31.96321 77.59435 65.41011
#
# Poissons Ratio (x) = 0.16739 0.67819
# Poissons Ratio (y) = 0.06895 0.11085
# Poissons Ratio (z) = 0.33141 0.13149
#
# Static dielectric constant tensor:
#      x y z
#    x 3.064650 0.000000 0.000000 
#    y 0.000000 3.879960 0.000000 
#    z 0.000000 0.000000 3.009430 
# 
# 
# High freq. dielectric constant tensor:
#      x y z
#    x 1.659370 0.000000 0.000000 
#    y 0.000000 1.701250 0.000000 
#    z 0.000000 0.000000 1.649060 
# 
# From -- ./inp_files/67225.got.cif
#   From: 2010.03.12/outbox.cif.g09.slc.cpg/sg74_34_cif.got.tgz:67225.got - 2010.04.16 15:46:19.
