data_PCOD8300861
_publ_section_title
;
Structure prediction by ZEFSAII (Michael W. Deem and Ramdas Pophale) SiO2 
 PCOD8300861
Probable space group: I M M A
;
_chemical_formula_sum "Si O2"
_cell_formula_units_Z 80
_cell_length_a 18.034869
_cell_length_b 9.243737
_cell_length_c 25.544235
_cell_angle_alpha 90.000000
_cell_angle_beta 90.000000
_cell_angle_gamma 90.000000
_cell_volume 4258.468838
_symmetry_space_group_name_H-M "I M M A"
_symmetry_group_IT_number 74
_symmetry_cell_setting 'orthorhombic'
loop_
_space_group_symop_operation_xyz
x,y,z
-x,1/2-y,z
x,-y,-z
-x,1/2+y,-z
-x,-y,-z
x,1/2+y,-z
-x,y,z
x,1/2-y,z
1/2+x,1/2+y,1/2+z
1/2-x,-y,1/2+z
1/2+x,1/2-y,1/2-z
1/2-x,y,1/2-z
1/2-x,1/2-y,1/2-z
1/2+x,y,1/2-z
1/2-x,1/2+y,1/2+z
1/2+x,-y,1/2+z
loop_
_atom_site_type_symbol
_atom_site_label
_atom_site_fract_x
_atom_site_fract_y
_atom_site_fract_z
Si Si1 0.176675 0.417896 0.847714
Si Si2 0.086386 0.915072 0.256096
Si Si3 0.829894 0.578650 0.654870
Si Si4 0.584821 0.419425 0.551530
Si Si5 0.584959 0.919056 0.948561
O O1 0.199213 0.250000 0.850907
O O2 0.122758 0.448284 0.799541
O O3 0.249093 0.512519 0.839674
O O4 0.134817 0.469237 0.899950
O O5 0.102222 0.750000 0.273359
O O6 0.000000 0.945587 0.249847
O O7 0.118426 0.022515 0.298945
O O8 0.824785 0.750000 0.659323
O O9 0.865510 0.529733 0.599982
O O10 0.614575 0.500000 0.500000
O O11 0.500000 0.463464 0.563541
O O12 0.591849 0.250000 0.541488
O O13 0.500000 0.962111 0.936573
O O14 0.592933 0.750000 0.958992
O O15 0.614621 0.000000 0.000000
#
# Coordination Sequence:
#
# PCOD8300861 Si02
#       5
#    16  16  16  16  16
#     4  10  21  37  56  79 109 143 180 222 266 315
#     4  10  21  38  60  82 104 137 182 225 265 315
#     4  11  23  37  54  80 114 145 174 216 271 323
#     4   9  18  34  56  80 107 141 181 225 271 318
#     4   9  19  36  56  77 103 137 177 219 261 308
#
# _framework density 18.786097000000002
#
# number of rings (size 3 to 8) (size 9 to 14) (size 15 to 20)
#    0.000    2.200    0.000    2.400    0.000   10.000 
#    0.000    6.000    0.000    3.600    0.000    0.000 
#    0.000    0.000    0.000    0.000    0.000    0.000 
#
# Total GULP energy -496171.626665 kJ/mol
# GULP energy per Si atom -12404.290667 kJ/mol
# Density = 1.874334 g / cm^3
# Si number density = 18.786097 Si / 1000 Ang^3
#
#
#
# Elastic Constant Matrix: (Units=GPa)
#
#
# Indices 1 2 3 4 5 6 
#
# 1 121.6956 51.3773 74.2386 0.0000 0.0000 0.0000
# 2 51.3773 61.5305 62.9153 0.0000 0.0000 0.0000
# 3 74.2386 62.9153 152.0000 0.0000 0.0000 0.0000
# 4 0.0000 0.0000 0.0000 37.0878 0.0000 0.0000
# 5 0.0000 0.0000 0.0000 0.0000 -32.2313 0.0000
# 6 0.0000 0.0000 0.0000 0.0000 0.0000 88.0496
#
#
#
# Elastic Compliance Matrix: (Units=1/GPa)
#
#
# Indices 1 2 3 4 5 6 
#
# 1 0.013620 -0.007925 -0.003372 0.000000 0.000000 0.000000
# 2 -0.007925 0.032789 -0.009701 0.000000 0.000000 0.000000
# 3 -0.003372 -0.009701 0.012241 0.000000 0.000000 0.000000
# 4 0.000000 0.000000 0.000000 0.026963 0.000000 0.000000
# 5 0.000000 0.000000 0.000000 0.000000 -0.031026 0.000000
# 6 0.000000 0.000000 0.000000 0.000000 0.000000 0.011357
#
#
# Mechanical properties :
#
#
# Convention : Reuss Voigt Hill
#
# Bulk Modulus (GPa) = 60.04496 79.14318 69.59407
# Shear Modulus (GPa) = 44.05616 28.36089 36.20852
#
# Velocity S-wave (km/s) = 4.84793 3.88967 4.39499
# Velocity P-wave (km/s) = 7.96042 7.89891 7.92973
#
# Compressibility (1/GPa) = 0.01665419
#
# Stress axis : x y z
#
# Youngs Moduli (GPa) = 73.42244 30.49836 81.68993
#
# Poissons Ratio (x) = 0.24168 0.27546
# Poissons Ratio (y) = 0.58184 0.79250
# Poissons Ratio (z) = 0.24758 0.29588
#
# Static dielectric constant tensor:
#      x y z
#    x 3.483290 0.000000 0.000000 
#    y 0.000000 3.378970 0.000000 
#    z 0.000000 0.000000 3.617130 
# 
# 
# High freq. dielectric constant tensor:
#      x y z
#    x 1.734660 0.000000 0.000000 
#    y 0.000000 1.723360 0.000000 
#    z 0.000000 0.000000 1.743530 
# 
# From -- ./inp_files/67539.got.cif
#   From: 2010.03.12/outbox.cif.g09.slc.cpg/sg74_34_cif.got.tgz:67539.got - 2010.04.16 15:46:19.
