data_PCOD8300625
_publ_section_title
;
Structure prediction by ZEFSAII (Michael W. Deem and Ramdas Pophale) SiO2 
 PCOD8300625
Probable space group: I M M A
;
_chemical_formula_sum "Si O2"
_cell_formula_units_Z 72
_cell_length_a 26.296171
_cell_length_b 13.720627
_cell_length_c 10.400026
_cell_angle_alpha 90.000000
_cell_angle_beta 90.000000
_cell_angle_gamma 90.000000
_cell_volume 3752.328901
_symmetry_space_group_name_H-M "I M M A"
_symmetry_group_IT_number 74
_symmetry_cell_setting 'orthorhombic'
loop_
_space_group_symop_operation_xyz
x,y,z
-x,1/2-y,z
x,-y,-z
-x,1/2+y,-z
-x,-y,-z
x,1/2+y,-z
-x,y,z
x,1/2-y,z
1/2+x,1/2+y,1/2+z
1/2-x,-y,1/2+z
1/2+x,1/2-y,1/2-z
1/2-x,y,1/2-z
1/2-x,1/2-y,1/2-z
1/2+x,y,1/2-z
1/2-x,1/2+y,1/2+z
1/2+x,-y,1/2+z
loop_
_atom_site_type_symbol
_atom_site_label
_atom_site_fract_x
_atom_site_fract_y
_atom_site_fract_z
Si Si1 0.590213 0.250000 0.726150
Si Si2 0.786297 0.037212 0.627495
Si Si3 0.605648 0.554869 0.875601
Si Si4 0.940752 0.043476 0.868963
Si Si5 0.060845 0.750000 0.526777
Si Si6 0.302620 0.250000 0.821518
O O1 0.571343 0.157069 0.647738
O O2 0.651290 0.250000 0.720687
O O3 0.571005 0.250000 0.873705
O O4 0.750000 0.030525 0.750000
O O5 0.805774 0.148399 0.599421
O O6 0.756291 0.000000 0.500000
O O7 0.834177 0.964906 0.642940
O O8 0.579010 0.518268 0.748811
O O9 0.589946 0.664835 0.899620
O O10 0.583876 0.500000 0.000000
O O11 0.000000 0.028035 0.874497
O O12 0.916121 0.000000 0.000000
O O13 0.000000 0.750000 0.550573
O O14 0.250000 0.250000 0.750000
#
# Coordination Sequence:
#
# PCOD8300625 Si02
#       6
#     8  16  16  16   8   8
#     4  12  20  41  65  91 122 168 220 252 315 398
#     4  10  21  39  64  92 124 163 208 263 315 370
#     4  11  22  40  63  92 126 161 217 269 308 372
#     4  11  24  39  60  90 128 164 204 261 320 379
#     4  12  24  37  66  96 125 167 218 265 321 382
#     4  10  20  40  63  91 120 166 209 258 306 375
#
# _framework density 19.188084
#
# number of rings (size 3 to 8) (size 9 to 14) (size 15 to 20)
#    0.000    1.111    4.444    3.000    0.000    2.667 
#    0.000    3.333    0.000    0.000    0.000    0.000 
#    0.000    0.000    0.000    0.000    0.000    0.000 
#
# Total GULP energy -446133.552780 kJ/mol
# GULP energy per Si atom -12392.598688 kJ/mol
# Density = 1.914441 g / cm^3
# Si number density = 19.188084 Si / 1000 Ang^3
#
#
#
# Elastic Constant Matrix: (Units=GPa)
#
#
# Indices 1 2 3 4 5 6 
#
# 1 96.6845 37.8583 52.1647 0.0000 0.0000 0.0000
# 2 37.8583 127.8828 100.6712 0.0000 0.0000 0.0000
# 3 52.1647 100.6712 168.0232 0.0000 0.0000 0.0000
# 4 0.0000 0.0000 0.0000 36.2859 0.0000 0.0000
# 5 0.0000 0.0000 0.0000 0.0000 44.5149 0.0000
# 6 0.0000 0.0000 0.0000 0.0000 0.0000 31.4141
#
#
#
# Elastic Compliance Matrix: (Units=1/GPa)
#
#
# Indices 1 2 3 4 5 6 
#
# 1 0.012524 -0.001224 -0.003155 0.000000 0.000000 0.000000
# 2 -0.001224 0.014920 -0.008559 0.000000 0.000000 0.000000
# 3 -0.003155 -0.008559 0.012059 0.000000 0.000000 0.000000
# 4 0.000000 0.000000 0.000000 0.027559 0.000000 0.000000
# 5 0.000000 0.000000 0.000000 0.000000 0.022464 0.000000
# 6 0.000000 0.000000 0.000000 0.000000 0.000000 0.031833
#
#
# Mechanical properties :
#
#
# Convention : Reuss Voigt Hill
#
# Bulk Modulus (GPa) = 73.38300 85.99767 79.69033
# Shear Modulus (GPa) = 32.94258 35.90272 34.42265
#
# Velocity S-wave (km/s) = 4.14795 4.33031 4.24011
# Velocity P-wave (km/s) = 7.82737 8.36168 8.09893
#
# Compressibility (1/GPa) = 0.01362713
#
# Stress axis : x y z
#
# Youngs Moduli (GPa) = 79.84393 67.02372 82.92304
#
# Poissons Ratio (x) = 0.08205 0.26162
# Poissons Ratio (y) = 0.09774 0.70977
# Poissons Ratio (z) = 0.25190 0.57368
#
# Static dielectric constant tensor:
#      x y z
#    x 3.553340 0.000000 0.000000 
#    y 0.000000 3.990790 0.000000 
#    z 0.000000 0.000000 3.817700 
# 
# 
# High freq. dielectric constant tensor:
#      x y z
#    x 1.750910 0.000000 0.000000 
#    y 0.000000 1.763400 0.000000 
#    z 0.000000 0.000000 1.741170 
# 
# From -- ./inp_files/26026.got.cif
#   From: 2010.03.12/outbox.cif.g09.slc.cpg/sg74_14_cif.got.tgz:26026.got - 2010.04.16 15:46:19.
