data_PCOD8300354
_publ_section_title
;
Structure prediction by ZEFSAII (Michael W. Deem and Ramdas Pophale) SiO2 
 PCOD8300354
Probable space group: I M M A
;
_chemical_formula_sum "Si O2"
_cell_formula_units_Z 112
_cell_length_a 27.946026
_cell_length_b 16.807714
_cell_length_c 12.093422
_cell_angle_alpha 90.000000
_cell_angle_beta 90.000000
_cell_angle_gamma 90.000000
_cell_volume 5680.386886
_symmetry_space_group_name_H-M "I M M A"
_symmetry_group_IT_number 74
_symmetry_cell_setting 'orthorhombic'
loop_
_space_group_symop_operation_xyz
x,y,z
-x,1/2-y,z
x,-y,-z
-x,1/2+y,-z
-x,-y,-z
x,1/2+y,-z
-x,y,z
x,1/2-y,z
1/2+x,1/2+y,1/2+z
1/2-x,-y,1/2+z
1/2+x,1/2-y,1/2-z
1/2-x,y,1/2-z
1/2-x,1/2-y,1/2-z
1/2+x,y,1/2-z
1/2-x,1/2+y,1/2+z
1/2+x,-y,1/2+z
loop_
_atom_site_type_symbol
_atom_site_label
_atom_site_fract_x
_atom_site_fract_y
_atom_site_fract_z
Si Si1 0.638893 0.839652 0.124502
Si Si2 0.301577 0.070785 0.695041
Si Si3 0.054136 0.589591 0.485877
Si Si4 0.054367 0.157030 0.271898
Si Si5 0.286665 0.659266 0.527206
Si Si6 0.690460 0.416609 0.062504
Si Si7 0.648228 0.913877 0.694222
O O1 0.639449 0.750000 0.166948
O O2 0.666395 0.893249 0.210038
O O3 0.584321 0.868723 0.110834
O O4 0.665244 0.846893 0.006696
O O5 0.250000 0.046632 0.750000
O O6 0.296695 0.135070 0.598831
O O7 0.332941 0.997865 0.645590
O O8 0.073825 0.500000 0.500000
O O9 0.059530 0.638048 0.598851
O O10 0.000000 0.587788 0.442823
O O11 0.066564 0.250000 0.254368
O O12 0.090938 0.101739 0.201109
O O13 0.000000 0.138084 0.232734
O O14 0.269158 0.750000 0.525931
O O15 0.246462 0.600398 0.574857
O O16 0.331679 0.652533 0.609984
O O17 0.668498 0.411497 0.182747
O O18 0.681794 0.500000 0.000000
#
# Coordination Sequence:
#
# PCOD8300354 Si02
#       7
#    16  16  16  16  16  16  16
#     4  12  23  35  60  89 120 163 204 252 304 361
#     4  12  24  43  63  82 121 171 212 246 300 376
#     4  10  20  36  58  88 124 163 206 250 304 374
#     4  10  21  37  59  88 122 156 193 248 318 379
#     4  12  26  40  59  89 122 161 211 259 303 360
#     4  12  22  39  60  88 127 163 201 245 305 368
#     4  12  23  39  65  90 122 159 201 254 310 365
#
# _framework density 19.716967
#
# number of rings (size 3 to 8) (size 9 to 14) (size 15 to 20)
#    0.000    0.571    4.286    5.571    0.000    3.714 
#    0.000    0.000    0.000    2.571    0.000    0.000 
#    0.000    0.000    0.000    0.000    0.000    0.000 
#
# Total GULP energy -694320.981094 kJ/mol
# GULP energy per Si atom -12398.588948 kJ/mol
# Density = 1.967209 g / cm^3
# Si number density = 19.716967 Si / 1000 Ang^3
#
#
#
# Elastic Constant Matrix: (Units=GPa)
#
#
# Indices 1 2 3 4 5 6 
#
# 1 136.0720 36.4875 27.8275 0.0000 0.0000 0.0000
# 2 36.4875 87.5485 10.4796 0.0000 0.0000 0.0000
# 3 27.8275 10.4796 66.5710 0.0000 0.0000 0.0000
# 4 0.0000 0.0000 0.0000 18.5754 0.0000 0.0000
# 5 0.0000 0.0000 0.0000 0.0000 27.9152 0.0000
# 6 0.0000 0.0000 0.0000 0.0000 0.0000 23.7594
#
#
#
# Elastic Compliance Matrix: (Units=1/GPa)
#
#
# Indices 1 2 3 4 5 6 
#
# 1 0.008894 -0.003324 -0.003194 0.000000 0.000000 0.000000
# 2 -0.003324 0.012884 -0.000639 0.000000 0.000000 0.000000
# 3 -0.003194 -0.000639 0.016457 0.000000 0.000000 0.000000
# 4 0.000000 0.000000 0.000000 0.053835 0.000000 0.000000
# 5 0.000000 0.000000 0.000000 0.000000 0.035823 0.000000
# 6 0.000000 0.000000 0.000000 0.000000 0.000000 0.042089
#
#
# Mechanical properties :
#
#
# Convention : Reuss Voigt Hill
#
# Bulk Modulus (GPa) = 41.80483 48.86451 45.33467
# Shear Modulus (GPa) = 26.00519 28.40980 27.20750
#
# Velocity S-wave (km/s) = 3.63564 3.80001 3.71873
# Velocity P-wave (km/s) = 6.23477 6.64005 6.44060
#
# Compressibility (1/GPa) = 0.02392068
#
# Stress axis : x y z
#
# Youngs Moduli (GPa) = 112.43900 77.61481 60.76306
#
# Poissons Ratio (x) = 0.25801 0.19410
# Poissons Ratio (y) = 0.37378 0.03881
# Poissons Ratio (z) = 0.35917 0.04957
#
# Static dielectric constant tensor:
#      x y z
#    x 3.904060 0.000000 0.000000 
#    y 0.000000 3.953060 0.000000 
#    z 0.000000 0.000000 3.574670 
# 
# 
# High freq. dielectric constant tensor:
#      x y z
#    x 1.774250 0.000000 0.000000 
#    y 0.000000 1.777350 0.000000 
#    z 0.000000 0.000000 1.747120 
# 
# From -- ./inp_files/27179.got.cif
#   From: 2010.03.12/outbox.cif.g09.slc.cpg/sg74_14_cif.got.tgz:27179.got - 2010.04.16 15:46:19.
