data_PCOD8300831
_publ_section_title
;
Structure prediction by ZEFSAII (Michael W. Deem and Ramdas Pophale) SiO2 
 PCOD8300831
Probable space group: I M M A
;
_chemical_formula_sum "Si O2"
_cell_formula_units_Z 68
_cell_length_a 9.675993
_cell_length_b 16.303978
_cell_length_c 20.486313
_cell_angle_alpha 90.000000
_cell_angle_beta 90.000000
_cell_angle_gamma 90.000000
_cell_volume 3231.862906
_symmetry_space_group_name_H-M "I M M A"
_symmetry_group_IT_number 74
_symmetry_cell_setting 'orthorhombic'
loop_
_space_group_symop_operation_xyz
x,y,z
-x,1/2-y,z
x,-y,-z
-x,1/2+y,-z
-x,-y,-z
x,1/2+y,-z
-x,y,z
x,1/2-y,z
1/2+x,1/2+y,1/2+z
1/2-x,-y,1/2+z
1/2+x,1/2-y,1/2-z
1/2-x,y,1/2-z
1/2-x,1/2-y,1/2-z
1/2+x,y,1/2-z
1/2-x,1/2+y,1/2+z
1/2+x,-y,1/2+z
loop_
_atom_site_type_symbol
_atom_site_label
_atom_site_fract_x
_atom_site_fract_y
_atom_site_fract_z
Si Si1 0.722187 0.077704 0.878338
Si Si2 0.159496 0.574877 0.815676
Si Si3 0.500000 0.750000 0.918038
Si Si4 0.000000 0.841198 0.139035
Si Si5 0.500000 0.343824 0.792659
Si Si6 0.766434 0.250000 0.172337
Si Si7 0.000000 0.405026 0.516378
O O1 0.639475 0.111262 0.815638
O O2 0.637254 0.104073 0.941411
O O3 0.866180 0.119631 0.891456
O O4 0.756958 0.981542 0.867429
O O5 0.250000 0.573122 0.750000
O O6 0.151657 0.666688 0.845449
O O7 0.000000 0.544285 0.803959
O O8 0.626418 0.750000 0.868458
O O9 0.500000 0.834575 0.960611
O O10 0.000000 0.750000 0.114419
O O11 0.000000 0.850005 0.216074
O O12 0.500000 0.250000 0.817665
O O13 0.750000 0.250000 0.250000
O O14 0.000000 0.500000 0.500000
#
# Coordination Sequence:
#
# PCOD8300831 Si02
#       7
#    16  16   4   8   8   8   8
#     4  11  23  38  65  93 136 179 237 271 328 394
#     4  11  23  38  66 103 146 184 227 288 361 417
#     4  12  26  50  80 102 138 182 232 280 354 428
#     4  11  21  35  59  94 139 169 213 281 336 377
#     4  10  21  36  59  95 136 181 226 273 332 392
#     4  10  25  42  76 104 136 160 220 286 367 429
#     4  11  27  47  72  91 127 184 241 276 317 409
#
# _framework density 21.040496999999998
#
# number of rings (size 3 to 8) (size 9 to 14) (size 15 to 20)
#    0.000    1.176    1.176    4.588   14.824    1.882 
#    0.000    0.588    5.176    0.000    0.000    0.000 
#    0.000    0.000    0.000    0.000    0.000    0.000 
#
# Total GULP energy -421289.741398 kJ/mol
# GULP energy per Si atom -12390.874747 kJ/mol
# Density = 2.099261 g / cm^3
# Si number density = 21.040497 Si / 1000 Ang^3
#
#
#
# Elastic Constant Matrix: (Units=GPa)
#
#
# Indices 1 2 3 4 5 6 
#
# 1 171.6835 51.4494 45.5826 0.0000 0.0000 0.0000
# 2 51.4494 165.1148 46.6786 0.0000 0.0000 0.0000
# 3 45.5826 46.6786 75.8412 0.0000 0.0000 0.0000
# 4 0.0000 0.0000 0.0000 28.6417 0.0000 0.0000
# 5 0.0000 0.0000 0.0000 0.0000 -83.5410 0.0000
# 6 0.0000 0.0000 0.0000 0.0000 0.0000 27.3446
#
#
#
# Elastic Compliance Matrix: (Units=1/GPa)
#
#
# Indices 1 2 3 4 5 6 
#
# 1 0.007129 -0.001223 -0.003532 0.000000 0.000000 0.000000
# 2 -0.001223 0.007542 -0.003907 0.000000 0.000000 0.000000
# 3 -0.003532 -0.003907 0.017713 0.000000 0.000000 0.000000
# 4 0.000000 0.000000 0.000000 0.034914 0.000000 0.000000
# 5 0.000000 0.000000 0.000000 0.000000 -0.011970 0.000000
# 6 0.000000 0.000000 0.000000 0.000000 0.000000 0.036570
#
#
# Mechanical properties :
#
#
# Convention : Reuss Voigt Hill
#
# Bulk Modulus (GPa) = 66.40042 77.78454 72.09248
# Shear Modulus (GPa) = 43.76687 12.41765 28.09226
#
# Velocity S-wave (km/s) = 4.56579 2.43199 3.65794
# Velocity P-wave (km/s) = 7.70857 6.70338 7.22348
#
# Compressibility (1/GPa) = 0.01506015
#
# Stress axis : x y z
#
# Youngs Moduli (GPa) = 140.27428 132.59210 56.45594
#
# Poissons Ratio (x) = 0.16214 0.19940
# Poissons Ratio (y) = 0.17153 0.22057
# Poissons Ratio (z) = 0.49545 0.51803
#
# Static dielectric constant tensor:
#      x y z
#    x 3.934770 0.000000 0.000000 
#    y 0.000000 4.502950 0.000000 
#    z 0.000000 0.000000 8.021010 
# 
# 
# High freq. dielectric constant tensor:
#      x y z
#    x 1.840690 0.000000 0.000000 
#    y 0.000000 1.852980 0.000000 
#    z 0.000000 0.000000 1.788100 
# 
# From -- ./inp_files/48203.got.cif
#   From: 2010.03.12/outbox.cif.g09.slc.cpg/sg74_25_cif.got.tgz:48203.got - 2010.04.16 15:46:19.
