data_PCOD8300654
_publ_section_title
;
Structure prediction by ZEFSAII (Michael W. Deem and Ramdas Pophale) SiO2 
 PCOD8300654
Probable space group: I M M A
;
_chemical_formula_sum "Si O2"
_cell_formula_units_Z 120
_cell_length_a 25.618536
_cell_length_b 19.001674
_cell_length_c 12.508152
_cell_angle_alpha 90.000000
_cell_angle_beta 90.000000
_cell_angle_gamma 90.000000
_cell_volume 6088.906721
_symmetry_space_group_name_H-M "I M M A"
_symmetry_group_IT_number 74
_symmetry_cell_setting 'orthorhombic'
loop_
_space_group_symop_operation_xyz
x,y,z
-x,1/2-y,z
x,-y,-z
-x,1/2+y,-z
-x,-y,-z
x,1/2+y,-z
-x,y,z
x,1/2-y,z
1/2+x,1/2+y,1/2+z
1/2-x,-y,1/2+z
1/2+x,1/2-y,1/2-z
1/2-x,y,1/2-z
1/2-x,1/2-y,1/2-z
1/2+x,y,1/2-z
1/2-x,1/2+y,1/2+z
1/2+x,-y,1/2+z
loop_
_atom_site_type_symbol
_atom_site_label
_atom_site_fract_x
_atom_site_fract_y
_atom_site_fract_z
Si Si1 0.785341 0.830918 0.463973
Si Si2 0.615928 0.077774 0.952810
Si Si3 0.781681 0.331076 0.153872
Si Si4 0.636480 0.051989 0.712308
Si Si5 0.441512 0.419283 0.531066
Si Si6 0.060405 0.171606 0.392231
Si Si7 0.391051 0.609021 0.681527
Si Si8 0.750000 0.609944 0.250000
O O1 0.801850 0.750000 0.483817
O O2 0.832392 0.882678 0.492111
O O3 0.738814 0.858732 0.539827
O O4 0.767018 0.838253 0.343208
O O5 0.611475 0.075380 0.824940
O O6 0.569381 0.124613 0.001670
O O7 0.615442 0.000000 0.000000
O O8 0.767629 0.250000 0.157978
O O9 0.750000 0.369388 0.250000
O O10 0.842583 0.340477 0.164668
O O11 0.602985 0.094531 0.622047
O O12 0.699285 0.064785 0.711789
O O13 0.629089 0.970195 0.690809
O O14 0.442811 0.500000 0.500000
O O15 0.500000 0.396067 0.570001
O O16 0.427625 0.378076 0.421803
O O17 0.085762 0.250000 0.402390
O O18 0.080768 0.130120 0.289586
O O19 0.000000 0.180824 0.376217
#
# Coordination Sequence:
#
# PCOD8300654 Si02
#       8
#    16  16  16  16  16  16  16   8
#     4  10  21  37  58  82 116 160 203 243 294 361
#     4  11  22  39  58  88 119 155 203 252 305 362
#     4  10  21  33  52  81 113 155 197 240 294 356
#     4  10  22  36  57  89 122 162 198 249 312 359
#     4   9  19  36  57  83 115 152 198 249 305 367
#     4  11  24  41  62  87 118 157 201 252 306 361
#     4  11  20  36  59  85 120 155 199 248 306 362
#     4  10  21  36  56  84 121 156 204 242 299 364
#
# _framework density 19.70797
#
# number of rings (size 3 to 8) (size 9 to 14) (size 15 to 20)
#    0.000    1.733    1.333    3.000    0.933    3.467 
#    0.000    0.667    0.000    2.400    0.000    1.867 
#    0.000    0.000    0.000    0.000    0.000    0.000 
#
# Total GULP energy -743700.113398 kJ/mol
# GULP energy per Si atom -12395.001890 kJ/mol
# Density = 1.966311 g / cm^3
# Si number density = 19.707970 Si / 1000 Ang^3
#
#
#
# Elastic Constant Matrix: (Units=GPa)
#
#
# Indices 1 2 3 4 5 6 
#
# 1 112.6725 17.3444 37.3557 0.0000 0.0000 0.0000
# 2 17.3444 67.8750 21.0439 0.0000 0.0000 0.0000
# 3 37.3557 21.0439 96.0429 0.0000 0.0000 0.0000
# 4 0.0000 0.0000 0.0000 7.3062 0.0000 0.0000
# 5 0.0000 0.0000 0.0000 0.0000 36.3878 0.0000
# 6 0.0000 0.0000 0.0000 0.0000 0.0000 15.3188
#
#
#
# Elastic Compliance Matrix: (Units=1/GPa)
#
#
# Indices 1 2 3 4 5 6 
#
# 1 0.010329 -0.001495 -0.003690 0.000000 0.000000 0.000000
# 2 -0.001495 0.016023 -0.002929 0.000000 0.000000 0.000000
# 3 -0.003690 -0.002929 0.012489 0.000000 0.000000 0.000000
# 4 0.000000 0.000000 0.000000 0.136870 0.000000 0.000000
# 5 0.000000 0.000000 0.000000 0.000000 0.027482 0.000000
# 6 0.000000 0.000000 0.000000 0.000000 0.000000 0.065279
#
#
# Mechanical properties :
#
#
# Convention : Reuss Voigt Hill
#
# Bulk Modulus (GPa) = 44.22366 47.56427 45.89396
# Shear Modulus (GPa) = 17.10936 25.19234 21.15085
#
# Velocity S-wave (km/s) = 2.94963 3.57919 3.27955
# Velocity P-wave (km/s) = 5.83854 6.42399 6.13825
#
# Compressibility (1/GPa) = 0.02261233
#
# Stress axis : x y z
#
# Youngs Moduli (GPa) = 96.81704 62.40928 80.07091
#
# Poissons Ratio (x) = 0.09333 0.29544
# Poissons Ratio (y) = 0.14478 0.23454
# Poissons Ratio (z) = 0.35722 0.18281
#
# Static dielectric constant tensor:
#      x y z
#    x 3.728810 0.000000 0.000000 
#    y 0.000000 3.573100 0.000000 
#    z 0.000000 0.000000 3.958830 
# 
# 
# High freq. dielectric constant tensor:
#      x y z
#    x 1.770440 0.000000 0.000000 
#    y 0.000000 1.751240 0.000000 
#    z 0.000000 0.000000 1.783170 
# 
# From -- ./inp_files/25462.got.cif
#   From: 2010.03.12/outbox.cif.g09.slc.cpg/sg74_13_cif.got.tgz:25462.got - 2010.04.16 15:46:19.
