data_PCOD8300176
_publ_section_title
;
Structure prediction by ZEFSAII (Michael W. Deem and Ramdas Pophale) SiO2 
 PCOD8300176
Probable space group: I M M A
;
_chemical_formula_sum "Si O2"
_cell_formula_units_Z 64
_cell_length_a 24.286561
_cell_length_b 8.906915
_cell_length_c 14.767228
_cell_angle_alpha 90.000000
_cell_angle_beta 90.000000
_cell_angle_gamma 90.000000
_cell_volume 3194.422166
_symmetry_space_group_name_H-M "I M M A"
_symmetry_group_IT_number 74
_symmetry_cell_setting 'orthorhombic'
loop_
_space_group_symop_operation_xyz
x,y,z
-x,1/2-y,z
x,-y,-z
-x,1/2+y,-z
-x,-y,-z
x,1/2+y,-z
-x,y,z
x,1/2-y,z
1/2+x,1/2+y,1/2+z
1/2-x,-y,1/2+z
1/2+x,1/2-y,1/2-z
1/2-x,y,1/2-z
1/2-x,1/2-y,1/2-z
1/2+x,y,1/2-z
1/2-x,1/2+y,1/2+z
1/2+x,-y,1/2+z
loop_
_atom_site_type_symbol
_atom_site_label
_atom_site_fract_x
_atom_site_fract_y
_atom_site_fract_z
Si Si1 0.118773 0.924589 0.596895
Si Si2 0.562622 0.076707 0.741567
Si Si3 0.759499 0.925791 0.597227
Si Si4 0.652759 0.927767 0.401542
O O1 0.108956 0.750000 0.581686
O O2 0.180017 0.955153 0.639105
O O3 0.110157 0.000000 0.500000
O O4 0.074545 0.985666 0.667313
O O5 0.500000 0.046515 0.711770
O O6 0.573522 0.250000 0.763811
O O7 0.601055 0.023067 0.659290
O O8 0.746529 0.750000 0.591142
O O9 0.760434 0.000000 0.500000
O O10 0.708329 0.006984 0.647891
O O11 0.657731 0.750000 0.411297
O O12 0.644158 0.000000 0.500000
#
# Coordination Sequence:
#
# PCOD8300176 Si02
#       4
#    16  16  16  16
#     4  10  21  37  59  85 112 144 180 222 273 326
#     4  10  23  41  57  77 108 146 189 231 269 318
#     4   9  17  31  53  82 113 141 174 217 268 327
#     4  10  20  35  57  83 111 144 181 223 273 325
#
# _framework density 20.034922999999999
#
# number of rings (size 3 to 8) (size 9 to 14) (size 15 to 20)
#    0.000    2.250    0.000    3.750    0.000    7.500 
#    0.000    5.000    0.000    0.000    0.000    0.000 
#    0.000    0.000    0.000    0.000    0.000    0.000 
#
# Total GULP energy -396635.915379 kJ/mol
# GULP energy per Si atom -12394.872356 kJ/mol
# Density = 1.998932 g / cm^3
# Si number density = 20.034923 Si / 1000 Ang^3
#
#
#
# Elastic Constant Matrix: (Units=GPa)
#
#
# Indices 1 2 3 4 5 6 
#
# 1 80.5095 23.4334 13.9942 0.0000 0.0000 0.0000
# 2 23.4334 82.6990 19.6044 0.0000 0.0000 0.0000
# 3 13.9942 19.6044 55.5833 0.0000 0.0000 0.0000
# 4 0.0000 0.0000 0.0000 26.5967 0.0000 0.0000
# 5 0.0000 0.0000 0.0000 0.0000 36.3719 0.0000
# 6 0.0000 0.0000 0.0000 0.0000 0.0000 30.9363
#
#
#
# Elastic Compliance Matrix: (Units=1/GPa)
#
#
# Indices 1 2 3 4 5 6 
#
# 1 0.013799 -0.003368 -0.002286 0.000000 0.000000 0.000000
# 2 -0.003368 0.014017 -0.004096 0.000000 0.000000 0.000000
# 3 -0.002286 -0.004096 0.020011 0.000000 0.000000 0.000000
# 4 0.000000 0.000000 0.000000 0.037599 0.000000 0.000000
# 5 0.000000 0.000000 0.000000 0.000000 0.027494 0.000000
# 6 0.000000 0.000000 0.000000 0.000000 0.000000 0.032324
#
#
# Mechanical properties :
#
#
# Convention : Reuss Voigt Hill
#
# Bulk Modulus (GPa) = 35.30211 36.98397 36.14304
# Shear Modulus (GPa) = 28.70483 29.56498 29.13490
#
# Velocity S-wave (km/s) = 3.78926 3.84562 3.81754
# Velocity P-wave (km/s) = 6.06656 6.18208 6.12460
#
# Compressibility (1/GPa) = 0.02832692
#
# Stress axis : x y z
#
# Youngs Moduli (GPa) = 72.47132 71.34006 49.97178
#
# Poissons Ratio (x) = 0.24027 0.11424
# Poissons Ratio (y) = 0.24408 0.20469
# Poissons Ratio (z) = 0.16568 0.29221
#
# Static dielectric constant tensor:
#      x y z
#    x 4.320480 0.000000 0.000000 
#    y 0.000000 3.699130 0.000000 
#    z 0.000000 0.000000 3.366180 
# 
# 
# High freq. dielectric constant tensor:
#      x y z
#    x 1.792990 0.000000 0.000000 
#    y 0.000000 1.790150 0.000000 
#    z 0.000000 0.000000 1.761110 
# 
# From -- ./inp_files/28798.got.cif
#   From: 2010.03.12/outbox.cif.g09.slc.cpg/sg74_15_cif.got.tgz:28798.got - 2010.04.16 15:46:19.
