data_PCOD8300571
_publ_section_title
;
Structure prediction by ZEFSAII (Michael W. Deem and Ramdas Pophale) SiO2 
 PCOD8300571
Probable space group: I M M A
;
_chemical_formula_sum "Si O2"
_cell_formula_units_Z 48
_cell_length_a 9.969625
_cell_length_b 17.717242
_cell_length_c 10.595623
_cell_angle_alpha 90.000000
_cell_angle_beta 90.000000
_cell_angle_gamma 90.000000
_cell_volume 1871.550015
_symmetry_space_group_name_H-M "I M M A"
_symmetry_group_IT_number 74
_symmetry_cell_setting 'orthorhombic'
loop_
_space_group_symop_operation_xyz
x,y,z
-x,1/2-y,z
x,-y,-z
-x,1/2+y,-z
-x,-y,-z
x,1/2+y,-z
-x,y,z
x,1/2-y,z
1/2+x,1/2+y,1/2+z
1/2-x,-y,1/2+z
1/2+x,1/2-y,1/2-z
1/2-x,y,1/2-z
1/2-x,1/2-y,1/2-z
1/2+x,y,1/2-z
1/2-x,1/2+y,1/2+z
1/2+x,-y,1/2+z
loop_
_atom_site_type_symbol
_atom_site_label
_atom_site_fract_x
_atom_site_fract_y
_atom_site_fract_z
Si Si1 0.847450 0.982882 0.358302
Si Si2 0.713508 0.661820 0.037331
Si Si3 0.000000 0.838835 0.666206
Si Si4 0.500000 0.161893 0.442812
O O1 0.750000 0.016188 0.250000
O O2 0.845790 0.890427 0.350607
O O3 0.000000 0.014318 0.338977
O O4 0.792736 0.000000 0.500000
O O5 0.689399 0.750000 0.070061
O O6 0.635163 0.637236 0.908560
O O7 0.868798 0.639680 0.021244
O O8 0.000000 0.750000 0.677766
O O9 0.000000 0.876846 0.804553
O O10 0.500000 0.250000 0.417728
#
# Coordination Sequence:
#
# PCOD8300571 Si02
#       4
#    16  16   8   8
#     4  11  27  50  72 101 137 181 232 280 340 410
#     4  10  20  38  63  98 137 174 223 283 340 400
#     4   9  16  30  54  87 134 179 217 271 332 391
#     4   9  18  30  54  95 138 179 223 269 332 405
#
# _framework density 25.647192
#
# number of rings (size 3 to 8) (size 9 to 14) (size 15 to 20)
#    0.000    2.000    1.667    1.000    2.333    8.000 
#    0.000    0.000    0.000    0.000    0.000    0.000 
#    0.000    0.000    0.000    0.000    0.000    0.000 
#
# Total GULP energy -297511.972083 kJ/mol
# GULP energy per Si atom -12396.332170 kJ/mol
# Density = 2.558882 g / cm^3
# Si number density = 25.647192 Si / 1000 Ang^3
#
#
#
# Elastic Constant Matrix: (Units=GPa)
#
#
# Indices 1 2 3 4 5 6 
#
# 1 171.4265 15.3964 45.8966 0.0001 0.0000 0.0000
# 2 15.3964 39.5123 16.6575 0.0002 0.0000 0.0000
# 3 45.8966 16.6575 105.2052 0.0000 0.0001 0.0000
# 4 0.0001 0.0002 0.0000 25.0980 0.0001 0.0000
# 5 0.0000 0.0000 0.0001 0.0001 81.4090 0.0000
# 6 0.0000 0.0000 0.0000 0.0000 0.0000 37.7540
#
#
#
# Elastic Compliance Matrix: (Units=1/GPa)
#
#
# Indices 1 2 3 4 5 6 
#
# 1 0.006684 -0.001474 -0.002683 0.000000 0.000000 0.000000
# 2 -0.001474 0.027444 -0.003702 0.000000 0.000000 0.000000
# 3 -0.002683 -0.003702 0.011262 0.000000 0.000000 0.000000
# 4 0.000000 0.000000 0.000000 0.039844 0.000000 0.000000
# 5 0.000000 0.000000 0.000000 0.000000 0.012284 0.000000
# 6 0.000000 0.000000 0.000000 0.000000 0.000000 0.026487
#
#
# Mechanical properties :
#
#
# Convention : Reuss Voigt Hill
#
# Bulk Modulus (GPa) = 33.70158 52.44945 43.07551
# Shear Modulus (GPa) = 33.41979 44.73177 39.07578
#
# Velocity S-wave (km/s) = 3.61371 4.18080 3.90755
# Velocity P-wave (km/s) = 5.52999 6.61817 6.09840
#
# Compressibility (1/GPa) = 0.02967220
#
# Stress axis : x y z
#
# Youngs Moduli (GPa) = 149.61152 36.43837 88.79603
#
# Poissons Ratio (x) = 0.05369 0.23821
# Poissons Ratio (y) = 0.22046 0.32876
# Poissons Ratio (z) = 0.40135 0.13491
#
# Static dielectric constant tensor:
#      x y z
#    x 5.149040 0.000000 0.000000 
#    y 0.000000 5.048730 0.000000 
#    z 0.000000 0.000000 4.266210 
# 
# 
# High freq. dielectric constant tensor:
#      x y z
#    x 2.021770 0.000000 0.000000 
#    y 0.000000 2.057630 0.000000 
#    z 0.000000 0.000000 1.990110 
# 
# From -- ./inp_files/17094.got.cif
#   From: 2010.03.12/outbox.cif.g09.slc.cpg/sg74_9_cif.got.tgz:17094.got - 2010.04.16 15:46:19.
