data_PCOD8300417
_publ_section_title
;
Structure prediction by ZEFSAII (Michael W. Deem and Ramdas Pophale) SiO2 
 PCOD8300417
Probable space group: I M M A
;
_chemical_formula_sum "Si O2"
_cell_formula_units_Z 96
_cell_length_a 15.673648
_cell_length_b 14.778089
_cell_length_c 19.445411
_cell_angle_alpha 90.000000
_cell_angle_beta 90.000000
_cell_angle_gamma 90.000000
_cell_volume 4504.073757
_symmetry_space_group_name_H-M "I M M A"
_symmetry_group_IT_number 74
_symmetry_cell_setting 'orthorhombic'
loop_
_space_group_symop_operation_xyz
x,y,z
-x,1/2-y,z
x,-y,-z
-x,1/2+y,-z
-x,-y,-z
x,1/2+y,-z
-x,y,z
x,1/2-y,z
1/2+x,1/2+y,1/2+z
1/2-x,-y,1/2+z
1/2+x,1/2-y,1/2-z
1/2-x,y,1/2-z
1/2-x,1/2-y,1/2-z
1/2+x,y,1/2-z
1/2-x,1/2+y,1/2+z
1/2+x,-y,1/2+z
loop_
_atom_site_type_symbol
_atom_site_label
_atom_site_fract_x
_atom_site_fract_y
_atom_site_fract_z
Si Si1 0.400591 0.970944 0.181618
Si Si2 0.096928 0.850643 0.443780
Si Si3 0.592846 0.645633 0.451522
Si Si4 0.745938 0.902948 0.966742
Si Si5 0.898536 0.850984 0.197231
Si Si6 0.802695 0.354001 0.319885
O O1 0.500000 0.955587 0.184885
O O2 0.368298 0.924290 0.110996
O O3 0.357977 0.918022 0.245820
O O4 0.382536 0.077962 0.185390
O O5 0.097037 0.750000 0.410442
O O6 0.162391 0.848194 0.507789
O O7 0.000000 0.874417 0.468734
O O8 0.500000 0.603801 0.473428
O O9 0.578234 0.750000 0.436652
O O10 0.662410 0.633488 0.510036
O O11 0.625186 0.606584 0.377837
O O12 0.751650 0.891942 0.884487
O O13 0.734688 0.000000 0.000000
O O14 0.860347 0.750000 0.207985
O O15 0.000000 0.847112 0.203779
O O16 0.832538 0.250000 0.331443
O O17 0.750000 0.361268 0.250000
#
# Coordination Sequence:
#
# PCOD8300417 Si02
#       6
#    16  16  16  16  16  16
#     4  10  20  36  61  92 125 162 209 255 305 371
#     4  10  21  38  63  96 131 164 200 253 322 388
#     4   9  19  37  62  93 126 159 198 252 323 390
#     4  12  24  41  65  93 122 160 211 268 322 373
#     4   8  15  30  56  92 131 162 188 235 309 387
#     4  11  26  46  62  81 120 171 217 261 308 364
#
# _framework density 21.314039000000001
#
# number of rings (size 3 to 8) (size 9 to 14) (size 15 to 20)
#    0.000    2.000    1.667    3.000    2.333    3.667 
#    0.000    0.833    0.000    5.000    0.000    0.000 
#    0.000    0.000    0.000    0.000    0.000    0.000 
#
# Total GULP energy -594748.665062 kJ/mol
# GULP energy per Si atom -12390.597189 kJ/mol
# Density = 2.126553 g / cm^3
# Si number density = 21.314039 Si / 1000 Ang^3
#
#
#
# Elastic Constant Matrix: (Units=GPa)
#
#
# Indices 1 2 3 4 5 6 
#
# 1 76.7690 13.4305 43.6960 0.0000 0.0000 0.0000
# 2 13.4305 114.4674 35.8166 0.0000 0.0000 0.0000
# 3 43.6960 35.8166 145.5848 0.0000 0.0000 0.0000
# 4 0.0000 0.0000 0.0000 26.7131 0.0000 0.0000
# 5 0.0000 0.0000 0.0000 0.0000 54.7215 0.0000
# 6 0.0000 0.0000 0.0000 0.0000 0.0000 27.9077
#
#
#
# Elastic Compliance Matrix: (Units=1/GPa)
#
#
# Indices 1 2 3 4 5 6 
#
# 1 0.015727 -0.000399 -0.004622 0.000000 0.000000 0.000000
# 2 -0.000399 0.009475 -0.002211 0.000000 0.000000 0.000000
# 3 -0.004622 -0.002211 0.008800 0.000000 0.000000 0.000000
# 4 0.000000 0.000000 0.000000 0.037435 0.000000 0.000000
# 5 0.000000 0.000000 0.000000 0.000000 0.018274 0.000000
# 6 0.000000 0.000000 0.000000 0.000000 0.000000 0.035832
#
#
# Mechanical properties :
#
#
# Convention : Reuss Voigt Hill
#
# Bulk Modulus (GPa) = 51.18473 58.07860 54.63167
# Shear Modulus (GPa) = 34.12501 38.12702 36.12602
#
# Velocity S-wave (km/s) = 4.00566 4.23404 4.12143
# Velocity P-wave (km/s) = 6.74244 7.15618 6.95239
#
# Compressibility (1/GPa) = 0.01953708
#
# Stress axis : x y z
#
# Youngs Moduli (GPa) = 63.58607 105.54299 113.63469
#
# Poissons Ratio (x) = 0.04211 0.52523
# Poissons Ratio (y) = 0.02537 0.25127
# Poissons Ratio (z) = 0.29390 0.23338
#
# Static dielectric constant tensor:
#      x y z
#    x 3.042400 0.000000 0.000000 
#    y 0.000000 3.935400 0.000000 
#    z 0.000000 0.000000 4.091410 
# 
# 
# High freq. dielectric constant tensor:
#      x y z
#    x 1.815890 0.000000 0.000000 
#    y 0.000000 1.835180 0.000000 
#    z 0.000000 0.000000 1.837430 
# 
# From -- ./inp_files/51924.got.cif
#   From: 2010.03.12/outbox.cif.g09.slc.cpg/sg74_26_cif.got.tgz:51924.got - 2010.04.16 15:46:19.
