data_PCOD8300468
_publ_section_title
;
Structure prediction by ZEFSAII (Michael W. Deem and Ramdas Pophale) SiO2 
 PCOD8300468
Probable space group: I M M A
;
_chemical_formula_sum "Si O2"
_cell_formula_units_Z 104
_cell_length_a 8.839356
_cell_length_b 23.618411
_cell_length_c 25.114506
_cell_angle_alpha 90.000000
_cell_angle_beta 90.000000
_cell_angle_gamma 90.000000
_cell_volume 5243.194169
_symmetry_space_group_name_H-M "I M M A"
_symmetry_group_IT_number 74
_symmetry_cell_setting 'orthorhombic'
loop_
_space_group_symop_operation_xyz
x,y,z
-x,1/2-y,z
x,-y,-z
-x,1/2+y,-z
-x,-y,-z
x,1/2+y,-z
-x,y,z
x,1/2-y,z
1/2+x,1/2+y,1/2+z
1/2-x,-y,1/2+z
1/2+x,1/2-y,1/2-z
1/2-x,y,1/2-z
1/2-x,1/2-y,1/2-z
1/2+x,y,1/2-z
1/2-x,1/2+y,1/2+z
1/2+x,-y,1/2+z
loop_
_atom_site_type_symbol
_atom_site_label
_atom_site_fract_x
_atom_site_fract_y
_atom_site_fract_z
Si Si1 0.322208 0.627625 0.307864
Si Si2 0.823649 0.437327 0.599621
Si Si3 0.821741 0.750000 0.968438
Si Si4 0.177532 0.128862 0.996162
Si Si5 0.325972 0.567828 0.908128
Si Si6 0.676369 0.362533 0.195944
Si Si7 0.674996 0.250000 0.693781
Si Si8 0.319636 0.750000 0.651366
O O1 0.500000 0.619015 0.302031
O O2 0.250000 0.620682 0.250000
O O3 0.258539 0.579991 0.346321
O O4 0.282687 0.690043 0.334264
O O5 0.769700 0.400038 0.550503
O O6 0.783521 0.502150 0.588254
O O7 0.000000 0.428068 0.607910
O O8 0.753200 0.750000 0.908830
O O9 0.000000 0.750000 0.961372
O O10 0.770553 0.694482 0.000895
O O11 0.000000 0.123069 0.984435
O O12 0.214718 0.100329 0.052381
O O13 0.500000 0.578018 0.925347
O O14 0.296479 0.589953 0.848746
O O15 0.500000 0.350237 0.204349
O O16 0.750000 0.386641 0.250000
O O17 0.759063 0.304721 0.181248
O O18 0.500000 0.250000 0.705725
O O19 0.750000 0.250000 0.750000
O O20 0.500000 0.750000 0.652917
#
# Coordination Sequence:
#
# PCOD8300468 Si02
#       8
#    16  16   8  16  16  16   8   8
#     4  10  20  37  60  87 117 152 192 238 293 352
#     4  11  24  41  59  85 120 158 198 244 294 348
#     4   9  20  37  61  91 123 154 189 243 304 355
#     4  11  22  40  64  90 117 151 196 243 296 357
#     4  10  23  42  61  82 116 157 198 246 298 347
#     4  11  23  39  60  89 120 158 202 248 296 356
#     4   8  16  31  54  81 110 143 180 225 277 334
#     4  11  20  38  62  88 121 159 196 244 302 357
#
# _framework density 19.835235999999998
#
# number of rings (size 3 to 8) (size 9 to 14) (size 15 to 20)
#    0.000    1.692    1.538    2.769    0.000    5.538 
#    0.000    6.154    0.000    0.000    0.000    0.000 
#    0.000    0.000    0.000    0.000    0.000    0.000 
#
# Total GULP energy -644784.025696 kJ/mol
# GULP energy per Si atom -12399.692802 kJ/mol
# Density = 1.979009 g / cm^3
# Si number density = 19.835236 Si / 1000 Ang^3
#
#
#
# Elastic Constant Matrix: (Units=GPa)
#
#
# Indices 1 2 3 4 5 6 
#
# 1 71.6134 44.8577 29.2873 0.0000 0.0000 0.0000
# 2 44.8577 127.9064 51.0188 -0.0001 0.0000 0.0000
# 3 29.2873 51.0188 96.9134 0.0000 0.0000 0.0000
# 4 0.0000 -0.0001 0.0000 -41.1403 0.0000 0.0000
# 5 0.0000 0.0000 0.0000 0.0000 37.5051 0.0000
# 6 0.0000 0.0000 0.0000 0.0000 0.0000 27.5405
#
#
#
# Elastic Compliance Matrix: (Units=1/GPa)
#
#
# Indices 1 2 3 4 5 6 
#
# 1 0.018455 -0.005377 -0.002747 0.000000 0.000000 0.000000
# 2 -0.005377 0.011463 -0.004410 0.000000 0.000000 0.000000
# 3 -0.002747 -0.004410 0.013470 0.000000 0.000000 0.000000
# 4 0.000000 0.000000 0.000000 -0.024307 0.000000 0.000000
# 5 0.000000 0.000000 0.000000 0.000000 0.026663 0.000000
# 6 0.000000 0.000000 0.000000 0.000000 0.000000 0.036310
#
#
# Mechanical properties :
#
#
# Convention : Reuss Voigt Hill
#
# Bulk Modulus (GPa) = 54.57971 60.75122 57.66546
# Shear Modulus (GPa) = 44.15910 16.19902 30.17906
#
# Velocity S-wave (km/s) = 4.72348 2.86086 3.90486
# Velocity P-wave (km/s) = 7.57131 6.45036 7.03320
#
# Compressibility (1/GPa) = 0.01832183
#
# Stress axis : x y z
#
# Youngs Moduli (GPa) = 54.18566 87.23907 74.23971
#
# Poissons Ratio (x) = 0.46906 0.20391
# Poissons Ratio (y) = 0.29134 0.32736
# Poissons Ratio (z) = 0.14883 0.38469
#
# Static dielectric constant tensor:
#      x y z
#    x 3.577550 0.000000 0.000000 
#    y 0.000000 4.035560 0.000000 
#    z 0.000000 0.000000 3.608780 
# 
# 
# High freq. dielectric constant tensor:
#      x y z
#    x 1.775860 0.000000 0.000000 
#    y 0.000000 1.785560 0.000000 
#    z 0.000000 0.000000 1.772300 
# 
# From -- ./inp_files/64576.got.cif
#   From: 2010.03.12/outbox.cif.g09.slc.cpg/sg74_33_cif.got.tgz:64576.got - 2010.04.16 15:46:19.
