data_PCOD8300292
_publ_section_title
;
Structure prediction by ZEFSAII (Michael W. Deem and Ramdas Pophale) SiO2 
 PCOD8300292
Probable space group: I M M A
;
_chemical_formula_sum "Si O2"
_cell_formula_units_Z 72
_cell_length_a 9.172739
_cell_length_b 27.023966
_cell_length_c 14.357295
_cell_angle_alpha 90.000000
_cell_angle_beta 90.000000
_cell_angle_gamma 90.000000
_cell_volume 3558.940654
_symmetry_space_group_name_H-M "I M M A"
_symmetry_group_IT_number 74
_symmetry_cell_setting 'orthorhombic'
loop_
_space_group_symop_operation_xyz
x,y,z
-x,1/2-y,z
x,-y,-z
-x,1/2+y,-z
-x,-y,-z
x,1/2+y,-z
-x,y,z
x,1/2-y,z
1/2+x,1/2+y,1/2+z
1/2-x,-y,1/2+z
1/2+x,1/2-y,1/2-z
1/2-x,y,1/2-z
1/2-x,1/2-y,1/2-z
1/2+x,y,1/2-z
1/2-x,1/2+y,1/2+z
1/2+x,-y,1/2+z
loop_
_atom_site_type_symbol
_atom_site_label
_atom_site_fract_x
_atom_site_fract_y
_atom_site_fract_z
Si Si1 0.172406 0.874839 0.654032
Si Si2 0.332195 0.078426 0.664514
Si Si3 0.671481 0.750000 0.349173
Si Si4 0.830975 0.340076 0.980518
Si Si5 0.663985 0.486602 0.107199
O O1 0.250000 0.860040 0.750000
O O2 0.234259 0.838593 0.573800
O O3 0.214580 0.930810 0.626930
O O4 0.000000 0.867012 0.662803
O O5 0.500000 0.077725 0.690147
O O6 0.250000 0.105601 0.750000
O O7 0.302307 0.107422 0.569225
O O8 0.274969 0.022380 0.659689
O O9 0.500000 0.750000 0.329208
O O10 0.750000 0.750000 0.250000
O O11 0.718896 0.702500 0.409431
O O12 0.000000 0.333467 0.008094
O O13 0.500000 0.495051 0.144786
O O14 0.671872 0.500000 0.000000
#
# Coordination Sequence:
#
# PCOD8300292 Si02
#       5
#    16  16   8  16  16
#     4  11  23  39  61  86 118 158 200 245 292 346
#     4  11  22  34  54  83 116 154 194 238 287 344
#     4  10  22  42  67  94 123 154 189 238 296 356
#     4  10  22  40  61  87 118 152 194 242 294 349
#     4  10  20  36  56  82 116 155 197 240 288 342
#
# _framework density 20.230740000000001
#
# number of rings (size 3 to 8) (size 9 to 14) (size 15 to 20)
#    0.000    1.556    2.222    2.667    0.000    5.778 
#    0.000    0.556    0.000    0.000    0.000    0.000 
#    0.000    0.000    0.000    0.000    0.000    0.000 
#
# Total GULP energy -446466.329257 kJ/mol
# GULP energy per Si atom -12401.842479 kJ/mol
# Density = 2.018469 g / cm^3
# Si number density = 20.230740 Si / 1000 Ang^3
#
#
#
# Elastic Constant Matrix: (Units=GPa)
#
#
# Indices 1 2 3 4 5 6 
#
# 1 112.1749 41.7232 82.0755 0.0000 0.0000 0.0000
# 2 41.7232 82.7724 48.5842 0.0001 0.0000 0.0000
# 3 82.0755 48.5842 157.4510 0.0002 -0.0001 0.0000
# 4 0.0000 0.0001 0.0002 28.9437 0.0000 0.0000
# 5 0.0000 0.0000 -0.0001 0.0000 43.1474 0.0000
# 6 0.0000 0.0000 0.0000 0.0000 0.0000 22.9445
#
#
#
# Elastic Compliance Matrix: (Units=1/GPa)
#
#
# Indices 1 2 3 4 5 6 
#
# 1 0.015285 -0.003698 -0.006827 0.000000 0.000000 0.000000
# 2 -0.003698 0.015648 -0.002901 0.000000 0.000000 0.000000
# 3 -0.006827 -0.002901 0.010805 0.000000 0.000000 0.000000
# 4 0.000000 0.000000 0.000000 0.034550 0.000000 0.000000
# 5 0.000000 0.000000 0.000000 0.000000 0.023176 0.000000
# 6 0.000000 0.000000 0.000000 0.000000 0.000000 0.043584
#
#
# Mechanical properties :
#
#
# Convention : Reuss Voigt Hill
#
# Bulk Modulus (GPa) = 67.17191 77.46269 72.31730
# Shear Modulus (GPa) = 28.59425 31.00815 29.80120
#
# Velocity S-wave (km/s) = 3.76361 3.91925 3.84222
# Velocity P-wave (km/s) = 7.22228 7.67160 7.45033
#
# Compressibility (1/GPa) = 0.01488718
#
# Stress axis : x y z
#
# Youngs Moduli (GPa) = 65.42411 63.90607 92.55068
#
# Poissons Ratio (x) = 0.23630 0.63181
# Poissons Ratio (y) = 0.24192 0.26848
# Poissons Ratio (z) = 0.44663 0.18539
#
# Static dielectric constant tensor:
#      x y z
#    x 3.624780 0.000000 0.000000 
#    y 0.000000 3.551530 0.000000 
#    z 0.000000 0.000000 3.785180 
# 
# 
# High freq. dielectric constant tensor:
#      x y z
#    x 1.789550 0.000000 0.000000 
#    y 0.000000 1.769930 0.000000 
#    z 0.000000 0.000000 1.804670 
# 
# From -- ./inp_files/29146.got.cif
#   From: 2010.03.12/outbox.cif.g09.slc.cpg/sg74_15_cif.got.tgz:29146.got - 2010.04.16 15:46:19.
