data_PCOD8300036
_publ_section_title
;
Structure prediction by ZEFSAII (Michael W. Deem and Ramdas Pophale) SiO2 
 PCOD8300036
Probable space group: I M M A
;
_chemical_formula_sum "Si O2"
_cell_formula_units_Z 64
_cell_length_a 10.139954
_cell_length_b 17.912086
_cell_length_c 20.931613
_cell_angle_alpha 90.000000
_cell_angle_beta 90.000000
_cell_angle_gamma 90.000000
_cell_volume 3801.761314
_symmetry_space_group_name_H-M "I M M A"
_symmetry_group_IT_number 74
_symmetry_cell_setting 'orthorhombic'
loop_
_space_group_symop_operation_xyz
x,y,z
-x,1/2-y,z
x,-y,-z
-x,1/2+y,-z
-x,-y,-z
x,1/2+y,-z
-x,y,z
x,1/2-y,z
1/2+x,1/2+y,1/2+z
1/2-x,-y,1/2+z
1/2+x,1/2-y,1/2-z
1/2-x,y,1/2-z
1/2-x,1/2-y,1/2-z
1/2+x,y,1/2-z
1/2-x,1/2+y,1/2+z
1/2+x,-y,1/2+z
loop_
_atom_site_type_symbol
_atom_site_label
_atom_site_fract_x
_atom_site_fract_y
_atom_site_fract_z
Si Si1 0.500000 0.409397 0.560299
Si Si2 0.000000 0.033832 0.155172
Si Si3 0.778884 0.591759 0.613434
Si Si4 0.500000 0.903996 0.784954
Si Si5 0.207057 0.250000 0.093644
Si Si6 0.500000 0.250000 0.293884
Si Si7 0.500000 0.750000 0.483043
Si Si8 0.274465 0.000000 0.500000
O O1 0.500000 0.448690 0.629954
O O2 0.500000 0.320226 0.565063
O O3 0.631481 0.432784 0.522687
O O4 0.874662 0.079716 0.129725
O O5 0.000000 0.031752 0.231358
O O6 0.799639 0.677152 0.591712
O O7 0.817028 0.534053 0.556382
O O8 0.870318 0.578958 0.674197
O O9 0.500000 0.822265 0.752388
O O10 0.127480 0.250000 0.160743
O O11 0.124459 0.250000 0.029157
#
# Coordination Sequence:
#
# PCOD8300036 Si02
#       8
#     8   8  16   8   8   4   4   8
#     4   9  17  29  54  75 100 123 168 220 256 287
#     4  10  20  35  50  74 101 134 169 214 248 289
#     4  11  21  34  52  72 105 138 172 208 248 297
#     4  12  23  33  49  74 107 147 171 194 241 311
#     4  11  19  30  51  75 105 141 163 207 246 299
#     4  11  22  32  46  76 112 139 178 192 232 311
#     4  11  16  30  54  86  94 127 168 216 266 289
#     4   9  18  33  48  74 100 132 168 214 252 294
#
# _framework density 16.834302000000001
#
# number of rings (size 3 to 8) (size 9 to 14) (size 15 to 20)
#    0.000    1.500    5.000    3.000    0.000    1.500 
#    0.000    0.000    0.000    0.000    0.000   15.750 
#    0.000    0.000    0.000    0.000    0.000    0.000 
#
# Total GULP energy -396692.041791 kJ/mol
# GULP energy per Si atom -12396.626306 kJ/mol
# Density = 1.679599 g / cm^3
# Si number density = 16.834302 Si / 1000 Ang^3
#
#
#
# Elastic Constant Matrix: (Units=GPa)
#
#
# Indices 1 2 3 4 5 6 
#
# 1 45.6203 22.0111 28.6697 0.0000 0.0000 0.0000
# 2 22.0111 125.6946 68.4293 0.0000 0.0000 0.0000
# 3 28.6697 68.4293 119.9574 0.0000 0.0000 0.0000
# 4 0.0000 0.0000 0.0000 36.0752 0.0000 0.0000
# 5 0.0000 0.0000 0.0000 0.0000 12.4209 0.0000
# 6 0.0000 0.0000 0.0000 0.0000 0.0000 10.0277
#
#
#
# Elastic Compliance Matrix: (Units=1/GPa)
#
#
# Indices 1 2 3 4 5 6 
#
# 1 0.026042 -0.001700 -0.005254 0.000000 0.000000 0.000000
# 2 -0.001700 0.011650 -0.006240 0.000000 0.000000 0.000000
# 3 -0.005254 -0.006240 0.013151 0.000000 0.000000 0.000000
# 4 0.000000 0.000000 0.000000 0.027720 0.000000 0.000000
# 5 0.000000 0.000000 0.000000 0.000000 0.080509 0.000000
# 6 0.000000 0.000000 0.000000 0.000000 0.000000 0.099724
#
#
# Mechanical properties :
#
#
# Convention : Reuss Voigt Hill
#
# Bulk Modulus (GPa) = 40.88925 58.83250 49.86087
# Shear Modulus (GPa) = 17.04523 23.18224 20.11373
#
# Velocity S-wave (km/s) = 3.18548 3.71493 3.46035
# Velocity P-wave (km/s) = 6.15400 7.30923 6.75635
#
# Compressibility (1/GPa) = 0.02445631
#
# Stress axis : x y z
#
# Youngs Moduli (GPa) = 38.39906 85.83405 76.03702
#
# Poissons Ratio (x) = 0.14591 0.39953
# Poissons Ratio (y) = 0.06527 0.47444
# Poissons Ratio (z) = 0.20176 0.53558
#
# Static dielectric constant tensor:
#      x y z
#    x 2.902500 0.000000 0.000000 
#    y 0.000000 3.181580 0.000000 
#    z 0.000000 0.000000 3.289440 
# 
# 
# High freq. dielectric constant tensor:
#      x y z
#    x 1.625720 0.000000 0.000000 
#    y 0.000000 1.638120 0.000000 
#    z 0.000000 0.000000 1.643570 
# 
# From -- ./inp_files/43702.got.cif
#   From: 2010.03.12/outbox.cif.g09.slc.cpg/sg74_22_cif.got.tgz:43702.got - 2010.04.16 15:46:19.
