data_PCOD8300492
_publ_section_title
;
Structure prediction by ZEFSAII (Michael W. Deem and Ramdas Pophale) SiO2 
 PCOD8300492
Probable space group: I M M A
;
_chemical_formula_sum "Si O2"
_cell_formula_units_Z 96
_cell_length_a 16.581432
_cell_length_b 14.635281
_cell_length_c 20.498643
_cell_angle_alpha 90.000000
_cell_angle_beta 90.000000
_cell_angle_gamma 90.000000
_cell_volume 4974.485984
_symmetry_space_group_name_H-M "I M M A"
_symmetry_group_IT_number 74
_symmetry_cell_setting 'orthorhombic'
loop_
_space_group_symop_operation_xyz
x,y,z
-x,1/2-y,z
x,-y,-z
-x,1/2+y,-z
-x,-y,-z
x,1/2+y,-z
-x,y,z
x,1/2-y,z
1/2+x,1/2+y,1/2+z
1/2-x,-y,1/2+z
1/2+x,1/2-y,1/2-z
1/2-x,y,1/2-z
1/2-x,1/2-y,1/2-z
1/2+x,y,1/2-z
1/2-x,1/2+y,1/2+z
1/2+x,-y,1/2+z
loop_
_atom_site_type_symbol
_atom_site_label
_atom_site_fract_x
_atom_site_fract_y
_atom_site_fract_z
Si Si1 0.500000 0.146645 0.353469
Si Si2 0.361779 0.149286 0.597226
Si Si3 0.500000 0.392023 0.501564
Si Si4 0.680497 0.145345 0.930771
Si Si5 0.357413 0.516893 0.687843
Si Si6 0.672544 0.014712 0.162974
Si Si7 0.407314 0.856839 0.937849
O O1 0.500000 0.250000 0.325624
O O2 0.500000 0.151047 0.430811
O O3 0.581356 0.097246 0.330051
O O4 0.365108 0.250000 0.629812
O O5 0.421791 0.144229 0.537422
O O6 0.275963 0.132780 0.563391
O O7 0.384615 0.077011 0.653173
O O8 0.500000 0.500000 0.500000
O O9 0.655134 0.250000 0.915437
O O10 0.651417 0.081049 0.871956
O O11 0.641232 0.110969 0.998133
O O12 0.361860 0.502768 0.764900
O O13 0.267230 0.540549 0.664044
O O14 0.627189 0.095930 0.126494
O O15 0.500000 0.884184 0.948101
O O16 0.396396 0.750000 0.926351
#
# Coordination Sequence:
#
# PCOD8300492 Si02
#       7
#     8  16   8  16  16  16  16
#     4  12  26  41  60  85 119 158 197 240 286 337
#     4  10  20  37  62  89 119 153 189 235 293 348
#     4  12  22  37  61  88 121 153 194 244 285 338
#     4   9  20  37  61  91 117 147 190 240 294 353
#     4  10  23  41  57  88 119 155 195 238 281 349
#     4  10  22  39  62  84 119 154 192 237 294 342
#     4  10  22  39  60  86 115 149 196 247 292 341
#
# _framework density 19.298476999999998
#
# number of rings (size 3 to 8) (size 9 to 14) (size 15 to 20)
#    0.000    1.833    1.667    1.250    3.500    3.333 
#    0.000    5.000    0.000    0.000    0.000    0.000 
#    0.000    0.000    0.000    0.000    0.000    0.000 
#
# Total GULP energy -595290.536134 kJ/mol
# GULP energy per Si atom -12401.886169 kJ/mol
# Density = 1.925455 g / cm^3
# Si number density = 19.298477 Si / 1000 Ang^3
#
#
#
# Elastic Constant Matrix: (Units=GPa)
#
#
# Indices 1 2 3 4 5 6 
#
# 1 92.3554 53.7891 61.0988 0.0000 0.0000 0.0000
# 2 53.7891 105.4987 49.6145 0.0000 0.0000 0.0000
# 3 61.0988 49.6145 137.5610 0.0000 0.0000 0.0000
# 4 0.0000 0.0000 0.0000 11.2368 0.0000 0.0000
# 5 0.0000 0.0000 0.0000 0.0000 30.5907 0.0000
# 6 0.0000 0.0000 0.0000 0.0000 0.0000 20.8570
#
#
#
# Elastic Compliance Matrix: (Units=1/GPa)
#
#
# Indices 1 2 3 4 5 6 
#
# 1 0.018619 -0.006748 -0.005836 0.000000 0.000000 0.000000
# 2 -0.006748 0.013861 -0.002002 0.000000 0.000000 0.000000
# 3 -0.005836 -0.002002 0.010584 0.000000 0.000000 0.000000
# 4 0.000000 0.000000 0.000000 0.088993 0.000000 0.000000
# 5 0.000000 0.000000 0.000000 0.000000 0.032690 0.000000
# 6 0.000000 0.000000 0.000000 0.000000 0.000000 0.047946
#
#
# Mechanical properties :
#
#
# Convention : Reuss Voigt Hill
#
# Bulk Modulus (GPa) = 71.98813 73.82446 72.90629
# Shear Modulus (GPa) = 20.28445 23.93108 22.10776
#
# Velocity S-wave (km/s) = 3.24557 3.52525 3.38830
# Velocity P-wave (km/s) = 7.17136 7.40992 7.29162
#
# Compressibility (1/GPa) = 0.01389118
#
# Stress axis : x y z
#
# Youngs Moduli (GPa) = 53.70916 72.14495 94.48662
#
# Poissons Ratio (x) = 0.48687 0.55140
# Poissons Ratio (y) = 0.36245 0.18915
# Poissons Ratio (z) = 0.31343 0.14443
#
# Static dielectric constant tensor:
#      x y z
#    x 3.621220 0.000000 0.000000 
#    y 0.000000 3.684330 0.000000 
#    z 0.000000 0.000000 3.584480 
# 
# 
# High freq. dielectric constant tensor:
#      x y z
#    x 1.758210 0.000000 0.000000 
#    y 0.000000 1.760760 0.000000 
#    z 0.000000 0.000000 1.748190 
# 
# From -- ./inp_files/51947.got.cif
#   From: 2010.03.12/outbox.cif.g09.slc.cpg/sg74_26_cif.got.tgz:51947.got - 2010.04.16 15:46:19.
