data_PCOD8300071
_publ_section_title
;
Structure prediction by ZEFSAII (Michael W. Deem and Ramdas Pophale) SiO2 
 PCOD8300071
Probable space group: I M M A
;
_chemical_formula_sum "Si O2"
_cell_formula_units_Z 96
_cell_length_a 8.661195
_cell_length_b 24.105958
_cell_length_c 23.818101
_cell_angle_alpha 90.000000
_cell_angle_beta 90.000000
_cell_angle_gamma 90.000000
_cell_volume 4972.895632
_symmetry_space_group_name_H-M "I M M A"
_symmetry_group_IT_number 74
_symmetry_cell_setting 'orthorhombic'
loop_
_space_group_symop_operation_xyz
x,y,z
-x,1/2-y,z
x,-y,-z
-x,1/2+y,-z
-x,-y,-z
x,1/2+y,-z
-x,y,z
x,1/2-y,z
1/2+x,1/2+y,1/2+z
1/2-x,-y,1/2+z
1/2+x,1/2-y,1/2-z
1/2-x,y,1/2-z
1/2-x,1/2-y,1/2-z
1/2+x,y,1/2-z
1/2-x,1/2+y,1/2+z
1/2+x,-y,1/2+z
loop_
_atom_site_type_symbol
_atom_site_label
_atom_site_fract_x
_atom_site_fract_y
_atom_site_fract_z
Si Si1 0.318101 0.186229 0.190253
Si Si2 0.683445 0.909860 0.480512
Si Si3 0.318305 0.519337 0.113216
Si Si4 0.182540 0.095514 0.109104
Si Si5 0.678714 0.111353 0.690273
Si Si6 0.678574 0.310291 0.592522
O O1 0.500000 0.178860 0.193029
O O2 0.270997 0.250000 0.177711
O O3 0.250000 0.166902 0.250000
O O4 0.252190 0.148492 0.140528
O O5 0.500000 0.914843 0.474273
O O6 0.752813 0.963227 0.448162
O O7 0.737424 0.905286 0.544410
O O8 0.750646 0.854481 0.450784
O O9 0.500000 0.513159 0.108893
O O10 0.246001 0.461524 0.134738
O O11 0.273321 0.562880 0.160654
O O12 0.000000 0.098489 0.114656
O O13 0.500000 0.093641 0.694009
O O14 0.750000 0.123591 0.750000
O O15 0.699434 0.168169 0.655838
O O16 0.500000 0.304110 0.577469
O O17 0.759924 0.250000 0.586547
#
# Coordination Sequence:
#
# PCOD8300071 Si02
#       6
#    16  16  16  16  16  16
#     4  10  22  41  62  84 113 146 181 224 273 324
#     4   9  19  35  55  80 112 147 182 224 271 320
#     4  11  22  36  55  79 110 146 183 226 277 328
#     4  11  22  36  58  86 113 144 184 224 267 325
#     4  10  20  35  54  77 107 142 182 227 274 324
#     4   8  15  30  52  77 106 141 179 219 263 311
#
# _framework density 19.304648
#
# number of rings (size 3 to 8) (size 9 to 14) (size 15 to 20)
#    0.000    2.167    0.000    4.500    0.000    6.000 
#    0.000    5.000    0.000   12.000    0.000    0.000 
#    0.000    0.000    0.000    0.000    0.000    0.000 
#
# Total GULP energy -595175.689572 kJ/mol
# GULP energy per Si atom -12399.493533 kJ/mol
# Density = 1.926071 g / cm^3
# Si number density = 19.304648 Si / 1000 Ang^3
#
#
#
# Elastic Constant Matrix: (Units=GPa)
#
#
# Indices 1 2 3 4 5 6 
#
# 1 67.7714 30.5226 24.3565 0.0000 0.0000 0.0000
# 2 30.5226 113.5024 29.0144 0.0000 0.0000 0.0000
# 3 24.3565 29.0144 66.4693 0.0000 0.0000 0.0000
# 4 0.0000 0.0000 0.0000 24.5557 0.0000 0.0000
# 5 0.0000 0.0000 0.0000 0.0000 32.3118 0.0000
# 6 0.0000 0.0000 0.0000 0.0000 0.0000 25.8802
#
#
#
# Elastic Compliance Matrix: (Units=1/GPa)
#
#
# Indices 1 2 3 4 5 6 
#
# 1 0.018207 -0.003592 -0.005104 0.000000 0.000000 0.000000
# 2 -0.003592 0.010625 -0.003322 0.000000 0.000000 0.000000
# 3 -0.005104 -0.003322 0.018365 0.000000 0.000000 0.000000
# 4 0.000000 0.000000 0.000000 0.040724 0.000000 0.000000
# 5 0.000000 0.000000 0.000000 0.000000 0.030948 0.000000
# 6 0.000000 0.000000 0.000000 0.000000 0.000000 0.038640
#
#
# Mechanical properties :
#
#
# Convention : Reuss Voigt Hill
#
# Bulk Modulus (GPa) = 43.17319 46.17000 44.67160
# Shear Modulus (GPa) = 26.41793 27.47286 26.94539
#
# Velocity S-wave (km/s) = 3.70330 3.77652 3.74009
# Velocity P-wave (km/s) = 6.37955 6.55626 6.46851
#
# Compressibility (1/GPa) = 0.02316252
#
# Stress axis : x y z
#
# Youngs Moduli (GPa) = 54.92282 94.11413 54.45162
#
# Poissons Ratio (x) = 0.33801 0.27792
# Poissons Ratio (y) = 0.19726 0.18089
# Poissons Ratio (z) = 0.28033 0.31265
#
# Static dielectric constant tensor:
#      x y z
#    x 3.375450 0.000000 0.000000 
#    y 0.000000 3.790020 0.000000 
#    z 0.000000 0.000000 3.704370 
# 
# 
# High freq. dielectric constant tensor:
#      x y z
#    x 1.740450 0.000000 0.000000 
#    y 0.000000 1.759350 0.000000 
#    z 0.000000 0.000000 1.750250 
# 
# From -- ./inp_files/57292.got.cif
#   From: 2010.03.12/outbox.cif.g09.slc.cpg/sg74_29_cif.got.tgz:57292.got - 2010.04.16 15:46:19.
