data_PCOD8300691
_publ_section_title
;
Structure prediction by ZEFSAII (Michael W. Deem and Ramdas Pophale) SiO2 
 PCOD8300691
Probable space group: I M M A
;
_chemical_formula_sum "Si O2"
_cell_formula_units_Z 72
_cell_length_a 13.296413
_cell_length_b 9.438957
_cell_length_c 31.646693
_cell_angle_alpha 90.000000
_cell_angle_beta 90.000000
_cell_angle_gamma 90.000000
_cell_volume 3971.795121
_symmetry_space_group_name_H-M "I M M A"
_symmetry_group_IT_number 74
_symmetry_cell_setting 'orthorhombic'
loop_
_space_group_symop_operation_xyz
x,y,z
-x,1/2-y,z
x,-y,-z
-x,1/2+y,-z
-x,-y,-z
x,1/2+y,-z
-x,y,z
x,1/2-y,z
1/2+x,1/2+y,1/2+z
1/2-x,-y,1/2+z
1/2+x,1/2-y,1/2-z
1/2-x,y,1/2-z
1/2-x,1/2-y,1/2-z
1/2+x,y,1/2-z
1/2-x,1/2+y,1/2+z
1/2+x,-y,1/2+z
loop_
_atom_site_type_symbol
_atom_site_label
_atom_site_fract_x
_atom_site_fract_y
_atom_site_fract_z
Si Si1 0.805138 0.084610 0.402884
Si Si2 0.705526 0.082440 0.818376
Si Si3 0.608418 0.082011 0.732808
Si Si4 0.886071 0.085314 0.042485
Si Si5 0.500000 0.085551 0.042645
O O1 0.804750 0.250000 0.392001
O O2 0.698184 0.038796 0.423516
O O3 0.898802 0.044467 0.432445
O O4 0.823796 0.998484 0.360400
O O5 0.700435 0.250000 0.827090
O O6 0.632175 0.033387 0.780563
O O7 0.815351 0.029699 0.803052
O O8 0.500000 0.021793 0.719942
O O9 0.613122 0.250000 0.733432
O O10 0.873078 0.250000 0.031423
O O11 0.000000 0.054281 0.059447
O O12 0.865130 0.000000 0.000000
O O13 0.500000 0.250000 0.031262
O O14 0.500000 0.000000 0.000000
#
# Coordination Sequence:
#
# PCOD8300691 Si02
#       5
#    16  16  16  16   8
#     4  10  21  35  50  72 105 134 159 202 253 298
#     4   9  18  31  50  76  97 125 170 206 242 293
#     4   8  15  30  50  71 100 131 161 206 252 288
#     4   9  18  33  52  72  95 126 161 199 245 293
#     4  10  22  38  54  74 102 138 172 208 254 298
#
# _framework density 18.127822999999999
#
# number of rings (size 3 to 8) (size 9 to 14) (size 15 to 20)
#    0.000    2.889    0.000    2.000    1.556    2.667 
#    0.000    2.222    0.000    1.333    0.000    0.000 
#    0.000    0.000    0.000    0.000    0.000    0.000 
#
# Total GULP energy -446194.002220 kJ/mol
# GULP energy per Si atom -12394.277839 kJ/mol
# Density = 1.808656 g / cm^3
# Si number density = 18.127823 Si / 1000 Ang^3
#
#
#
# Elastic Constant Matrix: (Units=GPa)
#
#
# Indices 1 2 3 4 5 6 
#
# 1 117.8955 23.1809 42.4349 0.0000 0.0000 0.0000
# 2 23.1809 36.9560 44.8169 0.0000 0.0000 0.0000
# 3 42.4349 44.8169 115.0974 0.0000 0.0000 0.0000
# 4 0.0000 0.0000 0.0000 33.5714 0.0000 0.0000
# 5 0.0000 0.0000 0.0000 0.0000 63.1696 0.0000
# 6 0.0000 0.0000 0.0000 0.0000 0.0000 13.9275
#
#
#
# Elastic Compliance Matrix: (Units=1/GPa)
#
#
# Indices 1 2 3 4 5 6 
#
# 1 0.010002 -0.003414 -0.002358 0.000000 0.000000 0.000000
# 2 -0.003414 0.052434 -0.019158 0.000000 0.000000 0.000000
# 3 -0.002358 -0.019158 0.017018 0.000000 0.000000 0.000000
# 4 0.000000 0.000000 0.000000 0.029787 0.000000 0.000000
# 5 0.000000 0.000000 0.000000 0.000000 0.015830 0.000000
# 6 0.000000 0.000000 0.000000 0.000000 0.000000 0.071801
#
#
# Mechanical properties :
#
#
# Convention : Reuss Voigt Hill
#
# Bulk Modulus (GPa) = 33.79198 54.53493 44.16346
# Shear Modulus (GPa) = 19.48579 32.76810 26.12694
#
# Velocity S-wave (km/s) = 3.28214 4.25622 3.80051
# Velocity P-wave (km/s) = 5.74845 7.36904 6.60861
#
# Compressibility (1/GPa) = 0.02959282
#
# Stress axis : x y z
#
# Youngs Moduli (GPa) = 99.97797 19.07162 58.76253
#
# Poissons Ratio (x) = 0.06511 0.13858
# Poissons Ratio (y) = 0.34132 1.12578
# Poissons Ratio (z) = 0.23578 0.36538
#
# Static dielectric constant tensor:
#      x y z
#    x 3.943430 0.000000 0.000000 
#    y 0.000000 3.038000 0.000000 
#    z 0.000000 0.000000 3.156070 
# 
# 
# High freq. dielectric constant tensor:
#      x y z
#    x 1.722410 0.000000 0.000000 
#    y 0.000000 1.672240 0.000000 
#    z 0.000000 0.000000 1.695840 
# 
# From -- ./inp_files/66728.got.cif
#   From: 2010.03.12/outbox.cif.g09.slc.cpg/sg74_34_cif.got.tgz:66728.got - 2010.04.16 15:46:19.
