data_PCOD8300376
_publ_section_title
;
Structure prediction by ZEFSAII (Michael W. Deem and Ramdas Pophale) SiO2 
 PCOD8300376
Probable space group: I M M A
;
_chemical_formula_sum "Si O2"
_cell_formula_units_Z 104
_cell_length_a 8.918451
_cell_length_b 20.916047
_cell_length_c 27.818774
_cell_angle_alpha 90.000000
_cell_angle_beta 90.000000
_cell_angle_gamma 90.000000
_cell_volume 5189.279058
_symmetry_space_group_name_H-M "I M M A"
_symmetry_group_IT_number 74
_symmetry_cell_setting 'orthorhombic'
loop_
_space_group_symop_operation_xyz
x,y,z
-x,1/2-y,z
x,-y,-z
-x,1/2+y,-z
-x,-y,-z
x,1/2+y,-z
-x,y,z
x,1/2-y,z
1/2+x,1/2+y,1/2+z
1/2-x,-y,1/2+z
1/2+x,1/2-y,1/2-z
1/2-x,y,1/2-z
1/2-x,1/2-y,1/2-z
1/2+x,y,1/2-z
1/2-x,1/2+y,1/2+z
1/2+x,-y,1/2+z
loop_
_atom_site_type_symbol
_atom_site_label
_atom_site_fract_x
_atom_site_fract_y
_atom_site_fract_z
Si Si1 0.170400 0.075404 0.703400
Si Si2 0.822560 0.148566 0.118922
Si Si3 0.823997 0.093517 0.944434
Si Si4 0.674189 0.179036 0.021711
Si Si5 0.674849 0.178035 0.646786
Si Si6 0.673338 0.013183 0.112140
Si Si7 0.825161 0.250000 0.197983
O O1 0.250000 0.045716 0.750000
O O2 0.241877 0.143697 0.690529
O O3 0.000000 0.087378 0.716461
O O4 0.192463 0.026940 0.660202
O O5 0.739596 0.182636 0.075057
O O6 0.767025 0.076302 0.122312
O O7 0.779512 0.186752 0.167602
O O8 0.000000 0.150865 0.110062
O O9 0.785758 0.144221 0.903188
O O10 0.000000 0.080488 0.950027
O O11 0.742880 0.026254 0.932675
O O12 0.761031 0.123655 0.993254
O O13 0.500000 0.160292 0.023178
O O14 0.696335 0.250000 0.998815
O O15 0.500000 0.175098 0.657611
O O16 0.734732 0.250000 0.643342
O O17 0.500000 0.028766 0.100736
O O18 0.750000 0.250000 0.250000
O O19 0.000000 0.250000 0.207946
#
# Coordination Sequence:
#
# PCOD8300376 Si02
#       7
#    16  16  16  16  16  16   8
#     4  10  21  36  55  78 108 146 189 239 292 347
#     4  11  23  42  65  91 121 155 196 242 295 354
#     4  10  20  36  59  87 119 159 202 245 294 351
#     4  11  23  38  60  90 124 162 200 244 296 351
#     4   9  18  33  53  78 110 148 192 240 289 342
#     4  10  22  40  60  86 119 154 196 247 300 358
#     4  10  24  44  68  96 126 158 198 250 305 368
#
# _framework density 20.041321
#
# number of rings (size 3 to 8) (size 9 to 14) (size 15 to 20)
#    0.000    1.846    0.769    2.769    0.000    7.077 
#    0.000    6.154    0.000    0.000    0.000    0.000 
#    0.000    0.000    0.000    0.000    0.000    0.000 
#
# Total GULP energy -644892.302759 kJ/mol
# GULP energy per Si atom -12401.775053 kJ/mol
# Density = 1.999571 g / cm^3
# Si number density = 20.041321 Si / 1000 Ang^3
#
#
#
# Elastic Constant Matrix: (Units=GPa)
#
#
# Indices 1 2 3 4 5 6 
#
# 1 75.6321 33.4885 39.3425 0.0000 0.0000 0.0000
# 2 33.4885 116.9405 30.1640 0.0000 0.0000 0.0000
# 3 39.3425 30.1640 102.4848 0.0000 0.0000 0.0000
# 4 0.0000 0.0000 0.0000 17.3099 0.0000 0.0000
# 5 0.0000 0.0000 0.0000 0.0000 37.2601 0.0000
# 6 0.0000 0.0000 0.0000 0.0000 0.0000 31.9378
#
#
#
# Elastic Compliance Matrix: (Units=1/GPa)
#
#
# Indices 1 2 3 4 5 6 
#
# 1 0.017829 -0.003615 -0.005781 0.000000 0.000000 0.000000
# 2 -0.003615 0.009987 -0.001552 0.000000 0.000000 0.000000
# 3 -0.005781 -0.001552 0.012433 0.000000 0.000000 0.000000
# 4 0.000000 0.000000 0.000000 0.057770 0.000000 0.000000
# 5 0.000000 0.000000 0.000000 0.000000 0.026838 0.000000
# 6 0.000000 0.000000 0.000000 0.000000 0.000000 0.031311
#
#
# Mechanical properties :
#
#
# Convention : Reuss Voigt Hill
#
# Bulk Modulus (GPa) = 54.47974 55.67191 55.07582
# Shear Modulus (GPa) = 27.14712 30.10572 28.62642
#
# Velocity S-wave (km/s) = 3.68442 3.88000 3.78348
# Velocity P-wave (km/s) = 6.73370 6.92181 6.82840
#
# Compressibility (1/GPa) = 0.01835545
#
# Stress axis : x y z
#
# Youngs Moduli (GPa) = 56.08711 100.13233 80.42901
#
# Poissons Ratio (x) = 0.36196 0.46492
# Poissons Ratio (y) = 0.20274 0.12480
# Poissons Ratio (z) = 0.32421 0.15538
#
# Static dielectric constant tensor:
#      x y z
#    x 3.704130 0.000000 0.000000 
#    y 0.000000 3.781820 0.000000 
#    z 0.000000 0.000000 3.642860 
# 
# 
# High freq. dielectric constant tensor:
#      x y z
#    x 1.790940 0.000000 0.000000 
#    y 0.000000 1.789320 0.000000 
#    z 0.000000 0.000000 1.779670 
# 
# From -- ./inp_files/64449.got.cif
#   From: 2010.03.12/outbox.cif.g09.slc.cpg/sg74_33_cif.got.tgz:64449.got - 2010.04.16 15:46:19.
