data_PCOD8300687
_publ_section_title
;
Structure prediction by ZEFSAII (Michael W. Deem and Ramdas Pophale) SiO2 
 PCOD8300687
Probable space group: I M M A
;
_chemical_formula_sum "Si O2"
_cell_formula_units_Z 96
_cell_length_a 9.314163
_cell_length_b 18.395693
_cell_length_c 32.574280
_cell_angle_alpha 90.000000
_cell_angle_beta 90.000000
_cell_angle_gamma 90.000000
_cell_volume 5581.292872
_symmetry_space_group_name_H-M "I M M A"
_symmetry_group_IT_number 74
_symmetry_cell_setting 'orthorhombic'
loop_
_space_group_symop_operation_xyz
x,y,z
-x,1/2-y,z
x,-y,-z
-x,1/2+y,-z
-x,-y,-z
x,1/2+y,-z
-x,y,z
x,1/2-y,z
1/2+x,1/2+y,1/2+z
1/2-x,-y,1/2+z
1/2+x,1/2-y,1/2-z
1/2-x,y,1/2-z
1/2-x,1/2-y,1/2-z
1/2+x,y,1/2-z
1/2-x,1/2+y,1/2+z
1/2+x,-y,1/2+z
loop_
_atom_site_type_symbol
_atom_site_label
_atom_site_fract_x
_atom_site_fract_y
_atom_site_fract_z
Si Si1 0.666604 0.550862 0.873541
Si Si2 0.169333 0.404112 0.584274
Si Si3 0.665810 0.665349 0.001564
Si Si4 0.671122 0.169677 0.834884
Si Si5 0.667290 0.028884 0.789958
Si Si6 0.167004 0.665694 0.920093
O O1 0.500000 0.571714 0.878009
O O2 0.708249 0.487504 0.905867
O O3 0.700663 0.525258 0.827413
O O4 0.763533 0.620773 0.882835
O O5 0.229842 0.379966 0.540039
O O6 0.232129 0.352474 0.620275
O O7 0.000000 0.393188 0.583474
O O8 0.500000 0.645871 0.992578
O O9 0.683751 0.750000 0.011903
O O10 0.757572 0.642169 0.962315
O O11 0.500000 0.167976 0.836785
O O12 0.728571 0.250000 0.822970
O O13 0.722134 0.110267 0.801533
O O14 0.500000 0.029486 0.779793
O O15 0.750000 0.000751 0.750000
O O16 0.194496 0.750000 0.910517
O O17 0.000000 0.647478 0.923621
#
# Coordination Sequence:
#
# PCOD8300687 Si02
#       6
#    16  16  16  16  16  16
#     4   9  18  33  51  70  92 119 153 191 229 270
#     4   8  14  25  43  68  95 123 159 199 229 254
#     4   9  16  27  46  70  94 124 161 195 225 259
#     4   8  13  23  41  66  96 128 161 195 226 255
#     4   9  18  31  48  71  96 122 152 187 228 272
#     4  10  21  35  49  67  92 120 149 185 232 282
#
# _framework density 17.200316000000001
#
# number of rings (size 3 to 8) (size 9 to 14) (size 15 to 20)
#    0.000    3.167    0.000    3.000    0.000    4.667 
#    0.000    4.167    0.000    1.500    0.000    0.000 
#    0.000    0.000    0.000    0.000    0.000    0.000 
#
# Total GULP energy -595018.465732 kJ/mol
# GULP energy per Si atom -12396.218036 kJ/mol
# Density = 1.716117 g / cm^3
# Si number density = 17.200316 Si / 1000 Ang^3
#
#
#
# Elastic Constant Matrix: (Units=GPa)
#
#
# Indices 1 2 3 4 5 6 
#
# 1 58.9884 42.3164 55.4120 0.0000 0.0000 0.0000
# 2 42.3164 73.5822 62.7347 0.0000 0.0000 0.0000
# 3 55.4120 62.7347 121.1837 0.0000 0.0000 0.0000
# 4 0.0000 0.0000 0.0000 17.7885 0.0000 0.0000
# 5 0.0000 0.0000 0.0000 0.0000 22.2684 0.0000
# 6 0.0000 0.0000 0.0000 0.0000 0.0000 16.8194
#
#
#
# Elastic Compliance Matrix: (Units=1/GPa)
#
#
# Indices 1 2 3 4 5 6 
#
# 1 0.034328 -0.011383 -0.009804 0.000000 0.000000 0.000000
# 2 -0.011383 0.028102 -0.009343 0.000000 0.000000 0.000000
# 3 -0.009804 -0.009343 0.017572 0.000000 0.000000 0.000000
# 4 0.000000 0.000000 0.000000 0.056216 0.000000 0.000000
# 5 0.000000 0.000000 0.000000 0.000000 0.044907 0.000000
# 6 0.000000 0.000000 0.000000 0.000000 0.000000 0.059455
#
#
# Mechanical properties :
#
#
# Convention : Reuss Voigt Hill
#
# Bulk Modulus (GPa) = 52.79353 63.85337 58.32345
# Shear Modulus (GPa) = 16.23625 17.59467 16.91546
#
# Velocity S-wave (km/s) = 3.07571 3.20179 3.13939
# Velocity P-wave (km/s) = 6.58584 7.13250 6.86462
#
# Compressibility (1/GPa) = 0.01894171
#
# Stress axis : x y z
#
# Youngs Moduli (GPa) = 29.13101 35.58440 56.91031
#
# Poissons Ratio (x) = 0.40506 0.55793
# Poissons Ratio (y) = 0.33160 0.53172
# Poissons Ratio (z) = 0.28559 0.33247
#
# Static dielectric constant tensor:
#      x y z
#    x 2.829250 0.000000 0.000000 
#    y 0.000000 3.190090 0.000000 
#    z 0.000000 0.000000 3.204950 
# 
# 
# High freq. dielectric constant tensor:
#      x y z
#    x 1.624790 0.000000 0.000000 
#    y 0.000000 1.657270 0.000000 
#    z 0.000000 0.000000 1.660190 
# 
# From -- ./inp_files/64331.got.cif
#   From: 2010.03.12/outbox.cif.g09.slc.cpg/sg74_33_cif.got.tgz:64331.got - 2010.04.16 15:46:19.
