data_PCOD8300037
_publ_section_title
;
Structure prediction by ZEFSAII (Michael W. Deem and Ramdas Pophale) SiO2 
 PCOD8300037
Probable space group: I M M A
;
_chemical_formula_sum "Si O2"
_cell_formula_units_Z 112
_cell_length_a 19.768266
_cell_length_b 26.782214
_cell_length_c 11.711664
_cell_angle_alpha 90.000000
_cell_angle_beta 90.000000
_cell_angle_gamma 90.000000
_cell_volume 6200.599150
_symmetry_space_group_name_H-M "I M M A"
_symmetry_group_IT_number 74
_symmetry_cell_setting 'orthorhombic'
loop_
_space_group_symop_operation_xyz
x,y,z
-x,1/2-y,z
x,-y,-z
-x,1/2+y,-z
-x,-y,-z
x,1/2+y,-z
-x,y,z
x,1/2-y,z
1/2+x,1/2+y,1/2+z
1/2-x,-y,1/2+z
1/2+x,1/2-y,1/2-z
1/2-x,y,1/2-z
1/2-x,1/2-y,1/2-z
1/2+x,y,1/2-z
1/2-x,1/2+y,1/2+z
1/2+x,-y,1/2+z
loop_
_atom_site_type_symbol
_atom_site_label
_atom_site_fract_x
_atom_site_fract_y
_atom_site_fract_z
Si Si1 0.286513 0.192800 0.567686
Si Si2 0.572281 0.961501 0.596155
Si Si3 0.077671 0.111891 0.568923
Si Si4 0.314062 0.609838 0.612392
Si Si5 0.421139 0.495275 0.833467
Si Si6 0.851285 0.807368 0.304659
Si Si7 0.835564 0.588424 0.628615
O O1 0.286860 0.250000 0.527935
O O2 0.306852 0.162169 0.453773
O O3 0.213911 0.177950 0.619279
O O4 0.339568 0.183920 0.669891
O O5 0.500000 0.934420 0.624319
O O6 0.627785 0.922341 0.552391
O O7 0.596497 0.995115 0.701933
O O8 0.557868 0.000000 0.500000
O O9 0.087489 0.156848 0.658599
O O10 0.125586 0.124472 0.459986
O O11 0.000000 0.110254 0.529668
O O12 0.099594 0.060465 0.631421
O O13 0.243241 0.580598 0.599950
O O14 0.338520 0.613878 0.745218
O O15 0.500000 0.505366 0.863149
O O16 0.374361 0.536154 0.895782
O O17 0.871045 0.750000 0.326960
#
# Coordination Sequence:
#
# PCOD8300037 Si02
#       7
#    16  16  16  16  16  16  16
#     4   9  18  37  60  80 107 142 180 225 282 337
#     4   9  19  34  50  73 108 145 179 219 269 325
#     4  11  21  34  57  82 111 150 189 227 273 327
#     4  10  20  35  55  78 108 144 180 226 273 319
#     4   9  19  34  51  74 108 151 187 217 266 329
#     4   9  19  36  57  82 110 140 178 229 284 332
#     4  10  20  35  50  79 114 142 186 226 265 318
#
# _framework density 18.06277
#
# number of rings (size 3 to 8) (size 9 to 14) (size 15 to 20)
#    0.000    2.429    1.429    1.714    2.000    3.143 
#    0.000    3.571    0.000    1.286    0.000    0.000 
#    0.000    0.000    0.000    0.000    0.000    0.000 
#
# Total GULP energy -693845.649897 kJ/mol
# GULP energy per Si atom -12390.100891 kJ/mol
# Density = 1.802166 g / cm^3
# Si number density = 18.062770 Si / 1000 Ang^3
#
#
#
# Elastic Constant Matrix: (Units=GPa)
#
#
# Indices 1 2 3 4 5 6 
#
# 1 84.9186 41.6015 33.1521 0.0000 0.0000 0.0000
# 2 41.6015 95.8058 51.1467 0.0000 0.0000 0.0000
# 3 33.1521 51.1467 61.4271 0.0000 0.0000 0.0000
# 4 0.0000 0.0000 0.0000 31.8144 0.0000 0.0000
# 5 0.0000 0.0000 0.0000 0.0000 29.3574 0.0000
# 6 0.0000 0.0000 0.0000 0.0000 0.0000 27.4418
#
#
#
# Elastic Compliance Matrix: (Units=1/GPa)
#
#
# Indices 1 2 3 4 5 6 
#
# 1 0.015787 -0.004152 -0.005063 0.000000 0.000000 0.000000
# 2 -0.004152 0.019882 -0.014314 0.000000 0.000000 0.000000
# 3 -0.005063 -0.014314 0.030930 0.000000 0.000000 0.000000
# 4 0.000000 0.000000 0.000000 0.031432 0.000000 0.000000
# 5 0.000000 0.000000 0.000000 0.000000 0.034063 0.000000
# 6 0.000000 0.000000 0.000000 0.000000 0.000000 0.036441
#
#
# Mechanical properties :
#
#
# Convention : Reuss Voigt Hill
#
# Bulk Modulus (GPa) = 51.17328 54.88354 53.02841
# Shear Modulus (GPa) = 22.51169 25.47279 23.99224
#
# Velocity S-wave (km/s) = 3.53413 3.75939 3.64850
# Velocity P-wave (km/s) = 6.71161 7.02103 6.86806
#
# Compressibility (1/GPa) = 0.01954145
#
# Stress axis : x y z
#
# Youngs Moduli (GPa) = 63.34480 50.29573 32.33092
#
# Poissons Ratio (x) = 0.20884 0.16368
# Poissons Ratio (y) = 0.26302 0.46278
# Poissons Ratio (z) = 0.32070 0.71993
#
# Static dielectric constant tensor:
#      x y z
#    x 3.502250 0.000000 0.000000 
#    y 0.000000 3.156410 0.000000 
#    z 0.000000 0.000000 3.513660 
# 
# 
# High freq. dielectric constant tensor:
#      x y z
#    x 1.698230 0.000000 0.000000 
#    y 0.000000 1.675730 0.000000 
#    z 0.000000 0.000000 1.706250 
# 
# From -- ./inp_files/24333.got.cif
#   From: 2010.03.12/outbox.cif.g09.slc.cpg/sg74_13_cif.got.tgz:24333.got - 2010.04.16 15:46:19.
