data_PCOD8300229
_publ_section_title
;
Structure prediction by ZEFSAII (Michael W. Deem and Ramdas Pophale) SiO2 
 PCOD8300229
Probable space group: I M M A
;
_chemical_formula_sum "Si O2"
_cell_formula_units_Z 112
_cell_length_a 19.838824
_cell_length_b 17.136820
_cell_length_c 17.792303
_cell_angle_alpha 90.000000
_cell_angle_beta 90.000000
_cell_angle_gamma 90.000000
_cell_volume 6048.926752
_symmetry_space_group_name_H-M "I M M A"
_symmetry_group_IT_number 74
_symmetry_cell_setting 'orthorhombic'
loop_
_space_group_symop_operation_xyz
x,y,z
-x,1/2-y,z
x,-y,-z
-x,1/2+y,-z
-x,-y,-z
x,1/2+y,-z
-x,y,z
x,1/2-y,z
1/2+x,1/2+y,1/2+z
1/2-x,-y,1/2+z
1/2+x,1/2-y,1/2-z
1/2-x,y,1/2-z
1/2-x,1/2-y,1/2-z
1/2+x,y,1/2-z
1/2-x,1/2+y,1/2+z
1/2+x,-y,1/2+z
loop_
_atom_site_type_symbol
_atom_site_label
_atom_site_fract_x
_atom_site_fract_y
_atom_site_fract_z
Si Si1 0.425394 0.971902 0.132485
Si Si2 0.320382 0.986373 0.413314
Si Si3 0.359061 0.835435 0.065313
Si Si4 0.686105 0.915632 0.919008
Si Si5 0.578817 0.961913 0.709540
Si Si6 0.677017 0.338712 0.228976
Si Si7 0.764129 0.336986 0.833919
O O1 0.500000 0.005326 0.117846
O O2 0.421618 0.884688 0.098466
O O3 0.372999 0.021542 0.084876
O O4 0.410155 0.976163 0.222188
O O5 0.305083 0.897594 0.386686
O O6 0.340662 0.000000 0.500000
O O7 0.256157 0.041907 0.399120
O O8 0.386111 0.009345 0.366132
O O9 0.384871 0.750000 0.038164
O O10 0.309825 0.825827 0.134442
O O11 0.315378 0.878651 0.001070
O O12 0.671076 0.846403 0.860721
O O13 0.500000 0.946927 0.693770
O O14 0.614792 0.881400 0.731857
O O15 0.672413 0.250000 0.255300
O O16 0.750000 0.374915 0.250000
O O17 0.799250 0.250000 0.832719
O O18 0.750000 0.369933 0.750000
#
# Coordination Sequence:
#
# PCOD8300229 Si02
#       7
#    16  16  16  16  16  16  16
#     4  10  21  37  56  78 110 152 196 239 290 348
#     4  12  21  36  61  87 115 156 196 248 296 347
#     4  11  21  34  52  80 118 148 187 239 295 352
#     4  11  20  35  54  87 115 152 189 243 290 348
#     4  10  23  40  60  86 117 153 197 248 293 350
#     4  10  20  35  59  87 115 152 194 235 285 347
#     4  10  21  35  55  84 116 151 195 247 300 348
#
# _framework density 18.515682000000002
#
# number of rings (size 3 to 8) (size 9 to 14) (size 15 to 20)
#    0.000    1.429    4.286    1.714    2.000    2.000 
#    0.000    0.714    0.000    3.857    0.000    0.000 
#    0.000    0.000    0.000    0.000    0.000    0.000 
#
# Total GULP energy -693960.166662 kJ/mol
# GULP energy per Si atom -12392.145833 kJ/mol
# Density = 1.847354 g / cm^3
# Si number density = 18.515682 Si / 1000 Ang^3
#
#
#
# Elastic Constant Matrix: (Units=GPa)
#
#
# Indices 1 2 3 4 5 6 
#
# 1 116.7421 45.7822 36.4713 0.0000 0.0000 0.0000
# 2 45.7822 99.2784 49.5198 0.0000 0.0000 0.0000
# 3 36.4713 49.5198 111.6205 0.0000 0.0000 0.0000
# 4 0.0000 0.0000 0.0000 21.2143 0.0000 0.0000
# 5 0.0000 0.0000 0.0000 0.0000 25.6159 0.0000
# 6 0.0000 0.0000 0.0000 0.0000 0.0000 19.5104
#
#
#
# Elastic Compliance Matrix: (Units=1/GPa)
#
#
# Indices 1 2 3 4 5 6 
#
# 1 0.010696 -0.004096 -0.001678 0.000000 0.000000 0.000000
# 2 -0.004096 0.014503 -0.005096 0.000000 0.000000 0.000000
# 3 -0.001678 -0.005096 0.011768 0.000000 0.000000 0.000000
# 4 0.000000 0.000000 0.000000 0.047138 0.000000 0.000000
# 5 0.000000 0.000000 0.000000 0.000000 0.039038 0.000000
# 6 0.000000 0.000000 0.000000 0.000000 0.000000 0.051255
#
#
# Mechanical properties :
#
#
# Convention : Reuss Voigt Hill
#
# Bulk Modulus (GPa) = 65.66721 65.68748 65.67735
# Shear Modulus (GPa) = 24.84916 26.32596 25.58756
#
# Velocity S-wave (km/s) = 3.66739 3.77479 3.72148
# Velocity P-wave (km/s) = 7.31271 7.38596 7.34943
#
# Compressibility (1/GPa) = 0.01522830
#
# Stress axis : x y z
#
# Youngs Moduli (GPa) = 93.49067 68.94987 84.97600
#
# Poissons Ratio (x) = 0.28239 0.14258
# Poissons Ratio (y) = 0.38290 0.43304
# Poissons Ratio (z) = 0.15687 0.35137
#
# Static dielectric constant tensor:
#      x y z
#    x 3.269380 0.000000 0.000000 
#    y 0.000000 3.596740 0.000000 
#    z 0.000000 0.000000 3.496410 
# 
# 
# High freq. dielectric constant tensor:
#      x y z
#    x 1.697880 0.000000 0.000000 
#    y 0.000000 1.715780 0.000000 
#    z 0.000000 0.000000 1.728410 
# 
# From -- ./inp_files/45443.got.cif
#   From: 2010.03.12/outbox.cif.g09.slc.cpg/sg74_23_cif.got.tgz:45443.got - 2010.04.16 15:46:19.
