data_PCOD8300620
_publ_section_title
;
Structure prediction by ZEFSAII (Michael W. Deem and Ramdas Pophale) SiO2 
 PCOD8300620
Probable space group: I M M A
;
_chemical_formula_sum "Si O2"
_cell_formula_units_Z 64
_cell_length_a 23.553308
_cell_length_b 15.551182
_cell_length_c 8.884029
_cell_angle_alpha 90.000000
_cell_angle_beta 90.000000
_cell_angle_gamma 90.000000
_cell_volume 3254.057950
_symmetry_space_group_name_H-M "I M M A"
_symmetry_group_IT_number 74
_symmetry_cell_setting 'orthorhombic'
loop_
_space_group_symop_operation_xyz
x,y,z
-x,1/2-y,z
x,-y,-z
-x,1/2+y,-z
-x,-y,-z
x,1/2+y,-z
-x,y,z
x,1/2-y,z
1/2+x,1/2+y,1/2+z
1/2-x,-y,1/2+z
1/2+x,1/2-y,1/2-z
1/2-x,y,1/2-z
1/2-x,1/2-y,1/2-z
1/2+x,y,1/2-z
1/2-x,1/2+y,1/2+z
1/2+x,-y,1/2+z
loop_
_atom_site_type_symbol
_atom_site_label
_atom_site_fract_x
_atom_site_fract_y
_atom_site_fract_z
Si Si1 0.609839 0.906138 0.183573
Si Si2 0.388799 0.596582 0.839101
Si Si3 0.000000 0.416190 0.891261
Si Si4 0.000000 0.345436 0.190738
Si Si5 0.690048 0.750000 0.829412
Si Si6 0.188005 0.250000 0.683956
O O1 0.554591 0.906315 0.286512
O O2 0.654722 0.835115 0.240991
O O3 0.637713 0.001519 0.185201
O O4 0.593624 0.883811 0.011428
O O5 0.445855 0.600870 0.743237
O O6 0.343771 0.665266 0.776878
O O7 0.000000 0.500000 0.000000
O O8 0.000000 0.337701 0.009583
O O9 0.000000 0.250000 0.261288
O O10 0.750000 0.750000 0.750000
O O11 0.697116 0.750000 0.006805
O O12 0.250000 0.250000 0.750000
#
# Coordination Sequence:
#
# PCOD8300620 Si02
#       6
#    16  16   8   8   8   8
#     4  10  22  40  62  85 124 159 200 242 300 371
#     4  10  20  40  63  85 115 161 199 242 296 361
#     4  12  23  37  56  97 130 157 194 244 314 368
#     4  12  23  35  57  90 126 150 197 240 297 361
#     4  10  22  39  60  89 113 148 208 258 295 348
#     4  10  24  43  60  85 119 162 206 248 303 364
#
# _framework density 19.667750000000002
#
# number of rings (size 3 to 8) (size 9 to 14) (size 15 to 20)
#    0.000    1.500    3.750    0.750    1.750    5.000 
#    0.000    0.000    0.000    0.000    0.000    0.000 
#    0.000    0.000    0.000    0.000    0.000    0.000 
#
# Total GULP energy -396740.384770 kJ/mol
# GULP energy per Si atom -12398.137024 kJ/mol
# Density = 1.962299 g / cm^3
# Si number density = 19.667750 Si / 1000 Ang^3
#
#
#
# Elastic Constant Matrix: (Units=GPa)
#
#
# Indices 1 2 3 4 5 6 
#
# 1 166.6642 83.4315 61.5138 0.0000 0.0000 0.0000
# 2 83.4315 163.4727 38.9084 0.0000 0.0000 0.0000
# 3 61.5138 38.9084 72.9052 0.0000 0.0000 0.0000
# 4 0.0000 0.0000 0.0000 24.3664 0.0000 0.0000
# 5 0.0000 0.0000 0.0000 0.0000 40.2379 0.0000
# 6 0.0000 0.0000 0.0000 0.0000 0.0000 17.7015
#
#
#
# Elastic Compliance Matrix: (Units=1/GPa)
#
#
# Indices 1 2 3 4 5 6 
#
# 1 0.010329 -0.003662 -0.006760 0.000000 0.000000 0.000000
# 2 -0.003662 0.008306 -0.001343 0.000000 0.000000 0.000000
# 3 -0.006760 -0.001343 0.020137 0.000000 0.000000 0.000000
# 4 0.000000 0.000000 0.000000 0.041040 0.000000 0.000000
# 5 0.000000 0.000000 0.000000 0.000000 0.024852 0.000000
# 6 0.000000 0.000000 0.000000 0.000000 0.000000 0.056493
#
#
# Mechanical properties :
#
#
# Convention : Reuss Voigt Hill
#
# Bulk Modulus (GPa) = 65.61234 85.63884 75.62559
# Shear Modulus (GPa) = 26.34810 31.07371 28.71090
#
# Velocity S-wave (km/s) = 3.66411 3.97915 3.82487
# Velocity P-wave (km/s) = 7.16475 8.04666 7.61848
#
# Compressibility (1/GPa) = 0.01524104
#
# Stress axis : x y z
#
# Youngs Moduli (GPa) = 96.81893 120.39542 49.66015
#
# Poissons Ratio (x) = 0.44093 0.33571
# Poissons Ratio (y) = 0.35459 0.06668
# Poissons Ratio (z) = 0.65451 0.16165
#
# Static dielectric constant tensor:
#      x y z
#    x 3.378610 0.000000 0.000000 
#    y 0.000000 4.030130 0.000000 
#    z 0.000000 0.000000 3.675170 
# 
# 
# High freq. dielectric constant tensor:
#      x y z
#    x 1.746900 0.000000 0.000000 
#    y 0.000000 1.789330 0.000000 
#    z 0.000000 0.000000 1.765050 
# 
# From -- ./inp_files/11868.got.cif
#   From: 2010.03.12/outbox.cif.g09.slc.cpg/sg74_6_cif.got.tgz:11868.got - 2010.04.16 15:46:19.
