data_PCOD8300533
_publ_section_title
;
Structure prediction by ZEFSAII (Michael W. Deem and Ramdas Pophale) SiO2 
 PCOD8300533
Probable space group: I M M A
;
_chemical_formula_sum "Si O2"
_cell_formula_units_Z 72
_cell_length_a 12.660000
_cell_length_b 9.199812
_cell_length_c 32.039645
_cell_angle_alpha 90.000000
_cell_angle_beta 90.000000
_cell_angle_gamma 90.000000
_cell_volume 3731.645276
_symmetry_space_group_name_H-M "I M M A"
_symmetry_group_IT_number 74
_symmetry_cell_setting 'orthorhombic'
loop_
_space_group_symop_operation_xyz
x,y,z
-x,1/2-y,z
x,-y,-z
-x,1/2+y,-z
-x,-y,-z
x,1/2+y,-z
-x,y,z
x,1/2-y,z
1/2+x,1/2+y,1/2+z
1/2-x,-y,1/2+z
1/2+x,1/2-y,1/2-z
1/2-x,y,1/2-z
1/2-x,1/2-y,1/2-z
1/2+x,y,1/2-z
1/2-x,1/2+y,1/2+z
1/2+x,-y,1/2+z
loop_
_atom_site_type_symbol
_atom_site_label
_atom_site_fract_x
_atom_site_fract_y
_atom_site_fract_z
Si Si1 0.126075 0.413482 0.776124
Si Si2 0.500000 0.576640 0.955987
Si Si3 0.828237 0.080212 0.392465
Si Si4 0.883330 0.579887 0.858427
Si Si5 0.878406 0.911649 0.698036
O O1 0.168926 0.250000 0.780874
O O2 0.162654 0.508416 0.816115
O O3 0.172826 0.481236 0.732823
O O4 0.000000 0.414504 0.775062
O O5 0.500000 0.750000 0.962317
O O6 0.395856 0.518044 0.931109
O O7 0.500000 0.500000 0.000000
O O8 0.852566 0.250000 0.392070
O O9 0.701463 0.047391 0.395642
O O10 0.867592 0.017912 0.348045
O O11 0.890379 0.750000 0.849642
O O12 0.000000 0.519293 0.870852
O O13 0.825701 0.750000 0.699711
O O14 0.000000 0.895785 0.709794
#
# Coordination Sequence:
#
# PCOD8300533 Si02
#       5
#    16   8  16  16  16
#     4   9  17  28  41  62  97 137 169 205 248 283
#     4  10  20  38  60  82 104 124 152 198 256 312
#     4   9  17  31  53  75  95 123 160 203 247 289
#     4   9  17  30  48  70  95 128 171 207 234 276
#     4   9  15  26  45  66  89 123 168 210 244 283
#
# _framework density 19.294439000000001
#
# number of rings (size 3 to 8) (size 9 to 14) (size 15 to 20)
#    0.000    2.889    1.111    0.667    0.000    3.556 
#    0.000    7.778    0.000    0.667    0.000    0.000 
#    0.000    0.000    0.000    0.000    0.000    0.000 
#
# Total GULP energy -446104.322702 kJ/mol
# GULP energy per Si atom -12391.786742 kJ/mol
# Density = 1.925052 g / cm^3
# Si number density = 19.294439 Si / 1000 Ang^3
#
#
#
# Elastic Constant Matrix: (Units=GPa)
#
#
# Indices 1 2 3 4 5 6 
#
# 1 102.8414 17.6580 74.6430 0.0000 0.0000 0.0000
# 2 17.6580 60.7162 42.5666 0.0000 0.0000 0.0000
# 3 74.6430 42.5666 132.5253 0.0000 0.0000 0.0000
# 4 0.0000 0.0000 0.0000 23.7665 0.0000 0.0000
# 5 0.0000 0.0000 0.0000 0.0000 24.5856 0.0000
# 6 0.0000 0.0000 0.0000 0.0000 0.0000 13.3774
#
#
#
# Elastic Compliance Matrix: (Units=1/GPa)
#
#
# Indices 1 2 3 4 5 6 
#
# 1 0.016680 0.002240 -0.010114 0.000000 0.000000 0.000000
# 2 0.002240 0.021557 -0.008186 0.000000 0.000000 0.000000
# 3 -0.010114 -0.008186 0.015872 0.000000 0.000000 0.000000
# 4 0.000000 0.000000 0.000000 0.042076 0.000000 0.000000
# 5 0.000000 0.000000 0.000000 0.000000 0.040674 0.000000
# 6 0.000000 0.000000 0.000000 0.000000 0.000000 0.074753
#
#
# Mechanical properties :
#
#
# Convention : Reuss Voigt Hill
#
# Bulk Modulus (GPa) = 45.47745 62.86868 54.17307
# Shear Modulus (GPa) = 19.91537 23.09359 21.50448
#
# Velocity S-wave (km/s) = 3.21624 3.46338 3.34210
# Velocity P-wave (km/s) = 6.11667 6.97481 6.55979
#
# Compressibility (1/GPa) = 0.02198892
#
# Stress axis : x y z
#
# Youngs Moduli (GPa) = 59.95148 46.38760 63.00528
#
# Poissons Ratio (x) = -0.10390 0.63725
# Poissons Ratio (y) = -0.13428 0.51574
# Poissons Ratio (z) = 0.60637 0.37972
#
# Static dielectric constant tensor:
#      x y z
#    x 4.049570 0.000000 0.000000 
#    y 0.000000 3.367770 0.000000 
#    z 0.000000 0.000000 3.248550 
# 
# 
# High freq. dielectric constant tensor:
#      x y z
#    x 1.787420 0.000000 0.000000 
#    y 0.000000 1.715570 0.000000 
#    z 0.000000 0.000000 1.701400 
# 
# From -- ./inp_files/66745.got.cif
#   From: 2010.03.12/outbox.cif.g09.slc.cpg/sg74_34_cif.got.tgz:66745.got - 2010.04.16 15:46:19.
