data_PCOD8300845
_publ_section_title
;
Structure prediction by ZEFSAII (Michael W. Deem and Ramdas Pophale) SiO2 
 PCOD8300845
Probable space group: I M M A
;
_chemical_formula_sum "Si O2"
_cell_formula_units_Z 72
_cell_length_a 21.220846
_cell_length_b 9.057018
_cell_length_c 19.425746
_cell_angle_alpha 90.000000
_cell_angle_beta 90.000000
_cell_angle_gamma 90.000000
_cell_volume 3733.581452
_symmetry_space_group_name_H-M "I M M A"
_symmetry_group_IT_number 74
_symmetry_cell_setting 'orthorhombic'
loop_
_space_group_symop_operation_xyz
x,y,z
-x,1/2-y,z
x,-y,-z
-x,1/2+y,-z
-x,-y,-z
x,1/2+y,-z
-x,y,z
x,1/2-y,z
1/2+x,1/2+y,1/2+z
1/2-x,-y,1/2+z
1/2+x,1/2-y,1/2-z
1/2-x,y,1/2-z
1/2-x,1/2-y,1/2-z
1/2+x,y,1/2-z
1/2-x,1/2+y,1/2+z
1/2+x,-y,1/2+z
loop_
_atom_site_type_symbol
_atom_site_label
_atom_site_fract_x
_atom_site_fract_y
_atom_site_fract_z
Si Si1 0.253889 0.088807 0.331270
Si Si2 0.000000 0.923960 0.573937
Si Si3 0.427996 0.911969 0.562714
Si Si4 0.884810 0.576486 0.670790
Si Si5 0.123858 0.075708 0.815702
O O1 0.272169 0.250000 0.361952
O O2 0.250000 0.103530 0.250000
O O3 0.184919 0.040664 0.360116
O O4 0.307550 0.969004 0.347068
O O5 0.937811 0.973448 0.616261
O O6 0.000000 0.750000 0.561876
O O7 0.000000 0.000000 0.500000
O O8 0.500000 0.887585 0.542797
O O9 0.396062 0.750000 0.571989
O O10 0.394148 0.000000 0.500000
O O11 0.426220 0.007203 0.632249
O O12 0.890912 0.750000 0.688142
O O13 0.893159 0.486578 0.740963
O O14 0.118753 0.250000 0.813132
#
# Coordination Sequence:
#
# PCOD8300845 Si02
#       5
#    16   8  16  16  16
#     4   8  15  31  53  76 106 142 180 224 274 322
#     4  10  22  40  60  82 111 144 183 230 284 336
#     4  10  21  37  55  75 106 145 180 217 264 317
#     4   9  19  36  57  80 107 144 185 226 274 328
#     4  11  21  32  53  84 114 141 180 228 271 322
#
# _framework density 19.284431999999999
#
# number of rings (size 3 to 8) (size 9 to 14) (size 15 to 20)
#    0.000    2.444    0.000    4.000    1.556    6.222 
#    0.000    1.111    0.000    2.667    0.000    0.000 
#    0.000    0.000    0.000    0.000    0.000    0.000 
#
# Total GULP energy -446131.729874 kJ/mol
# GULP energy per Si atom -12392.548052 kJ/mol
# Density = 1.924054 g / cm^3
# Si number density = 19.284432 Si / 1000 Ang^3
#
#
#
# Elastic Constant Matrix: (Units=GPa)
#
#
# Indices 1 2 3 4 5 6 
#
# 1 99.2392 30.5540 44.0786 0.0000 0.0000 0.0000
# 2 30.5540 131.4278 63.8921 0.0000 0.0000 0.0000
# 3 44.0786 63.8921 104.3467 0.0000 0.0000 0.0000
# 4 0.0000 0.0000 0.0000 29.5452 0.0000 0.0000
# 5 0.0000 0.0000 0.0000 0.0000 12.2055 0.0000
# 6 0.0000 0.0000 0.0000 0.0000 0.0000 17.7223
#
#
#
# Elastic Compliance Matrix: (Units=1/GPa)
#
#
# Indices 1 2 3 4 5 6 
#
# 1 0.012425 -0.000480 -0.004955 0.000000 0.000000 0.000000
# 2 -0.000480 0.010852 -0.006442 0.000000 0.000000 0.000000
# 3 -0.004955 -0.006442 0.015621 0.000000 0.000000 0.000000
# 4 0.000000 0.000000 0.000000 0.033847 0.000000 0.000000
# 5 0.000000 0.000000 0.000000 0.000000 0.081930 0.000000
# 6 0.000000 0.000000 0.000000 0.000000 0.000000 0.056426
#
#
# Mechanical properties :
#
#
# Convention : Reuss Voigt Hill
#
# Bulk Modulus (GPa) = 66.02990 68.00702 67.01846
# Shear Modulus (GPa) = 20.84176 24.99385 22.91780
#
# Velocity S-wave (km/s) = 3.29105 3.60399 3.45107
# Velocity P-wave (km/s) = 6.98253 7.25673 7.12095
#
# Compressibility (1/GPa) = 0.01514465
#
# Stress axis : x y z
#
# Youngs Moduli (GPa) = 80.48167 92.14867 64.01619
#
# Poissons Ratio (x) = 0.04421 0.31720
# Poissons Ratio (y) = 0.03862 0.41240
# Poissons Ratio (z) = 0.39878 0.59363
#
# Static dielectric constant tensor:
#      x y z
#    x 3.914830 0.000000 0.000000 
#    y 0.000000 3.613330 0.000000 
#    z 0.000000 0.000000 3.215120 
# 
# 
# High freq. dielectric constant tensor:
#      x y z
#    x 1.750560 0.000000 0.000000 
#    y 0.000000 1.749170 0.000000 
#    z 0.000000 0.000000 1.721250 
# 
# From -- ./inp_files/45800.got.cif
#   From: 2010.03.12/outbox.cif.g09.slc.cpg/sg74_23_cif.got.tgz:45800.got - 2010.04.16 15:46:19.
