data_PCOD8300833
_publ_section_title
;
Structure prediction by ZEFSAII (Michael W. Deem and Ramdas Pophale) SiO2 
 PCOD8300833
Probable space group: I M M A
;
_chemical_formula_sum "Si O2"
_cell_formula_units_Z 96
_cell_length_a 18.990690
_cell_length_b 21.753232
_cell_length_c 11.272914
_cell_angle_alpha 90.000000
_cell_angle_beta 90.000000
_cell_angle_gamma 90.000000
_cell_volume 4656.940938
_symmetry_space_group_name_H-M "I M M A"
_symmetry_group_IT_number 74
_symmetry_cell_setting 'orthorhombic'
loop_
_space_group_symop_operation_xyz
x,y,z
-x,1/2-y,z
x,-y,-z
-x,1/2+y,-z
-x,-y,-z
x,1/2+y,-z
-x,y,z
x,1/2-y,z
1/2+x,1/2+y,1/2+z
1/2-x,-y,1/2+z
1/2+x,1/2-y,1/2-z
1/2-x,y,1/2-z
1/2-x,1/2-y,1/2-z
1/2+x,y,1/2-z
1/2-x,1/2+y,1/2+z
1/2+x,-y,1/2+z
loop_
_atom_site_type_symbol
_atom_site_label
_atom_site_fract_x
_atom_site_fract_y
_atom_site_fract_z
Si Si1 0.165363 0.412298 0.244546
Si Si2 0.837464 0.066110 0.982347
Si Si3 0.192088 0.683273 0.152119
Si Si4 0.578682 0.974644 0.262139
Si Si5 0.078819 0.845647 0.334238
Si Si6 0.919150 0.320120 0.403704
O O1 0.250000 0.411709 0.250000
O O2 0.134033 0.476630 0.292312
O O3 0.133204 0.356595 0.318061
O O4 0.136587 0.409033 0.109411
O O5 0.793750 0.124078 0.931284
O O6 0.901492 0.049830 0.894121
O O7 0.795197 0.000000 0.000000
O O8 0.196944 0.750000 0.084985
O O9 0.250000 0.677772 0.250000
O O10 0.118417 0.682536 0.221601
O O11 0.500000 0.002555 0.269341
O O12 0.581330 0.919308 0.169136
O O13 0.109979 0.825379 0.461611
O O14 0.000000 0.819969 0.324035
O O15 0.915692 0.250000 0.361577
O O16 0.000000 0.344758 0.395771
#
# Coordination Sequence:
#
# PCOD8300833 Si02
#       6
#    16  16  16  16  16  16
#     4  11  24  38  54  87 121 163 196 242 298 354
#     4   9  21  38  56  82 116 156 199 244 298 360
#     4  10  21  36  60  89 117 152 195 252 309 359
#     4   9  19  39  64  87 113 150 198 253 307 357
#     4   9  19  37  62  90 117 150 193 247 304 355
#     4  10  22  40  61  85 117 161 206 245 292 357
#
# _framework density 20.614391000000001
#
# number of rings (size 3 to 8) (size 9 to 14) (size 15 to 20)
#    0.000    2.333    0.000    1.000    2.333   12.333 
#    3.000    2.500    0.000    0.000    0.000    0.000 
#    0.000    0.000    0.000    0.000    0.000    0.000 
#
# Total GULP energy -594668.343243 kJ/mol
# GULP energy per Si atom -12388.923818 kJ/mol
# Density = 2.056747 g / cm^3
# Si number density = 20.614391 Si / 1000 Ang^3
#
#
#
# Elastic Constant Matrix: (Units=GPa)
#
#
# Indices 1 2 3 4 5 6 
#
# 1 85.0563 41.5630 11.8603 0.0000 0.0000 0.0000
# 2 41.5630 162.4882 45.4532 0.0000 0.0000 0.0000
# 3 11.8603 45.4532 66.7003 0.0000 0.0000 0.0000
# 4 0.0000 0.0000 0.0000 35.8147 0.0000 0.0000
# 5 0.0000 0.0000 0.0000 0.0000 15.4428 0.0000
# 6 0.0000 0.0000 0.0000 0.0000 0.0000 23.4970
#
#
#
# Elastic Compliance Matrix: (Units=1/GPa)
#
#
# Indices 1 2 3 4 5 6 
#
# 1 0.013437 -0.003421 -0.000058 0.000000 0.000000 0.000000
# 2 -0.003421 0.008475 -0.005167 0.000000 0.000000 0.000000
# 3 -0.000058 -0.005167 0.018524 0.000000 0.000000 0.000000
# 4 0.000000 0.000000 0.000000 0.027922 0.000000 0.000000
# 5 0.000000 0.000000 0.000000 0.000000 0.064755 0.000000
# 6 0.000000 0.000000 0.000000 0.000000 0.000000 0.042559
#
#
# Mechanical properties :
#
#
# Convention : Reuss Voigt Hill
#
# Bulk Modulus (GPa) = 43.20862 56.88866 50.04864
# Shear Modulus (GPa) = 24.91581 29.30879 27.11230
#
# Velocity S-wave (km/s) = 3.48035 3.77472 3.63052
# Velocity P-wave (km/s) = 6.09560 6.83041 6.47344
#
# Compressibility (1/GPa) = 0.02314353
#
# Stress axis : x y z
#
# Youngs Moduli (GPa) = 74.42382 117.99986 53.98488
#
# Poissons Ratio (x) = 0.40364 0.00314
# Poissons Ratio (y) = 0.25458 0.27893
# Poissons Ratio (z) = 0.00433 0.60968
#
# Static dielectric constant tensor:
#      x y z
#    x 2.260030 0.000000 0.000000 
#    y 0.000000 4.141470 0.000000 
#    z 0.000000 0.000000 3.800990 
# 
# 
# High freq. dielectric constant tensor:
#      x y z
#    x 1.790680 0.000000 0.000000 
#    y 0.000000 1.820700 0.000000 
#    z 0.000000 0.000000 1.791390 
# 
# From -- ./inp_files/23905.got.cif
#   From: 2010.03.12/outbox.cif.g09.slc.cpg/sg74_12_cif.got.tgz:23905.got - 2010.04.16 15:46:19.
