data_PCOD8300193
_publ_section_title
;
Structure prediction by ZEFSAII (Michael W. Deem and Ramdas Pophale) SiO2 
 PCOD8300193
Probable space group: I M M A
;
_chemical_formula_sum "Si O2"
_cell_formula_units_Z 92
_cell_length_a 19.291796
_cell_length_b 12.074231
_cell_length_c 22.118456
_cell_angle_alpha 90.000000
_cell_angle_beta 90.000000
_cell_angle_gamma 90.000000
_cell_volume 5152.131611
_symmetry_space_group_name_H-M "I M M A"
_symmetry_group_IT_number 74
_symmetry_cell_setting 'orthorhombic'
loop_
_space_group_symop_operation_xyz
x,y,z
-x,1/2-y,z
x,-y,-z
-x,1/2+y,-z
-x,-y,-z
x,1/2+y,-z
-x,y,z
x,1/2-y,z
1/2+x,1/2+y,1/2+z
1/2-x,-y,1/2+z
1/2+x,1/2-y,1/2-z
1/2-x,y,1/2-z
1/2-x,1/2-y,1/2-z
1/2+x,y,1/2-z
1/2-x,1/2+y,1/2+z
1/2+x,-y,1/2+z
loop_
_atom_site_type_symbol
_atom_site_label
_atom_site_fract_x
_atom_site_fract_y
_atom_site_fract_z
Si Si1 0.771852 0.131225 0.042399
Si Si2 0.000000 0.750000 0.371402
Si Si3 0.688975 0.915753 0.409128
Si Si4 0.882651 0.750000 0.273493
Si Si5 0.920749 0.250000 0.863157
Si Si6 0.707220 0.542617 0.194698
Si Si7 0.500000 0.990840 0.070707
Si Si8 0.635069 0.120386 0.110746
O O1 0.792275 0.250000 0.069614
O O2 0.691326 0.104667 0.057111
O O3 0.823306 0.045688 0.076130
O O4 0.779074 0.134943 0.970273
O O5 0.066654 0.750000 0.329782
O O6 0.000000 0.639188 0.412045
O O7 0.617257 0.858484 0.390193
O O8 0.744805 0.900302 0.356235
O O9 0.921409 0.750000 0.209258
O O10 0.838561 0.639173 0.276921
O O11 0.000000 0.250000 0.886149
O O12 0.750000 0.491396 0.250000
O O13 0.663994 0.438084 0.170905
O O14 0.566301 0.054592 0.095180
O O15 0.500000 0.000000 0.000000
O O16 0.619418 0.250000 0.122985
#
# Coordination Sequence:
#
# PCOD8300193 Si02
#       8
#    16   4  16   8   8  16   8  16
#     4   9  19  36  60  83 115 150 194 238 297 353
#     4  12  26  44  62  84 130 174 200 248 290 374
#     4  10  20  35  57  86 111 150 184 244 297 349
#     4  12  22  38  57  88 120 160 193 248 305 344
#     4  12  23  37  60  86 116 150 194 240 308 360
#     4  11  21  35  61  89 117 147 206 252 302 348
#     4  12  27  42  57  90 130 167 208 243 301 365
#     4  10  23  40  59  85 121 165 198 249 297 361
#
# _framework density 17.856686
#
# number of rings (size 3 to 8) (size 9 to 14) (size 15 to 20)
#    0.000    1.391    4.783    1.043    6.087    0.348 
#    0.000    1.739    0.000    0.000    0.000    0.000 
#    0.000    0.000    0.000    0.000    0.000    0.000 
#
# Total GULP energy -570187.915245 kJ/mol
# GULP energy per Si atom -12395.389462 kJ/mol
# Density = 1.781604 g / cm^3
# Si number density = 17.856686 Si / 1000 Ang^3
#
#
#
# Elastic Constant Matrix: (Units=GPa)
#
#
# Indices 1 2 3 4 5 6 
#
# 1 114.6861 69.3946 54.2477 0.0000 0.0000 0.0000
# 2 69.3946 163.6239 50.6486 0.0000 0.0000 0.0000
# 3 54.2477 50.6486 110.6023 0.0000 0.0000 0.0000
# 4 0.0000 0.0000 0.0000 17.6574 0.0000 0.0000
# 5 0.0000 0.0000 0.0000 0.0000 24.0898 0.0000
# 6 0.0000 0.0000 0.0000 0.0000 0.0000 38.0622
#
#
#
# Elastic Compliance Matrix: (Units=1/GPa)
#
#
# Indices 1 2 3 4 5 6 
#
# 1 0.013524 -0.004291 -0.004668 0.000000 0.000000 0.000000
# 2 -0.004291 0.008482 -0.001780 0.000000 0.000000 0.000000
# 3 -0.004668 -0.001780 0.012146 0.000000 0.000000 0.000000
# 4 0.000000 0.000000 0.000000 0.056633 0.000000 0.000000
# 5 0.000000 0.000000 0.000000 0.000000 0.041511 0.000000
# 6 0.000000 0.000000 0.000000 0.000000 0.000000 0.026273
#
#
# Mechanical properties :
#
#
# Convention : Reuss Voigt Hill
#
# Bulk Modulus (GPa) = 78.89739 81.94375 80.42057
# Shear Modulus (GPa) = 27.13383 30.26998 28.70191
#
# Velocity S-wave (km/s) = 3.90235 4.12170 4.01352
# Velocity P-wave (km/s) = 8.03642 8.28496 8.16163
#
# Compressibility (1/GPa) = 0.01267469
#
# Stress axis : x y z
#
# Youngs Moduli (GPa) = 73.94419 117.89417 82.33062
#
# Poissons Ratio (x) = 0.50583 0.38434
# Poissons Ratio (y) = 0.31726 0.14654
# Poissons Ratio (z) = 0.34519 0.20984
#
# Static dielectric constant tensor:
#      x y z
#    x 3.190310 0.000000 0.000000 
#    y 0.000000 3.626040 0.000000 
#    z 0.000000 0.000000 3.410250 
# 
# 
# High freq. dielectric constant tensor:
#      x y z
#    x 1.672850 0.000000 0.000000 
#    y 0.000000 1.706090 0.000000 
#    z 0.000000 0.000000 1.696440 
# 
# From -- ./inp_files/52946.got.cif
#   From: 2010.03.12/outbox.cif.g09.slc.cpg/sg74_27_cif.got.tgz:52946.got - 2010.04.16 15:46:19.
