data_PCOD8300239
_publ_section_title
;
Structure prediction by ZEFSAII (Michael W. Deem and Ramdas Pophale) SiO2 
 PCOD8300239
Probable space group: I M M A
;
_chemical_formula_sum "Si O2"
_cell_formula_units_Z 112
_cell_length_a 28.765022
_cell_length_b 16.042656
_cell_length_c 12.280476
_cell_angle_alpha 90.000000
_cell_angle_beta 90.000000
_cell_angle_gamma 90.000000
_cell_volume 5667.038751
_symmetry_space_group_name_H-M "I M M A"
_symmetry_group_IT_number 74
_symmetry_cell_setting 'orthorhombic'
loop_
_space_group_symop_operation_xyz
x,y,z
-x,1/2-y,z
x,-y,-z
-x,1/2+y,-z
-x,-y,-z
x,1/2+y,-z
-x,y,z
x,1/2-y,z
1/2+x,1/2+y,1/2+z
1/2-x,-y,1/2+z
1/2+x,1/2-y,1/2-z
1/2-x,y,1/2-z
1/2-x,1/2-y,1/2-z
1/2+x,y,1/2-z
1/2-x,1/2+y,1/2+z
1/2+x,-y,1/2+z
loop_
_atom_site_type_symbol
_atom_site_label
_atom_site_fract_x
_atom_site_fract_y
_atom_site_fract_z
Si Si1 0.803417 0.904385 0.006685
Si Si2 0.450021 0.154520 0.782578
Si Si3 0.647018 0.153076 0.713032
Si Si4 0.303879 0.654567 0.733439
Si Si5 0.448767 0.155113 0.039440
Si Si6 0.645229 0.582398 0.928297
Si Si7 0.207472 0.656006 0.408311
O O1 0.814374 0.860866 0.892759
O O2 0.837874 0.860007 0.090349
O O3 0.750473 0.897895 0.048211
O O4 0.817026 0.000000 0.000000
O O5 0.500000 0.113138 0.747483
O O6 0.451832 0.250000 0.744804
O O7 0.404152 0.110892 0.730424
O O8 0.444473 0.148340 0.910938
O O9 0.642618 0.250000 0.743112
O O10 0.685973 0.116726 0.796826
O O11 0.317496 0.750000 0.762891
O O12 0.250000 0.638036 0.750000
O O13 0.331208 0.587504 0.808816
O O14 0.500000 0.124525 0.077619
O O15 0.440984 0.250000 0.078061
O O16 0.409748 0.095450 0.091403
O O17 0.656073 0.500000 0.000000
O O18 0.667238 0.657122 0.999885
O O19 0.225575 0.750000 0.389477
#
# Coordination Sequence:
#
# PCOD8300239 Si02
#       7
#    16  16  16  16  16  16  16
#     4  12  26  38  56  81 120 156 200 245 293 346
#     4   8  14  27  53  87 113 136 175 232 289 337
#     4  10  20  35  60  86 114 147 188 240 292 345
#     4  11  24  41  60  79 112 163 209 243 292 368
#     4   9  17  33  58  86 117 153 194 240 294 359
#     4  12  24  36  59  88 121 154 194 247 301 351
#     4  11  21  38  60  83 111 148 191 240 293 348
#
# _framework density 19.763408999999999
#
# number of rings (size 3 to 8) (size 9 to 14) (size 15 to 20)
#    0.000    1.571    2.857    4.286    2.000    1.429 
#    0.000    0.000    0.000    1.286    0.000    2.000 
#    0.000    0.000    0.000    0.000    0.000    0.000 
#
# Total GULP energy -694101.897591 kJ/mol
# GULP energy per Si atom -12394.676743 kJ/mol
# Density = 1.971843 g / cm^3
# Si number density = 19.763409 Si / 1000 Ang^3
#
#
#
# Elastic Constant Matrix: (Units=GPa)
#
#
# Indices 1 2 3 4 5 6 
#
# 1 134.1629 33.1611 58.4325 0.0000 0.0000 0.0000
# 2 33.1611 45.7568 20.8887 0.0000 0.0000 0.0000
# 3 58.4325 20.8887 124.6075 0.0000 0.0000 0.0000
# 4 0.0000 0.0000 0.0000 22.5012 0.0000 0.0000
# 5 0.0000 0.0000 0.0000 0.0000 16.3534 0.0000
# 6 0.0000 0.0000 0.0000 0.0000 0.0000 1.2097
#
#
#
# Elastic Compliance Matrix: (Units=1/GPa)
#
#
# Indices 1 2 3 4 5 6 
#
# 1 0.010656 -0.005893 -0.004009 0.000000 0.000000 0.000000
# 2 -0.005893 0.026924 -0.001750 0.000000 0.000000 0.000000
# 3 -0.004009 -0.001750 0.010199 0.000000 0.000000 0.000000
# 4 0.000000 0.000000 0.000000 0.044442 0.000000 0.000000
# 5 0.000000 0.000000 0.000000 0.000000 0.061149 0.000000
# 6 0.000000 0.000000 0.000000 0.000000 0.000000 0.826645
#
#
# Mechanical properties :
#
#
# Convention : Reuss Voigt Hill
#
# Bulk Modulus (GPa) = 40.85806 58.83243 49.84525
# Shear Modulus (GPa) = 4.94326 20.81585 12.87956
#
# Velocity S-wave (km/s) = 1.58324 3.24891 2.55559
# Velocity P-wave (km/s) = 4.90517 6.62622 5.82956
#
# Compressibility (1/GPa) = 0.02447497
#
# Stress axis : x y z
#
# Youngs Moduli (GPa) = 93.84157 37.14131 98.05190
#
# Poissons Ratio (x) = 0.21886 0.39312
# Poissons Ratio (y) = 0.55297 0.17162
# Poissons Ratio (z) = 0.37624 0.06501
#
# Static dielectric constant tensor:
#      x y z
#    x 17.010900 0.000000 0.000000 
#    y 0.000000 3.259460 0.000000 
#    z 0.000000 0.000000 3.429650 
# 
# 
# High freq. dielectric constant tensor:
#      x y z
#    x 1.775540 0.000000 0.000000 
#    y 0.000000 1.747120 0.000000 
#    z 0.000000 0.000000 1.745940 
# 
# From -- ./inp_files/21107.got.cif
#   From: 2010.03.12/outbox.cif.g09.slc.cpg/sg74_11_cif.got.tgz:21107.got - 2010.04.16 15:46:19.
