data_PCOD8300277
_publ_section_title
;
Structure prediction by ZEFSAII (Michael W. Deem and Ramdas Pophale) SiO2 
 PCOD8300277
Probable space group: I M M A
;
_chemical_formula_sum "Si O2"
_cell_formula_units_Z 80
_cell_length_a 18.426516
_cell_length_b 25.688173
_cell_length_c 9.074191
_cell_angle_alpha 90.000000
_cell_angle_beta 90.000000
_cell_angle_gamma 90.000000
_cell_volume 4295.209607
_symmetry_space_group_name_H-M "I M M A"
_symmetry_group_IT_number 74
_symmetry_cell_setting 'orthorhombic'
loop_
_space_group_symop_operation_xyz
x,y,z
-x,1/2-y,z
x,-y,-z
-x,1/2+y,-z
-x,-y,-z
x,1/2+y,-z
-x,y,z
x,1/2-y,z
1/2+x,1/2+y,1/2+z
1/2-x,-y,1/2+z
1/2+x,1/2-y,1/2-z
1/2-x,y,1/2-z
1/2-x,1/2-y,1/2-z
1/2+x,y,1/2-z
1/2-x,1/2+y,1/2+z
1/2+x,-y,1/2+z
loop_
_atom_site_type_symbol
_atom_site_label
_atom_site_fract_x
_atom_site_fract_y
_atom_site_fract_z
Si Si1 0.676092 0.443797 0.175858
Si Si2 0.823769 0.059977 0.668746
Si Si3 0.416870 0.152631 0.196523
Si Si4 0.165024 0.750000 0.205115
Si Si5 0.912869 0.750000 0.896822
Si Si6 0.415656 0.656685 0.144638
O O1 0.750000 0.427994 0.250000
O O2 0.651201 0.502314 0.220755
O O3 0.619222 0.402217 0.237629
O O4 0.690972 0.439881 0.003711
O O5 0.750000 0.077314 0.750000
O O6 0.888511 0.100324 0.701070
O O7 0.500000 0.141796 0.222702
O O8 0.391354 0.199594 0.300494
O O9 0.400950 0.166980 0.027279
O O10 0.250000 0.750000 0.250000
O O11 0.129618 0.698886 0.269738
O O12 0.143380 0.750000 0.032597
O O13 0.000000 0.750000 0.937723
O O14 0.500000 0.661600 0.184517
#
# Coordination Sequence:
#
# PCOD8300277 Si02
#       6
#    16  16  16   8   8  16
#     4   9  18  32  52  77 107 140 172 213 261 307
#     4   9  18  33  52  77 107 139 175 213 256 308
#     4   9  19  35  56  79 105 137 176 218 262 311
#     4  12  25  38  54  78 106 138 175 216 260 314
#     4  10  21  38  57  78 105 138 173 216 264 310
#     4  10  20  36  56  78 105 138 174 216 262 310
#
# _framework density 18.625401
#
# number of rings (size 3 to 8) (size 9 to 14) (size 15 to 20)
#    0.000    2.400    0.000    2.100    0.000    7.200 
#    0.000    5.500    0.000    0.000    0.000    9.800 
#    0.000    0.000    0.000    0.000    0.000    0.000 
#
# Total GULP energy -495809.513344 kJ/mol
# GULP energy per Si atom -12395.237834 kJ/mol
# Density = 1.858301 g / cm^3
# Si number density = 18.625401 Si / 1000 Ang^3
#
#
#
# Elastic Constant Matrix: (Units=GPa)
#
#
# Indices 1 2 3 4 5 6 
#
# 1 107.2670 83.4060 62.5511 0.0000 0.0000 0.0000
# 2 83.4060 149.4706 67.1416 0.0000 0.0000 0.0000
# 3 62.5511 67.1416 63.1440 0.0000 0.0000 0.0000
# 4 0.0000 0.0000 0.0000 -14.5370 0.0000 0.0000
# 5 0.0000 0.0000 0.0000 0.0000 30.3007 0.0000
# 6 0.0000 0.0000 0.0000 0.0000 0.0000 39.3250
#
#
#
# Elastic Compliance Matrix: (Units=1/GPa)
#
#
# Indices 1 2 3 4 5 6 
#
# 1 0.024011 -0.005196 -0.018261 0.000000 0.000000 0.000000
# 2 -0.005196 0.013932 -0.009667 0.000000 0.000000 0.000000
# 3 -0.018261 -0.009667 0.044206 0.000000 0.000000 0.000000
# 4 0.000000 0.000000 0.000000 -0.068790 0.000000 0.000000
# 5 0.000000 0.000000 0.000000 0.000000 0.033003 0.000000
# 6 0.000000 0.000000 0.000000 0.000000 0.000000 0.025429
#
#
# Mechanical properties :
#
#
# Convention : Reuss Voigt Hill
#
# Bulk Modulus (GPa) = 62.88932 82.89766 72.89349
# Shear Modulus (GPa) = 34.88258 18.13660 26.50959
#
# Velocity S-wave (km/s) = 4.33234 3.12389 3.77676
# Velocity P-wave (km/s) = 7.67230 7.59053 7.63152
#
# Compressibility (1/GPa) = 0.01590095
#
# Stress axis : x y z
#
# Youngs Moduli (GPa) = 41.64746 71.77781 22.62160
#
# Poissons Ratio (x) = 0.37293 0.41310
# Poissons Ratio (y) = 0.21638 0.21868
# Poissons Ratio (z) = 0.76053 0.69388
#
# Static dielectric constant tensor:
#      x y z
#    x 7.040810 0.000000 0.000000 
#    y 0.000000 4.083220 0.000000 
#    z 0.000000 0.000000 3.484570 
# 
# 
# High freq. dielectric constant tensor:
#      x y z
#    x 1.714600 0.000000 0.000000 
#    y 0.000000 1.742210 0.000000 
#    z 0.000000 0.000000 1.716670 
# 
# From -- ./inp_files/10995.got.cif
#   From: 2010.03.12/outbox.cif.g09.slc.cpg/sg74_6_cif.got.tgz:10995.got - 2010.04.16 15:46:19.
