data_PCOD8300043
_publ_section_title
;
Structure prediction by ZEFSAII (Michael W. Deem and Ramdas Pophale) SiO2 
 PCOD8300043
Probable space group: I M M A
;
_chemical_formula_sum "Si O2"
_cell_formula_units_Z 96
_cell_length_a 17.713645
_cell_length_b 25.286758
_cell_length_c 12.108966
_cell_angle_alpha 90.000000
_cell_angle_beta 90.000000
_cell_angle_gamma 90.000000
_cell_volume 5423.855975
_symmetry_space_group_name_H-M "I M M A"
_symmetry_group_IT_number 74
_symmetry_cell_setting 'orthorhombic'
loop_
_space_group_symop_operation_xyz
x,y,z
-x,1/2-y,z
x,-y,-z
-x,1/2+y,-z
-x,-y,-z
x,1/2+y,-z
-x,y,z
x,1/2-y,z
1/2+x,1/2+y,1/2+z
1/2-x,-y,1/2+z
1/2+x,1/2-y,1/2-z
1/2-x,y,1/2-z
1/2-x,1/2-y,1/2-z
1/2+x,y,1/2-z
1/2-x,1/2+y,1/2+z
1/2+x,-y,1/2+z
loop_
_atom_site_type_symbol
_atom_site_label
_atom_site_fract_x
_atom_site_fract_y
_atom_site_fract_z
Si Si1 0.414154 0.808334 0.907641
Si Si2 0.797517 0.891340 0.860311
Si Si3 0.585893 0.014437 0.848854
Si Si4 0.416046 0.810196 0.647123
Si Si5 0.652666 0.917021 0.973772
Si Si6 0.414099 0.520892 0.618071
O O1 0.500000 0.809265 0.946781
O O2 0.379689 0.750000 0.937609
O O3 0.407885 0.817271 0.777703
O O4 0.373114 0.856131 0.969327
O O5 0.750000 0.877437 0.750000
O O6 0.845219 0.841233 0.906579
O O7 0.742468 0.914986 0.953349
O O8 0.861737 0.933513 0.834485
O O9 0.500000 0.022156 0.889161
O O10 0.612017 0.955441 0.885282
O O11 0.590799 0.022528 0.716237
O O12 0.638036 0.059294 0.904502
O O13 0.500000 0.830551 0.610657
O O14 0.407462 0.750000 0.609996
O O15 0.384890 0.500000 0.500000
O O16 0.500000 0.541613 0.605690
#
# Coordination Sequence:
#
# PCOD8300043 Si02
#       6
#    16  16  16  16  16  16
#     4   9  16  27  44  67 100 138 174 213 257 308
#     4  12  21  30  48  75 107 136 166 216 263 313
#     4  10  20  35  53  73 101 139 178 214 258 323
#     4   9  18  32  48  67  99 144 185 216 254 313
#     4  11  20  30  47  77 104 139 169 211 262 314
#     4  10  22  38  54  71  97 135 175 216 259 313
#
# _framework density 17.699584999999999
#
# number of rings (size 3 to 8) (size 9 to 14) (size 15 to 20)
#    0.000    1.833    3.333    3.500    2.333    3.667 
#    0.000    0.000    0.000    0.000    0.000    1.167 
#    0.000    9.333    0.000    0.333    0.000    0.000 
#
# Total GULP energy -594719.292415 kJ/mol
# GULP energy per Si atom -12389.985259 kJ/mol
# Density = 1.765930 g / cm^3
# Si number density = 17.699585 Si / 1000 Ang^3
#
#
#
# Elastic Constant Matrix: (Units=GPa)
#
#
# Indices 1 2 3 4 5 6 
#
# 1 119.9883 46.5618 27.0016 0.0000 0.0000 0.0000
# 2 46.5618 93.4407 22.4710 0.0000 0.0000 0.0000
# 3 27.0016 22.4710 79.1710 0.0000 0.0000 0.0000
# 4 0.0000 0.0000 0.0000 12.7729 0.0000 0.0000
# 5 0.0000 0.0000 0.0000 0.0000 22.4564 0.0000
# 6 0.0000 0.0000 0.0000 0.0000 0.0000 28.7101
#
#
#
# Elastic Compliance Matrix: (Units=1/GPa)
#
#
# Indices 1 2 3 4 5 6 
#
# 1 0.010707 -0.004783 -0.002294 0.000000 0.000000 0.000000
# 2 -0.004783 0.013623 -0.002235 0.000000 0.000000 0.000000
# 3 -0.002294 -0.002235 0.014048 0.000000 0.000000 0.000000
# 4 0.000000 0.000000 0.000000 0.078291 0.000000 0.000000
# 5 0.000000 0.000000 0.000000 0.000000 0.044531 0.000000
# 6 0.000000 0.000000 0.000000 0.000000 0.000000 0.034831
#
#
# Mechanical properties :
#
#
# Convention : Reuss Voigt Hill
#
# Bulk Modulus (GPa) = 50.62707 53.85209 52.23958
# Shear Modulus (GPa) = 22.60002 25.89227 24.24614
#
# Velocity S-wave (km/s) = 3.57720 3.82890 3.70519
# Velocity P-wave (km/s) = 6.76221 7.07383 6.91977
#
# Compressibility (1/GPa) = 0.01975228
#
# Stress axis : x y z
#
# Youngs Moduli (GPa) = 93.40044 73.40457 71.18646
#
# Poissons Ratio (x) = 0.35113 0.16329
# Poissons Ratio (y) = 0.44678 0.15912
# Poissons Ratio (z) = 0.21425 0.16407
#
# Static dielectric constant tensor:
#      x y z
#    x 3.573800 0.000000 0.000000 
#    y 0.000000 3.316720 0.000000 
#    z 0.000000 0.000000 2.932210 
# 
# 
# High freq. dielectric constant tensor:
#      x y z
#    x 1.698940 0.000000 0.000000 
#    y 0.000000 1.675170 0.000000 
#    z 0.000000 0.000000 1.633080 
# 
# From -- ./inp_files/22677.got.cif
#   From: 2010.03.12/outbox.cif.g09.slc.cpg/sg74_12_cif.got.tgz:22677.got - 2010.04.16 15:46:19.
