data_PCOD8300848
_publ_section_title
;
Structure prediction by ZEFSAII (Michael W. Deem and Ramdas Pophale) SiO2 
 PCOD8300848
Probable space group: I M M A
;
_chemical_formula_sum "Si O2"
_cell_formula_units_Z 96
_cell_length_a 28.059740
_cell_length_b 9.052032
_cell_length_c 20.034851
_cell_angle_alpha 90.000000
_cell_angle_beta 90.000000
_cell_angle_gamma 90.000000
_cell_volume 5088.805360
_symmetry_space_group_name_H-M "I M M A"
_symmetry_group_IT_number 74
_symmetry_cell_setting 'orthorhombic'
loop_
_space_group_symop_operation_xyz
x,y,z
-x,1/2-y,z
x,-y,-z
-x,1/2+y,-z
-x,-y,-z
x,1/2+y,-z
-x,y,z
x,1/2-y,z
1/2+x,1/2+y,1/2+z
1/2-x,-y,1/2+z
1/2+x,1/2-y,1/2-z
1/2-x,y,1/2-z
1/2-x,1/2-y,1/2-z
1/2+x,y,1/2-z
1/2-x,1/2+y,1/2+z
1/2+x,-y,1/2+z
loop_
_atom_site_type_symbol
_atom_site_label
_atom_site_fract_x
_atom_site_fract_y
_atom_site_fract_z
Si Si1 0.554260 0.589246 0.060294
Si Si2 0.945375 0.419840 0.820099
Si Si3 0.632277 0.424151 0.569629
Si Si4 0.689682 0.576880 0.800293
Si Si5 0.710971 0.425152 0.346783
Si Si6 0.084135 0.924106 0.686139
O O1 0.500000 0.614935 0.039375
O O2 0.579162 0.750000 0.068481
O O3 0.553709 0.500397 0.129100
O O4 0.580113 0.500000 0.000000
O O5 0.937357 0.250000 0.799030
O O6 0.911098 0.464158 0.880947
O O7 0.932980 0.522267 0.757852
O O8 0.000000 0.447173 0.842259
O O9 0.619604 0.500000 0.500000
O O10 0.637741 0.250000 0.559480
O O11 0.682241 0.488274 0.596569
O O12 0.694236 0.750000 0.790620
O O13 0.693294 0.514546 0.725071
O O14 0.732767 0.528625 0.849586
O O15 0.638820 0.530066 0.829593
O O16 0.703187 0.250000 0.357103
O O17 0.076398 0.750000 0.683088
#
# Coordination Sequence:
#
# PCOD8300848 Si02
#       6
#    16  16  16  16  16  16
#     4  10  21  37  55  76 106 145 185 224 270 324
#     4  10  22  39  56  78 111 148 188 235 284 333
#     4  11  23  38  57  81 110 147 190 237 286 336
#     4   8  16  30  55  84 110 139 173 216 267 321
#     4   9  16  34  58  80 107 141 178 217 266 324
#     4  11  20  33  56  87 115 143 181 225 274 328
#
# _framework density 18.864939
#
# number of rings (size 3 to 8) (size 9 to 14) (size 15 to 20)
#    0.000    2.167    1.667    3.000    0.000    4.333 
#    0.000    4.167    0.000    0.000    0.000    0.000 
#    0.000    0.000    0.000    0.000    0.000    0.000 
#
# Total GULP energy -595016.679355 kJ/mol
# GULP energy per Si atom -12396.180820 kJ/mol
# Density = 1.882200 g / cm^3
# Si number density = 18.864939 Si / 1000 Ang^3
#
#
#
# Elastic Constant Matrix: (Units=GPa)
#
#
# Indices 1 2 3 4 5 6 
#
# 1 85.8587 34.4461 36.2399 0.0000 0.0000 0.0000
# 2 34.4461 97.3358 60.6830 0.0000 0.0000 0.0000
# 3 36.2399 60.6830 121.7583 0.0000 0.0000 0.0000
# 4 0.0000 0.0000 0.0000 30.4751 0.0000 0.0000
# 5 0.0000 0.0000 0.0000 0.0000 26.2981 0.0000
# 6 0.0000 0.0000 0.0000 0.0000 0.0000 13.2657
#
#
#
# Elastic Compliance Matrix: (Units=1/GPa)
#
#
# Indices 1 2 3 4 5 6 
#
# 1 0.014070 -0.003436 -0.002475 0.000000 0.000000 0.000000
# 2 -0.003436 0.015744 -0.006824 0.000000 0.000000 0.000000
# 3 -0.002475 -0.006824 0.012351 0.000000 0.000000 0.000000
# 4 0.000000 0.000000 0.000000 0.032814 0.000000 0.000000
# 5 0.000000 0.000000 0.000000 0.000000 0.038026 0.000000
# 6 0.000000 0.000000 0.000000 0.000000 0.000000 0.075383
#
#
# Mechanical properties :
#
#
# Convention : Reuss Voigt Hill
#
# Bulk Modulus (GPa) = 59.90056 63.07675 61.48865
# Shear Modulus (GPa) = 22.78708 25.58003 24.18355
#
# Velocity S-wave (km/s) = 3.47927 3.68633 3.58429
# Velocity P-wave (km/s) = 6.92543 7.18521 7.05652
#
# Compressibility (1/GPa) = 0.01669433
#
# Stress axis : x y z
#
# Youngs Moduli (GPa) = 71.07102 63.51616 80.96690
#
# Poissons Ratio (x) = 0.21825 0.20042
# Poissons Ratio (y) = 0.24421 0.55251
# Poissons Ratio (z) = 0.17593 0.43343
#
# Static dielectric constant tensor:
#      x y z
#    x 3.851360 0.000000 0.000000 
#    y 0.000000 3.460010 0.000000 
#    z 0.000000 0.000000 3.275790 
# 
# 
# High freq. dielectric constant tensor:
#      x y z
#    x 1.733050 0.000000 0.000000 
#    y 0.000000 1.726210 0.000000 
#    z 0.000000 0.000000 1.719980 
# 
# From -- ./inp_files/55092.got.cif
#   From: 2010.03.12/outbox.cif.g09.slc.cpg/sg74_28_cif.got.tgz:55092.got - 2010.04.16 15:46:19.
