data_PCOD8300705
_publ_section_title
;
Structure prediction by ZEFSAII (Michael W. Deem and Ramdas Pophale) SiO2 
 PCOD8300705
Probable space group: I M M A
;
_chemical_formula_sum "Si O2"
_cell_formula_units_Z 88
_cell_length_a 16.158285
_cell_length_b 9.827884
_cell_length_c 29.506157
_cell_angle_alpha 90.000000
_cell_angle_beta 90.000000
_cell_angle_gamma 90.000000
_cell_volume 4685.629386
_symmetry_space_group_name_H-M "I M M A"
_symmetry_group_IT_number 74
_symmetry_cell_setting 'orthorhombic'
loop_
_space_group_symop_operation_xyz
x,y,z
-x,1/2-y,z
x,-y,-z
-x,1/2+y,-z
-x,-y,-z
x,1/2+y,-z
-x,y,z
x,1/2-y,z
1/2+x,1/2+y,1/2+z
1/2-x,-y,1/2+z
1/2+x,1/2-y,1/2-z
1/2-x,y,1/2-z
1/2-x,1/2-y,1/2-z
1/2+x,y,1/2-z
1/2-x,1/2+y,1/2+z
1/2+x,-y,1/2+z
loop_
_atom_site_type_symbol
_atom_site_label
_atom_site_fract_x
_atom_site_fract_y
_atom_site_fract_z
Si Si1 0.597120 0.101758 0.301796
Si Si2 0.674618 0.405856 0.872648
Si Si3 0.637586 0.594986 0.382550
Si Si4 0.404540 0.409016 0.200343
Si Si5 0.000000 0.410748 0.954427
Si Si6 0.096782 0.899476 0.463471
O O1 0.500000 0.117768 0.299578
O O2 0.635120 0.250000 0.315100
O O3 0.626436 0.060236 0.251386
O O4 0.621514 0.989383 0.337541
O O5 0.659525 0.250000 0.857149
O O6 0.766089 0.423513 0.893780
O O7 0.657244 0.504249 0.830748
O O8 0.612913 0.450899 0.912668
O O9 0.614638 0.750000 0.370809
O O10 0.581287 0.548292 0.425066
O O11 0.500000 0.454354 0.192946
O O12 0.394715 0.250000 0.188791
O O13 0.000000 0.250000 0.966795
O O14 0.000000 0.500000 0.000000
O O15 0.137100 0.750000 0.469867
O O16 0.000000 0.891623 0.472244
O O17 0.138432 0.000000 0.500000
#
# Coordination Sequence:
#
# PCOD8300705 Si02
#       6
#    16  16  16  16   8  16
#     4   9  18  34  56  79 105 140 183 224 265 321
#     4  10  21  35  52  78 111 143 178 221 268 323
#     4  10  21  37  56  79 108 141 178 223 273 324
#     4   9  19  35  54  79 111 146 182 222 266 315
#     4  10  22  40  60  82 108 140 182 232 283 334
#     4   9  18  33  52  73  99 133 172 212 256 309
#
# _framework density 18.780829000000001
#
# number of rings (size 3 to 8) (size 9 to 14) (size 15 to 20)
#    0.000    2.545    0.909    1.636    0.000    5.455 
#    0.000    7.273    0.000    0.000    0.000    0.000 
#    0.000    0.000    0.000    0.000    0.000    0.000 
#
# Total GULP energy -545431.547994 kJ/mol
# GULP energy per Si atom -12396.171545 kJ/mol
# Density = 1.873808 g / cm^3
# Si number density = 18.780829 Si / 1000 Ang^3
#
#
#
# Elastic Constant Matrix: (Units=GPa)
#
#
# Indices 1 2 3 4 5 6 
#
# 1 52.1029 32.2632 32.4835 0.0000 0.0000 0.0000
# 2 32.2632 92.4821 79.9526 0.0000 0.0000 0.0000
# 3 32.4835 79.9526 121.7142 0.0000 0.0000 0.0000
# 4 0.0000 0.0000 0.0000 43.4892 0.0000 0.0000
# 5 0.0000 0.0000 0.0000 0.0000 11.7269 0.0000
# 6 0.0000 0.0000 0.0000 0.0000 0.0000 23.6691
#
#
#
# Elastic Compliance Matrix: (Units=1/GPa)
#
#
# Indices 1 2 3 4 5 6 
#
# 1 0.024724 -0.006759 -0.002158 0.000000 0.000000 0.000000
# 2 -0.006759 0.026872 -0.015848 0.000000 0.000000 0.000000
# 3 -0.002158 -0.015848 0.019202 0.000000 0.000000 0.000000
# 4 0.000000 0.000000 0.000000 0.022994 0.000000 0.000000
# 5 0.000000 0.000000 0.000000 0.000000 0.085274 0.000000
# 6 0.000000 0.000000 0.000000 0.000000 0.000000 0.042249
#
#
# Mechanical properties :
#
#
# Convention : Reuss Voigt Hill
#
# Bulk Modulus (GPa) = 47.02097 61.74417 54.38257
# Shear Modulus (GPa) = 17.98986 23.88369 20.93677
#
# Velocity S-wave (km/s) = 3.09833 3.56997 3.34248
# Velocity P-wave (km/s) = 6.15553 7.06685 6.62688
#
# Compressibility (1/GPa) = 0.02126711
#
# Stress axis : x y z
#
# Youngs Moduli (GPa) = 40.44676 37.21414 52.07756
#
# Poissons Ratio (x) = 0.25154 0.11240
# Poissons Ratio (y) = 0.27339 0.82531
# Poissons Ratio (z) = 0.08730 0.58976
#
# Static dielectric constant tensor:
#      x y z
#    x 3.433160 0.000000 0.000000 
#    y 0.000000 3.463680 0.000000 
#    z 0.000000 0.000000 3.684820 
# 
# 
# High freq. dielectric constant tensor:
#      x y z
#    x 1.721250 0.000000 0.000000 
#    y 0.000000 1.729040 0.000000 
#    z 0.000000 0.000000 1.725870 
# 
# From -- ./inp_files/59830.got.cif
#   From: 2010.03.12/outbox.cif.g09.slc.cpg/sg74_30_cif.got.tgz:59830.got - 2010.04.16 15:46:19.
