data_PCOD8300156
_publ_section_title
;
Structure prediction by ZEFSAII (Michael W. Deem and Ramdas Pophale) SiO2 
 PCOD8300156
Probable space group: I M M A
;
_chemical_formula_sum "Si O2"
_cell_formula_units_Z 72
_cell_length_a 9.800438
_cell_length_b 14.828221
_cell_length_c 26.844282
_cell_angle_alpha 90.000000
_cell_angle_beta 90.000000
_cell_angle_gamma 90.000000
_cell_volume 3901.093219
_symmetry_space_group_name_H-M "I M M A"
_symmetry_group_IT_number 74
_symmetry_cell_setting 'orthorhombic'
loop_
_space_group_symop_operation_xyz
x,y,z
-x,1/2-y,z
x,-y,-z
-x,1/2+y,-z
-x,-y,-z
x,1/2+y,-z
-x,y,z
x,1/2-y,z
1/2+x,1/2+y,1/2+z
1/2-x,-y,1/2+z
1/2+x,1/2-y,1/2-z
1/2-x,y,1/2-z
1/2-x,1/2-y,1/2-z
1/2+x,y,1/2-z
1/2-x,1/2+y,1/2+z
1/2+x,-y,1/2+z
loop_
_atom_site_type_symbol
_atom_site_label
_atom_site_fract_x
_atom_site_fract_y
_atom_site_fract_z
Si Si1 0.000000 0.643884 0.517432
Si Si2 0.263813 0.147504 0.308759
Si Si3 0.000000 0.853984 0.098289
Si Si4 0.500000 0.344094 0.438820
Si Si5 0.794777 0.600188 0.014414
Si Si6 0.500000 0.531735 0.650568
Si Si7 0.500000 0.355724 0.130061
O O1 0.868522 0.611638 0.486125
O O2 0.000000 0.602226 0.573915
O O3 0.000000 0.750000 0.520689
O O4 0.304673 0.250000 0.325458
O O5 0.250000 0.147312 0.250000
O O6 0.370785 0.070334 0.320968
O O7 0.130106 0.114086 0.337930
O O8 0.139141 0.872524 0.067275
O O9 0.000000 0.750000 0.117002
O O10 0.000000 0.922472 0.145942
O O11 0.500000 0.250000 0.407486
O O12 0.636242 0.338616 0.472187
O O13 0.500000 0.431993 0.405528
O O14 0.837543 0.500000 0.000000
O O15 0.500000 0.250000 0.124270
#
# Coordination Sequence:
#
# PCOD8300156 Si02
#       7
#     8  16   8   8  16   8   8
#     4  11  21  32  50  75 108 149 184 221 272 320
#     4  10  20  35  56  84 117 145 169 210 272 339
#     4  11  23  40  57  76 106 143 192 241 274 308
#     4  11  19  32  54  78 109 143 180 227 269 317
#     4  11  20  36  51  76 108 148 188 231 272 324
#     4  12  21  35  57  84 108 139 190 223 265 326
#     4   9  19  32  48  77 112 144 176 209 259 327
#
# _framework density 18.456365000000002
#
# number of rings (size 3 to 8) (size 9 to 14) (size 15 to 20)
#    0.000    1.333    2.222    6.667    0.000    3.556 
#    0.000    0.000    0.000    0.667    0.000    0.000 
#    0.000    0.000    0.000    0.000    0.000    0.000 
#
# Total GULP energy -446153.758552 kJ/mol
# GULP energy per Si atom -12393.159960 kJ/mol
# Density = 1.841436 g / cm^3
# Si number density = 18.456365 Si / 1000 Ang^3
#
#
#
# Elastic Constant Matrix: (Units=GPa)
#
#
# Indices 1 2 3 4 5 6 
#
# 1 145.4588 30.8014 39.5033 0.0000 0.0000 0.0000
# 2 30.8014 126.0391 26.6477 0.0000 0.0000 0.0000
# 3 39.5033 26.6477 61.4392 0.0000 0.0000 0.0000
# 4 0.0000 0.0000 0.0000 16.3257 0.0000 0.0000
# 5 0.0000 0.0000 0.0000 0.0000 70.6957 0.0000
# 6 0.0000 0.0000 0.0000 0.0000 0.0000 -131.7815
#
#
#
# Elastic Compliance Matrix: (Units=1/GPa)
#
#
# Indices 1 2 3 4 5 6 
#
# 1 0.008444 -0.001008 -0.004992 0.000000 0.000000 0.000000
# 2 -0.001008 0.008855 -0.003193 0.000000 0.000000 0.000000
# 3 -0.004992 -0.003193 0.020871 0.000000 0.000000 0.000000
# 4 0.000000 0.000000 0.000000 0.061253 0.000000 0.000000
# 5 0.000000 0.000000 0.000000 0.000000 0.014145 0.000000
# 6 0.000000 0.000000 0.000000 0.000000 0.000000 -0.007588
#
#
# Mechanical properties :
#
#
# Convention : Reuss Voigt Hill
#
# Bulk Modulus (GPa) = 50.54429 58.53799 54.54114
# Shear Modulus (GPa) = 38.17953 6.78028 22.47990
#
# Velocity S-wave (km/s) = 4.55316 1.91876 3.49378
# Velocity P-wave (km/s) = 7.42206 6.05761 6.77428
#
# Compressibility (1/GPa) = 0.01978463
#
# Stress axis : x y z
#
# Youngs Moduli (GPa) = 118.42778 112.92530 47.91429
#
# Poissons Ratio (x) = 0.11384 0.23918
# Poissons Ratio (y) = 0.11939 0.15297
# Poissons Ratio (z) = 0.59118 0.36053
#
# Static dielectric constant tensor:
#      x y z
#    x 3.577710 0.000000 0.000000 
#    y 0.000000 3.348150 0.000000 
#    z 0.000000 0.000000 3.231930 
# 
# 
# High freq. dielectric constant tensor:
#      x y z
#    x 1.726880 0.000000 0.000000 
#    y 0.000000 1.701220 0.000000 
#    z 0.000000 0.000000 1.686020 
# 
# From -- ./inp_files/63762.got.cif
#   From: 2010.03.12/outbox.cif.g09.slc.cpg/sg74_32_cif.got.tgz:63762.got - 2010.04.16 15:46:19.
