data_PCOD8300874
_publ_section_title
;
Structure prediction by ZEFSAII (Michael W. Deem and Ramdas Pophale) SiO2 
 PCOD8300874
Probable space group: I M M A
;
_chemical_formula_sum "Si O2"
_cell_formula_units_Z 112
_cell_length_a 29.098727
_cell_length_b 15.570957
_cell_length_c 11.518428
_cell_angle_alpha 90.000000
_cell_angle_beta 90.000000
_cell_angle_gamma 90.000000
_cell_volume 5218.942444
_symmetry_space_group_name_H-M "I M M A"
_symmetry_group_IT_number 74
_symmetry_cell_setting 'orthorhombic'
loop_
_space_group_symop_operation_xyz
x,y,z
-x,1/2-y,z
x,-y,-z
-x,1/2+y,-z
-x,-y,-z
x,1/2+y,-z
-x,y,z
x,1/2-y,z
1/2+x,1/2+y,1/2+z
1/2-x,-y,1/2+z
1/2+x,1/2-y,1/2-z
1/2-x,y,1/2-z
1/2-x,1/2-y,1/2-z
1/2+x,y,1/2-z
1/2-x,1/2+y,1/2+z
1/2+x,-y,1/2+z
loop_
_atom_site_type_symbol
_atom_site_label
_atom_site_fract_x
_atom_site_fract_y
_atom_site_fract_z
Si Si1 0.810190 0.904134 0.991315
Si Si2 0.574397 0.155666 0.292140
Si Si3 0.862273 0.948909 0.381990
Si Si4 0.448443 0.963213 0.253424
Si Si5 0.904333 0.344980 0.940316
Si Si6 0.713314 0.653554 0.008095
Si Si7 0.328842 0.391475 0.232515
O O1 0.805365 0.874531 0.856644
O O2 0.848542 0.850624 0.061940
O O3 0.759097 0.898361 0.045500
O O4 0.828672 0.000000 0.000000
O O5 0.550571 0.250000 0.264715
O O6 0.579108 0.145464 0.428909
O O7 0.623361 0.160043 0.228027
O O8 0.549073 0.068103 0.251688
O O9 0.914244 0.924780 0.345241
O O10 0.829216 0.868446 0.406788
O O11 0.864688 0.000000 0.500000
O O12 0.839765 0.006775 0.280568
O O13 0.500000 0.930337 0.228237
O O14 0.429972 0.921398 0.372492
O O15 0.917313 0.250000 0.891122
O O16 0.726705 0.750000 0.031192
O O17 0.702807 0.639827 0.872273
#
# Coordination Sequence:
#
# PCOD8300874 Si02
#       7
#    16  16  16  16  16  16  16
#     4  11  20  34  58  86 118 153 188 229 282 344
#     4   9  18  34  57  86 120 151 179 227 294 354
#     4   9  20  40  58  78 110 147 188 237 287 333
#     4  11  23  39  61  84 108 147 197 245 297 352
#     4  10  21  37  56  83 120 155 189 231 281 344
#     4  11  22  34  53  83 116 153 195 235 278 333
#     4   9  18  34  57  82 113 153 191 226 271 335
#
# _framework density 21.460287000000001
#
# number of rings (size 3 to 8) (size 9 to 14) (size 15 to 20)
#    0.000    2.000    0.000    5.571    0.000    4.857 
#    0.000    3.571    0.000    4.286    0.000    2.000 
#    0.000    0.000    0.000    0.000    0.000    0.000 
#
# Total GULP energy -693823.696279 kJ/mol
# GULP energy per Si atom -12389.708862 kJ/mol
# Density = 2.141144 g / cm^3
# Si number density = 21.460287 Si / 1000 Ang^3
#
#
#
# Elastic Constant Matrix: (Units=GPa)
#
#
# Indices 1 2 3 4 5 6 
#
# 1 136.4280 21.6472 17.5300 0.0000 0.0000 0.0000
# 2 21.6472 92.9647 7.6469 0.0000 0.0000 0.0000
# 3 17.5300 7.6469 9.1561 0.0000 0.0000 0.0000
# 4 0.0000 0.0000 0.0000 17.4247 0.0000 0.0000
# 5 0.0000 0.0000 0.0000 0.0000 17.4719 0.0000
# 6 0.0000 0.0000 0.0000 0.0000 0.0000 13.3140
#
#
#
# Elastic Compliance Matrix: (Units=1/GPa)
#
#
# Indices 1 2 3 4 5 6 
#
# 1 0.009775 -0.000791 -0.018055 0.000000 0.000000 0.000000
# 2 -0.000791 0.011614 -0.008185 0.000000 0.000000 0.000000
# 3 -0.018055 -0.008185 0.150621 0.000000 0.000000 0.000000
# 4 0.000000 0.000000 0.000000 0.057390 0.000000 0.000000
# 5 0.000000 0.000000 0.000000 0.000000 0.057235 0.000000
# 6 0.000000 0.000000 0.000000 0.000000 0.000000 0.075109
#
#
# Mechanical properties :
#
#
# Convention : Reuss Voigt Hill
#
# Bulk Modulus (GPa) = 8.47831 36.91079 22.69455
# Shear Modulus (GPa) = 10.98602 22.42374 16.70488
#
# Velocity S-wave (km/s) = 2.26503 3.23599 2.79303
# Velocity P-wave (km/s) = 3.28629 5.58561 4.58251
#
# Compressibility (1/GPa) = 0.11794808
#
# Stress axis : x y z
#
# Youngs Moduli (GPa) = 102.29818 86.10093 6.63916
#
# Poissons Ratio (x) = 0.06811 0.11987
# Poissons Ratio (y) = 0.08093 0.05434
# Poissons Ratio (z) = 1.84700 0.70477
#
# Static dielectric constant tensor:
#      x y z
#    x 3.802390 0.000000 0.000000 
#    y 0.000000 4.056110 0.000000 
#    z 0.000000 0.000000 3.811100 
# 
# 
# High freq. dielectric constant tensor:
#      x y z
#    x 1.834730 0.000000 0.000000 
#    y 0.000000 1.841090 0.000000 
#    z 0.000000 0.000000 1.816390 
# 
# From -- ./inp_files/21181.got.cif
#   From: 2010.03.12/outbox.cif.g09.slc.cpg/sg74_11_cif.got.tgz:21181.got - 2010.04.16 15:46:19.
