data_PCOD8300677
_publ_section_title
;
Structure prediction by ZEFSAII (Michael W. Deem and Ramdas Pophale) SiO2 
 PCOD8300677
Probable space group: I M M A
;
_chemical_formula_sum "Si O2"
_cell_formula_units_Z 80
_cell_length_a 17.595009
_cell_length_b 20.217760
_cell_length_c 11.041606
_cell_angle_alpha 90.000000
_cell_angle_beta 90.000000
_cell_angle_gamma 90.000000
_cell_volume 3927.848933
_symmetry_space_group_name_H-M "I M M A"
_symmetry_group_IT_number 74
_symmetry_cell_setting 'orthorhombic'
loop_
_space_group_symop_operation_xyz
x,y,z
-x,1/2-y,z
x,-y,-z
-x,1/2+y,-z
-x,-y,-z
x,1/2+y,-z
-x,y,z
x,1/2-y,z
1/2+x,1/2+y,1/2+z
1/2-x,-y,1/2+z
1/2+x,1/2-y,1/2-z
1/2-x,y,1/2-z
1/2-x,1/2-y,1/2-z
1/2+x,y,1/2-z
1/2-x,1/2+y,1/2+z
1/2+x,-y,1/2+z
loop_
_atom_site_type_symbol
_atom_site_label
_atom_site_fract_x
_atom_site_fract_y
_atom_site_fract_z
Si Si1 0.292902 0.675791 0.623572
Si Si2 0.088063 0.585796 0.764499
Si Si3 0.850116 0.879984 0.505065
Si Si4 0.336605 0.548393 0.224947
Si Si5 0.411958 0.677260 0.218185
O O1 0.316335 0.750000 0.583348
O O2 0.250000 0.678164 0.750000
O O3 0.368121 0.631168 0.638063
O O4 0.236529 0.643417 0.525973
O O5 0.104666 0.608236 0.627837
O O6 0.112607 0.509733 0.780333
O O7 0.000000 0.593270 0.793874
O O8 0.847511 0.946307 0.421187
O O9 0.894878 0.824413 0.426778
O O10 0.250000 0.530950 0.250000
O O11 0.362609 0.619217 0.284137
O O12 0.500000 0.662839 0.241889
O O13 0.389355 0.750000 0.268283
#
# Coordination Sequence:
#
# PCOD8300677 Si02
#       5
#    16  16  16  16  16
#     4   9  18  34  53  78 110 143 182 224 274 334
#     4  11  21  33  53  81 111 144 182 228 280 327
#     4   9  19  32  56  78 107 141 179 221 274 328
#     4  10  21  34  53  78 109 146 184 224 272 328
#     4   9  18  31  50  78 106 133 170 220 273 319
#
# _framework density 20.367381999999999
#
# number of rings (size 3 to 8) (size 9 to 14) (size 15 to 20)
#    1.200    1.200    0.000    4.200    0.000    2.400 
#    0.000    0.000    0.000    3.600    0.000    0.000 
#    0.000    0.000    0.000    0.000    0.000    0.000 
#
# Total GULP energy -495593.778390 kJ/mol
# GULP energy per Si atom -12389.844460 kJ/mol
# Density = 2.032102 g / cm^3
# Si number density = 20.367382 Si / 1000 Ang^3
#
#
#
# Elastic Constant Matrix: (Units=GPa)
#
#
# Indices 1 2 3 4 5 6 
#
# 1 134.5799 60.5319 2.9077 0.0000 0.0000 0.0000
# 2 60.5319 139.7985 -0.4858 0.0000 0.0000 0.0000
# 3 2.9077 -0.4858 5.2856 0.0000 0.0000 0.0000
# 4 0.0000 0.0000 0.0000 9.1345 0.0000 0.0000
# 5 0.0000 0.0000 0.0000 0.0000 19.0592 0.0000
# 6 0.0000 0.0000 0.0000 0.0000 0.0000 35.4579
#
#
#
# Elastic Compliance Matrix: (Units=1/GPa)
#
#
# Indices 1 2 3 4 5 6 
#
# 1 0.009387 -0.004084 -0.005539 0.000000 0.000000 0.000000
# 2 -0.004084 0.008932 0.003068 0.000000 0.000000 0.000000
# 3 -0.005539 0.003068 0.192524 0.000000 0.000000 0.000000
# 4 0.000000 0.000000 0.000000 0.109475 0.000000 0.000000
# 5 0.000000 0.000000 0.000000 0.000000 0.052468 0.000000
# 6 0.000000 0.000000 0.000000 0.000000 0.000000 0.028202
#
#
# Mechanical properties :
#
#
# Convention : Reuss Voigt Hill
#
# Bulk Modulus (GPa) = 5.05734 45.06350 25.06042
# Shear Modulus (GPa) = 10.41642 27.17766 18.79704
#
# Velocity S-wave (km/s) = 2.26393 3.65687 3.04122
# Velocity P-wave (km/s) = 3.05324 6.32484 4.96618
#
# Compressibility (1/GPa) = 0.19773224
#
# Stress axis : x y z
#
# Youngs Moduli (GPa) = 106.52991 111.95621 5.19415
#
# Poissons Ratio (x) = 0.45720 0.02877
# Poissons Ratio (y) = 0.43504 -0.01593
# Poissons Ratio (z) = 0.59011 -0.34343
#
# Static dielectric constant tensor:
#      x y z
#    x 3.546800 0.000000 0.000000 
#    y 0.000000 3.810690 0.000000 
#    z 0.000000 0.000000 3.241810 
# 
# 
# High freq. dielectric constant tensor:
#      x y z
#    x 1.792030 0.000000 0.000000 
#    y 0.000000 1.804650 0.000000 
#    z 0.000000 0.000000 1.752600 
# 
# From -- ./inp_files/20513.got.cif
#   From: 2010.03.12/outbox.cif.g09.slc.cpg/sg74_11_cif.got.tgz:20513.got - 2010.04.16 15:46:19.
