data_PCOD8300122
_publ_section_title
;
Structure prediction by ZEFSAII (Michael W. Deem and Ramdas Pophale) SiO2 
 PCOD8300122
Probable space group: I M M A
;
_chemical_formula_sum "Si O2"
_cell_formula_units_Z 104
_cell_length_a 20.473336
_cell_length_b 9.142748
_cell_length_c 30.046986
_cell_angle_alpha 90.000000
_cell_angle_beta 90.000000
_cell_angle_gamma 90.000000
_cell_volume 5624.271512
_symmetry_space_group_name_H-M "I M M A"
_symmetry_group_IT_number 74
_symmetry_cell_setting 'orthorhombic'
loop_
_space_group_symop_operation_xyz
x,y,z
-x,1/2-y,z
x,-y,-z
-x,1/2+y,-z
-x,-y,-z
x,1/2+y,-z
-x,y,z
x,1/2-y,z
1/2+x,1/2+y,1/2+z
1/2-x,-y,1/2+z
1/2+x,1/2-y,1/2-z
1/2-x,y,1/2-z
1/2-x,1/2-y,1/2-z
1/2+x,y,1/2-z
1/2-x,1/2+y,1/2+z
1/2+x,-y,1/2+z
loop_
_atom_site_type_symbol
_atom_site_label
_atom_site_fract_x
_atom_site_fract_y
_atom_site_fract_z
Si Si1 0.779370 0.077050 0.133083
Si Si2 0.077248 0.413632 0.458404
Si Si3 0.642075 0.421097 0.452704
Si Si4 0.000000 0.582614 0.954893
Si Si5 0.313705 0.923767 0.278305
Si Si6 0.075399 0.578630 0.724699
Si Si7 0.870162 0.077575 0.367866
O O1 0.789585 0.250000 0.140146
O O2 0.807472 0.026352 0.085169
O O3 0.704431 0.029376 0.135665
O O4 0.814368 0.990666 0.172489
O O5 0.107460 0.500000 0.500000
O O6 0.105580 0.250000 0.461309
O O7 0.099684 0.491702 0.412713
O O8 0.000000 0.413158 0.460401
O O9 0.654739 0.500000 0.500000
O O10 0.651006 0.250000 0.462159
O O11 0.569384 0.455221 0.431411
O O12 0.000000 0.750000 0.967895
O O13 0.000000 0.500000 0.000000
O O14 0.316872 0.750000 0.281208
O O15 0.250000 0.974611 0.250000
O O16 0.379690 0.984032 0.256773
O O17 0.093118 0.750000 0.729597
O O18 0.089414 0.522176 0.674651
O O19 0.000000 0.549639 0.736617
O O20 0.878014 0.250000 0.371167
#
# Coordination Sequence:
#
# PCOD8300122 Si02
#       7
#    16  16  16   8  16  16  16
#     4  10  20  35  56  80 106 141 184 225 269 322
#     4   9  17  30  47  69 100 136 173 215 264 317
#     4   9  18  32  52  77 105 138 176 220 270 321
#     4   8  14  28  48  70  98 132 170 212 256 310
#     4  11  23  39  58  81 113 150 183 223 282 337
#     4  10  20  36  61  87 107 138 186 234 277 324
#     4   9  17  31  53  77 102 135 178 224 267 316
#
# _framework density 18.491284
#
# number of rings (size 3 to 8) (size 9 to 14) (size 15 to 20)
#    0.000    2.462    1.538    0.923    0.000    4.000 
#    1.385    1.538    0.000    1.846    0.000    0.000 
#    0.000    0.000    0.000    0.000    0.000    0.000 
#
# Total GULP energy -644469.240169 kJ/mol
# GULP energy per Si atom -12393.639234 kJ/mol
# Density = 1.844920 g / cm^3
# Si number density = 18.491284 Si / 1000 Ang^3
#
#
#
# Elastic Constant Matrix: (Units=GPa)
#
#
# Indices 1 2 3 4 5 6 
#
# 1 79.0028 31.4171 40.6880 0.0000 0.0000 0.0000
# 2 31.4171 47.5510 43.2903 0.0000 0.0000 0.0000
# 3 40.6880 43.2903 136.0024 0.0000 0.0000 0.0000
# 4 0.0000 0.0000 0.0000 27.8889 0.0000 0.0000
# 5 0.0000 0.0000 0.0000 0.0000 36.4513 0.0000
# 6 0.0000 0.0000 0.0000 0.0000 0.0000 18.4046
#
#
#
# Elastic Compliance Matrix: (Units=1/GPa)
#
#
# Indices 1 2 3 4 5 6 
#
# 1 0.017626 -0.009638 -0.002205 0.000000 0.000000 0.000000
# 2 -0.009638 0.034881 -0.008219 0.000000 0.000000 0.000000
# 3 -0.002205 -0.008219 0.010629 0.000000 0.000000 0.000000
# 4 0.000000 0.000000 0.000000 0.035857 0.000000 0.000000
# 5 0.000000 0.000000 0.000000 0.000000 0.027434 0.000000
# 6 0.000000 0.000000 0.000000 0.000000 0.000000 0.054334
#
#
# Mechanical properties :
#
#
# Convention : Reuss Voigt Hill
#
# Bulk Modulus (GPa) = 43.45845 54.81633 49.13739
# Shear Modulus (GPa) = 21.87642 26.35966 24.11804
#
# Velocity S-wave (km/s) = 3.44330 3.77970 3.61542
# Velocity P-wave (km/s) = 6.27388 6.98262 6.63772
#
# Compressibility (1/GPa) = 0.02301048
#
# Stress axis : x y z
#
# Youngs Moduli (GPa) = 56.73315 28.66907 94.08315
#
# Poissons Ratio (x) = 0.27631 0.20750
# Poissons Ratio (y) = 0.54679 0.77330
# Poissons Ratio (z) = 0.12512 0.23564
#
# Static dielectric constant tensor:
#      x y z
#    x 3.161200 0.000000 0.000000 
#    y 0.000000 3.240590 0.000000 
#    z 0.000000 0.000000 3.524070 
# 
# 
# High freq. dielectric constant tensor:
#      x y z
#    x 1.721930 0.000000 0.000000 
#    y 0.000000 1.691140 0.000000 
#    z 0.000000 0.000000 1.718250 
# 
# From -- ./inp_files/73350.got.cif
#   From: 2010.03.12/outbox.cif.g09.slc.cpg/sg74_37_cif.got.tgz:73350.got - 2010.04.16 15:46:19.
