data_PCOD8300520
_publ_section_title
;
Structure prediction by ZEFSAII (Michael W. Deem and Ramdas Pophale) SiO2 
 PCOD8300520
Probable space group: I M M A
;
_chemical_formula_sum "Si O2"
_cell_formula_units_Z 104
_cell_length_a 7.516179
_cell_length_b 26.082595
_cell_length_c 29.952632
_cell_angle_alpha 90.000000
_cell_angle_beta 90.000000
_cell_angle_gamma 90.000000
_cell_volume 5871.957493
_symmetry_space_group_name_H-M "I M M A"
_symmetry_group_IT_number 74
_symmetry_cell_setting 'orthorhombic'
loop_
_space_group_symop_operation_xyz
x,y,z
-x,1/2-y,z
x,-y,-z
-x,1/2+y,-z
-x,-y,-z
x,1/2+y,-z
-x,y,z
x,1/2-y,z
1/2+x,1/2+y,1/2+z
1/2-x,-y,1/2+z
1/2+x,1/2-y,1/2-z
1/2-x,y,1/2-z
1/2-x,1/2-y,1/2-z
1/2+x,y,1/2-z
1/2-x,1/2+y,1/2+z
1/2+x,-y,1/2+z
loop_
_atom_site_type_symbol
_atom_site_label
_atom_site_fract_x
_atom_site_fract_y
_atom_site_fract_z
Si Si1 0.000000 0.838561 0.936938
Si Si2 0.705103 0.918875 0.948727
Si Si3 0.500000 0.194355 0.344498
Si Si4 0.710802 0.982843 0.107037
Si Si5 0.292648 0.516667 0.798533
Si Si6 0.000000 0.808786 0.035607
Si Si7 0.705551 0.109828 0.951404
Si Si8 0.792616 0.132634 0.298462
O O1 0.176508 0.872644 0.931056
O O2 0.000000 0.797610 0.897542
O O3 0.000000 0.806800 0.982334
O O4 0.500000 0.908078 0.935853
O O5 0.775045 0.970727 0.924896
O O6 0.729227 0.921473 0.002306
O O7 0.500000 0.250000 0.321358
O O8 0.680066 0.164621 0.333291
O O9 0.500000 0.983348 0.107050
O O10 0.775383 0.928745 0.086998
O O11 0.787877 0.987470 0.157991
O O12 0.500000 0.518177 0.805167
O O13 0.250000 0.490830 0.750000
O O14 0.218971 0.574465 0.799336
O O15 0.823489 0.838782 0.051873
O O16 0.000000 0.750000 0.053765
O O17 0.500000 0.126149 0.944724
O O18 0.750000 0.155988 0.250000
O O19 0.000000 0.136828 0.310711
#
# Coordination Sequence:
#
# PCOD8300520 Si02
#       8
#     8  16   8  16  16   8  16  16
#     4  10  21  35  50  71  97 128 166 208 248 297
#     4   9  17  31  51  74 100 133 165 196 241 297
#     4  12  25  36  51  71  90 119 163 217 272 302
#     4   9  16  29  48  73 104 135 158 196 240 293
#     4   9  18  31  49  70  98 131 162 191 233 290
#     4  10  21  37  53  70  99 133 170 209 243 283
#     4   9  18  32  51  75 103 131 163 203 247 289
#     4  10  20  38  55  70  90 120 161 207 250 302
#
# _framework density 17.711300000000001
#
# number of rings (size 3 to 8) (size 9 to 14) (size 15 to 20)
#    0.000    2.462    0.769    1.615    1.077    5.231 
#    2.769    2.308    0.000    2.769    0.000    0.000 
#    0.000    0.615    0.308    0.000    0.000    0.000 
#
# Total GULP energy -644450.863834 kJ/mol
# GULP energy per Si atom -12393.285843 kJ/mol
# Density = 1.767099 g / cm^3
# Si number density = 17.711300 Si / 1000 Ang^3
#
#
#
# Elastic Constant Matrix: (Units=GPa)
#
#
# Indices 1 2 3 4 5 6 
#
# 1 75.3708 32.6985 24.6805 0.0000 0.0000 0.0000
# 2 32.6985 94.6604 54.3856 0.0000 0.0000 0.0000
# 3 24.6805 54.3856 108.1802 0.0000 0.0000 0.0000
# 4 0.0000 0.0000 0.0000 15.3811 0.0000 0.0000
# 5 0.0000 0.0000 0.0000 0.0000 14.6852 0.0000
# 6 0.0000 0.0000 0.0000 0.0000 0.0000 6.4557
#
#
#
# Elastic Compliance Matrix: (Units=1/GPa)
#
#
# Indices 1 2 3 4 5 6 
#
# 1 0.015717 -0.004737 -0.001204 0.000000 0.000000 0.000000
# 2 -0.004737 0.016283 -0.007105 0.000000 0.000000 0.000000
# 3 -0.001204 -0.007105 0.013090 0.000000 0.000000 0.000000
# 4 0.000000 0.000000 0.000000 0.065015 0.000000 0.000000
# 5 0.000000 0.000000 0.000000 0.000000 0.068096 0.000000
# 6 0.000000 0.000000 0.000000 0.000000 0.000000 0.154901
#
#
# Mechanical properties :
#
#
# Convention : Reuss Voigt Hill
#
# Bulk Modulus (GPa) = 52.63905 55.74893 54.19399
# Shear Modulus (GPa) = 13.67885 18.40086 16.03985
#
# Velocity S-wave (km/s) = 2.78209 3.22675 3.01263
# Velocity P-wave (km/s) = 6.33286 6.73998 6.53959
#
# Compressibility (1/GPa) = 0.01899730
#
# Stress axis : x y z
#
# Youngs Moduli (GPa) = 63.62419 61.41548 76.39175
#
# Poissons Ratio (x) = 0.29095 0.09199
# Poissons Ratio (y) = 0.30141 0.54276
# Poissons Ratio (z) = 0.07661 0.43635
#
# Static dielectric constant tensor:
#      x y z
#    x 3.301480 0.000000 0.000000 
#    y 0.000000 3.012140 0.000000 
#    z 0.000000 0.000000 3.681020 
# 
# 
# High freq. dielectric constant tensor:
#      x y z
#    x 1.690250 0.000000 0.000000 
#    y 0.000000 1.641070 0.000000 
#    z 0.000000 0.000000 1.680050 
# 
# From -- ./inp_files/64818.got.cif
#   From: 2010.03.12/outbox.cif.g09.slc.cpg/sg74_33_cif.got.tgz:64818.got - 2010.04.16 15:46:19.
