data_PCOD8300980
_publ_section_title
;
Structure prediction by ZEFSAII (Michael W. Deem and Ramdas Pophale) SiO2 
 PCOD8300980
Probable space group: I M M A
;
_chemical_formula_sum "Si O2"
_cell_formula_units_Z 72
_cell_length_a 28.783874
_cell_length_b 8.826820
_cell_length_c 14.088933
_cell_angle_alpha 90.000000
_cell_angle_beta 90.000000
_cell_angle_gamma 90.000000
_cell_volume 3579.576260
_symmetry_space_group_name_H-M "I M M A"
_symmetry_group_IT_number 74
_symmetry_cell_setting 'orthorhombic'
loop_
_space_group_symop_operation_xyz
x,y,z
-x,1/2-y,z
x,-y,-z
-x,1/2+y,-z
-x,-y,-z
x,1/2+y,-z
-x,y,z
x,1/2-y,z
1/2+x,1/2+y,1/2+z
1/2-x,-y,1/2+z
1/2+x,1/2-y,1/2-z
1/2-x,y,1/2-z
1/2-x,1/2-y,1/2-z
1/2+x,y,1/2-z
1/2-x,1/2+y,1/2+z
1/2+x,-y,1/2+z
loop_
_atom_site_type_symbol
_atom_site_label
_atom_site_fract_x
_atom_site_fract_y
_atom_site_fract_z
Si Si1 0.678478 0.428690 0.603207
Si Si2 0.093643 0.926430 0.795222
Si Si3 0.500000 0.571961 0.602952
Si Si4 0.371124 0.423969 0.097394
Si Si5 0.768563 0.929456 0.602760
O O1 0.670619 0.500000 0.500000
O O2 0.683960 0.250000 0.594078
O O3 0.633431 0.468010 0.663833
O O4 0.724324 0.497764 0.658354
O O5 0.103949 0.750000 0.818130
O O6 0.044911 0.981050 0.838229
O O7 0.091871 0.952331 0.681119
O O8 0.500000 0.750000 0.589480
O O9 0.500000 0.500000 0.500000
O O10 0.366114 0.250000 0.070543
O O11 0.320215 0.479958 0.135404
O O12 0.387927 0.500000 0.000000
O O13 0.762344 0.750000 0.604487
O O14 0.760992 0.000000 0.500000
#
# Coordination Sequence:
#
# PCOD8300980 Si02
#       5
#    16  16   8  16  16
#     4  11  21  33  51  78 110 145 181 224 270 321
#     4  10  21  38  57  80 107 141 181 223 271 325
#     4  10  22  40  63  84 108 138 173 218 271 324
#     4   9  19  35  56  79 109 145 182 221 265 313
#     4   9  16  29  49  74 105 144 181 218 262 313
#
# _framework density 20.114111000000001
#
# number of rings (size 3 to 8) (size 9 to 14) (size 15 to 20)
#    0.000    2.222    0.000    4.667    0.000    5.333 
#    0.000    5.000    0.000    0.000    0.000    0.000 
#    0.000    0.000    0.000    0.000    0.000    0.000 
#
# Total GULP energy -446138.023646 kJ/mol
# GULP energy per Si atom -12392.722879 kJ/mol
# Density = 2.006833 g / cm^3
# Si number density = 20.114111 Si / 1000 Ang^3
#
#
#
# Elastic Constant Matrix: (Units=GPa)
#
#
# Indices 1 2 3 4 5 6 
#
# 1 122.6687 33.1300 66.1100 0.0000 0.0000 0.0000
# 2 33.1300 81.2562 32.4410 0.0000 0.0000 0.0000
# 3 66.1100 32.4410 99.8953 0.0000 0.0000 0.0000
# 4 0.0000 0.0000 0.0000 26.9991 0.0000 0.0000
# 5 0.0000 0.0000 0.0000 0.0000 36.0125 0.0000
# 6 0.0000 0.0000 0.0000 0.0000 0.0000 18.2334
#
#
#
# Elastic Compliance Matrix: (Units=1/GPa)
#
#
# Indices 1 2 3 4 5 6 
#
# 1 0.012988 -0.002141 -0.007900 0.000000 0.000000 0.000000
# 2 -0.002141 0.014493 -0.003289 0.000000 0.000000 0.000000
# 3 -0.007900 -0.003289 0.016307 0.000000 0.000000 0.000000
# 4 0.000000 0.000000 0.000000 0.037038 0.000000 0.000000
# 5 0.000000 0.000000 0.000000 0.000000 0.027768 0.000000
# 6 0.000000 0.000000 0.000000 0.000000 0.000000 0.054844
#
#
# Mechanical properties :
#
#
# Convention : Reuss Voigt Hill
#
# Bulk Modulus (GPa) = 58.38971 63.02024 60.70498
# Shear Modulus (GPa) = 25.53511 27.72496 26.63004
#
# Velocity S-wave (km/s) = 3.56689 3.71669 3.64256
# Velocity P-wave (km/s) = 6.78644 7.05817 6.92364
#
# Compressibility (1/GPa) = 0.01712630
#
# Stress axis : x y z
#
# Youngs Moduli (GPa) = 76.99492 68.99803 61.32423
#
# Poissons Ratio (x) = 0.14776 0.48445
# Poissons Ratio (y) = 0.16488 0.20172
# Poissons Ratio (z) = 0.60825 0.22696
#
# Static dielectric constant tensor:
#      x y z
#    x 4.011060 0.000000 0.000000 
#    y 0.000000 3.580390 0.000000 
#    z 0.000000 0.000000 3.598890 
# 
# 
# High freq. dielectric constant tensor:
#      x y z
#    x 1.780770 0.000000 0.000000 
#    y 0.000000 1.778640 0.000000 
#    z 0.000000 0.000000 1.777620 
# 
# From -- ./inp_files/29418.got.cif
#   From: 2010.03.12/outbox.cif.g09.slc.cpg/sg74_15_cif.got.tgz:29418.got - 2010.04.16 15:46:19.
