data_PCOD8300818
_publ_section_title
;
Structure prediction by ZEFSAII (Michael W. Deem and Ramdas Pophale) SiO2 
 PCOD8300818
Probable space group: I M M A
;
_chemical_formula_sum "Si O2"
_cell_formula_units_Z 112
_cell_length_a 25.019348
_cell_length_b 14.099093
_cell_length_c 14.840901
_cell_angle_alpha 90.000000
_cell_angle_beta 90.000000
_cell_angle_gamma 90.000000
_cell_volume 5235.129523
_symmetry_space_group_name_H-M "I M M A"
_symmetry_group_IT_number 74
_symmetry_cell_setting 'orthorhombic'
loop_
_space_group_symop_operation_xyz
x,y,z
-x,1/2-y,z
x,-y,-z
-x,1/2+y,-z
-x,-y,-z
x,1/2+y,-z
-x,y,z
x,1/2-y,z
1/2+x,1/2+y,1/2+z
1/2-x,-y,1/2+z
1/2+x,1/2-y,1/2-z
1/2-x,y,1/2-z
1/2-x,1/2-y,1/2-z
1/2+x,y,1/2-z
1/2-x,1/2+y,1/2+z
1/2+x,-y,1/2+z
loop_
_atom_site_type_symbol
_atom_site_label
_atom_site_fract_x
_atom_site_fract_y
_atom_site_fract_z
Si Si1 0.437641 0.148657 0.552770
Si Si2 0.563114 0.141355 0.038640
Si Si3 0.272898 0.977558 0.146456
Si Si4 0.104235 0.958545 0.369640
Si Si5 0.235997 0.637127 0.976494
Si Si6 0.874372 0.645142 0.883723
Si Si7 0.061409 0.001783 0.806667
O O1 0.500000 0.151827 0.569250
O O2 0.411845 0.250000 0.582413
O O3 0.425997 0.133938 0.447939
O O4 0.415132 0.063501 0.611352
O O5 0.500000 0.122467 0.042755
O O6 0.576617 0.250000 0.065134
O O7 0.592718 0.067640 0.103414
O O8 0.585465 0.120388 0.939673
O O9 0.250000 0.979231 0.250000
O O10 0.333669 0.943735 0.151694
O O11 0.242494 0.903955 0.078385
O O12 0.272059 0.081500 0.097890
O O13 0.067854 0.936536 0.283006
O O14 0.248783 0.750000 0.975492
O O15 0.176292 0.613578 0.942373
O O16 0.865182 0.750000 0.845545
O O17 0.893639 0.581914 0.799401
O O18 0.000000 0.967752 0.818127
#
# Coordination Sequence:
#
# PCOD8300818 Si02
#       7
#    16  16  16  16  16  16  16
#     4   9  19  34  52  80 116 154 194 229 274 342
#     4  10  21  40  65  89 118 156 195 246 311 373
#     4  11  25  41  64  93 123 166 211 267 314 367
#     4  11  23  39  60  89 119 154 200 250 306 359
#     4  10  23  43  65  89 122 162 209 263 318 370
#     4  10  21  36  58  84 116 158 195 238 291 349
#     4  11  22  35  58  88 121 159 193 240 297 359
#
# _framework density 21.393930000000001
#
# number of rings (size 3 to 8) (size 9 to 14) (size 15 to 20)
#    0.000    1.714    0.000    5.143    6.000    6.000 
#    0.000    1.429    0.000    0.000    0.000    0.000 
#    0.000    0.000    0.000    0.000    0.000    0.000 
#
# Total GULP energy -693787.415776 kJ/mol
# GULP energy per Si atom -12389.060996 kJ/mol
# Density = 2.134524 g / cm^3
# Si number density = 21.393930 Si / 1000 Ang^3
#
#
#
# Elastic Constant Matrix: (Units=GPa)
#
#
# Indices 1 2 3 4 5 6 
#
# 1 80.4384 15.1875 8.6998 0.0000 0.0000 0.0000
# 2 15.1875 72.1676 0.6615 0.0000 0.0000 0.0000
# 3 8.6998 0.6615 72.7783 0.0000 0.0000 0.0000
# 4 0.0000 0.0000 0.0000 12.1702 0.0000 0.0000
# 5 0.0000 0.0000 0.0000 0.0000 35.4547 0.0000
# 6 0.0000 0.0000 0.0000 0.0000 0.0000 28.3967
#
#
#
# Elastic Compliance Matrix: (Units=1/GPa)
#
#
# Indices 1 2 3 4 5 6 
#
# 1 0.013117 -0.002746 -0.001543 0.000000 0.000000 0.000000
# 2 -0.002746 0.014433 0.000197 0.000000 0.000000 0.000000
# 3 -0.001543 0.000197 0.013923 0.000000 0.000000 0.000000
# 4 0.000000 0.000000 0.000000 0.082168 0.000000 0.000000
# 5 0.000000 0.000000 0.000000 0.000000 0.028205 0.000000
# 6 0.000000 0.000000 0.000000 0.000000 0.000000 0.035215
#
#
# Mechanical properties :
#
#
# Convention : Reuss Voigt Hill
#
# Bulk Modulus (GPa) = 30.04040 30.49799 30.26919
# Shear Modulus (GPa) = 24.23161 28.59336 26.41248
#
# Velocity S-wave (km/s) = 3.36912 3.65981 3.51747
# Velocity P-wave (km/s) = 5.40432 5.66968 5.53859
#
# Compressibility (1/GPa) = 0.03328850
#
# Stress axis : x y z
#
# Youngs Moduli (GPa) = 76.23516 69.28665 71.82348
#
# Poissons Ratio (x) = 0.19029 0.11083
# Poissons Ratio (y) = 0.20937 -0.01416
# Poissons Ratio (z) = 0.11764 -0.01366
#
# Static dielectric constant tensor:
#      x y z
#    x 3.809420 0.000000 0.000000 
#    y 0.000000 4.152550 0.000000 
#    z 0.000000 0.000000 3.809770 
# 
# 
# High freq. dielectric constant tensor:
#      x y z
#    x 1.841250 0.000000 0.000000 
#    y 0.000000 1.839850 0.000000 
#    z 0.000000 0.000000 1.836270 
# 
# From -- ./inp_files/36470.got.cif
#   From: 2010.03.12/outbox.cif.g09.slc.cpg/sg74_19_cif.got.tgz:36470.got - 2010.04.16 15:46:19.
