data_PCOD8300853
_publ_section_title
;
Structure prediction by ZEFSAII (Michael W. Deem and Ramdas Pophale) SiO2 
 PCOD8300853
Probable space group: I M M A
;
_chemical_formula_sum "Si O2"
_cell_formula_units_Z 96
_cell_length_a 20.230735
_cell_length_b 8.841595
_cell_length_c 28.152881
_cell_angle_alpha 90.000000
_cell_angle_beta 90.000000
_cell_angle_gamma 90.000000
_cell_volume 5035.761157
_symmetry_space_group_name_H-M "I M M A"
_symmetry_group_IT_number 74
_symmetry_cell_setting 'orthorhombic'
loop_
_space_group_symop_operation_xyz
x,y,z
-x,1/2-y,z
x,-y,-z
-x,1/2+y,-z
-x,-y,-z
x,1/2+y,-z
-x,y,z
x,1/2-y,z
1/2+x,1/2+y,1/2+z
1/2-x,-y,1/2+z
1/2+x,1/2-y,1/2-z
1/2-x,y,1/2-z
1/2-x,1/2-y,1/2-z
1/2+x,y,1/2-z
1/2-x,1/2+y,1/2+z
1/2+x,-y,1/2+z
loop_
_atom_site_type_symbol
_atom_site_label
_atom_site_fract_x
_atom_site_fract_y
_atom_site_fract_z
Si Si1 0.924508 0.073831 0.791922
Si Si2 0.190408 0.929719 0.384681
Si Si3 0.425715 0.571591 0.049499
Si Si4 0.187487 0.429653 0.721360
Si Si5 0.923507 0.073303 0.109364
Si Si6 0.188363 0.070631 0.949180
O O1 0.913285 0.250000 0.803381
O O2 0.879606 0.020075 0.747917
O O3 0.000000 0.039407 0.777718
O O4 0.902627 0.982665 0.838453
O O5 0.190231 0.750000 0.382508
O O6 0.124245 0.988954 0.410525
O O7 0.189482 0.998656 0.331627
O O8 0.255191 0.985655 0.412705
O O9 0.500000 0.521824 0.063706
O O10 0.420445 0.750000 0.043726
O O11 0.403831 0.500000 0.000000
O O12 0.191468 0.250000 0.718455
O O13 0.250000 0.494667 0.750000
O O14 0.908925 0.250000 0.105523
O O15 0.000000 0.034962 0.099864
O O16 0.882222 0.986365 0.069444
O O17 0.187050 0.250000 0.954048
O O18 0.204330 0.000000 0.000000
#
# Coordination Sequence:
#
# PCOD8300853 Si02
#       6
#    16  16  16  16  16  16
#     4   9  17  30  51  78 104 132 168 209 252 298
#     4   9  18  31  49  75 104 135 171 210 252 297
#     4   9  17  30  49  72  99 131 166 204 246 293
#     4   9  16  27  46  72 100 129 163 204 247 290
#     4  10  21  37  56  77 103 135 169 207 254 309
#     4  11  22  36  55  77 103 135 172 215 259 305
#
# _framework density 19.063652999999999
#
# number of rings (size 3 to 8) (size 9 to 14) (size 15 to 20)
#    0.000    2.500    0.000    2.500    0.000    4.667 
#    0.000    4.167    0.000    6.500    0.000    4.667 
#    0.000    0.000    0.000    0.000    0.000    0.000 
#
# Total GULP energy -595252.192884 kJ/mol
# GULP energy per Si atom -12401.087352 kJ/mol
# Density = 1.902026 g / cm^3
# Si number density = 19.063653 Si / 1000 Ang^3
#
#
#
# Elastic Constant Matrix: (Units=GPa)
#
#
# Indices 1 2 3 4 5 6 
#
# 1 118.4187 25.6231 82.3526 0.0000 0.0000 0.0000
# 2 25.6231 38.8596 30.1329 0.0000 0.0000 0.0000
# 3 82.3526 30.1329 157.9725 0.0000 0.0000 0.0000
# 4 0.0000 0.0000 0.0000 26.1122 0.0000 0.0000
# 5 0.0000 0.0000 0.0000 0.0000 41.8027 0.0000
# 6 0.0000 0.0000 0.0000 0.0000 0.0000 15.3943
#
#
#
# Elastic Compliance Matrix: (Units=1/GPa)
#
#
# Indices 1 2 3 4 5 6 
#
# 1 0.013790 -0.004129 -0.006401 0.000000 0.000000 0.000000
# 2 -0.004129 0.031437 -0.003844 0.000000 0.000000 0.000000
# 3 -0.006401 -0.003844 0.010400 0.000000 0.000000 0.000000
# 4 0.000000 0.000000 0.000000 0.038296 0.000000 0.000000
# 5 0.000000 0.000000 0.000000 0.000000 0.023922 0.000000
# 6 0.000000 0.000000 0.000000 0.000000 0.000000 0.064959
#
#
# Mechanical properties :
#
#
# Convention : Reuss Voigt Hill
#
# Bulk Modulus (GPa) = 37.20404 65.71868 51.46136
# Shear Modulus (GPa) = 22.67451 28.47132 25.57292
#
# Velocity S-wave (km/s) = 3.45252 3.86876 3.66655
# Velocity P-wave (km/s) = 5.95410 7.38272 6.70656
#
# Compressibility (1/GPa) = 0.02687880
#
# Stress axis : x y z
#
# Youngs Moduli (GPa) = 72.51886 31.80968 96.15024
#
# Poissons Ratio (x) = 0.13134 0.61546
# Poissons Ratio (y) = 0.29942 0.36961
# Poissons Ratio (z) = 0.46420 0.12228
#
# Static dielectric constant tensor:
#      x y z
#    x 3.692820 0.000000 0.000000 
#    y 0.000000 3.140340 0.000000 
#    z 0.000000 0.000000 3.764850 
# 
# 
# High freq. dielectric constant tensor:
#      x y z
#    x 1.754820 0.000000 0.000000 
#    y 0.000000 1.703180 0.000000 
#    z 0.000000 0.000000 1.745440 
# 
# From -- ./inp_files/64300.got.cif
#   From: 2010.03.12/outbox.cif.g09.slc.cpg/sg74_33_cif.got.tgz:64300.got - 2010.04.16 15:46:19.
