data_PCOD8300603
_publ_section_title
;
Structure prediction by ZEFSAII (Michael W. Deem and Ramdas Pophale) SiO2 
 PCOD8300603
Probable space group: I M M A
;
_chemical_formula_sum "Si O2"
_cell_formula_units_Z 88
_cell_length_a 19.539541
_cell_length_b 17.706488
_cell_length_c 11.313467
_cell_angle_alpha 90.000000
_cell_angle_beta 90.000000
_cell_angle_gamma 90.000000
_cell_volume 3914.195393
_symmetry_space_group_name_H-M "I M M A"
_symmetry_group_IT_number 74
_symmetry_cell_setting 'orthorhombic'
loop_
_space_group_symop_operation_xyz
x,y,z
-x,1/2-y,z
x,-y,-z
-x,1/2+y,-z
-x,-y,-z
x,1/2+y,-z
-x,y,z
x,1/2-y,z
1/2+x,1/2+y,1/2+z
1/2-x,-y,1/2+z
1/2+x,1/2-y,1/2-z
1/2-x,y,1/2-z
1/2-x,1/2-y,1/2-z
1/2+x,y,1/2-z
1/2-x,1/2+y,1/2+z
1/2+x,-y,1/2+z
loop_
_atom_site_type_symbol
_atom_site_label
_atom_site_fract_x
_atom_site_fract_y
_atom_site_fract_z
Si Si1 0.000000 0.126987 0.171401
Si Si2 0.774679 0.337246 0.999456
Si Si3 0.866124 0.410444 0.523411
Si Si4 0.859123 0.105983 0.795221
Si Si5 0.628964 0.545377 0.614915
Si Si6 0.500000 0.664281 0.401828
Si Si7 0.000000 0.666942 0.574966
O O1 0.064780 0.073411 0.188054
O O2 0.000000 0.181997 0.283867
O O3 0.000000 0.168424 0.044786
O O4 0.777210 0.250000 0.035566
O O5 0.824288 0.383286 0.085706
O O6 0.700490 0.370414 0.029577
O O7 0.799929 0.345985 0.862463
O O8 0.861289 0.500000 0.500000
O O9 0.866305 0.379197 0.657420
O O10 0.933938 0.380269 0.462207
O O11 0.932377 0.121907 0.856980
O O12 0.834794 0.018374 0.805235
O O13 0.603794 0.500000 0.500000
O O14 0.500000 0.750000 0.353928
O O15 0.000000 0.750000 0.515016
#
# Coordination Sequence:
#
# PCOD8300603 Si02
#       7
#     8  16  16  16  16   8   8
#     4  12  21  41  70  93 138 176 223 270 331 399
#     4  11  24  41  68 103 137 174 216 276 343 395
#     4  12  26  48  69  95 136 179 230 270 322 403
#     4  11  23  40  70 102 134 177 222 276 333 389
#     4  10  20  39  66 100 134 170 219 273 332 390
#     4  12  23  37  67 108 139 167 220 286 339 388
#     4  12  29  47  67  98 134 182 222 267 335 398
#
# _framework density 22.482271000000001
#
# number of rings (size 3 to 8) (size 9 to 14) (size 15 to 20)
#    0.000    0.727    3.636    6.273    0.000    5.091 
#    0.000    2.727    0.000    5.455    0.000    0.000 
#    0.000    0.000    0.000    0.000    0.000    0.000 
#
# Total GULP energy -545339.845970 kJ/mol
# GULP energy per Si atom -12394.087408 kJ/mol
# Density = 2.243110 g / cm^3
# Si number density = 22.482271 Si / 1000 Ang^3
#
#
#
# Elastic Constant Matrix: (Units=GPa)
#
#
# Indices 1 2 3 4 5 6 
#
# 1 153.9436 68.0522 28.2331 0.0000 0.0000 0.0000
# 2 68.0522 189.0142 17.6358 0.0000 0.0000 0.0000
# 3 28.2331 17.6358 73.8128 0.0000 0.0000 0.0000
# 4 0.0000 0.0000 0.0000 14.0933 0.0000 0.0000
# 5 0.0000 0.0000 0.0000 0.0000 137.9060 0.0000
# 6 0.0000 0.0000 0.0000 0.0000 0.0000 32.0511
#
#
#
# Elastic Compliance Matrix: (Units=1/GPa)
#
#
# Indices 1 2 3 4 5 6 
#
# 1 0.008143 -0.002701 -0.002469 0.000000 0.000000 0.000000
# 2 -0.002701 0.006307 -0.000474 0.000000 0.000000 0.000000
# 3 -0.002469 -0.000474 0.014605 0.000000 0.000000 0.000000
# 4 0.000000 0.000000 0.000000 0.070956 0.000000 0.000000
# 5 0.000000 0.000000 0.000000 0.000000 0.007251 0.000000
# 6 0.000000 0.000000 0.000000 0.000000 0.000000 0.031200
#
#
# Mechanical properties :
#
#
# Convention : Reuss Voigt Hill
#
# Bulk Modulus (GPa) = 56.28372 71.62362 63.95367
# Shear Modulus (GPa) = 32.11847 57.00005 44.55926
#
# Velocity S-wave (km/s) = 3.78380 5.04067 4.45677
# Velocity P-wave (km/s) = 6.64670 8.11202 7.41564
#
# Compressibility (1/GPa) = 0.01776713
#
# Stress axis : x y z
#
# Youngs Moduli (GPa) = 122.80648 158.54388 68.46769
#
# Poissons Ratio (x) = 0.42828 0.16906
# Poissons Ratio (y) = 0.33174 0.03244
# Poissons Ratio (z) = 0.30323 0.07511
#
# Static dielectric constant tensor:
#      x y z
#    x 4.147330 0.000000 0.000000 
#    y 0.000000 4.179710 0.000000 
#    z 0.000000 0.000000 4.129120 
# 
# 
# High freq. dielectric constant tensor:
#      x y z
#    x 1.893190 0.000000 0.000000 
#    y 0.000000 1.896350 0.000000 
#    z 0.000000 0.000000 1.873850 
# 
# From -- ./inp_files/23724.got.cif
#   From: 2010.03.12/outbox.cif.g09.slc.cpg/sg74_12_cif.got.tgz:23724.got - 2010.04.16 15:46:19.
