data_PCOD8300494
_publ_section_title
;
Structure prediction by ZEFSAII (Michael W. Deem and Ramdas Pophale) SiO2 
 PCOD8300494
Probable space group: I M M A
;
_chemical_formula_sum "Si O2"
_cell_formula_units_Z 72
_cell_length_a 20.934314
_cell_length_b 19.130814
_cell_length_c 9.259997
_cell_angle_alpha 90.000000
_cell_angle_beta 90.000000
_cell_angle_gamma 90.000000
_cell_volume 3708.540526
_symmetry_space_group_name_H-M "I M M A"
_symmetry_group_IT_number 74
_symmetry_cell_setting 'orthorhombic'
loop_
_space_group_symop_operation_xyz
x,y,z
-x,1/2-y,z
x,-y,-z
-x,1/2+y,-z
-x,-y,-z
x,1/2+y,-z
-x,y,z
x,1/2-y,z
1/2+x,1/2+y,1/2+z
1/2-x,-y,1/2+z
1/2+x,1/2-y,1/2-z
1/2-x,y,1/2-z
1/2-x,1/2-y,1/2-z
1/2+x,y,1/2-z
1/2-x,1/2+y,1/2+z
1/2+x,-y,1/2+z
loop_
_atom_site_type_symbol
_atom_site_label
_atom_site_fract_x
_atom_site_fract_y
_atom_site_fract_z
Si Si1 0.337745 0.000000 0.000000
Si Si2 0.099910 0.900667 0.047082
Si Si3 0.286628 0.250000 0.397370
Si Si4 0.240429 0.118717 0.911887
Si Si5 0.930592 0.523858 0.762249
Si Si6 0.927340 0.750000 0.979623
O O1 0.295784 0.065765 0.955222
O O2 0.379800 0.975505 0.865353
O O3 0.086050 0.916465 0.879055
O O4 0.173063 0.920438 0.078421
O O5 0.061604 0.949511 0.156656
O O6 0.080693 0.819776 0.077638
O O7 0.250000 0.250000 0.250000
O O8 0.261171 0.183224 0.481163
O O9 0.364518 0.250000 0.373602
O O10 0.250000 0.146568 0.750000
O O11 0.000000 0.541177 0.695055
O O12 0.000000 0.750000 0.910153
#
# Coordination Sequence:
#
# PCOD8300494 Si02
#       6
#     8  16   8  16  16   8
#     4  12  25  36  62  88 125 156 210 252 308 362
#     4  10  21  38  64  88 116 159 207 249 300 365
#     4  10  25  41  66  95 125 158 200 257 314 371
#     4  11  23  41  62  90 124 162 200 251 308 363
#     4  11  22  39  58  87 123 162 202 254 306 361
#     4  10  20  37  62  91 118 156 202 249 294 364
#
# _framework density 19.414643999999999
#
# number of rings (size 3 to 8) (size 9 to 14) (size 15 to 20)
#    0.000    1.333    2.222    4.667    6.222    0.000 
#    0.000    0.000    0.000    0.000    0.000    4.667 
#    0.000    0.000    0.000    0.000    0.000    0.000 
#
# Total GULP energy -446189.738689 kJ/mol
# GULP energy per Si atom -12394.159408 kJ/mol
# Density = 1.937046 g / cm^3
# Si number density = 19.414644 Si / 1000 Ang^3
#
#
#
# Elastic Constant Matrix: (Units=GPa)
#
#
# Indices 1 2 3 4 5 6 
#
# 1 165.1551 26.1484 56.5228 0.0000 0.0000 0.0000
# 2 26.1484 97.5286 33.3658 0.0000 0.0000 0.0000
# 3 56.5228 33.3658 112.5868 0.0000 0.0000 0.0000
# 4 0.0000 0.0000 0.0000 15.6978 0.0000 0.0000
# 5 0.0000 0.0000 0.0000 0.0000 6.4521 0.0000
# 6 0.0000 0.0000 0.0000 0.0000 0.0000 -0.3310
#
#
#
# Elastic Compliance Matrix: (Units=1/GPa)
#
#
# Indices 1 2 3 4 5 6 
#
# 1 0.007365 -0.000790 -0.003464 0.000000 0.000000 0.000000
# 2 -0.000790 0.011495 -0.003010 0.000000 0.000000 0.000000
# 3 -0.003464 -0.003010 0.011513 0.000000 0.000000 0.000000
# 4 0.000000 0.000000 0.000000 0.063703 0.000000 0.000000
# 5 0.000000 0.000000 0.000000 0.000000 0.154988 0.000000
# 6 0.000000 0.000000 0.000000 0.000000 0.000000 -3.021060
#
#
# Mechanical properties :
#
#
# Convention : Reuss Voigt Hill
#
# Bulk Modulus (GPa) = 63.10640 67.48274 65.29457
# Shear Modulus (GPa) = -1.81674 21.64601 9.91464
#
# Velocity S-wave (km/s) = -0.96839 3.34268 2.26227
# Velocity P-wave (km/s) = 5.59685 7.05210 6.36620
#
# Compressibility (1/GPa) = 0.01584625
#
# Stress axis : x y z
#
# Youngs Moduli (GPa) = 135.77092 86.99475 86.85855
#
# Poissons Ratio (x) = 0.06871 0.30085
# Poissons Ratio (y) = 0.10723 0.26145
# Poissons Ratio (z) = 0.47026 0.26186
#
# Static dielectric constant tensor:
#      x y z
#    x 3.871600 0.000000 0.000000 
#    y 0.000000 3.639180 0.000000 
#    z 0.000000 0.000000 3.359490 
# 
# 
# High freq. dielectric constant tensor:
#      x y z
#    x 1.781220 0.000000 0.000000 
#    y 0.000000 1.762780 0.000000 
#    z 0.000000 0.000000 1.729440 
# 
# From -- ./inp_files/12193.got.cif
#   From: 2010.03.12/outbox.cif.g09.slc.cpg/sg74_7_cif.got.tgz:12193.got - 2010.04.16 15:46:19.
