data_PCOD8300859
_publ_section_title
;
Structure prediction by ZEFSAII (Michael W. Deem and Ramdas Pophale) SiO2 
 PCOD8300859
Probable space group: I M M A
;
_chemical_formula_sum "Si O2"
_cell_formula_units_Z 96
_cell_length_a 14.279617
_cell_length_b 23.143394
_cell_length_c 14.772840
_cell_angle_alpha 90.000000
_cell_angle_beta 90.000000
_cell_angle_gamma 90.000000
_cell_volume 4882.110471
_symmetry_space_group_name_H-M "I M M A"
_symmetry_group_IT_number 74
_symmetry_cell_setting 'orthorhombic'
loop_
_space_group_symop_operation_xyz
x,y,z
-x,1/2-y,z
x,-y,-z
-x,1/2+y,-z
-x,-y,-z
x,1/2+y,-z
-x,y,z
x,1/2-y,z
1/2+x,1/2+y,1/2+z
1/2-x,-y,1/2+z
1/2+x,1/2-y,1/2-z
1/2-x,y,1/2-z
1/2-x,1/2-y,1/2-z
1/2+x,y,1/2-z
1/2-x,1/2+y,1/2+z
1/2+x,-y,1/2+z
loop_
_atom_site_type_symbol
_atom_site_label
_atom_site_fract_x
_atom_site_fract_y
_atom_site_fract_z
Si Si1 0.226257 0.446648 0.152234
Si Si2 0.895376 0.623917 0.983571
Si Si3 0.896261 0.750000 0.030359
Si Si4 0.400114 0.437469 0.027953
Si Si5 0.389106 0.934926 0.328921
Si Si6 0.110632 0.868513 0.353893
Si Si7 0.784106 0.750000 0.349049
O O1 0.250000 0.420912 0.250000
O O2 0.164413 0.403181 0.095441
O O3 0.327309 0.447389 0.107237
O O4 0.173723 0.507978 0.159726
O O5 0.000000 0.601142 0.968618
O O6 0.888033 0.692719 0.969580
O O7 0.864596 0.605823 0.085382
O O8 0.812834 0.750000 0.099263
O O9 0.000000 0.750000 0.078832
O O10 0.500000 0.407992 0.059692
O O11 0.430865 0.500000 0.000000
O O12 0.356118 0.403966 0.942060
O O13 0.500000 0.950553 0.324669
O O14 0.356633 0.901059 0.238175
O O15 0.154720 0.806093 0.368157
O O16 0.000000 0.861446 0.350202
O O17 0.750000 0.750000 0.250000
#
# Coordination Sequence:
#
# PCOD8300859 Si02
#       7
#    16  16   8  16  16  16   8
#     4  12  24  36  56  84 114 149 191 240 289 338
#     4  10  21  39  61  84 112 147 189 236 287 339
#     4  10  22  39  59  82 112 149 190 241 291 340
#     4  10  21  37  56  78 110 151 192 236 283 335
#     4  10  21  37  59  88 121 153 186 228 280 343
#     4  10  22  40  60  86 121 158 194 231 280 344
#     4  12  23  33  56  88 123 159 192 225 272 342
#
# _framework density 19.663627000000002
#
# number of rings (size 3 to 8) (size 9 to 14) (size 15 to 20)
#    0.000    1.500    0.000    5.250    0.000    9.333 
#    0.000    0.417    0.000    1.000    0.000    2.333 
#    0.000    0.000    0.000    0.000    0.000    0.000 
#
# Total GULP energy -594816.558811 kJ/mol
# GULP energy per Si atom -12392.011642 kJ/mol
# Density = 1.961887 g / cm^3
# Si number density = 19.663627 Si / 1000 Ang^3
#
#
#
# Elastic Constant Matrix: (Units=GPa)
#
#
# Indices 1 2 3 4 5 6 
#
# 1 102.2508 50.2030 65.8873 0.0000 -0.0001 0.0000
# 2 50.2030 120.1228 56.4644 0.0002 0.0001 -0.0002
# 3 65.8873 56.4644 127.2646 -0.0001 0.0003 -0.0002
# 4 0.0000 0.0002 -0.0001 25.4682 0.0003 -0.0001
# 5 -0.0001 0.0001 0.0003 0.0003 40.6424 0.0002
# 6 0.0000 -0.0002 -0.0002 -0.0001 0.0002 29.8301
#
#
#
# Elastic Compliance Matrix: (Units=1/GPa)
#
#
# Indices 1 2 3 4 5 6 
#
# 1 0.015745 -0.003473 -0.006610 0.000000 0.000000 0.000000
# 2 -0.003473 0.011285 -0.003209 0.000000 0.000000 0.000000
# 3 -0.006610 -0.003209 0.012704 0.000000 0.000000 0.000000
# 4 0.000000 0.000000 0.000000 0.039265 0.000000 0.000000
# 5 0.000000 0.000000 0.000000 0.000000 0.024605 0.000000
# 6 0.000000 0.000000 0.000000 0.000000 0.000000 0.033523
#
#
# Mechanical properties :
#
#
# Convention : Reuss Voigt Hill
#
# Bulk Modulus (GPa) = 76.05327 77.19416 76.62372
# Shear Modulus (GPa) = 29.74560 30.99372 30.36966
#
# Velocity S-wave (km/s) = 3.89359 3.97444 3.93422
# Velocity P-wave (km/s) = 7.67949 7.77201 7.72589
#
# Compressibility (1/GPa) = 0.01314868
#
# Stress axis : x y z
#
# Youngs Moduli (GPa) = 63.51421 88.61711 78.71777
#
# Poissons Ratio (x) = 0.30775 0.52036
# Poissons Ratio (y) = 0.22058 0.25258
# Poissons Ratio (z) = 0.41985 0.28435
#
# Static dielectric constant tensor:
#      x y z
#    x 3.927900 0.000000 0.000000 
#    y 0.000000 3.694860 0.000000 
#    z 0.000000 0.000000 3.555520 
# 
# 
# High freq. dielectric constant tensor:
#      x y z
#    x 1.799170 0.000000 0.000000 
#    y 0.000000 1.759120 0.000000 
#    z 0.000000 0.000000 1.749870 
# 
# From -- ./inp_files/32460.got.cif
#   From: 2010.03.12/outbox.cif.g09.slc.cpg/sg74_17_cif.got.tgz:32460.got - 2010.04.16 15:46:19.
