data_PCOD8300657
_publ_section_title
;
Structure prediction by ZEFSAII (Michael W. Deem and Ramdas Pophale) SiO2 
 PCOD8300657
Probable space group: I M M A
;
_chemical_formula_sum "Si O2"
_cell_formula_units_Z 64
_cell_length_a 16.782070
_cell_length_b 24.907209
_cell_length_c 7.418320
_cell_angle_alpha 90.000000
_cell_angle_beta 90.000000
_cell_angle_gamma 90.000000
_cell_volume 3100.817144
_symmetry_space_group_name_H-M "I M M A"
_symmetry_group_IT_number 74
_symmetry_cell_setting 'orthorhombic'
loop_
_space_group_symop_operation_xyz
x,y,z
-x,1/2-y,z
x,-y,-z
-x,1/2+y,-z
-x,-y,-z
x,1/2+y,-z
-x,y,z
x,1/2-y,z
1/2+x,1/2+y,1/2+z
1/2-x,-y,1/2+z
1/2+x,1/2-y,1/2-z
1/2-x,y,1/2-z
1/2-x,1/2-y,1/2-z
1/2+x,y,1/2-z
1/2-x,1/2+y,1/2+z
1/2+x,-y,1/2+z
loop_
_atom_site_type_symbol
_atom_site_label
_atom_site_fract_x
_atom_site_fract_y
_atom_site_fract_z
Si Si1 0.656389 0.865459 0.216157
Si Si2 0.593152 0.559383 0.508995
Si Si3 0.405782 0.861539 0.816796
Si Si4 0.157614 0.750000 0.703836
Si Si5 0.342190 0.750000 0.214282
O O1 0.750000 0.871422 0.250000
O O2 0.609832 0.911272 0.320899
O O3 0.624060 0.806770 0.289217
O O4 0.640214 0.871480 0.003632
O O5 0.632438 0.500000 0.500000
O O6 0.500000 0.553588 0.535279
O O7 0.626126 0.592915 0.679260
O O8 0.500000 0.864371 0.850077
O O9 0.383076 0.804480 0.722745
O O10 0.250000 0.750000 0.750000
O O11 0.140160 0.750000 0.494627
O O12 0.250000 0.750000 0.250000
#
# Coordination Sequence:
#
# PCOD8300657 Si02
#       5
#    16  16  16   8   8
#     4  10  21  38  61  91 121 156 198 255 308 361
#     4  10  23  42  61  85 120 162 209 251 297 361
#     4  10  22  39  62  89 124 163 203 250 306 368
#     4  10  21  33  59  91 123 158 190 248 303 365
#     4   8  18  33  53  85 116 148 189 232 301 357
#
# _framework density 20.639721000000002
#
# number of rings (size 3 to 8) (size 9 to 14) (size 15 to 20)
#    0.000    2.250    0.000    1.125   10.500    1.000 
#    4.500    6.875    0.000    0.000    0.000    0.000 
#    0.000    0.000    0.000    0.000    0.000    0.000 
#
# Total GULP energy -396529.161993 kJ/mol
# GULP energy per Si atom -12391.536312 kJ/mol
# Density = 2.059274 g / cm^3
# Si number density = 20.639721 Si / 1000 Ang^3
#
#
#
# Elastic Constant Matrix: (Units=GPa)
#
#
# Indices 1 2 3 4 5 6 
#
# 1 51.2190 22.0461 21.1367 -0.0001 0.0000 0.0000
# 2 22.0461 213.5336 77.5713 0.0004 0.0000 0.0000
# 3 21.1367 77.5713 100.1104 -0.0006 0.0003 0.0000
# 4 -0.0001 0.0004 -0.0006 -681.1428 0.0000 0.0006
# 5 0.0000 0.0000 0.0003 0.0000 34.8928 0.0000
# 6 0.0000 0.0000 0.0000 0.0006 0.0000 19.6335
#
#
#
# Elastic Compliance Matrix: (Units=1/GPa)
#
#
# Indices 1 2 3 4 5 6 
#
# 1 0.021484 -0.000794 -0.003921 0.000000 0.000000 0.000000
# 2 -0.000794 0.006547 -0.004905 0.000000 0.000000 0.000000
# 3 -0.003921 -0.004905 0.014618 0.000000 0.000000 0.000000
# 4 0.000000 0.000000 0.000000 -0.001468 0.000000 0.000000
# 5 0.000000 0.000000 0.000000 0.000000 0.028659 0.000000
# 6 0.000000 0.000000 0.000000 0.000000 0.000000 0.050933
#
#
# Mechanical properties :
#
#
# Convention : Reuss Voigt Hill
#
# Bulk Modulus (GPa) = 42.71971 67.37461 55.04716
# Shear Modulus (GPa) = 33.82578 -109.04939 -37.61180
#
# Velocity S-wave (km/s) = 4.05269 -7.27664 -4.27347
# Velocity P-wave (km/s) = 6.53007 6.15509 1.54217
#
# Compressibility (1/GPa) = 0.02340840
#
# Stress axis : x y z
#
# Youngs Moduli (GPa) = 46.54694 152.73970 68.40945
#
# Poissons Ratio (x) = 0.12123 0.26823
# Poissons Ratio (y) = 0.03694 0.33558
# Poissons Ratio (z) = 0.18251 0.74926
#
# Static dielectric constant tensor:
#      x y z
#    x 3.461480 0.000000 0.000000 
#    y 0.000000 4.595100 0.000000 
#    z 0.000000 0.000000 3.654290 
# 
# 
# High freq. dielectric constant tensor:
#      x y z
#    x 1.785820 0.000000 0.000000 
#    y 0.000000 1.823370 0.000000 
#    z 0.000000 0.000000 1.805310 
# 
# From -- ./inp_files/8839.got.cif
#   From: 2010.03.12/outbox.cif.g09.slc.cpg/sg74_5_cif.got.tgz:8839.got - 2010.04.16 15:46:19.
