data_PCOD8300173
_publ_section_title
;
Structure prediction by ZEFSAII (Michael W. Deem and Ramdas Pophale) SiO2 
 PCOD8300173
Probable space group: I M M A
;
_chemical_formula_sum "Si O2"
_cell_formula_units_Z 112
_cell_length_a 19.272993
_cell_length_b 21.063983
_cell_length_c 13.590294
_cell_angle_alpha 90.000000
_cell_angle_beta 90.000000
_cell_angle_gamma 90.000000
_cell_volume 5517.197252
_symmetry_space_group_name_H-M "I M M A"
_symmetry_group_IT_number 74
_symmetry_cell_setting 'orthorhombic'
loop_
_space_group_symop_operation_xyz
x,y,z
-x,1/2-y,z
x,-y,-z
-x,1/2+y,-z
-x,-y,-z
x,1/2+y,-z
-x,y,z
x,1/2-y,z
1/2+x,1/2+y,1/2+z
1/2-x,-y,1/2+z
1/2+x,1/2-y,1/2-z
1/2-x,y,1/2-z
1/2-x,1/2-y,1/2-z
1/2+x,y,1/2-z
1/2-x,1/2+y,1/2+z
1/2+x,-y,1/2+z
loop_
_atom_site_type_symbol
_atom_site_label
_atom_site_fract_x
_atom_site_fract_y
_atom_site_fract_z
Si Si1 0.660193 0.674114 0.491417
Si Si2 0.419331 0.622936 0.853994
Si Si3 0.420816 0.871164 0.083744
Si Si4 0.720580 0.177420 0.849151
Si Si5 0.582305 0.553981 0.423393
Si Si6 0.180808 0.677851 0.790817
Si Si7 0.920055 0.489247 0.713849
O O1 0.641242 0.750000 0.478435
O O2 0.735272 0.656172 0.444738
O O3 0.604367 0.626921 0.442793
O O4 0.659372 0.649937 0.603944
O O5 0.500000 0.629104 0.830499
O O6 0.380407 0.675480 0.789467
O O7 0.386866 0.555817 0.819265
O O8 0.405555 0.632894 0.968622
O O9 0.500000 0.847429 0.107387
O O10 0.362281 0.830205 0.138258
O O11 0.410567 0.942479 0.121687
O O12 0.736550 0.250000 0.834226
O O13 0.750000 0.142651 0.750000
O O14 0.609713 0.500000 0.500000
O O15 0.500000 0.554525 0.424052
O O16 0.612958 0.536147 0.315399
O O17 0.200151 0.750000 0.813252
O O18 0.250000 0.643101 0.750000
O O19 0.000000 0.501898 0.734697
#
# Coordination Sequence:
#
# PCOD8300173 Si02
#       7
#    16  16  16  16  16  16  16
#     4  10  21  37  57  81 112 151 192 235 287 348
#     4  10  20  35  57  83 110 142 184 233 284 339
#     4  10  20  35  58  85 111 143 187 238 289 343
#     4  10  21  38  58  81 114 153 191 236 290 346
#     4  10  20  35  57  84 115 151 192 238 285 340
#     4  10  21  37  55  76 107 144 180 223 279 342
#     4   9  18  34  54  78 111 145 177 222 282 338
#
# _framework density 20.300163000000001
#
# number of rings (size 3 to 8) (size 9 to 14) (size 15 to 20)
#    0.000    2.143    0.000    3.000    0.000    6.000 
#    0.000    7.857    0.000    5.143    0.000    0.000 
#    0.000    0.000    0.000    0.000    0.000    0.000 
#
# Total GULP energy -693891.698541 kJ/mol
# GULP energy per Si atom -12390.923188 kJ/mol
# Density = 2.025396 g / cm^3
# Si number density = 20.300163 Si / 1000 Ang^3
#
#
#
# Elastic Constant Matrix: (Units=GPa)
#
#
# Indices 1 2 3 4 5 6 
#
# 1 81.3453 13.5489 56.3176 0.0000 0.0000 0.0000
# 2 13.5489 41.4093 14.2258 0.0000 0.0000 0.0000
# 3 56.3176 14.2258 131.5760 0.0000 0.0000 0.0000
# 4 0.0000 0.0000 0.0000 28.3487 0.0000 0.0000
# 5 0.0000 0.0000 0.0000 0.0000 31.0699 0.0000
# 6 0.0000 0.0000 0.0000 0.0000 0.0000 17.1184
#
#
#
# Elastic Compliance Matrix: (Units=1/GPa)
#
#
# Indices 1 2 3 4 5 6 
#
# 1 0.017907 -0.003350 -0.007302 0.000000 0.000000 0.000000
# 2 -0.003350 0.025708 -0.001345 0.000000 0.000000 0.000000
# 3 -0.007302 -0.001345 0.010871 0.000000 0.000000 0.000000
# 4 0.000000 0.000000 0.000000 0.035275 0.000000 0.000000
# 5 0.000000 0.000000 0.000000 0.000000 0.032185 0.000000
# 6 0.000000 0.000000 0.000000 0.000000 0.000000 0.058417
#
#
# Mechanical properties :
#
#
# Convention : Reuss Voigt Hill
#
# Bulk Modulus (GPa) = 32.79823 46.94611 39.87217
# Shear Modulus (GPa) = 23.30759 26.65662 24.98210
#
# Velocity S-wave (km/s) = 3.39211 3.62764 3.51185
# Velocity P-wave (km/s) = 5.61548 6.38142 6.01066
#
# Compressibility (1/GPa) = 0.03048945
#
# Stress axis : x y z
#
# Youngs Moduli (GPa) = 55.84434 38.89897 91.98609
#
# Poissons Ratio (x) = 0.13033 0.67171
# Poissons Ratio (y) = 0.18710 0.12376
# Poissons Ratio (z) = 0.40779 0.05234
#
# Static dielectric constant tensor:
#      x y z
#    x 3.503670 0.000000 0.000000 
#    y 0.000000 3.527050 0.000000 
#    z 0.000000 0.000000 4.058260 
# 
# 
# High freq. dielectric constant tensor:
#      x y z
#    x 1.774500 0.000000 0.000000 
#    y 0.000000 1.776060 0.000000 
#    z 0.000000 0.000000 1.812910 
# 
# From -- ./inp_files/24146.got.cif
#   From: 2010.03.12/outbox.cif.g09.slc.cpg/sg74_13_cif.got.tgz:24146.got - 2010.04.16 15:46:19.
