data_PCOD8300588
_publ_section_title
;
Structure prediction by ZEFSAII (Michael W. Deem and Ramdas Pophale) SiO2 
 PCOD8300588
Probable space group: I M M A
;
_chemical_formula_sum "Si O2"
_cell_formula_units_Z 64
_cell_length_a 14.739106
_cell_length_b 12.845668
_cell_length_c 15.689979
_cell_angle_alpha 90.000000
_cell_angle_beta 90.000000
_cell_angle_gamma 90.000000
_cell_volume 2970.641185
_symmetry_space_group_name_H-M "I M M A"
_symmetry_group_IT_number 74
_symmetry_cell_setting 'orthorhombic'
loop_
_space_group_symop_operation_xyz
x,y,z
-x,1/2-y,z
x,-y,-z
-x,1/2+y,-z
-x,-y,-z
x,1/2+y,-z
-x,y,z
x,1/2-y,z
1/2+x,1/2+y,1/2+z
1/2-x,-y,1/2+z
1/2+x,1/2-y,1/2-z
1/2-x,y,1/2-z
1/2-x,1/2-y,1/2-z
1/2+x,y,1/2-z
1/2-x,1/2+y,1/2+z
1/2+x,-y,1/2+z
loop_
_atom_site_type_symbol
_atom_site_label
_atom_site_fract_x
_atom_site_fract_y
_atom_site_fract_z
Si Si1 0.898020 0.429167 0.888067
Si Si2 0.396198 0.750000 0.519686
Si Si3 0.602345 0.366499 0.802229
Si Si4 0.259334 0.250000 0.149030
Si Si5 0.783917 0.529332 0.594398
O O1 0.890977 0.368690 0.799516
O O2 0.825390 0.522455 0.893691
O O3 0.000000 0.474945 0.900340
O O4 0.872014 0.350559 0.963397
O O5 0.500000 0.750000 0.547384
O O6 0.339085 0.750000 0.605852
O O7 0.500000 0.392815 0.831807
O O8 0.629404 0.250000 0.832017
O O9 0.670510 0.449252 0.841063
O O10 0.250000 0.250000 0.250000
O O11 0.313762 0.146914 0.118255
O O12 0.816698 0.500000 0.500000
#
# Coordination Sequence:
#
# PCOD8300588 Si02
#       5
#    16   8  16   8  16
#     4  10  20  39  67 105 135 158 207 276 344 400
#     4  10  20  38  68 102 133 165 206 270 340 401
#     4  10  22  41  69 100 128 163 218 285 342 391
#     4  12  26  46  59  93 142 182 223 265 321 415
#     4  12  26  41  67  93 134 184 227 269 328 392
#
# _framework density 21.544170000000001
#
# number of rings (size 3 to 8) (size 9 to 14) (size 15 to 20)
#    0.000    1.250    3.750    2.250    3.500    3.000 
#    0.000    1.875    0.000    0.000    0.000    0.000 
#    0.000    0.000    0.000    0.000    0.000    0.000 
#
# Total GULP energy -396850.756550 kJ/mol
# GULP energy per Si atom -12401.586142 kJ/mol
# Density = 2.149513 g / cm^3
# Si number density = 21.544170 Si / 1000 Ang^3
#
#
#
# Elastic Constant Matrix: (Units=GPa)
#
#
# Indices 1 2 3 4 5 6 
#
# 1 82.0563 46.2697 41.6806 0.0000 0.0000 0.0000
# 2 46.2697 156.7221 56.3093 0.0000 0.0000 0.0000
# 3 41.6806 56.3093 142.1287 0.0000 0.0000 0.0000
# 4 0.0000 0.0000 0.0000 30.2611 0.0000 0.0000
# 5 0.0000 0.0000 0.0000 0.0000 34.4661 0.0000
# 6 0.0000 0.0000 0.0000 0.0000 0.0000 9.4626
#
#
#
# Elastic Compliance Matrix: (Units=1/GPa)
#
#
# Indices 1 2 3 4 5 6 
#
# 1 0.015811 -0.003500 -0.003250 0.000000 0.000000 0.000000
# 2 -0.003500 0.008215 -0.002228 0.000000 0.000000 0.000000
# 3 -0.003250 -0.002228 0.008872 0.000000 0.000000 0.000000
# 4 0.000000 0.000000 0.000000 0.033046 0.000000 0.000000
# 5 0.000000 0.000000 0.000000 0.000000 0.029014 0.000000
# 6 0.000000 0.000000 0.000000 0.000000 0.000000 0.105679
#
#
# Mechanical properties :
#
#
# Convention : Reuss Voigt Hill
#
# Bulk Modulus (GPa) = 66.93032 74.38070 70.65551
# Shear Modulus (GPa) = 22.36396 30.61445 26.48921
#
# Velocity S-wave (km/s) = 3.22538 3.77372 3.51027
# Velocity P-wave (km/s) = 6.70856 7.32036 7.02112
#
# Compressibility (1/GPa) = 0.01494091
#
# Stress axis : x y z
#
# Youngs Moduli (GPa) = 63.24558 121.73364 112.71806
#
# Poissons Ratio (x) = 0.42611 0.36634
# Poissons Ratio (y) = 0.22138 0.25114
# Poissons Ratio (z) = 0.20555 0.27122
#
# Static dielectric constant tensor:
#      x y z
#    x 3.829240 0.000000 0.000000 
#    y 0.000000 3.989200 0.000000 
#    z 0.000000 0.000000 3.920640 
# 
# 
# High freq. dielectric constant tensor:
#      x y z
#    x 1.827740 0.000000 0.000000 
#    y 0.000000 1.854130 0.000000 
#    z 0.000000 0.000000 1.852670 
# 
# From -- ./inp_files/30253.got.cif
#   From: 2010.03.12/outbox.cif.g09.slc.cpg/sg74_16_cif.got.tgz:30253.got - 2010.04.16 15:46:19.
