data_PCOD8300556
_publ_section_title
;
Structure prediction by ZEFSAII (Michael W. Deem and Ramdas Pophale) SiO2 
 PCOD8300556
Probable space group: I M M A
;
_chemical_formula_sum "Si O2"
_cell_formula_units_Z 76
_cell_length_a 15.427567
_cell_length_b 15.372042
_cell_length_c 17.536719
_cell_angle_alpha 90.000000
_cell_angle_beta 90.000000
_cell_angle_gamma 90.000000
_cell_volume 4158.889167
_symmetry_space_group_name_H-M "I M M A"
_symmetry_group_IT_number 74
_symmetry_cell_setting 'orthorhombic'
loop_
_space_group_symop_operation_xyz
x,y,z
-x,1/2-y,z
x,-y,-z
-x,1/2+y,-z
-x,-y,-z
x,1/2+y,-z
-x,y,z
x,1/2-y,z
1/2+x,1/2+y,1/2+z
1/2-x,-y,1/2+z
1/2+x,1/2-y,1/2-z
1/2-x,y,1/2-z
1/2-x,1/2-y,1/2-z
1/2+x,y,1/2-z
1/2-x,1/2+y,1/2+z
1/2+x,-y,1/2+z
loop_
_atom_site_type_symbol
_atom_site_label
_atom_site_fract_x
_atom_site_fract_y
_atom_site_fract_z
Si Si1 0.500000 0.250000 0.974773
Si Si2 0.500000 0.844805 0.169285
Si Si3 0.764846 0.560485 0.573079
Si Si4 0.840048 0.041325 0.714420
Si Si5 0.840645 0.750000 0.582692
Si Si6 0.903291 0.579038 0.842796
Si Si7 0.647572 0.250000 0.254716
O O1 0.500000 0.163480 0.922543
O O2 0.416974 0.250000 0.024908
O O3 0.500000 0.750000 0.209289
O O4 0.592269 0.886349 0.189118
O O5 0.786023 0.500000 0.500000
O O6 0.817822 0.523565 0.645124
O O7 0.786615 0.662564 0.564123
O O8 0.661948 0.558653 0.588173
O O9 0.750000 0.079807 0.750000
O O10 0.893545 0.992466 0.778389
O O11 0.883213 0.750000 0.667090
O O12 0.885873 0.669440 0.801878
O O13 0.000000 0.576811 0.876897
O O14 0.750000 0.250000 0.250000
#
# Coordination Sequence:
#
# PCOD8300556 Si02
#       7
#     4   8  16  16   8  16   8
#     4  10  26  36  54  90 122 158 196 242 308 380
#     4  10  22  41  58  84 128 160 215 255 292 374
#     4  11  23  38  62  87 124 170 200 249 318 373
#     4  10  20  38  62  89 117 160 209 260 312 357
#     4  12  22  39  60  89 130 155 200 251 306 387
#     4  11  21  36  61  90 123 156 207 258 305 367
#     4  12  19  36  59  92 121 156 200 254 311 371
#
# _framework density 18.274111000000001
#
# number of rings (size 3 to 8) (size 9 to 14) (size 15 to 20)
#    0.316    0.842    5.263    2.211    1.474    1.684 
#    0.000    2.105    2.316    0.000    0.000    0.000 
#    0.000    0.000    0.000    0.000    0.000    0.000 
#
# Total GULP energy -470880.653235 kJ/mol
# GULP energy per Si atom -12391.596138 kJ/mol
# Density = 1.823252 g / cm^3
# Si number density = 18.274111 Si / 1000 Ang^3
#
#
#
# Elastic Constant Matrix: (Units=GPa)
#
#
# Indices 1 2 3 4 5 6 
#
# 1 144.1231 53.2584 28.4729 0.0000 0.0000 0.0000
# 2 53.2584 111.7904 31.2850 0.0000 0.0000 0.0000
# 3 28.4729 31.2850 76.5348 0.0000 0.0000 0.0000
# 4 0.0000 0.0000 0.0000 24.3191 0.0000 0.0000
# 5 0.0000 0.0000 0.0000 0.0000 24.3166 0.0000
# 6 0.0000 0.0000 0.0000 0.0000 0.0000 31.1246
#
#
#
# Elastic Compliance Matrix: (Units=1/GPa)
#
#
# Indices 1 2 3 4 5 6 
#
# 1 0.008618 -0.003623 -0.001725 0.000000 0.000000 0.000000
# 2 -0.003623 0.011624 -0.003404 0.000000 0.000000 0.000000
# 3 -0.001725 -0.003404 0.015099 0.000000 0.000000 0.000000
# 4 0.000000 0.000000 0.000000 0.041120 0.000000 0.000000
# 5 0.000000 0.000000 0.000000 0.000000 0.041124 0.000000
# 6 0.000000 0.000000 0.000000 0.000000 0.000000 0.032129
#
#
# Mechanical properties :
#
#
# Convention : Reuss Voigt Hill
#
# Bulk Modulus (GPa) = 56.06186 62.05345 59.05766
# Shear Modulus (GPa) = 28.87444 30.58088 29.72766
#
# Velocity S-wave (km/s) = 3.97933 4.09522 4.03769
# Velocity P-wave (km/s) = 7.20127 7.50945 7.35698
#
# Compressibility (1/GPa) = 0.01783744
#
# Stress axis : x y z
#
# Youngs Moduli (GPa) = 116.03399 86.02991 66.22927
#
# Poissons Ratio (x) = 0.31169 0.11426
# Poissons Ratio (y) = 0.42039 0.22542
# Poissons Ratio (z) = 0.20018 0.29281
#
# Static dielectric constant tensor:
#      x y z
#    x 3.347670 0.000000 0.000000 
#    y 0.000000 3.297880 0.000000 
#    z 0.000000 0.000000 3.169890 
# 
# 
# High freq. dielectric constant tensor:
#      x y z
#    x 1.721240 0.000000 0.000000 
#    y 0.000000 1.707750 0.000000 
#    z 0.000000 0.000000 1.698670 
# 
# From -- ./inp_files/51692.got.cif
#   From: 2010.03.12/outbox.cif.g09.slc.cpg/sg74_26_cif.got.tgz:51692.got - 2010.04.16 15:46:19.
