data_PCOD8300006
_publ_section_title
;
Structure prediction by ZEFSAII (Michael W. Deem and Ramdas Pophale) SiO2 
 PCOD8300006
Probable space group: I M M A
;
_chemical_formula_sum "Si O2"
_cell_formula_units_Z 84
_cell_length_a 15.398783
_cell_length_b 20.134396
_cell_length_c 13.581175
_cell_angle_alpha 90.000000
_cell_angle_beta 90.000000
_cell_angle_gamma 90.000000
_cell_volume 4210.778049
_symmetry_space_group_name_H-M "I M M A"
_symmetry_group_IT_number 74
_symmetry_cell_setting 'orthorhombic'
loop_
_space_group_symop_operation_xyz
x,y,z
-x,1/2-y,z
x,-y,-z
-x,1/2+y,-z
-x,-y,-z
x,1/2+y,-z
-x,y,z
x,1/2-y,z
1/2+x,1/2+y,1/2+z
1/2-x,-y,1/2+z
1/2+x,1/2-y,1/2-z
1/2-x,y,1/2-z
1/2-x,1/2-y,1/2-z
1/2+x,y,1/2-z
1/2-x,1/2+y,1/2+z
1/2+x,-y,1/2+z
loop_
_atom_site_type_symbol
_atom_site_label
_atom_site_fract_x
_atom_site_fract_y
_atom_site_fract_z
Si Si1 0.652508 0.878856 0.091013
Si Si2 0.350071 0.750000 0.220882
Si Si3 0.000000 0.369284 0.037391
Si Si4 0.000000 0.917014 0.758890
Si Si5 0.500000 0.750000 0.384194
Si Si6 0.154188 0.984893 0.245040
Si Si7 0.828234 0.570231 0.042471
Si Si8 0.500000 0.078014 0.032177
O O1 0.631965 0.814674 0.156063
O O2 0.637086 0.945348 0.154860
O O3 0.747896 0.877517 0.039703
O O4 0.584011 0.883441 0.004661
O O5 0.250000 0.750000 0.250000
O O6 0.413629 0.750000 0.316445
O O7 0.000000 0.357708 0.157650
O O8 0.000000 0.309140 0.962326
O O9 0.912142 0.409955 0.019278
O O10 0.000000 0.899347 0.645352
O O11 0.913962 0.958883 0.777819
O O12 0.250000 0.017628 0.250000
O O13 0.147142 0.931890 0.157230
O O14 0.794464 0.500000 0.000000
O O15 0.500000 0.000000 0.000000
#
# Coordination Sequence:
#
# PCOD8300006 Si02
#       8
#    16   8   8   8   4  16  16   8
#     4  11  23  39  63  92 127 164 209 257 321 379
#     4  12  24  46  67  97 129 167 210 264 315 392
#     4  12  24  40  59  91 123 169 212 260 312 374
#     4  12  23  37  57  86 122 157 206 256 309 364
#     4  12  26  44  70  90 130 172 218 258 318 386
#     4  10  20  34  56  90 122 153 195 254 313 372
#     4  11  21  36  61  93 127 159 204 263 323 384
#     4  12  23  39  61  90 125 166 212 262 318 371
#
# _framework density 19.948809000000001
#
# number of rings (size 3 to 8) (size 9 to 14) (size 15 to 20)
#    0.000    0.762    3.810    6.000    2.667    0.000 
#    0.000    0.952    0.000    0.000    0.000    4.667 
#    0.000    0.000    0.000    0.000    0.000    0.000 
#
# Total GULP energy -520436.188554 kJ/mol
# GULP energy per Si atom -12391.337823 kJ/mol
# Density = 1.990340 g / cm^3
# Si number density = 19.948809 Si / 1000 Ang^3
#
#
#
# Elastic Constant Matrix: (Units=GPa)
#
#
# Indices 1 2 3 4 5 6 
#
# 1 141.6841 39.8778 79.4311 0.0000 0.0000 0.0000
# 2 39.8778 77.8387 41.4495 0.0000 0.0000 0.0000
# 3 79.4311 41.4495 154.1935 0.0000 0.0000 0.0000
# 4 0.0000 0.0000 0.0000 37.3116 0.0000 0.0000
# 5 0.0000 0.0000 0.0000 0.0000 14.8910 0.0000
# 6 0.0000 0.0000 0.0000 0.0000 0.0000 20.0136
#
#
#
# Elastic Compliance Matrix: (Units=1/GPa)
#
#
# Indices 1 2 3 4 5 6 
#
# 1 0.010458 -0.002905 -0.004606 0.000000 0.000000 0.000000
# 2 -0.002905 0.015800 -0.002751 0.000000 0.000000 0.000000
# 3 -0.004606 -0.002751 0.009598 0.000000 0.000000 0.000000
# 4 0.000000 0.000000 0.000000 0.026801 0.000000 0.000000
# 5 0.000000 0.000000 0.000000 0.000000 0.067155 0.000000
# 6 0.000000 0.000000 0.000000 0.000000 0.000000 0.049966
#
#
# Mechanical properties :
#
#
# Convention : Reuss Voigt Hill
#
# Bulk Modulus (GPa) = 65.22500 77.24813 71.23656
# Shear Modulus (GPa) = 24.34121 28.64041 26.49081
#
# Velocity S-wave (km/s) = 3.49690 3.79317 3.64804
# Velocity P-wave (km/s) = 7.00511 7.61521 7.31652
#
# Compressibility (1/GPa) = 0.01533155
#
# Stress axis : x y z
#
# Youngs Moduli (GPa) = 95.62035 63.29055 104.19023
#
# Poissons Ratio (x) = 0.18385 0.47995
# Poissons Ratio (y) = 0.27776 0.28662
# Poissons Ratio (z) = 0.44047 0.17411
#
# Static dielectric constant tensor:
#      x y z
#    x 4.041730 0.000000 0.000000 
#    y 0.000000 3.479790 0.000000 
#    z 0.000000 0.000000 3.905960 
# 
# 
# High freq. dielectric constant tensor:
#      x y z
#    x 1.803110 0.000000 0.000000 
#    y 0.000000 1.731020 0.000000 
#    z 0.000000 0.000000 1.792860 
# 
# From -- ./inp_files/32289.got.cif
#   From: 2010.03.12/outbox.cif.g09.slc.cpg/sg74_17_cif.got.tgz:32289.got - 2010.04.16 15:46:19.
