data_PCOD8300921
_publ_section_title
;
Structure prediction by ZEFSAII (Michael W. Deem and Ramdas Pophale) SiO2 
 PCOD8300921
Probable space group: I M M A
;
_chemical_formula_sum "Si O2"
_cell_formula_units_Z 68
_cell_length_a 20.727995
_cell_length_b 14.748132
_cell_length_c 11.458035
_cell_angle_alpha 90.000000
_cell_angle_beta 90.000000
_cell_angle_gamma 90.000000
_cell_volume 3502.712206
_symmetry_space_group_name_H-M "I M M A"
_symmetry_group_IT_number 74
_symmetry_cell_setting 'orthorhombic'
loop_
_space_group_symop_operation_xyz
x,y,z
-x,1/2-y,z
x,-y,-z
-x,1/2+y,-z
-x,-y,-z
x,1/2+y,-z
-x,y,z
x,1/2-y,z
1/2+x,1/2+y,1/2+z
1/2-x,-y,1/2+z
1/2+x,1/2-y,1/2-z
1/2-x,y,1/2-z
1/2-x,1/2-y,1/2-z
1/2+x,y,1/2-z
1/2-x,1/2+y,1/2+z
1/2+x,-y,1/2+z
loop_
_atom_site_type_symbol
_atom_site_label
_atom_site_fract_x
_atom_site_fract_y
_atom_site_fract_z
Si Si1 0.316664 0.500000 0.000000
Si Si2 0.500000 0.750000 0.464157
Si Si3 0.676726 0.250000 0.711344
Si Si4 0.000000 0.551224 0.125935
Si Si5 0.630744 0.054492 0.756460
Si Si6 0.285249 0.090810 0.359791
Si Si7 0.361938 0.250000 0.452119
O O1 0.362706 0.524528 0.108509
O O2 0.267613 0.419066 0.037190
O O3 0.500000 0.840069 0.386155
O O4 0.438511 0.750000 0.546981
O O5 0.750000 0.250000 0.750000
O O6 0.639046 0.162275 0.757163
O O7 0.674515 0.250000 0.573415
O O8 0.062335 0.524200 0.202214
O O9 0.000000 0.500000 0.000000
O O10 0.685890 0.007617 0.676730
O O11 0.250000 0.135793 0.250000
O O12 0.343138 0.157377 0.389484
#
# Coordination Sequence:
#
# PCOD8300921 Si02
#       7
#     8   4   8   8  16  16   8
#     4  10  22  39  60  87 122 156 206 254 304 374
#     4  12  24  38  54  92 120 154 210 250 286 370
#     4  12  22  35  61  91 118 157 199 251 311 358
#     4  12  24  41  63  87 126 167 206 258 302 359
#     4  11  23  40  61  90 124 163 207 250 306 363
#     4  10  21  37  58  88 121 157 201 256 308 365
#     4  12  21  36  59  84 125 159 199 251 305 357
#
# _framework density 19.413526999999998
#
# number of rings (size 3 to 8) (size 9 to 14) (size 15 to 20)
#    0.000    0.941    2.353    6.706    1.647    0.471 
#    0.000    1.176    0.000    0.000    0.000    0.000 
#    0.000    0.000    0.000    0.000    0.000    0.000 
#
# Total GULP energy -421495.833791 kJ/mol
# GULP energy per Si atom -12396.936288 kJ/mol
# Density = 1.936934 g / cm^3
# Si number density = 19.413527 Si / 1000 Ang^3
#
#
#
# Elastic Constant Matrix: (Units=GPa)
#
#
# Indices 1 2 3 4 5 6 
#
# 1 150.1359 30.8766 74.8547 0.0000 0.0000 0.0000
# 2 30.8766 101.5564 45.0582 0.0000 0.0000 0.0000
# 3 74.8547 45.0582 128.1499 0.0000 0.0000 0.0000
# 4 0.0000 0.0000 0.0000 112.4982 0.0000 0.0000
# 5 0.0000 0.0000 0.0000 0.0000 45.1731 0.0000
# 6 0.0000 0.0000 0.0000 0.0000 0.0000 30.3158
#
#
#
# Elastic Compliance Matrix: (Units=1/GPa)
#
#
# Indices 1 2 3 4 5 6 
#
# 1 0.009419 -0.000501 -0.005326 0.000000 0.000000 0.000000
# 2 -0.000501 0.011693 -0.003819 0.000000 0.000000 0.000000
# 3 -0.005326 -0.003819 0.012257 0.000000 0.000000 0.000000
# 4 0.000000 0.000000 0.000000 0.008889 0.000000 0.000000
# 5 0.000000 0.000000 0.000000 0.000000 0.022137 0.000000
# 6 0.000000 0.000000 0.000000 0.000000 0.000000 0.032986
#
#
# Mechanical properties :
#
#
# Convention : Reuss Voigt Hill
#
# Bulk Modulus (GPa) = 71.03066 75.71346 73.37206
# Shear Modulus (GPa) = 41.19801 52.86758 47.03279
#
# Velocity S-wave (km/s) = 4.61165 5.22412 4.92741
# Velocity P-wave (km/s) = 8.06375 8.68756 8.38146
#
# Compressibility (1/GPa) = 0.01407843
#
# Stress axis : x y z
#
# Youngs Moduli (GPa) = 106.16955 85.51848 81.58635
#
# Poissons Ratio (x) = 0.04283 0.43450
# Poissons Ratio (y) = 0.05317 0.31157
# Poissons Ratio (z) = 0.56542 0.32659
#
# Static dielectric constant tensor:
#      x y z
#    x 3.928700 0.000000 0.000000 
#    y 0.000000 4.051790 0.000000 
#    z 0.000000 0.000000 3.658630 
# 
# 
# High freq. dielectric constant tensor:
#      x y z
#    x 1.758060 0.000000 0.000000 
#    y 0.000000 1.757310 0.000000 
#    z 0.000000 0.000000 1.756510 
# 
# From -- ./inp_files/20290.got.cif
#   From: 2010.03.12/outbox.cif.g09.slc.cpg/sg74_11_cif.got.tgz:20290.got - 2010.04.16 15:46:19.
