data_PCOD8300724
_publ_section_title
;
Structure prediction by ZEFSAII (Michael W. Deem and Ramdas Pophale) SiO2 
 PCOD8300724
Probable space group: I M M A
;
_chemical_formula_sum "Si O2"
_cell_formula_units_Z 128
_cell_length_a 17.462596
_cell_length_b 21.443647
_cell_length_c 18.907476
_cell_angle_alpha 90.000000
_cell_angle_beta 90.000000
_cell_angle_gamma 90.000000
_cell_volume 7080.126444
_symmetry_space_group_name_H-M "I M M A"
_symmetry_group_IT_number 74
_symmetry_cell_setting 'orthorhombic'
loop_
_space_group_symop_operation_xyz
x,y,z
-x,1/2-y,z
x,-y,-z
-x,1/2+y,-z
-x,-y,-z
x,1/2+y,-z
-x,y,z
x,1/2-y,z
1/2+x,1/2+y,1/2+z
1/2-x,-y,1/2+z
1/2+x,1/2-y,1/2-z
1/2-x,y,1/2-z
1/2-x,1/2-y,1/2-z
1/2+x,y,1/2-z
1/2-x,1/2+y,1/2+z
1/2+x,-y,1/2+z
loop_
_atom_site_type_symbol
_atom_site_label
_atom_site_fract_x
_atom_site_fract_y
_atom_site_fract_z
Si Si1 0.910675 0.179133 0.970636
Si Si2 0.834361 0.886323 0.394636
Si Si3 0.089773 0.487957 0.340491
Si Si4 0.587592 0.994472 0.679220
Si Si5 0.337046 0.621918 0.343192
Si Si6 0.650193 0.940456 0.548478
Si Si7 0.914632 0.321648 0.716618
Si Si8 0.326610 0.062231 0.039442
O O1 0.885437 0.250000 0.991260
O O2 0.891987 0.167167 0.888512
O O3 0.000000 0.170600 0.984277
O O4 0.865519 0.126374 0.013602
O O5 0.749062 0.870913 0.369035
O O6 0.890494 0.832691 0.364952
O O7 0.837660 0.883554 0.480464
O O8 0.861667 0.951572 0.361569
O O9 0.107582 0.471779 0.258569
O O10 0.119616 0.430854 0.390701
O O11 0.000000 0.499243 0.353152
O O12 0.500000 0.016294 0.676122
O O13 0.640608 0.049918 0.650455
O O14 0.604100 0.939816 0.622727
O O15 0.351140 0.641991 0.262357
O O16 0.739774 0.943757 0.565104
O O17 0.625132 0.000000 0.500000
O O18 0.912992 0.250000 0.735677
O O19 0.000000 0.349086 0.729484
O O20 0.353472 0.000000 0.000000
#
# Coordination Sequence:
#
# PCOD8300724 Si02
#       8
#    16  16  16  16  16  16  16  16
#     4  11  23  37  55  81 114 154 193 229 277 337
#     4  11  21  35  54  77 107 146 191 233 279 334
#     4  10  21  35  54  82 113 144 182 235 293 343
#     4  11  21  32  54  84 113 146 186 227 280 341
#     4  12  21  35  55  79 114 152 189 230 275 333
#     4  11  20  36  56  82 115 150 188 235 281 338
#     4  11  24  38  52  75 110 153 200 240 275 326
#     4   9  19  35  53  78 107 140 185 231 283 335
#
# _framework density 18.078773000000002
#
# number of rings (size 3 to 8) (size 9 to 14) (size 15 to 20)
#    0.000    1.250    3.750    4.125    0.000    7.250 
#    0.000    0.000    0.000    0.000    0.000    2.625 
#    0.000    4.000    0.000    0.000    0.000    0.000 
#
# Total GULP energy -793322.947875 kJ/mol
# GULP energy per Si atom -12395.671061 kJ/mol
# Density = 1.803762 g / cm^3
# Si number density = 18.078773 Si / 1000 Ang^3
#
#
#
# Elastic Constant Matrix: (Units=GPa)
#
#
# Indices 1 2 3 4 5 6 
#
# 1 68.7693 22.7176 44.9623 0.0000 0.0000 0.0000
# 2 22.7176 65.2437 34.8346 0.0001 0.0000 0.0000
# 3 44.9623 34.8346 113.7870 0.0001 0.0000 0.0000
# 4 0.0000 0.0001 0.0001 18.2849 0.0000 0.0000
# 5 0.0000 0.0000 0.0000 0.0000 30.4583 0.0000
# 6 0.0000 0.0000 0.0000 0.0000 0.0000 16.8355
#
#
#
# Elastic Compliance Matrix: (Units=1/GPa)
#
#
# Indices 1 2 3 4 5 6 
#
# 1 0.020188 -0.003312 -0.006963 0.000000 0.000000 0.000000
# 2 -0.003312 0.018865 -0.004467 0.000000 0.000000 0.000000
# 3 -0.006963 -0.004467 0.012907 0.000000 0.000000 0.000000
# 4 0.000000 0.000000 0.000000 0.054690 0.000000 0.000000
# 5 0.000000 0.000000 0.000000 0.000000 0.032832 0.000000
# 6 0.000000 0.000000 0.000000 0.000000 0.000000 0.059398
#
#
# Mechanical properties :
#
#
# Convention : Reuss Voigt Hill
#
# Bulk Modulus (GPa) = 44.48986 50.31434 47.40210
# Shear Modulus (GPa) = 21.19933 22.80143 22.00038
#
# Velocity S-wave (km/s) = 3.42805 3.55523 3.49222
# Velocity P-wave (km/s) = 6.35067 6.68909 6.52208
#
# Compressibility (1/GPa) = 0.02247703
#
# Stress axis : x y z
#
# Youngs Moduli (GPa) = 49.53410 53.00793 77.47506
#
# Poissons Ratio (x) = 0.17554 0.53949
# Poissons Ratio (y) = 0.16403 0.34606
# Poissons Ratio (z) = 0.34493 0.23678
#
# Static dielectric constant tensor:
#      x y z
#    x 3.412450 0.000000 0.000000 
#    y 0.000000 3.140500 0.000000 
#    z 0.000000 0.000000 3.721750 
# 
# 
# High freq. dielectric constant tensor:
#      x y z
#    x 1.711830 0.000000 0.000000 
#    y 0.000000 1.654810 0.000000 
#    z 0.000000 0.000000 1.703640 
# 
# From -- ./inp_files/53441.got.cif
#   From: 2010.03.12/outbox.cif.g09.slc.cpg/sg74_27_cif.got.tgz:53441.got - 2010.04.16 15:46:19.
