data_PCOD8300819
_publ_section_title
;
Structure prediction by ZEFSAII (Michael W. Deem and Ramdas Pophale) SiO2 
 PCOD8300819
Probable space group: I M M A
;
_chemical_formula_sum "Si O2"
_cell_formula_units_Z 96
_cell_length_a 13.430992
_cell_length_b 20.586093
_cell_length_c 16.037517
_cell_angle_alpha 90.000000
_cell_angle_beta 90.000000
_cell_angle_gamma 90.000000
_cell_volume 4434.239544
_symmetry_space_group_name_H-M "I M M A"
_symmetry_group_IT_number 74
_symmetry_cell_setting 'orthorhombic'
loop_
_space_group_symop_operation_xyz
x,y,z
-x,1/2-y,z
x,-y,-z
-x,1/2+y,-z
-x,-y,-z
x,1/2+y,-z
-x,y,z
x,1/2-y,z
1/2+x,1/2+y,1/2+z
1/2-x,-y,1/2+z
1/2+x,1/2-y,1/2-z
1/2-x,y,1/2-z
1/2-x,1/2-y,1/2-z
1/2+x,y,1/2-z
1/2-x,1/2+y,1/2+z
1/2+x,-y,1/2+z
loop_
_atom_site_type_symbol
_atom_site_label
_atom_site_fract_x
_atom_site_fract_y
_atom_site_fract_z
Si Si1 0.889101 0.052026 0.641754
Si Si2 0.303533 0.320891 0.573088
Si Si3 0.614176 0.177275 0.749582
Si Si4 0.777548 0.077333 0.339720
Si Si5 0.887351 0.132070 0.489534
Si Si6 0.113157 0.931871 0.966515
O O1 0.863083 0.121597 0.682889
O O2 0.882182 0.064349 0.541841
O O3 0.000000 0.028968 0.666728
O O4 0.812245 0.997272 0.670942
O O5 0.349225 0.250000 0.552654
O O6 0.307563 0.331363 0.673249
O O7 0.192349 0.320730 0.533574
O O8 0.372873 0.376444 0.535141
O O9 0.500000 0.170302 0.717222
O O10 0.628819 0.250000 0.788950
O O11 0.750000 0.107711 0.250000
O O12 0.859910 0.117336 0.392804
O O13 0.672728 0.084663 0.384397
O O14 0.000000 0.161228 0.493171
O O15 0.000000 0.938184 0.939355
O O16 0.154586 0.000000 0.000000
#
# Coordination Sequence:
#
# PCOD8300819 Si02
#       6
#    16  16  16  16  16  16
#     4  10  21  36  58  84 119 168 211 247 296 360
#     4  10  21  38  63  93 127 167 205 248 307 370
#     4   9  19  35  57  91 131 166 204 248 295 361
#     4  11  23  37  60  85 115 153 202 262 314 367
#     4  10  22  40  59  84 121 161 205 254 306 365
#     4  10  22  39  60  88 122 158 203 255 308 368
#
# _framework density 21.649709999999999
#
# number of rings (size 3 to 8) (size 9 to 14) (size 15 to 20)
#    0.000    2.000    0.000    3.500    4.667    4.667 
#    0.000    3.333    0.000    8.000    0.000    9.333 
#    0.000    0.000    0.000    0.000    0.000    0.000 
#
# Total GULP energy -594888.458295 kJ/mol
# GULP energy per Si atom -12393.509548 kJ/mol
# Density = 2.160043 g / cm^3
# Si number density = 21.649710 Si / 1000 Ang^3
#
#
#
# Elastic Constant Matrix: (Units=GPa)
#
#
# Indices 1 2 3 4 5 6 
#
# 1 69.2642 -1.2968 5.8987 0.0002 0.0000 0.0001
# 2 -1.2968 83.6594 22.2732 -0.0001 0.0000 0.0000
# 3 5.8987 22.2732 113.7185 -0.0004 0.0000 0.0000
# 4 0.0002 -0.0001 -0.0004 25.1756 0.0000 0.0000
# 5 0.0000 0.0000 0.0000 0.0000 28.0816 0.0000
# 6 0.0001 0.0000 0.0000 0.0000 0.0000 10.0042
#
#
#
# Elastic Compliance Matrix: (Units=1/GPa)
#
#
# Indices 1 2 3 4 5 6 
#
# 1 0.014517 0.000449 -0.000841 0.000000 0.000000 0.000000
# 2 0.000449 0.012625 -0.002496 0.000000 0.000000 0.000000
# 3 -0.000841 -0.002496 0.009326 0.000000 0.000000 0.000000
# 4 0.000000 0.000000 0.000000 0.039721 0.000000 0.000000
# 5 0.000000 0.000000 0.000000 0.000000 0.035611 0.000000
# 6 0.000000 0.000000 0.000000 0.000000 0.000000 0.099958
#
#
# Mechanical properties :
#
#
# Convention : Reuss Voigt Hill
#
# Bulk Modulus (GPa) = 32.58148 35.59915 34.09032
# Shear Modulus (GPa) = 21.95249 28.63674 25.29462
#
# Velocity S-wave (km/s) = 3.18777 3.64088 3.42183
# Velocity P-wave (km/s) = 5.35081 5.84411 5.60289
#
# Compressibility (1/GPa) = 0.03069228
#
# Stress axis : x y z
#
# Youngs Moduli (GPa) = 68.88242 79.20973 107.22547
#
# Poissons Ratio (x) = -0.03556 0.09017
# Poissons Ratio (y) = -0.03092 0.26763
# Poissons Ratio (z) = 0.05793 0.19771
#
# Static dielectric constant tensor:
#      x y z
#    x 4.069390 0.000000 0.000000 
#    y 0.000000 3.745490 0.000000 
#    z 0.000000 0.000000 3.804320 
# 
# 
# High freq. dielectric constant tensor:
#      x y z
#    x 1.871510 0.000000 0.000000 
#    y 0.000000 1.825420 0.000000 
#    z 0.000000 0.000000 1.834620 
# 
# From -- ./inp_files/32410.got.cif
#   From: 2010.03.12/outbox.cif.g09.slc.cpg/sg74_17_cif.got.tgz:32410.got - 2010.04.16 15:46:19.
