data_PCOD8300610
_publ_section_title
;
Structure prediction by ZEFSAII (Michael W. Deem and Ramdas Pophale) SiO2 
 PCOD8300610
Probable space group: I M M A
;
_chemical_formula_sum "Si O2"
_cell_formula_units_Z 112
_cell_length_a 13.649023
_cell_length_b 30.654545
_cell_length_c 11.813813
_cell_angle_alpha 90.000000
_cell_angle_beta 90.000000
_cell_angle_gamma 90.000000
_cell_volume 4942.953582
_symmetry_space_group_name_H-M "I M M A"
_symmetry_group_IT_number 74
_symmetry_cell_setting 'orthorhombic'
loop_
_space_group_symop_operation_xyz
x,y,z
-x,1/2-y,z
x,-y,-z
-x,1/2+y,-z
-x,-y,-z
x,1/2+y,-z
-x,y,z
x,1/2-y,z
1/2+x,1/2+y,1/2+z
1/2-x,-y,1/2+z
1/2+x,1/2-y,1/2-z
1/2-x,y,1/2-z
1/2-x,1/2-y,1/2-z
1/2+x,y,1/2-z
1/2-x,1/2+y,1/2+z
1/2+x,-y,1/2+z
loop_
_atom_site_type_symbol
_atom_site_label
_atom_site_fract_x
_atom_site_fract_y
_atom_site_fract_z
Si Si1 0.612164 0.338965 0.563297
Si Si2 0.616342 0.298146 0.790133
Si Si3 0.113809 0.987238 0.324116
Si Si4 0.613247 0.851333 0.999080
Si Si5 0.251676 0.800239 0.621623
Si Si6 0.888451 0.940095 0.092686
Si Si7 0.800187 0.058378 0.464818
O O1 0.500000 0.326601 0.536988
O O2 0.656394 0.309366 0.665040
O O3 0.672502 0.329760 0.449690
O O4 0.618939 0.388344 0.608185
O O5 0.500000 0.297453 0.788004
O O6 0.656071 0.250000 0.825208
O O7 0.647303 0.336948 0.875331
O O8 0.147931 0.964188 0.207530
O O9 0.131664 0.955184 0.429404
O O10 0.000000 0.998301 0.315573
O O11 0.171596 0.032511 0.349960
O O12 0.500000 0.863301 0.989156
O O13 0.641023 0.809582 0.921898
O O14 0.680056 0.890526 0.951534
O O15 0.280874 0.750000 0.609171
O O16 0.250000 0.815824 0.750000
O O17 0.000000 0.953733 0.060342
O O18 0.813832 0.953047 0.991791
#
# Coordination Sequence:
#
# PCOD8300610 Si02
#       7
#    16  16  16  16  16  16  16
#     4  10  20  39  67  97 130 174 222 279 343 404
#     4   9  18  32  55  91 130 167 214 273 338 401
#     4  10  21  37  62  98 133 168 212 267 327 396
#     4  11  22  39  64  94 132 178 225 277 336 402
#     4  11  25  43  62  93 133 179 236 283 325 391
#     4  10  21  39  66  98 132 169 216 274 338 401
#     4  11  20  38  65  95 127 171 219 265 325 405
#
# _framework density 22.658518000000001
#
# number of rings (size 3 to 8) (size 9 to 14) (size 15 to 20)
#    0.000    1.714    1.429    3.857    0.000    5.143 
#    0.000    7.143    0.000    2.571    0.000    0.000 
#    0.000    0.000    0.000    0.000    0.000    0.000 
#
# Total GULP energy -694159.230089 kJ/mol
# GULP energy per Si atom -12395.700537 kJ/mol
# Density = 2.260695 g / cm^3
# Si number density = 22.658518 Si / 1000 Ang^3
#
#
#
# Elastic Constant Matrix: (Units=GPa)
#
#
# Indices 1 2 3 4 5 6 
#
# 1 102.8044 42.5813 50.2166 0.0000 0.0005 0.0001
# 2 42.5813 112.3449 59.7779 -0.0012 -0.0001 0.0001
# 3 50.2166 59.7779 127.5375 -0.0082 0.0008 0.0011
# 4 0.0000 -0.0012 -0.0082 37.5009 0.0004 0.0005
# 5 0.0005 -0.0001 0.0008 0.0004 27.9960 0.0001
# 6 0.0001 0.0001 0.0011 0.0005 0.0001 29.1990
#
#
#
# Elastic Compliance Matrix: (Units=1/GPa)
#
#
# Indices 1 2 3 4 5 6 
#
# 1 0.012701 -0.002869 -0.003657 -0.000001 0.000000 0.000000
# 2 -0.002869 0.012506 -0.004732 -0.000001 0.000000 0.000000
# 3 -0.003657 -0.004732 0.011499 0.000002 0.000000 0.000000
# 4 -0.000001 -0.000001 0.000002 0.026666 0.000000 0.000000
# 5 0.000000 0.000000 0.000000 0.000000 0.035719 0.000000
# 6 0.000000 0.000000 0.000000 0.000000 0.000000 0.034248
#
#
# Mechanical properties :
#
#
# Convention : Reuss Voigt Hill
#
# Bulk Modulus (GPa) = 70.46428 71.98204 71.22316
# Shear Modulus (GPa) = 31.13607 31.61324 31.37465
#
# Velocity S-wave (km/s) = 3.71097 3.73929 3.72516
# Velocity P-wave (km/s) = 7.03758 7.10495 7.07134
#
# Compressibility (1/GPa) = 0.01419159
#
# Stress axis : x y z
#
# Youngs Moduli (GPa) = 78.73110 79.95844 86.96626
#
# Poissons Ratio (x) = 0.22936 0.31800
# Poissons Ratio (y) = 0.22584 0.41156
# Poissons Ratio (z) = 0.28789 0.37840
#
# Static dielectric constant tensor:
#      x y z
#    x 4.232390 0.000000 0.000000 
#    y 0.000000 4.144860 0.000000 
#    z 0.000000 0.000000 3.909380 
# 
# 
# High freq. dielectric constant tensor:
#      x y z
#    x 1.906040 0.000000 0.000000 
#    y 0.000000 1.900480 0.000000 
#    z 0.000000 0.000000 1.871060 
# 
# From -- ./inp_files/21150.got.cif
#   From: 2010.03.12/outbox.cif.g09.slc.cpg/sg74_11_cif.got.tgz:21150.got - 2010.04.16 15:46:19.
