data_PCOD8300455
_publ_section_title
;
Structure prediction by ZEFSAII (Michael W. Deem and Ramdas Pophale) SiO2 
 PCOD8300455
Probable space group: I M M A
;
_chemical_formula_sum "Si O2"
_cell_formula_units_Z 96
_cell_length_a 15.890886
_cell_length_b 22.744367
_cell_length_c 13.598184
_cell_angle_alpha 90.000000
_cell_angle_beta 90.000000
_cell_angle_gamma 90.000000
_cell_volume 4914.766393
_symmetry_space_group_name_H-M "I M M A"
_symmetry_group_IT_number 74
_symmetry_cell_setting 'orthorhombic'
loop_
_space_group_symop_operation_xyz
x,y,z
-x,1/2-y,z
x,-y,-z
-x,1/2+y,-z
-x,-y,-z
x,1/2+y,-z
-x,y,z
x,1/2-y,z
1/2+x,1/2+y,1/2+z
1/2-x,-y,1/2+z
1/2+x,1/2-y,1/2-z
1/2-x,y,1/2-z
1/2-x,1/2-y,1/2-z
1/2+x,y,1/2-z
1/2-x,1/2+y,1/2+z
1/2+x,-y,1/2+z
loop_
_atom_site_type_symbol
_atom_site_label
_atom_site_fract_x
_atom_site_fract_y
_atom_site_fract_z
Si Si1 0.597927 0.487485 0.611069
Si Si2 0.000000 0.679821 0.288805
Si Si3 0.672488 0.182899 0.474760
Si Si4 0.905175 0.613438 0.813916
Si Si5 0.166257 0.131398 0.814306
Si Si6 0.843628 0.818591 0.636095
Si Si7 0.000000 0.819574 0.510610
O O1 0.627885 0.500000 0.500000
O O2 0.500000 0.469081 0.611663
O O3 0.614322 0.544412 0.678622
O O4 0.654404 0.436424 0.657072
O O5 0.084144 0.654951 0.240453
O O6 0.000000 0.655922 0.400237
O O7 0.000000 0.750000 0.281185
O O8 0.645922 0.250000 0.458708
O O9 0.603347 0.141921 0.422543
O O10 0.679032 0.170533 0.589475
O O11 0.760524 0.168227 0.424076
O O12 0.842364 0.644885 0.737531
O O13 0.000000 0.624145 0.777524
O O14 0.250000 0.138768 0.750000
O O15 0.853573 0.750000 0.663487
O O16 0.918330 0.842412 0.567622
O O17 0.000000 0.750000 0.506114
#
# Coordination Sequence:
#
# PCOD8300455 Si02
#       7
#    16   8  16  16  16  16   8
#     4  10  21  43  67  88 122 165 210 261 322 368
#     4  11  24  42  67  95 131 172 212 263 320 375
#     4  11  24  38  58  92 132 162 201 262 316 377
#     4  11  22  37  64  92 122 163 209 259 311 385
#     4  12  25  43  67  94 127 169 222 268 313 375
#     4  10  20  37  59  90 128 163 199 248 318 387
#     4   9  18  36  60  83 118 166 204 235 298 381
#
# _framework density 19.532973999999999
#
# number of rings (size 3 to 8) (size 9 to 14) (size 15 to 20)
#    0.000    1.333    3.333    2.500    1.167    6.333 
#    0.000    0.000    0.000    1.000    0.000    0.000 
#    0.000    0.000    0.000    0.000    0.000    0.000 
#
# Total GULP energy -595376.189735 kJ/mol
# GULP energy per Si atom -12403.670619 kJ/mol
# Density = 1.948852 g / cm^3
# Si number density = 19.532974 Si / 1000 Ang^3
#
#
#
# Elastic Constant Matrix: (Units=GPa)
#
#
# Indices 1 2 3 4 5 6 
#
# 1 85.4404 35.5063 36.5612 0.0000 0.0000 0.0000
# 2 35.5063 69.3147 18.7671 0.0001 0.0000 0.0000
# 3 36.5612 18.7671 113.0609 0.0001 0.0000 0.0000
# 4 0.0000 0.0001 0.0001 27.5992 0.0000 0.0000
# 5 0.0000 0.0000 0.0000 0.0000 34.5592 0.0000
# 6 0.0000 0.0000 0.0000 0.0000 0.0000 19.7263
#
#
#
# Elastic Compliance Matrix: (Units=1/GPa)
#
#
# Indices 1 2 3 4 5 6 
#
# 1 0.016522 -0.007347 -0.004123 0.000000 0.000000 0.000000
# 2 -0.007347 0.018373 -0.000674 0.000000 0.000000 0.000000
# 3 -0.004123 -0.000674 0.010290 0.000000 0.000000 0.000000
# 4 0.000000 0.000000 0.000000 0.036233 0.000000 0.000000
# 5 0.000000 0.000000 0.000000 0.000000 0.028936 0.000000
# 6 0.000000 0.000000 0.000000 0.000000 0.000000 0.050694
#
#
# Mechanical properties :
#
#
# Convention : Reuss Voigt Hill
#
# Bulk Modulus (GPa) = 47.85478 49.94279 48.89879
# Shear Modulus (GPa) = 26.00105 28.17571 27.08838
#
# Velocity S-wave (km/s) = 3.65243 3.80211 3.72802
# Velocity P-wave (km/s) = 6.50690 6.70064 6.60448
#
# Compressibility (1/GPa) = 0.02089655
#
# Stress axis : x y z
#
# Youngs Moduli (GPa) = 60.52715 54.42831 97.18173
#
# Poissons Ratio (x) = 0.39987 0.40070
# Poissons Ratio (y) = 0.44468 0.06550
# Poissons Ratio (z) = 0.24956 0.03668
#
# Static dielectric constant tensor:
#      x y z
#    x 3.556260 0.000000 0.000000 
#    y 0.000000 3.469290 0.000000 
#    z 0.000000 0.000000 3.709000 
# 
# 
# High freq. dielectric constant tensor:
#      x y z
#    x 1.764590 0.000000 0.000000 
#    y 0.000000 1.752930 0.000000 
#    z 0.000000 0.000000 1.771430 
# 
# From -- ./inp_files/32423.got.cif
#   From: 2010.03.12/outbox.cif.g09.slc.cpg/sg74_17_cif.got.tgz:32423.got - 2010.04.16 15:46:19.
