data_PCOD8300117
_publ_section_title
;
Structure prediction by ZEFSAII (Michael W. Deem and Ramdas Pophale) SiO2 
 PCOD8300117
Probable space group: I M M A
;
_chemical_formula_sum "Si O2"
_cell_formula_units_Z 96
_cell_length_a 9.257563
_cell_length_b 26.998314
_cell_length_c 20.361159
_cell_angle_alpha 90.000000
_cell_angle_beta 90.000000
_cell_angle_gamma 90.000000
_cell_volume 5089.039427
_symmetry_space_group_name_H-M "I M M A"
_symmetry_group_IT_number 74
_symmetry_cell_setting 'orthorhombic'
loop_
_space_group_symop_operation_xyz
x,y,z
-x,1/2-y,z
x,-y,-z
-x,1/2+y,-z
-x,-y,-z
x,1/2+y,-z
-x,y,z
x,1/2-y,z
1/2+x,1/2+y,1/2+z
1/2-x,-y,1/2+z
1/2+x,1/2-y,1/2-z
1/2-x,y,1/2-z
1/2-x,1/2-y,1/2-z
1/2+x,y,1/2-z
1/2-x,1/2+y,1/2+z
1/2+x,-y,1/2+z
loop_
_atom_site_type_symbol
_atom_site_label
_atom_site_fract_x
_atom_site_fract_y
_atom_site_fract_z
Si Si1 0.332866 0.853519 0.051965
Si Si2 0.832600 0.032630 0.562060
Si Si3 0.667998 0.626102 0.685025
Si Si4 0.668113 0.693160 0.566111
Si Si5 0.330212 0.511539 0.683460
Si Si6 0.831928 0.192983 0.686447
O O1 0.500000 0.839811 0.043713
O O2 0.303508 0.911216 0.040740
O O3 0.279219 0.838786 0.124454
O O4 0.247157 0.820902 0.000386
O O5 0.000000 0.023722 0.581015
O O6 0.785729 0.000000 0.500000
O O7 0.733266 0.019919 0.623775
O O8 0.500000 0.635487 0.697458
O O9 0.750000 0.643486 0.750000
O O10 0.727114 0.659161 0.625220
O O11 0.700960 0.569049 0.668522
O O12 0.500000 0.683193 0.554890
O O13 0.700038 0.750000 0.583971
O O14 0.500000 0.500754 0.690920
O O15 0.250000 0.495035 0.750000
O O16 0.791534 0.250000 0.673249
O O17 0.750000 0.172122 0.750000
O O18 0.000000 0.185821 0.699872
#
# Coordination Sequence:
#
# PCOD8300117 Si02
#       6
#    16  16  16  16  16  16
#     4  10  21  36  54  77 105 137 174 215 259 311
#     4  10  21  36  54  78 108 139 174 220 269 315
#     4   9  19  35  54  78 107 139 176 217 262 313
#     4  10  21  36  54  78 108 139 174 219 266 313
#     4  10  20  35  56  79 106 141 179 219 264 318
#     4   9  18  33  52  73  98 128 163 203 246 296
#
# _framework density 18.864070999999999
#
# number of rings (size 3 to 8) (size 9 to 14) (size 15 to 20)
#    0.000    2.333    0.000    2.000    0.000    5.000 
#    0.000    3.333    0.000    0.000    0.000    0.000 
#    0.000    0.000    0.000    0.000    0.000    0.000 
#
# Total GULP energy -595421.175355 kJ/mol
# GULP energy per Si atom -12404.607820 kJ/mol
# Density = 1.882114 g / cm^3
# Si number density = 18.864071 Si / 1000 Ang^3
#
#
#
# Elastic Constant Matrix: (Units=GPa)
#
#
# Indices 1 2 3 4 5 6 
#
# 1 57.2217 18.8096 40.5693 0.0000 0.0000 0.0000
# 2 18.8096 42.2117 19.3856 0.0001 0.0000 0.0000
# 3 40.5693 19.3856 100.3932 -0.0007 0.0000 0.0002
# 4 0.0000 0.0001 -0.0007 37.7634 0.0000 0.0001
# 5 0.0000 0.0000 0.0000 0.0000 40.5561 -0.0001
# 6 0.0000 0.0000 0.0002 0.0001 -0.0001 21.5797
#
#
#
# Elastic Compliance Matrix: (Units=1/GPa)
#
#
# Indices 1 2 3 4 5 6 
#
# 1 0.026528 -0.007569 -0.009259 0.000000 0.000000 0.000000
# 2 -0.007569 0.028155 -0.002378 0.000000 0.000000 0.000000
# 3 -0.009259 -0.002378 0.014161 0.000000 0.000000 0.000000
# 4 0.000000 0.000000 0.000000 0.026481 0.000000 0.000000
# 5 0.000000 0.000000 0.000000 0.000000 0.024657 0.000000
# 6 0.000000 0.000000 0.000000 0.000000 0.000000 0.046340
#
#
# Mechanical properties :
#
#
# Convention : Reuss Voigt Hill
#
# Bulk Modulus (GPa) = 32.85858 39.70616 36.28237
# Shear Modulus (GPa) = 23.26905 28.05065 25.65985
#
# Velocity S-wave (km/s) = 3.51595 3.86033 3.69216
# Velocity P-wave (km/s) = 5.82571 6.40030 6.11975
#
# Compressibility (1/GPa) = 0.03043345
#
# Stress axis : x y z
#
# Youngs Moduli (GPa) = 37.69593 35.51772 70.61431
#
# Poissons Ratio (x) = 0.26883 0.65379
# Poissons Ratio (y) = 0.28532 0.16792
# Poissons Ratio (z) = 0.34901 0.08446
#
# Static dielectric constant tensor:
#      x y z
#    x 3.385530 0.000000 0.000000 
#    y 0.000000 3.476140 0.000000 
#    z 0.000000 0.000000 3.524910 
# 
# 
# High freq. dielectric constant tensor:
#      x y z
#    x 1.726610 0.000000 0.000000 
#    y 0.000000 1.733640 0.000000 
#    z 0.000000 0.000000 1.741800 
# 
# From -- ./inp_files/49056.got.cif
#   From: 2010.03.12/outbox.cif.g09.slc.cpg/sg74_25_cif.got.tgz:49056.got - 2010.04.16 15:46:19.
