data_PCOD8300074
_publ_section_title
;
Structure prediction by ZEFSAII (Michael W. Deem and Ramdas Pophale) SiO2 
 PCOD8300074
Probable space group: I M M A
;
_chemical_formula_sum "Si O2"
_cell_formula_units_Z 88
_cell_length_a 17.201354
_cell_length_b 14.429414
_cell_length_c 17.270667
_cell_angle_alpha 90.000000
_cell_angle_beta 90.000000
_cell_angle_gamma 90.000000
_cell_volume 4286.673817
_symmetry_space_group_name_H-M "I M M A"
_symmetry_group_IT_number 74
_symmetry_cell_setting 'orthorhombic'
loop_
_space_group_symop_operation_xyz
x,y,z
-x,1/2-y,z
x,-y,-z
-x,1/2+y,-z
-x,-y,-z
x,1/2+y,-z
-x,y,z
x,1/2-y,z
1/2+x,1/2+y,1/2+z
1/2-x,-y,1/2+z
1/2+x,1/2-y,1/2-z
1/2-x,y,1/2-z
1/2-x,1/2-y,1/2-z
1/2+x,y,1/2-z
1/2-x,1/2+y,1/2+z
1/2+x,-y,1/2+z
loop_
_atom_site_type_symbol
_atom_site_label
_atom_site_fract_x
_atom_site_fract_y
_atom_site_fract_z
Si Si1 0.176765 0.648709 0.704593
Si Si2 0.409953 0.982126 0.155411
Si Si3 0.408077 0.146100 0.706526
Si Si4 0.216743 0.350743 0.065496
Si Si5 0.587870 0.986607 0.591632
Si Si6 0.688336 0.000000 0.000000
O O1 0.150986 0.750000 0.738553
O O2 0.250000 0.606197 0.750000
O O3 0.105529 0.576474 0.704547
O O4 0.207981 0.663203 0.618508
O O5 0.500000 0.975687 0.134404
O O6 0.383197 0.896825 0.210106
O O7 0.363395 0.984511 0.075630
O O8 0.500000 0.153724 0.703827
O O9 0.371960 0.250000 0.697769
O O10 0.381424 0.079188 0.635766
O O11 0.188284 0.250000 0.034930
O O12 0.145032 0.400545 0.110931
O O13 0.251684 0.413811 0.997499
O O14 0.500000 0.962800 0.619441
O O15 0.589028 0.000000 0.500000
#
# Coordination Sequence:
#
# PCOD8300074 Si02
#       6
#    16  16  16  16  16   8
#     4   9  18  33  54  78 108 147 187 235 296 351
#     4  10  20  35  59  86 115 155 202 250 297 347
#     4   9  19  36  57  84 118 150 184 236 298 353
#     4  10  20  35  54  77 110 151 191 238 292 346
#     4  10  20  35  57  84 112 148 194 241 294 358
#     4  10  21  38  55  80 120 158 202 248 293 350
#
# _framework density 20.528737
#
# number of rings (size 3 to 8) (size 9 to 14) (size 15 to 20)
#    0.000    2.364    0.909    1.364    0.000    2.182 
#    0.000    1.818    0.000   14.727    0.000    0.000 
#    0.000    0.000    0.000    0.000    0.000    0.000 
#
# Total GULP energy -545092.560245 kJ/mol
# GULP energy per Si atom -12388.467278 kJ/mol
# Density = 2.048201 g / cm^3
# Si number density = 20.528737 Si / 1000 Ang^3
#
#
#
# Elastic Constant Matrix: (Units=GPa)
#
#
# Indices 1 2 3 4 5 6 
#
# 1 72.3129 61.6713 23.6032 0.0000 0.0000 0.0000
# 2 61.6713 193.5320 57.5491 0.0000 0.0000 0.0000
# 3 23.6032 57.5491 91.0665 0.0000 0.0000 0.0000
# 4 0.0000 0.0000 0.0000 29.5110 0.0000 0.0000
# 5 0.0000 0.0000 0.0000 0.0000 22.1552 0.0000
# 6 0.0000 0.0000 0.0000 0.0000 0.0000 23.4069
#
#
#
# Elastic Compliance Matrix: (Units=1/GPa)
#
#
# Indices 1 2 3 4 5 6 
#
# 1 0.019126 -0.005690 -0.001361 0.000000 0.000000 0.000000
# 2 -0.005690 0.008055 -0.003616 0.000000 0.000000 0.000000
# 3 -0.001361 -0.003616 0.013619 0.000000 0.000000 0.000000
# 4 0.000000 0.000000 0.000000 0.033886 0.000000 0.000000
# 5 0.000000 0.000000 0.000000 0.000000 0.045136 0.000000
# 6 0.000000 0.000000 0.000000 0.000000 0.000000 0.042722
#
#
# Mechanical properties :
#
#
# Convention : Reuss Voigt Hill
#
# Bulk Modulus (GPa) = 51.37237 71.39540 61.38389
# Shear Modulus (GPa) = 26.26504 29.28714 27.77609
#
# Velocity S-wave (km/s) = 3.58079 3.78119 3.68235
# Velocity P-wave (km/s) = 6.49423 7.34282 6.93152
#
# Compressibility (1/GPa) = 0.01946572
#
# Stress axis : x y z
#
# Youngs Moduli (GPa) = 52.28582 124.13961 73.42724
#
# Poissons Ratio (x) = 0.70632 0.09997
# Poissons Ratio (y) = 0.29749 0.26551
# Poissons Ratio (z) = 0.07119 0.44888
#
# Static dielectric constant tensor:
#      x y z
#    x 3.659110 0.000000 0.000000 
#    y 0.000000 4.383810 0.000000 
#    z 0.000000 0.000000 3.649480 
# 
# 
# High freq. dielectric constant tensor:
#      x y z
#    x 1.784070 0.000000 0.000000 
#    y 0.000000 1.806150 0.000000 
#    z 0.000000 0.000000 1.800420 
# 
# From -- ./inp_files/43937.got.cif
#   From: 2010.03.12/outbox.cif.g09.slc.cpg/sg74_22_cif.got.tgz:43937.got - 2010.04.16 15:46:19.
