data_PCOD8300477
_publ_section_title
;
Structure prediction by ZEFSAII (Michael W. Deem and Ramdas Pophale) SiO2 
 PCOD8300477
Probable space group: I M M A
;
_chemical_formula_sum "Si O2"
_cell_formula_units_Z 72
_cell_length_a 9.323243
_cell_length_b 16.501969
_cell_length_c 24.334910
_cell_angle_alpha 90.000000
_cell_angle_beta 90.000000
_cell_angle_gamma 90.000000
_cell_volume 3743.971336
_symmetry_space_group_name_H-M "I M M A"
_symmetry_group_IT_number 74
_symmetry_cell_setting 'orthorhombic'
loop_
_space_group_symop_operation_xyz
x,y,z
-x,1/2-y,z
x,-y,-z
-x,1/2+y,-z
-x,-y,-z
x,1/2+y,-z
-x,y,z
x,1/2-y,z
1/2+x,1/2+y,1/2+z
1/2-x,-y,1/2+z
1/2+x,1/2-y,1/2-z
1/2-x,y,1/2-z
1/2-x,1/2-y,1/2-z
1/2+x,y,1/2-z
1/2-x,1/2+y,1/2+z
1/2+x,-y,1/2+z
loop_
_atom_site_type_symbol
_atom_site_label
_atom_site_fract_x
_atom_site_fract_y
_atom_site_fract_z
Si Si1 0.836579 0.659574 0.986320
Si Si2 0.836164 0.889058 0.108708
Si Si3 0.331687 0.750000 0.307433
Si Si4 0.169066 0.448035 0.405668
Si Si5 0.166368 0.842736 0.697999
O O1 0.791962 0.750000 0.966492
O O2 0.820524 0.658529 0.051753
O O3 0.000000 0.640651 0.968949
O O4 0.736159 0.590532 0.960548
O O5 0.788705 0.829658 0.157895
O O6 0.000000 0.918456 0.116911
O O7 0.730604 0.964708 0.108419
O O8 0.500000 0.750000 0.295422
O O9 0.250000 0.750000 0.250000
O O10 0.212852 0.390138 0.355900
O O11 0.000000 0.454752 0.414581
O O12 0.210702 0.750000 0.688226
O O13 0.250000 0.879469 0.750000
O O14 0.000000 0.852815 0.710723
#
# Coordination Sequence:
#
# PCOD8300477 Si02
#       5
#    16  16   8  16  16
#     4  10  20  37  61  85 112 151 197 237 281 341
#     4  10  21  40  61  82 112 150 193 241 287 339
#     4  10  22  42  66  88 114 152 199 250 301 350
#     4  11  23  36  54  86 122 151 184 233 295 350
#     4   9  19  36  55  75 106 146 185 226 273 329
#
# _framework density 19.230916000000001
#
# number of rings (size 3 to 8) (size 9 to 14) (size 15 to 20)
#    0.000    2.000    1.111    2.000    0.000    8.444 
#    0.000    6.667    0.000    0.000    0.000    0.000 
#    0.000    0.000    0.000    0.000    0.000    0.000 
#
# Total GULP energy -446497.754932 kJ/mol
# GULP energy per Si atom -12402.715415 kJ/mol
# Density = 1.918715 g / cm^3
# Si number density = 19.230916 Si / 1000 Ang^3
#
#
#
# Elastic Constant Matrix: (Units=GPa)
#
#
# Indices 1 2 3 4 5 6 
#
# 1 82.5137 63.0659 54.8981 0.0000 0.0000 0.0000
# 2 63.0659 121.5792 54.4504 0.0000 0.0000 0.0000
# 3 54.8981 54.4504 114.9784 0.0000 0.0000 0.0000
# 4 0.0000 0.0000 0.0000 -1.5417 0.0000 0.0000
# 5 0.0000 0.0000 0.0000 0.0000 35.8626 0.0000
# 6 0.0000 0.0000 0.0000 0.0000 0.0000 32.2405
#
#
#
# Elastic Compliance Matrix: (Units=1/GPa)
#
#
# Indices 1 2 3 4 5 6 
#
# 1 0.023833 -0.009222 -0.007012 0.000000 0.000000 0.000000
# 2 -0.009222 0.014008 -0.002230 0.000000 0.000000 0.000000
# 3 -0.007012 -0.002230 0.013102 0.000000 0.000000 0.000000
# 4 0.000000 0.000000 0.000000 -0.648616 0.000000 0.000000
# 5 0.000000 0.000000 0.000000 0.000000 0.027884 0.000000
# 6 0.000000 0.000000 0.000000 0.000000 0.000000 0.031017
#
#
# Mechanical properties :
#
#
# Convention : Reuss Voigt Hill
#
# Bulk Modulus (GPa) = 71.36236 73.76666 72.56451
# Shear Modulus (GPa) = -10.05689 23.08939 6.51625
#
# Velocity S-wave (km/s) = -2.28930 3.46878 1.84276
# Velocity P-wave (km/s) = 5.49553 7.38139 6.50714
#
# Compressibility (1/GPa) = 0.01401299
#
# Stress axis : x y z
#
# Youngs Moduli (GPa) = 41.95815 71.38847 76.32712
#
# Poissons Ratio (x) = 0.65838 0.53521
# Poissons Ratio (y) = 0.38696 0.17023
# Poissons Ratio (z) = 0.29421 0.15922
#
# Static dielectric constant tensor:
#      x y z
#    x 3.450660 0.000000 0.000000 
#    y 0.000000 3.588050 0.000000 
#    z 0.000000 0.000000 3.548600 
# 
# 
# High freq. dielectric constant tensor:
#      x y z
#    x 1.742730 0.000000 0.000000 
#    y 0.000000 1.753630 0.000000 
#    z 0.000000 0.000000 1.752180 
# 
# From -- ./inp_files/56630.got.cif
#   From: 2010.03.12/outbox.cif.g09.slc.cpg/sg74_29_cif.got.tgz:56630.got - 2010.04.16 15:46:19.
