data_PCOD8300573
_publ_section_title
;
Structure prediction by ZEFSAII (Michael W. Deem and Ramdas Pophale) SiO2 
 PCOD8300573
Probable space group: I M M A
;
_chemical_formula_sum "Si O2"
_cell_formula_units_Z 72
_cell_length_a 16.213545
_cell_length_b 8.998879
_cell_length_c 24.585354
_cell_angle_alpha 90.000000
_cell_angle_beta 90.000000
_cell_angle_gamma 90.000000
_cell_volume 3587.094843
_symmetry_space_group_name_H-M "I M M A"
_symmetry_group_IT_number 74
_symmetry_cell_setting 'orthorhombic'
loop_
_space_group_symop_operation_xyz
x,y,z
-x,1/2-y,z
x,-y,-z
-x,1/2+y,-z
-x,-y,-z
x,1/2+y,-z
-x,y,z
x,1/2-y,z
1/2+x,1/2+y,1/2+z
1/2-x,-y,1/2+z
1/2+x,1/2-y,1/2-z
1/2-x,y,1/2-z
1/2-x,1/2-y,1/2-z
1/2+x,y,1/2-z
1/2-x,1/2+y,1/2+z
1/2+x,-y,1/2+z
loop_
_atom_site_type_symbol
_atom_site_label
_atom_site_fract_x
_atom_site_fract_y
_atom_site_fract_z
Si Si1 0.500000 0.924925 0.941698
Si Si2 0.355467 0.422659 0.138147
Si Si3 0.097367 0.916208 0.947562
Si Si4 0.593512 0.578888 0.740424
Si Si5 0.815898 0.574502 0.147690
O O1 0.500000 0.750000 0.949771
O O2 0.581031 0.973912 0.908368
O O3 0.500000 0.000000 0.000000
O O4 0.331949 0.250000 0.132193
O O5 0.397293 0.453846 0.196014
O O6 0.274551 0.520987 0.131367
O O7 0.135031 0.750000 0.944918
O O8 0.000000 0.907038 0.952523
O O9 0.118563 0.006683 0.893784
O O10 0.135075 0.000000 0.000000
O O11 0.500000 0.539969 0.723168
O O12 0.613538 0.750000 0.727024
O O13 0.658699 0.478667 0.707933
O O14 0.819650 0.750000 0.145081
#
# Coordination Sequence:
#
# PCOD8300573 Si02
#       5
#     8  16  16  16  16
#     4  10  22  42  68  94 118 154 203 254 309 366
#     4  10  21  41  64  86 116 155 202 254 305 360
#     4  10  21  39  62  86 115 154 198 245 297 353
#     4  10  20  38  64  89 116 156 205 252 304 364
#     4  12  25  37  55  89 127 161 199 243 300 364
#
# _framework density 20.071954000000002
#
# number of rings (size 3 to 8) (size 9 to 14) (size 15 to 20)
#    0.000    1.556    1.111    4.000    0.000    9.778 
#    0.000    2.222    0.000    0.000    0.000    0.000 
#    0.000    0.000    0.000    0.000    0.000    0.000 
#
# Total GULP energy -446570.799359 kJ/mol
# GULP energy per Si atom -12404.744427 kJ/mol
# Density = 2.002627 g / cm^3
# Si number density = 20.071954 Si / 1000 Ang^3
#
#
#
# Elastic Constant Matrix: (Units=GPa)
#
#
# Indices 1 2 3 4 5 6 
#
# 1 79.0777 45.3872 44.9937 0.0000 0.0000 0.0000
# 2 45.3872 131.9465 64.9565 0.0000 0.0000 0.0000
# 3 44.9937 64.9565 135.1439 0.0000 0.0000 0.0000
# 4 0.0000 0.0000 0.0000 36.3843 0.0000 0.0000
# 5 0.0000 0.0000 0.0000 0.0000 20.9069 0.0000
# 6 0.0000 0.0000 0.0000 0.0000 0.0000 25.1256
#
#
#
# Elastic Compliance Matrix: (Units=1/GPa)
#
#
# Indices 1 2 3 4 5 6 
#
# 1 0.017096 -0.004033 -0.003753 0.000000 0.000000 0.000000
# 2 -0.004033 0.010879 -0.003886 0.000000 0.000000 0.000000
# 3 -0.003753 -0.003886 0.010517 0.000000 0.000000 0.000000
# 4 0.000000 0.000000 0.000000 0.027484 0.000000 0.000000
# 5 0.000000 0.000000 0.000000 0.000000 0.047831 0.000000
# 6 0.000000 0.000000 0.000000 0.000000 0.000000 0.039800
#
#
# Mechanical properties :
#
#
# Convention : Reuss Voigt Hill
#
# Bulk Modulus (GPa) = 66.01952 72.98255 69.50104
# Shear Modulus (GPa) = 27.47207 29.20540 28.33873
#
# Velocity S-wave (km/s) = 3.70358 3.81863 3.76155
# Velocity P-wave (km/s) = 7.15902 7.47543 7.31893
#
# Compressibility (1/GPa) = 0.01514704
#
# Stress axis : x y z
#
# Youngs Moduli (GPa) = 58.49257 91.91710 95.08283
#
# Poissons Ratio (x) = 0.37070 0.35689
# Poissons Ratio (y) = 0.23590 0.36953
# Poissons Ratio (z) = 0.21955 0.35723
#
# Static dielectric constant tensor:
#      x y z
#    x 3.651330 0.000000 0.000000 
#    y 0.000000 3.738330 0.000000 
#    z 0.000000 0.000000 3.730800 
# 
# 
# High freq. dielectric constant tensor:
#      x y z
#    x 1.784040 0.000000 0.000000 
#    y 0.000000 1.776440 0.000000 
#    z 0.000000 0.000000 1.792410 
# 
# From -- ./inp_files/56670.got.cif
#   From: 2010.03.12/outbox.cif.g09.slc.cpg/sg74_29_cif.got.tgz:56670.got - 2010.04.16 15:46:19.
