data_PCOD8300587
_publ_section_title
;
Structure prediction by ZEFSAII (Michael W. Deem and Ramdas Pophale) SiO2 
 PCOD8300587
Probable space group: I M M A
;
_chemical_formula_sum "Si O2"
_cell_formula_units_Z 72
_cell_length_a 17.754239
_cell_length_b 11.663938
_cell_length_c 17.220781
_cell_angle_alpha 90.000000
_cell_angle_beta 90.000000
_cell_angle_gamma 90.000000
_cell_volume 3566.154118
_symmetry_space_group_name_H-M "I M M A"
_symmetry_group_IT_number 74
_symmetry_cell_setting 'orthorhombic'
loop_
_space_group_symop_operation_xyz
x,y,z
-x,1/2-y,z
x,-y,-z
-x,1/2+y,-z
-x,-y,-z
x,1/2+y,-z
-x,y,z
x,1/2-y,z
1/2+x,1/2+y,1/2+z
1/2-x,-y,1/2+z
1/2+x,1/2-y,1/2-z
1/2-x,y,1/2-z
1/2-x,1/2-y,1/2-z
1/2+x,y,1/2-z
1/2-x,1/2+y,1/2+z
1/2+x,-y,1/2+z
loop_
_atom_site_type_symbol
_atom_site_label
_atom_site_fract_x
_atom_site_fract_y
_atom_site_fract_z
Si Si1 0.227574 0.750000 0.159703
Si Si2 0.500000 0.619284 0.548023
Si Si3 0.914528 0.989523 0.315715
Si Si4 0.727828 0.486989 0.908932
Si Si5 0.136341 0.379588 0.164590
Si Si6 0.916405 0.250000 0.760938
O O1 0.250000 0.750000 0.250000
O O2 0.257945 0.856550 0.112754
O O3 0.136332 0.750000 0.162511
O O4 0.500000 0.750000 0.508218
O O5 0.500000 0.500000 0.500000
O O6 0.424696 0.610953 0.597533
O O7 0.856951 0.023088 0.384456
O O8 0.901549 0.857291 0.294617
O O9 0.000000 0.012637 0.344119
O O10 0.897683 0.062477 0.240035
O O11 0.785978 0.563984 0.861666
O O12 0.738565 0.500000 0.000000
O O13 0.155232 0.250000 0.186110
O O14 0.000000 0.250000 0.796041
#
# Coordination Sequence:
#
# PCOD8300587 Si02
#       6
#     8   8  16  16  16   8
#     4  12  20  44  72  94 129 176 227 278 324 401
#     4  10  22  44  64  96 141 176 218 280 345 402
#     4  11  22  42  69  96 125 170 227 275 326 393
#     4  12  26  41  65  99 137 171 217 277 339 396
#     4  11  23  42  65  93 131 175 219 266 325 407
#     4  10  20  38  68 102 118 160 228 286 316 383
#
# _framework density 20.189817999999999
#
# number of rings (size 3 to 8) (size 9 to 14) (size 15 to 20)
#    0.000    0.889    5.556    1.333    1.556    2.222 
#    4.000    0.000    0.000    0.000    0.000    0.000 
#    0.000    0.000    0.000    0.000    0.000    0.000 
#
# Total GULP energy -446304.816145 kJ/mol
# GULP energy per Si atom -12397.356004 kJ/mol
# Density = 2.014387 g / cm^3
# Si number density = 20.189818 Si / 1000 Ang^3
#
#
#
# Elastic Constant Matrix: (Units=GPa)
#
#
# Indices 1 2 3 4 5 6 
#
# 1 148.1770 31.7868 13.2172 0.0000 0.0000 0.0000
# 2 31.7868 150.7016 35.5203 0.0000 0.0000 0.0000
# 3 13.2172 35.5203 53.6852 0.0000 0.0000 0.0000
# 4 0.0000 0.0000 0.0000 -9.1574 0.0000 0.0000
# 5 0.0000 0.0000 0.0000 0.0000 30.6410 0.0000
# 6 0.0000 0.0000 0.0000 0.0000 0.0000 -1.7851
#
#
#
# Elastic Compliance Matrix: (Units=1/GPa)
#
#
# Indices 1 2 3 4 5 6 
#
# 1 0.007105 -0.001287 -0.000898 0.000000 0.000000 0.000000
# 2 -0.001287 0.008095 -0.005039 0.000000 0.000000 0.000000
# 3 -0.000898 -0.005039 0.022182 0.000000 0.000000 0.000000
# 4 0.000000 0.000000 0.000000 -0.109201 0.000000 0.000000
# 5 0.000000 0.000000 0.000000 0.000000 0.032636 0.000000
# 6 0.000000 0.000000 0.000000 0.000000 0.000000 -0.560185
#
#
# Mechanical properties :
#
#
# Convention : Reuss Voigt Hill
#
# Bulk Modulus (GPa) = 43.60253 57.06801 50.33527
# Shear Modulus (GPa) = -8.66137 22.07566 6.70714
#
# Velocity S-wave (km/s) = -2.07347 3.31026 1.82462
# Velocity P-wave (km/s) = 3.98884 6.55267 5.42440
#
# Compressibility (1/GPa) = 0.02293445
#
# Stress axis : x y z
#
# Youngs Moduli (GPa) = 140.74900 123.53647 45.08138
#
# Poissons Ratio (x) = 0.15899 0.04047
# Poissons Ratio (y) = 0.18115 0.22716
# Poissons Ratio (z) = 0.12634 0.62250
#
# Static dielectric constant tensor:
#      x y z
#    x 4.571260 0.000000 0.000000 
#    y 0.000000 7.730830 0.000000 
#    z 0.000000 0.000000 3.476040 
# 
# 
# High freq. dielectric constant tensor:
#      x y z
#    x 1.815960 0.000000 0.000000 
#    y 0.000000 1.804170 0.000000 
#    z 0.000000 0.000000 1.759460 
# 
# From -- ./inp_files/43749.got.cif
#   From: 2010.03.12/outbox.cif.g09.slc.cpg/sg74_22_cif.got.tgz:43749.got - 2010.04.16 15:46:19.
