data_PCOD8300453
_publ_section_title
;
Structure prediction by ZEFSAII (Michael W. Deem and Ramdas Pophale) SiO2 
 PCOD8300453
Probable space group: I M M A
;
_chemical_formula_sum "Si O2"
_cell_formula_units_Z 72
_cell_length_a 8.659284
_cell_length_b 14.413625
_cell_length_c 30.058923
_cell_angle_alpha 90.000000
_cell_angle_beta 90.000000
_cell_angle_gamma 90.000000
_cell_volume 3751.704449
_symmetry_space_group_name_H-M "I M M A"
_symmetry_group_IT_number 74
_symmetry_cell_setting 'orthorhombic'
loop_
_space_group_symop_operation_xyz
x,y,z
-x,1/2-y,z
x,-y,-z
-x,1/2+y,-z
-x,-y,-z
x,1/2+y,-z
-x,y,z
x,1/2-y,z
1/2+x,1/2+y,1/2+z
1/2-x,-y,1/2+z
1/2+x,1/2-y,1/2-z
1/2-x,y,1/2-z
1/2-x,1/2-y,1/2-z
1/2+x,y,1/2-z
1/2-x,1/2+y,1/2+z
1/2+x,-y,1/2+z
loop_
_atom_site_type_symbol
_atom_site_label
_atom_site_fract_x
_atom_site_fract_y
_atom_site_fract_z
Si Si1 0.317640 0.750000 0.586001
Si Si2 0.317385 0.750000 0.486012
Si Si3 0.678851 0.750000 0.202367
Si Si4 0.817026 0.548660 0.299367
Si Si5 0.317501 0.446323 0.379099
Si Si6 0.182047 0.060794 0.541567
O O1 0.500000 0.750000 0.582209
O O2 0.247817 0.750000 0.536109
O O3 0.261374 0.658945 0.612247
O O4 0.500000 0.750000 0.487090
O O5 0.259735 0.839149 0.459540
O O6 0.500000 0.750000 0.211034
O O7 0.750000 0.750000 0.250000
O O8 0.723560 0.651540 0.179382
O O9 0.750000 0.538947 0.250000
O O10 0.733132 0.472211 0.329381
O O11 0.000000 0.530970 0.298622
O O12 0.500000 0.457063 0.385377
O O13 0.230199 0.512990 0.412918
O O14 0.000000 0.073443 0.539973
O O15 0.242254 0.000000 0.500000
#
# Coordination Sequence:
#
# PCOD8300453 Si02
#       6
#     8   8   8  16  16  16
#     4   9  20  37  59  83 111 150 199 247 293 346
#     4  11  21  38  62  86 115 157 201 245 292 347
#     4   8  16  31  54  79 110 145 180 220 275 338
#     4  10  20  37  59  87 118 154 193 241 295 351
#     4  11  22  39  61  86 115 154 200 246 294 353
#     4  11  23  38  57  86 120 153 190 240 295 351
#
# _framework density 19.191275999999998
#
# number of rings (size 3 to 8) (size 9 to 14) (size 15 to 20)
#    0.000    1.778    2.222    2.333    0.000    2.667 
#    0.000    6.111    0.000    0.000    0.000    0.000 
#    0.000    0.000    0.000    0.000    0.000    0.000 
#
# Total GULP energy -446306.017268 kJ/mol
# GULP energy per Si atom -12397.389369 kJ/mol
# Density = 1.914760 g / cm^3
# Si number density = 19.191276 Si / 1000 Ang^3
#
#
#
# Elastic Constant Matrix: (Units=GPa)
#
#
# Indices 1 2 3 4 5 6 
#
# 1 51.8131 33.9712 15.5832 0.0000 0.0000 0.0000
# 2 33.9712 163.6454 57.5714 0.0000 0.0000 0.0000
# 3 15.5832 57.5714 90.4825 0.0000 0.0000 0.0000
# 4 0.0000 0.0000 0.0000 34.9010 0.0000 0.0000
# 5 0.0000 0.0000 0.0000 0.0000 33.1199 0.0000
# 6 0.0000 0.0000 0.0000 0.0000 0.0000 23.6691
#
#
#
# Elastic Compliance Matrix: (Units=1/GPa)
#
#
# Indices 1 2 3 4 5 6 
#
# 1 0.022435 -0.004249 -0.001160 0.000000 0.000000 0.000000
# 2 -0.004249 0.008678 -0.004790 0.000000 0.000000 0.000000
# 3 -0.001160 -0.004790 0.014299 0.000000 0.000000 0.000000
# 4 0.000000 0.000000 0.000000 0.028652 0.000000 0.000000
# 5 0.000000 0.000000 0.000000 0.000000 0.030193 0.000000
# 6 0.000000 0.000000 0.000000 0.000000 0.000000 0.042249
#
#
# Mechanical properties :
#
#
# Convention : Reuss Voigt Hill
#
# Bulk Modulus (GPa) = 39.97754 57.79917 48.88836
# Shear Modulus (GPa) = 28.53176 31.59233 30.06205
#
# Velocity S-wave (km/s) = 3.85996 4.06172 3.96213
# Velocity P-wave (km/s) = 6.38295 7.22354 6.81622
#
# Compressibility (1/GPa) = 0.02501404
#
# Stress axis : x y z
#
# Youngs Moduli (GPa) = 44.57315 115.23532 69.93381
#
# Poissons Ratio (x) = 0.48965 0.08114
# Poissons Ratio (y) = 0.18940 0.33496
# Poissons Ratio (z) = 0.05172 0.55194
#
# Static dielectric constant tensor:
#      x y z
#    x 3.188060 0.000000 0.000000 
#    y 0.000000 4.118300 0.000000 
#    z 0.000000 0.000000 3.369530 
# 
# 
# High freq. dielectric constant tensor:
#      x y z
#    x 1.747800 0.000000 0.000000 
#    y 0.000000 1.758670 0.000000 
#    z 0.000000 0.000000 1.732770 
# 
# From -- ./inp_files/63647.got.cif
#   From: 2010.03.12/outbox.cif.g09.slc.cpg/sg74_32_cif.got.tgz:63647.got - 2010.04.16 15:46:19.
