data_PCOD8300266
_publ_section_title
;
Structure prediction by ZEFSAII (Michael W. Deem and Ramdas Pophale) SiO2 
 PCOD8300266
Probable space group: I M M A
;
_chemical_formula_sum "Si O2"
_cell_formula_units_Z 80
_cell_length_a 8.956483
_cell_length_b 15.812518
_cell_length_c 29.117452
_cell_angle_alpha 90.000000
_cell_angle_beta 90.000000
_cell_angle_gamma 90.000000
_cell_volume 4123.745997
_symmetry_space_group_name_H-M "I M M A"
_symmetry_group_IT_number 74
_symmetry_cell_setting 'orthorhombic'
loop_
_space_group_symop_operation_xyz
x,y,z
-x,1/2-y,z
x,-y,-z
-x,1/2+y,-z
-x,-y,-z
x,1/2+y,-z
-x,y,z
x,1/2-y,z
1/2+x,1/2+y,1/2+z
1/2-x,-y,1/2+z
1/2+x,1/2-y,1/2-z
1/2-x,y,1/2-z
1/2-x,1/2-y,1/2-z
1/2+x,y,1/2-z
1/2-x,1/2+y,1/2+z
1/2+x,-y,1/2+z
loop_
_atom_site_type_symbol
_atom_site_label
_atom_site_fract_x
_atom_site_fract_y
_atom_site_fract_z
Si Si1 0.823175 0.250000 0.466247
Si Si2 0.824627 0.118844 0.203039
Si Si3 0.677973 0.750000 0.861254
Si Si4 0.326886 0.922597 0.296057
Si Si5 0.322855 0.412040 0.978248
Si Si6 0.175713 0.153201 0.890599
O O1 0.769286 0.250000 0.413918
O O2 0.760951 0.165890 0.491216
O O3 0.000000 0.250000 0.468734
O O4 0.750000 0.151554 0.250000
O O5 0.746787 0.166334 0.161112
O O6 0.000000 0.139297 0.204457
O O7 0.790616 0.020629 0.195728
O O8 0.500000 0.750000 0.856119
O O9 0.500000 0.906142 0.289126
O O10 0.250000 0.888069 0.250000
O O11 0.265976 0.871581 0.339961
O O12 0.500000 0.409732 0.974761
O O13 0.256898 0.406098 0.927274
O O14 0.267121 0.500000 0.000000
O O15 0.218604 0.250000 0.900302
O O16 0.000000 0.137029 0.894143
#
# Coordination Sequence:
#
# PCOD8300266 Si02
#       6
#     8  16   8  16  16  16
#     4   9  20  38  54  81 118 143 180 234 278 325
#     4  10  20  36  55  77 108 145 185 226 270 325
#     4  11  22  34  53  79 110 145 181 226 277 325
#     4   9  20  37  56  81 112 144 182 227 273 327
#     4  10  21  38  61  85 111 148 191 234 279 332
#     4  10  21  38  59  84 115 148 181 225 280 334
#
# _framework density 19.399837000000002
#
# number of rings (size 3 to 8) (size 9 to 14) (size 15 to 20)
#    0.000    2.200    1.000    1.200    2.800    2.400 
#    0.000    2.000    0.000    0.000    0.000    0.000 
#    0.000    0.000    0.000    0.000    0.000    0.000 
#
# Total GULP energy -496120.844042 kJ/mol
# GULP energy per Si atom -12403.021101 kJ/mol
# Density = 1.935568 g / cm^3
# Si number density = 19.399837 Si / 1000 Ang^3
#
#
#
# Elastic Constant Matrix: (Units=GPa)
#
#
# Indices 1 2 3 4 5 6 
#
# 1 51.5316 31.7955 44.5391 0.0000 0.0000 0.0000
# 2 31.7955 109.0106 70.6366 0.0000 0.0000 0.0000
# 3 44.5391 70.6366 174.5975 0.0000 0.0000 0.0000
# 4 0.0000 0.0000 0.0000 38.7132 0.0000 0.0000
# 5 0.0000 0.0000 0.0000 0.0000 33.6733 0.0000
# 6 0.0000 0.0000 0.0000 0.0000 0.0000 18.2117
#
#
#
# Elastic Compliance Matrix: (Units=1/GPa)
#
#
# Indices 1 2 3 4 5 6 
#
# 1 0.026448 -0.004530 -0.004914 0.000000 0.000000 0.000000
# 2 -0.004530 0.013209 -0.004188 0.000000 0.000000 0.000000
# 3 -0.004914 -0.004188 0.008675 0.000000 0.000000 0.000000
# 4 0.000000 0.000000 0.000000 0.025831 0.000000 0.000000
# 5 0.000000 0.000000 0.000000 0.000000 0.029697 0.000000
# 6 0.000000 0.000000 0.000000 0.000000 0.000000 0.054910
#
#
# Mechanical properties :
#
#
# Convention : Reuss Voigt Hill
#
# Bulk Modulus (GPa) = 47.46663 69.89801 58.68232
# Shear Modulus (GPa) = 25.89915 30.66420 28.28167
#
# Velocity S-wave (km/s) = 3.65775 3.98004 3.82230
# Velocity P-wave (km/s) = 6.50842 7.56501 7.05652
#
# Compressibility (1/GPa) = 0.02106743
#
# Stress axis : x y z
#
# Youngs Moduli (GPa) = 37.81031 75.70857 115.26818
#
# Poissons Ratio (x) = 0.34295 0.56643
# Poissons Ratio (y) = 0.17128 0.48277
# Poissons Ratio (z) = 0.18580 0.31708
#
# Static dielectric constant tensor:
#      x y z
#    x 3.353340 0.000000 0.000000 
#    y 0.000000 3.634400 0.000000 
#    z 0.000000 0.000000 3.676260 
# 
# 
# High freq. dielectric constant tensor:
#      x y z
#    x 1.739100 0.000000 0.000000 
#    y 0.000000 1.760330 0.000000 
#    z 0.000000 0.000000 1.766370 
# 
# From -- ./inp_files/64018.got.cif
#   From: 2010.03.12/outbox.cif.g09.slc.cpg/sg74_33_cif.got.tgz:64018.got - 2010.04.16 15:46:19.
