data_PCOD8300018
_publ_section_title
;
Structure prediction by ZEFSAII (Michael W. Deem and Ramdas Pophale) SiO2 
 PCOD8300018
Probable space group: I M M A
;
_chemical_formula_sum "Si O2"
_cell_formula_units_Z 88
_cell_length_a 21.630932
_cell_length_b 9.475212
_cell_length_c 21.472846
_cell_angle_alpha 90.000000
_cell_angle_beta 90.000000
_cell_angle_gamma 90.000000
_cell_volume 4401.024408
_symmetry_space_group_name_H-M "I M M A"
_symmetry_group_IT_number 74
_symmetry_cell_setting 'orthorhombic'
loop_
_space_group_symop_operation_xyz
x,y,z
-x,1/2-y,z
x,-y,-z
-x,1/2+y,-z
-x,-y,-z
x,1/2+y,-z
-x,y,z
x,1/2-y,z
1/2+x,1/2+y,1/2+z
1/2-x,-y,1/2+z
1/2+x,1/2-y,1/2-z
1/2-x,y,1/2-z
1/2-x,1/2-y,1/2-z
1/2+x,y,1/2-z
1/2-x,1/2+y,1/2+z
1/2+x,-y,1/2+z
loop_
_atom_site_type_symbol
_atom_site_label
_atom_site_fract_x
_atom_site_fract_y
_atom_site_fract_z
Si Si1 0.750000 0.493729 0.250000
Si Si2 0.500000 0.916815 0.250824
Si Si3 0.286453 0.900888 0.878766
Si Si4 0.000000 0.916607 0.386657
Si Si5 0.626764 0.085531 0.941214
Si Si6 0.127222 0.087528 0.816141
Si Si7 0.658341 0.414055 0.437470
O O1 0.736176 0.393975 0.191900
O O2 0.812047 0.580394 0.229246
O O3 0.500000 0.750000 0.245643
O O4 0.500000 0.985676 0.181709
O O5 0.436029 0.965497 0.282982
O O6 0.319551 0.750000 0.892321
O O7 0.231763 0.918733 0.928471
O O8 0.331190 0.035766 0.883753
O O9 0.941930 0.965565 0.426725
O O10 0.000000 0.750000 0.378406
O O11 0.633984 0.250000 0.952267
O O12 0.651721 0.000000 0.000000
O O13 0.121026 0.250000 0.837244
O O14 0.129383 0.990440 0.877365
O O15 0.640146 0.500000 0.500000
O O16 0.635666 0.250000 0.442079
#
# Coordination Sequence:
#
# PCOD8300018 Si02
#       7
#     8   8  16   8  16  16  16
#     4  10  20  34  58  86 114 146 188 232 276 330
#     4   9  18  35  57  83 114 146 182 227 280 331
#     4  10  21  36  55  80 111 144 179 226 281 333
#     4   9  19  35  54  77 107 144 185 229 274 323
#     4  11  22  36  55  78 108 146 188 232 277 329
#     4  10  20  35  58  85 114 148 186 228 275 331
#     4  10  21  37  57  81 110 143 181 228 280 333
#
# _framework density 19.995346000000001
#
# number of rings (size 3 to 8) (size 9 to 14) (size 15 to 20)
#    0.000    2.000    0.000    3.545    0.000    8.000 
#    0.000    2.273    0.000    2.182    0.000    0.000 
#    0.000    0.000    0.000    0.000    0.000    0.000 
#
# Total GULP energy -545184.420673 kJ/mol
# GULP energy per Si atom -12390.555015 kJ/mol
# Density = 1.994984 g / cm^3
# Si number density = 19.995346 Si / 1000 Ang^3
#
#
#
# Elastic Constant Matrix: (Units=GPa)
#
#
# Indices 1 2 3 4 5 6 
#
# 1 103.1256 38.5289 32.7386 0.0000 0.0000 0.0000
# 2 38.5289 114.7305 48.2625 0.0000 0.0000 0.0000
# 3 32.7386 48.2625 111.8516 0.0000 0.0000 0.0000
# 4 0.0000 0.0000 0.0000 21.3548 0.0000 0.0000
# 5 0.0000 0.0000 0.0000 0.0000 -1.4216 0.0000
# 6 0.0000 0.0000 0.0000 0.0000 0.0000 19.8216
#
#
#
# Elastic Compliance Matrix: (Units=1/GPa)
#
#
# Indices 1 2 3 4 5 6 
#
# 1 0.011468 -0.002980 -0.002071 0.000000 0.000000 0.000000
# 2 -0.002980 0.011423 -0.004057 0.000000 0.000000 0.000000
# 3 -0.002071 -0.004057 0.011297 0.000000 0.000000 0.000000
# 4 0.000000 0.000000 0.000000 0.046828 0.000000 0.000000
# 5 0.000000 0.000000 0.000000 0.000000 -0.703436 0.000000
# 6 0.000000 0.000000 0.000000 0.000000 0.000000 0.050450
#
#
# Mechanical properties :
#
#
# Convention : Reuss Voigt Hill
#
# Bulk Modulus (GPa) = 62.60584 63.19640 62.90112
# Shear Modulus (GPa) = -9.11692 21.96279 6.42294
#
# Velocity S-wave (km/s) = -2.13762 3.31780 1.79421
# Velocity P-wave (km/s) = 5.02848 6.80817 5.98485
#
# Compressibility (1/GPa) = 0.01597295
#
# Stress axis : x y z
#
# Youngs Moduli (GPa) = 87.20177 87.54001 88.51936
#
# Poissons Ratio (x) = 0.26087 0.18330
# Poissons Ratio (y) = 0.25986 0.35910
# Poissons Ratio (z) = 0.18057 0.35513
#
# Static dielectric constant tensor:
#      x y z
#    x 3.782050 0.000000 0.000000 
#    y 0.000000 3.467840 0.000000 
#    z 0.000000 0.000000 3.641160 
# 
# 
# High freq. dielectric constant tensor:
#      x y z
#    x 1.768880 0.000000 0.000000 
#    y 0.000000 1.769590 0.000000 
#    z 0.000000 0.000000 1.791260 
# 
# From -- ./inp_files/54558.got.cif
#   From: 2010.03.12/outbox.cif.g09.slc.cpg/sg74_28_cif.got.tgz:54558.got - 2010.04.16 15:46:19.
