data_PCOD8300548
_publ_section_title
;
Structure prediction by ZEFSAII (Michael W. Deem and Ramdas Pophale) SiO2 
 PCOD8300548
Probable space group: I M M A
;
_chemical_formula_sum "Si O2"
_cell_formula_units_Z 96
_cell_length_a 19.223318
_cell_length_b 18.299110
_cell_length_c 14.693547
_cell_angle_alpha 90.000000
_cell_angle_beta 90.000000
_cell_angle_gamma 90.000000
_cell_volume 5168.743307
_symmetry_space_group_name_H-M "I M M A"
_symmetry_group_IT_number 74
_symmetry_cell_setting 'orthorhombic'
loop_
_space_group_symop_operation_xyz
x,y,z
-x,1/2-y,z
x,-y,-z
-x,1/2+y,-z
-x,-y,-z
x,1/2+y,-z
-x,y,z
x,1/2-y,z
1/2+x,1/2+y,1/2+z
1/2-x,-y,1/2+z
1/2+x,1/2-y,1/2-z
1/2-x,y,1/2-z
1/2-x,1/2-y,1/2-z
1/2+x,y,1/2-z
1/2-x,1/2+y,1/2+z
1/2+x,-y,1/2+z
loop_
_atom_site_type_symbol
_atom_site_label
_atom_site_fract_x
_atom_site_fract_y
_atom_site_fract_z
Si Si1 0.919028 0.667010 0.331891
Si Si2 0.318542 0.334114 0.305445
Si Si3 0.657234 0.914543 0.013872
Si Si4 0.421316 0.164803 0.622797
Si Si5 0.421392 0.334148 0.145722
Si Si6 0.315262 0.085787 0.491965
O O1 0.895281 0.750000 0.353358
O O2 0.876805 0.609684 0.391761
O O3 0.903776 0.647576 0.227459
O O4 0.000000 0.658593 0.354737
O O5 0.311095 0.250000 0.338169
O O6 0.250000 0.357923 0.250000
O O7 0.386266 0.344954 0.243493
O O8 0.329920 0.387331 0.390035
O O9 0.621122 0.876482 0.929535
O O10 0.737478 0.891231 0.018984
O O11 0.647999 0.000000 0.000000
O O12 0.500000 0.139773 0.600503
O O13 0.413172 0.250000 0.602773
O O14 0.368480 0.122040 0.560486
O O15 0.500000 0.364266 0.151601
O O16 0.420768 0.250000 0.116465
O O17 0.326407 0.000000 0.500000
#
# Coordination Sequence:
#
# PCOD8300548 Si02
#       6
#    16  16  16  16  16  16
#     4   9  19  37  59  82 111 147 187 236 289 333
#     4  10  20  38  62  82 109 153 196 237 289 340
#     4  11  23  36  53  82 120 157 189 229 284 346
#     4   9  20  40  63  86 112 146 193 244 288 337
#     4  10  21  37  59  87 113 144 194 247 289 341
#     4  11  24  39  56  86 120 154 189 232 288 346
#
# _framework density 18.573180000000001
#
# number of rings (size 3 to 8) (size 9 to 14) (size 15 to 20)
#    0.000    2.000    1.667    2.500    0.000    7.667 
#    0.000    5.000    0.000    0.000    0.000    0.000 
#    0.000    0.000    0.000    0.000    0.000    0.000 
#
# Total GULP energy -595337.075350 kJ/mol
# GULP energy per Si atom -12402.855736 kJ/mol
# Density = 1.853091 g / cm^3
# Si number density = 18.573180 Si / 1000 Ang^3
#
#
#
# Elastic Constant Matrix: (Units=GPa)
#
#
# Indices 1 2 3 4 5 6 
#
# 1 137.3093 76.4471 85.4561 0.0000 0.0000 0.0000
# 2 76.4471 78.9722 71.8224 0.0000 0.0000 0.0000
# 3 85.4561 71.8224 125.4571 0.0000 0.0000 0.0000
# 4 0.0000 0.0000 0.0000 56.3973 0.0000 0.0000
# 5 0.0000 0.0000 0.0000 0.0000 33.0013 0.0000
# 6 0.0000 0.0000 0.0000 0.0000 0.0000 30.1656
#
#
#
# Elastic Compliance Matrix: (Units=1/GPa)
#
#
# Indices 1 2 3 4 5 6 
#
# 1 0.016924 -0.012306 -0.004483 0.000000 0.000000 0.000000
# 2 -0.012306 0.035364 -0.011863 0.000000 0.000000 0.000000
# 3 -0.004483 -0.011863 0.017816 0.000000 0.000000 0.000000
# 4 0.000000 0.000000 0.000000 0.017731 0.000000 0.000000
# 5 0.000000 0.000000 0.000000 0.000000 0.030302 0.000000
# 6 0.000000 0.000000 0.000000 0.000000 0.000000 0.033150
#
#
# Mechanical properties :
#
#
# Convention : Reuss Voigt Hill
#
# Bulk Modulus (GPa) = 78.12459 89.90998 84.01728
# Shear Modulus (GPa) = 23.48961 31.11371 27.30166
#
# Velocity S-wave (km/s) = 3.56013 4.09736 3.83815
# Velocity P-wave (km/s) = 7.68465 8.42010 8.06076
#
# Compressibility (1/GPa) = 0.01280007
#
# Stress axis : x y z
#
# Youngs Moduli (GPa) = 59.08665 28.27698 56.12853
#
# Poissons Ratio (x) = 0.34797 0.25163
# Poissons Ratio (y) = 0.72711 0.66588
# Poissons Ratio (z) = 0.26490 0.33546
#
# Static dielectric constant tensor:
#      x y z
#    x 3.592720 0.000000 0.000000 
#    y 0.000000 3.396670 0.000000 
#    z 0.000000 0.000000 3.482800 
# 
# 
# High freq. dielectric constant tensor:
#      x y z
#    x 1.731050 0.000000 0.000000 
#    y 0.000000 1.715150 0.000000 
#    z 0.000000 0.000000 1.727610 
# 
# From -- ./inp_files/35237.got.cif
#   From: 2010.03.12/outbox.cif.g09.slc.cpg/sg74_18_cif.got.tgz:35237.got - 2010.04.16 15:46:19.
