data_PCOD8300462
_publ_section_title
;
Structure prediction by ZEFSAII (Michael W. Deem and Ramdas Pophale) SiO2 
 PCOD8300462
Probable space group: I M M A
;
_chemical_formula_sum "Si O2"
_cell_formula_units_Z 88
_cell_length_a 10.254691
_cell_length_b 28.068099
_cell_length_c 15.493745
_cell_angle_alpha 90.000000
_cell_angle_beta 90.000000
_cell_angle_gamma 90.000000
_cell_volume 4459.559699
_symmetry_space_group_name_H-M "I M M A"
_symmetry_group_IT_number 74
_symmetry_cell_setting 'orthorhombic'
loop_
_space_group_symop_operation_xyz
x,y,z
-x,1/2-y,z
x,-y,-z
-x,1/2+y,-z
-x,-y,-z
x,1/2+y,-z
-x,y,z
x,1/2-y,z
1/2+x,1/2+y,1/2+z
1/2-x,-y,1/2+z
1/2+x,1/2-y,1/2-z
1/2-x,y,1/2-z
1/2-x,1/2-y,1/2-z
1/2+x,y,1/2-z
1/2-x,1/2+y,1/2+z
1/2+x,-y,1/2+z
loop_
_atom_site_type_symbol
_atom_site_label
_atom_site_fract_x
_atom_site_fract_y
_atom_site_fract_z
Si Si1 0.148823 0.987409 0.679490
Si Si2 0.647700 0.585197 0.099578
Si Si3 0.750000 0.852095 0.250000
Si Si4 0.000000 0.193770 0.837912
Si Si5 0.753233 0.803571 0.646924
Si Si6 0.853257 0.103175 0.416538
Si Si7 0.500000 0.694111 0.537680
O O1 0.250000 0.005642 0.750000
O O2 0.206753 0.936612 0.646925
O O3 0.000000 0.983007 0.715606
O O4 0.154406 0.027925 0.606213
O O5 0.500000 0.603594 0.104228
O O6 0.722852 0.612801 0.172411
O O7 0.716011 0.600733 0.009615
O O8 0.872231 0.820757 0.217303
O O9 0.000000 0.250000 0.844416
O O10 0.000000 0.173508 0.938510
O O11 0.792846 0.750000 0.616366
O O12 0.750000 0.803742 0.750000
O O13 0.857717 0.843371 0.621058
O O14 0.622847 0.821114 0.597324
O O15 0.000000 0.085213 0.431152
O O16 0.500000 0.750000 0.529276
#
# Coordination Sequence:
#
# PCOD8300462 Si02
#       7
#    16  16   8   8  16  16   8
#     4  10  20  37  60  85 117 154 192 240 295 358
#     4  10  20  37  60  87 115 154 199 244 299 359
#     4  12  21  38  64  88 118 160 203 254 298 366
#     4  11  24  40  62  90 125 163 207 254 310 362
#     4  10  21  37  59  85 116 156 201 244 294 363
#     4  10  21  36  57  85 117 150 193 244 301 353
#     4   9  20  40  60  82 118 161 196 244 310 362
#
# _framework density 19.732889
#
# number of rings (size 3 to 8) (size 9 to 14) (size 15 to 20)
#    0.000    1.818    1.818    2.455    1.273    2.545 
#    1.636    0.909    0.000    1.091    0.000    0.000 
#    0.000    0.000    0.000    0.000    0.000    0.000 
#
# Total GULP energy -545095.161399 kJ/mol
# GULP energy per Si atom -12388.526395 kJ/mol
# Density = 1.968798 g / cm^3
# Si number density = 19.732889 Si / 1000 Ang^3
#
#
#
# Elastic Constant Matrix: (Units=GPa)
#
#
# Indices 1 2 3 4 5 6 
#
# 1 72.6568 23.5297 37.8874 0.0002 0.0000 0.0001
# 2 23.5297 118.9938 39.5714 -0.0017 0.0001 0.0001
# 3 37.8874 39.5714 113.0183 -0.0107 0.0004 0.0002
# 4 0.0002 -0.0017 -0.0107 -86.7848 0.0006 0.0032
# 5 0.0000 0.0001 0.0004 0.0006 26.0545 -0.0002
# 6 0.0001 0.0001 0.0002 0.0032 -0.0002 28.5031
#
#
#
# Elastic Compliance Matrix: (Units=1/GPa)
#
#
# Indices 1 2 3 4 5 6 
#
# 1 0.016962 -0.001656 -0.005107 0.000001 0.000000 0.000000
# 2 -0.001656 0.009673 -0.002832 0.000000 0.000000 0.000000
# 3 -0.005107 -0.002832 0.011551 -0.000001 0.000000 0.000000
# 4 0.000001 0.000000 -0.000001 -0.011523 0.000000 0.000001
# 5 0.000000 0.000000 0.000000 0.000000 0.038381 0.000000
# 6 0.000000 0.000000 0.000000 0.000001 0.000000 0.035084
#
#
# Mechanical properties :
#
#
# Convention : Reuss Voigt Hill
#
# Bulk Modulus (GPa) = 52.63579 56.29398 54.46489
# Shear Modulus (GPa) = 39.79295 7.13324 23.46310
#
# Velocity S-wave (km/s) = 4.49551 1.90335 3.45198
# Velocity P-wave (km/s) = 7.32654 5.78103 6.59918
#
# Compressibility (1/GPa) = 0.01899848
#
# Stress axis : x y z
#
# Youngs Moduli (GPa) = 58.95366 103.38136 86.56902
#
# Poissons Ratio (x) = 0.17119 0.44207
# Poissons Ratio (y) = 0.09762 0.24514
# Poissons Ratio (z) = 0.30105 0.29274
#
# Static dielectric constant tensor:
#      x y z
#    x 3.605120 0.000000 0.000000 
#    y 0.000000 3.573440 0.000000 
#    z 0.000000 0.000000 3.967210 
# 
# 
# High freq. dielectric constant tensor:
#      x y z
#    x 1.748650 0.000000 0.000000 
#    y 0.000000 1.775950 0.000000 
#    z 0.000000 0.000000 1.778160 
# 
# From -- ./inp_files/19103.got.cif
#   From: 2010.03.12/outbox.cif.g09.slc.cpg/sg74_10_cif.got.tgz:19103.got - 2010.04.16 15:46:19.
