data_PCOD8300594
_publ_section_title
;
Structure prediction by ZEFSAII (Michael W. Deem and Ramdas Pophale) SiO2 
 PCOD8300594
Probable space group: I M M A
;
_chemical_formula_sum "Si O2"
_cell_formula_units_Z 88
_cell_length_a 21.974366
_cell_length_b 8.809494
_cell_length_c 23.042724
_cell_angle_alpha 90.000000
_cell_angle_beta 90.000000
_cell_angle_gamma 90.000000
_cell_volume 4460.680687
_symmetry_space_group_name_H-M "I M M A"
_symmetry_group_IT_number 74
_symmetry_cell_setting 'orthorhombic'
loop_
_space_group_symop_operation_xyz
x,y,z
-x,1/2-y,z
x,-y,-z
-x,1/2+y,-z
-x,-y,-z
x,1/2+y,-z
-x,y,z
x,1/2-y,z
1/2+x,1/2+y,1/2+z
1/2-x,-y,1/2+z
1/2+x,1/2-y,1/2-z
1/2-x,y,1/2-z
1/2-x,1/2-y,1/2-z
1/2+x,y,1/2-z
1/2-x,1/2+y,1/2+z
1/2+x,-y,1/2+z
loop_
_atom_site_type_symbol
_atom_site_label
_atom_site_fract_x
_atom_site_fract_y
_atom_site_fract_z
Si Si1 0.428272 0.580257 0.557440
Si Si2 0.000000 0.570874 0.436123
Si Si3 0.259405 0.069892 0.060321
Si Si4 0.841834 0.575711 0.136761
Si Si5 0.684326 0.924732 0.236210
Si Si6 0.127827 0.430536 0.617223
O O1 0.403394 0.500000 0.500000
O O2 0.500000 0.582392 0.559631
O O3 0.401277 0.750000 0.559170
O O4 0.404911 0.483349 0.611102
O O5 0.000000 0.500000 0.500000
O O6 0.059282 0.518547 0.399232
O O7 0.000000 0.750000 0.444558
O O8 0.260443 0.250000 0.056134
O O9 0.215308 0.019055 0.112694
O O10 0.327064 0.007441 0.071260
O O11 0.234944 0.000000 0.000000
O O12 0.829686 0.750000 0.120794
O O13 0.853775 0.554340 0.205142
O O14 0.696791 0.750000 0.220382
O O15 0.750000 0.002439 0.250000
O O16 0.646664 0.992925 0.181683
O O17 0.134056 0.250000 0.613008
#
# Coordination Sequence:
#
# PCOD8300594 Si02
#       6
#    16   8  16  16  16  16
#     4  10  21  38  58  81 114 152 190 236 287 343
#     4  10  22  38  62  88 118 156 197 248 297 352
#     4  12  24  37  56  85 116 151 190 238 293 351
#     4  11  21  36  59  86 115 150 190 238 287 346
#     4   9  17  34  60  85 113 149 188 234 287 342
#     4  10  20  39  61  86 117 153 196 242 295 350
#
# _framework density 19.727930000000001
#
# number of rings (size 3 to 8) (size 9 to 14) (size 15 to 20)
#    0.000    1.636    1.818    3.818    0.000    3.273 
#    1.636    2.727    0.000    0.000    0.000    0.000 
#    0.000    0.000    0.000    0.000    0.000    0.000 
#
# Total GULP energy -545518.988005 kJ/mol
# GULP energy per Si atom -12398.158818 kJ/mol
# Density = 1.968303 g / cm^3
# Si number density = 19.727930 Si / 1000 Ang^3
#
#
#
# Elastic Constant Matrix: (Units=GPa)
#
#
# Indices 1 2 3 4 5 6 
#
# 1 78.1478 25.4921 55.1601 0.0000 0.0000 0.0000
# 2 25.4921 79.6781 42.1957 0.0000 0.0000 0.0000
# 3 55.1601 42.1957 128.4509 0.0000 0.0000 0.0000
# 4 0.0000 0.0000 0.0000 24.9222 0.0000 0.0000
# 5 0.0000 0.0000 0.0000 0.0000 27.3922 0.0000
# 6 0.0000 0.0000 0.0000 0.0000 0.0000 27.0033
#
#
#
# Elastic Compliance Matrix: (Units=1/GPa)
#
#
# Indices 1 2 3 4 5 6 
#
# 1 0.018645 -0.002088 -0.007320 0.000000 0.000000 0.000000
# 2 -0.002088 0.015428 -0.004171 0.000000 0.000000 0.000000
# 3 -0.007320 -0.004171 0.012299 0.000000 0.000000 0.000000
# 4 0.000000 0.000000 0.000000 0.040125 0.000000 0.000000
# 5 0.000000 0.000000 0.000000 0.000000 0.036507 0.000000
# 6 0.000000 0.000000 0.000000 0.000000 0.000000 0.037033
#
#
# Mechanical properties :
#
#
# Convention : Reuss Voigt Hill
#
# Bulk Modulus (GPa) = 52.05305 59.10805 55.58055
# Shear Modulus (GPa) = 25.82661 26.75878 26.29270
#
# Velocity S-wave (km/s) = 3.62213 3.68692 3.65467
# Velocity P-wave (km/s) = 6.62841 6.93910 6.78553
#
# Compressibility (1/GPa) = 0.01921117
#
# Stress axis : x y z
#
# Youngs Moduli (GPa) = 53.63487 64.81906 81.30845
#
# Poissons Ratio (x) = 0.13537 0.59521
# Poissons Ratio (y) = 0.11201 0.33914
# Poissons Ratio (z) = 0.39263 0.27037
#
# Static dielectric constant tensor:
#      x y z
#    x 3.608820 0.000000 0.000000 
#    y 0.000000 3.529430 0.000000 
#    z 0.000000 0.000000 3.937010 
# 
# 
# High freq. dielectric constant tensor:
#      x y z
#    x 1.767640 0.000000 0.000000 
#    y 0.000000 1.751410 0.000000 
#    z 0.000000 0.000000 1.777880 
# 
# From -- ./inp_files/48785.got.cif
#   From: 2010.03.12/outbox.cif.g09.slc.cpg/sg74_25_cif.got.tgz:48785.got - 2010.04.16 15:46:19.
