data_PCOD8300159
_publ_section_title
;
Structure prediction by ZEFSAII (Michael W. Deem and Ramdas Pophale) SiO2 
 PCOD8300159
Probable space group: I M M A
;
_chemical_formula_sum "Si O2"
_cell_formula_units_Z 96
_cell_length_a 18.392493
_cell_length_b 24.812011
_cell_length_c 11.422346
_cell_angle_alpha 90.000000
_cell_angle_beta 90.000000
_cell_angle_gamma 90.000000
_cell_volume 5212.641723
_symmetry_space_group_name_H-M "I M M A"
_symmetry_group_IT_number 74
_symmetry_cell_setting 'orthorhombic'
loop_
_space_group_symop_operation_xyz
x,y,z
-x,1/2-y,z
x,-y,-z
-x,1/2+y,-z
-x,-y,-z
x,1/2+y,-z
-x,y,z
x,1/2-y,z
1/2+x,1/2+y,1/2+z
1/2-x,-y,1/2+z
1/2+x,1/2-y,1/2-z
1/2-x,y,1/2-z
1/2-x,1/2-y,1/2-z
1/2+x,y,1/2-z
1/2-x,1/2+y,1/2+z
1/2+x,-y,1/2+z
loop_
_atom_site_type_symbol
_atom_site_label
_atom_site_fract_x
_atom_site_fract_y
_atom_site_fract_z
Si Si1 0.178680 0.891764 0.976865
Si Si2 0.420970 0.039612 0.633839
Si Si3 0.581770 0.114032 0.839562
Si Si4 0.165432 0.938349 0.543817
Si Si5 0.823650 0.687515 0.181274
Si Si6 0.582610 0.077488 0.284333
O O1 0.254423 0.915945 0.931807
O O2 0.128630 0.879813 0.862213
O O3 0.145117 0.936281 0.062588
O O4 0.184723 0.836805 0.050878
O O5 0.500000 0.057140 0.581117
O O6 0.417067 0.058383 0.768157
O O7 0.414869 0.975440 0.633882
O O8 0.500000 0.129710 0.877884
O O9 0.611591 0.161513 0.756547
O O10 0.630183 0.103514 0.952931
O O11 0.119129 0.934436 0.661134
O O12 0.166384 0.000000 0.500000
O O13 0.841228 0.750000 0.166453
O O14 0.750000 0.676243 0.250000
O O15 0.500000 0.097626 0.264631
#
# Coordination Sequence:
#
# PCOD8300159 Si02
#       6
#    16  16  16  16  16  16
#     4  11  22  35  55  85 113 147 192 247 294 340
#     4   9  18  33  52  76 112 154 191 230 282 343
#     4  10  20  35  56  85 117 150 192 238 285 341
#     4  12  22  34  54  82 122 163 199 232 277 345
#     4  10  21  41  66  87 110 143 189 246 306 352
#     4  11  22  35  52  77 117 163 198 229 278 347
#
# _framework density 18.416765999999999
#
# number of rings (size 3 to 8) (size 9 to 14) (size 15 to 20)
#    0.000    1.500    3.333    3.000    0.000    3.000 
#    0.000    0.000    0.000    3.000    0.000    0.000 
#    0.000    0.000    0.000    0.000    0.000    0.000 
#
# Total GULP energy -595110.348585 kJ/mol
# GULP energy per Si atom -12398.132262 kJ/mol
# Density = 1.837485 g / cm^3
# Si number density = 18.416766 Si / 1000 Ang^3
#
#
#
# Elastic Constant Matrix: (Units=GPa)
#
#
# Indices 1 2 3 4 5 6 
#
# 1 135.6136 30.1446 43.5361 0.0000 0.0000 0.0000
# 2 30.1446 75.2536 33.6607 0.0000 0.0000 0.0000
# 3 43.5361 33.6607 74.3501 0.0000 0.0000 0.0000
# 4 0.0000 0.0000 0.0000 20.7874 0.0000 0.0000
# 5 0.0000 0.0000 0.0000 0.0000 33.7457 0.0000
# 6 0.0000 0.0000 0.0000 0.0000 0.0000 15.0150
#
#
#
# Elastic Compliance Matrix: (Units=1/GPa)
#
#
# Indices 1 2 3 4 5 6 
#
# 1 0.009233 -0.001605 -0.004680 0.000000 0.000000 0.000000
# 2 -0.001605 0.016942 -0.006730 0.000000 0.000000 0.000000
# 3 -0.004680 -0.006730 0.019237 0.000000 0.000000 0.000000
# 4 0.000000 0.000000 0.000000 0.048106 0.000000 0.000000
# 5 0.000000 0.000000 0.000000 0.000000 0.029633 0.000000
# 6 0.000000 0.000000 0.000000 0.000000 0.000000 0.066600
#
#
# Mechanical properties :
#
#
# Convention : Reuss Voigt Hill
#
# Bulk Modulus (GPa) = 51.59507 55.54442 53.56974
# Shear Modulus (GPa) = 22.49799 25.76801 24.13300
#
# Velocity S-wave (km/s) = 3.49894 3.74459 3.62385
# Velocity P-wave (km/s) = 6.66329 6.99437 6.83084
#
# Compressibility (1/GPa) = 0.01938170
#
# Stress axis : x y z
#
# Youngs Moduli (GPa) = 108.30665 59.02561 51.98309
#
# Poissons Ratio (x) = 0.09475 0.24326
# Poissons Ratio (y) = 0.17387 0.34985
# Poissons Ratio (z) = 0.50684 0.39725
#
# Static dielectric constant tensor:
#      x y z
#    x 3.605240 0.000000 0.000000 
#    y 0.000000 3.081180 0.000000 
#    z 0.000000 0.000000 3.447990 
# 
# 
# High freq. dielectric constant tensor:
#      x y z
#    x 1.734320 0.000000 0.000000 
#    y 0.000000 1.668760 0.000000 
#    z 0.000000 0.000000 1.723110 
# 
# From -- ./inp_files/22442.got.cif
#   From: 2010.03.12/outbox.cif.g09.slc.cpg/sg74_12_cif.got.tgz:22442.got - 2010.04.16 15:46:19.
