data_PCOD8300606
_publ_section_title
;
Structure prediction by ZEFSAII (Michael W. Deem and Ramdas Pophale) SiO2 
 PCOD8300606
Probable space group: I M M A
;
_chemical_formula_sum "Si O2"
_cell_formula_units_Z 48
_cell_length_a 8.678138
_cell_length_b 7.421588
_cell_length_c 37.794262
_cell_angle_alpha 90.000000
_cell_angle_beta 90.000000
_cell_angle_gamma 90.000000
_cell_volume 2434.160792
_symmetry_space_group_name_H-M "I M M A"
_symmetry_group_IT_number 74
_symmetry_cell_setting 'orthorhombic'
loop_
_space_group_symop_operation_xyz
x,y,z
-x,1/2-y,z
x,-y,-z
-x,1/2+y,-z
-x,-y,-z
x,1/2+y,-z
-x,y,z
x,1/2-y,z
1/2+x,1/2+y,1/2+z
1/2-x,-y,1/2+z
1/2+x,1/2-y,1/2-z
1/2-x,y,1/2-z
1/2-x,1/2-y,1/2-z
1/2+x,y,1/2-z
1/2-x,1/2+y,1/2+z
1/2+x,-y,1/2+z
loop_
_atom_site_type_symbol
_atom_site_label
_atom_site_fract_x
_atom_site_fract_y
_atom_site_fract_z
Si Si1 0.177561 0.041372 0.039787
Si Si2 0.819370 0.750000 0.164060
Si Si3 0.321175 0.250000 0.911865
Si Si4 0.181063 0.043153 0.287008
O O1 0.201283 0.250000 0.048834
O O2 0.000000 0.982232 0.044549
O O3 0.283793 0.928609 0.065992
O O4 0.231381 0.000000 0.000000
O O5 0.781959 0.750000 0.122910
O O6 0.749529 0.570564 0.181044
O O7 0.000000 0.750000 0.170067
O O8 0.500000 0.250000 0.901456
O O9 0.227174 0.250000 0.293771
O O10 0.250000 0.973855 0.250000
O O11 0.000000 0.014587 0.285561
#
# Coordination Sequence:
#
# PCOD8300606 Si02
#       4
#    16   8   8  16
#     4  10  20  39  66  90 116 153 198 245 294 356
#     4  12  25  41  62  86 121 164 208 252 302 361
#     4  12  26  41  59  88 126 160 199 250 307 365
#     4  10  21  39  64  93 125 161 203 250 300 356
#
# _framework density 19.719321000000001
#
# number of rings (size 3 to 8) (size 9 to 14) (size 15 to 20)
#    0.000    1.333    1.667    4.500    0.000    4.667 
#    0.000    0.000    0.000    0.000    0.000    0.000 
#    0.000    0.000    0.000    0.000    0.000    0.000 
#
# Total GULP energy -297770.944144 kJ/mol
# GULP energy per Si atom -12407.122673 kJ/mol
# Density = 1.967444 g / cm^3
# Si number density = 19.719321 Si / 1000 Ang^3
#
#
#
# Elastic Constant Matrix: (Units=GPa)
#
#
# Indices 1 2 3 4 5 6 
#
# 1 78.1957 33.2073 24.6141 0.0000 0.0000 0.0000
# 2 33.2073 111.0103 49.7458 0.0000 0.0000 0.0000
# 3 24.6141 49.7458 114.0079 0.0000 0.0000 0.0000
# 4 0.0000 0.0000 0.0000 24.4791 0.0000 0.0000
# 5 0.0000 0.0000 0.0000 0.0000 35.8825 0.0000
# 6 0.0000 0.0000 0.0000 0.0000 0.0000 32.1543
#
#
#
# Elastic Compliance Matrix: (Units=1/GPa)
#
#
# Indices 1 2 3 4 5 6 
#
# 1 0.014874 -0.003742 -0.001579 0.000000 0.000000 0.000000
# 2 -0.003742 0.012139 -0.004489 0.000000 0.000000 0.000000
# 3 -0.001579 -0.004489 0.011071 0.000000 0.000000 0.000000
# 4 0.000000 0.000000 0.000000 0.040851 0.000000 0.000000
# 5 0.000000 0.000000 0.000000 0.000000 0.027869 0.000000
# 6 0.000000 0.000000 0.000000 0.000000 0.000000 0.031100
#
#
# Mechanical properties :
#
#
# Convention : Reuss Voigt Hill
#
# Bulk Modulus (GPa) = 54.15546 57.59426 55.87486
# Shear Modulus (GPa) = 30.54769 31.54628 31.04698
#
# Velocity S-wave (km/s) = 3.94016 4.00405 3.97223
# Velocity P-wave (km/s) = 6.94425 7.11667 7.03099
#
# Compressibility (1/GPa) = 0.01846536
#
# Stress axis : x y z
#
# Youngs Moduli (GPa) = 67.22924 82.37838 90.32806
#
# Poissons Ratio (x) = 0.30827 0.14259
# Poissons Ratio (y) = 0.25158 0.40547
# Poissons Ratio (z) = 0.10612 0.36978
#
# Static dielectric constant tensor:
#      x y z
#    x 3.582270 0.000000 0.000000 
#    y 0.000000 3.631800 0.000000 
#    z 0.000000 0.000000 3.556170 
# 
# 
# High freq. dielectric constant tensor:
#      x y z
#    x 1.772130 0.000000 0.000000 
#    y 0.000000 1.784030 0.000000 
#    z 0.000000 0.000000 1.767760 
# 
# From -- ./inp_files/69527.got.cif
#   From: 2010.03.12/outbox.cif.g09.slc.cpg/sg74_35_cif.got.tgz:69527.got - 2010.04.16 15:46:19.
