data_PCOD8300808
_publ_section_title
;
Structure prediction by ZEFSAII (Michael W. Deem and Ramdas Pophale) SiO2 
 PCOD8300808
Probable space group: I M M A
;
_chemical_formula_sum "Si O2"
_cell_formula_units_Z 80
_cell_length_a 17.199714
_cell_length_b 9.658913
_cell_length_c 25.097047
_cell_angle_alpha 90.000000
_cell_angle_beta 90.000000
_cell_angle_gamma 90.000000
_cell_volume 4169.385999
_symmetry_space_group_name_H-M "I M M A"
_symmetry_group_IT_number 74
_symmetry_cell_setting 'orthorhombic'
loop_
_space_group_symop_operation_xyz
x,y,z
-x,1/2-y,z
x,-y,-z
-x,1/2+y,-z
-x,-y,-z
x,1/2+y,-z
-x,y,z
x,1/2-y,z
1/2+x,1/2+y,1/2+z
1/2-x,-y,1/2+z
1/2+x,1/2-y,1/2-z
1/2-x,y,1/2-z
1/2-x,1/2-y,1/2-z
1/2+x,y,1/2-z
1/2-x,1/2+y,1/2+z
1/2+x,-y,1/2+z
loop_
_atom_site_type_symbol
_atom_site_label
_atom_site_fract_x
_atom_site_fract_y
_atom_site_fract_z
Si Si1 0.724325 0.250000 0.971844
Si Si2 0.910047 0.250000 0.607671
Si Si3 0.585053 0.750000 0.372202
Si Si4 0.652128 0.972096 0.442568
Si Si5 0.839572 0.750000 0.234429
Si Si6 0.308413 0.250000 0.199383
Si Si7 0.222643 0.750000 0.911939
Si Si8 0.590917 0.475411 0.804898
O O1 0.638160 0.250000 0.947082
O O2 0.768249 0.113665 0.951188
O O3 0.719547 0.250000 0.036490
O O4 0.889633 0.387367 0.641864
O O5 0.000000 0.250000 0.591346
O O6 0.500000 0.750000 0.345078
O O7 0.591224 0.886590 0.408036
O O8 0.654271 0.750000 0.329300
O O9 0.613267 0.000000 0.500000
O O10 0.668596 0.115217 0.412796
O O11 0.750000 0.750000 0.250000
O O12 0.883419 0.613981 0.254351
O O13 0.250000 0.250000 0.250000
O O14 0.264976 0.250000 0.143797
O O15 0.362283 0.116252 0.198978
O O16 0.500000 0.508742 0.801548
#
# Coordination Sequence:
#
# PCOD8300808 Si02
#       8
#     8   8   8  16   8   8   8  16
#     4   9  17  35  60  85 116 157 196 245 289 345
#     4   9  18  34  62  91 116 155 199 245 301 357
#     4  11  24  40  64  91 119 152 194 245 300 357
#     4   9  20  37  61  87 117 155 192 236 296 355
#     4  11  24  39  65  92 110 151 209 254 284 342
#     4  12  25  36  57  87 115 161 206 244 293 359
#     4  10  21  36  56  87 120 153 202 246 287 339
#     4  10  22  40  58  84 125 158 189 245 309 353
#
# _framework density 19.187477999999999
#
# number of rings (size 3 to 8) (size 9 to 14) (size 15 to 20)
#    0.000    2.000    0.000    4.200   11.200    0.400 
#    0.000    1.500    0.000    7.800    0.000    0.000 
#    0.000    0.000    0.000    0.000    0.000    0.000 
#
# Total GULP energy -495969.922231 kJ/mol
# GULP energy per Si atom -12399.248056 kJ/mol
# Density = 1.914381 g / cm^3
# Si number density = 19.187478 Si / 1000 Ang^3
#
#
#
# Elastic Constant Matrix: (Units=GPa)
#
#
# Indices 1 2 3 4 5 6 
#
# 1 102.7193 48.7282 58.5476 0.0000 0.0000 0.0000
# 2 48.7282 163.5508 46.4166 0.0000 0.0000 0.0000
# 3 58.5476 46.4166 120.2133 0.0000 0.0000 0.0000
# 4 0.0000 0.0000 0.0000 14.0506 0.0000 0.0000
# 5 0.0000 0.0000 0.0000 0.0000 32.0199 0.0000
# 6 0.0000 0.0000 0.0000 0.0000 0.0000 47.2475
#
#
#
# Elastic Compliance Matrix: (Units=1/GPa)
#
#
# Indices 1 2 3 4 5 6 
#
# 1 0.014385 -0.002580 -0.006009 0.000000 0.000000 0.000000
# 2 -0.002580 0.007330 -0.001573 0.000000 0.000000 0.000000
# 3 -0.006009 -0.001573 0.011853 0.000000 0.000000 0.000000
# 4 0.000000 0.000000 0.000000 0.071171 0.000000 0.000000
# 5 0.000000 0.000000 0.000000 0.000000 0.031231 0.000000
# 6 0.000000 0.000000 0.000000 0.000000 0.000000 0.021165
#
#
# Mechanical properties :
#
#
# Convention : Reuss Voigt Hill
#
# Bulk Modulus (GPa) = 75.52417 77.09645 76.31031
# Shear Modulus (GPa) = 27.49162 34.18302 30.83732
#
# Velocity S-wave (km/s) = 3.78933 4.22539 4.01329
# Velocity P-wave (km/s) = 7.65454 8.00457 7.83151
#
# Compressibility (1/GPa) = 0.01324079
#
# Stress axis : x y z
#
# Youngs Moduli (GPa) = 69.51918 136.43298 84.36767
#
# Poissons Ratio (x) = 0.35202 0.50700
# Poissons Ratio (y) = 0.17937 0.13275
# Poissons Ratio (z) = 0.41777 0.21467
#
# Static dielectric constant tensor:
#      x y z
#    x 3.303300 0.000000 0.000000 
#    y 0.000000 3.603130 0.000000 
#    z 0.000000 0.000000 3.914500 
# 
# 
# High freq. dielectric constant tensor:
#      x y z
#    x 1.730620 0.000000 0.000000 
#    y 0.000000 1.762470 0.000000 
#    z 0.000000 0.000000 1.747990 
# 
# From -- ./inp_files/67616.got.cif
#   From: 2010.03.12/outbox.cif.g09.slc.cpg/sg74_34_cif.got.tgz:67616.got - 2010.04.16 15:46:19.
