data_PCOD8300536
_publ_section_title
;
Structure prediction by ZEFSAII (Michael W. Deem and Ramdas Pophale) SiO2 
 PCOD8300536
Probable space group: I M M A
;
_chemical_formula_sum "Si O2"
_cell_formula_units_Z 88
_cell_length_a 15.186891
_cell_length_b 25.488139
_cell_length_c 11.305772
_cell_angle_alpha 90.000000
_cell_angle_beta 90.000000
_cell_angle_gamma 90.000000
_cell_volume 4376.301411
_symmetry_space_group_name_H-M "I M M A"
_symmetry_group_IT_number 74
_symmetry_cell_setting 'orthorhombic'
loop_
_space_group_symop_operation_xyz
x,y,z
-x,1/2-y,z
x,-y,-z
-x,1/2+y,-z
-x,-y,-z
x,1/2+y,-z
-x,y,z
x,1/2-y,z
1/2+x,1/2+y,1/2+z
1/2-x,-y,1/2+z
1/2+x,1/2-y,1/2-z
1/2-x,y,1/2-z
1/2-x,1/2-y,1/2-z
1/2+x,y,1/2-z
1/2-x,1/2+y,1/2+z
1/2+x,-y,1/2+z
loop_
_atom_site_type_symbol
_atom_site_label
_atom_site_fract_x
_atom_site_fract_y
_atom_site_fract_z
Si Si1 0.902544 0.409959 0.841336
Si Si2 0.000000 0.807596 0.522760
Si Si3 0.250000 0.652844 0.250000
Si Si4 0.000000 0.808233 0.800016
Si Si5 0.807816 0.189857 0.508888
Si Si6 0.152945 0.872476 0.911964
Si Si7 0.803803 0.010968 0.131244
O O1 0.834201 0.385519 0.749293
O O2 0.886540 0.471492 0.866391
O O3 0.000000 0.402650 0.789468
O O4 0.893010 0.377189 0.961562
O O5 0.000000 0.802898 0.661707
O O6 0.907374 0.834716 0.483699
O O7 0.000000 0.750000 0.463101
O O8 0.239380 0.689486 0.363706
O O9 0.911002 0.838287 0.832118
O O10 0.000000 0.750000 0.858542
O O11 0.811659 0.250000 0.463086
O O12 0.748873 0.155183 0.419636
O O13 0.165216 0.929501 0.854360
O O14 0.750000 0.996637 0.250000
O O15 0.757267 0.000000 0.000000
#
# Coordination Sequence:
#
# PCOD8300536 Si02
#       7
#    16   8   8   8  16  16  16
#     4  10  20  38  60  88 121 153 196 256 309 364
#     4   9  22  38  55  79 117 155 197 246 309 365
#     4  10  21  36  62  88 118 158 205 248 310 386
#     4  11  22  38  56  87 123 157 202 258 308 363
#     4  10  21  40  59  85 119 163 206 256 309 370
#     4  10  22  36  61  87 116 156 209 250 304 365
#     4  10  22  39  62  91 125 160 208 257 314 373
#
# _framework density 20.108304
#
# number of rings (size 3 to 8) (size 9 to 14) (size 15 to 20)
#    0.000    2.000    1.818    0.818    5.091    1.091 
#    0.000    2.727    0.000    0.545    0.000    0.000 
#    0.000    0.000    0.000    0.000    0.000    0.000 
#
# Total GULP energy -545241.435579 kJ/mol
# GULP energy per Si atom -12391.850809 kJ/mol
# Density = 2.006254 g / cm^3
# Si number density = 20.108304 Si / 1000 Ang^3
#
#
#
# Elastic Constant Matrix: (Units=GPa)
#
#
# Indices 1 2 3 4 5 6 
#
# 1 165.2376 44.0621 25.7995 0.0001 0.0000 0.0000
# 2 44.0621 106.6567 12.0570 0.0007 0.0000 -0.0002
# 3 25.7995 12.0570 63.7381 0.0020 -0.0002 -0.0005
# 4 0.0001 0.0007 0.0020 17.3735 -0.0001 -0.0003
# 5 0.0000 0.0000 -0.0002 -0.0001 29.5994 0.0000
# 6 0.0000 -0.0002 -0.0005 -0.0003 0.0000 20.3074
#
#
#
# Elastic Compliance Matrix: (Units=1/GPa)
#
#
# Indices 1 2 3 4 5 6 
#
# 1 0.007138 -0.002680 -0.002383 0.000000 0.000000 0.000000
# 2 -0.002680 0.010587 -0.000918 0.000000 0.000000 0.000000
# 3 -0.002383 -0.000918 0.016827 -0.000002 0.000000 0.000000
# 4 0.000000 0.000000 -0.000002 0.057559 0.000000 0.000001
# 5 0.000000 0.000000 0.000000 0.000000 0.033784 0.000000
# 6 0.000000 0.000000 0.000000 0.000001 0.000000 0.049243
#
#
# Mechanical properties :
#
#
# Convention : Reuss Voigt Hill
#
# Bulk Modulus (GPa) = 44.26352 55.49662 49.88007
# Shear Modulus (GPa) = 25.68977 30.37032 28.03004
#
# Velocity S-wave (km/s) = 3.57819 3.89052 3.73762
# Velocity P-wave (km/s) = 6.25552 6.91667 6.59439
#
# Compressibility (1/GPa) = 0.02259197
#
# Stress axis : x y z
#
# Youngs Moduli (GPa) = 140.08617 94.45822 59.42744
#
# Poissons Ratio (x) = 0.25312 0.14159
# Poissons Ratio (y) = 0.37539 0.05455
# Poissons Ratio (z) = 0.33376 0.08671
#
# Static dielectric constant tensor:
#      x y z
#    x 3.724110 0.000000 0.000000 
#    y 0.000000 3.654420 0.000000 
#    z 0.000000 0.000000 3.563510 
# 
# 
# High freq. dielectric constant tensor:
#      x y z
#    x 1.781070 0.000000 0.000000 
#    y 0.000000 1.784520 0.000000 
#    z 0.000000 0.000000 1.775020 
# 
# From -- ./inp_files/20706.got.cif
#   From: 2010.03.12/outbox.cif.g09.slc.cpg/sg74_11_cif.got.tgz:20706.got - 2010.04.16 15:46:19.
