data_PCOD8300783
_publ_section_title
;
Structure prediction by ZEFSAII (Michael W. Deem and Ramdas Pophale) SiO2 
 PCOD8300783
Probable space group: I M M A
;
_chemical_formula_sum "Si O2"
_cell_formula_units_Z 96
_cell_length_a 29.282850
_cell_length_b 8.875594
_cell_length_c 18.901401
_cell_angle_alpha 90.000000
_cell_angle_beta 90.000000
_cell_angle_gamma 90.000000
_cell_volume 4912.524922
_symmetry_space_group_name_H-M "I M M A"
_symmetry_group_IT_number 74
_symmetry_cell_setting 'orthorhombic'
loop_
_space_group_symop_operation_xyz
x,y,z
-x,1/2-y,z
x,-y,-z
-x,1/2+y,-z
-x,-y,-z
x,1/2+y,-z
-x,y,z
x,1/2-y,z
1/2+x,1/2+y,1/2+z
1/2-x,-y,1/2+z
1/2+x,1/2-y,1/2-z
1/2-x,y,1/2-z
1/2-x,1/2-y,1/2-z
1/2+x,y,1/2-z
1/2-x,1/2+y,1/2+z
1/2+x,-y,1/2+z
loop_
_atom_site_type_symbol
_atom_site_label
_atom_site_fract_x
_atom_site_fract_y
_atom_site_fract_z
Si Si1 0.116460 0.082780 0.662616
Si Si2 0.226100 0.571077 0.823245
Si Si3 0.949054 0.075061 0.431380
Si Si4 0.871589 0.578286 0.173138
Si Si5 0.447487 0.072397 0.424268
Si Si6 0.204622 0.427467 0.575556
O O1 0.104772 0.250000 0.634451
O O2 0.114641 0.078504 0.745874
O O3 0.164850 0.032252 0.630977
O O4 0.078479 0.965416 0.638366
O O5 0.227801 0.750000 0.827029
O O6 0.250000 0.514243 0.750000
O O7 0.174456 0.516907 0.832094
O O8 0.250519 0.501604 0.891515
O O9 0.949003 0.250000 0.443628
O O10 0.000000 0.010677 0.422055
O O11 0.925449 0.000000 0.500000
O O12 0.864017 0.750000 0.146316
O O13 0.912829 0.501348 0.131061
O O14 0.500000 0.039195 0.401258
O O15 0.438338 0.250000 0.428514
O O16 0.437326 0.000000 0.500000
O O17 0.193355 0.500000 0.500000
O O18 0.212013 0.250000 0.566500
#
# Coordination Sequence:
#
# PCOD8300783 Si02
#       6
#    16  16  16  16  16  16
#     4  10  22  38  58  85 117 156 196 241 296 355
#     4  11  23  40  63  90 121 160 204 252 309 367
#     4  10  21  36  55  79 110 150 195 244 295 346
#     4  11  23  40  64  93 125 162 203 248 304 367
#     4  10  22  42  67  95 128 165 207 258 315 374
#     4  11  23  40  61  88 121 157 202 249 301 359
#
# _framework density 19.541886000000002
#
# number of rings (size 3 to 8) (size 9 to 14) (size 15 to 20)
#    0.000    1.500    1.667    3.000    0.000    8.000 
#    0.000    6.667    0.000    0.000    0.000    0.000 
#    0.000    0.000    0.000    0.000    0.000    0.000 
#
# Total GULP energy -595272.710991 kJ/mol
# GULP energy per Si atom -12401.514812 kJ/mol
# Density = 1.949741 g / cm^3
# Si number density = 19.541886 Si / 1000 Ang^3
#
#
#
# Elastic Constant Matrix: (Units=GPa)
#
#
# Indices 1 2 3 4 5 6 
#
# 1 113.9977 53.5878 54.8190 0.0000 0.0000 0.0000
# 2 53.5878 105.3752 47.4789 0.0000 0.0000 0.0000
# 3 54.8190 47.4789 99.8928 0.0000 0.0000 0.0000
# 4 0.0000 0.0000 0.0000 35.5462 0.0000 0.0000
# 5 0.0000 0.0000 0.0000 0.0000 42.5009 0.0000
# 6 0.0000 0.0000 0.0000 0.0000 0.0000 36.0066
#
#
#
# Elastic Compliance Matrix: (Units=1/GPa)
#
#
# Indices 1 2 3 4 5 6 
#
# 1 0.013376 -0.004447 -0.005227 0.000000 0.000000 0.000000
# 2 -0.004447 0.013555 -0.004002 0.000000 0.000000 0.000000
# 3 -0.005227 -0.004002 0.014781 0.000000 0.000000 0.000000
# 4 0.000000 0.000000 0.000000 0.028132 0.000000 0.000000
# 5 0.000000 0.000000 0.000000 0.000000 0.023529 0.000000
# 6 0.000000 0.000000 0.000000 0.000000 0.000000 0.027773
#
#
# Mechanical properties :
#
#
# Convention : Reuss Voigt Hill
#
# Bulk Modulus (GPa) = 69.63779 70.11524 69.87652
# Shear Modulus (GPa) = 32.61908 33.70275 33.16092
#
# Velocity S-wave (km/s) = 4.09000 4.15739 4.12383
# Velocity P-wave (km/s) = 7.61687 7.68131 7.64916
#
# Compressibility (1/GPa) = 0.01436002
#
# Stress axis : x y z
#
# Youngs Moduli (GPa) = 74.76017 73.77514 67.65372
#
# Poissons Ratio (x) = 0.32810 0.35361
# Poissons Ratio (y) = 0.33248 0.27075
# Poissons Ratio (z) = 0.39075 0.29524
#
# Static dielectric constant tensor:
#      x y z
#    x 3.658580 0.000000 0.000000 
#    y 0.000000 3.735760 0.000000 
#    z 0.000000 0.000000 3.566320 
# 
# 
# High freq. dielectric constant tensor:
#      x y z
#    x 1.766900 0.000000 0.000000 
#    y 0.000000 1.774690 0.000000 
#    z 0.000000 0.000000 1.762080 
# 
# From -- ./inp_files/55037.got.cif
#   From: 2010.03.12/outbox.cif.g09.slc.cpg/sg74_28_cif.got.tgz:55037.got - 2010.04.16 15:46:19.
