data_PCOD8300642
_publ_section_title
;
Structure prediction by ZEFSAII (Michael W. Deem and Ramdas Pophale) SiO2 
 PCOD8300642
Probable space group: I M M A
;
_chemical_formula_sum "Si O2"
_cell_formula_units_Z 56
_cell_length_a 21.966883
_cell_length_b 10.048644
_cell_length_c 13.753208
_cell_angle_alpha 90.000000
_cell_angle_beta 90.000000
_cell_angle_gamma 90.000000
_cell_volume 3035.847198
_symmetry_space_group_name_H-M "I M M A"
_symmetry_group_IT_number 74
_symmetry_cell_setting 'orthorhombic'
loop_
_space_group_symop_operation_xyz
x,y,z
-x,1/2-y,z
x,-y,-z
-x,1/2+y,-z
-x,-y,-z
x,1/2+y,-z
-x,y,z
x,1/2-y,z
1/2+x,1/2+y,1/2+z
1/2-x,-y,1/2+z
1/2+x,1/2-y,1/2-z
1/2-x,y,1/2-z
1/2-x,1/2-y,1/2-z
1/2+x,y,1/2-z
1/2-x,1/2+y,1/2+z
1/2+x,-y,1/2+z
loop_
_atom_site_type_symbol
_atom_site_label
_atom_site_fract_x
_atom_site_fract_y
_atom_site_fract_z
Si Si1 0.266750 0.750000 0.138110
Si Si2 0.069913 0.250000 0.119483
Si Si3 0.633101 0.250000 0.585164
Si Si4 0.879054 0.602915 0.413783
Si Si5 0.570108 0.971435 0.290275
O O1 0.250000 0.750000 0.250000
O O2 0.205940 0.750000 0.074567
O O3 0.307336 0.881559 0.113881
O O4 0.085783 0.376917 0.184774
O O5 0.000000 0.250000 0.086229
O O6 0.109445 0.250000 0.023292
O O7 0.611920 0.120190 0.642795
O O8 0.888792 0.500000 0.500000
O O9 0.904369 0.750000 0.443645
O O10 0.916712 0.550008 0.322493
O O11 0.500000 0.936798 0.312385
#
# Coordination Sequence:
#
# PCOD8300642 Si02
#       5
#     8   8   8  16  16
#     4  10  20  42  59  86 116 155 195 246 296 345
#     4  10  24  37  56  95 129 151 194 252 299 364
#     4  12  20  39  66  84 119 165 200 243 302 359
#     4  10  23  41  62  88 120 155 202 252 294 349
#     4  11  22  39  62  89 123 160 199 246 303 360
#
# _framework density 18.446251
#
# number of rings (size 3 to 8) (size 9 to 14) (size 15 to 20)
#    0.857    0.571    4.286    2.143    2.000    5.143 
#    0.000    0.000    0.000    4.286    0.000    0.000 
#    0.000    0.000    0.000    0.000    0.000    0.000 
#
# Total GULP energy -347165.544759 kJ/mol
# GULP energy per Si atom -12398.769456 kJ/mol
# Density = 1.840427 g / cm^3
# Si number density = 18.446251 Si / 1000 Ang^3
#
#
#
# Elastic Constant Matrix: (Units=GPa)
#
#
# Indices 1 2 3 4 5 6 
#
# 1 56.9464 28.9166 10.3584 0.0000 0.0000 0.0000
# 2 28.9166 138.6721 59.6234 0.0000 0.0000 0.0000
# 3 10.3584 59.6234 109.0297 0.0000 0.0000 0.0000
# 4 0.0000 0.0000 0.0000 96.1665 0.0000 0.0000
# 5 0.0000 0.0000 0.0000 0.0000 34.6365 0.0000
# 6 0.0000 0.0000 0.0000 0.0000 0.0000 25.2764
#
#
#
# Elastic Compliance Matrix: (Units=1/GPa)
#
#
# Indices 1 2 3 4 5 6 
#
# 1 0.019660 -0.004310 0.000489 0.000000 0.000000 0.000000
# 2 -0.004310 0.010373 -0.005263 0.000000 0.000000 0.000000
# 3 0.000489 -0.005263 0.012003 0.000000 0.000000 0.000000
# 4 0.000000 0.000000 0.000000 0.010399 0.000000 0.000000
# 5 0.000000 0.000000 0.000000 0.000000 0.028871 0.000000
# 6 0.000000 0.000000 0.000000 0.000000 0.000000 0.039563
#
#
# Mechanical properties :
#
#
# Convention : Reuss Voigt Hill
#
# Bulk Modulus (GPa) = 41.89599 55.82722 48.86160
# Shear Modulus (GPa) = 34.01538 44.93254 39.47396
#
# Velocity S-wave (km/s) = 4.29887 4.94080 4.63097
# Velocity P-wave (km/s) = 6.88492 7.92964 7.42568
#
# Compressibility (1/GPa) = 0.02386863
#
# Stress axis : x y z
#
# Youngs Moduli (GPa) = 50.86498 96.40569 83.30959
#
# Poissons Ratio (x) = 0.41550 -0.04074
# Poissons Ratio (y) = 0.21922 0.43846
# Poissons Ratio (z) = -0.02488 0.50738
#
# Static dielectric constant tensor:
#      x y z
#    x 3.606310 0.000000 0.000000 
#    y 0.000000 3.470340 0.000000 
#    z 0.000000 0.000000 3.357760 
# 
# 
# High freq. dielectric constant tensor:
#      x y z
#    x 1.713450 0.000000 0.000000 
#    y 0.000000 1.718250 0.000000 
#    z 0.000000 0.000000 1.716870 
# 
# From -- ./inp_files/36923.got.cif
#   From: 2010.03.12/outbox.cif.g09.slc.cpg/sg74_19_cif.got.tgz:36923.got - 2010.04.16 15:46:19.
