data_PCOD8300927
_publ_section_title
;
Structure prediction by ZEFSAII (Michael W. Deem and Ramdas Pophale) SiO2 
 PCOD8300927
Probable space group: I M M A
;
_chemical_formula_sum "Si O2"
_cell_formula_units_Z 88
_cell_length_a 17.209366
_cell_length_b 9.104903
_cell_length_c 27.107400
_cell_angle_alpha 90.000000
_cell_angle_beta 90.000000
_cell_angle_gamma 90.000000
_cell_volume 4247.447883
_symmetry_space_group_name_H-M "I M M A"
_symmetry_group_IT_number 74
_symmetry_cell_setting 'orthorhombic'
loop_
_space_group_symop_operation_xyz
x,y,z
-x,1/2-y,z
x,-y,-z
-x,1/2+y,-z
-x,-y,-z
x,1/2+y,-z
-x,y,z
x,1/2-y,z
1/2+x,1/2+y,1/2+z
1/2-x,-y,1/2+z
1/2+x,1/2-y,1/2-z
1/2-x,y,1/2-z
1/2-x,1/2-y,1/2-z
1/2+x,y,1/2-z
1/2-x,1/2+y,1/2+z
1/2+x,-y,1/2+z
loop_
_atom_site_type_symbol
_atom_site_label
_atom_site_fract_x
_atom_site_fract_y
_atom_site_fract_z
Si Si1 0.091414 0.419628 0.898386
Si Si2 0.329875 0.077169 0.777902
Si Si3 0.646231 0.416559 0.120343
Si Si4 0.409794 0.412022 0.303105
Si Si5 0.284467 0.083818 0.454128
Si Si6 0.000000 0.423773 0.446255
O O1 0.115112 0.250000 0.896970
O O2 0.123402 0.491209 0.847857
O O3 0.134866 0.501339 0.942555
O O4 0.000000 0.441052 0.906001
O O5 0.343497 0.250000 0.777615
O O6 0.250000 0.034224 0.750000
O O7 0.337961 0.021442 0.833505
O O8 0.397498 0.996937 0.747831
O O9 0.628915 0.250000 0.138234
O O10 0.725490 0.423184 0.090571
O O11 0.575289 0.472043 0.085810
O O12 0.500000 0.391005 0.311176
O O13 0.369896 0.250000 0.302957
O O14 0.304299 0.250000 0.468830
O O15 0.245211 0.000000 0.500000
O O16 0.000000 0.500000 0.500000
O O17 0.000000 0.250000 0.455966
#
# Coordination Sequence:
#
# PCOD8300927 Si02
#       6
#    16  16  16  16  16   8
#     4  10  21  38  60  87 120 157 198 246 298 357
#     4  11  24  39  58  87 122 159 200 248 299 357
#     4  10  23  41  62  89 122 160 204 254 308 369
#     4  10  21  37  59  85 116 154 193 236 288 347
#     4  11  23  39  61  87 117 155 199 249 304 361
#     4  10  22  42  66  92 124 160 206 262 319 374
#
# _framework density 20.718323000000002
#
# number of rings (size 3 to 8) (size 9 to 14) (size 15 to 20)
#    0.000    1.636    0.000    3.818    1.273    9.091 
#    0.000    0.000    0.000    0.000    0.000    0.000 
#    0.000    0.000    0.000    0.000    0.000    0.000 
#
# Total GULP energy -545639.708677 kJ/mol
# GULP energy per Si atom -12400.902470 kJ/mol
# Density = 2.067117 g / cm^3
# Si number density = 20.718323 Si / 1000 Ang^3
#
#
#
# Elastic Constant Matrix: (Units=GPa)
#
#
# Indices 1 2 3 4 5 6 
#
# 1 63.6251 48.6121 35.2747 0.0000 0.0000 0.0000
# 2 48.6121 153.2691 63.6731 0.0000 0.0000 0.0000
# 3 35.2747 63.6731 109.5053 0.0000 0.0000 0.0000
# 4 0.0000 0.0000 0.0000 45.7670 0.0000 0.0000
# 5 0.0000 0.0000 0.0000 0.0000 32.1139 0.0000
# 6 0.0000 0.0000 0.0000 0.0000 0.0000 20.4734
#
#
#
# Elastic Compliance Matrix: (Units=1/GPa)
#
#
# Indices 1 2 3 4 5 6 
#
# 1 0.021993 -0.005317 -0.003993 0.000000 0.000000 0.000000
# 2 -0.005317 0.009888 -0.004037 0.000000 0.000000 0.000000
# 3 -0.003993 -0.004037 0.012765 0.000000 0.000000 0.000000
# 4 0.000000 0.000000 0.000000 0.021850 0.000000 0.000000
# 5 0.000000 0.000000 0.000000 0.000000 0.031139 0.000000
# 6 0.000000 0.000000 0.000000 0.000000 0.000000 0.048844
#
#
# Mechanical properties :
#
#
# Convention : Reuss Voigt Hill
#
# Bulk Modulus (GPa) = 55.70013 69.05769 62.37891
# Shear Modulus (GPa) = 27.90860 31.59352 29.75106
#
# Velocity S-wave (km/s) = 3.67420 3.90924 3.79354
# Velocity P-wave (km/s) = 6.70392 7.33351 7.02577
#
# Compressibility (1/GPa) = 0.01795328
#
# Stress axis : x y z
#
# Youngs Moduli (GPa) = 45.46900 101.13578 78.33628
#
# Poissons Ratio (x) = 0.53770 0.31281
# Poissons Ratio (y) = 0.24174 0.31622
# Poissons Ratio (z) = 0.18157 0.40825
#
# Static dielectric constant tensor:
#      x y z
#    x 3.674230 0.000000 0.000000 
#    y 0.000000 4.006460 0.000000 
#    z 0.000000 0.000000 3.798140 
# 
# 
# High freq. dielectric constant tensor:
#      x y z
#    x 1.807290 0.000000 0.000000 
#    y 0.000000 1.821130 0.000000 
#    z 0.000000 0.000000 1.817480 
# 
# From -- ./inp_files/61451.got.cif
#   From: 2010.03.12/outbox.cif.g09.slc.cpg/sg74_31_cif.got.tgz:61451.got - 2010.04.16 15:46:19.
