data_PCOD8300328
_publ_section_title
;
Structure prediction by ZEFSAII (Michael W. Deem and Ramdas Pophale) SiO2 
 PCOD8300328
Probable space group: I M M A
;
_chemical_formula_sum "Si O2"
_cell_formula_units_Z 96
_cell_length_a 27.465197
_cell_length_b 8.701077
_cell_length_c 20.534183
_cell_angle_alpha 90.000000
_cell_angle_beta 90.000000
_cell_angle_gamma 90.000000
_cell_volume 4907.193219
_symmetry_space_group_name_H-M "I M M A"
_symmetry_group_IT_number 74
_symmetry_cell_setting 'orthorhombic'
loop_
_space_group_symop_operation_xyz
x,y,z
-x,1/2-y,z
x,-y,-z
-x,1/2+y,-z
-x,-y,-z
x,1/2+y,-z
-x,y,z
x,1/2-y,z
1/2+x,1/2+y,1/2+z
1/2-x,-y,1/2+z
1/2+x,1/2-y,1/2-z
1/2-x,y,1/2-z
1/2-x,1/2-y,1/2-z
1/2+x,y,1/2-z
1/2-x,1/2+y,1/2+z
1/2+x,-y,1/2+z
loop_
_atom_site_type_symbol
_atom_site_label
_atom_site_fract_x
_atom_site_fract_y
_atom_site_fract_z
Si Si1 0.444749 0.431173 0.068563
Si Si2 0.714596 0.569485 0.809145
Si Si3 0.119882 0.930884 0.067581
Si Si4 0.231546 0.432042 0.931263
Si Si5 0.554647 0.067063 0.684747
Si Si6 0.889670 0.931636 0.311741
O O1 0.500000 0.483978 0.084826
O O2 0.440777 0.250000 0.064335
O O3 0.407988 0.491911 0.122372
O O4 0.427736 0.500000 0.000000
O O5 0.704787 0.750000 0.813540
O O6 0.750000 0.526455 0.750000
O O7 0.736652 0.511283 0.876367
O O8 0.664775 0.481528 0.795509
O O9 0.114513 0.750000 0.062909
O O10 0.175521 0.978455 0.081136
O O11 0.086938 0.999251 0.125564
O O12 0.100792 0.000000 0.000000
O O13 0.239474 0.250000 0.930196
O O14 0.249257 0.500000 0.000000
O O15 0.500000 0.002546 0.677986
O O16 0.555291 0.250000 0.682688
O O17 0.576559 0.009107 0.752845
O O18 0.892249 0.750000 0.319576
#
# Coordination Sequence:
#
# PCOD8300328 Si02
#       6
#    16  16  16  16  16  16
#     4  10  21  38  60  86 117 151 187 229 278 333
#     4  11  24  40  58  82 113 147 185 233 287 341
#     4   9  18  33  54  80 110 144 181 222 267 317
#     4  10  20  36  58  83 112 146 186 229 276 332
#     4   9  18  33  54  80 110 144 182 223 267 318
#     4  11  22  37  59  84 111 146 189 234 280 334
#
# _framework density 19.563117999999999
#
# number of rings (size 3 to 8) (size 9 to 14) (size 15 to 20)
#    0.000    2.000    0.000    3.500    0.000    6.000 
#    0.000    5.000    0.000    2.000    0.000    0.000 
#    0.000    0.000    0.000    0.000    0.000    0.000 
#
# Total GULP energy -595401.378276 kJ/mol
# GULP energy per Si atom -12404.195381 kJ/mol
# Density = 1.951859 g / cm^3
# Si number density = 19.563118 Si / 1000 Ang^3
#
#
#
# Elastic Constant Matrix: (Units=GPa)
#
#
# Indices 1 2 3 4 5 6 
#
# 1 81.7236 10.2929 40.7679 0.0000 0.0000 0.0000
# 2 10.2929 37.9479 24.8825 0.0000 0.0000 0.0000
# 3 40.7679 24.8825 112.8317 0.0000 0.0000 0.0000
# 4 0.0000 0.0000 0.0000 30.5461 0.0000 0.0000
# 5 0.0000 0.0000 0.0000 0.0000 38.6116 0.0000
# 6 0.0000 0.0000 0.0000 0.0000 0.0000 26.3536
#
#
#
# Elastic Compliance Matrix: (Units=1/GPa)
#
#
# Indices 1 2 3 4 5 6 
#
# 1 0.014938 -0.000599 -0.005265 0.000000 0.000000 0.000000
# 2 -0.000599 0.030831 -0.006582 0.000000 0.000000 0.000000
# 3 -0.005265 -0.006582 0.012217 0.000000 0.000000 0.000000
# 4 0.000000 0.000000 0.000000 0.032737 0.000000 0.000000
# 5 0.000000 0.000000 0.000000 0.000000 0.025899 0.000000
# 6 0.000000 0.000000 0.000000 0.000000 0.000000 0.037945
#
#
# Mechanical properties :
#
#
# Convention : Reuss Voigt Hill
#
# Bulk Modulus (GPa) = 30.21920 42.71000 36.46460
# Shear Modulus (GPa) = 26.24777 29.53960 27.89368
#
# Velocity S-wave (km/s) = 3.66689 3.89004 3.78011
# Velocity P-wave (km/s) = 5.78002 6.48505 6.14266
#
# Compressibility (1/GPa) = 0.03309154
#
# Stress axis : x y z
#
# Youngs Moduli (GPa) = 66.94128 32.43534 81.85442
#
# Poissons Ratio (x) = 0.01944 0.43099
# Poissons Ratio (y) = 0.04013 0.53880
# Poissons Ratio (z) = 0.35247 0.21350
#
# Static dielectric constant tensor:
#      x y z
#    x 3.703270 0.000000 0.000000 
#    y 0.000000 3.434630 0.000000 
#    z 0.000000 0.000000 3.750900 
# 
# 
# High freq. dielectric constant tensor:
#      x y z
#    x 1.765020 0.000000 0.000000 
#    y 0.000000 1.752720 0.000000 
#    z 0.000000 0.000000 1.777960 
# 
# From -- ./inp_files/55086.got.cif
#   From: 2010.03.12/outbox.cif.g09.slc.cpg/sg74_28_cif.got.tgz:55086.got - 2010.04.16 15:46:19.
