data_PCOD8300262
_publ_section_title
;
Structure prediction by ZEFSAII (Michael W. Deem and Ramdas Pophale) SiO2 
 PCOD8300262
Probable space group: I M M A
;
_chemical_formula_sum "Si O2"
_cell_formula_units_Z 96
_cell_length_a 23.038299
_cell_length_b 8.607999
_cell_length_c 27.825767
_cell_angle_alpha 90.000000
_cell_angle_beta 90.000000
_cell_angle_gamma 90.000000
_cell_volume 5518.229550
_symmetry_space_group_name_H-M "I M M A"
_symmetry_group_IT_number 74
_symmetry_cell_setting 'orthorhombic'
loop_
_space_group_symop_operation_xyz
x,y,z
-x,1/2-y,z
x,-y,-z
-x,1/2+y,-z
-x,-y,-z
x,1/2+y,-z
-x,y,z
x,1/2-y,z
1/2+x,1/2+y,1/2+z
1/2-x,-y,1/2+z
1/2+x,1/2-y,1/2-z
1/2-x,y,1/2-z
1/2-x,1/2-y,1/2-z
1/2+x,y,1/2-z
1/2-x,1/2+y,1/2+z
1/2+x,-y,1/2+z
loop_
_atom_site_type_symbol
_atom_site_label
_atom_site_fract_x
_atom_site_fract_y
_atom_site_fract_z
Si Si1 0.618829 0.933783 0.786144
Si Si2 0.500000 0.933710 0.632309
Si Si3 0.821056 0.073629 0.190649
Si Si4 0.775753 0.064983 0.051101
Si Si5 0.795324 0.426712 0.360341
Si Si6 0.000000 0.435667 0.243082
Si Si7 0.381546 0.569491 0.396220
O O1 0.613807 0.750000 0.791769
O O2 0.664597 0.976324 0.744594
O O3 0.646077 0.002026 0.836474
O O4 0.555799 0.002008 0.772141
O O5 0.500000 0.750000 0.632260
O O6 0.500000 0.995379 0.687840
O O7 0.554905 0.995052 0.602581
O O8 0.843426 0.250000 0.180198
O O9 0.752640 0.063176 0.181727
O O10 0.854968 0.956791 0.156223
O O11 0.775364 0.250000 0.051553
O O12 0.729582 0.996272 0.090628
O O13 0.840595 0.009206 0.063584
O O14 0.755709 0.000000 0.000000
O O15 0.809334 0.250000 0.373373
O O16 0.000000 0.250000 0.242508
O O17 0.385959 0.750000 0.408047
#
# Coordination Sequence:
#
# PCOD8300262 Si02
#       7
#    16   8  16  16  16   8  16
#     4   9  14  23  40  68  99 127 163 202 239 279
#     4  11  19  33  50  70  97 134 176 208 234 272
#     4   9  15  26  44  66  94 129 164 199 238 280
#     4  10  20  36  55  74  93 120 155 203 256 302
#     4   8  15  25  43  69  94 121 157 200 247 293
#     4   9  16  23  41  70  99 130 164 204 237 267
#     4  11  21  32  48  72  99 131 165 202 241 286
#
# _framework density 17.396885000000001
#
# number of rings (size 3 to 8) (size 9 to 14) (size 15 to 20)
#    0.000    2.500    1.667    3.750    0.000    2.000 
#    0.000    0.417    0.000    9.000    0.000    0.583 
#    0.000    0.000    0.000    0.000    0.000    0.000 
#
# Total GULP energy -594702.951817 kJ/mol
# GULP energy per Si atom -12389.644830 kJ/mol
# Density = 1.735729 g / cm^3
# Si number density = 17.396885 Si / 1000 Ang^3
#
#
#
# Elastic Constant Matrix: (Units=GPa)
#
#
# Indices 1 2 3 4 5 6 
#
# 1 71.4102 11.8168 60.8242 0.0000 0.0000 0.0000
# 2 11.8168 47.1323 17.2251 0.0000 0.0000 0.0000
# 3 60.8242 17.2251 114.7916 0.0000 0.0000 0.0000
# 4 0.0000 0.0000 0.0000 16.9001 0.0000 0.0000
# 5 0.0000 0.0000 0.0000 0.0000 19.9493 0.0000
# 6 0.0000 0.0000 0.0000 0.0000 0.0000 9.7363
#
#
#
# Elastic Compliance Matrix: (Units=1/GPa)
#
#
# Indices 1 2 3 4 5 6 
#
# 1 0.025628 -0.001547 -0.013347 0.000000 0.000000 0.000000
# 2 -0.001547 0.022541 -0.002563 0.000000 0.000000 0.000000
# 3 -0.013347 -0.002563 0.016168 0.000000 0.000000 0.000000
# 4 0.000000 0.000000 0.000000 0.059171 0.000000 0.000000
# 5 0.000000 0.000000 0.000000 0.000000 0.050127 0.000000
# 6 0.000000 0.000000 0.000000 0.000000 0.000000 0.102708
#
#
# Mechanical properties :
#
#
# Convention : Reuss Voigt Hill
#
# Bulk Modulus (GPa) = 33.98668 45.89626 39.94147
# Shear Modulus (GPa) = 15.57305 18.88168 17.22736
#
# Velocity S-wave (km/s) = 2.99517 3.29804 3.15025
# Velocity P-wave (km/s) = 5.61604 6.39858 6.02004
#
# Compressibility (1/GPa) = 0.02942329
#
# Stress axis : x y z
#
# Youngs Moduli (GPa) = 39.01913 44.36295 61.84933
#
# Poissons Ratio (x) = 0.06865 0.82553
# Poissons Ratio (y) = 0.06038 0.15849
# Poissons Ratio (z) = 0.52081 0.11368
#
# Static dielectric constant tensor:
#      x y z
#    x 3.461440 0.000000 0.000000 
#    y 0.000000 2.864340 0.000000 
#    z 0.000000 0.000000 3.323910 
# 
# 
# High freq. dielectric constant tensor:
#      x y z
#    x 1.663290 0.000000 0.000000 
#    y 0.000000 1.632510 0.000000 
#    z 0.000000 0.000000 1.653190 
# 
# From -- ./inp_files/68600.got.cif
#   From: 2010.03.12/outbox.cif.g09.slc.cpg/sg74_35_cif.got.tgz:68600.got - 2010.04.16 15:46:19.
