data_PCOD8300685
_publ_section_title
;
Structure prediction by ZEFSAII (Michael W. Deem and Ramdas Pophale) SiO2 
 PCOD8300685
Probable space group: I M M A
;
_chemical_formula_sum "Si O2"
_cell_formula_units_Z 96
_cell_length_a 9.466542
_cell_length_b 19.228924
_cell_length_c 30.877990
_cell_angle_alpha 90.000000
_cell_angle_beta 90.000000
_cell_angle_gamma 90.000000
_cell_volume 5620.764263
_symmetry_space_group_name_H-M "I M M A"
_symmetry_group_IT_number 74
_symmetry_cell_setting 'orthorhombic'
loop_
_space_group_symop_operation_xyz
x,y,z
-x,1/2-y,z
x,-y,-z
-x,1/2+y,-z
-x,-y,-z
x,1/2+y,-z
-x,y,z
x,1/2-y,z
1/2+x,1/2+y,1/2+z
1/2-x,-y,1/2+z
1/2+x,1/2-y,1/2-z
1/2-x,y,1/2-z
1/2-x,1/2-y,1/2-z
1/2+x,y,1/2-z
1/2-x,1/2+y,1/2+z
1/2+x,-y,1/2+z
loop_
_atom_site_type_symbol
_atom_site_label
_atom_site_fract_x
_atom_site_fract_y
_atom_site_fract_z
Si Si1 0.167378 0.426287 0.116965
Si Si2 0.654853 0.916632 0.288001
Si Si3 0.167428 0.416508 0.885151
Si Si4 0.162904 0.168078 0.545136
Si Si5 0.163900 0.669215 0.961151
Si Si6 0.343228 0.081724 0.288638
O O1 0.215386 0.504324 0.105018
O O2 0.219790 0.373516 0.080209
O O3 0.225632 0.401645 0.164099
O O4 0.000000 0.426436 0.121605
O O5 0.500000 0.884875 0.281060
O O6 0.750000 0.883857 0.250000
O O7 0.708844 0.896507 0.335893
O O8 0.648467 0.999230 0.283901
O O9 0.258548 0.366690 0.914949
O O10 0.000000 0.406385 0.893408
O O11 0.175402 0.250000 0.551545
O O12 0.241879 0.144798 0.501390
O O13 0.000000 0.144099 0.542793
O O14 0.185631 0.750000 0.950584
O O15 0.000000 0.652481 0.971377
O O16 0.500000 0.113978 0.284510
O O17 0.250000 0.114466 0.250000
#
# Coordination Sequence:
#
# PCOD8300685 Si02
#       6
#    16  16  16  16  16  16
#     4   8  15  28  46  69  94 117 146 188 228 256
#     4   8  14  24  40  63  89 116 144 176 215 257
#     4   9  17  30  48  69  92 118 149 184 221 262
#     4  10  21  35  48  64  89 118 146 182 228 271
#     4   9  17  31  51  69  85 115 157 189 217 263
#     4   8  13  23  39  60  88 118 146 177 215 258
#
# _framework density 17.079528
#
# number of rings (size 3 to 8) (size 9 to 14) (size 15 to 20)
#    0.000    3.333    0.000    2.500    0.000    2.333 
#    0.000    7.500    0.000    1.000    0.000    0.000 
#    0.000    0.000    0.000    0.000    0.000    0.000 
#
# Total GULP energy -594896.828273 kJ/mol
# GULP energy per Si atom -12393.683922 kJ/mol
# Density = 1.704065 g / cm^3
# Si number density = 17.079528 Si / 1000 Ang^3
#
#
#
# Elastic Constant Matrix: (Units=GPa)
#
#
# Indices 1 2 3 4 5 6 
#
# 1 79.8296 27.6505 75.4146 0.0000 0.0000 0.0000
# 2 27.6505 30.7415 47.2233 0.0000 0.0000 0.0000
# 3 75.4146 47.2233 167.4375 0.0000 0.0000 0.0000
# 4 0.0000 0.0000 0.0000 1.3076 0.0000 0.0000
# 5 0.0000 0.0000 0.0000 0.0000 30.7279 0.0000
# 6 0.0000 0.0000 0.0000 0.0000 0.0000 13.6780
#
#
#
# Elastic Compliance Matrix: (Units=1/GPa)
#
#
# Indices 1 2 3 4 5 6 
#
# 1 0.022975 -0.008414 -0.007975 0.000000 0.000000 0.000000
# 2 -0.008414 0.060477 -0.013267 0.000000 0.000000 0.000000
# 3 -0.007975 -0.013267 0.013306 0.000000 0.000000 0.000000
# 4 0.000000 0.000000 0.000000 0.764786 0.000000 0.000000
# 5 0.000000 0.000000 0.000000 0.000000 0.032544 0.000000
# 6 0.000000 0.000000 0.000000 0.000000 0.000000 0.073110
#
#
# Mechanical properties :
#
#
# Convention : Reuss Voigt Hill
#
# Bulk Modulus (GPa) = 26.70500 64.28728 45.49614
# Shear Modulus (GPa) = 4.81236 17.65737 11.23486
#
# Velocity S-wave (km/s) = 1.68040 3.21881 2.56754
# Velocity P-wave (km/s) = 4.40847 7.17886 5.95696
#
# Compressibility (1/GPa) = 0.03744618
#
# Stress axis : x y z
#
# Youngs Moduli (GPa) = 43.52565 16.53510 75.15369
#
# Poissons Ratio (x) = 0.13913 0.59934
# Poissons Ratio (y) = 0.36624 0.99706
# Poissons Ratio (z) = 0.34711 0.21937
#
# Static dielectric constant tensor:
#      x y z
#    x 3.238600 0.000000 0.000000 
#    y 0.000000 2.855300 0.000000 
#    z 0.000000 0.000000 3.508130 
# 
# 
# High freq. dielectric constant tensor:
#      x y z
#    x 1.640180 0.000000 0.000000 
#    y 0.000000 1.616830 0.000000 
#    z 0.000000 0.000000 1.674790 
# 
# From -- ./inp_files/64662.got.cif
#   From: 2010.03.12/outbox.cif.g09.slc.cpg/sg74_33_cif.got.tgz:64662.got - 2010.04.16 15:46:19.
