data_PCOD8300916
_publ_section_title
;
Structure prediction by ZEFSAII (Michael W. Deem and Ramdas Pophale) SiO2 
 PCOD8300916
Probable space group: I M M A
;
_chemical_formula_sum "Si O2"
_cell_formula_units_Z 72
_cell_length_a 13.353912
_cell_length_b 8.820598
_cell_length_c 28.708867
_cell_angle_alpha 90.000000
_cell_angle_beta 90.000000
_cell_angle_gamma 90.000000
_cell_volume 3381.602787
_symmetry_space_group_name_H-M "I M M A"
_symmetry_group_IT_number 74
_symmetry_cell_setting 'orthorhombic'
loop_
_space_group_symop_operation_xyz
x,y,z
-x,1/2-y,z
x,-y,-z
-x,1/2+y,-z
-x,-y,-z
x,1/2+y,-z
-x,y,z
x,1/2-y,z
1/2+x,1/2+y,1/2+z
1/2-x,-y,1/2+z
1/2+x,1/2-y,1/2-z
1/2-x,y,1/2-z
1/2-x,1/2-y,1/2-z
1/2+x,y,1/2-z
1/2-x,1/2+y,1/2+z
1/2+x,-y,1/2+z
loop_
_atom_site_type_symbol
_atom_site_label
_atom_site_fract_x
_atom_site_fract_y
_atom_site_fract_z
Si Si1 0.000000 0.428493 0.169168
Si Si2 0.318742 0.573110 0.881726
Si Si3 0.500000 0.086098 0.574344
Si Si4 0.790232 0.574686 0.198453
Si Si5 0.500000 0.930333 0.947750
Si Si6 0.789711 0.419609 0.955640
O O1 0.000000 0.458339 0.113973
O O2 0.102008 0.494416 0.192104
O O3 0.000000 0.250000 0.178188
O O4 0.328886 0.750000 0.872274
O O5 0.302273 0.491875 0.832352
O O6 0.407553 0.513448 0.915608
O O7 0.221093 0.525251 0.910382
O O8 0.500000 0.250000 0.600841
O O9 0.408296 0.081494 0.538432
O O10 0.804647 0.750000 0.185530
O O11 0.750000 0.550473 0.250000
O O12 0.500000 0.750000 0.953594
O O13 0.500000 0.000000 0.000000
O O14 0.744505 0.250000 0.950144
O O15 0.737776 0.500000 0.000000
#
# Coordination Sequence:
#
# PCOD8300916 Si02
#       6
#     8  16   8  16   8  16
#     4  12  24  40  68  98 130 168 207 261 320 379
#     4  11  23  41  64  92 126 166 216 272 331 392
#     4  10  21  37  58  85 125 166 204 245 301 368
#     4  11  25  45  69  97 131 172 218 269 328 396
#     4  10  24  43  64  93 130 172 220 278 335 397
#     4  11  22  36  57  87 125 168 209 257 310 374
#
# _framework density 21.291678000000001
#
# number of rings (size 3 to 8) (size 9 to 14) (size 15 to 20)
#    0.000    1.111    2.222    4.000    0.000    7.111 
#    0.000    2.222    0.000    0.000    0.000    0.000 
#    0.000    0.000    0.000    0.000    0.000    0.000 
#
# Total GULP energy -446033.535848 kJ/mol
# GULP energy per Si atom -12389.820440 kJ/mol
# Density = 2.124322 g / cm^3
# Si number density = 21.291678 Si / 1000 Ang^3
#
#
#
# Elastic Constant Matrix: (Units=GPa)
#
#
# Indices 1 2 3 4 5 6 
#
# 1 94.4750 48.3074 42.4498 0.0000 0.0000 0.0000
# 2 48.3074 125.1181 64.9991 0.0000 0.0000 0.0000
# 3 42.4498 64.9991 133.3403 0.0000 0.0000 0.0000
# 4 0.0000 0.0000 0.0000 37.0010 0.0000 0.0000
# 5 0.0000 0.0000 0.0000 0.0000 31.1944 0.0000
# 6 0.0000 0.0000 0.0000 0.0000 0.0000 25.9521
#
#
#
# Elastic Compliance Matrix: (Units=1/GPa)
#
#
# Indices 1 2 3 4 5 6 
#
# 1 0.013736 -0.004060 -0.002394 0.000000 0.000000 0.000000
# 2 -0.004060 0.011903 -0.004510 0.000000 0.000000 0.000000
# 3 -0.002394 -0.004510 0.010460 0.000000 0.000000 0.000000
# 4 0.000000 0.000000 0.000000 0.027026 0.000000 0.000000
# 5 0.000000 0.000000 0.000000 0.000000 0.032057 0.000000
# 6 0.000000 0.000000 0.000000 0.000000 0.000000 0.038532
#
#
# Mechanical properties :
#
#
# Convention : Reuss Voigt Hill
#
# Bulk Modulus (GPa) = 70.56141 73.82734 72.19437
# Shear Modulus (GPa) = 31.17863 31.97465 31.57664
#
# Velocity S-wave (km/s) = 3.83084 3.87944 3.85522
# Velocity P-wave (km/s) = 7.26495 7.40380 7.33470
#
# Compressibility (1/GPa) = 0.01417205
#
# Stress axis : x y z
#
# Youngs Moduli (GPa) = 72.79922 84.01432 95.60128
#
# Poissons Ratio (x) = 0.34108 0.22887
# Poissons Ratio (y) = 0.29555 0.43114
# Poissons Ratio (z) = 0.17428 0.37888
#
# Static dielectric constant tensor:
#      x y z
#    x 4.013180 0.000000 0.000000 
#    y 0.000000 3.935550 0.000000 
#    z 0.000000 0.000000 3.771370 
# 
# 
# High freq. dielectric constant tensor:
#      x y z
#    x 1.840290 0.000000 0.000000 
#    y 0.000000 1.840990 0.000000 
#    z 0.000000 0.000000 1.835470 
# 
# From -- ./inp_files/66813.got.cif
#   From: 2010.03.12/outbox.cif.g09.slc.cpg/sg74_34_cif.got.tgz:66813.got - 2010.04.16 15:46:19.
