data_PCOD8300962
_publ_section_title
;
Structure prediction by ZEFSAII (Michael W. Deem and Ramdas Pophale) SiO2 
 PCOD8300962
Probable space group: I M M A
;
_chemical_formula_sum "Si O2"
_cell_formula_units_Z 120
_cell_length_a 27.258000
_cell_length_b 24.705262
_cell_length_c 8.554246
_cell_angle_alpha 90.000000
_cell_angle_beta 90.000000
_cell_angle_gamma 90.000000
_cell_volume 5760.566395
_symmetry_space_group_name_H-M "I M M A"
_symmetry_group_IT_number 74
_symmetry_cell_setting 'orthorhombic'
loop_
_space_group_symop_operation_xyz
x,y,z
-x,1/2-y,z
x,-y,-z
-x,1/2+y,-z
-x,-y,-z
x,1/2+y,-z
-x,y,z
x,1/2-y,z
1/2+x,1/2+y,1/2+z
1/2-x,-y,1/2+z
1/2+x,1/2-y,1/2-z
1/2-x,y,1/2-z
1/2-x,1/2-y,1/2-z
1/2+x,y,1/2-z
1/2-x,1/2+y,1/2+z
1/2+x,-y,1/2+z
loop_
_atom_site_type_symbol
_atom_site_label
_atom_site_fract_x
_atom_site_fract_y
_atom_site_fract_z
Si Si1 0.852614 0.688977 0.122658
Si Si2 0.620976 0.689996 0.728947
Si Si3 0.943796 0.611484 0.620321
Si Si4 0.793342 0.132761 0.363644
Si Si5 0.140701 0.968342 0.660131
Si Si6 0.444787 0.688563 0.171852
Si Si7 0.166798 0.500000 0.000000
Si Si8 0.222896 0.900708 0.109136
O O1 0.835631 0.750000 0.168468
O O2 0.906717 0.676985 0.189597
O O3 0.814964 0.643362 0.180161
O O4 0.853892 0.682394 0.937197
O O5 0.601019 0.750000 0.756081
O O6 0.574602 0.649926 0.739224
O O7 0.662639 0.676613 0.859159
O O8 0.912725 0.556531 0.623178
O O9 0.934536 0.645162 0.462621
O O10 0.000000 0.595575 0.645558
O O11 0.750000 0.150105 0.250000
O O12 0.816944 0.075539 0.315904
O O13 0.767799 0.131554 0.530807
O O14 0.137625 0.000283 0.830397
O O15 0.154720 0.000000 0.500000
O O16 0.500000 0.680987 0.238032
O O17 0.438330 0.750000 0.106638
O O18 0.198578 0.554876 0.997040
O O19 0.250000 0.932323 0.250000
#
# Coordination Sequence:
#
# PCOD8300962 Si02
#       8
#    16  16  16  16  16  16   8  16
#     4  10  22  40  59  90 128 163 211 260 314 388
#     4  10  21  37  61  90 124 165 205 253 312 376
#     4  10  22  42  64  91 124 157 208 263 316 390
#     4  11  21  40  57  87 124 158 207 255 306 370
#     4  11  25  42  67  93 124 166 212 267 327 381
#     4   9  19  37  62  90 122 161 204 258 317 374
#     4  12  26  44  65  94 132 162 223 276 318 380
#     4  12  26  39  62  91 126 169 215 261 320 379
#
# _framework density 20.831285999999999
#
# number of rings (size 3 to 8) (size 9 to 14) (size 15 to 20)
#    0.000    1.467    2.667    2.000    8.400    2.667 
#    0.000    1.667    0.000    0.000    0.000    0.000 
#    0.000    0.000    0.000    0.000    0.000    0.000 
#
# Total GULP energy -743463.149375 kJ/mol
# GULP energy per Si atom -12391.052490 kJ/mol
# Density = 2.078387 g / cm^3
# Si number density = 20.831286 Si / 1000 Ang^3
#
#
#
# Elastic Constant Matrix: (Units=GPa)
#
#
# Indices 1 2 3 4 5 6 
#
# 1 104.3111 20.5392 32.9657 0.0000 0.0000 0.0000
# 2 20.5392 64.9345 24.8953 0.0000 0.0000 0.0000
# 3 32.9657 24.8953 94.0211 0.0000 0.0000 0.0000
# 4 0.0000 0.0000 0.0000 29.0238 0.0000 0.0000
# 5 0.0000 0.0000 0.0000 0.0000 32.7903 0.0000
# 6 0.0000 0.0000 0.0000 0.0000 0.0000 22.6397
#
#
#
# Elastic Compliance Matrix: (Units=1/GPa)
#
#
# Indices 1 2 3 4 5 6 
#
# 1 0.011067 -0.002240 -0.003287 0.000000 0.000000 0.000000
# 2 -0.002240 0.017594 -0.003873 0.000000 0.000000 0.000000
# 3 -0.003287 -0.003873 0.012814 0.000000 0.000000 0.000000
# 4 0.000000 0.000000 0.000000 0.034455 0.000000 0.000000
# 5 0.000000 0.000000 0.000000 0.000000 0.030497 0.000000
# 6 0.000000 0.000000 0.000000 0.000000 0.000000 0.044170
#
#
# Mechanical properties :
#
#
# Convention : Reuss Voigt Hill
#
# Bulk Modulus (GPa) = 44.10415 46.67413 45.38914
# Shear Modulus (GPa) = 28.25590 29.21518 28.73554
#
# Velocity S-wave (km/s) = 3.68695 3.74901 3.71811
# Velocity P-wave (km/s) = 6.27239 6.41830 6.34576
#
# Compressibility (1/GPa) = 0.02267360
#
# Stress axis : x y z
#
# Youngs Moduli (GPa) = 90.36179 56.83876 78.04010
#
# Poissons Ratio (x) = 0.12733 0.25652
# Poissons Ratio (y) = 0.20243 0.30225
# Poissons Ratio (z) = 0.29702 0.22014
#
# Static dielectric constant tensor:
#      x y z
#    x 3.768780 0.000000 0.000000 
#    y 0.000000 3.697220 0.000000 
#    z 0.000000 0.000000 5.032670 
# 
# 
# High freq. dielectric constant tensor:
#      x y z
#    x 1.812220 0.000000 0.000000 
#    y 0.000000 1.806930 0.000000 
#    z 0.000000 0.000000 1.816870 
# 
# From -- ./inp_files/15554.got.cif
#   From: 2010.03.12/outbox.cif.g09.slc.cpg/sg74_8_cif.got.tgz:15554.got - 2010.04.16 15:46:19.
