data_PCOD8300363
_publ_section_title
;
Structure prediction by ZEFSAII (Michael W. Deem and Ramdas Pophale) SiO2 
 PCOD8300363
Probable space group: I M M A
;
_chemical_formula_sum "Si O2"
_cell_formula_units_Z 64
_cell_length_a 27.527847
_cell_length_b 9.661669
_cell_length_c 12.510044
_cell_angle_alpha 90.000000
_cell_angle_beta 90.000000
_cell_angle_gamma 90.000000
_cell_volume 3327.233177
_symmetry_space_group_name_H-M "I M M A"
_symmetry_group_IT_number 74
_symmetry_cell_setting 'orthorhombic'
loop_
_space_group_symop_operation_xyz
x,y,z
-x,1/2-y,z
x,-y,-z
-x,1/2+y,-z
-x,-y,-z
x,1/2+y,-z
-x,y,z
x,1/2-y,z
1/2+x,1/2+y,1/2+z
1/2-x,-y,1/2+z
1/2+x,1/2-y,1/2-z
1/2-x,y,1/2-z
1/2-x,1/2-y,1/2-z
1/2+x,y,1/2-z
1/2-x,1/2+y,1/2+z
1/2+x,-y,1/2+z
loop_
_atom_site_type_symbol
_atom_site_label
_atom_site_fract_x
_atom_site_fract_y
_atom_site_fract_z
Si Si1 0.000000 0.091513 0.392936
Si Si2 0.167323 0.405670 0.103915
Si Si3 0.250000 0.989746 0.250000
Si Si4 0.602273 0.090483 0.201584
Si Si5 0.676635 0.904270 0.089059
O O1 0.045385 0.061656 0.314710
O O2 0.000000 0.250000 0.432507
O O3 0.000000 0.000000 0.500000
O O4 0.163377 0.250000 0.061241
O O5 0.216822 0.416314 0.172782
O O6 0.120455 0.442911 0.177922
O O7 0.167574 0.500000 0.000000
O O8 0.285489 0.889260 0.185050
O O9 0.615826 0.250000 0.174294
O O10 0.628110 0.986770 0.119735
O O11 0.663247 0.750000 0.048656
O O12 0.702542 0.000000 0.000000
#
# Coordination Sequence:
#
# PCOD8300363 Si02
#       5
#     8  16   8  16  16
#     4  10  20  36  59  84 110 140 177 222 273 324
#     4  10  21  37  57  80 109 145 184 225 271 321
#     4  10  22  36  54  76 104 142 184 224 264 314
#     4   9  20  38  57  79 108 142 178 219 268 323
#     4  11  22  35  52  76 106 139 175 217 265 318
#
# _framework density 19.235202000000001
#
# number of rings (size 3 to 8) (size 9 to 14) (size 15 to 20)
#    0.000    2.000    0.000    3.000    0.000   13.000 
#    0.000    0.625    0.000    0.000    0.000    0.000 
#    0.000    0.000    0.000    0.000    0.000    0.000 
#
# Total GULP energy -396642.269760 kJ/mol
# GULP energy per Si atom -12395.070930 kJ/mol
# Density = 1.919142 g / cm^3
# Si number density = 19.235202 Si / 1000 Ang^3
#
#
#
# Elastic Constant Matrix: (Units=GPa)
#
#
# Indices 1 2 3 4 5 6 
#
# 1 136.4425 44.0827 60.2608 0.0000 0.0000 0.0000
# 2 44.0827 134.7566 65.8042 0.0000 0.0000 0.0000
# 3 60.2608 65.8042 124.1572 0.0000 0.0000 0.0000
# 4 0.0000 0.0000 0.0000 29.1849 0.0000 0.0000
# 5 0.0000 0.0000 0.0000 0.0000 22.4277 0.0000
# 6 0.0000 0.0000 0.0000 0.0000 0.0000 2.8628
#
#
#
# Elastic Compliance Matrix: (Units=1/GPa)
#
#
# Indices 1 2 3 4 5 6 
#
# 1 0.009459 -0.001150 -0.003982 0.000000 0.000000 0.000000
# 2 -0.001150 0.010152 -0.004822 0.000000 0.000000 0.000000
# 3 -0.003982 -0.004822 0.012543 0.000000 0.000000 0.000000
# 4 0.000000 0.000000 0.000000 0.034264 0.000000 0.000000
# 5 0.000000 0.000000 0.000000 0.000000 0.044588 0.000000
# 6 0.000000 0.000000 0.000000 0.000000 0.000000 0.349312
#
#
# Mechanical properties :
#
#
# Convention : Reuss Voigt Hill
#
# Bulk Modulus (GPa) = 81.66118 81.73907 81.70012
# Shear Modulus (GPa) = 10.32401 25.90897 18.11649
#
# Velocity S-wave (km/s) = 2.31925 3.67407 3.07227
# Velocity P-wave (km/s) = 7.05110 7.78365 7.42641
#
# Compressibility (1/GPa) = 0.01224572
#
# Stress axis : x y z
#
# Youngs Moduli (GPa) = 105.71786 98.50413 79.72800
#
# Poissons Ratio (x) = 0.11329 0.31744
# Poissons Ratio (y) = 0.12159 0.38448
# Poissons Ratio (z) = 0.42092 0.47502
#
# Static dielectric constant tensor:
#      x y z
#    x 3.544840 0.000000 0.000000 
#    y 0.000000 3.448200 0.000000 
#    z 0.000000 0.000000 3.589860 
# 
# 
# High freq. dielectric constant tensor:
#      x y z
#    x 1.741200 0.000000 0.000000 
#    y 0.000000 1.750940 0.000000 
#    z 0.000000 0.000000 1.745160 
# 
# From -- ./inp_files/26792.got.cif
#   From: 2010.03.12/outbox.cif.g09.slc.cpg/sg74_14_cif.got.tgz:26792.got - 2010.04.16 15:46:19.
