data_PCOD8300248
_publ_section_title
;
Structure prediction by ZEFSAII (Michael W. Deem and Ramdas Pophale) SiO2 
 PCOD8300248
Probable space group: I M M A
;
_chemical_formula_sum "Si O2"
_cell_formula_units_Z 64
_cell_length_a 7.602030
_cell_length_b 13.968690
_cell_length_c 30.775111
_cell_angle_alpha 90.000000
_cell_angle_beta 90.000000
_cell_angle_gamma 90.000000
_cell_volume 3268.021361
_symmetry_space_group_name_H-M "I M M A"
_symmetry_group_IT_number 74
_symmetry_cell_setting 'orthorhombic'
loop_
_space_group_symop_operation_xyz
x,y,z
-x,1/2-y,z
x,-y,-z
-x,1/2+y,-z
-x,-y,-z
x,1/2+y,-z
-x,y,z
x,1/2-y,z
1/2+x,1/2+y,1/2+z
1/2-x,-y,1/2+z
1/2+x,1/2-y,1/2-z
1/2-x,y,1/2-z
1/2-x,1/2-y,1/2-z
1/2+x,y,1/2-z
1/2-x,1/2+y,1/2+z
1/2+x,-y,1/2+z
loop_
_atom_site_type_symbol
_atom_site_label
_atom_site_fract_x
_atom_site_fract_y
_atom_site_fract_z
Si Si1 0.000000 0.109540 0.989824
Si Si2 0.205569 0.141537 0.201347
Si Si3 0.500000 0.360030 0.611888
Si Si4 0.698798 0.497417 0.127172
Si Si5 0.802051 0.645275 0.552348
O O1 0.177148 0.151494 0.010618
O O2 0.000000 0.136679 0.939864
O O3 0.000000 0.000000 0.000000
O O4 0.274902 0.250000 0.193662
O O5 0.250000 0.108891 0.250000
O O6 0.302930 0.068025 0.169864
O O7 0.000000 0.135443 0.192126
O O8 0.500000 0.250000 0.627766
O O9 0.672921 0.411778 0.631261
O O10 0.500000 0.534345 0.119591
O O11 0.765333 0.433216 0.086635
O O12 0.798218 0.750000 0.575104
O O13 0.000000 0.620730 0.536649
#
# Coordination Sequence:
#
# PCOD8300248 Si02
#       5
#     8  16   8  16  16
#     4  12  22  39  61  82 115 157 206 255 309 356
#     4  10  20  35  60  97 134 162 190 232 296 372
#     4  12  26  43  60  85 118 160 216 265 302 348
#     4  11  22  39  62  88 120 161 200 248 303 361
#     4  10  21  36  58  88 120 154 194 242 302 372
#
# _framework density 19.583714000000001
#
# number of rings (size 3 to 8) (size 9 to 14) (size 15 to 20)
#    0.000    1.250    3.750    2.625    0.000    4.500 
#    0.000    0.000    0.000    0.750    0.000    0.000 
#    0.000    0.000    0.000    0.000    0.000    0.000 
#
# Total GULP energy -396820.497809 kJ/mol
# GULP energy per Si atom -12400.640557 kJ/mol
# Density = 1.953914 g / cm^3
# Si number density = 19.583714 Si / 1000 Ang^3
#
#
#
# Elastic Constant Matrix: (Units=GPa)
#
#
# Indices 1 2 3 4 5 6 
#
# 1 113.4310 45.5507 27.2874 0.0000 0.0000 0.0000
# 2 45.5507 127.1593 29.1210 0.0000 0.0000 0.0000
# 3 27.2874 29.1210 86.0899 0.0000 0.0000 0.0000
# 4 0.0000 0.0000 0.0000 26.5583 0.0000 0.0000
# 5 0.0000 0.0000 0.0000 0.0000 22.7237 0.0000
# 6 0.0000 0.0000 0.0000 0.0000 0.0000 26.6171
#
#
#
# Elastic Compliance Matrix: (Units=1/GPa)
#
#
# Indices 1 2 3 4 5 6 
#
# 1 0.010691 -0.003310 -0.002269 0.000000 0.000000 0.000000
# 2 -0.003310 0.009549 -0.002181 0.000000 0.000000 0.000000
# 3 -0.002269 -0.002181 0.013073 0.000000 0.000000 0.000000
# 4 0.000000 0.000000 0.000000 0.037653 0.000000 0.000000
# 5 0.000000 0.000000 0.000000 0.000000 0.044007 0.000000
# 6 0.000000 0.000000 0.000000 0.000000 0.000000 0.037570
#
#
# Mechanical properties :
#
#
# Convention : Reuss Voigt Hill
#
# Bulk Modulus (GPa) = 56.20218 58.95537 57.57878
# Shear Modulus (GPa) = 28.73662 30.16122 29.44892
#
# Velocity S-wave (km/s) = 3.83479 3.92869 3.88202
# Velocity P-wave (km/s) = 6.95472 7.12384 7.03979
#
# Compressibility (1/GPa) = 0.01779290
#
# Stress axis : x y z
#
# Youngs Moduli (GPa) = 93.53654 104.71905 76.49529
#
# Poissons Ratio (x) = 0.34663 0.17357
# Poissons Ratio (y) = 0.30961 0.16684
# Poissons Ratio (z) = 0.21223 0.22839
#
# Static dielectric constant tensor:
#      x y z
#    x 3.538300 0.000000 0.000000 
#    y 0.000000 3.541730 0.000000 
#    z 0.000000 0.000000 3.533820 
# 
# 
# High freq. dielectric constant tensor:
#      x y z
#    x 1.779900 0.000000 0.000000 
#    y 0.000000 1.750010 0.000000 
#    z 0.000000 0.000000 1.742980 
# 
# From -- ./inp_files/56457.got.cif
#   From: 2010.03.12/outbox.cif.g09.slc.cpg/sg74_29_cif.got.tgz:56457.got - 2010.04.16 15:46:19.
