data_PCOD8300867
_publ_section_title
;
Structure prediction by ZEFSAII (Michael W. Deem and Ramdas Pophale) SiO2 
 PCOD8300867
Probable space group: I M M A
;
_chemical_formula_sum "Si O2"
_cell_formula_units_Z 96
_cell_length_a 22.240896
_cell_length_b 14.141008
_cell_length_c 16.034523
_cell_angle_alpha 90.000000
_cell_angle_beta 90.000000
_cell_angle_gamma 90.000000
_cell_volume 5042.996796
_symmetry_space_group_name_H-M "I M M A"
_symmetry_group_IT_number 74
_symmetry_cell_setting 'orthorhombic'
loop_
_space_group_symop_operation_xyz
x,y,z
-x,1/2-y,z
x,-y,-z
-x,1/2+y,-z
-x,-y,-z
x,1/2+y,-z
-x,y,z
x,1/2-y,z
1/2+x,1/2+y,1/2+z
1/2-x,-y,1/2+z
1/2+x,1/2-y,1/2-z
1/2-x,y,1/2-z
1/2-x,1/2-y,1/2-z
1/2+x,y,1/2-z
1/2-x,1/2+y,1/2+z
1/2+x,-y,1/2+z
loop_
_atom_site_type_symbol
_atom_site_label
_atom_site_fract_x
_atom_site_fract_y
_atom_site_fract_z
Si Si1 0.930370 0.497699 0.813724
Si Si2 0.844641 0.641933 0.891440
Si Si3 0.746481 0.505180 0.096159
Si Si4 0.570961 0.358711 0.011885
Si Si5 0.614925 0.013853 0.867765
Si Si6 0.147369 0.641851 0.085911
O O1 0.896410 0.594819 0.835923
O O2 0.920667 0.472754 0.717419
O O3 0.907367 0.410606 0.869259
O O4 0.000000 0.512831 0.832524
O O5 0.837275 0.750000 0.863804
O O6 0.781131 0.589977 0.876684
O O7 0.863608 0.631338 0.987581
O O8 0.686461 0.515272 0.151129
O O9 0.789367 0.595025 0.111752
O O10 0.725935 0.500000 0.000000
O O11 0.500000 0.372924 0.009904
O O12 0.589953 0.250000 0.021056
O O13 0.597426 0.414144 0.090782
O O14 0.598159 0.398299 0.926392
O O15 0.148780 0.750000 0.114961
#
# Coordination Sequence:
#
# PCOD8300867 Si02
#       6
#    16  16  16  16  16  16
#     4  11  23  37  56  82 115 150 191 236 282 333
#     4   9  20  38  59  83 113 146 185 234 286 339
#     4   9  17  35  58  84 111 145 183 228 279 342
#     4  10  21  37  56  79 111 154 199 233 270 326
#     4  11  21  37  57  84 115 151 186 234 283 329
#     4   9  20  38  59  83 113 146 185 234 286 339
#
# _framework density 19.036301000000002
#
# number of rings (size 3 to 8) (size 9 to 14) (size 15 to 20)
#    0.000    2.167    1.667    3.500    0.000    7.333 
#    0.000    3.333    0.000    0.000    0.000    0.000 
#    0.000    0.000    0.000    0.000    0.000    0.000 
#
# Total GULP energy -595380.991675 kJ/mol
# GULP energy per Si atom -12403.770660 kJ/mol
# Density = 1.899297 g / cm^3
# Si number density = 19.036301 Si / 1000 Ang^3
#
#
#
# Elastic Constant Matrix: (Units=GPa)
#
#
# Indices 1 2 3 4 5 6 
#
# 1 119.6057 19.7589 10.2299 0.0000 0.0000 0.0000
# 2 19.7589 83.6853 -7.1431 0.0000 0.0000 0.0000
# 3 10.2299 -7.1431 40.1886 0.0000 0.0000 0.0000
# 4 0.0000 0.0000 0.0000 11.6509 0.0000 0.0000
# 5 0.0000 0.0000 0.0000 0.0000 30.1230 0.0000
# 6 0.0000 0.0000 0.0000 0.0000 0.0000 20.0107
#
#
#
# Elastic Compliance Matrix: (Units=1/GPa)
#
#
# Indices 1 2 3 4 5 6 
#
# 1 0.008980 -0.002351 -0.002704 0.000000 0.000000 0.000000
# 2 -0.002351 0.012749 0.002864 0.000000 0.000000 0.000000
# 3 -0.002704 0.002864 0.026080 0.000000 0.000000 0.000000
# 4 0.000000 0.000000 0.000000 0.085830 0.000000 0.000000
# 5 0.000000 0.000000 0.000000 0.000000 0.033197 0.000000
# 6 0.000000 0.000000 0.000000 0.000000 0.000000 0.049973
#
#
# Mechanical properties :
#
#
# Convention : Reuss Voigt Hill
#
# Bulk Modulus (GPa) = 23.02627 32.13012 27.57820
# Shear Modulus (GPa) = 21.21631 27.06585 24.14108
#
# Velocity S-wave (km/s) = 3.34206 3.77477 3.56499
# Velocity P-wave (km/s) = 5.19757 5.99279 5.60929
#
# Compressibility (1/GPa) = 0.04342865
#
# Stress axis : x y z
#
# Youngs Moduli (GPa) = 111.35264 78.43652 38.34350
#
# Poissons Ratio (x) = 0.18442 0.10367
# Poissons Ratio (y) = 0.26181 -0.10983
# Poissons Ratio (z) = 0.30108 -0.22468
#
# Static dielectric constant tensor:
#      x y z
#    x 3.471760 0.000000 0.000000 
#    y 0.000000 3.639710 0.000000 
#    z 0.000000 0.000000 3.346070 
# 
# 
# High freq. dielectric constant tensor:
#      x y z
#    x 1.745110 0.000000 0.000000 
#    y 0.000000 1.741530 0.000000 
#    z 0.000000 0.000000 1.729690 
# 
# From -- ./inp_files/35273.got.cif
#   From: 2010.03.12/outbox.cif.g09.slc.cpg/sg74_18_cif.got.tgz:35273.got - 2010.04.16 15:46:19.
