data_PCOD8300505
_publ_section_title
;
Structure prediction by ZEFSAII (Michael W. Deem and Ramdas Pophale) SiO2 
 PCOD8300505
Probable space group: I M M A
;
_chemical_formula_sum "Si O2"
_cell_formula_units_Z 80
_cell_length_a 16.610369
_cell_length_b 24.611553
_cell_length_c 9.290523
_cell_angle_alpha 90.000000
_cell_angle_beta 90.000000
_cell_angle_gamma 90.000000
_cell_volume 3798.030622
_symmetry_space_group_name_H-M "I M M A"
_symmetry_group_IT_number 74
_symmetry_cell_setting 'orthorhombic'
loop_
_space_group_symop_operation_xyz
x,y,z
-x,1/2-y,z
x,-y,-z
-x,1/2+y,-z
-x,-y,-z
x,1/2+y,-z
-x,y,z
x,1/2-y,z
1/2+x,1/2+y,1/2+z
1/2-x,-y,1/2+z
1/2+x,1/2-y,1/2-z
1/2-x,y,1/2-z
1/2-x,1/2-y,1/2-z
1/2+x,y,1/2-z
1/2-x,1/2+y,1/2+z
1/2+x,-y,1/2+z
loop_
_atom_site_type_symbol
_atom_site_label
_atom_site_fract_x
_atom_site_fract_y
_atom_site_fract_z
Si Si1 0.678232 0.534820 0.862582
Si Si2 0.595426 0.147886 0.708799
Si Si3 0.095429 0.644309 0.537929
Si Si4 0.593882 0.968922 0.363649
Si Si5 0.404587 0.250000 0.208849
Si Si6 0.596360 0.750000 0.466942
O O1 0.750000 0.542236 0.750000
O O2 0.643630 0.592698 0.906101
O O3 0.607676 0.501299 0.783828
O O4 0.707161 0.500000 0.000000
O O5 0.500000 0.146625 0.695197
O O6 0.632468 0.091385 0.648583
O O7 0.630854 0.196963 0.614015
O O8 0.619936 0.156230 0.873993
O O9 0.125578 0.696043 0.628592
O O10 0.000000 0.633910 0.554488
O O11 0.500000 0.962380 0.389052
O O12 0.633139 0.000000 0.500000
O O13 0.500000 0.250000 0.210301
O O14 0.370207 0.250000 0.370804
O O15 0.500000 0.750000 0.463914
#
# Coordination Sequence:
#
# PCOD8300505 Si02
#       6
#    16  16  16  16   8   8
#     4  12  25  42  60  85 119 164 204 252 304 361
#     4   9  17  31  53  82 116 154 188 233 293 355
#     4  10  20  37  63  91 120 155 199 246 299 361
#     4  10  21  36  59  90 120 151 195 248 302 360
#     4   9  19  33  56  93 126 153 189 244 302 355
#     4   9  17  29  49  83 124 153 183 235 301 357
#
# _framework density 21.063548999999998
#
# number of rings (size 3 to 8) (size 9 to 14) (size 15 to 20)
#    0.000    2.000    2.000    1.800    2.800    3.200 
#    0.000    0.500    0.000    0.000    0.000    2.800 
#    0.000    0.000    0.000    0.000    0.000    0.000 
#
# Total GULP energy -495978.314020 kJ/mol
# GULP energy per Si atom -12399.457851 kJ/mol
# Density = 2.101561 g / cm^3
# Si number density = 21.063549 Si / 1000 Ang^3
#
#
#
# Elastic Constant Matrix: (Units=GPa)
#
#
# Indices 1 2 3 4 5 6 
#
# 1 25.7015 31.0168 30.6211 0.0000 0.0000 0.0000
# 2 31.0168 227.0219 123.3524 0.0000 0.0000 0.0000
# 3 30.6211 123.3524 199.3392 -0.0002 -0.0001 0.0000
# 4 0.0000 0.0000 -0.0002 52.7801 0.0000 0.0000
# 5 0.0000 0.0000 -0.0001 0.0000 8.0786 0.0000
# 6 0.0000 0.0000 0.0000 0.0000 0.0000 8.3922
#
#
#
# Elastic Compliance Matrix: (Units=1/GPa)
#
#
# Indices 1 2 3 4 5 6 
#
# 1 0.049922 -0.003998 -0.005195 0.000000 0.000000 0.000000
# 2 -0.003998 0.006956 -0.003690 0.000000 0.000000 0.000000
# 3 -0.005195 -0.003690 0.008098 0.000000 0.000000 0.000000
# 4 0.000000 0.000000 0.000000 0.018947 0.000000 0.000000
# 5 0.000000 0.000000 0.000000 0.000000 0.123783 0.000000
# 6 0.000000 0.000000 0.000000 0.000000 0.000000 0.119158
#
#
# Mechanical properties :
#
#
# Convention : Reuss Voigt Hill
#
# Bulk Modulus (GPa) = 25.50349 91.33814 58.42081
# Shear Modulus (GPa) = 13.67237 31.65501 22.66369
#
# Velocity S-wave (km/s) = 2.55051 3.88085 3.28375
# Velocity P-wave (km/s) = 4.56154 7.97111 6.49408
#
# Compressibility (1/GPa) = 0.03921032
#
# Stress axis : x y z
#
# Youngs Moduli (GPa) = 20.03118 143.75451 123.48406
#
# Poissons Ratio (x) = 0.57474 0.64146
# Poissons Ratio (y) = 0.08009 0.45571
# Poissons Ratio (z) = 0.10405 0.53052
#
# Static dielectric constant tensor:
#      x y z
#    x 3.216520 0.000000 0.000000 
#    y 0.000000 4.226220 0.000000 
#    z 0.000000 0.000000 4.119500 
# 
# 
# High freq. dielectric constant tensor:
#      x y z
#    x 1.776900 0.000000 0.000000 
#    y 0.000000 1.842130 0.000000 
#    z 0.000000 0.000000 1.841330 
# 
# From -- ./inp_files/12583.got.cif
#   From: 2010.03.12/outbox.cif.g09.slc.cpg/sg74_7_cif.got.tgz:12583.got - 2010.04.16 15:46:19.
