data_PCOD8300616
_publ_section_title
;
Structure prediction by ZEFSAII (Michael W. Deem and Ramdas Pophale) SiO2 
 PCOD8300616
Probable space group: I M M A
;
_chemical_formula_sum "Si O2"
_cell_formula_units_Z 88
_cell_length_a 26.970069
_cell_length_b 8.696364
_cell_length_c 19.216121
_cell_angle_alpha 90.000000
_cell_angle_beta 90.000000
_cell_angle_gamma 90.000000
_cell_volume 4506.978557
_symmetry_space_group_name_H-M "I M M A"
_symmetry_group_IT_number 74
_symmetry_cell_setting 'orthorhombic'
loop_
_space_group_symop_operation_xyz
x,y,z
-x,1/2-y,z
x,-y,-z
-x,1/2+y,-z
-x,-y,-z
x,1/2+y,-z
-x,y,z
x,1/2-y,z
1/2+x,1/2+y,1/2+z
1/2-x,-y,1/2+z
1/2+x,1/2-y,1/2-z
1/2-x,y,1/2-z
1/2-x,1/2-y,1/2-z
1/2+x,y,1/2-z
1/2-x,1/2+y,1/2+z
1/2+x,-y,1/2+z
loop_
_atom_site_type_symbol
_atom_site_label
_atom_site_fract_x
_atom_site_fract_y
_atom_site_fract_z
Si Si1 0.693982 0.431907 0.424188
Si Si2 0.500000 0.068230 0.576854
Si Si3 0.905256 0.431678 0.151839
Si Si4 0.618689 0.069991 0.797986
Si Si5 0.721291 0.423342 0.178312
Si Si6 0.443853 0.568786 0.070860
O O1 0.698186 0.500000 0.500000
O O2 0.692766 0.250000 0.427681
O O3 0.643852 0.491240 0.387623
O O4 0.741745 0.487379 0.380796
O O5 0.500000 0.250000 0.570616
O O6 0.500000 0.000000 0.500000
O O7 0.451826 0.015802 0.618513
O O8 0.912362 0.250000 0.144361
O O9 0.900381 0.474129 0.232429
O O10 0.610931 0.250000 0.783289
O O11 0.587025 0.010421 0.863306
O O12 0.675670 0.038678 0.816000
O O13 0.702891 0.250000 0.161095
O O14 0.750000 0.421213 0.250000
O O15 0.500000 0.509729 0.080536
O O16 0.441134 0.750000 0.065039
O O17 0.420795 0.500000 0.000000
#
# Coordination Sequence:
#
# PCOD8300616 Si02
#       6
#    16   8  16  16  16  16
#     4  10  22  39  62  88 118 156 200 248 300 359
#     4  12  26  44  64  92 127 164 205 256 308 360
#     4  11  23  42  64  90 122 164 209 249 301 367
#     4  11  23  37  60  93 124 157 199 255 308 359
#     4  10  20  40  61  81 116 159 199 245 296 354
#     4   9  20  39  60  84 118 156 195 242 298 355
#
# _framework density 19.525276000000002
#
# number of rings (size 3 to 8) (size 9 to 14) (size 15 to 20)
#    0.000    1.636    1.818    2.455    1.273    6.182 
#    0.000    3.636    0.000    0.000    0.000    0.000 
#    0.000    0.000    0.000    0.000    0.000    0.000 
#
# Total GULP energy -545760.326980 kJ/mol
# GULP energy per Si atom -12403.643795 kJ/mol
# Density = 1.948084 g / cm^3
# Si number density = 19.525276 Si / 1000 Ang^3
#
#
#
# Elastic Constant Matrix: (Units=GPa)
#
#
# Indices 1 2 3 4 5 6 
#
# 1 121.3004 36.6585 75.1940 0.0000 0.0000 0.0000
# 2 36.6585 57.3510 35.4144 0.0000 0.0000 0.0000
# 3 75.1940 35.4144 169.9648 0.0000 0.0000 0.0000
# 4 0.0000 0.0000 0.0000 37.0630 0.0000 0.0000
# 5 0.0000 0.0000 0.0000 0.0000 35.1977 0.0000
# 6 0.0000 0.0000 0.0000 0.0000 0.0000 36.7055
#
#
#
# Elastic Compliance Matrix: (Units=1/GPa)
#
#
# Indices 1 2 3 4 5 6 
#
# 1 0.012624 -0.005303 -0.004480 0.000000 0.000000 0.000000
# 2 -0.005303 0.022239 -0.002288 0.000000 0.000000 0.000000
# 3 -0.004480 -0.002288 0.008342 0.000000 0.000000 0.000000
# 4 0.000000 0.000000 0.000000 0.026981 0.000000 0.000000
# 5 0.000000 0.000000 0.000000 0.000000 0.028411 0.000000
# 6 0.000000 0.000000 0.000000 0.000000 0.000000 0.027244
#
#
# Mechanical properties :
#
#
# Convention : Reuss Voigt Hill
#
# Bulk Modulus (GPa) = 52.45541 71.46111 61.95826
# Shear Modulus (GPa) = 31.98249 35.21653 33.59951
#
# Velocity S-wave (km/s) = 4.05162 4.25153 4.15278
# Velocity P-wave (km/s) = 6.98650 7.79612 7.40239
#
# Compressibility (1/GPa) = 0.01906381
#
# Stress axis : x y z
#
# Youngs Moduli (GPa) = 79.21664 44.96691 119.87203
#
# Poissons Ratio (x) = 0.23844 0.53702
# Poissons Ratio (y) = 0.42005 0.27424
# Poissons Ratio (z) = 0.35489 0.10287
#
# Static dielectric constant tensor:
#      x y z
#    x 3.889860 0.000000 0.000000 
#    y 0.000000 3.485630 0.000000 
#    z 0.000000 0.000000 3.758560 
# 
# 
# High freq. dielectric constant tensor:
#      x y z
#    x 1.768180 0.000000 0.000000 
#    y 0.000000 1.756270 0.000000 
#    z 0.000000 0.000000 1.775590 
# 
# From -- ./inp_files/54510.got.cif
#   From: 2010.03.12/outbox.cif.g09.slc.cpg/sg74_28_cif.got.tgz:54510.got - 2010.04.16 15:46:19.
