data_PCOD8300275
_publ_section_title
;
Structure prediction by ZEFSAII (Michael W. Deem and Ramdas Pophale) SiO2 
 PCOD8300275
Probable space group: I M M A
;
_chemical_formula_sum "Si O2"
_cell_formula_units_Z 104
_cell_length_a 9.756063
_cell_length_b 23.897629
_cell_length_c 25.048551
_cell_angle_alpha 90.000000
_cell_angle_beta 90.000000
_cell_angle_gamma 90.000000
_cell_volume 5839.988861
_symmetry_space_group_name_H-M "I M M A"
_symmetry_group_IT_number 74
_symmetry_cell_setting 'orthorhombic'
loop_
_space_group_symop_operation_xyz
x,y,z
-x,1/2-y,z
x,-y,-z
-x,1/2+y,-z
-x,-y,-z
x,1/2+y,-z
-x,y,z
x,1/2-y,z
1/2+x,1/2+y,1/2+z
1/2-x,-y,1/2+z
1/2+x,1/2-y,1/2-z
1/2-x,y,1/2-z
1/2-x,1/2-y,1/2-z
1/2+x,y,1/2-z
1/2-x,1/2+y,1/2+z
1/2+x,-y,1/2+z
loop_
_atom_site_type_symbol
_atom_site_label
_atom_site_fract_x
_atom_site_fract_y
_atom_site_fract_z
Si Si1 0.341981 0.684964 0.299641
Si Si2 0.160510 0.363946 0.913938
Si Si3 0.147692 0.009583 0.939060
Si Si4 0.344367 0.629713 0.801184
Si Si5 0.648607 0.750000 0.797144
Si Si6 0.660938 0.089717 0.087431
Si Si7 0.660087 0.814301 0.994478
O O1 0.500000 0.674755 0.284144
O O2 0.313180 0.750000 0.311483
O O3 0.250000 0.663681 0.250000
O O4 0.302383 0.650549 0.352729
O O5 0.199422 0.428255 0.925059
O O6 0.000000 0.352157 0.925441
O O7 0.251058 0.325270 0.952606
O O8 0.000000 0.998578 0.909493
O O9 0.268483 0.967624 0.926754
O O10 0.116228 0.000000 0.000000
O O11 0.500000 0.616999 0.783277
O O12 0.250000 0.619702 0.750000
O O13 0.332419 0.691997 0.828493
O O14 0.296905 0.592893 0.850452
O O15 0.500000 0.750000 0.769768
O O16 0.750000 0.750000 0.750000
O O17 0.500000 0.082731 0.080138
O O18 0.709928 0.142965 0.052175
O O19 0.500000 0.823951 0.007836
O O20 0.684433 0.750000 0.975687
#
# Coordination Sequence:
#
# PCOD8300275 Si02
#       7
#    16  16  16  16   8  16  16
#     4   9  18  33  54  80 109 141 174 212 261 317
#     4  10  20  36  57  79 106 140 179 219 264 314
#     4  10  20  36  56  77 103 139 180 220 261 309
#     4   9  18  32  50  72  98 131 169 210 256 306
#     4   8  14  26  46  68  92 124 162 202 245 294
#     4  10  21  35  53  77 105 138 176 216 262 314
#     4  10  21  34  51  79 111 140 171 212 264 317
#
# _framework density 17.808254000000002
#
# number of rings (size 3 to 8) (size 9 to 14) (size 15 to 20)
#    0.000    2.462    1.538    0.462    1.077    3.077 
#    0.000    2.308    0.000    3.692    0.000    0.000 
#    0.000    0.000    0.000    0.000    0.000    0.000 
#
# Total GULP energy -644210.653817 kJ/mol
# GULP energy per Si atom -12388.666420 kJ/mol
# Density = 1.776772 g / cm^3
# Si number density = 17.808254 Si / 1000 Ang^3
#
#
#
# Elastic Constant Matrix: (Units=GPa)
#
#
# Indices 1 2 3 4 5 6 
#
# 1 57.0871 33.6635 49.6037 0.0000 0.0000 0.0000
# 2 33.6635 95.9540 43.7852 0.0000 0.0000 0.0000
# 3 49.6037 43.7852 104.6757 0.0000 0.0000 0.0000
# 4 0.0000 0.0000 0.0000 26.6355 0.0000 0.0000
# 5 0.0000 0.0000 0.0000 0.0000 30.2389 0.0000
# 6 0.0000 0.0000 0.0000 0.0000 0.0000 25.6531
#
#
#
# Elastic Compliance Matrix: (Units=1/GPa)
#
#
# Indices 1 2 3 4 5 6 
#
# 1 0.031814 -0.005292 -0.012862 0.000000 0.000000 0.000000
# 2 -0.005292 0.013760 -0.003248 0.000000 0.000000 0.000000
# 3 -0.012862 -0.003248 0.017007 0.000000 0.000000 0.000000
# 4 0.000000 0.000000 0.000000 0.037544 0.000000 0.000000
# 5 0.000000 0.000000 0.000000 0.000000 0.033070 0.000000
# 6 0.000000 0.000000 0.000000 0.000000 0.000000 0.038982
#
#
# Mechanical properties :
#
#
# Convention : Reuss Voigt Hill
#
# Bulk Modulus (GPa) = 50.56480 56.86904 53.71692
# Shear Modulus (GPa) = 22.56580 25.21647 23.89113
#
# Velocity S-wave (km/s) = 3.56357 3.76706 3.66673
# Velocity P-wave (km/s) = 6.73704 7.13613 6.93946
#
# Compressibility (1/GPa) = 0.01977660
#
# Stress axis : x y z
#
# Youngs Moduli (GPa) = 31.43272 72.67220 58.79860
#
# Poissons Ratio (x) = 0.38458 0.75629
# Poissons Ratio (y) = 0.16634 0.19099
# Poissons Ratio (z) = 0.40430 0.23605
#
# Static dielectric constant tensor:
#      x y z
#    x 3.362880 0.000000 0.000000 
#    y 0.000000 3.203400 0.000000 
#    z 0.000000 0.000000 3.323540 
# 
# 
# High freq. dielectric constant tensor:
#      x y z
#    x 1.691740 0.000000 0.000000 
#    y 0.000000 1.686150 0.000000 
#    z 0.000000 0.000000 1.677900 
# 
# From -- ./inp_files/64808.got.cif
#   From: 2010.03.12/outbox.cif.g09.slc.cpg/sg74_33_cif.got.tgz:64808.got - 2010.04.16 15:46:19.
