data_PCOD8300999
_publ_section_title
;
Structure prediction by ZEFSAII (Michael W. Deem and Ramdas Pophale) SiO2 
 PCOD8300999
Probable space group: I M M A
;
_chemical_formula_sum "Si O2"
_cell_formula_units_Z 96
_cell_length_a 8.781629
_cell_length_b 20.201954
_cell_length_c 28.107249
_cell_angle_alpha 90.000000
_cell_angle_beta 90.000000
_cell_angle_gamma 90.000000
_cell_volume 4986.396446
_symmetry_space_group_name_H-M "I M M A"
_symmetry_group_IT_number 74
_symmetry_cell_setting 'orthorhombic'
loop_
_space_group_symop_operation_xyz
x,y,z
-x,1/2-y,z
x,-y,-z
-x,1/2+y,-z
-x,-y,-z
x,1/2+y,-z
-x,y,z
x,1/2-y,z
1/2+x,1/2+y,1/2+z
1/2-x,-y,1/2+z
1/2+x,1/2-y,1/2-z
1/2-x,y,1/2-z
1/2-x,1/2-y,1/2-z
1/2+x,y,1/2-z
1/2-x,1/2+y,1/2+z
1/2+x,-y,1/2+z
loop_
_atom_site_type_symbol
_atom_site_label
_atom_site_fract_x
_atom_site_fract_y
_atom_site_fract_z
Si Si1 0.819666 0.676135 0.037948
Si Si2 0.318874 0.436539 0.362650
Si Si3 0.822085 0.826831 0.699922
Si Si4 0.177603 0.675396 0.363611
Si Si5 0.179299 0.053039 0.698559
Si Si6 0.818903 0.562235 0.970718
O O1 0.757945 0.750000 0.027495
O O2 0.762225 0.650988 0.089014
O O3 0.000000 0.674660 0.039597
O O4 0.757622 0.628562 0.996429
O O5 0.500000 0.438759 0.359153
O O6 0.259109 0.367841 0.341319
O O7 0.249501 0.498697 0.335820
O O8 0.259600 0.439620 0.416840
O O9 0.791038 0.750000 0.689206
O O10 0.750000 0.848218 0.750000
O O11 0.000000 0.843529 0.701579
O O12 0.228446 0.750000 0.349208
O O13 0.221291 0.625982 0.320954
O O14 0.000000 0.672606 0.374700
O O15 0.250000 0.044639 0.750000
O O16 0.000000 0.041698 0.701686
O O17 0.000000 0.560828 0.971209
O O18 0.753322 0.500000 0.000000
#
# Coordination Sequence:
#
# PCOD8300999 Si02
#       6
#    16  16  16  16  16  16
#     4   9  17  31  53  79 105 135 173 215 258 309
#     4  11  22  36  57  82 109 142 180 223 268 316
#     4  10  21  38  59  82 110 143 179 220 266 318
#     4   9  19  36  56  79 108 141 176 217 267 319
#     4  11  23  38  56  78 107 141 178 222 269 320
#     4   9  18  32  51  76 105 137 175 219 263 308
#
# _framework density 19.252379999999999
#
# number of rings (size 3 to 8) (size 9 to 14) (size 15 to 20)
#    0.000    2.167    0.000    3.000    0.000    4.667 
#    0.000    3.333    0.000    6.500    0.000    0.000 
#    0.000    0.000    0.000    0.000    0.000    0.000 
#
# Total GULP energy -595292.242978 kJ/mol
# GULP energy per Si atom -12401.921729 kJ/mol
# Density = 1.920856 g / cm^3
# Si number density = 19.252380 Si / 1000 Ang^3
#
#
#
# Elastic Constant Matrix: (Units=GPa)
#
#
# Indices 1 2 3 4 5 6 
#
# 1 60.1062 34.4935 37.7975 0.0000 0.0000 0.0000
# 2 34.4935 105.8311 63.3719 0.0000 0.0000 0.0000
# 3 37.7975 63.3719 130.6266 0.0000 0.0000 0.0000
# 4 0.0000 0.0000 0.0000 42.0355 0.0000 0.0000
# 5 0.0000 0.0000 0.0000 0.0000 27.6938 0.0000
# 6 0.0000 0.0000 0.0000 0.0000 0.0000 22.7272
#
#
#
# Elastic Compliance Matrix: (Units=1/GPa)
#
#
# Indices 1 2 3 4 5 6 
#
# 1 0.021885 -0.004709 -0.004048 0.000000 0.000000 0.000000
# 2 -0.004709 0.014331 -0.005590 0.000000 0.000000 0.000000
# 3 -0.004048 -0.005590 0.011539 0.000000 0.000000 0.000000
# 4 0.000000 0.000000 0.000000 0.023789 0.000000 0.000000
# 5 0.000000 0.000000 0.000000 0.000000 0.036109 0.000000
# 6 0.000000 0.000000 0.000000 0.000000 0.000000 0.044000
#
#
# Mechanical properties :
#
#
# Convention : Reuss Voigt Hill
#
# Bulk Modulus (GPa) = 52.46365 63.09883 57.78124
# Shear Modulus (GPa) = 26.78072 29.21804 27.99938
#
# Velocity S-wave (km/s) = 3.73370 3.89991 3.81771
# Velocity P-wave (km/s) = 6.77473 7.28867 7.03640
#
# Compressibility (1/GPa) = 0.01906082
#
# Stress axis : x y z
#
# Youngs Moduli (GPa) = 45.69289 69.77811 86.66520
#
# Poissons Ratio (x) = 0.32859 0.35083
# Poissons Ratio (y) = 0.21517 0.48446
# Poissons Ratio (z) = 0.18497 0.39006
#
# Static dielectric constant tensor:
#      x y z
#    x 3.384530 0.000000 0.000000 
#    y 0.000000 3.862810 0.000000 
#    z 0.000000 0.000000 3.625250 
# 
# 
# High freq. dielectric constant tensor:
#      x y z
#    x 1.735810 0.000000 0.000000 
#    y 0.000000 1.764690 0.000000 
#    z 0.000000 0.000000 1.751400 
# 
# From -- ./inp_files/64301.got.cif
#   From: 2010.03.12/outbox.cif.g09.slc.cpg/sg74_33_cif.got.tgz:64301.got - 2010.04.16 15:46:19.
