data_PCOD8300109
_publ_section_title
;
Structure prediction by ZEFSAII (Michael W. Deem and Ramdas Pophale) SiO2 
 PCOD8300109
Probable space group: I M M A
;
_chemical_formula_sum "Si O2"
_cell_formula_units_Z 104
_cell_length_a 26.283042
_cell_length_b 16.893239
_cell_length_c 12.230731
_cell_angle_alpha 90.000000
_cell_angle_beta 90.000000
_cell_angle_gamma 90.000000
_cell_volume 5430.514403
_symmetry_space_group_name_H-M "I M M A"
_symmetry_group_IT_number 74
_symmetry_cell_setting 'orthorhombic'
loop_
_space_group_symop_operation_xyz
x,y,z
-x,1/2-y,z
x,-y,-z
-x,1/2+y,-z
-x,-y,-z
x,1/2+y,-z
-x,y,z
x,1/2-y,z
1/2+x,1/2+y,1/2+z
1/2-x,-y,1/2+z
1/2+x,1/2-y,1/2-z
1/2-x,y,1/2-z
1/2-x,1/2-y,1/2-z
1/2+x,y,1/2-z
1/2-x,1/2+y,1/2+z
1/2+x,-y,1/2+z
loop_
_atom_site_type_symbol
_atom_site_label
_atom_site_fract_x
_atom_site_fract_y
_atom_site_fract_z
Si Si1 0.351185 0.656812 0.728564
Si Si2 0.444240 0.843817 0.587728
Si Si3 0.849343 0.842865 0.296487
Si Si4 0.725158 0.443722 0.414481
Si Si5 0.817632 0.841592 0.533190
Si Si6 0.056847 0.155923 0.842804
Si Si7 0.250000 0.566333 0.250000
O O1 0.342100 0.750000 0.707417
O O2 0.404796 0.627066 0.679707
O O3 0.308359 0.608284 0.665912
O O4 0.349125 0.636130 0.857211
O O5 0.500000 0.877943 0.618039
O O6 0.446312 0.750000 0.587621
O O7 0.428554 0.872379 0.465813
O O8 0.845320 0.750000 0.274243
O O9 0.851349 0.861800 0.426315
O O10 0.900892 0.877711 0.241403
O O11 0.800451 0.880718 0.237610
O O12 0.693673 0.500000 0.500000
O O13 0.764128 0.386207 0.476663
O O14 0.758879 0.508142 0.351341
O O15 0.803114 0.750000 0.535095
O O16 0.056461 0.250000 0.837534
O O17 0.000000 0.124699 0.812060
#
# Coordination Sequence:
#
# PCOD8300109 Si02
#       7
#    16  16  16  16  16  16   8
#     4  10  20  35  56  77 102 141 180 213 256 314
#     4   8  15  29  51  78 103 129 169 220 266 305
#     4  10  21  35  53  80 110 139 176 218 264 316
#     4  12  23  36  51  76 106 140 178 217 259 314
#     4  10  20  36  53  74 107 142 175 215 258 307
#     4   8  15  30  52  77 105 136 172 217 263 307
#     4  12  23  36  53  76 108 146 174 218 269 312
#
# _framework density 19.151039999999998
#
# number of rings (size 3 to 8) (size 9 to 14) (size 15 to 20)
#    0.000    2.154    3.077    1.615    2.154    1.231 
#    0.000    0.769    0.000    6.000    0.000    1.077 
#    0.000    0.000    0.000    0.000    0.000    0.000 
#
# Total GULP energy -644317.232752 kJ/mol
# GULP energy per Si atom -12390.716014 kJ/mol
# Density = 1.910745 g / cm^3
# Si number density = 19.151040 Si / 1000 Ang^3
#
#
#
# Elastic Constant Matrix: (Units=GPa)
#
#
# Indices 1 2 3 4 5 6 
#
# 1 137.1699 32.4529 66.3184 0.0000 0.0000 0.0000
# 2 32.4529 37.7526 34.6200 0.0000 0.0000 0.0000
# 3 66.3184 34.6200 106.8267 0.0000 0.0000 0.0000
# 4 0.0000 0.0000 0.0000 20.2725 0.0000 0.0000
# 5 0.0000 0.0000 0.0000 0.0000 35.7071 0.0000
# 6 0.0000 0.0000 0.0000 0.0000 0.0000 0.0053
#
#
#
# Elastic Compliance Matrix: (Units=1/GPa)
#
#
# Indices 1 2 3 4 5 6 
#
# 1 0.010932 -0.004516 -0.005323 0.000000 0.000000 0.000000
# 2 -0.004516 0.039554 -0.010015 0.000000 0.000000 0.000000
# 3 -0.005323 -0.010015 0.015911 0.000000 0.000000 0.000000
# 4 0.000000 0.000000 0.000000 0.049328 0.000000 0.000000
# 5 0.000000 0.000000 0.000000 0.000000 0.028006 0.000000
# 6 0.000000 0.000000 0.000000 0.000000 0.000000188.439327
#
#
# Mechanical properties :
#
#
# Convention : Reuss Voigt Hill
#
# Bulk Modulus (GPa) = 37.46832 60.94798 49.20815
# Shear Modulus (GPa) = 0.02651 21.08748 10.55699
#
# Velocity S-wave (km/s) = 0.11777 3.32190 2.35042
# Velocity P-wave (km/s) = 4.43008 6.82696 5.75469
#
# Compressibility (1/GPa) = 0.02668921
#
# Stress axis : x y z
#
# Youngs Moduli (GPa) = 91.47135 25.28164 62.84828
#
# Poissons Ratio (x) = 0.11417 0.33456
# Poissons Ratio (y) = 0.41309 0.62943
# Poissons Ratio (z) = 0.48693 0.25320
#
# Static dielectric constant tensor:
#      x y z
#    x 3.687070 0.000000 0.000000 
#    y 0.000000 3.378150 0.000000 
#    z 0.000000 0.000000 3.943790 
# 
# 
# High freq. dielectric constant tensor:
#      x y z
#    x 1.726720 0.000000 0.000000 
#    y 0.000000 1.726810 0.000000 
#    z 0.000000 0.000000 1.752270 
# 
# From -- ./inp_files/26343.got.cif
#   From: 2010.03.12/outbox.cif.g09.slc.cpg/sg74_14_cif.got.tgz:26343.got - 2010.04.16 15:46:19.
