data_PCOD8300968
_publ_section_title
;
Structure prediction by ZEFSAII (Michael W. Deem and Ramdas Pophale) SiO2 
 PCOD8300968
Probable space group: I M M A
;
_chemical_formula_sum "Si O2"
_cell_formula_units_Z 64
_cell_length_a 8.748165
_cell_length_b 12.021078
_cell_length_c 31.013484
_cell_angle_alpha 90.000000
_cell_angle_beta 90.000000
_cell_angle_gamma 90.000000
_cell_volume 3261.451598
_symmetry_space_group_name_H-M "I M M A"
_symmetry_group_IT_number 74
_symmetry_cell_setting 'orthorhombic'
loop_
_space_group_symop_operation_xyz
x,y,z
-x,1/2-y,z
x,-y,-z
-x,1/2+y,-z
-x,-y,-z
x,1/2+y,-z
-x,y,z
x,1/2-y,z
1/2+x,1/2+y,1/2+z
1/2-x,-y,1/2+z
1/2+x,1/2-y,1/2-z
1/2-x,y,1/2-z
1/2-x,1/2-y,1/2-z
1/2+x,y,1/2-z
1/2-x,1/2+y,1/2+z
1/2+x,-y,1/2+z
loop_
_atom_site_type_symbol
_atom_site_label
_atom_site_fract_x
_atom_site_fract_y
_atom_site_fract_z
Si Si1 0.817871 0.750000 0.180701
Si Si2 0.181406 0.125185 0.374824
Si Si3 0.820333 0.250000 0.917111
Si Si4 0.820135 0.970458 0.451755
Si Si5 0.182043 0.018887 0.706283
O O1 0.759509 0.750000 0.131600
O O2 0.749246 0.642253 0.203372
O O3 0.000000 0.750000 0.185117
O O4 0.250196 0.250000 0.373471
O O5 0.000000 0.130925 0.373792
O O6 0.237252 0.065818 0.418781
O O7 0.240931 0.055554 0.333722
O O8 0.760835 0.143663 0.941718
O O9 0.000000 0.250000 0.917652
O O10 0.000000 0.953066 0.447159
O O11 0.771602 0.000000 0.500000
O O12 0.250000 0.964685 0.750000
O O13 0.000000 0.023358 0.708040
#
# Coordination Sequence:
#
# PCOD8300968 Si02
#       5
#     8  16   8  16  16
#     4  11  22  38  59  85 118 154 194 237 287 345
#     4   9  19  36  57  84 116 150 189 239 291 337
#     4  11  23  38  60  87 125 160 189 237 294 353
#     4  10  21  37  63  92 117 150 197 244 285 342
#     4  11  22  37  59  85 116 151 191 240 292 349
#
# _framework density 19.623165
#
# number of rings (size 3 to 8) (size 9 to 14) (size 15 to 20)
#    0.000    1.750    2.500    1.875    1.750    2.000 
#    0.000    0.000    0.000    5.250    0.000    0.000 
#    0.000    0.000    0.000    0.000    0.000    0.000 
#
# Total GULP energy -396877.041226 kJ/mol
# GULP energy per Si atom -12402.407538 kJ/mol
# Density = 1.957850 g / cm^3
# Si number density = 19.623165 Si / 1000 Ang^3
#
#
#
# Elastic Constant Matrix: (Units=GPa)
#
#
# Indices 1 2 3 4 5 6 
#
# 1 41.6581 22.1604 35.3392 0.0000 0.0000 0.0000
# 2 22.1604 146.7782 67.7691 0.0000 0.0000 0.0000
# 3 35.3392 67.7691 179.0018 0.0000 0.0000 0.0000
# 4 0.0000 0.0000 0.0000 46.2225 0.0000 0.0000
# 5 0.0000 0.0000 0.0000 0.0000 27.6398 0.0000
# 6 0.0000 0.0000 0.0000 0.0000 0.0000 -48.7308
#
#
#
# Elastic Compliance Matrix: (Units=1/GPa)
#
#
# Indices 1 2 3 4 5 6 
#
# 1 0.029373 -0.002130 -0.004993 0.000000 0.000000 0.000000
# 2 -0.002130 0.008411 -0.002764 0.000000 0.000000 0.000000
# 3 -0.004993 -0.002764 0.007619 0.000000 0.000000 0.000000
# 4 0.000000 0.000000 0.000000 0.021634 0.000000 0.000000
# 5 0.000000 0.000000 0.000000 0.000000 0.036180 0.000000
# 6 0.000000 0.000000 0.000000 0.000000 0.000000 -0.020521
#
#
# Mechanical properties :
#
#
# Convention : Reuss Voigt Hill
#
# Bulk Modulus (GPa) = 39.01643 68.66394 53.84019
# Shear Modulus (GPa) = 45.04054 21.17093 33.10573
#
# Velocity S-wave (km/s) = 4.79610 3.28819 4.11186
# Velocity P-wave (km/s) = 7.11309 7.03445 7.07388
#
# Compressibility (1/GPa) = 0.02563023
#
# Stress axis : x y z
#
# Youngs Moduli (GPa) = 34.04471 118.89787 131.25819
#
# Poissons Ratio (x) = 0.25319 0.65534
# Poissons Ratio (y) = 0.07250 0.36277
# Poissons Ratio (z) = 0.16998 0.32861
#
# Static dielectric constant tensor:
#      x y z
#    x 3.291860 0.000000 0.000000 
#    y 0.000000 3.676140 0.000000 
#    z 0.000000 0.000000 3.997450 
# 
# 
# High freq. dielectric constant tensor:
#      x y z
#    x 1.738660 0.000000 0.000000 
#    y 0.000000 1.768660 0.000000 
#    z 0.000000 0.000000 1.785770 
# 
# From -- ./inp_files/69755.got.cif
#   From: 2010.03.12/outbox.cif.g09.slc.cpg/sg74_35_cif.got.tgz:69755.got - 2010.04.16 15:46:19.
