data_PCOD8300736
_publ_section_title
;
Structure prediction by ZEFSAII (Michael W. Deem and Ramdas Pophale) SiO2 
 PCOD8300736
Probable space group: I M M A
;
_chemical_formula_sum "Si O2"
_cell_formula_units_Z 104
_cell_length_a 26.215120
_cell_length_b 8.851254
_cell_length_c 21.916980
_cell_angle_alpha 90.000000
_cell_angle_beta 90.000000
_cell_angle_gamma 90.000000
_cell_volume 5085.543401
_symmetry_space_group_name_H-M "I M M A"
_symmetry_group_IT_number 74
_symmetry_cell_setting 'orthorhombic'
loop_
_space_group_symop_operation_xyz
x,y,z
-x,1/2-y,z
x,-y,-z
-x,1/2+y,-z
-x,-y,-z
x,1/2+y,-z
-x,y,z
x,1/2-y,z
1/2+x,1/2+y,1/2+z
1/2-x,-y,1/2+z
1/2+x,1/2-y,1/2-z
1/2-x,y,1/2-z
1/2-x,1/2-y,1/2-z
1/2+x,y,1/2-z
1/2-x,1/2+y,1/2+z
1/2+x,-y,1/2+z
loop_
_atom_site_type_symbol
_atom_site_label
_atom_site_fract_x
_atom_site_fract_y
_atom_site_fract_z
Si Si1 0.100975 0.928038 0.378362
Si Si2 0.122537 0.926142 0.936097
Si Si3 0.642618 0.419981 0.753024
Si Si4 0.000000 0.930106 0.567350
Si Si5 0.556867 0.418843 0.655329
Si Si6 0.792862 0.928910 0.144568
Si Si7 0.203736 0.076179 0.561980
O O1 0.087808 0.750000 0.371259
O O2 0.127200 0.998211 0.316996
O O3 0.143690 0.955613 0.430086
O O4 0.050036 0.017269 0.395948
O O5 0.132306 0.750000 0.942933
O O6 0.073457 0.958187 0.894262
O O7 0.171947 0.003003 0.907518
O O8 0.110576 0.000000 0.000000
O O9 0.658971 0.250000 0.770176
O O10 0.591272 0.428608 0.714703
O O11 0.689619 0.491350 0.712241
O O12 0.000000 0.750000 0.561735
O O13 0.000000 0.000000 0.500000
O O14 0.500000 0.457247 0.676788
O O15 0.560684 0.250000 0.626985
O O16 0.802312 0.750000 0.146569
O O17 0.735409 0.973543 0.123470
O O18 0.215418 0.250000 0.552104
O O19 0.223527 0.000000 0.500000
#
# Coordination Sequence:
#
# PCOD8300736 Si02
#       7
#    16  16  16   8  16  16  16
#     4  10  21  38  62  91 119 152 191 235 290 349
#     4  11  21  33  50  73 103 141 186 232 283 338
#     4   8  16  32  57  85 113 145 185 230 279 336
#     4  12  26  44  64  88 118 156 197 244 293 342
#     4   9  18  33  53  76 103 138 181 231 285 339
#     4   9  18  35  56  81 113 148 188 232 279 334
#     4  10  21  35  56  86 117 151 192 238 286 339
#
# _framework density 20.450125
#
# number of rings (size 3 to 8) (size 9 to 14) (size 15 to 20)
#    0.000    2.308    0.000    3.923    1.077    4.923 
#    0.000    6.154    0.000    0.000    0.000    6.462 
#    0.000    0.000    0.000    0.000    0.000    0.000 
#
# Total GULP energy -644305.420170 kJ/mol
# GULP energy per Si atom -12390.488849 kJ/mol
# Density = 2.040358 g / cm^3
# Si number density = 20.450125 Si / 1000 Ang^3
#
#
#
# Elastic Constant Matrix: (Units=GPa)
#
#
# Indices 1 2 3 4 5 6 
#
# 1 121.1890 31.4771 39.4744 0.0000 0.0000 0.0000
# 2 31.4771 53.7313 32.0917 0.0000 0.0000 0.0000
# 3 39.4744 32.0917 121.6265 0.0000 0.0000 0.0000
# 4 0.0000 0.0000 0.0000 24.4596 0.0000 0.0000
# 5 0.0000 0.0000 0.0000 0.0000 21.8854 0.0000
# 6 0.0000 0.0000 0.0000 0.0000 0.0000 22.0394
#
#
#
# Elastic Compliance Matrix: (Units=1/GPa)
#
#
# Indices 1 2 3 4 5 6 
#
# 1 0.010144 -0.004720 -0.002047 0.000000 0.000000 0.000000
# 2 -0.004720 0.024289 -0.004877 0.000000 0.000000 0.000000
# 3 -0.002047 -0.004877 0.010173 0.000000 0.000000 0.000000
# 4 0.000000 0.000000 0.000000 0.040884 0.000000 0.000000
# 5 0.000000 0.000000 0.000000 0.000000 0.045693 0.000000
# 6 0.000000 0.000000 0.000000 0.000000 0.000000 0.045373
#
#
# Mechanical properties :
#
#
# Convention : Reuss Voigt Hill
#
# Bulk Modulus (GPa) = 46.90772 55.84815 51.37793
# Shear Modulus (GPa) = 24.16042 26.57713 25.36878
#
# Velocity S-wave (km/s) = 3.44092 3.60892 3.52592
# Velocity P-wave (km/s) = 6.22688 6.68838 6.46175
#
# Compressibility (1/GPa) = 0.02131845
#
# Stress axis : x y z
#
# Youngs Moduli (GPa) = 98.57729 41.17077 98.29942
#
# Poissons Ratio (x) = 0.19434 0.20121
# Poissons Ratio (y) = 0.46531 0.47939
# Poissons Ratio (z) = 0.20178 0.20078
#
# Static dielectric constant tensor:
#      x y z
#    x 3.855420 0.000000 0.000000 
#    y 0.000000 3.439580 0.000000 
#    z 0.000000 0.000000 3.818000 
# 
# 
# High freq. dielectric constant tensor:
#      x y z
#    x 1.808780 0.000000 0.000000 
#    y 0.000000 1.759030 0.000000 
#    z 0.000000 0.000000 1.807080 
# 
# From -- ./inp_files/49279.got.cif
#   From: 2010.03.12/outbox.cif.g09.slc.cpg/sg74_25_cif.got.tgz:49279.got - 2010.04.16 15:46:19.
