data_PCOD8300950
_publ_section_title
;
Structure prediction by ZEFSAII (Michael W. Deem and Ramdas Pophale) SiO2 
 PCOD8300950
Probable space group: I M M A
;
_chemical_formula_sum "Si O2"
_cell_formula_units_Z 88
_cell_length_a 8.720315
_cell_length_b 26.824074
_cell_length_c 18.882037
_cell_angle_alpha 90.000000
_cell_angle_beta 90.000000
_cell_angle_gamma 90.000000
_cell_volume 4416.779881
_symmetry_space_group_name_H-M "I M M A"
_symmetry_group_IT_number 74
_symmetry_cell_setting 'orthorhombic'
loop_
_space_group_symop_operation_xyz
x,y,z
-x,1/2-y,z
x,-y,-z
-x,1/2+y,-z
-x,-y,-z
x,1/2+y,-z
-x,y,z
x,1/2-y,z
1/2+x,1/2+y,1/2+z
1/2-x,-y,1/2+z
1/2+x,1/2-y,1/2-z
1/2-x,y,1/2-z
1/2-x,1/2-y,1/2-z
1/2+x,y,1/2-z
1/2-x,1/2+y,1/2+z
1/2+x,-y,1/2+z
loop_
_atom_site_type_symbol
_atom_site_label
_atom_site_fract_x
_atom_site_fract_y
_atom_site_fract_z
Si Si1 0.178072 0.931840 0.675319
Si Si2 0.322292 0.304597 0.682846
Si Si3 0.818863 0.153708 0.088759
Si Si4 0.816499 0.250000 0.330616
Si Si5 0.678647 0.121159 0.565008
Si Si6 0.823645 0.047016 0.673546
O O1 0.250000 0.920674 0.750000
O O2 0.280272 0.897862 0.625742
O O3 0.000000 0.916108 0.673262
O O4 0.200632 0.989245 0.654577
O O5 0.500000 0.301673 0.696331
O O6 0.247278 0.250000 0.676952
O O7 0.250000 0.333605 0.750000
O O8 0.281609 0.331361 0.611373
O O9 0.736160 0.200928 0.125687
O O10 0.000000 0.164886 0.089282
O O11 0.757288 0.140286 0.010110
O O12 0.750000 0.250000 0.250000
O O13 0.000000 0.250000 0.324869
O O14 0.500000 0.108081 0.559633
O O15 0.756965 0.074367 0.604049
O O16 0.750000 0.060623 0.750000
O O17 0.000000 0.061213 0.681510
#
# Coordination Sequence:
#
# PCOD8300950 Si02
#       6
#    16  16  16   8  16  16
#     4  10  21  39  62  88 118 155 199 248 301 358
#     4   9  18  33  53  76 105 145 191 238 286 339
#     4  11  24  41  63  91 122 158 197 246 303 359
#     4  12  26  46  70  94 121 156 199 248 298 360
#     4  10  22  37  57  84 118 159 198 243 296 354
#     4  10  21  37  60  87 120 160 203 250 296 351
#
# _framework density 19.924018
#
# number of rings (size 3 to 8) (size 9 to 14) (size 15 to 20)
#    0.000    1.818    0.000    3.545    1.273    6.545 
#    0.000    3.636    0.000    0.000    0.000    0.000 
#    0.000    0.000    0.000    0.000    0.000    0.000 
#
# Total GULP energy -545186.012502 kJ/mol
# GULP energy per Si atom -12390.591193 kJ/mol
# Density = 1.987867 g / cm^3
# Si number density = 19.924018 Si / 1000 Ang^3
#
#
#
# Elastic Constant Matrix: (Units=GPa)
#
#
# Indices 1 2 3 4 5 6 
#
# 1 48.8365 57.4002 61.3761 0.0000 0.0000 0.0000
# 2 57.4002 100.0453 82.7778 0.0001 0.0000 0.0000
# 3 61.3761 82.7778 169.3979 0.0008 0.0000 0.0000
# 4 0.0000 0.0001 0.0008 2.7931 0.0000 0.0000
# 5 0.0000 0.0000 0.0000 0.0000 32.4459 0.0000
# 6 0.0000 0.0000 0.0000 0.0000 0.0000 36.0433
#
#
#
# Elastic Compliance Matrix: (Units=1/GPa)
#
#
# Indices 1 2 3 4 5 6 
#
# 1 0.071462 -0.032866 -0.009832 0.000003 0.000000 0.000000
# 2 -0.032866 0.031895 -0.003678 0.000001 0.000000 0.000000
# 3 -0.009832 -0.003678 0.011263 -0.000003 0.000000 0.000000
# 4 0.000003 0.000001 -0.000003 0.358027 0.000000 0.000000
# 5 0.000000 0.000000 0.000000 0.000000 0.030820 0.000000
# 6 0.000000 0.000000 0.000000 0.000000 0.000000 0.027744
#
#
# Mechanical properties :
#
#
# Convention : Reuss Voigt Hill
#
# Bulk Modulus (GPa) = 45.72770 80.15420 62.94095
# Shear Modulus (GPa) = 7.92077 22.03817 14.97947
#
# Velocity S-wave (km/s) = 1.99603 3.32943 2.74493
# Velocity P-wave (km/s) = 5.32100 7.42276 6.45796
#
# Compressibility (1/GPa) = 0.02186858
#
# Stress axis : x y z
#
# Youngs Moduli (GPa) = 13.99355 31.35291 88.78821
#
# Poissons Ratio (x) = 1.03043 0.87295
# Poissons Ratio (y) = 0.45991 0.32656
# Poissons Ratio (z) = 0.13758 0.11531
#
# Static dielectric constant tensor:
#      x y z
#    x 3.657650 0.000000 0.000000 
#    y 0.000000 3.052660 0.000000 
#    z 0.000000 0.000000 3.747360 
# 
# 
# High freq. dielectric constant tensor:
#      x y z
#    x 1.778130 0.000000 0.000000 
#    y 0.000000 1.789900 0.000000 
#    z 0.000000 0.000000 1.786590 
# 
# From -- ./inp_files/40060.got.cif
#   From: 2010.03.12/outbox.cif.g09.slc.cpg/sg74_21_cif.got.tgz:40060.got - 2010.04.16 15:46:19.
