data_PCOD8300032
_publ_section_title
;
Structure prediction by ZEFSAII (Michael W. Deem and Ramdas Pophale) SiO2 
 PCOD8300032
Probable space group: I M M A
;
_chemical_formula_sum "Si O2"
_cell_formula_units_Z 56
_cell_length_a 27.905476
_cell_length_b 20.070621
_cell_length_c 4.961630
_cell_angle_alpha 90.000000
_cell_angle_beta 90.000000
_cell_angle_gamma 90.000000
_cell_volume 2778.910885
_symmetry_space_group_name_H-M "I M M A"
_symmetry_group_IT_number 74
_symmetry_cell_setting 'orthorhombic'
loop_
_space_group_symop_operation_xyz
x,y,z
-x,1/2-y,z
x,-y,-z
-x,1/2+y,-z
-x,-y,-z
x,1/2+y,-z
-x,y,z
x,1/2-y,z
1/2+x,1/2+y,1/2+z
1/2-x,-y,1/2+z
1/2+x,1/2-y,1/2-z
1/2-x,y,1/2-z
1/2-x,1/2-y,1/2-z
1/2+x,y,1/2-z
1/2-x,1/2+y,1/2+z
1/2+x,-y,1/2+z
loop_
_atom_site_type_symbol
_atom_site_label
_atom_site_fract_x
_atom_site_fract_y
_atom_site_fract_z
Si Si1 0.153904 0.882079 0.055032
Si Si2 0.284979 0.750000 0.493985
Si Si3 0.779882 0.000000 0.000000
Si Si4 0.000000 0.950760 0.741134
Si Si5 0.598339 0.578209 0.950268
O O1 0.109291 0.882544 0.269252
O O2 0.180148 0.812373 0.033291
O O3 0.189900 0.940871 0.139611
O O4 0.138175 0.898192 0.754327
O O5 0.250000 0.750000 0.750000
O O6 0.250000 0.750000 0.250000
O O7 0.750000 0.030293 0.250000
O O8 0.952744 0.904961 0.696670
O O9 0.000000 0.000000 0.500000
O O10 0.000000 0.000000 0.000000
O O11 0.602029 0.500000 0.000000
#
# Coordination Sequence:
#
# PCOD8300032 Si02
#       5
#    16   8   8   8  16
#     4  12  23  39  63  87 123 160 209 256 310 375
#     4  12  26  46  62  85 122 169 218 254 312 384
#     4  12  22  36  56  85 114 149 200 262 314 350
#     4  10  20  34  60  95 132 161 192 249 312 377
#     4  11  20  38  61  95 125 157 202 253 313 373
#
# _framework density 20.151779999999999
#
# number of rings (size 3 to 8) (size 9 to 14) (size 15 to 20)
#    0.000    0.571    2.857    8.571    0.000    0.000 
#    0.000    0.000    0.000    5.143    0.000    0.000 
#    0.000    0.000    0.000    0.000    0.000    0.000 
#
# Total GULP energy -346966.273018 kJ/mol
# GULP energy per Si atom -12391.652608 kJ/mol
# Density = 2.010591 g / cm^3
# Si number density = 20.151780 Si / 1000 Ang^3
#
#
#
# Elastic Constant Matrix: (Units=GPa)
#
#
# Indices 1 2 3 4 5 6 
#
# 1 118.5415 65.4963 45.3886 0.0000 0.0000 0.0000
# 2 65.4963 123.6822 31.5958 0.0000 0.0000 0.0000
# 3 45.3886 31.5958 138.6779 0.0000 0.0000 0.0000
# 4 0.0000 0.0000 0.0000 25.3556 0.0000 0.0000
# 5 0.0000 0.0000 0.0000 0.0000 8.4829 0.0000
# 6 0.0000 0.0000 0.0000 0.0000 0.0000 30.1755
#
#
#
# Elastic Compliance Matrix: (Units=1/GPa)
#
#
# Indices 1 2 3 4 5 6 
#
# 1 0.012892 -0.006104 -0.002829 0.000000 0.000000 0.000000
# 2 -0.006104 0.011475 -0.000617 0.000000 0.000000 0.000000
# 3 -0.002829 -0.000617 0.008277 0.000000 0.000000 0.000000
# 4 0.000000 0.000000 0.000000 0.039439 0.000000 0.000000
# 5 0.000000 0.000000 0.000000 0.000000 0.117884 0.000000
# 6 0.000000 0.000000 0.000000 0.000000 0.000000 0.033140
#
#
# Mechanical properties :
#
#
# Convention : Reuss Voigt Hill
#
# Bulk Modulus (GPa) = 73.82647 73.98479 73.90563
# Shear Modulus (GPa) = 20.26588 28.69753 24.48170
#
# Velocity S-wave (km/s) = 3.17466 3.77778 3.48927
# Velocity P-wave (km/s) = 7.08186 7.47143 7.27925
#
# Compressibility (1/GPa) = 0.01354528
#
# Stress axis : x y z
#
# Youngs Moduli (GPa) = 77.56995 87.14405 120.81344
#
# Poissons Ratio (x) = 0.53194 0.34173
# Poissons Ratio (y) = 0.47350 0.07449
# Poissons Ratio (z) = 0.21941 0.05373
#
# Static dielectric constant tensor:
#      x y z
#    x -24.981350 0.000000 0.000000 
#    y 0.000000 3.363870 0.000000 
#    z 0.000000 0.000000 3.776800 
# 
# 
# High freq. dielectric constant tensor:
#      x y z
#    x 1.801090 0.000000 0.000000 
#    y 0.000000 1.742950 0.000000 
#    z 0.000000 0.000000 1.813790 
# 
# From -- ./inp_files/4266.got.cif
#   From: 2010.03.12/outbox.cif.g09.slc.cpg/sg74_3_cif.got.tgz:4266.got - 2010.04.16 15:46:19.
