data_PCOD8300307
_publ_section_title
;
Structure prediction by ZEFSAII (Michael W. Deem and Ramdas Pophale) SiO2 
 PCOD8300307
Probable space group: I M M A
;
_chemical_formula_sum "Si O2"
_cell_formula_units_Z 96
_cell_length_a 17.483100
_cell_length_b 23.756154
_cell_length_c 11.597069
_cell_angle_alpha 90.000000
_cell_angle_beta 90.000000
_cell_angle_gamma 90.000000
_cell_volume 4816.624770
_symmetry_space_group_name_H-M "I M M A"
_symmetry_group_IT_number 74
_symmetry_cell_setting 'orthorhombic'
loop_
_space_group_symop_operation_xyz
x,y,z
-x,1/2-y,z
x,-y,-z
-x,1/2+y,-z
-x,-y,-z
x,1/2+y,-z
-x,y,z
x,1/2-y,z
1/2+x,1/2+y,1/2+z
1/2-x,-y,1/2+z
1/2+x,1/2-y,1/2-z
1/2-x,y,1/2-z
1/2-x,1/2-y,1/2-z
1/2+x,y,1/2-z
1/2-x,1/2+y,1/2+z
1/2+x,-y,1/2+z
loop_
_atom_site_type_symbol
_atom_site_label
_atom_site_fract_x
_atom_site_fract_y
_atom_site_fract_z
Si Si1 0.411421 0.123102 0.100335
Si Si2 0.590397 0.686080 0.125415
Si Si3 0.409839 0.413645 0.716039
Si Si4 0.408851 0.084491 0.454079
Si Si5 0.911274 0.310219 0.175489
Si Si6 0.340010 0.474875 0.242259
O O1 0.500000 0.106017 0.087082
O O2 0.399569 0.171984 0.193137
O O3 0.367255 0.067130 0.141276
O O4 0.377750 0.150087 0.983164
O O5 0.500000 0.691757 0.111417
O O6 0.624835 0.750000 0.134003
O O7 0.612029 0.648933 0.238134
O O8 0.500000 0.423068 0.727784
O O9 0.381422 0.420926 0.584816
O O10 0.367324 0.461960 0.790435
O O11 0.500000 0.080712 0.443076
O O12 0.375481 0.144223 0.410618
O O13 0.375519 0.037337 0.369012
O O14 0.870487 0.250000 0.156062
O O15 0.000000 0.304699 0.146406
O O16 0.250000 0.471362 0.250000
#
# Coordination Sequence:
#
# PCOD8300307 Si02
#       6
#    16  16  16  16  16  16
#     4   9  17  32  54  80 111 144 179 224 277 326
#     4   9  18  33  56  86 114 141 177 222 273 330
#     4  10  20  36  57  82 111 145 182 224 275 330
#     4   9  18  34  56  79 109 144 178 224 278 327
#     4   8  13  23  46  79 106 132 172 220 268 315
#     4  11  22  36  53  81 107 143 184 234 276 326
#
# _framework density 19.930969999999999
#
# number of rings (size 3 to 8) (size 9 to 14) (size 15 to 20)
#    0.000    2.667    0.000    3.500    0.000    4.667 
#    6.000    5.833    0.000   13.000    0.000    0.000 
#    0.000    0.000    0.000    0.000    0.000    0.000 
#
# Total GULP energy -594848.145325 kJ/mol
# GULP energy per Si atom -12392.669694 kJ/mol
# Density = 1.988561 g / cm^3
# Si number density = 19.930970 Si / 1000 Ang^3
#
#
#
# Elastic Constant Matrix: (Units=GPa)
#
#
# Indices 1 2 3 4 5 6 
#
# 1 44.0091 28.3597 19.2329 0.0000 0.0000 0.0000
# 2 28.3597 149.4316 51.4042 0.0000 0.0000 0.0000
# 3 19.2329 51.4042 93.5394 0.0000 0.0000 0.0000
# 4 0.0000 0.0000 0.0000 19.4652 0.0000 0.0000
# 5 0.0000 0.0000 0.0000 0.0000 1.6394 0.0000
# 6 0.0000 0.0000 0.0000 0.0000 0.0000 1.0897
#
#
#
# Elastic Compliance Matrix: (Units=1/GPa)
#
#
# Indices 1 2 3 4 5 6 
#
# 1 0.026707 -0.003921 -0.003337 0.000000 0.000000 0.000000
# 2 -0.003921 0.008828 -0.004045 0.000000 0.000000 0.000000
# 3 -0.003337 -0.004045 0.013600 0.000000 0.000000 0.000000
# 4 0.000000 0.000000 0.000000 0.051374 0.000000 0.000000
# 5 0.000000 0.000000 0.000000 0.000000 0.609978 0.000000
# 6 0.000000 0.000000 0.000000 0.000000 0.000000 0.917656
#
#
# Mechanical properties :
#
#
# Convention : Reuss Voigt Hill
#
# Bulk Modulus (GPa) = 37.69377 53.88597 45.78987
# Shear Modulus (GPa) = 3.01279 16.97108 9.99194
#
# Velocity S-wave (km/s) = 1.23081 2.92120 2.24146
# Velocity P-wave (km/s) = 4.57964 6.20265 5.45188
#
# Compressibility (1/GPa) = 0.02652958
#
# Stress axis : x y z
#
# Youngs Moduli (GPa) = 37.44287 113.28105 73.53117
#
# Poissons Ratio (x) = 0.44415 0.24535
# Poissons Ratio (y) = 0.14681 0.29743
# Poissons Ratio (z) = 0.12494 0.45822
#
# Static dielectric constant tensor:
#      x y z
#    x 3.048980 0.000000 0.000000 
#    y 0.000000 3.968610 0.000000 
#    z 0.000000 0.000000 3.703640 
# 
# 
# High freq. dielectric constant tensor:
#      x y z
#    x 1.715690 0.000000 0.000000 
#    y 0.000000 1.796370 0.000000 
#    z 0.000000 0.000000 1.772970 
# 
# From -- ./inp_files/22430.got.cif
#   From: 2010.03.12/outbox.cif.g09.slc.cpg/sg74_12_cif.got.tgz:22430.got - 2010.04.16 15:46:19.
