data_PCOD8300849
_publ_section_title
;
Structure prediction by ZEFSAII (Michael W. Deem and Ramdas Pophale) SiO2 
 PCOD8300849
Probable space group: I M M A
;
_chemical_formula_sum "Si O2"
_cell_formula_units_Z 64
_cell_length_a 14.101560
_cell_length_b 8.905283
_cell_length_c 28.152945
_cell_angle_alpha 90.000000
_cell_angle_beta 90.000000
_cell_angle_gamma 90.000000
_cell_volume 3535.401297
_symmetry_space_group_name_H-M "I M M A"
_symmetry_group_IT_number 74
_symmetry_cell_setting 'orthorhombic'
loop_
_space_group_symop_operation_xyz
x,y,z
-x,1/2-y,z
x,-y,-z
-x,1/2+y,-z
-x,-y,-z
x,1/2+y,-z
-x,y,z
x,1/2-y,z
1/2+x,1/2+y,1/2+z
1/2-x,-y,1/2+z
1/2+x,1/2-y,1/2-z
1/2-x,y,1/2-z
1/2-x,1/2-y,1/2-z
1/2+x,y,1/2-z
1/2-x,1/2+y,1/2+z
1/2+x,-y,1/2+z
loop_
_atom_site_type_symbol
_atom_site_label
_atom_site_fract_x
_atom_site_fract_y
_atom_site_fract_z
Si Si1 0.000000 0.576214 0.449645
Si Si2 0.500000 0.928265 0.448563
Si Si3 0.654242 0.426880 0.873638
Si Si4 0.500000 0.926655 0.199421
Si Si5 0.000000 0.420907 0.200868
Si Si6 0.855469 0.574840 0.879984
O O1 0.000000 0.500000 0.500000
O O2 0.906068 0.532535 0.420397
O O3 0.000000 0.750000 0.459709
O O4 0.500000 0.750000 0.452514
O O5 0.500000 0.000000 0.500000
O O6 0.405610 0.981451 0.421508
O O7 0.678086 0.250000 0.871328
O O8 0.594752 0.481846 0.827614
O O9 0.748210 0.524325 0.874968
O O10 0.500000 0.750000 0.195757
O O11 0.500000 0.974720 0.253571
O O12 0.093047 0.456826 0.169997
O O13 0.000000 0.250000 0.218492
O O14 0.862273 0.750000 0.893189
#
# Coordination Sequence:
#
# PCOD8300849 Si02
#       6
#     8   8  16   8   8  16
#     4   9  19  35  54  76 105 136 172 216 261 308
#     4  11  22  38  59  81 107 140 176 218 263 311
#     4   9  19  36  54  76 106 140 176 219 265 312
#     4   9  19  35  55  77 104 139 182 223 263 315
#     4   9  20  36  52  74 107 139 172 217 269 318
#     4  10  21  37  55  79 109 141 176 216 263 318
#
# _framework density 18.102612000000001
#
# number of rings (size 3 to 8) (size 9 to 14) (size 15 to 20)
#    0.000    2.500    0.000    4.125    0.000    7.000 
#    0.000   10.000    0.000    0.000    0.000    0.000 
#    0.000    0.000    0.000    0.000    0.000    0.000 
#
# Total GULP energy -396802.224792 kJ/mol
# GULP energy per Si atom -12400.069525 kJ/mol
# Density = 1.806141 g / cm^3
# Si number density = 18.102612 Si / 1000 Ang^3
#
#
#
# Elastic Constant Matrix: (Units=GPa)
#
#
# Indices 1 2 3 4 5 6 
#
# 1 150.6729 55.1832 61.6544 0.0000 0.0000 0.0000
# 2 55.1832 81.6068 49.4254 0.0000 0.0000 0.0000
# 3 61.6544 49.4254 129.8249 0.0000 0.0000 0.0000
# 4 0.0000 0.0000 0.0000 37.0104 0.0000 0.0000
# 5 0.0000 0.0000 0.0000 0.0000 10.0275 0.0000
# 6 0.0000 0.0000 0.0000 0.0000 0.0000 34.3692
#
#
#
# Elastic Compliance Matrix: (Units=1/GPa)
#
#
# Indices 1 2 3 4 5 6 
#
# 1 0.009490 -0.004793 -0.002682 0.000000 0.000000 0.000000
# 2 -0.004793 0.018346 -0.004709 0.000000 0.000000 0.000000
# 3 -0.002682 -0.004709 0.010769 0.000000 0.000000 0.000000
# 4 0.000000 0.000000 0.000000 0.027019 0.000000 0.000000
# 5 0.000000 0.000000 0.000000 0.000000 0.099726 0.000000
# 6 0.000000 0.000000 0.000000 0.000000 0.000000 0.029096
#
#
# Mechanical properties :
#
#
# Convention : Reuss Voigt Hill
#
# Bulk Modulus (GPa) = 70.23194 77.18117 73.70656
# Shear Modulus (GPa) = 22.36545 29.33753 25.85149
#
# Velocity S-wave (km/s) = 3.51876 4.03006 3.78306
# Velocity P-wave (km/s) = 7.44242 8.02391 7.73863
#
# Compressibility (1/GPa) = 0.01423854
#
# Stress axis : x y z
#
# Youngs Moduli (GPa) = 105.37808 54.50650 92.85874
#
# Poissons Ratio (x) = 0.26122 0.24906
# Poissons Ratio (y) = 0.50503 0.43724
# Poissons Ratio (z) = 0.28264 0.25665
#
# Static dielectric constant tensor:
#      x y z
#    x 3.584890 0.000000 0.000000 
#    y 0.000000 3.266240 0.000000 
#    z 0.000000 0.000000 3.261590 
# 
# 
# High freq. dielectric constant tensor:
#      x y z
#    x 1.707420 0.000000 0.000000 
#    y 0.000000 1.701500 0.000000 
#    z 0.000000 0.000000 1.704370 
# 
# From -- ./inp_files/66685.got.cif
#   From: 2010.03.12/outbox.cif.g09.slc.cpg/sg74_34_cif.got.tgz:66685.got - 2010.04.16 15:46:19.
