data_PCOD8300088
_publ_section_title
;
Structure prediction by ZEFSAII (Michael W. Deem and Ramdas Pophale) SiO2 
 PCOD8300088
Probable space group: I M M A
;
_chemical_formula_sum "Si O2"
_cell_formula_units_Z 80
_cell_length_a 28.325512
_cell_length_b 16.711576
_cell_length_c 9.282884
_cell_angle_alpha 90.000000
_cell_angle_beta 90.000000
_cell_angle_gamma 90.000000
_cell_volume 4394.182605
_symmetry_space_group_name_H-M "I M M A"
_symmetry_group_IT_number 74
_symmetry_cell_setting 'orthorhombic'
loop_
_space_group_symop_operation_xyz
x,y,z
-x,1/2-y,z
x,-y,-z
-x,1/2+y,-z
-x,-y,-z
x,1/2+y,-z
-x,y,z
x,1/2-y,z
1/2+x,1/2+y,1/2+z
1/2-x,-y,1/2+z
1/2+x,1/2-y,1/2-z
1/2-x,y,1/2-z
1/2-x,1/2-y,1/2-z
1/2+x,y,1/2-z
1/2-x,1/2+y,1/2+z
1/2+x,-y,1/2+z
loop_
_atom_site_type_symbol
_atom_site_label
_atom_site_fract_x
_atom_site_fract_y
_atom_site_fract_z
Si Si1 0.707950 0.082014 0.838993
Si Si2 0.103386 0.159109 0.324895
Si Si3 0.055693 0.020259 0.162602
Si Si4 0.207451 0.598354 0.664184
Si Si5 0.107861 0.424753 0.601399
O O1 0.750000 0.125926 0.750000
O O2 0.654299 0.116621 0.826204
O O3 0.701407 0.991996 0.777315
O O4 0.724786 0.092186 0.001164
O O5 0.089536 0.250000 0.291422
O O6 0.078354 0.104882 0.204746
O O7 0.159709 0.148382 0.316056
O O8 0.084603 0.136612 0.486669
O O9 0.000000 0.027353 0.174124
O O10 0.071779 0.950992 0.274480
O O11 0.071697 0.000000 0.000000
O O12 0.250000 0.641700 0.750000
O O13 0.125470 0.500000 0.500000
#
# Coordination Sequence:
#
# PCOD8300088 Si02
#       5
#    16  16  16  16  16
#     4   9  14  25  45  72 100 129 170 214 249 284
#     4  10  20  35  55  78 106 139 176 215 257 307
#     4  10  21  37  57  80 104 132 168 217 269 317
#     4   9  16  28  44  72 104 136 168 210 253 298
#     4   9  16  34  51  75 103 135 174 213 252 303
#
# _framework density 18.205888999999999
#
# number of rings (size 3 to 8) (size 9 to 14) (size 15 to 20)
#    0.000    2.600    6.000    0.000    0.000    6.000 
#    0.000    1.000    0.000   10.800    0.000    0.000 
#    0.000    0.000    0.000    0.000    0.000    0.000 
#
# Total GULP energy -495530.853834 kJ/mol
# GULP energy per Si atom -12388.271346 kJ/mol
# Density = 1.816445 g / cm^3
# Si number density = 18.205889 Si / 1000 Ang^3
#
#
#
# Elastic Constant Matrix: (Units=GPa)
#
#
# Indices 1 2 3 4 5 6 
#
# 1 82.7884 30.8682 64.5433 0.0000 0.0000 0.0000
# 2 30.8682 78.1426 48.4651 0.0000 0.0000 0.0000
# 3 64.5433 48.4651 114.6549 0.0000 0.0000 0.0000
# 4 0.0000 0.0000 0.0000 13.2583 0.0000 0.0000
# 5 0.0000 0.0000 0.0000 0.0000 36.7074 0.0000
# 6 0.0000 0.0000 0.0000 0.0000 0.0000 6.6110
#
#
#
# Elastic Compliance Matrix: (Units=1/GPa)
#
#
# Indices 1 2 3 4 5 6 
#
# 1 0.021630 -0.001345 -0.011608 0.000000 0.000000 0.000000
# 2 -0.001345 0.017428 -0.006610 0.000000 0.000000 0.000000
# 3 -0.011608 -0.006610 0.018050 0.000000 0.000000 0.000000
# 4 0.000000 0.000000 0.000000 0.075425 0.000000 0.000000
# 5 0.000000 0.000000 0.000000 0.000000 0.027242 0.000000
# 6 0.000000 0.000000 0.000000 0.000000 0.000000 0.151264
#
#
# Mechanical properties :
#
#
# Convention : Reuss Voigt Hill
#
# Bulk Modulus (GPa) = 55.60770 62.59325 59.10047
# Shear Modulus (GPa) = 14.03871 20.09596 17.06733
#
# Velocity S-wave (km/s) = 2.77990 3.32598 3.06512
# Velocity P-wave (km/s) = 6.39639 7.01462 6.71263
#
# Compressibility (1/GPa) = 0.01798312
#
# Stress axis : x y z
#
# Youngs Moduli (GPa) = 46.23171 57.37952 55.40118
#
# Poissons Ratio (x) = 0.07718 0.64309
# Poissons Ratio (y) = 0.06219 0.36618
# Poissons Ratio (z) = 0.53665 0.37925
#
# Static dielectric constant tensor:
#      x y z
#    x 3.344960 0.000000 0.000000 
#    y 0.000000 2.985130 0.000000 
#    z 0.000000 0.000000 3.498800 
# 
# 
# High freq. dielectric constant tensor:
#      x y z
#    x 1.707180 0.000000 0.000000 
#    y 0.000000 1.654960 0.000000 
#    z 0.000000 0.000000 1.699650 
# 
# From -- ./inp_files/14913.got.cif
#   From: 2010.03.12/outbox.cif.g09.slc.cpg/sg74_8_cif.got.tgz:14913.got - 2010.04.16 15:46:19.
