data_PCOD8300433
_publ_section_title
;
Structure prediction by ZEFSAII (Michael W. Deem and Ramdas Pophale) SiO2 
 PCOD8300433
Probable space group: I M M A
;
_chemical_formula_sum "Si O2"
_cell_formula_units_Z 112
_cell_length_a 14.298847
_cell_length_b 28.940723
_cell_length_c 14.534928
_cell_angle_alpha 90.000000
_cell_angle_beta 90.000000
_cell_angle_gamma 90.000000
_cell_volume 6014.828938
_symmetry_space_group_name_H-M "I M M A"
_symmetry_group_IT_number 74
_symmetry_cell_setting 'orthorhombic'
loop_
_space_group_symop_operation_xyz
x,y,z
-x,1/2-y,z
x,-y,-z
-x,1/2+y,-z
-x,-y,-z
x,1/2+y,-z
-x,y,z
x,1/2-y,z
1/2+x,1/2+y,1/2+z
1/2-x,-y,1/2+z
1/2+x,1/2-y,1/2-z
1/2-x,y,1/2-z
1/2-x,1/2-y,1/2-z
1/2+x,y,1/2-z
1/2-x,1/2+y,1/2+z
1/2+x,-y,1/2+z
loop_
_atom_site_type_symbol
_atom_site_label
_atom_site_fract_x
_atom_site_fract_y
_atom_site_fract_z
Si Si1 0.894703 0.860121 0.074968
Si Si2 0.697879 0.953642 0.955214
Si Si3 0.111079 0.885049 0.406238
Si Si4 0.609936 0.066166 0.721331
Si Si5 0.397057 0.927571 0.575642
Si Si6 0.765796 0.197130 0.642615
Si Si7 0.106057 0.535053 0.735391
O O1 0.852598 0.902927 0.136276
O O2 0.829764 0.815817 0.089337
O O3 0.000000 0.846758 0.105596
O O4 0.892387 0.876152 0.968266
O O5 0.810236 0.956233 0.965098
O O6 0.671886 0.950339 0.847937
O O7 0.655119 0.908683 0.003920
O O8 0.654750 0.000000 0.000000
O O9 0.146377 0.913669 0.317792
O O10 0.148351 0.832920 0.396198
O O11 0.000000 0.883713 0.415668
O O12 0.500000 0.069153 0.716254
O O13 0.642423 0.012732 0.716714
O O14 0.500000 0.949437 0.549188
O O15 0.389293 0.925201 0.686573
O O16 0.790367 0.250000 0.621503
O O17 0.750000 0.188318 0.750000
O O18 0.000000 0.528400 0.698494
#
# Coordination Sequence:
#
# PCOD8300433 Si02
#       7
#    16  16  16  16  16  16  16
#     4  10  20  37  58  80 110 150 190 234 289 342
#     4  12  23  35  56  83 113 155 198 233 278 335
#     4  11  22  38  57  81 115 155 191 233 284 335
#     4   9  18  32  52  76 113 154 190 232 275 326
#     4  10  23  38  53  76 111 151 192 239 283 329
#     4  11  23  38  59  86 115 148 189 236 288 348
#     4  10  21  36  53  81 115 151 197 240 276 326
#
# _framework density 18.620645
#
# number of rings (size 3 to 8) (size 9 to 14) (size 15 to 20)
#    0.000    1.571    4.286    0.857    2.000    1.429 
#    2.571    1.429    0.000    0.000    0.000    2.000 
#    0.000    3.429    0.000    0.000    0.000    0.000 
#
# Total GULP energy -694189.388426 kJ/mol
# GULP energy per Si atom -12396.239079 kJ/mol
# Density = 1.857826 g / cm^3
# Si number density = 18.620645 Si / 1000 Ang^3
#
#
#
# Elastic Constant Matrix: (Units=GPa)
#
#
# Indices 1 2 3 4 5 6 
#
# 1 104.1707 36.3116 28.4150 0.0001 -0.0001 0.0000
# 2 36.3116 93.7375 46.9054 0.0002 -0.0001 0.0000
# 3 28.4150 46.9054 86.4427 0.0012 0.0002 -0.0001
# 4 0.0001 0.0002 0.0012 18.8176 0.0000 -0.0001
# 5 -0.0001 -0.0001 0.0002 0.0000 23.4669 0.0000
# 6 0.0000 0.0000 -0.0001 -0.0001 0.0000 24.6387
#
#
#
# Elastic Compliance Matrix: (Units=1/GPa)
#
#
# Indices 1 2 3 4 5 6 
#
# 1 0.011307 -0.003460 -0.001840 0.000000 0.000000 0.000000
# 2 -0.003460 0.015703 -0.007383 0.000000 0.000000 0.000000
# 3 -0.001840 -0.007383 0.016179 -0.000001 0.000000 0.000000
# 4 0.000000 0.000000 -0.000001 0.053142 0.000000 0.000000
# 5 0.000000 0.000000 0.000000 0.000000 0.042613 0.000000
# 6 0.000000 0.000000 0.000000 0.000000 0.000000 0.040587
#
#
# Mechanical properties :
#
#
# Convention : Reuss Voigt Hill
#
# Bulk Modulus (GPa) = 56.10327 56.40167 56.25247
# Shear Modulus (GPa) = 23.71489 24.89924 24.30707
#
# Velocity S-wave (km/s) = 3.57260 3.66072 3.61693
# Velocity P-wave (km/s) = 6.87117 6.94431 6.90784
#
# Compressibility (1/GPa) = 0.01782427
#
# Stress axis : x y z
#
# Youngs Moduli (GPa) = 88.43774 63.68265 61.80681
#
# Poissons Ratio (x) = 0.22032 0.11370
# Poissons Ratio (y) = 0.30596 0.45635
# Poissons Ratio (z) = 0.16269 0.47020
#
# Static dielectric constant tensor:
#      x y z
#    x 3.560010 0.000000 0.000000 
#    y 0.000000 3.119830 0.000000 
#    z 0.000000 0.000000 3.452090 
# 
# 
# High freq. dielectric constant tensor:
#      x y z
#    x 1.743080 0.000000 0.000000 
#    y 0.000000 1.673900 0.000000 
#    z 0.000000 0.000000 1.714810 
# 
# From -- ./inp_files/32945.got.cif
#   From: 2010.03.12/outbox.cif.g09.slc.cpg/sg74_17_cif.got.tgz:32945.got - 2010.04.16 15:46:19.
