data_PCOD8300713
_publ_section_title
;
Structure prediction by ZEFSAII (Michael W. Deem and Ramdas Pophale) SiO2 
 PCOD8300713
Probable space group: I M M A
;
_chemical_formula_sum "Si O2"
_cell_formula_units_Z 96
_cell_length_a 8.919492
_cell_length_b 19.984895
_cell_length_c 27.640613
_cell_angle_alpha 90.000000
_cell_angle_beta 90.000000
_cell_angle_gamma 90.000000
_cell_volume 4927.080540
_symmetry_space_group_name_H-M "I M M A"
_symmetry_group_IT_number 74
_symmetry_cell_setting 'orthorhombic'
loop_
_space_group_symop_operation_xyz
x,y,z
-x,1/2-y,z
x,-y,-z
-x,1/2+y,-z
-x,-y,-z
x,1/2+y,-z
-x,y,z
x,1/2-y,z
1/2+x,1/2+y,1/2+z
1/2-x,-y,1/2+z
1/2+x,1/2-y,1/2-z
1/2-x,y,1/2-z
1/2-x,1/2-y,1/2-z
1/2+x,y,1/2-z
1/2-x,1/2+y,1/2+z
1/2+x,-y,1/2+z
loop_
_atom_site_type_symbol
_atom_site_label
_atom_site_fract_x
_atom_site_fract_y
_atom_site_fract_z
Si Si1 0.673290 0.672532 0.016686
Si Si2 0.175948 0.436117 0.361295
Si Si3 0.825442 0.827641 0.800052
Si Si4 0.178338 0.676088 0.374482
Si Si5 0.175878 0.065454 0.698592
Si Si6 0.824031 0.556865 0.961929
O O1 0.500000 0.651322 0.011190
O O2 0.694280 0.750000 0.002804
O O3 0.731962 0.659199 0.071188
O O4 0.773783 0.629353 0.980649
O O5 0.253689 0.367663 0.344465
O O6 0.214498 0.492755 0.322113
O O7 0.239929 0.460034 0.412377
O O8 0.000000 0.423963 0.366380
O O9 0.794888 0.750000 0.810460
O O10 0.750000 0.850364 0.750000
O O11 0.000000 0.844237 0.796189
O O12 0.235980 0.750000 0.359217
O O13 0.243746 0.621625 0.337410
O O14 0.000000 0.675179 0.374643
O O15 0.250000 0.075070 0.750000
O O16 0.000000 0.075780 0.704311
O O17 0.000000 0.557587 0.952125
O O18 0.777070 0.500000 0.000000
#
# Coordination Sequence:
#
# PCOD8300713 Si02
#       6
#    16  16  16  16  16  16
#     4   9  18  35  60  85 108 141 185 228 270 321
#     4  11  23  38  58  81 107 144 188 232 276 326
#     4  10  21  38  60  85 114 147 183 226 276 331
#     4   8  15  31  55  80 107 140 178 218 259 308
#     4  10  21  35  53  79 108 140 178 220 266 313
#     4  11  24  39  56  81 113 147 182 226 282 338
#
# _framework density 19.484155000000001
#
# number of rings (size 3 to 8) (size 9 to 14) (size 15 to 20)
#    0.000    2.167    0.000    4.000    0.000    7.667 
#    0.000    0.833    0.000    1.000    0.000    0.000 
#    0.000    0.000    0.000    0.000    0.000    0.000 
#
# Total GULP energy -595362.250906 kJ/mol
# GULP energy per Si atom -12403.380227 kJ/mol
# Density = 1.943981 g / cm^3
# Si number density = 19.484155 Si / 1000 Ang^3
#
#
#
# Elastic Constant Matrix: (Units=GPa)
#
#
# Indices 1 2 3 4 5 6 
#
# 1 64.9724 35.1333 29.6903 0.0000 0.0000 0.0000
# 2 35.1333 71.3810 20.9458 0.0000 0.0000 0.0000
# 3 29.6903 20.9458 73.4843 0.0000 0.0000 0.0000
# 4 0.0000 0.0000 0.0000 34.9583 0.0000 0.0000
# 5 0.0000 0.0000 0.0000 0.0000 37.3800 0.0000
# 6 0.0000 0.0000 0.0000 0.0000 0.0000 24.0694
#
#
#
# Elastic Compliance Matrix: (Units=1/GPa)
#
#
# Indices 1 2 3 4 5 6 
#
# 1 0.023752 -0.009685 -0.006836 0.000000 0.000000 0.000000
# 2 -0.009685 0.019237 -0.001570 0.000000 0.000000 0.000000
# 3 -0.006836 -0.001570 0.016818 0.000000 0.000000 0.000000
# 4 0.000000 0.000000 0.000000 0.028605 0.000000 0.000000
# 5 0.000000 0.000000 0.000000 0.000000 0.026752 0.000000
# 6 0.000000 0.000000 0.000000 0.000000 0.000000 0.041546
#
#
# Mechanical properties :
#
#
# Convention : Reuss Voigt Hill
#
# Bulk Modulus (GPa) = 42.32868 42.37518 42.35193
# Shear Modulus (GPa) = 24.90438 27.55278 26.22858
#
# Velocity S-wave (km/s) = 3.57905 3.76455 3.67297
# Velocity P-wave (km/s) = 6.23308 6.37899 6.30646
#
# Compressibility (1/GPa) = 0.02362464
#
# Stress axis : x y z
#
# Youngs Moduli (GPa) = 42.10188 51.98368 59.46013
#
# Poissons Ratio (x) = 0.50344 0.40648
# Poissons Ratio (y) = 0.40774 0.09337
# Poissons Ratio (z) = 0.28782 0.08163
#
# Static dielectric constant tensor:
#      x y z
#    x 3.343460 0.000000 0.000000 
#    y 0.000000 3.700280 0.000000 
#    z 0.000000 0.000000 3.566210 
# 
# 
# High freq. dielectric constant tensor:
#      x y z
#    x 1.742170 0.000000 0.000000 
#    y 0.000000 1.769240 0.000000 
#    z 0.000000 0.000000 1.762380 
# 
# From -- ./inp_files/64248.got.cif
#   From: 2010.03.12/outbox.cif.g09.slc.cpg/sg74_33_cif.got.tgz:64248.got - 2010.04.16 15:46:19.
