data_PCOD8300627
_publ_section_title
;
Structure prediction by ZEFSAII (Michael W. Deem and Ramdas Pophale) SiO2 
 PCOD8300627
Probable space group: I M M A
;
_chemical_formula_sum "Si O2"
_cell_formula_units_Z 88
_cell_length_a 21.611972
_cell_length_b 9.103886
_cell_length_c 22.836115
_cell_angle_alpha 90.000000
_cell_angle_beta 90.000000
_cell_angle_gamma 90.000000
_cell_volume 4493.072521
_symmetry_space_group_name_H-M "I M M A"
_symmetry_group_IT_number 74
_symmetry_cell_setting 'orthorhombic'
loop_
_space_group_symop_operation_xyz
x,y,z
-x,1/2-y,z
x,-y,-z
-x,1/2+y,-z
-x,-y,-z
x,1/2+y,-z
-x,y,z
x,1/2-y,z
1/2+x,1/2+y,1/2+z
1/2-x,-y,1/2+z
1/2+x,1/2-y,1/2-z
1/2-x,y,1/2-z
1/2-x,1/2-y,1/2-z
1/2+x,y,1/2-z
1/2-x,1/2+y,1/2+z
1/2+x,-y,1/2+z
loop_
_atom_site_type_symbol
_atom_site_label
_atom_site_fract_x
_atom_site_fract_y
_atom_site_fract_z
Si Si1 0.617122 0.918506 0.618117
Si Si2 0.500000 0.426575 0.564253
Si Si3 0.677064 0.418165 0.258316
Si Si4 0.330410 0.581665 0.146144
Si Si5 0.742992 0.080851 0.440505
Si Si6 0.931621 0.083248 0.553719
O O1 0.593698 0.750000 0.621887
O O2 0.649003 0.967727 0.679306
O O3 0.669324 0.932869 0.568152
O O4 0.560264 0.023395 0.600923
O O5 0.500000 0.250000 0.557781
O O6 0.500000 0.500000 0.500000
O O7 0.659195 0.250000 0.246400
O O8 0.750000 0.441392 0.250000
O O9 0.648566 0.522878 0.209233
O O10 0.308209 0.750000 0.149538
O O11 0.275935 0.488767 0.116034
O O12 0.393395 0.561032 0.111689
O O13 0.763410 0.250000 0.445153
O O14 0.762753 0.000000 0.500000
O O15 0.935150 0.250000 0.534223
O O16 0.000000 0.017919 0.565219
O O17 0.898657 0.000000 0.500000
#
# Coordination Sequence:
#
# PCOD8300627 Si02
#       6
#    16   8  16  16  16  16
#     4  10  22  42  66  89 121 161 203 251 307 368
#     4  12  26  44  68  96 128 164 209 260 315 374
#     4  10  20  40  64  87 117 156 197 242 297 354
#     4  11  22  35  56  86 118 155 196 243 298 358
#     4  11  22  37  58  87 120 154 194 246 303 363
#     4   9  19  36  55  77 110 149 189 234 284 339
#
# _framework density 19.585706999999999
#
# number of rings (size 3 to 8) (size 9 to 14) (size 15 to 20)
#    0.000    1.636    1.818    3.000    0.000    6.909 
#    1.636    0.000    0.000    0.000    0.000    0.000 
#    0.000    0.000    0.000    0.000    0.000    0.000 
#
# Total GULP energy -545530.958413 kJ/mol
# GULP energy per Si atom -12398.430873 kJ/mol
# Density = 1.954113 g / cm^3
# Si number density = 19.585707 Si / 1000 Ang^3
#
#
#
# Elastic Constant Matrix: (Units=GPa)
#
#
# Indices 1 2 3 4 5 6 
#
# 1 80.5722 54.1431 39.9952 0.0000 0.0000 0.0000
# 2 54.1431 116.1546 69.0138 0.0000 0.0000 0.0000
# 3 39.9952 69.0138 131.6178 0.0000 0.0000 0.0000
# 4 0.0000 0.0000 0.0000 39.4921 0.0000 0.0000
# 5 0.0000 0.0000 0.0000 0.0000 123.9147 0.0000
# 6 0.0000 0.0000 0.0000 0.0000 0.0000 30.3466
#
#
#
# Elastic Compliance Matrix: (Units=1/GPa)
#
#
# Indices 1 2 3 4 5 6 
#
# 1 0.018295 -0.007589 -0.001580 0.000000 0.000000 0.000000
# 2 -0.007589 0.015653 -0.005902 0.000000 0.000000 0.000000
# 3 -0.001580 -0.005902 0.011172 0.000000 0.000000 0.000000
# 4 0.000000 0.000000 0.000000 0.025322 0.000000 0.000000
# 5 0.000000 0.000000 0.000000 0.000000 0.008070 0.000000
# 6 0.000000 0.000000 0.000000 0.000000 0.000000 0.032953
#
#
# Mechanical properties :
#
#
# Convention : Reuss Voigt Hill
#
# Bulk Modulus (GPa) = 66.75914 72.73876 69.74895
# Shear Modulus (GPa) = 34.10636 49.76350 41.93493
#
# Velocity S-wave (km/s) = 4.17752 5.04611 4.63222
# Velocity P-wave (km/s) = 7.57816 8.43625 8.01869
#
# Compressibility (1/GPa) = 0.01497922
#
# Stress axis : x y z
#
# Youngs Moduli (GPa) = 54.65863 63.88449 89.50606
#
# Poissons Ratio (x) = 0.48483 0.14143
# Poissons Ratio (y) = 0.41482 0.52823
# Poissons Ratio (z) = 0.08637 0.37702
#
# Static dielectric constant tensor:
#      x y z
#    x 3.812450 0.000000 0.000000 
#    y 0.000000 3.638300 0.000000 
#    z 0.000000 0.000000 3.696120 
# 
# 
# High freq. dielectric constant tensor:
#      x y z
#    x 1.758470 0.000000 0.000000 
#    y 0.000000 1.764650 0.000000 
#    z 0.000000 0.000000 1.768950 
# 
# From -- ./inp_files/54520.got.cif
#   From: 2010.03.12/outbox.cif.g09.slc.cpg/sg74_28_cif.got.tgz:54520.got - 2010.04.16 15:46:19.
