data_PCOD8300254
_publ_section_title
;
Structure prediction by ZEFSAII (Michael W. Deem and Ramdas Pophale) SiO2 
 PCOD8300254
Probable space group: I M M A
;
_chemical_formula_sum "Si O2"
_cell_formula_units_Z 120
_cell_length_a 9.003260
_cell_length_b 26.685707
_cell_length_c 27.800796
_cell_angle_alpha 90.000000
_cell_angle_beta 90.000000
_cell_angle_gamma 90.000000
_cell_volume 6679.373609
_symmetry_space_group_name_H-M "I M M A"
_symmetry_group_IT_number 74
_symmetry_cell_setting 'orthorhombic'
loop_
_space_group_symop_operation_xyz
x,y,z
-x,1/2-y,z
x,-y,-z
-x,1/2+y,-z
-x,-y,-z
x,1/2+y,-z
-x,y,z
x,1/2-y,z
1/2+x,1/2+y,1/2+z
1/2-x,-y,1/2+z
1/2+x,1/2-y,1/2-z
1/2-x,y,1/2-z
1/2-x,1/2-y,1/2-z
1/2+x,y,1/2-z
1/2-x,1/2+y,1/2+z
1/2+x,-y,1/2+z
loop_
_atom_site_type_symbol
_atom_site_label
_atom_site_fract_x
_atom_site_fract_y
_atom_site_fract_z
Si Si1 0.171343 0.457662 0.299214
Si Si2 0.825814 0.602088 0.607134
Si Si3 0.325359 0.159333 0.866171
Si Si4 0.667467 0.308708 0.967963
Si Si5 0.825070 0.952915 0.363962
Si Si6 0.325855 0.692462 0.564802
Si Si7 0.822718 0.750000 0.301612
Si Si8 0.174939 0.512493 0.945152
O O1 0.250000 0.443634 0.250000
O O2 0.207836 0.415412 0.338625
O O3 0.224902 0.511364 0.320063
O O4 0.000000 0.459899 0.286937
O O5 0.758611 0.657727 0.603040
O O6 0.749392 0.565229 0.568776
O O7 0.000000 0.602529 0.596305
O O8 0.500000 0.167997 0.869514
O O9 0.263170 0.166125 0.920212
O O10 0.284021 0.103609 0.848360
O O11 0.261976 0.200674 0.829426
O O12 0.500000 0.327832 0.979200
O O13 0.665700 0.250000 0.958492
O O14 0.773824 0.323562 0.011696
O O15 0.000000 0.959536 0.374514
O O16 0.739040 0.967781 0.412381
O O17 0.500000 0.683581 0.568963
O O18 0.282438 0.750000 0.575672
O O19 0.750000 0.750000 0.250000
O O20 0.000000 0.750000 0.296571
O O21 0.000000 0.516948 0.936826
O O22 0.214740 0.500000 0.000000
#
# Coordination Sequence:
#
# PCOD8300254 Si02
#       8
#    16  16  16  16  16  16   8  16
#     4   9  19  35  55  78 102 131 172 221 270 319
#     4  10  21  37  57  81 108 142 185 222 255 313
#     4   9  17  32  53  73  99 136 179 228 270 316
#     4   9  16  29  50  74  98 136 187 223 256 308
#     4   9  19  34  51  75 103 136 181 224 265 319
#     4  10  21  35  52  80 117 150 176 214 266 313
#     4  10  20  36  54  74 102 136 180 232 285 332
#     4  10  21  35  50  75 111 144 174 217 274 326
#
# _framework density 17.965757
#
# number of rings (size 3 to 8) (size 9 to 14) (size 15 to 20)
#    0.000    2.533    0.667    2.000    1.867    5.067 
#    0.000    1.333    0.000    0.400    0.000    0.000 
#    0.000    0.000    0.000    0.000    0.000    0.000 
#
# Total GULP energy -743979.492673 kJ/mol
# GULP energy per Si atom -12399.658211 kJ/mol
# Density = 1.792487 g / cm^3
# Si number density = 17.965757 Si / 1000 Ang^3
#
#
#
# Elastic Constant Matrix: (Units=GPa)
#
#
# Indices 1 2 3 4 5 6 
#
# 1 68.1991 45.1586 51.8313 0.0000 0.0000 0.0000
# 2 45.1586 123.1510 68.2538 0.0000 0.0000 0.0000
# 3 51.8313 68.2538 125.2254 0.0000 0.0000 0.0000
# 4 0.0000 0.0000 0.0000 19.1032 0.0000 0.0000
# 5 0.0000 0.0000 0.0000 0.0000 31.5704 0.0000
# 6 0.0000 0.0000 0.0000 0.0000 0.0000 23.1761
#
#
#
# Elastic Compliance Matrix: (Units=1/GPa)
#
#
# Indices 1 2 3 4 5 6 
#
# 1 0.023031 -0.004531 -0.007063 0.000000 0.000000 0.000000
# 2 -0.004531 0.012526 -0.004952 0.000000 0.000000 0.000000
# 3 -0.007063 -0.004952 0.013608 0.000000 0.000000 0.000000
# 4 0.000000 0.000000 0.000000 0.052347 0.000000 0.000000
# 5 0.000000 0.000000 0.000000 0.000000 0.031675 0.000000
# 6 0.000000 0.000000 0.000000 0.000000 0.000000 0.043148
#
#
# Mechanical properties :
#
#
# Convention : Reuss Voigt Hill
#
# Bulk Modulus (GPa) = 62.21448 71.89589 67.05519
# Shear Modulus (GPa) = 23.27907 24.85873 24.06890
#
# Velocity S-wave (km/s) = 3.60355 3.72381 3.66418
# Velocity P-wave (km/s) = 7.21241 7.65468 7.43683
#
# Compressibility (1/GPa) = 0.01607343
#
# Stress axis : x y z
#
# Youngs Moduli (GPa) = 43.41966 79.83370 73.48522
#
# Poissons Ratio (x) = 0.36170 0.51904
# Poissons Ratio (y) = 0.19672 0.36390
# Poissons Ratio (z) = 0.30668 0.39534
#
# Static dielectric constant tensor:
#      x y z
#    x 3.187480 0.000000 0.000000 
#    y 0.000000 3.430310 0.000000 
#    z 0.000000 0.000000 3.233060 
# 
# 
# High freq. dielectric constant tensor:
#      x y z
#    x 1.683340 0.000000 0.000000 
#    y 0.000000 1.697690 0.000000 
#    z 0.000000 0.000000 1.684810 
# 
# From -- ./inp_files/65051.got.cif
#   From: 2010.03.12/outbox.cif.g09.slc.cpg/sg74_33_cif.got.tgz:65051.got - 2010.04.16 15:46:19.
