data_PCOD8300517
_publ_section_title
;
Structure prediction by ZEFSAII (Michael W. Deem and Ramdas Pophale) SiO2 
 PCOD8300517
Probable space group: I M M A
;
_chemical_formula_sum "Si O2"
_cell_formula_units_Z 72
_cell_length_a 18.427994
_cell_length_b 13.994846
_cell_length_c 13.604560
_cell_angle_alpha 90.000000
_cell_angle_beta 90.000000
_cell_angle_gamma 90.000000
_cell_volume 3508.574368
_symmetry_space_group_name_H-M "I M M A"
_symmetry_group_IT_number 74
_symmetry_cell_setting 'orthorhombic'
loop_
_space_group_symop_operation_xyz
x,y,z
-x,1/2-y,z
x,-y,-z
-x,1/2+y,-z
-x,-y,-z
x,1/2+y,-z
-x,y,z
x,1/2-y,z
1/2+x,1/2+y,1/2+z
1/2-x,-y,1/2+z
1/2+x,1/2-y,1/2-z
1/2-x,y,1/2-z
1/2-x,1/2-y,1/2-z
1/2+x,y,1/2-z
1/2-x,1/2+y,1/2+z
1/2+x,-y,1/2+z
loop_
_atom_site_type_symbol
_atom_site_label
_atom_site_fract_x
_atom_site_fract_y
_atom_site_fract_z
Si Si1 0.281988 0.546267 0.649618
Si Si2 0.644231 0.141565 0.654189
Si Si3 0.418602 0.138947 0.444105
Si Si4 0.416208 0.142655 0.865763
Si Si5 0.826952 0.000000 0.500000
O O1 0.250000 0.590019 0.750000
O O2 0.287622 0.430504 0.657504
O O3 0.361561 0.586864 0.626924
O O4 0.224535 0.570150 0.564153
O O5 0.674516 0.250000 0.649255
O O6 0.596048 0.117217 0.558531
O O7 0.595185 0.124784 0.750024
O O8 0.500000 0.103097 0.419276
O O9 0.411089 0.250000 0.421711
O O10 0.500000 0.129115 0.890030
O O11 0.390811 0.250000 0.893827
O O12 0.374446 0.065187 0.929564
#
# Coordination Sequence:
#
# PCOD8300517 Si02
#       5
#    16  16  16  16   8
#     4  12  24  40  59  92 125 163 203 247 306 361
#     4  10  20  37  65  95 123 151 194 254 311 358
#     4  10  22  41  65  91 121 160 204 252 306 362
#     4  10  22  40  64  93 123 158 203 253 303 360
#     4  12  23  40  61  90 126 166 200 244 307 364
#
# _framework density 20.521155
#
# number of rings (size 3 to 8) (size 9 to 14) (size 15 to 20)
#    0.000    1.333    4.444    1.000    0.000    8.000 
#    0.000    0.000    0.000    2.667    0.000    0.000 
#    0.000    0.000    0.000    0.000    0.000    0.000 
#
# Total GULP energy -446401.789884 kJ/mol
# GULP energy per Si atom -12400.049719 kJ/mol
# Density = 2.047445 g / cm^3
# Si number density = 20.521155 Si / 1000 Ang^3
#
#
#
# Elastic Constant Matrix: (Units=GPa)
#
#
# Indices 1 2 3 4 5 6 
#
# 1 118.6722 48.0832 73.0280 0.0000 0.0000 0.0000
# 2 48.0832 60.0291 37.0898 0.0000 0.0000 0.0000
# 3 73.0280 37.0898 140.4673 0.0000 0.0000 0.0000
# 4 0.0000 0.0000 0.0000 28.9030 0.0000 0.0000
# 5 0.0000 0.0000 0.0000 0.0000 36.0986 0.0000
# 6 0.0000 0.0000 0.0000 0.0000 0.0000 26.1597
#
#
#
# Elastic Compliance Matrix: (Units=1/GPa)
#
#
# Indices 1 2 3 4 5 6 
#
# 1 0.015578 -0.008931 -0.005741 0.000000 0.000000 0.000000
# 2 -0.008931 0.025026 -0.001965 0.000000 0.000000 0.000000
# 3 -0.005741 -0.001965 0.010622 0.000000 0.000000 0.000000
# 4 0.000000 0.000000 0.000000 0.034598 0.000000 0.000000
# 5 0.000000 0.000000 0.000000 0.000000 0.027702 0.000000
# 6 0.000000 0.000000 0.000000 0.000000 0.000000 0.038227
#
#
# Mechanical properties :
#
#
# Convention : Reuss Voigt Hill
#
# Bulk Modulus (GPa) = 55.69923 70.61896 63.15910
# Shear Modulus (GPa) = 26.17648 28.96344 27.56996
#
# Velocity S-wave (km/s) = 3.57541 3.76093 3.66934
# Velocity P-wave (km/s) = 6.65177 7.30390 6.98545
#
# Compressibility (1/GPa) = 0.01795357
#
# Stress axis : x y z
#
# Youngs Moduli (GPa) = 64.19392 39.95800 94.14018
#
# Poissons Ratio (x) = 0.35686 0.54042
# Poissons Ratio (y) = 0.57331 0.18498
# Poissons Ratio (z) = 0.36851 0.07852
#
# Static dielectric constant tensor:
#      x y z
#    x 3.686960 0.000000 0.000000 
#    y 0.000000 3.789610 0.000000 
#    z 0.000000 0.000000 3.714550 
# 
# 
# High freq. dielectric constant tensor:
#      x y z
#    x 1.805990 0.000000 0.000000 
#    y 0.000000 1.795770 0.000000 
#    z 0.000000 0.000000 1.802880 
# 
# From -- ./inp_files/33835.got.cif
#   From: 2010.03.12/outbox.cif.g09.slc.cpg/sg74_17_cif.got.tgz:33835.got - 2010.04.16 15:46:19.
