data_PCOD8300617
_publ_section_title
;
Structure prediction by ZEFSAII (Michael W. Deem and Ramdas Pophale) SiO2 
 PCOD8300617
Probable space group: I M M A
;
_chemical_formula_sum "Si O2"
_cell_formula_units_Z 96
_cell_length_a 8.849634
_cell_length_b 24.825366
_cell_length_c 23.308084
_cell_angle_alpha 90.000000
_cell_angle_beta 90.000000
_cell_angle_gamma 90.000000
_cell_volume 5120.678908
_symmetry_space_group_name_H-M "I M M A"
_symmetry_group_IT_number 74
_symmetry_cell_setting 'orthorhombic'
loop_
_space_group_symop_operation_xyz
x,y,z
-x,1/2-y,z
x,-y,-z
-x,1/2+y,-z
-x,-y,-z
x,1/2+y,-z
-x,y,z
x,1/2-y,z
1/2+x,1/2+y,1/2+z
1/2-x,-y,1/2+z
1/2+x,1/2-y,1/2-z
1/2-x,y,1/2-z
1/2-x,1/2-y,1/2-z
1/2+x,y,1/2-z
1/2-x,1/2+y,1/2+z
1/2+x,-y,1/2+z
loop_
_atom_site_type_symbol
_atom_site_label
_atom_site_fract_x
_atom_site_fract_y
_atom_site_fract_z
Si Si1 0.173769 0.397437 0.884811
Si Si2 0.821877 0.097118 0.376583
Si Si3 0.825356 0.438449 0.009389
Si Si4 0.822737 0.811388 0.309025
Si Si5 0.678387 0.000293 0.689457
Si Si6 0.824375 0.187458 0.190106
O O1 0.270959 0.347486 0.862327
O O2 0.223303 0.452569 0.854335
O O3 0.000000 0.384871 0.871420
O O4 0.202731 0.403801 0.952323
O O5 0.779998 0.086417 0.442221
O O6 0.746646 0.054812 0.333670
O O7 0.758580 0.155812 0.360742
O O8 0.000000 0.095030 0.368742
O O9 0.000000 0.436025 0.029121
O O10 0.777191 0.500000 0.000000
O O11 0.771619 0.750000 0.321057
O O12 0.750000 0.832951 0.250000
O O13 0.000000 0.816140 0.301871
O O14 0.500000 0.993519 0.695603
O O15 0.750000 0.015561 0.750000
O O16 0.798701 0.250000 0.177139
O O17 0.750000 0.170352 0.250000
O O18 0.000000 0.172238 0.192289
#
# Coordination Sequence:
#
# PCOD8300617 Si02
#       6
#    16  16  16  16  16  16
#     4  10  21  37  60  85 111 147 189 235 286 338
#     4  12  24  37  57  86 117 152 192 236 285 340
#     4  10  20  40  62  82 112 153 195 237 285 340
#     4  10  21  37  58  84 116 152 189 233 284 338
#     4  11  22  37  55  82 116 149 186 233 288 342
#     4  10  21  39  63  88 116 152 192 237 290 345
#
# _framework density 18.747513999999999
#
# number of rings (size 3 to 8) (size 9 to 14) (size 15 to 20)
#    0.000    1.500    1.667    4.000    0.000    5.667 
#    0.000    0.833    0.000    1.000    0.000    0.000 
#    0.000    0.000    0.000    0.000    0.000    0.000 
#
# Total GULP energy -595511.334717 kJ/mol
# GULP energy per Si atom -12406.486140 kJ/mol
# Density = 1.870484 g / cm^3
# Si number density = 18.747514 Si / 1000 Ang^3
#
#
#
# Elastic Constant Matrix: (Units=GPa)
#
#
# Indices 1 2 3 4 5 6 
#
# 1 106.1413 51.4817 50.3790 0.0000 0.0000 0.0000
# 2 51.4817 89.5165 43.1856 0.0000 0.0000 0.0000
# 3 50.3790 43.1856 94.0320 0.0000 0.0000 0.0000
# 4 0.0000 0.0000 0.0000 24.6443 0.0000 0.0000
# 5 0.0000 0.0000 0.0000 0.0000 36.8325 0.0000
# 6 0.0000 0.0000 0.0000 0.0000 0.0000 29.4262
#
#
#
# Elastic Compliance Matrix: (Units=1/GPa)
#
#
# Indices 1 2 3 4 5 6 
#
# 1 0.014788 -0.006015 -0.005160 0.000000 0.000000 0.000000
# 2 -0.006015 0.016798 -0.004492 0.000000 0.000000 0.000000
# 3 -0.005160 -0.004492 0.015462 0.000000 0.000000 0.000000
# 4 0.000000 0.000000 0.000000 0.040577 0.000000 0.000000
# 5 0.000000 0.000000 0.000000 0.000000 0.027150 0.000000
# 6 0.000000 0.000000 0.000000 0.000000 0.000000 0.033983
#
#
# Mechanical properties :
#
#
# Convention : Reuss Voigt Hill
#
# Bulk Modulus (GPa) = 63.64056 64.42027 64.03042
# Shear Modulus (GPa) = 26.97865 27.82350 27.40108
#
# Velocity S-wave (km/s) = 3.79760 3.85660 3.82721
# Velocity P-wave (km/s) = 7.29718 7.36667 7.33201
#
# Compressibility (1/GPa) = 0.01571325
#
# Stress axis : x y z
#
# Youngs Moduli (GPa) = 67.62057 59.53254 64.67327
#
# Poissons Ratio (x) = 0.35811 0.33374
# Poissons Ratio (y) = 0.40676 0.29049
# Poissons Ratio (z) = 0.34895 0.26740
#
# Static dielectric constant tensor:
#      x y z
#    x 3.463830 0.000000 0.000000 
#    y 0.000000 3.452720 0.000000 
#    z 0.000000 0.000000 3.430520 
# 
# 
# High freq. dielectric constant tensor:
#      x y z
#    x 1.734970 0.000000 0.000000 
#    y 0.000000 1.728840 0.000000 
#    z 0.000000 0.000000 1.728590 
# 
# From -- ./inp_files/57268.got.cif
#   From: 2010.03.12/outbox.cif.g09.slc.cpg/sg74_29_cif.got.tgz:57268.got - 2010.04.16 15:46:19.
