data_PCOD8300683
_publ_section_title
;
Structure prediction by ZEFSAII (Michael W. Deem and Ramdas Pophale) SiO2 
 PCOD8300683
Probable space group: I M M A
;
_chemical_formula_sum "Si O2"
_cell_formula_units_Z 60
_cell_length_a 10.101255
_cell_length_b 24.911133
_cell_length_c 12.241531
_cell_angle_alpha 90.000000
_cell_angle_beta 90.000000
_cell_angle_gamma 90.000000
_cell_volume 3080.381822
_symmetry_space_group_name_H-M "I M M A"
_symmetry_group_IT_number 74
_symmetry_cell_setting 'orthorhombic'
loop_
_space_group_symop_operation_xyz
x,y,z
-x,1/2-y,z
x,-y,-z
-x,1/2+y,-z
-x,-y,-z
x,1/2+y,-z
-x,y,z
x,1/2-y,z
1/2+x,1/2+y,1/2+z
1/2-x,-y,1/2+z
1/2+x,1/2-y,1/2-z
1/2-x,y,1/2-z
1/2-x,1/2-y,1/2-z
1/2+x,y,1/2-z
1/2-x,1/2+y,1/2+z
1/2+x,-y,1/2+z
loop_
_atom_site_type_symbol
_atom_site_label
_atom_site_fract_x
_atom_site_fract_y
_atom_site_fract_z
Si Si1 0.500000 0.189249 0.213433
Si Si2 0.654968 0.558245 0.541002
Si Si3 0.500000 0.750000 0.993512
Si Si4 0.851700 0.361893 0.849106
Si Si5 0.250000 0.116021 0.250000
Si Si6 0.231659 0.750000 0.122268
O O1 0.500000 0.250000 0.266698
O O2 0.500000 0.196503 0.081916
O O3 0.374063 0.155625 0.250283
O O4 0.700821 0.500000 0.500000
O O5 0.500000 0.559026 0.572650
O O6 0.688871 0.596284 0.440504
O O7 0.741103 0.577003 0.645027
O O8 0.374168 0.750000 0.069161
O O9 0.750000 0.366986 0.750000
O O10 0.847630 0.303743 0.908728
O O11 0.000000 0.372567 0.804854
O O12 0.250000 0.750000 0.250000
#
# Coordination Sequence:
#
# PCOD8300683 Si02
#       6
#     8  16   4  16   8   8
#     4  10  24  40  70  95 138 169 217 274 326 412
#     4  10  23  43  67  93 130 172 217 274 328 385
#     4  10  22  38  58  94 128 166 212 268 306 382
#     4  10  22  39  62  91 124 167 209 260 319 384
#     4  12  21  46  66 100 130 179 218 272 344 390
#     4  10  21  34  60  86 126 160 204 261 312 374
#
# _framework density 19.478104999999999
#
# number of rings (size 3 to 8) (size 9 to 14) (size 15 to 20)
#    0.400    1.333    1.333    2.400    9.333    0.000 
#    4.800    0.667    0.000    0.000    0.000    0.000 
#    0.000    0.000    0.000    0.000    0.000    0.000 
#
# Total GULP energy -371905.016152 kJ/mol
# GULP energy per Si atom -12396.833872 kJ/mol
# Density = 1.943377 g / cm^3
# Si number density = 19.478105 Si / 1000 Ang^3
#
#
#
# Elastic Constant Matrix: (Units=GPa)
#
#
# Indices 1 2 3 4 5 6 
#
# 1 103.2634 45.5808 57.6941 -0.0004 0.0001 0.0000
# 2 45.5808 178.7799 73.1731 -0.0001 0.0000 0.0000
# 3 57.6941 73.1731 105.1190 -0.0022 0.0010 0.0005
# 4 -0.0004 -0.0001 -0.0022 26.6672 0.0003 0.0002
# 5 0.0001 0.0000 0.0010 0.0003 31.2563 -0.0001
# 6 0.0000 0.0000 0.0005 0.0002 -0.0001 20.0902
#
#
#
# Elastic Compliance Matrix: (Units=1/GPa)
#
#
# Indices 1 2 3 4 5 6 
#
# 1 0.014012 -0.000594 -0.007277 0.000000 0.000000 0.000000
# 2 -0.000594 0.007847 -0.005136 0.000000 0.000000 0.000000
# 3 -0.007277 -0.005136 0.017082 0.000001 -0.000001 0.000000
# 4 0.000000 0.000000 0.000001 0.037499 0.000000 0.000000
# 5 0.000000 0.000000 -0.000001 0.000000 0.031994 0.000000
# 6 0.000000 0.000000 0.000000 0.000000 0.000000 0.049776
#
#
# Mechanical properties :
#
#
# Convention : Reuss Voigt Hill
#
# Bulk Modulus (GPa) = 77.35846 82.22871 79.79358
# Shear Modulus (GPa) = 26.52055 29.65036 28.08546
#
# Velocity S-wave (km/s) = 3.69393 3.90582 3.80135
# Velocity P-wave (km/s) = 7.61547 7.91506 7.76671
#
# Compressibility (1/GPa) = 0.01292684
#
# Stress axis : x y z
#
# Youngs Moduli (GPa) = 71.36848 127.43406 58.54017
#
# Poissons Ratio (x) = 0.07570 0.42599
# Poissons Ratio (y) = 0.04240 0.30068
# Poissons Ratio (z) = 0.51933 0.65455
#
# Static dielectric constant tensor:
#      x y z
#    x 3.788130 0.000000 0.000000 
#    y 0.000000 3.279710 0.000000 
#    z 0.000000 0.000000 3.408580 
# 
# 
# High freq. dielectric constant tensor:
#      x y z
#    x 1.754620 0.000000 0.000000 
#    y 0.000000 1.771170 0.000000 
#    z 0.000000 0.000000 1.754790 
# 
# From -- ./inp_files/17366.got.cif
#   From: 2010.03.12/outbox.cif.g09.slc.cpg/sg74_9_cif.got.tgz:17366.got - 2010.04.16 15:46:19.
