data_PCOD8300024
_publ_section_title
;
Structure prediction by ZEFSAII (Michael W. Deem and Ramdas Pophale) SiO2 
 PCOD8300024
Probable space group: I M M A
;
_chemical_formula_sum "Si O2"
_cell_formula_units_Z 104
_cell_length_a 9.607404
_cell_length_b 21.580301
_cell_length_c 26.420151
_cell_angle_alpha 90.000000
_cell_angle_beta 90.000000
_cell_angle_gamma 90.000000
_cell_volume 5477.707612
_symmetry_space_group_name_H-M "I M M A"
_symmetry_group_IT_number 74
_symmetry_cell_setting 'orthorhombic'
loop_
_space_group_symop_operation_xyz
x,y,z
-x,1/2-y,z
x,-y,-z
-x,1/2+y,-z
-x,-y,-z
x,1/2+y,-z
-x,y,z
x,1/2-y,z
1/2+x,1/2+y,1/2+z
1/2-x,-y,1/2+z
1/2+x,1/2-y,1/2-z
1/2-x,y,1/2-z
1/2-x,1/2-y,1/2-z
1/2+x,y,1/2-z
1/2-x,1/2+y,1/2+z
1/2+x,-y,1/2+z
loop_
_atom_site_type_symbol
_atom_site_label
_atom_site_fract_x
_atom_site_fract_y
_atom_site_fract_z
Si Si1 0.500000 0.178748 0.167385
Si Si2 0.163873 0.507686 0.198213
Si Si3 0.341786 0.250000 0.701203
Si Si4 0.653576 0.679990 0.546733
Si Si5 0.500000 0.820174 0.713359
Si Si6 0.781233 0.883584 0.853177
Si Si7 0.339325 0.369605 0.636404
Si Si8 0.336660 0.322264 0.952247
O O1 0.500000 0.250000 0.149631
O O2 0.500000 0.173193 0.227140
O O3 0.628053 0.143101 0.143574
O O4 0.250000 0.501987 0.250000
O O5 0.214643 0.456657 0.157710
O O6 0.197530 0.572369 0.171515
O O7 0.000000 0.500065 0.210586
O O8 0.500000 0.250000 0.719502
O O9 0.250000 0.250000 0.750000
O O10 0.305620 0.309661 0.668879
O O11 0.500000 0.677104 0.521208
O O12 0.682381 0.750000 0.566772
O O13 0.650069 0.631716 0.593034
O O14 0.770837 0.660963 0.506486
O O15 0.500000 0.750000 0.694765
O O16 0.638692 0.851623 0.693026
O O17 0.500000 0.371442 0.618380
O O18 0.238190 0.366890 0.588133
O O19 0.500000 0.337452 0.953522
O O20 0.308780 0.250000 0.939428
#
# Coordination Sequence:
#
# PCOD8300024 Si02
#       8
#     8  16   8  16   8  16  16  16
#     4  11  24  36  56  86 117 155 199 259 316 354
#     4  11  24  41  62  88 121 165 210 247 297 369
#     4  10  20  34  58  90 124 156 194 246 303 360
#     4  10  20  36  60  87 117 158 201 246 302 364
#     4  11  20  36  58  82 113 151 201 249 300 360
#     4  12  23  38  58  84 122 160 203 248 301 358
#     4  10  21  39  62  88 121 159 203 248 303 369
#     4  10  21  37  61  93 123 153 195 252 311 365
#
# _framework density 18.986045000000001
#
# number of rings (size 3 to 8) (size 9 to 14) (size 15 to 20)
#    0.000    1.385    2.308    3.692    2.154    3.077 
#    0.000    0.769    0.000    3.692    0.000    0.000 
#    0.000    0.000    0.000    0.000    0.000    0.000 
#
# Total GULP energy -644933.288079 kJ/mol
# GULP energy per Si atom -12402.563232 kJ/mol
# Density = 1.894283 g / cm^3
# Si number density = 18.986045 Si / 1000 Ang^3
#
#
#
# Elastic Constant Matrix: (Units=GPa)
#
#
# Indices 1 2 3 4 5 6 
#
# 1 119.1497 39.6144 49.0735 0.0000 0.0000 0.0000
# 2 39.6144 116.6240 51.3343 0.0000 0.0000 0.0000
# 3 49.0735 51.3343 100.1249 0.0000 0.0000 0.0000
# 4 0.0000 0.0000 0.0000 32.3759 0.0000 0.0000
# 5 0.0000 0.0000 0.0000 0.0000 38.1559 0.0000
# 6 0.0000 0.0000 0.0000 0.0000 0.0000 28.9790
#
#
#
# Elastic Compliance Matrix: (Units=1/GPa)
#
#
# Indices 1 2 3 4 5 6 
#
# 1 0.010778 -0.001725 -0.004398 0.000000 0.000000 0.000000
# 2 -0.001725 0.011350 -0.004974 0.000000 0.000000 0.000000
# 3 -0.004398 -0.004974 0.014693 0.000000 0.000000 0.000000
# 4 0.000000 0.000000 0.000000 0.030887 0.000000 0.000000
# 5 0.000000 0.000000 0.000000 0.000000 0.026208 0.000000
# 6 0.000000 0.000000 0.000000 0.000000 0.000000 0.034508
#
#
# Mechanical properties :
#
#
# Convention : Reuss Voigt Hill
#
# Bulk Modulus (GPa) = 68.36527 68.43812 68.40170
# Shear Modulus (GPa) = 32.15589 32.96060 32.55824
#
# Velocity S-wave (km/s) = 4.11987 4.17111 4.14557
# Velocity P-wave (km/s) = 7.66273 7.70210 7.68244
#
# Compressibility (1/GPa) = 0.01462731
#
# Stress axis : x y z
#
# Youngs Moduli (GPa) = 92.78414 88.10781 68.05963
#
# Poissons Ratio (x) = 0.15199 0.29932
# Poissons Ratio (y) = 0.16006 0.33850
# Poissons Ratio (z) = 0.40806 0.43821
#
# Static dielectric constant tensor:
#      x y z
#    x 3.531110 0.000000 0.000000 
#    y 0.000000 3.296910 0.000000 
#    z 0.000000 0.000000 3.275530 
# 
# 
# High freq. dielectric constant tensor:
#      x y z
#    x 1.750690 0.000000 0.000000 
#    y 0.000000 1.727960 0.000000 
#    z 0.000000 0.000000 1.732450 
# 
# From -- ./inp_files/64559.got.cif
#   From: 2010.03.12/outbox.cif.g09.slc.cpg/sg74_33_cif.got.tgz:64559.got - 2010.04.16 15:46:19.
