data_PCOD8300565
_publ_section_title
;
Structure prediction by ZEFSAII (Michael W. Deem and Ramdas Pophale) SiO2 
 PCOD8300565
Probable space group: I M M A
;
_chemical_formula_sum "Si O2"
_cell_formula_units_Z 112
_cell_length_a 17.258888
_cell_length_b 28.615496
_cell_length_c 11.232009
_cell_angle_alpha 90.000000
_cell_angle_beta 90.000000
_cell_angle_gamma 90.000000
_cell_volume 5547.170711
_symmetry_space_group_name_H-M "I M M A"
_symmetry_group_IT_number 74
_symmetry_cell_setting 'orthorhombic'
loop_
_space_group_symop_operation_xyz
x,y,z
-x,1/2-y,z
x,-y,-z
-x,1/2+y,-z
-x,-y,-z
x,1/2+y,-z
-x,y,z
x,1/2-y,z
1/2+x,1/2+y,1/2+z
1/2-x,-y,1/2+z
1/2+x,1/2-y,1/2-z
1/2-x,y,1/2-z
1/2-x,1/2-y,1/2-z
1/2+x,y,1/2-z
1/2-x,1/2+y,1/2+z
1/2+x,-y,1/2+z
loop_
_atom_site_type_symbol
_atom_site_label
_atom_site_fract_x
_atom_site_fract_y
_atom_site_fract_z
Si Si1 0.338562 0.302787 0.777740
Si Si2 0.317240 0.561279 0.895688
Si Si3 0.089931 0.358037 0.294568
Si Si4 0.804387 0.302535 0.459118
Si Si5 0.823372 0.542523 0.327025
Si Si6 0.822094 0.621037 0.932648
Si Si7 0.588970 0.891437 0.334175
O O1 0.357503 0.250000 0.733275
O O2 0.250000 0.315641 0.750000
O O3 0.394424 0.339336 0.713411
O O4 0.352794 0.307006 0.918955
O O5 0.388694 0.594244 0.862340
O O6 0.331723 0.513389 0.825360
O O7 0.232751 0.583249 0.864035
O O8 0.315991 0.558329 0.037928
O O9 0.139647 0.316022 0.350472
O O10 0.110319 0.362764 0.155814
O O11 0.000000 0.347013 0.309779
O O12 0.774907 0.250000 0.438900
O O13 0.728548 0.334325 0.468586
O O14 0.750000 0.558865 0.250000
O O15 0.895376 0.568743 0.265341
O O16 0.860498 0.598005 0.048523
O O17 0.500000 0.894654 0.370290
#
# Coordination Sequence:
#
# PCOD8300565 Si02
#       7
#    16  16  16  16  16  16  16
#     4  10  20  38  63  90 122 161 205 253 301 361
#     4  10  22  39  67  87 112 161 210 254 296 359
#     4  11  24  40  57  84 125 162 197 250 314 370
#     4  10  21  38  66  91 114 158 214 261 298 354
#     4  11  21  39  64  92 119 152 205 256 298 355
#     4  11  21  41  62  86 121 163 210 251 302 368
#     4  12  24  37  60  96 132 162 196 251 318 372
#
# _framework density 20.190473999999998
#
# number of rings (size 3 to 8) (size 9 to 14) (size 15 to 20)
#    0.000    1.286    2.857    5.143    0.000    4.571 
#    0.000    2.857    0.000    5.143    0.000    0.000 
#    0.000    0.000    0.000    0.000    0.000    0.000 
#
# Total GULP energy -694531.213780 kJ/mol
# GULP energy per Si atom -12402.343103 kJ/mol
# Density = 2.014452 g / cm^3
# Si number density = 20.190474 Si / 1000 Ang^3
#
#
#
# Elastic Constant Matrix: (Units=GPa)
#
#
# Indices 1 2 3 4 5 6 
#
# 1 103.8836 38.1817 22.0283 -0.0002 0.0001 0.0000
# 2 38.1817 111.6018 22.2272 0.0004 -0.0001 0.0000
# 3 22.0283 22.2272 85.6293 0.0001 -0.0002 -0.0001
# 4 -0.0002 0.0004 0.0001 25.6756 0.0000 -0.0001
# 5 0.0001 -0.0001 -0.0002 0.0000 27.8652 0.0001
# 6 0.0000 0.0000 -0.0001 -0.0001 0.0001 16.3507
#
#
#
# Elastic Compliance Matrix: (Units=1/GPa)
#
#
# Indices 1 2 3 4 5 6 
#
# 1 0.011330 -0.003476 -0.002013 0.000000 0.000000 0.000000
# 2 -0.003476 0.010515 -0.001835 0.000000 0.000000 0.000000
# 3 -0.002013 -0.001835 0.012672 0.000000 0.000000 0.000000
# 4 0.000000 0.000000 0.000000 0.038948 0.000000 0.000000
# 5 0.000000 0.000000 0.000000 0.000000 0.035887 0.000000
# 6 0.000000 0.000000 0.000000 0.000000 0.000000 0.061160
#
#
# Mechanical properties :
#
#
# Convention : Reuss Voigt Hill
#
# Bulk Modulus (GPa) = 50.32506 51.77655 51.05081
# Shear Modulus (GPa) = 26.07121 28.55679 27.31400
#
# Velocity S-wave (km/s) = 3.59731 3.76489 3.68206
# Velocity P-wave (km/s) = 6.49873 6.67824 6.58910
#
# Compressibility (1/GPa) = 0.01987082
#
# Stress axis : x y z
#
# Youngs Moduli (GPa) = 88.25858 95.10190 78.91164
#
# Poissons Ratio (x) = 0.33053 0.15882
# Poissons Ratio (y) = 0.30675 0.14483
# Poissons Ratio (z) = 0.17763 0.17454
#
# Static dielectric constant tensor:
#      x y z
#    x 3.350780 0.000000 0.000000 
#    y 0.000000 3.766330 0.000000 
#    z 0.000000 0.000000 3.801360 
# 
# 
# High freq. dielectric constant tensor:
#      x y z
#    x 1.760500 0.000000 0.000000 
#    y 0.000000 1.793410 0.000000 
#    z 0.000000 0.000000 1.806840 
# 
# From -- ./inp_files/21114.got.cif
#   From: 2010.03.12/outbox.cif.g09.slc.cpg/sg74_11_cif.got.tgz:21114.got - 2010.04.16 15:46:19.
