data_PCOD8300811
_publ_section_title
;
Structure prediction by ZEFSAII (Michael W. Deem and Ramdas Pophale) SiO2 
 PCOD8300811
Probable space group: I M M A
;
_chemical_formula_sum "Si O2"
_cell_formula_units_Z 96
_cell_length_a 13.265568
_cell_length_b 14.400447
_cell_length_c 21.015915
_cell_angle_alpha 90.000000
_cell_angle_beta 90.000000
_cell_angle_gamma 90.000000
_cell_volume 4014.672531
_symmetry_space_group_name_H-M "I M M A"
_symmetry_group_IT_number 74
_symmetry_cell_setting 'orthorhombic'
loop_
_space_group_symop_operation_xyz
x,y,z
-x,1/2-y,z
x,-y,-z
-x,1/2+y,-z
-x,-y,-z
x,1/2+y,-z
-x,y,z
x,1/2-y,z
1/2+x,1/2+y,1/2+z
1/2-x,-y,1/2+z
1/2+x,1/2-y,1/2-z
1/2-x,y,1/2-z
1/2-x,1/2-y,1/2-z
1/2+x,y,1/2-z
1/2-x,1/2+y,1/2+z
1/2+x,-y,1/2+z
loop_
_atom_site_type_symbol
_atom_site_label
_atom_site_fract_x
_atom_site_fract_y
_atom_site_fract_z
Si Si1 0.620789 0.452514 0.208472
Si Si2 0.119065 0.853480 0.834485
Si Si3 0.616059 0.650289 0.174847
Si Si4 0.615359 0.639724 0.920782
Si Si5 0.783141 0.854816 0.451795
Si Si6 0.610190 0.513382 0.426274
O O1 0.500000 0.448460 0.207359
O O2 0.664428 0.401677 0.270988
O O3 0.661007 0.559291 0.209899
O O4 0.662021 0.401260 0.144735
O O5 0.165381 0.750000 0.843949
O O6 0.000000 0.844606 0.826613
O O7 0.147487 0.916656 0.895090
O O8 0.500000 0.655147 0.191926
O O9 0.666327 0.750000 0.196028
O O10 0.625662 0.639547 0.098401
O O11 0.500000 0.606637 0.929138
O O12 0.620417 0.750000 0.918102
O O13 0.679871 0.600785 0.981036
O O14 0.747874 0.750000 0.464601
O O15 0.690829 0.905885 0.416514
O O16 0.596001 0.500000 0.500000
O O17 0.500000 0.541131 0.396799
#
# Coordination Sequence:
#
# PCOD8300811 Si02
#       6
#    16  16  16  16  16  16
#     4   9  17  30  56  91 124 160 193 231 292 365
#     4   9  18  37  65  92 118 150 191 245 310 368
#     4   9  18  33  54  84 123 165 204 237 281 348
#     4   9  17  30  53  90 130 163 197 236 286 357
#     4  10  21  36  57  83 117 160 201 250 303 347
#     4  10  23  41  62  85 109 147 201 257 308 355
#
# _framework density 23.912286000000002
#
# number of rings (size 3 to 8) (size 9 to 14) (size 15 to 20)
#    0.000    2.667    0.000    1.000    2.333    5.000 
#    0.000    5.833    0.000    6.000    0.000    0.000 
#    0.000    1.333    0.000    0.000    0.000    0.000 
#
# Total GULP energy -594928.951087 kJ/mol
# GULP energy per Si atom -12394.353148 kJ/mol
# Density = 2.385786 g / cm^3
# Si number density = 23.912286 Si / 1000 Ang^3
#
#
#
# Elastic Constant Matrix: (Units=GPa)
#
#
# Indices 1 2 3 4 5 6 
#
# 1 43.8699 32.5585 29.4258 0.0000 0.0000 0.0000
# 2 32.5585 169.5965 92.5374 0.0000 0.0000 0.0000
# 3 29.4258 92.5374 131.8815 0.0000 0.0000 0.0000
# 4 0.0000 0.0000 0.0000 36.2970 0.0000 0.0000
# 5 0.0000 0.0000 0.0000 0.0000 14.2286 0.0000
# 6 0.0000 0.0000 0.0000 0.0000 0.0000 20.9771
#
#
#
# Elastic Compliance Matrix: (Units=1/GPa)
#
#
# Indices 1 2 3 4 5 6 
#
# 1 0.027817 -0.003166 -0.003985 0.000000 0.000000 0.000000
# 2 -0.003166 0.009914 -0.006250 0.000000 0.000000 0.000000
# 3 -0.003985 -0.006250 0.012858 0.000000 0.000000 0.000000
# 4 0.000000 0.000000 0.000000 0.027550 0.000000 0.000000
# 5 0.000000 0.000000 0.000000 0.000000 0.070281 0.000000
# 6 0.000000 0.000000 0.000000 0.000000 0.000000 0.047671
#
#
# Mechanical properties :
#
#
# Convention : Reuss Voigt Hill
#
# Bulk Modulus (GPa) = 42.04082 72.71012 57.37547
# Shear Modulus (GPa) = 21.66155 27.02228 24.34192
#
# Velocity S-wave (km/s) = 3.01304 3.36528 3.19402
# Velocity P-wave (km/s) = 5.45197 6.75079 6.13584
#
# Compressibility (1/GPa) = 0.02378641
#
# Stress axis : x y z
#
# Youngs Moduli (GPa) = 35.94876 100.86238 77.77554
#
# Poissons Ratio (x) = 0.31930 0.30997
# Poissons Ratio (y) = 0.11380 0.48613
# Poissons Ratio (z) = 0.14327 0.63043
#
# Static dielectric constant tensor:
#      x y z
#    x 4.389640 0.000000 0.000000 
#    y 0.000000 4.679900 0.000000 
#    z 0.000000 0.000000 4.163370 
# 
# 
# High freq. dielectric constant tensor:
#      x y z
#    x 1.946420 0.000000 0.000000 
#    y 0.000000 1.951520 0.000000 
#    z 0.000000 0.000000 1.936560 
# 
# From -- ./inp_files/51916.got.cif
#   From: 2010.03.12/outbox.cif.g09.slc.cpg/sg74_26_cif.got.tgz:51916.got - 2010.04.16 15:46:19.
