data_PCOD8300535
_publ_section_title
;
Structure prediction by ZEFSAII (Michael W. Deem and Ramdas Pophale) SiO2 
 PCOD8300535
Probable space group: I M M A
;
_chemical_formula_sum "Si O2"
_cell_formula_units_Z 96
_cell_length_a 9.918661
_cell_length_b 21.948160
_cell_length_c 23.653286
_cell_angle_alpha 90.000000
_cell_angle_beta 90.000000
_cell_angle_gamma 90.000000
_cell_volume 5149.234231
_symmetry_space_group_name_H-M "I M M A"
_symmetry_group_IT_number 74
_symmetry_cell_setting 'orthorhombic'
loop_
_space_group_symop_operation_xyz
x,y,z
-x,1/2-y,z
x,-y,-z
-x,1/2+y,-z
-x,-y,-z
x,1/2+y,-z
-x,y,z
x,1/2-y,z
1/2+x,1/2+y,1/2+z
1/2-x,-y,1/2+z
1/2+x,1/2-y,1/2-z
1/2-x,y,1/2-z
1/2-x,1/2-y,1/2-z
1/2+x,y,1/2-z
1/2-x,1/2+y,1/2+z
1/2+x,-y,1/2+z
loop_
_atom_site_type_symbol
_atom_site_label
_atom_site_fract_x
_atom_site_fract_y
_atom_site_fract_z
Si Si1 0.236280 0.633445 0.616604
Si Si2 0.500000 0.677038 0.808547
Si Si3 0.345193 0.180785 0.000086
Si Si4 0.000000 0.821099 0.824049
Si Si5 0.653871 0.881691 0.413264
Si Si6 0.347566 0.177957 0.701704
Si Si7 0.154138 0.984189 0.936598
O O1 0.127248 0.642349 0.665486
O O2 0.197462 0.677944 0.565402
O O3 0.374654 0.650140 0.645123
O O4 0.246203 0.564463 0.592520
O O5 0.500000 0.750000 0.820869
O O6 0.500000 0.663650 0.742110
O O7 0.500000 0.159512 0.992845
O O8 0.327293 0.250000 0.979076
O O9 0.248602 0.136701 0.965012
O O10 0.000000 0.750000 0.834182
O O11 0.500000 0.862923 0.428448
O O12 0.705026 0.847769 0.357503
O O13 0.663327 0.953578 0.400955
O O14 0.500000 0.156114 0.714322
O O15 0.338705 0.250000 0.698655
O O16 0.250000 0.151753 0.750000
O O17 0.000000 0.959150 0.938191
O O18 0.202514 0.000000 0.000000
#
# Coordination Sequence:
#
# PCOD8300535 Si02
#       7
#    16   8  16   8  16  16  16
#     4  12  22  40  62  89 119 160 203 242 304 367
#     4  11  24  44  63  88 128 158 191 260 320 357
#     4  11  23  37  55  88 128 155 188 247 308 358
#     4  11  24  40  65  92 116 158 211 254 304 369
#     4  10  21  38  61  86 115 156 202 246 292 348
#     4   9  18  34  57  84 114 149 189 236 289 345
#     4  10  20  38  60  86 118 156 195 244 291 342
#
# _framework density 18.643549
#
# number of rings (size 3 to 8) (size 9 to 14) (size 15 to 20)
#    0.000    1.500    3.333    2.500    1.167    3.000 
#    1.500    4.583    0.000    0.000    0.000    0.000 
#    0.000    0.000    0.000    0.000    0.000    0.000 
#
# Total GULP energy -595253.374708 kJ/mol
# GULP energy per Si atom -12401.111973 kJ/mol
# Density = 1.860112 g / cm^3
# Si number density = 18.643549 Si / 1000 Ang^3
#
#
#
# Elastic Constant Matrix: (Units=GPa)
#
#
# Indices 1 2 3 4 5 6 
#
# 1 112.7025 40.7980 53.5961 0.0000 0.0000 0.0000
# 2 40.7980 65.8816 31.4082 0.0000 0.0000 0.0000
# 3 53.5961 31.4082 98.9825 0.0000 0.0000 0.0000
# 4 0.0000 0.0000 0.0000 25.5142 0.0000 0.0000
# 5 0.0000 0.0000 0.0000 0.0000 42.8617 0.0000
# 6 0.0000 0.0000 0.0000 0.0000 0.0000 27.0918
#
#
#
# Elastic Compliance Matrix: (Units=1/GPa)
#
#
# Indices 1 2 3 4 5 6 
#
# 1 0.013595 -0.005784 -0.005526 0.000000 0.000000 0.000000
# 2 -0.005784 0.020345 -0.003324 0.000000 0.000000 0.000000
# 3 -0.005526 -0.003324 0.014149 0.000000 0.000000 0.000000
# 4 0.000000 0.000000 0.000000 0.039194 0.000000 0.000000
# 5 0.000000 0.000000 0.000000 0.000000 0.023331 0.000000
# 6 0.000000 0.000000 0.000000 0.000000 0.000000 0.036912
#
#
# Mechanical properties :
#
#
# Convention : Reuss Voigt Hill
#
# Bulk Modulus (GPa) = 53.12959 58.79680 55.96319
# Shear Modulus (GPa) = 27.31243 29.21117 28.26180
#
# Velocity S-wave (km/s) = 3.83166 3.96261 3.89768
# Velocity P-wave (km/s) = 6.93793 7.24860 7.09497
#
# Compressibility (1/GPa) = 0.01882190
#
# Stress axis : x y z
#
# Youngs Moduli (GPa) = 73.55884 49.15136 70.67425
#
# Poissons Ratio (x) = 0.28431 0.39052
# Poissons Ratio (y) = 0.42549 0.23490
# Poissons Ratio (z) = 0.40646 0.16337
#
# Static dielectric constant tensor:
#      x y z
#    x 3.443550 0.000000 0.000000 
#    y 0.000000 3.457030 0.000000 
#    z 0.000000 0.000000 3.462170 
# 
# 
# High freq. dielectric constant tensor:
#      x y z
#    x 1.725410 0.000000 0.000000 
#    y 0.000000 1.718290 0.000000 
#    z 0.000000 0.000000 1.726120 
# 
# From -- ./inp_files/57353.got.cif
#   From: 2010.03.12/outbox.cif.g09.slc.cpg/sg74_29_cif.got.tgz:57353.got - 2010.04.16 15:46:19.
