data_PCOD8300213
_publ_section_title
;
Structure prediction by ZEFSAII (Michael W. Deem and Ramdas Pophale) SiO2 
 PCOD8300213
Probable space group: I M M A
;
_chemical_formula_sum "Si O2"
_cell_formula_units_Z 72
_cell_length_a 8.749072
_cell_length_b 20.914990
_cell_length_c 19.534265
_cell_angle_alpha 90.000000
_cell_angle_beta 90.000000
_cell_angle_gamma 90.000000
_cell_volume 3574.511732
_symmetry_space_group_name_H-M "I M M A"
_symmetry_group_IT_number 74
_symmetry_cell_setting 'orthorhombic'
loop_
_space_group_symop_operation_xyz
x,y,z
-x,1/2-y,z
x,-y,-z
-x,1/2+y,-z
-x,-y,-z
x,1/2+y,-z
-x,y,z
x,1/2-y,z
1/2+x,1/2+y,1/2+z
1/2-x,-y,1/2+z
1/2+x,1/2-y,1/2-z
1/2-x,y,1/2-z
1/2-x,1/2-y,1/2-z
1/2+x,y,1/2-z
1/2-x,1/2+y,1/2+z
1/2+x,-y,1/2+z
loop_
_atom_site_type_symbol
_atom_site_label
_atom_site_fract_x
_atom_site_fract_y
_atom_site_fract_z
Si Si1 0.317674 0.750000 0.173809
Si Si2 0.665347 0.177951 0.313244
Si Si3 0.679633 0.131040 0.062769
Si Si4 0.820302 0.363683 0.914802
Si Si5 0.669409 0.006852 0.918726
O O1 0.500000 0.750000 0.177758
O O2 0.250000 0.750000 0.250000
O O3 0.263270 0.813374 0.134153
O O4 0.500000 0.144870 0.326943
O O5 0.635328 0.250000 0.290022
O O6 0.750000 0.142145 0.250000
O O7 0.768355 0.182000 0.381539
O O8 0.500000 0.133944 0.046338
O O9 0.725690 0.064117 0.101478
O O10 0.767544 0.145906 0.992721
O O11 0.780108 0.436657 0.892462
O O12 0.000000 0.352471 0.908702
O O13 0.500000 0.022309 0.890167
O O14 0.663224 0.000000 0.000000
#
# Coordination Sequence:
#
# PCOD8300213 Si02
#       5
#     8  16  16  16  16
#     4  12  26  46  66  86 117 154 193 242 298 354
#     4  10  21  36  53  76 111 151 190 234 283 338
#     4  10  20  35  58  86 117 153 194 239 285 338
#     4  11  22  37  60  89 118 149 190 236 287 344
#     4   8  16  33  55  82 115 150 189 234 286 339
#
# _framework density 20.142613000000001
#
# number of rings (size 3 to 8) (size 9 to 14) (size 15 to 20)
#    0.000    2.000    0.000    5.667    1.556    6.222 
#    0.000    1.111    0.000    5.333    0.000    0.000 
#    0.000    0.000    0.000    0.000    0.000    0.000 
#
# Total GULP energy -446051.317301 kJ/mol
# GULP energy per Si atom -12390.314369 kJ/mol
# Density = 2.009677 g / cm^3
# Si number density = 20.142613 Si / 1000 Ang^3
#
#
#
# Elastic Constant Matrix: (Units=GPa)
#
#
# Indices 1 2 3 4 5 6 
#
# 1 149.4024 48.7856 53.5941 0.0000 0.0000 0.0000
# 2 48.7856 85.0729 40.1484 0.0000 0.0000 0.0000
# 3 53.5941 40.1484 104.1513 0.0000 0.0000 0.0000
# 4 0.0000 0.0000 0.0000 7.8191 0.0000 0.0000
# 5 0.0000 0.0000 0.0000 0.0000 32.3998 0.0000
# 6 0.0000 0.0000 0.0000 0.0000 0.0000 27.4517
#
#
#
# Elastic Compliance Matrix: (Units=1/GPa)
#
#
# Indices 1 2 3 4 5 6 
#
# 1 0.009053 -0.003659 -0.003248 0.000000 0.000000 0.000000
# 2 -0.003659 0.015847 -0.004226 0.000000 0.000000 0.000000
# 3 -0.003248 -0.004226 0.012902 0.000000 0.000000 0.000000
# 4 0.000000 0.000000 0.000000 0.127892 0.000000 0.000000
# 5 0.000000 0.000000 0.000000 0.000000 0.030864 0.000000
# 6 0.000000 0.000000 0.000000 0.000000 0.000000 0.036428
#
#
# Mechanical properties :
#
#
# Convention : Reuss Voigt Hill
#
# Bulk Modulus (GPa) = 64.36541 69.29809 66.83175
# Shear Modulus (GPa) = 19.19892 26.60735 22.90313
#
# Velocity S-wave (km/s) = 3.09066 3.63843 3.37567
# Velocity P-wave (km/s) = 6.69033 7.22006 6.96024
#
# Compressibility (1/GPa) = 0.01553630
#
# Stress axis : x y z
#
# Youngs Moduli (GPa) = 110.45727 63.10281 77.50742
#
# Poissons Ratio (x) = 0.23088 0.25176
# Poissons Ratio (y) = 0.40413 0.32755
# Poissons Ratio (z) = 0.35879 0.26668
#
# Static dielectric constant tensor:
#      x y z
#    x 3.888450 0.000000 0.000000 
#    y 0.000000 4.748010 0.000000 
#    z 0.000000 0.000000 3.388770 
# 
# 
# High freq. dielectric constant tensor:
#      x y z
#    x 1.798990 0.000000 0.000000 
#    y 0.000000 1.783920 0.000000 
#    z 0.000000 0.000000 1.761050 
# 
# From -- ./inp_files/48382.got.cif
#   From: 2010.03.12/outbox.cif.g09.slc.cpg/sg74_25_cif.got.tgz:48382.got - 2010.04.16 15:46:19.
