data_PCOD8300699
_publ_section_title
;
Structure prediction by ZEFSAII (Michael W. Deem and Ramdas Pophale) SiO2 
 PCOD8300699
Probable space group: I M M A
;
_chemical_formula_sum "Si O2"
_cell_formula_units_Z 64
_cell_length_a 13.071212
_cell_length_b 7.622518
_cell_length_c 36.788629
_cell_angle_alpha 90.000000
_cell_angle_beta 90.000000
_cell_angle_gamma 90.000000
_cell_volume 3665.455238
_symmetry_space_group_name_H-M "I M M A"
_symmetry_group_IT_number 74
_symmetry_cell_setting 'orthorhombic'
loop_
_space_group_symop_operation_xyz
x,y,z
-x,1/2-y,z
x,-y,-z
-x,1/2+y,-z
-x,-y,-z
x,1/2+y,-z
-x,y,z
x,1/2-y,z
1/2+x,1/2+y,1/2+z
1/2-x,-y,1/2+z
1/2+x,1/2-y,1/2-z
1/2-x,y,1/2-z
1/2-x,1/2-y,1/2-z
1/2+x,y,1/2-z
1/2-x,1/2+y,1/2+z
1/2+x,-y,1/2+z
loop_
_atom_site_type_symbol
_atom_site_label
_atom_site_fract_x
_atom_site_fract_y
_atom_site_fract_z
Si Si1 0.385876 0.044587 0.459697
Si Si2 0.265621 0.250000 0.707575
Si Si3 0.883799 0.445734 0.173662
Si Si4 0.752521 0.549501 0.604858
Si Si5 0.121317 0.250000 0.640077
O O1 0.500000 0.961898 0.453539
O O2 0.393960 0.250000 0.453468
O O3 0.299727 0.973341 0.431909
O O4 0.346804 0.000000 0.500000
O O5 0.250000 0.250000 0.750000
O O6 0.328991 0.425236 0.701093
O O7 0.165941 0.250000 0.681290
O O8 0.872622 0.250000 0.189719
O O9 0.837975 0.457628 0.133738
O O10 0.000000 0.504367 0.169911
O O11 0.794196 0.750000 0.600462
O O12 0.844190 0.423043 0.617760
O O13 0.000000 0.250000 0.643346
#
# Coordination Sequence:
#
# PCOD8300699 Si02
#       5
#    16   8  16  16   8
#     4   9  17  28  45  75 109 136 161 197 253 317
#     4  10  21  35  52  75 105 132 161 205 258 307
#     4   9  17  31  52  76 101 129 162 196 242 306
#     4   9  18  33  52  74 100 134 167 209 252 296
#     4  10  22  37  54  75  96 132 182 221 250 287
#
# _framework density 17.460311999999998
#
# number of rings (size 3 to 8) (size 9 to 14) (size 15 to 20)
#    0.000    2.750    0.000    1.125    1.750    5.000 
#    0.000    1.250    0.000    0.750    0.000    0.000 
#    0.000    0.000    0.000    0.000    0.000    0.000 
#
# Total GULP energy -396623.135881 kJ/mol
# GULP energy per Si atom -12394.472996 kJ/mol
# Density = 1.742057 g / cm^3
# Si number density = 17.460312 Si / 1000 Ang^3
#
#
#
# Elastic Constant Matrix: (Units=GPa)
#
#
# Indices 1 2 3 4 5 6 
#
# 1 125.3362 55.5155 50.8048 0.0000 0.0000 0.0000
# 2 55.5155 85.5057 45.0109 0.0000 0.0000 0.0000
# 3 50.8048 45.0109 111.1302 0.0000 0.0000 0.0000
# 4 0.0000 0.0000 0.0000 21.6153 0.0000 0.0000
# 5 0.0000 0.0000 0.0000 0.0000 27.0231 0.0000
# 6 0.0000 0.0000 0.0000 0.0000 0.0000 18.0912
#
#
#
# Elastic Compliance Matrix: (Units=1/GPa)
#
#
# Indices 1 2 3 4 5 6 
#
# 1 0.011910 -0.006185 -0.002940 0.000000 0.000000 0.000000
# 2 -0.006185 0.018076 -0.004494 0.000000 0.000000 0.000000
# 3 -0.002940 -0.004494 0.012162 0.000000 0.000000 0.000000
# 4 0.000000 0.000000 0.000000 0.046264 0.000000 0.000000
# 5 0.000000 0.000000 0.000000 0.000000 0.037005 0.000000
# 6 0.000000 0.000000 0.000000 0.000000 0.000000 0.055276
#
#
# Mechanical properties :
#
#
# Convention : Reuss Voigt Hill
#
# Bulk Modulus (GPa) = 67.06198 69.40384 68.23291
# Shear Modulus (GPa) = 23.48513 24.72197 24.10355
#
# Velocity S-wave (km/s) = 3.67148 3.76692 3.71951
# Velocity P-wave (km/s) = 7.51430 7.66520 7.59013
#
# Compressibility (1/GPa) = 0.01491158
#
# Stress axis : x y z
#
# Youngs Moduli (GPa) = 83.96550 55.32046 82.22014
#
# Poissons Ratio (x) = 0.34216 0.24169
# Poissons Ratio (y) = 0.51933 0.36949
# Poissons Ratio (z) = 0.24682 0.24860
#
# Static dielectric constant tensor:
#      x y z
#    x 3.018460 0.000000 0.000000 
#    y 0.000000 3.195550 0.000000 
#    z 0.000000 0.000000 3.219730 
# 
# 
# High freq. dielectric constant tensor:
#      x y z
#    x 1.645570 0.000000 0.000000 
#    y 0.000000 1.686530 0.000000 
#    z 0.000000 0.000000 1.668560 
# 
# From -- ./inp_files/71317.got.cif
#   From: 2010.03.12/outbox.cif.g09.slc.cpg/sg74_36_cif.got.tgz:71317.got - 2010.04.16 15:46:19.
