data_PCOD8300820
_publ_section_title
;
Structure prediction by ZEFSAII (Michael W. Deem and Ramdas Pophale) SiO2 
 PCOD8300820
Probable space group: I M M A
;
_chemical_formula_sum "Si O2"
_cell_formula_units_Z 112
_cell_length_a 35.498099
_cell_length_b 15.315042
_cell_length_c 11.134006
_cell_angle_alpha 90.000000
_cell_angle_beta 90.000000
_cell_angle_gamma 90.000000
_cell_volume 6053.056664
_symmetry_space_group_name_H-M "I M M A"
_symmetry_group_IT_number 74
_symmetry_cell_setting 'orthorhombic'
loop_
_space_group_symop_operation_xyz
x,y,z
-x,1/2-y,z
x,-y,-z
-x,1/2+y,-z
-x,-y,-z
x,1/2+y,-z
-x,y,z
x,1/2-y,z
1/2+x,1/2+y,1/2+z
1/2-x,-y,1/2+z
1/2+x,1/2-y,1/2-z
1/2-x,y,1/2-z
1/2-x,1/2-y,1/2-z
1/2+x,y,1/2-z
1/2-x,1/2+y,1/2+z
1/2+x,-y,1/2+z
loop_
_atom_site_type_symbol
_atom_site_label
_atom_site_fract_x
_atom_site_fract_y
_atom_site_fract_z
Si Si1 0.456249 0.398538 0.994971
Si Si2 0.663887 0.348723 0.853978
Si Si3 0.220275 0.002356 0.358514
Si Si4 0.541521 0.499080 0.361078
Si Si5 0.081084 0.848015 0.733453
Si Si6 0.915680 0.152326 0.739449
Si Si7 0.839401 0.650823 0.628019
O O1 0.500000 0.385738 0.968471
O O2 0.445556 0.352385 0.118195
O O3 0.444877 0.500000 0.000000
O O4 0.433169 0.350881 0.892190
O O5 0.678543 0.250000 0.831883
O O6 0.697918 0.414045 0.828919
O O7 0.628751 0.370315 0.767502
O O8 0.649138 0.359958 0.989527
O O9 0.250000 0.009348 0.250000
O O10 0.235215 0.000000 0.500000
O O11 0.194379 0.086698 0.339237
O O12 0.534705 0.500000 0.500000
O O13 0.500000 0.497348 0.297143
O O14 0.565546 0.413673 0.332228
O O15 0.563849 0.585494 0.326297
O O16 0.079635 0.750000 0.785528
O O17 0.123877 0.875128 0.703883
O O18 0.921073 0.250000 0.790909
O O19 0.826520 0.750000 0.656133
#
# Coordination Sequence:
#
# PCOD8300820 Si02
#       7
#    16  16  16  16  16  16  16
#     4  11  21  31  51  86 123 147 170 223 295 344
#     4   9  18  34  57  85 113 143 178 219 273 342
#     4  10  21  36  58  85 114 149 184 224 277 340
#     4  11  25  41  53  70 104 154 204 243 280 327
#     4  11  21  36  59  84 109 141 186 235 284 338
#     4  11  21  36  59  84 109 141 186 235 284 338
#     4   9  18  34  57  85 113 143 178 219 273 342
#
# _framework density 18.503049000000001
#
# number of rings (size 3 to 8) (size 9 to 14) (size 15 to 20)
#    0.000    1.714    2.857    2.143    0.000    4.000 
#    0.000    4.286    0.000    1.714    0.000    0.000 
#    0.000    0.000    0.000    0.000    0.000    0.000 
#
# Total GULP energy -694259.402657 kJ/mol
# GULP energy per Si atom -12397.489333 kJ/mol
# Density = 1.846094 g / cm^3
# Si number density = 18.503049 Si / 1000 Ang^3
#
#
#
# Elastic Constant Matrix: (Units=GPa)
#
#
# Indices 1 2 3 4 5 6 
#
# 1 106.3963 72.2728 43.2768 0.0000 0.0000 0.0000
# 2 72.2728 130.8055 37.5673 0.0000 0.0000 0.0000
# 3 43.2768 37.5673 65.0221 0.0000 0.0000 0.0000
# 4 0.0000 0.0000 0.0000 8.2066 0.0000 0.0000
# 5 0.0000 0.0000 0.0000 0.0000 40.5162 0.0000
# 6 0.0000 0.0000 0.0000 0.0000 0.0000 22.3708
#
#
#
# Elastic Compliance Matrix: (Units=1/GPa)
#
#
# Indices 1 2 3 4 5 6 
#
# 1 0.017509 -0.007586 -0.007271 0.000000 0.000000 0.000000
# 2 -0.007586 0.012453 -0.002146 0.000000 0.000000 0.000000
# 3 -0.007271 -0.002146 0.021458 0.000000 0.000000 0.000000
# 4 0.000000 0.000000 0.000000 0.121854 0.000000 0.000000
# 5 0.000000 0.000000 0.000000 0.000000 0.024682 0.000000
# 6 0.000000 0.000000 0.000000 0.000000 0.000000 0.044701
#
#
# Mechanical properties :
#
#
# Convention : Reuss Voigt Hill
#
# Bulk Modulus (GPa) = 57.42062 67.60639 62.51350
# Shear Modulus (GPa) = 17.70122 24.15917 20.93020
#
# Velocity S-wave (km/s) = 3.09636 3.61735 3.36694
# Velocity P-wave (km/s) = 6.62447 7.35284 6.99814
#
# Compressibility (1/GPa) = 0.01741535
#
# Stress axis : x y z
#
# Youngs Moduli (GPa) = 57.11271 80.30440 46.60231
#
# Poissons Ratio (x) = 0.60920 0.33883
# Poissons Ratio (y) = 0.43326 0.09999
# Poissons Ratio (z) = 0.41525 0.17230
#
# Static dielectric constant tensor:
#      x y z
#    x 3.334800 0.000000 0.000000 
#    y 0.000000 3.817720 0.000000 
#    z 0.000000 0.000000 3.148780 
# 
# 
# High freq. dielectric constant tensor:
#      x y z
#    x 1.711760 0.000000 0.000000 
#    y 0.000000 1.737640 0.000000 
#    z 0.000000 0.000000 1.688080 
# 
# From -- ./inp_files/27248.got.cif
#   From: 2010.03.12/outbox.cif.g09.slc.cpg/sg74_14_cif.got.tgz:27248.got - 2010.04.16 15:46:19.
