data_PCOD8300971
_publ_section_title
;
Structure prediction by ZEFSAII (Michael W. Deem and Ramdas Pophale) SiO2 
 PCOD8300971
Probable space group: I M M A
;
_chemical_formula_sum "Si O2"
_cell_formula_units_Z 96
_cell_length_a 30.094708
_cell_length_b 17.052426
_cell_length_c 8.801226
_cell_angle_alpha 90.000000
_cell_angle_beta 90.000000
_cell_angle_gamma 90.000000
_cell_volume 4516.681642
_symmetry_space_group_name_H-M "I M M A"
_symmetry_group_IT_number 74
_symmetry_cell_setting 'orthorhombic'
loop_
_space_group_symop_operation_xyz
x,y,z
-x,1/2-y,z
x,-y,-z
-x,1/2+y,-z
-x,-y,-z
x,1/2+y,-z
-x,y,z
x,1/2-y,z
1/2+x,1/2+y,1/2+z
1/2-x,-y,1/2+z
1/2+x,1/2-y,1/2-z
1/2-x,y,1/2-z
1/2-x,1/2-y,1/2-z
1/2+x,y,1/2-z
1/2-x,1/2+y,1/2+z
1/2+x,-y,1/2+z
loop_
_atom_site_type_symbol
_atom_site_label
_atom_site_fract_x
_atom_site_fract_y
_atom_site_fract_z
Si Si1 0.383183 0.336878 0.215785
Si Si2 0.050421 0.418608 0.073519
Si Si3 0.949395 0.338709 0.767039
Si Si4 0.705753 0.105138 0.342953
Si Si5 0.623573 0.583280 0.087527
Si Si6 0.203006 0.921319 0.186906
O O1 0.401708 0.250000 0.246602
O O2 0.416957 0.399796 0.287585
O O3 0.333994 0.343675 0.280312
O O4 0.379190 0.349337 0.037052
O O5 0.000000 0.426096 0.135411
O O6 0.066386 0.500000 0.000000
O O7 0.054285 0.350615 0.948053
O O8 0.933010 0.250000 0.731109
O O9 0.921473 0.407253 0.684381
O O10 0.000000 0.350096 0.713035
O O11 0.750000 0.130943 0.250000
O O12 0.703987 0.120571 0.523280
O O13 0.697338 0.014051 0.318349
O O14 0.664036 0.605697 0.199914
O O15 0.628654 0.500000 0.000000
O O16 0.250000 0.895453 0.250000
#
# Coordination Sequence:
#
# PCOD8300971 Si02
#       6
#    16  16  16  16  16  16
#     4  12  25  38  60  93 131 170 209 263 328 386
#     4  10  22  41  66  95 125 165 219 271 319 380
#     4  10  22  41  63  87 123 169 213 262 323 385
#     4  10  21  39  64  91 123 160 209 263 320 384
#     4  12  23  39  62  92 127 168 217 267 318 381
#     4  10  21  37  65  94 120 159 211 265 320 383
#
# _framework density 21.254543000000002
#
# number of rings (size 3 to 8) (size 9 to 14) (size 15 to 20)
#    0.000    1.333    1.667    4.000    4.667    2.333 
#    0.000    0.833    0.000    3.500    0.000    0.000 
#    0.000    0.000    0.000    0.000    0.000    0.000 
#
# Total GULP energy -595058.846940 kJ/mol
# GULP energy per Si atom -12397.059311 kJ/mol
# Density = 2.120617 g / cm^3
# Si number density = 21.254543 Si / 1000 Ang^3
#
#
#
# Elastic Constant Matrix: (Units=GPa)
#
#
# Indices 1 2 3 4 5 6 
#
# 1 135.1032 41.1217 71.3169 0.0000 0.0000 0.0000
# 2 41.1217 61.3260 21.7889 0.0000 0.0000 0.0000
# 3 71.3169 21.7889 135.8994 0.0000 0.0000 0.0000
# 4 0.0000 0.0000 0.0000 18.2784 0.0000 0.0000
# 5 0.0000 0.0000 0.0000 0.0000 40.8975 0.0000
# 6 0.0000 0.0000 0.0000 0.0000 0.0000 56.3169
#
#
#
# Elastic Compliance Matrix: (Units=1/GPa)
#
#
# Indices 1 2 3 4 5 6 
#
# 1 0.012130 -0.006227 -0.005367 0.000000 0.000000 0.000000
# 2 -0.006227 0.020488 -0.000017 0.000000 0.000000 0.000000
# 3 -0.005367 -0.000017 0.010178 0.000000 0.000000 0.000000
# 4 0.000000 0.000000 0.000000 0.054709 0.000000 0.000000
# 5 0.000000 0.000000 0.000000 0.000000 0.024451 0.000000
# 6 0.000000 0.000000 0.000000 0.000000 0.000000 0.017757
#
#
# Mechanical properties :
#
#
# Convention : Reuss Voigt Hill
#
# Bulk Modulus (GPa) = 51.09024 66.75372 58.92198
# Shear Modulus (GPa) = 29.50544 36.30530 32.90537
#
# Velocity S-wave (km/s) = 3.72989 4.13742 3.93893
# Velocity P-wave (km/s) = 6.52985 7.36881 6.96198
#
# Compressibility (1/GPa) = 0.01957321
#
# Stress axis : x y z
#
# Youngs Moduli (GPa) = 82.43812 48.80958 98.25322
#
# Poissons Ratio (x) = 0.30393 0.52736
# Poissons Ratio (y) = 0.51333 0.00168
# Poissons Ratio (z) = 0.44247 0.00083
#
# Static dielectric constant tensor:
#      x y z
#    x 3.914090 0.000000 0.000000 
#    y 0.000000 3.552720 0.000000 
#    z 0.000000 0.000000 5.698570 
# 
# 
# High freq. dielectric constant tensor:
#      x y z
#    x 1.840230 0.000000 0.000000 
#    y 0.000000 1.816550 0.000000 
#    z 0.000000 0.000000 1.843010 
# 
# From -- ./inp_files/15083.got.cif
#   From: 2010.03.12/outbox.cif.g09.slc.cpg/sg74_8_cif.got.tgz:15083.got - 2010.04.16 15:46:19.
