data_PCOD8300082
_publ_section_title
;
Structure prediction by ZEFSAII (Michael W. Deem and Ramdas Pophale) SiO2 
 PCOD8300082
Probable space group: I M M A
;
_chemical_formula_sum "Si O2"
_cell_formula_units_Z 96
_cell_length_a 15.412199
_cell_length_b 15.484945
_cell_length_c 19.178941
_cell_angle_alpha 90.000000
_cell_angle_beta 90.000000
_cell_angle_gamma 90.000000
_cell_volume 4577.189555
_symmetry_space_group_name_H-M "I M M A"
_symmetry_group_IT_number 74
_symmetry_cell_setting 'orthorhombic'
loop_
_space_group_symop_operation_xyz
x,y,z
-x,1/2-y,z
x,-y,-z
-x,1/2+y,-z
-x,-y,-z
x,1/2+y,-z
-x,y,z
x,1/2-y,z
1/2+x,1/2+y,1/2+z
1/2-x,-y,1/2+z
1/2+x,1/2-y,1/2-z
1/2-x,y,1/2-z
1/2-x,1/2-y,1/2-z
1/2+x,y,1/2-z
1/2-x,1/2+y,1/2+z
1/2+x,-y,1/2+z
loop_
_atom_site_type_symbol
_atom_site_label
_atom_site_fract_x
_atom_site_fract_y
_atom_site_fract_z
Si Si1 0.645088 0.343834 0.411935
Si Si2 0.149724 0.522309 0.257361
Si Si3 0.101157 0.343275 0.241390
Si Si4 0.759078 0.593813 0.477893
Si Si5 0.403054 0.653196 0.125656
Si Si6 0.094364 0.030460 0.899822
O O1 0.600990 0.250000 0.431120
O O2 0.659430 0.345367 0.328866
O O3 0.736826 0.349848 0.453309
O O4 0.594152 0.432314 0.432003
O O5 0.250000 0.543457 0.250000
O O6 0.133195 0.424603 0.287571
O O7 0.108577 0.589010 0.310326
O O8 0.102673 0.528775 0.183462
O O9 0.116071 0.250000 0.279188
O O10 0.000000 0.353345 0.220727
O O11 0.792977 0.500000 0.500000
O O12 0.835212 0.639092 0.436033
O O13 0.671462 0.587885 0.431115
O O14 0.500000 0.640726 0.095235
O O15 0.390377 0.750000 0.154645
O O16 0.000000 0.070614 0.917904
#
# Coordination Sequence:
#
# PCOD8300082 Si02
#       6
#    16  16  16  16  16  16
#     4   9  17  30  52  80 112 147 182 219 270 336
#     4  11  20  36  60  83 115 155 191 241 291 346
#     4   9  18  33  56  88 122 154 188 229 286 356
#     4  10  21  37  58  84 114 149 190 239 289 340
#     4  11  24  42  63  85 111 152 203 248 291 340
#     4  10  20  35  54  82 116 149 186 230 285 347
#
# _framework density 20.973569999999999
#
# number of rings (size 3 to 8) (size 9 to 14) (size 15 to 20)
#    0.000    2.000    1.667    3.500    0.000    5.667 
#    0.000    0.000    0.000    2.500    0.000    2.333 
#    0.000    0.000    0.000    0.000    0.000    0.000 
#
# Total GULP energy -594667.188448 kJ/mol
# GULP energy per Si atom -12388.899759 kJ/mol
# Density = 2.092583 g / cm^3
# Si number density = 20.973570 Si / 1000 Ang^3
#
#
#
# Elastic Constant Matrix: (Units=GPa)
#
#
# Indices 1 2 3 4 5 6 
#
# 1 132.1900 53.1422 39.4540 0.0000 0.0000 0.0000
# 2 53.1422 130.6349 34.8540 0.0000 0.0000 0.0000
# 3 39.4540 34.8540 61.8808 0.0000 0.0000 0.0000
# 4 0.0000 0.0000 0.0000 26.8248 0.0000 0.0000
# 5 0.0000 0.0000 0.0000 0.0000 11.0748 0.0000
# 6 0.0000 0.0000 0.0000 0.0000 0.0000 15.0759
#
#
#
# Elastic Compliance Matrix: (Units=1/GPa)
#
#
# Indices 1 2 3 4 5 6 
#
# 1 0.010160 -0.002830 -0.004884 0.000000 0.000000 0.000000
# 2 -0.002830 0.009797 -0.003714 0.000000 0.000000 0.000000
# 3 -0.004884 -0.003714 0.021366 0.000000 0.000000 0.000000
# 4 0.000000 0.000000 0.000000 0.037279 0.000000 0.000000
# 5 0.000000 0.000000 0.000000 0.000000 0.090295 0.000000
# 6 0.000000 0.000000 0.000000 0.000000 0.000000 0.066331
#
#
# Mechanical properties :
#
#
# Convention : Reuss Voigt Hill
#
# Bulk Modulus (GPa) = 54.14915 64.40068 59.27491
# Shear Modulus (GPa) = 18.92225 23.74548 21.33387
#
# Velocity S-wave (km/s) = 3.00691 3.36841 3.19278
# Velocity P-wave (km/s) = 6.15867 6.77499 6.47417
#
# Compressibility (1/GPa) = 0.01846751
#
# Stress axis : x y z
#
# Youngs Moduli (GPa) = 98.42218 102.07146 46.80396
#
# Poissons Ratio (x) = 0.28888 0.22859
# Poissons Ratio (y) = 0.27855 0.17382
# Poissons Ratio (z) = 0.48069 0.37906
#
# Static dielectric constant tensor:
#      x y z
#    x 3.714310 0.000000 0.000000 
#    y 0.000000 4.125150 0.000000 
#    z 0.000000 0.000000 3.610740 
# 
# 
# High freq. dielectric constant tensor:
#      x y z
#    x 1.811770 0.000000 0.000000 
#    y 0.000000 1.828620 0.000000 
#    z 0.000000 0.000000 1.793620 
# 
# From -- ./inp_files/51934.got.cif
#   From: 2010.03.12/outbox.cif.g09.slc.cpg/sg74_26_cif.got.tgz:51934.got - 2010.04.16 15:46:19.
