data_PCOD8300093
_publ_section_title
;
Structure prediction by ZEFSAII (Michael W. Deem and Ramdas Pophale) SiO2 
 PCOD8300093
Probable space group: I M M A
;
_chemical_formula_sum "Si O2"
_cell_formula_units_Z 64
_cell_length_a 17.160866
_cell_length_b 23.073981
_cell_length_c 8.117565
_cell_angle_alpha 90.000000
_cell_angle_beta 90.000000
_cell_angle_gamma 90.000000
_cell_volume 3214.308122
_symmetry_space_group_name_H-M "I M M A"
_symmetry_group_IT_number 74
_symmetry_cell_setting 'orthorhombic'
loop_
_space_group_symop_operation_xyz
x,y,z
-x,1/2-y,z
x,-y,-z
-x,1/2+y,-z
-x,-y,-z
x,1/2+y,-z
-x,y,z
x,1/2-y,z
1/2+x,1/2+y,1/2+z
1/2-x,-y,1/2+z
1/2+x,1/2-y,1/2-z
1/2-x,y,1/2-z
1/2-x,1/2-y,1/2-z
1/2+x,y,1/2-z
1/2-x,1/2+y,1/2+z
1/2+x,-y,1/2+z
loop_
_atom_site_type_symbol
_atom_site_label
_atom_site_fract_x
_atom_site_fract_y
_atom_site_fract_z
Si Si1 0.337938 0.186543 0.305757
Si Si2 0.088470 0.465909 0.739298
Si Si3 0.294296 0.889516 0.415601
Si Si4 0.141173 0.917956 0.589323
O O1 0.379070 0.250000 0.299270
O O2 0.250000 0.193575 0.250000
O O3 0.337349 0.164087 0.494950
O O4 0.382068 0.141526 0.183600
O O5 0.139656 0.436809 0.880732
O O6 0.089436 0.426179 0.574432
O O7 0.125917 0.528622 0.710162
O O8 0.000000 0.471889 0.800653
O O9 0.250000 0.868194 0.250000
O O10 0.232621 0.917998 0.541866
#
# Coordination Sequence:
#
# PCOD8300093 Si02
#       4
#    16  16  16  16
#     4   9  18  33  53  77 103 134 177 222 259 305
#     4  10  20  35  55  79 109 139 172 217 268 320
#     4   9  19  32  52  80 108 137 172 217 266 315
#     4   9  18  32  54  79 103 137 177 216 259 312
#
# _framework density 19.910972000000001
#
# number of rings (size 3 to 8) (size 9 to 14) (size 15 to 20)
#    0.000    2.750    0.000    1.500    0.000   18.500 
#    0.000    7.500    0.000    8.250    0.000    0.000 
#    0.000    0.000    0.000    0.000    0.000    0.000 
#
# Total GULP energy -396651.929787 kJ/mol
# GULP energy per Si atom -12395.372806 kJ/mol
# Density = 1.986565 g / cm^3
# Si number density = 19.910972 Si / 1000 Ang^3
#
#
#
# Elastic Constant Matrix: (Units=GPa)
#
#
# Indices 1 2 3 4 5 6 
#
# 1 72.5928 51.0051 35.0778 0.0000 0.0000 0.0000
# 2 51.0051 170.0312 67.4991 0.0000 0.0000 0.0000
# 3 35.0778 67.4991 84.2312 0.0000 0.0000 0.0000
# 4 0.0000 0.0000 0.0000 23.1984 0.0000 0.0000
# 5 0.0000 0.0000 0.0000 0.0000 12.6913 0.0000
# 6 0.0000 0.0000 0.0000 0.0000 0.0000 0.9500
#
#
#
# Elastic Compliance Matrix: (Units=1/GPa)
#
#
# Indices 1 2 3 4 5 6 
#
# 1 0.018704 -0.003694 -0.004829 0.000000 0.000000 0.000000
# 2 -0.003694 0.009355 -0.005958 0.000000 0.000000 0.000000
# 3 -0.004829 -0.005958 0.018658 0.000000 0.000000 0.000000
# 4 0.000000 0.000000 0.000000 0.043106 0.000000 0.000000
# 5 0.000000 0.000000 0.000000 0.000000 0.078794 0.000000
# 6 0.000000 0.000000 0.000000 0.000000 0.000000 1.052628
#
#
# Mechanical properties :
#
#
# Convention : Reuss Voigt Hill
#
# Bulk Modulus (GPa) = 56.32420 70.44657 63.38538
# Shear Modulus (GPa) = 3.98049 18.91950 11.45000
#
# Velocity S-wave (km/s) = 1.41545 3.08588 2.40064
# Velocity P-wave (km/s) = 5.56963 6.93934 6.29187
#
# Compressibility (1/GPa) = 0.01775436
#
# Stress axis : x y z
#
# Youngs Moduli (GPa) = 53.46357 106.90020 53.59683
#
# Poissons Ratio (x) = 0.39485 0.25884
# Poissons Ratio (y) = 0.19748 0.31933
# Poissons Ratio (z) = 0.25820 0.63692
#
# Static dielectric constant tensor:
#      x y z
#    x 3.299480 0.000000 0.000000 
#    y 0.000000 3.944640 0.000000 
#    z 0.000000 0.000000 3.700780 
# 
# 
# High freq. dielectric constant tensor:
#      x y z
#    x 1.742530 0.000000 0.000000 
#    y 0.000000 1.763970 0.000000 
#    z 0.000000 0.000000 1.782680 
# 
# From -- ./inp_files/8797.got.cif
#   From: 2010.03.12/outbox.cif.g09.slc.cpg/sg74_5_cif.got.tgz:8797.got - 2010.04.16 15:46:19.
