data_PCOD8300350
_publ_section_title
;
Structure prediction by ZEFSAII (Michael W. Deem and Ramdas Pophale) SiO2 
 PCOD8300350
Probable space group: I M M A
;
_chemical_formula_sum "Si O2"
_cell_formula_units_Z 72
_cell_length_a 8.877147
_cell_length_b 26.531935
_cell_length_c 14.524338
_cell_angle_alpha 90.000000
_cell_angle_beta 90.000000
_cell_angle_gamma 90.000000
_cell_volume 3420.886642
_symmetry_space_group_name_H-M "I M M A"
_symmetry_group_IT_number 74
_symmetry_cell_setting 'orthorhombic'
loop_
_space_group_symop_operation_xyz
x,y,z
-x,1/2-y,z
x,-y,-z
-x,1/2+y,-z
-x,-y,-z
x,1/2+y,-z
-x,y,z
x,1/2-y,z
1/2+x,1/2+y,1/2+z
1/2-x,-y,1/2+z
1/2+x,1/2-y,1/2-z
1/2-x,y,1/2-z
1/2-x,1/2-y,1/2-z
1/2+x,y,1/2-z
1/2-x,1/2+y,1/2+z
1/2+x,-y,1/2+z
loop_
_atom_site_type_symbol
_atom_site_label
_atom_site_fract_x
_atom_site_fract_y
_atom_site_fract_z
Si Si1 0.825369 0.378074 0.157660
Si Si2 0.170457 0.586032 0.340064
Si Si3 0.176042 0.340185 0.962687
Si Si4 0.670605 0.478701 0.095619
Si Si5 0.821131 0.750000 0.351530
O O1 0.750000 0.355823 0.250000
O O2 0.768377 0.434161 0.137043
O O3 0.000000 0.383241 0.177846
O O4 0.794466 0.339812 0.072807
O O5 0.250000 0.608938 0.250000
O O6 0.264055 0.605656 0.428064
O O7 0.173164 0.525592 0.334253
O O8 0.000000 0.606577 0.344855
O O9 0.269955 0.297992 0.910204
O O10 0.000000 0.333343 0.940938
O O11 0.500000 0.458823 0.079527
O O12 0.737463 0.500000 0.000000
O O13 0.750000 0.750000 0.250000
O O14 0.000000 0.750000 0.341065
#
# Coordination Sequence:
#
# PCOD8300350 Si02
#       5
#    16  16  16  16   8
#     4  11  24  40  63  91 125 168 212 259 309 365
#     4  11  22  36  57  86 122 163 206 253 305 364
#     4  11  24  43  65  92 124 159 203 255 308 368
#     4  10  20  36  58  86 123 166 211 258 306 360
#     4  12  26  46  73 100 127 160 195 246 310 374
#
# _framework density 21.047174999999999
#
# number of rings (size 3 to 8) (size 9 to 14) (size 15 to 20)
#    0.000    1.111    2.222    4.333    0.000    6.667 
#    0.000    0.556    0.000    0.000    0.000    0.000 
#    0.000    0.000    0.000    0.000    0.000    0.000 
#
# Total GULP energy -446427.764604 kJ/mol
# GULP energy per Si atom -12400.771239 kJ/mol
# Density = 2.099927 g / cm^3
# Si number density = 21.047175 Si / 1000 Ang^3
#
#
#
# Elastic Constant Matrix: (Units=GPa)
#
#
# Indices 1 2 3 4 5 6 
#
# 1 151.0094 46.1359 82.5383 0.0000 0.0000 0.0000
# 2 46.1359 77.9541 35.7990 -0.0002 0.0000 0.0000
# 3 82.5383 35.7990 153.5342 -0.0002 0.0000 -0.0001
# 4 0.0000 -0.0002 -0.0002 27.6949 0.0000 0.0000
# 5 0.0000 0.0000 0.0000 0.0000 36.9175 0.0000
# 6 0.0000 0.0000 -0.0001 0.0000 0.0000 31.6018
#
#
#
# Elastic Compliance Matrix: (Units=1/GPa)
#
#
# Indices 1 2 3 4 5 6 
#
# 1 0.010390 -0.004014 -0.004650 0.000000 0.000000 0.000000
# 2 -0.004014 0.015917 -0.001554 0.000000 0.000000 0.000000
# 3 -0.004650 -0.001554 0.009375 0.000000 0.000000 0.000000
# 4 0.000000 0.000000 0.000000 0.036108 0.000000 0.000000
# 5 0.000000 0.000000 0.000000 0.000000 0.027087 0.000000
# 6 0.000000 0.000000 0.000000 0.000000 0.000000 0.031644
#
#
# Mechanical properties :
#
#
# Convention : Reuss Voigt Hill
#
# Bulk Modulus (GPa) = 65.58238 79.04933 72.31585
# Shear Modulus (GPa) = 32.04371 33.77781 32.91076
#
# Velocity S-wave (km/s) = 3.90612 4.01042 3.95861
# Velocity P-wave (km/s) = 7.18130 7.68663 7.43826
#
# Compressibility (1/GPa) = 0.01524800
#
# Stress axis : x y z
#
# Youngs Moduli (GPa) = 96.24919 62.82591 106.66704
#
# Poissons Ratio (x) = 0.25217 0.49595
# Poissons Ratio (y) = 0.38632 0.16571
# Poissons Ratio (z) = 0.44751 0.09760
#
# Static dielectric constant tensor:
#      x y z
#    x 3.860360 0.000000 0.000000 
#    y 0.000000 3.583490 0.000000 
#    z 0.000000 0.000000 4.035860 
# 
# 
# High freq. dielectric constant tensor:
#      x y z
#    x 1.832600 0.000000 0.000000 
#    y 0.000000 1.801660 0.000000 
#    z 0.000000 0.000000 1.839230 
# 
# From -- ./inp_files/29179.got.cif
#   From: 2010.03.12/outbox.cif.g09.slc.cpg/sg74_15_cif.got.tgz:29179.got - 2010.04.16 15:46:19.
