data_PCOD8300561
_publ_section_title
;
Structure prediction by ZEFSAII (Michael W. Deem and Ramdas Pophale) SiO2 
 PCOD8300561
Probable space group: I M M A
;
_chemical_formula_sum "Si O2"
_cell_formula_units_Z 80
_cell_length_a 20.643895
_cell_length_b 13.927334
_cell_length_c 13.601139
_cell_angle_alpha 90.000000
_cell_angle_beta 90.000000
_cell_angle_gamma 90.000000
_cell_volume 3910.523601
_symmetry_space_group_name_H-M "I M M A"
_symmetry_group_IT_number 74
_symmetry_cell_setting 'orthorhombic'
loop_
_space_group_symop_operation_xyz
x,y,z
-x,1/2-y,z
x,-y,-z
-x,1/2+y,-z
-x,-y,-z
x,1/2+y,-z
-x,y,z
x,1/2-y,z
1/2+x,1/2+y,1/2+z
1/2-x,-y,1/2+z
1/2+x,1/2-y,1/2-z
1/2-x,y,1/2-z
1/2-x,1/2-y,1/2-z
1/2+x,y,1/2-z
1/2-x,1/2+y,1/2+z
1/2+x,-y,1/2+z
loop_
_atom_site_type_symbol
_atom_site_label
_atom_site_fract_x
_atom_site_fract_y
_atom_site_fract_z
Si Si1 0.878348 0.638954 0.026537
Si Si2 0.426104 0.476565 0.352140
Si Si3 0.875411 0.511103 0.360676
Si Si4 0.072411 0.857371 0.508099
Si Si5 0.743245 0.857376 0.133487
O O1 0.897130 0.750000 0.033880
O O2 0.929609 0.577140 0.089254
O O3 0.807854 0.617945 0.072346
O O4 0.885624 0.603447 0.913563
O O5 0.500000 0.442563 0.331224
O O6 0.385644 0.495061 0.253813
O O7 0.929157 0.583868 0.405218
O O8 0.879916 0.407960 0.413776
O O9 0.807743 0.559851 0.391429
O O10 0.097923 0.750000 0.489895
O O11 0.000000 0.856390 0.551585
O O12 0.719877 0.750000 0.102601
O O13 0.750000 0.858999 0.250000
#
# Coordination Sequence:
#
# PCOD8300561 Si02
#       5
#    16  16  16  16  16
#     4  10  22  40  59  85 125 165 205 252 306 371
#     4  11  23  37  59  92 125 163 211 258 319 386
#     4  11  21  39  63  89 123 161 207 263 321 374
#     4  10  22  39  60  90 124 159 204 257 314 378
#     4  10  20  38  63  89 117 157 210 260 307 360
#
# _framework density 20.457619000000001
#
# number of rings (size 3 to 8) (size 9 to 14) (size 15 to 20)
#    0.000    1.600    2.000    4.200    0.000    6.400 
#    0.000    0.000    0.000    0.600    0.000    0.000 
#    0.000    0.000    0.000    0.000    0.000    0.000 
#
# Total GULP energy -495746.020860 kJ/mol
# GULP energy per Si atom -12393.650521 kJ/mol
# Density = 2.041106 g / cm^3
# Si number density = 20.457619 Si / 1000 Ang^3
#
#
#
# Elastic Constant Matrix: (Units=GPa)
#
#
# Indices 1 2 3 4 5 6 
#
# 1 98.5907 23.6824 19.8036 0.0000 0.0000 0.0000
# 2 23.6824 105.8121 35.2655 0.0000 0.0000 0.0000
# 3 19.8036 35.2655 107.1182 0.0000 0.0000 0.0000
# 4 0.0000 0.0000 0.0000 22.3583 0.0000 0.0000
# 5 0.0000 0.0000 0.0000 0.0000 32.2476 0.0000
# 6 0.0000 0.0000 0.0000 0.0000 0.0000 15.7964
#
#
#
# Elastic Compliance Matrix: (Units=1/GPa)
#
#
# Indices 1 2 3 4 5 6 
#
# 1 0.010893 -0.001985 -0.001360 0.000000 0.000000 0.000000
# 2 -0.001985 0.010977 -0.003247 0.000000 0.000000 0.000000
# 3 -0.001360 -0.003247 0.010656 0.000000 0.000000 0.000000
# 4 0.000000 0.000000 0.000000 0.044726 0.000000 0.000000
# 5 0.000000 0.000000 0.000000 0.000000 0.031010 0.000000
# 6 0.000000 0.000000 0.000000 0.000000 0.000000 0.063306
#
#
# Mechanical properties :
#
#
# Convention : Reuss Voigt Hill
#
# Bulk Modulus (GPa) = 51.70123 52.11378 51.90750
# Shear Modulus (GPa) = 26.15074 29.59842 27.87458
#
# Velocity S-wave (km/s) = 3.57919 3.80783 3.69528
# Velocity P-wave (km/s) = 6.51215 6.69792 6.60569
#
# Compressibility (1/GPa) = 0.01934190
#
# Stress axis : x y z
#
# Youngs Moduli (GPa) = 91.80265 91.09910 93.84414
#
# Poissons Ratio (x) = 0.18079 0.12767
# Poissons Ratio (y) = 0.18219 0.30471
# Poissons Ratio (z) = 0.12489 0.29580
#
# Static dielectric constant tensor:
#      x y z
#    x 3.701700 0.000000 0.000000 
#    y 0.000000 3.822720 0.000000 
#    z 0.000000 0.000000 3.722130 
# 
# 
# High freq. dielectric constant tensor:
#      x y z
#    x 1.793540 0.000000 0.000000 
#    y 0.000000 1.802890 0.000000 
#    z 0.000000 0.000000 1.796720 
# 
# From -- ./inp_files/35088.got.cif
#   From: 2010.03.12/outbox.cif.g09.slc.cpg/sg74_18_cif.got.tgz:35088.got - 2010.04.16 15:46:19.
