data_PCOD8300491
_publ_section_title
;
Structure prediction by ZEFSAII (Michael W. Deem and Ramdas Pophale) SiO2 
 PCOD8300491
Probable space group: I M M A
;
_chemical_formula_sum "Si O2"
_cell_formula_units_Z 72
_cell_length_a 21.212509
_cell_length_b 14.744835
_cell_length_c 11.793863
_cell_angle_alpha 90.000000
_cell_angle_beta 90.000000
_cell_angle_gamma 90.000000
_cell_volume 3688.824853
_symmetry_space_group_name_H-M "I M M A"
_symmetry_group_IT_number 74
_symmetry_cell_setting 'orthorhombic'
loop_
_space_group_symop_operation_xyz
x,y,z
-x,1/2-y,z
x,-y,-z
-x,1/2+y,-z
-x,-y,-z
x,1/2+y,-z
-x,y,z
x,1/2-y,z
1/2+x,1/2+y,1/2+z
1/2-x,-y,1/2+z
1/2+x,1/2-y,1/2-z
1/2-x,y,1/2-z
1/2-x,1/2-y,1/2-z
1/2+x,y,1/2-z
1/2-x,1/2+y,1/2+z
1/2+x,-y,1/2+z
loop_
_atom_site_type_symbol
_atom_site_label
_atom_site_fract_x
_atom_site_fract_y
_atom_site_fract_z
Si Si1 0.342096 0.500000 0.500000
Si Si2 0.386790 0.146969 0.127689
Si Si3 0.754449 0.145843 0.119399
Si Si4 0.424774 0.992395 0.285992
Si Si5 0.428902 0.349031 0.890594
O O1 0.299277 0.583138 0.543076
O O2 0.388435 0.467289 0.599485
O O3 0.399277 0.250000 0.165727
O O4 0.316729 0.135552 0.076280
O O5 0.403898 0.090580 0.239746
O O6 0.429431 0.117057 0.021064
O O7 0.778893 0.250000 0.111463
O O8 0.750000 0.113847 0.250000
O O9 0.500000 0.989388 0.305474
O O10 0.397796 0.921228 0.193577
O O11 0.500000 0.338901 0.849646
O O12 0.395051 0.250000 0.881925
#
# Coordination Sequence:
#
# PCOD8300491 Si02
#       5
#     8  16  16  16  16
#     4  12  25  38  62  88 119 164 206 242 302 374
#     4  10  20  37  62  89 116 151 201 253 301 352
#     4  10  22  41  61  84 117 157 200 249 298 353
#     4  11  23  38  57  86 124 160 198 247 300 363
#     4   9  19  36  58  85 117 153 194 244 298 349
#
# _framework density 19.518412000000001
#
# number of rings (size 3 to 8) (size 9 to 14) (size 15 to 20)
#    0.000    1.778    2.222    1.667    3.111    4.000 
#    0.000    0.000    0.000    8.667    0.000    0.000 
#    0.000    0.000    0.000    0.000    0.000    0.000 
#
# Total GULP energy -446210.219279 kJ/mol
# GULP energy per Si atom -12394.728313 kJ/mol
# Density = 1.947399 g / cm^3
# Si number density = 19.518412 Si / 1000 Ang^3
#
#
#
# Elastic Constant Matrix: (Units=GPa)
#
#
# Indices 1 2 3 4 5 6 
#
# 1 79.1236 40.9307 42.0301 0.0000 0.0000 0.0000
# 2 40.9307 102.4592 69.9877 0.0000 0.0000 0.0000
# 3 42.0301 69.9877 124.9883 0.0000 0.0000 0.0000
# 4 0.0000 0.0000 0.0000 28.1125 0.0000 0.0000
# 5 0.0000 0.0000 0.0000 0.0000 37.1113 0.0000
# 6 0.0000 0.0000 0.0000 0.0000 0.0000 24.9089
#
#
#
# Elastic Compliance Matrix: (Units=1/GPa)
#
#
# Indices 1 2 3 4 5 6 
#
# 1 0.016609 -0.004567 -0.003028 0.000000 0.000000 0.000000
# 2 -0.004567 0.017061 -0.008018 0.000000 0.000000 0.000000
# 3 -0.003028 -0.008018 0.013509 0.000000 0.000000 0.000000
# 4 0.000000 0.000000 0.000000 0.035571 0.000000 0.000000
# 5 0.000000 0.000000 0.000000 0.000000 0.026946 0.000000
# 6 0.000000 0.000000 0.000000 0.000000 0.000000 0.040146
#
#
# Mechanical properties :
#
#
# Convention : Reuss Voigt Hill
#
# Bulk Modulus (GPa) = 62.68082 68.05203 65.36643
# Shear Modulus (GPa) = 26.82607 28.26803 27.54705
#
# Velocity S-wave (km/s) = 3.71131 3.80975 3.76085
# Velocity P-wave (km/s) = 7.10975 7.36841 7.24023
#
# Compressibility (1/GPa) = 0.01595384
#
# Stress axis : x y z
#
# Youngs Moduli (GPa) = 60.20703 58.61291 74.02692
#
# Poissons Ratio (x) = 0.26767 0.22416
# Poissons Ratio (y) = 0.27495 0.59353
# Poissons Ratio (z) = 0.18231 0.46994
#
# Static dielectric constant tensor:
#      x y z
#    x 3.628500 0.000000 0.000000 
#    y 0.000000 3.733140 0.000000 
#    z 0.000000 0.000000 3.478900 
# 
# 
# High freq. dielectric constant tensor:
#      x y z
#    x 1.756680 0.000000 0.000000 
#    y 0.000000 1.763260 0.000000 
#    z 0.000000 0.000000 1.751510 
# 
# From -- ./inp_files/24826.got.cif
#   From: 2010.03.12/outbox.cif.g09.slc.cpg/sg74_13_cif.got.tgz:24826.got - 2010.04.16 15:46:19.
