data_PCOD8300331
_publ_section_title
;
Structure prediction by ZEFSAII (Michael W. Deem and Ramdas Pophale) SiO2 
 PCOD8300331
Probable space group: I M M A
;
_chemical_formula_sum "Si O2"
_cell_formula_units_Z 88
_cell_length_a 19.728322
_cell_length_b 15.267367
_cell_length_c 14.146421
_cell_angle_alpha 90.000000
_cell_angle_beta 90.000000
_cell_angle_gamma 90.000000
_cell_volume 4260.895388
_symmetry_space_group_name_H-M "I M M A"
_symmetry_group_IT_number 74
_symmetry_cell_setting 'orthorhombic'
loop_
_space_group_symop_operation_xyz
x,y,z
-x,1/2-y,z
x,-y,-z
-x,1/2+y,-z
-x,-y,-z
x,1/2+y,-z
-x,y,z
x,1/2-y,z
1/2+x,1/2+y,1/2+z
1/2-x,-y,1/2+z
1/2+x,1/2-y,1/2-z
1/2-x,y,1/2-z
1/2-x,1/2-y,1/2-z
1/2+x,y,1/2-z
1/2-x,1/2+y,1/2+z
1/2+x,-y,1/2+z
loop_
_atom_site_type_symbol
_atom_site_label
_atom_site_fract_x
_atom_site_fract_y
_atom_site_fract_z
Si Si1 0.353242 0.848383 0.605057
Si Si2 0.500000 0.029396 0.716571
Si Si3 0.279202 0.848813 0.412918
Si Si4 0.500000 0.852965 0.101517
Si Si5 0.645279 0.519180 0.291006
Si Si6 0.139442 0.571744 0.423278
Si Si7 0.000000 0.155501 0.165887
O O1 0.328255 0.750000 0.633937
O O2 0.320526 0.876605 0.505914
O O3 0.434806 0.849983 0.597146
O O4 0.330170 0.920836 0.682381
O O5 0.500000 0.923819 0.742947
O O6 0.500000 0.097533 0.800215
O O7 0.428644 0.042378 0.660872
O O8 0.296960 0.750000 0.383564
O O9 0.299958 0.911648 0.326954
O O10 0.198706 0.856305 0.427953
O O11 0.500000 0.750000 0.119788
O O12 0.568514 0.881793 0.047527
O O13 0.636211 0.525016 0.178600
O O14 0.157710 0.500000 0.500000
O O15 0.000000 0.250000 0.220027
#
# Coordination Sequence:
#
# PCOD8300331 Si02
#       7
#    16   8  16   8  16  16   8
#     4   9  18  34  56  84 117 149 184 226 274 334
#     4   8  18  32  53  85 114 149 191 230 276 330
#     4  11  23  37  57  85 115 149 187 228 279 338
#     4  10  21  39  61  82 110 147 186 236 290 336
#     4  10  20  36  58  83 114 151 186 230 280 332
#     4  11  23  40  61  82 110 146 190 240 286 333
#     4   8  14  29  54  83 118 154 184 222 274 332
#
# _framework density 20.652936
#
# number of rings (size 3 to 8) (size 9 to 14) (size 15 to 20)
#    0.000    2.182    0.000    3.000    0.000    5.091 
#    0.000    5.455    0.000   16.364    0.000    0.000 
#    0.000    0.000    0.000    0.000    0.000    0.000 
#
# Total GULP energy -545172.961592 kJ/mol
# GULP energy per Si atom -12390.294582 kJ/mol
# Density = 2.060593 g / cm^3
# Si number density = 20.652936 Si / 1000 Ang^3
#
#
#
# Elastic Constant Matrix: (Units=GPa)
#
#
# Indices 1 2 3 4 5 6 
#
# 1 104.4228 40.9190 19.6458 0.0000 0.0000 0.0000
# 2 40.9190 118.2895 43.8343 0.0000 0.0000 0.0000
# 3 19.6458 43.8343 75.8687 0.0000 0.0000 0.0000
# 4 0.0000 0.0000 0.0000 14.6531 0.0000 0.0000
# 5 0.0000 0.0000 0.0000 0.0000 19.5467 0.0000
# 6 0.0000 0.0000 0.0000 0.0000 0.0000 32.8278
#
#
#
# Elastic Compliance Matrix: (Units=1/GPa)
#
#
# Indices 1 2 3 4 5 6 
#
# 1 0.011120 -0.003537 -0.000836 0.000000 0.000000 0.000000
# 2 -0.003537 0.011882 -0.005949 0.000000 0.000000 0.000000
# 3 -0.000836 -0.005949 0.016834 0.000000 0.000000 0.000000
# 4 0.000000 0.000000 0.000000 0.068245 0.000000 0.000000
# 5 0.000000 0.000000 0.000000 0.000000 0.051160 0.000000
# 6 0.000000 0.000000 0.000000 0.000000 0.000000 0.030462
#
#
# Mechanical properties :
#
#
# Convention : Reuss Voigt Hill
#
# Bulk Modulus (GPa) = 52.10455 56.37545 54.24000
# Shear Modulus (GPa) = 23.06875 26.35096 24.70985
#
# Velocity S-wave (km/s) = 3.34574 3.57584 3.46270
# Velocity P-wave (km/s) = 6.34103 6.66368 6.50436
#
# Compressibility (1/GPa) = 0.01919218
#
# Stress axis : x y z
#
# Youngs Moduli (GPa) = 89.93098 84.16223 59.40258
#
# Poissons Ratio (x) = 0.29766 0.04966
# Poissons Ratio (y) = 0.31806 0.35339
# Poissons Ratio (z) = 0.07518 0.50069
#
# Static dielectric constant tensor:
#      x y z
#    x 4.310580 0.000000 0.000000 
#    y 0.000000 3.883310 0.000000 
#    z 0.000000 0.000000 3.267920 
# 
# 
# High freq. dielectric constant tensor:
#      x y z
#    x 1.831430 0.000000 0.000000 
#    y 0.000000 1.818730 0.000000 
#    z 0.000000 0.000000 1.759590 
# 
# From -- ./inp_files/35209.got.cif
#   From: 2010.03.12/outbox.cif.g09.slc.cpg/sg74_18_cif.got.tgz:35209.got - 2010.04.16 15:46:19.
