data_PCOD8300726
_publ_section_title
;
Structure prediction by ZEFSAII (Michael W. Deem and Ramdas Pophale) SiO2 
 PCOD8300726
Probable space group: I M M A
;
_chemical_formula_sum "Si O2"
_cell_formula_units_Z 104
_cell_length_a 14.466538
_cell_length_b 30.310198
_cell_length_c 11.834419
_cell_angle_alpha 90.000000
_cell_angle_beta 90.000000
_cell_angle_gamma 90.000000
_cell_volume 5189.199016
_symmetry_space_group_name_H-M "I M M A"
_symmetry_group_IT_number 74
_symmetry_cell_setting 'orthorhombic'
loop_
_space_group_symop_operation_xyz
x,y,z
-x,1/2-y,z
x,-y,-z
-x,1/2+y,-z
-x,-y,-z
x,1/2+y,-z
-x,y,z
x,1/2-y,z
1/2+x,1/2+y,1/2+z
1/2-x,-y,1/2+z
1/2+x,1/2-y,1/2-z
1/2-x,y,1/2-z
1/2-x,1/2-y,1/2-z
1/2+x,y,1/2-z
1/2-x,1/2+y,1/2+z
1/2+x,-y,1/2+z
loop_
_atom_site_type_symbol
_atom_site_label
_atom_site_fract_x
_atom_site_fract_y
_atom_site_fract_z
Si Si1 0.392861 0.459116 0.253205
Si Si2 0.894937 0.799420 0.652076
Si Si3 0.250000 0.372418 0.750000
Si Si4 0.608942 0.367435 0.350962
Si Si5 0.605945 0.945832 0.238052
Si Si6 0.895978 0.426433 0.484758
Si Si7 0.731847 0.155215 0.992679
O O1 0.500000 0.457546 0.278973
O O2 0.351871 0.416550 0.318746
O O3 0.356717 0.507748 0.292899
O O4 0.373811 0.458518 0.119179
O O5 0.883735 0.750000 0.701538
O O6 0.868805 0.834760 0.747705
O O7 0.823683 0.803855 0.547027
O O8 0.000000 0.806994 0.609860
O O9 0.335833 0.404281 0.718264
O O10 0.233586 0.340470 0.643407
O O11 0.500000 0.367385 0.379695
O O12 0.664154 0.349490 0.459441
O O13 0.500000 0.937218 0.273488
O O14 0.615127 0.951454 0.102993
O O15 0.825338 0.387176 0.472625
O O16 0.000000 0.407272 0.472116
#
# Coordination Sequence:
#
# PCOD8300726 Si02
#       7
#    16  16   8  16  16  16  16
#     4   9  16  29  49  75 108 143 185 235 284 335
#     4  10  21  39  65  94 116 134 169 226 290 356
#     4  10  24  38  51  78 110 152 207 238 260 318
#     4  10  21  35  54  84 117 146 180 224 283 347
#     4   9  18  32  49  70 104 150 195 240 280 315
#     4   9  16  28  49  76 105 139 186 236 281 331
#     4  11  21  36  56  79 112 152 187 226 280 325
#
# _framework density 20.041627999999999
#
# number of rings (size 3 to 8) (size 9 to 14) (size 15 to 20)
#    0.000    2.308    1.538    1.385    0.000    5.538 
#    0.000    2.692    0.000    2.769    0.000    2.154 
#    0.000    0.000    0.000    0.000    0.000    0.000 
#
# Total GULP energy -644348.526769 kJ/mol
# GULP energy per Si atom -12391.317822 kJ/mol
# Density = 1.999601 g / cm^3
# Si number density = 20.041628 Si / 1000 Ang^3
#
#
#
# Elastic Constant Matrix: (Units=GPa)
#
#
# Indices 1 2 3 4 5 6 
#
# 1 82.2222 19.0555 28.6476 -0.0002 0.0002 -0.0001
# 2 19.0555 61.5373 20.0295 -0.0010 -0.0001 0.0003
# 3 28.6476 20.0295 67.8967 -0.0024 -0.0014 0.0014
# 4 -0.0002 -0.0010 -0.0024 11.5716 0.0000 0.0001
# 5 0.0002 -0.0001 -0.0014 0.0000 23.2285 0.0006
# 6 -0.0001 0.0003 0.0014 0.0001 0.0006 6.4452
#
#
#
# Elastic Compliance Matrix: (Units=1/GPa)
#
#
# Indices 1 2 3 4 5 6 
#
# 1 0.014681 -0.002799 -0.005369 -0.000001 0.000000 0.000002
# 2 -0.002799 0.018510 -0.004280 0.000001 0.000000 0.000000
# 3 -0.005369 -0.004280 0.018256 0.000003 0.000001 -0.000004
# 4 -0.000001 0.000001 0.000003 0.086419 0.000000 -0.000001
# 5 0.000000 0.000000 0.000001 0.000000 0.043051 -0.000004
# 6 0.000002 0.000000 -0.000004 -0.000001 -0.000004 0.155154
#
#
# Mechanical properties :
#
#
# Convention : Reuss Voigt Hill
#
# Bulk Modulus (GPa) = 37.66054 38.56904 38.11479
# Shear Modulus (GPa) = 13.52026 17.84398 15.68212
#
# Velocity S-wave (km/s) = 2.60014 2.98710 2.80031
# Velocity P-wave (km/s) = 5.27696 5.58420 5.43275
#
# Compressibility (1/GPa) = 0.02655299
#
# Stress axis : x y z
#
# Youngs Moduli (GPa) = 68.11339 54.02524 54.77654
#
# Poissons Ratio (x) = 0.15120 0.29409
# Poissons Ratio (y) = 0.19063 0.23442
# Poissons Ratio (z) = 0.36569 0.23120
#
# Static dielectric constant tensor:
#      x y z
#    x 3.702820 0.000000 0.000000 
#    y 0.000000 3.777420 0.000000 
#    z 0.000000 0.000000 3.444420 
# 
# 
# High freq. dielectric constant tensor:
#      x y z
#    x 1.787280 0.000000 0.000000 
#    y 0.000000 1.764770 0.000000 
#    z 0.000000 0.000000 1.750310 
# 
# From -- ./inp_files/21158.got.cif
#   From: 2010.03.12/outbox.cif.g09.slc.cpg/sg74_11_cif.got.tgz:21158.got - 2010.04.16 15:46:19.
