data_PCOD8300101
_publ_section_title
;
Structure prediction by ZEFSAII (Michael W. Deem and Ramdas Pophale) SiO2 
 PCOD8300101
Probable space group: I M M A
;
_chemical_formula_sum "Si O2"
_cell_formula_units_Z 112
_cell_length_a 14.704915
_cell_length_b 15.160966
_cell_length_c 25.870432
_cell_angle_alpha 90.000000
_cell_angle_beta 90.000000
_cell_angle_gamma 90.000000
_cell_volume 5767.572642
_symmetry_space_group_name_H-M "I M M A"
_symmetry_group_IT_number 74
_symmetry_cell_setting 'orthorhombic'
loop_
_space_group_symop_operation_xyz
x,y,z
-x,1/2-y,z
x,-y,-z
-x,1/2+y,-z
-x,-y,-z
x,1/2+y,-z
-x,y,z
x,1/2-y,z
1/2+x,1/2+y,1/2+z
1/2-x,-y,1/2+z
1/2+x,1/2-y,1/2-z
1/2-x,y,1/2-z
1/2-x,1/2-y,1/2-z
1/2+x,y,1/2-z
1/2-x,1/2+y,1/2+z
1/2+x,-y,1/2+z
loop_
_atom_site_type_symbol
_atom_site_label
_atom_site_fract_x
_atom_site_fract_y
_atom_site_fract_z
Si Si1 0.789713 0.848197 0.090563
Si Si2 0.146904 0.651300 0.877054
Si Si3 0.100957 0.472230 0.834109
Si Si4 0.895002 0.896336 0.991639
Si Si5 0.601907 0.851318 0.131368
Si Si6 0.807659 0.846092 0.698033
Si Si7 0.395181 0.020565 0.778990
O O1 0.805378 0.750000 0.113830
O O2 0.836217 0.921152 0.126033
O O3 0.832854 0.849444 0.034064
O O4 0.680059 0.866670 0.087895
O O5 0.106314 0.750000 0.866788
O O6 0.088380 0.575162 0.849566
O O7 0.247831 0.646054 0.853727
O O8 0.149306 0.632189 0.937864
O O9 0.150340 0.466838 0.777841
O O10 0.000000 0.430034 0.835641
O O11 0.000000 0.864374 0.995182
O O12 0.889752 0.000000 0.000000
O O13 0.500000 0.882514 0.112885
O O14 0.596745 0.750000 0.147915
O O15 0.636278 0.904147 0.181708
O O16 0.856440 0.750000 0.698466
O O17 0.750000 0.856425 0.750000
O O18 0.879626 0.924635 0.696186
O O19 0.500000 0.029647 0.766792
#
# Coordination Sequence:
#
# PCOD8300101 Si02
#       7
#    16  16  16  16  16  16  16
#     4  11  23  38  60  84 111 153 194 235 288 340
#     4  11  22  36  56  79 110 153 191 228 278 330
#     4  11  22  35  52  83 119 152 195 236 276 338
#     4  11  23  39  58  84 118 152 187 231 282 339
#     4   9  20  39  61  86 113 144 189 240 291 347
#     4  10  20  35  55  81 111 147 194 240 278 331
#     4  10  21  35  56  82 114 153 188 237 293 336
#
# _framework density 19.418914999999998
#
# number of rings (size 3 to 8) (size 9 to 14) (size 15 to 20)
#    0.000    1.571    2.857    2.143    0.000    3.714 
#    0.000    4.286    0.000    1.286    0.000    2.000 
#    0.000    0.000    0.000    0.000    0.000    0.000 
#
# Total GULP energy -694004.221971 kJ/mol
# GULP energy per Si atom -12392.932535 kJ/mol
# Density = 1.937472 g / cm^3
# Si number density = 19.418915 Si / 1000 Ang^3
#
#
#
# Elastic Constant Matrix: (Units=GPa)
#
#
# Indices 1 2 3 4 5 6 
#
# 1 59.0318 26.1558 49.3644 0.0000 0.0000 0.0000
# 2 26.1558 81.7746 22.8113 0.0000 0.0000 0.0000
# 3 49.3644 22.8113 116.8782 0.0000 0.0000 0.0000
# 4 0.0000 0.0000 0.0000 25.2684 0.0000 0.0000
# 5 0.0000 0.0000 0.0000 0.0000 25.2061 0.0000
# 6 0.0000 0.0000 0.0000 0.0000 0.0000 24.8601
#
#
#
# Elastic Compliance Matrix: (Units=1/GPa)
#
#
# Indices 1 2 3 4 5 6 
#
# 1 0.028858 -0.006166 -0.010985 0.000000 0.000000 0.000000
# 2 -0.006166 0.014250 -0.000177 0.000000 0.000000 0.000000
# 3 -0.010985 -0.000177 0.013230 0.000000 0.000000 0.000000
# 4 0.000000 0.000000 0.000000 0.039575 0.000000 0.000000
# 5 0.000000 0.000000 0.000000 0.000000 0.039673 0.000000
# 6 0.000000 0.000000 0.000000 0.000000 0.000000 0.040225
#
#
# Mechanical properties :
#
#
# Convention : Reuss Voigt Hill
#
# Bulk Modulus (GPa) = 46.12025 50.48306 48.30166
# Shear Modulus (GPa) = 22.96790 25.69046 24.32918
#
# Velocity S-wave (km/s) = 3.44286 3.64120 3.54342
# Velocity P-wave (km/s) = 6.29334 6.61295 6.45512
#
# Compressibility (1/GPa) = 0.02168245
#
# Stress axis : x y z
#
# Youngs Moduli (GPa) = 34.65232 70.17384 75.58542
#
# Poissons Ratio (x) = 0.43269 0.83031
# Poissons Ratio (y) = 0.21367 0.01338
# Poissons Ratio (z) = 0.38066 0.01242
#
# Static dielectric constant tensor:
#      x y z
#    x 3.543810 0.000000 0.000000 
#    y 0.000000 3.805380 0.000000 
#    z 0.000000 0.000000 3.632080 
# 
# 
# High freq. dielectric constant tensor:
#      x y z
#    x 1.743280 0.000000 0.000000 
#    y 0.000000 1.771430 0.000000 
#    z 0.000000 0.000000 1.743460 
# 
# From -- ./inp_files/67203.got.cif
#   From: 2010.03.12/outbox.cif.g09.slc.cpg/sg74_34_cif.got.tgz:67203.got - 2010.04.16 15:46:19.
