data_PCOD8300099
_publ_section_title
;
Structure prediction by ZEFSAII (Michael W. Deem and Ramdas Pophale) SiO2 
 PCOD8300099
Probable space group: I M M A
;
_chemical_formula_sum "Si O2"
_cell_formula_units_Z 96
_cell_length_a 8.698909
_cell_length_b 23.245189
_cell_length_c 24.075895
_cell_angle_alpha 90.000000
_cell_angle_beta 90.000000
_cell_angle_gamma 90.000000
_cell_volume 4868.333371
_symmetry_space_group_name_H-M "I M M A"
_symmetry_group_IT_number 74
_symmetry_cell_setting 'orthorhombic'
loop_
_space_group_symop_operation_xyz
x,y,z
-x,1/2-y,z
x,-y,-z
-x,1/2+y,-z
-x,-y,-z
x,1/2+y,-z
-x,y,z
x,1/2-y,z
1/2+x,1/2+y,1/2+z
1/2-x,-y,1/2+z
1/2+x,1/2-y,1/2-z
1/2-x,y,1/2-z
1/2-x,1/2-y,1/2-z
1/2+x,y,1/2-z
1/2-x,1/2+y,1/2+z
1/2+x,-y,1/2+z
loop_
_atom_site_type_symbol
_atom_site_label
_atom_site_fract_x
_atom_site_fract_y
_atom_site_fract_z
Si Si1 0.325337 0.814558 0.382388
Si Si2 0.179304 0.111324 0.091843
Si Si3 0.678142 0.419830 0.690504
Si Si4 0.318716 0.184308 0.191154
Si Si5 0.820162 0.512595 0.407550
Si Si6 0.821943 0.878824 0.479048
O O1 0.500000 0.820994 0.404141
O O2 0.286772 0.750000 0.363741
O O3 0.299616 0.854003 0.328532
O O4 0.212252 0.832223 0.431806
O O5 0.262940 0.142423 0.142649
O O6 0.225380 0.045174 0.085215
O O7 0.000000 0.117709 0.102250
O O8 0.225979 0.139727 0.033228
O O9 0.500000 0.438224 0.690097
O O10 0.750000 0.427619 0.750000
O O11 0.774862 0.461157 0.651207
O O12 0.500000 0.179489 0.195534
O O13 0.266872 0.250000 0.178259
O O14 0.250000 0.163720 0.250000
O O15 0.777284 0.557377 0.456740
O O16 0.000000 0.498168 0.408552
O O17 0.000000 0.876632 0.494756
#
# Coordination Sequence:
#
# PCOD8300099 Si02
#       6
#    16  16  16  16  16  16
#     4   9  19  36  56  79 110 148 188 232 281 331
#     4  12  24  37  59  88 115 147 186 224 268 329
#     4  10  20  35  55  80 111 147 188 232 280 332
#     4  10  22  42  65  87 114 146 181 225 275 325
#     4  10  21  38  58  81 112 147 185 231 281 330
#     4  10  21  37  57  82 113 148 185 230 281 329
#
# _framework density 19.719273999999999
#
# number of rings (size 3 to 8) (size 9 to 14) (size 15 to 20)
#    0.000    1.833    0.000    4.000    0.000    7.667 
#    0.000    3.333    0.000    0.000    0.000    0.000 
#    0.000    0.000    0.000    0.000    0.000    0.000 
#
# Total GULP energy -595311.902912 kJ/mol
# GULP energy per Si atom -12402.331311 kJ/mol
# Density = 1.967439 g / cm^3
# Si number density = 19.719274 Si / 1000 Ang^3
#
#
#
# Elastic Constant Matrix: (Units=GPa)
#
#
# Indices 1 2 3 4 5 6 
#
# 1 69.7688 10.1906 28.3924 0.0000 0.0000 0.0000
# 2 10.1906 29.4992 1.3291 0.0000 0.0000 0.0000
# 3 28.3924 1.3291 106.3355 0.0000 0.0000 0.0000
# 4 0.0000 0.0000 0.0000 17.9464 0.0000 0.0000
# 5 0.0000 0.0000 0.0000 0.0000 36.1223 0.0000
# 6 0.0000 0.0000 0.0000 0.0000 0.0000 28.9980
#
#
#
# Elastic Compliance Matrix: (Units=1/GPa)
#
#
# Indices 1 2 3 4 5 6 
#
# 1 0.016976 -0.005663 -0.004462 0.000000 0.000000 0.000000
# 2 -0.005663 0.035808 0.001065 0.000000 0.000000 0.000000
# 3 -0.004462 0.001065 0.010582 0.000000 0.000000 0.000000
# 4 0.000000 0.000000 0.000000 0.055722 0.000000 0.000000
# 5 0.000000 0.000000 0.000000 0.000000 0.027684 0.000000
# 6 0.000000 0.000000 0.000000 0.000000 0.000000 0.034485
#
#
# Mechanical properties :
#
#
# Convention : Reuss Voigt Hill
#
# Bulk Modulus (GPa) = 22.10212 31.71420 26.90816
# Shear Modulus (GPa) = 23.31443 27.65943 25.48693
#
# Velocity S-wave (km/s) = 3.44221 3.74927 3.59902
# Velocity P-wave (km/s) = 5.19915 5.90428 5.56290
#
# Compressibility (1/GPa) = 0.04524452
#
# Stress axis : x y z
#
# Youngs Moduli (GPa) = 58.90651 27.92695 94.49776
#
# Poissons Ratio (x) = 0.15816 0.42164
# Poissons Ratio (y) = 0.33361 -0.10060
# Poissons Ratio (z) = 0.26284 -0.02973
#
# Static dielectric constant tensor:
#      x y z
#    x 3.702230 0.000000 0.000000 
#    y 0.000000 3.630090 0.000000 
#    z 0.000000 0.000000 3.541880 
# 
# 
# High freq. dielectric constant tensor:
#      x y z
#    x 1.778160 0.000000 0.000000 
#    y 0.000000 1.763930 0.000000 
#    z 0.000000 0.000000 1.774290 
# 
# From -- ./inp_files/57290.got.cif
#   From: 2010.03.12/outbox.cif.g09.slc.cpg/sg74_29_cif.got.tgz:57290.got - 2010.04.16 15:46:19.
