data_PCOD8300931
_publ_section_title
;
Structure prediction by ZEFSAII (Michael W. Deem and Ramdas Pophale) SiO2 
 PCOD8300931
Probable space group: I M M A
;
_chemical_formula_sum "Si O2"
_cell_formula_units_Z 72
_cell_length_a 8.667991
_cell_length_b 15.412025
_cell_length_c 26.681457
_cell_angle_alpha 90.000000
_cell_angle_beta 90.000000
_cell_angle_gamma 90.000000
_cell_volume 3564.410366
_symmetry_space_group_name_H-M "I M M A"
_symmetry_group_IT_number 74
_symmetry_cell_setting 'orthorhombic'
loop_
_space_group_symop_operation_xyz
x,y,z
-x,1/2-y,z
x,-y,-z
-x,1/2+y,-z
-x,-y,-z
x,1/2+y,-z
-x,y,z
x,1/2-y,z
1/2+x,1/2+y,1/2+z
1/2-x,-y,1/2+z
1/2+x,1/2-y,1/2-z
1/2-x,y,1/2-z
1/2-x,1/2-y,1/2-z
1/2+x,y,1/2-z
1/2-x,1/2+y,1/2+z
1/2+x,-y,1/2+z
loop_
_atom_site_type_symbol
_atom_site_label
_atom_site_fract_x
_atom_site_fract_y
_atom_site_fract_z
Si Si1 0.180907 0.250000 0.695103
Si Si2 0.819124 0.407344 0.865168
Si Si3 0.320169 0.408542 0.974029
Si Si4 0.316268 0.750000 0.534142
Si Si5 0.818434 0.925874 0.803446
Si Si6 0.683372 0.250000 0.351338
O O1 0.250000 0.250000 0.750000
O O2 0.230711 0.165284 0.665406
O O3 0.000000 0.250000 0.700824
O O4 0.771752 0.404528 0.922587
O O5 0.771645 0.500474 0.843024
O O6 0.000000 0.389573 0.860295
O O7 0.500000 0.392294 0.963707
O O8 0.289140 0.500000 0.000000
O O9 0.253748 0.335285 0.009798
O O10 0.500000 0.750000 0.528365
O O11 0.261197 0.750000 0.591528
O O12 0.750000 0.950538 0.750000
O O13 0.749726 0.834777 0.823336
O O14 0.000000 0.919288 0.797686
O O15 0.500000 0.250000 0.349786
#
# Coordination Sequence:
#
# PCOD8300931 Si02
#       6
#     8  16  16   8  16   8
#     4  12  25  42  63  88 120 157 199 248 303 361
#     4  11  23  40  62  88 118 156 201 246 295 353
#     4  11  24  41  61  88 123 159 197 246 303 361
#     4  11  22  39  64  88 116 156 201 248 295 350
#     4  10  21  37  59  86 117 151 190 235 283 339
#     4   9  19  37  59  86 117 151 191 234 281 337
#
# _framework density 20.199694000000001
#
# number of rings (size 3 to 8) (size 9 to 14) (size 15 to 20)
#    0.000    1.333    0.000    5.667    0.000    7.111 
#    0.000    2.222    0.000    0.000    0.000    0.000 
#    0.000    0.000    0.000    0.000    0.000    0.000 
#
# Total GULP energy -446600.559703 kJ/mol
# GULP energy per Si atom -12405.571103 kJ/mol
# Density = 2.015372 g / cm^3
# Si number density = 20.199694 Si / 1000 Ang^3
#
#
#
# Elastic Constant Matrix: (Units=GPa)
#
#
# Indices 1 2 3 4 5 6 
#
# 1 76.4355 49.9526 29.1280 0.0000 0.0000 0.0000
# 2 49.9526 116.8419 25.9788 0.0000 0.0000 0.0000
# 3 29.1280 25.9788 116.2575 0.0000 0.0000 0.0000
# 4 0.0000 0.0000 0.0000 48.5877 0.0000 0.0000
# 5 0.0000 0.0000 0.0000 0.0000 34.1280 0.0000
# 6 0.0000 0.0000 0.0000 0.0000 0.0000 -50.1960
#
#
#
# Elastic Compliance Matrix: (Units=1/GPa)
#
#
# Indices 1 2 3 4 5 6 
#
# 1 0.019179 -0.007504 -0.003128 0.000000 0.000000 0.000000
# 2 -0.007504 0.011942 -0.000788 0.000000 0.000000 0.000000
# 3 -0.003128 -0.000788 0.009562 0.000000 0.000000 0.000000
# 4 0.000000 0.000000 0.000000 0.020581 0.000000 0.000000
# 5 0.000000 0.000000 0.000000 0.000000 0.029301 0.000000
# 6 0.000000 0.000000 0.000000 0.000000 0.000000 -0.019922
#
#
# Mechanical properties :
#
#
# Convention : Reuss Voigt Hill
#
# Bulk Modulus (GPa) = 56.05056 57.73930 56.89493
# Shear Modulus (GPa) = 50.28543 20.13564 35.21054
#
# Velocity S-wave (km/s) = 4.99482 3.16068 4.17960
# Velocity P-wave (km/s) = 7.81490 6.47813 7.17771
#
# Compressibility (1/GPa) = 0.01784103
#
# Stress axis : x y z
#
# Youngs Moduli (GPa) = 52.13996 83.73812 104.58494
#
# Poissons Ratio (x) = 0.62837 0.32719
# Poissons Ratio (y) = 0.39126 0.08246
# Poissons Ratio (z) = 0.16312 0.06602
#
# Static dielectric constant tensor:
#      x y z
#    x 3.656050 0.000000 0.000000 
#    y 0.000000 4.047150 0.000000 
#    z 0.000000 0.000000 3.752150 
# 
# 
# High freq. dielectric constant tensor:
#      x y z
#    x 1.785290 0.000000 0.000000 
#    y 0.000000 1.811310 0.000000 
#    z 0.000000 0.000000 1.807620 
# 
# From -- ./inp_files/63658.got.cif
#   From: 2010.03.12/outbox.cif.g09.slc.cpg/sg74_32_cif.got.tgz:63658.got - 2010.04.16 15:46:19.
