data_PCOD8300209
_publ_section_title
;
Structure prediction by ZEFSAII (Michael W. Deem and Ramdas Pophale) SiO2 
 PCOD8300209
Probable space group: I M M A
;
_chemical_formula_sum "Si O2"
_cell_formula_units_Z 80
_cell_length_a 18.055901
_cell_length_b 16.849654
_cell_length_c 13.888485
_cell_angle_alpha 90.000000
_cell_angle_beta 90.000000
_cell_angle_gamma 90.000000
_cell_volume 4225.372741
_symmetry_space_group_name_H-M "I M M A"
_symmetry_group_IT_number 74
_symmetry_cell_setting 'orthorhombic'
loop_
_space_group_symop_operation_xyz
x,y,z
-x,1/2-y,z
x,-y,-z
-x,1/2+y,-z
-x,-y,-z
x,1/2+y,-z
-x,y,z
x,1/2-y,z
1/2+x,1/2+y,1/2+z
1/2-x,-y,1/2+z
1/2+x,1/2-y,1/2-z
1/2-x,y,1/2-z
1/2-x,1/2-y,1/2-z
1/2+x,y,1/2-z
1/2-x,1/2+y,1/2+z
1/2+x,-y,1/2+z
loop_
_atom_site_type_symbol
_atom_site_label
_atom_site_fract_x
_atom_site_fract_y
_atom_site_fract_z
Si Si1 0.838480 0.657498 0.638359
Si Si2 0.414714 0.843806 0.664084
Si Si3 0.080282 0.156946 0.552662
Si Si4 0.203274 0.409708 0.031407
Si Si5 0.224502 0.343146 0.649157
O O1 0.815699 0.750000 0.640327
O O2 0.872356 0.629399 0.739187
O O3 0.901048 0.641097 0.558679
O O4 0.764743 0.608042 0.613300
O O5 0.500000 0.870896 0.669514
O O6 0.408563 0.750000 0.650045
O O7 0.376942 0.887380 0.573524
O O8 0.076478 0.250000 0.572098
O O9 0.144530 0.119321 0.619934
O O10 0.000000 0.118248 0.575974
O O11 0.205987 0.500000 0.000000
O O12 0.216769 0.357978 0.935534
O O13 0.215476 0.250000 0.662593
O O14 0.250000 0.382407 0.750000
#
# Coordination Sequence:
#
# PCOD8300209 Si02
#       5
#    16  16  16  16  16
#     4   9  17  32  56  82 105 131 171 225 276 319
#     4  10  20  35  58  86 111 136 172 222 277 327
#     4   8  13  24  46  75 100 121 154 207 267 314
#     4  11  22  34  52  75 107 145 177 210 257 320
#     4   9  18  33  51  69  94 132 179 223 255 294
#
# _framework density 18.933240999999999
#
# number of rings (size 3 to 8) (size 9 to 14) (size 15 to 20)
#    0.000    2.600    0.000    4.200    0.000    6.000 
#    0.000    1.000    0.000   23.400    0.000    0.000 
#    0.000    0.000    0.000    0.000    0.000    0.000 
#
# Total GULP energy -495850.358635 kJ/mol
# GULP energy per Si atom -12396.258966 kJ/mol
# Density = 1.889015 g / cm^3
# Si number density = 18.933241 Si / 1000 Ang^3
#
#
#
# Elastic Constant Matrix: (Units=GPa)
#
#
# Indices 1 2 3 4 5 6 
#
# 1 134.0020 38.3466 86.6692 0.0000 0.0000 0.0000
# 2 38.3466 34.5322 20.2536 0.0000 0.0000 0.0000
# 3 86.6692 20.2536 135.8420 0.0000 0.0000 0.0000
# 4 0.0000 0.0000 0.0000 9.1750 0.0000 0.0000
# 5 0.0000 0.0000 0.0000 0.0000 23.7781 0.0000
# 6 0.0000 0.0000 0.0000 0.0000 0.0000 9.7819
#
#
#
# Elastic Compliance Matrix: (Units=1/GPa)
#
#
# Indices 1 2 3 4 5 6 
#
# 1 0.017184 -0.013864 -0.008897 0.000000 0.000000 0.000000
# 2 -0.013864 0.042919 0.002447 0.000000 0.000000 0.000000
# 3 -0.008897 0.002447 0.012673 0.000000 0.000000 0.000000
# 4 0.000000 0.000000 0.000000 0.108992 0.000000 0.000000
# 5 0.000000 0.000000 0.000000 0.000000 0.042056 0.000000
# 6 0.000000 0.000000 0.000000 0.000000 0.000000 0.102230
#
#
# Mechanical properties :
#
#
# Convention : Reuss Voigt Hill
#
# Bulk Modulus (GPa) = 31.10656 66.10167 48.60411
# Shear Modulus (GPa) = 13.24859 19.15410 16.20134
#
# Velocity S-wave (km/s) = 2.64815 3.18412 2.92842
# Velocity P-wave (km/s) = 5.08090 6.96469 6.09600
#
# Compressibility (1/GPa) = 0.03214756
#
# Stress axis : x y z
#
# Youngs Moduli (GPa) = 58.19294 23.29946 78.90843
#
# Poissons Ratio (x) = 0.32303 0.70202
# Poissons Ratio (y) = 0.80681 -0.19305
# Poissons Ratio (z) = 0.51772 -0.05700
#
# Static dielectric constant tensor:
#      x y z
#    x 3.815220 0.000000 0.000000 
#    y 0.000000 3.032940 0.000000 
#    z 0.000000 0.000000 3.799920 
# 
# 
# High freq. dielectric constant tensor:
#      x y z
#    x 1.738470 0.000000 0.000000 
#    y 0.000000 1.693670 0.000000 
#    z 0.000000 0.000000 1.735580 
# 
# From -- ./inp_files/33973.got.cif
#   From: 2010.03.12/outbox.cif.g09.slc.cpg/sg74_17_cif.got.tgz:33973.got - 2010.04.16 15:46:19.
