data_PCOD8300544
_publ_section_title
;
Structure prediction by ZEFSAII (Michael W. Deem and Ramdas Pophale) SiO2 
 PCOD8300544
Probable space group: I M M A
;
_chemical_formula_sum "Si O2"
_cell_formula_units_Z 56
_cell_length_a 14.300866
_cell_length_b 8.460117
_cell_length_c 21.170384
_cell_angle_alpha 90.000000
_cell_angle_beta 90.000000
_cell_angle_gamma 90.000000
_cell_volume 2561.341240
_symmetry_space_group_name_H-M "I M M A"
_symmetry_group_IT_number 74
_symmetry_cell_setting 'orthorhombic'
loop_
_space_group_symop_operation_xyz
x,y,z
-x,1/2-y,z
x,-y,-z
-x,1/2+y,-z
-x,-y,-z
x,1/2+y,-z
-x,y,z
x,1/2-y,z
1/2+x,1/2+y,1/2+z
1/2-x,-y,1/2+z
1/2+x,1/2-y,1/2-z
1/2-x,y,1/2-z
1/2-x,1/2-y,1/2-z
1/2+x,y,1/2-z
1/2-x,1/2+y,1/2+z
1/2+x,-y,1/2+z
loop_
_atom_site_type_symbol
_atom_site_label
_atom_site_fract_x
_atom_site_fract_y
_atom_site_fract_z
Si Si1 0.305797 0.435820 0.567095
Si Si2 0.000000 0.561532 0.431829
Si Si3 0.154209 0.065556 0.347637
Si Si4 0.000000 0.062187 0.108486
Si Si5 0.500000 0.438271 0.248346
O O1 0.264208 0.500000 0.500000
O O2 0.302107 0.250000 0.563619
O O3 0.253107 0.488723 0.632280
O O4 0.411013 0.496966 0.572024
O O5 0.000000 0.500000 0.500000
O O6 0.091324 0.478467 0.406173
O O7 0.000000 0.750000 0.422530
O O8 0.172851 0.250000 0.339471
O O9 0.096416 0.000435 0.286038
O O10 0.000000 0.998775 0.180670
O O11 0.000000 0.250000 0.107387
O O12 0.500000 0.250000 0.242914
#
# Coordination Sequence:
#
# PCOD8300544 Si02
#       5
#    16   8  16   8   8
#     4  12  25  42  62  90 122 159 202 252 306 359
#     4  11  20  32  51  81 118 157 195 242 298 356
#     4  10  20  38  61  88 119 157 199 244 293 356
#     4  11  23  43  66  89 118 160 205 251 297 355
#     4   8  19  39  65  92 122 159 202 241 292 359
#
# _framework density 21.863544000000001
#
# number of rings (size 3 to 8) (size 9 to 14) (size 15 to 20)
#    0.000    1.429    0.000    7.286    0.000    1.143 
#    0.000   14.286    0.000    0.000    0.000    0.000 
#    0.000    0.000    0.000    0.000    0.000    0.000 
#
# Total GULP energy -346870.751761 kJ/mol
# GULP energy per Si atom -12388.241134 kJ/mol
# Density = 2.181378 g / cm^3
# Si number density = 21.863544 Si / 1000 Ang^3
#
#
#
# Elastic Constant Matrix: (Units=GPa)
#
#
# Indices 1 2 3 4 5 6 
#
# 1 96.8313 24.0514 5.3705 0.0000 0.0000 0.0000
# 2 24.0514 107.8452 23.1049 0.0000 0.0000 0.0000
# 3 5.3705 23.1049 96.9584 0.0000 0.0000 0.0000
# 4 0.0000 0.0000 0.0000 23.7696 0.0000 0.0000
# 5 0.0000 0.0000 0.0000 0.0000 18.2460 0.0000
# 6 0.0000 0.0000 0.0000 0.0000 0.0000 41.2083
#
#
#
# Elastic Compliance Matrix: (Units=1/GPa)
#
#
# Indices 1 2 3 4 5 6 
#
# 1 0.010933 -0.002433 -0.000026 0.000000 0.000000 0.000000
# 2 -0.002433 0.010313 -0.002323 0.000000 0.000000 0.000000
# 3 -0.000026 -0.002323 0.010869 0.000000 0.000000 0.000000
# 4 0.000000 0.000000 0.000000 0.042071 0.000000 0.000000
# 5 0.000000 0.000000 0.000000 0.000000 0.054807 0.000000
# 6 0.000000 0.000000 0.000000 0.000000 0.000000 0.024267
#
#
# Mechanical properties :
#
#
# Convention : Reuss Voigt Hill
#
# Bulk Modulus (GPa) = 44.34263 45.18760 44.76511
# Shear Modulus (GPa) = 29.35339 33.25199 31.30269
#
# Velocity S-wave (km/s) = 3.66809 3.90409 3.78793
# Velocity P-wave (km/s) = 6.18590 6.40589 6.29686
#
# Compressibility (1/GPa) = 0.02255166
#
# Stress axis : x y z
#
# Youngs Moduli (GPa) = 91.46692 96.96775 92.00783
#
# Poissons Ratio (x) = 0.23589 0.00238
# Poissons Ratio (y) = 0.22251 0.21371
# Poissons Ratio (z) = 0.00237 0.22523
#
# Static dielectric constant tensor:
#      x y z
#    x 4.027800 0.000000 0.000000 
#    y 0.000000 3.948360 0.000000 
#    z 0.000000 0.000000 4.160020 
# 
# 
# High freq. dielectric constant tensor:
#      x y z
#    x 1.869280 0.000000 0.000000 
#    y 0.000000 1.847010 0.000000 
#    z 0.000000 0.000000 1.864920 
# 
# From -- ./inp_files/51387.got.cif
#   From: 2010.03.12/outbox.cif.g09.slc.cpg/sg74_26_cif.got.tgz:51387.got - 2010.04.16 15:46:19.
