data_PCOD8300728
_publ_section_title
;
Structure prediction by ZEFSAII (Michael W. Deem and Ramdas Pophale) SiO2 
 PCOD8300728
Probable space group: I M M A
;
_chemical_formula_sum "Si O2"
_cell_formula_units_Z 104
_cell_length_a 9.235092
_cell_length_b 26.702362
_cell_length_c 21.574788
_cell_angle_alpha 90.000000
_cell_angle_beta 90.000000
_cell_angle_gamma 90.000000
_cell_volume 5320.316177
_symmetry_space_group_name_H-M "I M M A"
_symmetry_group_IT_number 74
_symmetry_cell_setting 'orthorhombic'
loop_
_space_group_symop_operation_xyz
x,y,z
-x,1/2-y,z
x,-y,-z
-x,1/2+y,-z
-x,-y,-z
x,1/2+y,-z
-x,y,z
x,1/2-y,z
1/2+x,1/2+y,1/2+z
1/2-x,-y,1/2+z
1/2+x,1/2-y,1/2-z
1/2-x,y,1/2-z
1/2-x,1/2-y,1/2-z
1/2+x,y,1/2-z
1/2-x,1/2+y,1/2+z
1/2+x,-y,1/2+z
loop_
_atom_site_type_symbol
_atom_site_label
_atom_site_fract_x
_atom_site_fract_y
_atom_site_fract_z
Si Si1 0.161186 0.897485 0.056821
Si Si2 0.238753 0.000000 0.500000
Si Si3 0.329946 0.060576 0.689383
Si Si4 0.337720 0.193380 0.141667
Si Si5 0.328735 0.107643 0.310367
Si Si6 0.669684 0.194535 0.998581
Si Si7 0.838629 0.028391 0.369096
O O1 0.192728 0.904115 0.129957
O O2 0.264124 0.852632 0.036565
O O3 0.000000 0.877748 0.046384
O O4 0.171459 0.950108 0.018981
O O5 0.141760 0.011927 0.440298
O O6 0.500000 0.051660 0.702779
O O7 0.250000 0.084003 0.750000
O O8 0.252044 0.008500 0.674409
O O9 0.500000 0.170890 0.151991
O O10 0.335909 0.250000 0.164577
O O11 0.217438 0.165341 0.182624
O O12 0.292113 0.189282 0.070413
O O13 0.500000 0.101082 0.307893
O O14 0.250000 0.084657 0.250000
O O15 0.255761 0.079310 0.368784
O O16 0.500000 0.191482 0.987588
O O17 0.724413 0.250000 0.975611
O O18 0.000000 0.035166 0.341654
#
# Coordination Sequence:
#
# PCOD8300728 Si02
#       7
#    16   8  16  16  16  16  16
#     4  10  21  35  55  83 115 148 181 225 276 326
#     4  10  22  36  56  86 118 148 180 220 274 334
#     4  10  21  37  55  78 108 142 180 220 266 319
#     4   9  19  37  58  79 105 137 175 222 272 321
#     4  12  25  39  55  76 104 141 183 226 272 320
#     4   9  19  36  58  84 114 147 183 225 274 328
#     4  11  22  37  56  79 108 142 180 219 263 318
#
# _framework density 19.547711
#
# number of rings (size 3 to 8) (size 9 to 14) (size 15 to 20)
#    0.000    1.846    0.000    5.077    0.000    9.538 
#    0.000    1.538    0.000    0.462    0.000    0.000 
#    0.000    0.000    0.000    0.000    0.000    0.000 
#
# Total GULP energy -644429.993820 kJ/mol
# GULP energy per Si atom -12392.884497 kJ/mol
# Density = 1.950322 g / cm^3
# Si number density = 19.547711 Si / 1000 Ang^3
#
#
#
# Elastic Constant Matrix: (Units=GPa)
#
#
# Indices 1 2 3 4 5 6 
#
# 1 141.6214 48.4404 47.1741 0.0000 0.0000 0.0000
# 2 48.4404 102.1439 36.5321 0.0000 0.0000 0.0000
# 3 47.1741 36.5321 77.3571 -0.0001 0.0000 0.0000
# 4 0.0000 0.0000 -0.0001 18.6901 0.0000 0.0000
# 5 0.0000 0.0000 0.0000 0.0000 25.0719 0.0000
# 6 0.0000 0.0000 0.0000 0.0000 0.0000 27.3621
#
#
#
# Elastic Compliance Matrix: (Units=1/GPa)
#
#
# Indices 1 2 3 4 5 6 
#
# 1 0.009543 -0.002941 -0.004431 0.000000 0.000000 0.000000
# 2 -0.002941 0.012686 -0.004198 0.000000 0.000000 0.000000
# 3 -0.004431 -0.004198 0.017611 0.000000 0.000000 0.000000
# 4 0.000000 0.000000 0.000000 0.053504 0.000000 0.000000
# 5 0.000000 0.000000 0.000000 0.000000 0.039885 0.000000
# 6 0.000000 0.000000 0.000000 0.000000 0.000000 0.036547
#
#
# Mechanical properties :
#
#
# Convention : Reuss Voigt Hill
#
# Bulk Modulus (GPa) = 59.87320 65.04619 62.45969
# Shear Modulus (GPa) = 25.19118 26.82320 26.00719
#
# Velocity S-wave (km/s) = 3.59374 3.70833 3.65149
# Velocity P-wave (km/s) = 6.92212 7.18912 7.05688
#
# Compressibility (1/GPa) = 0.01670196
#
# Stress axis : x y z
#
# Youngs Moduli (GPa) = 104.79072 78.82647 56.78190
#
# Poissons Ratio (x) = 0.23182 0.25158
# Poissons Ratio (y) = 0.30818 0.23835
# Poissons Ratio (z) = 0.46428 0.33088
#
# Static dielectric constant tensor:
#      x y z
#    x 3.449090 0.000000 0.000000 
#    y 0.000000 3.550900 0.000000 
#    z 0.000000 0.000000 3.608020 
# 
# 
# High freq. dielectric constant tensor:
#      x y z
#    x 1.763640 0.000000 0.000000 
#    y 0.000000 1.751230 0.000000 
#    z 0.000000 0.000000 1.758700 
# 
# From -- ./inp_files/49316.got.cif
#   From: 2010.03.12/outbox.cif.g09.slc.cpg/sg74_25_cif.got.tgz:49316.got - 2010.04.16 15:46:19.
