data_PCOD8300315
_publ_section_title
;
Structure prediction by ZEFSAII (Michael W. Deem and Ramdas Pophale) SiO2 
 PCOD8300315
Probable space group: I M M A
;
_chemical_formula_sum "Si O2"
_cell_formula_units_Z 104
_cell_length_a 23.546457
_cell_length_b 22.937676
_cell_length_c 9.996701
_cell_angle_alpha 90.000000
_cell_angle_beta 90.000000
_cell_angle_gamma 90.000000
_cell_volume 5399.228223
_symmetry_space_group_name_H-M "I M M A"
_symmetry_group_IT_number 74
_symmetry_cell_setting 'orthorhombic'
loop_
_space_group_symop_operation_xyz
x,y,z
-x,1/2-y,z
x,-y,-z
-x,1/2+y,-z
-x,-y,-z
x,1/2+y,-z
-x,y,z
x,1/2-y,z
1/2+x,1/2+y,1/2+z
1/2-x,-y,1/2+z
1/2+x,1/2-y,1/2-z
1/2-x,y,1/2-z
1/2-x,1/2-y,1/2-z
1/2+x,y,1/2-z
1/2-x,1/2+y,1/2+z
1/2+x,-y,1/2+z
loop_
_atom_site_type_symbol
_atom_site_label
_atom_site_fract_x
_atom_site_fract_y
_atom_site_fract_z
Si Si1 0.851208 0.626794 0.442496
Si Si2 0.115338 0.250000 0.243568
Si Si3 0.671997 0.250000 0.536366
Si Si4 0.433163 0.062594 0.451051
Si Si5 0.861470 0.369588 0.856109
Si Si6 0.804664 0.750000 0.518859
Si Si7 0.933579 0.373302 0.315050
Si Si8 0.756315 0.551489 0.098052
O O1 0.878338 0.616966 0.296591
O O2 0.829473 0.692972 0.447812
O O3 0.898187 0.610881 0.552663
O O4 0.799335 0.582514 0.460661
O O5 0.131276 0.250000 0.090078
O O6 0.173963 0.250000 0.327748
O O7 0.077707 0.193276 0.273662
O O8 0.656209 0.303099 0.630902
O O9 0.736975 0.250000 0.488537
O O10 0.500000 0.059836 0.454665
O O11 0.414757 0.112920 0.553476
O O12 0.413603 0.081623 0.301598
O O13 0.407715 0.000000 0.500000
O O14 0.807209 0.403674 0.909301
O O15 0.000000 0.380848 0.346832
O O16 0.750000 0.528514 0.250000
O O17 0.772723 0.500000 0.000000
#
# Coordination Sequence:
#
# PCOD8300315 Si02
#       8
#    16   8   8  16  16   8  16  16
#     4  10  22  37  59  87 119 156 193 236 293 352
#     4  10  20  36  57  90 119 153 192 241 289 349
#     4  12  20  35  61  90 120 154 192 237 294 348
#     4  10  22  41  62  84 113 153 199 247 293 342
#     4  11  22  37  60  89 119 151 194 240 292 347
#     4  10  20  37  56  86 125 155 193 231 288 358
#     4  10  21  39  62  85 116 155 194 241 295 348
#     4  10  22  39  56  84 118 158 193 238 288 339
#
# _framework density 19.262011999999999
#
# number of rings (size 3 to 8) (size 9 to 14) (size 15 to 20)
#    0.000    1.692    3.077    1.385    0.000    4.923 
#    0.000    0.385    0.000    5.077    0.000    0.000 
#    0.000    0.000    0.000    0.000    0.000    0.000 
#
# Total GULP energy -644805.292061 kJ/mol
# GULP energy per Si atom -12400.101770 kJ/mol
# Density = 1.921817 g / cm^3
# Si number density = 19.262012 Si / 1000 Ang^3
#
#
#
# Elastic Constant Matrix: (Units=GPa)
#
#
# Indices 1 2 3 4 5 6 
#
# 1 46.8031 33.4421 56.8972 0.0000 0.0000 0.0000
# 2 33.4421 119.0076 62.4303 0.0000 0.0000 0.0000
# 3 56.8972 62.4303 134.8228 0.0000 0.0000 0.0000
# 4 0.0000 0.0000 0.0000 34.4604 0.0000 0.0000
# 5 0.0000 0.0000 0.0000 0.0000 29.6532 0.0000
# 6 0.0000 0.0000 0.0000 0.0000 0.0000 30.9677
#
#
#
# Elastic Compliance Matrix: (Units=1/GPa)
#
#
# Indices 1 2 3 4 5 6 
#
# 1 0.044978 -0.003542 -0.017341 0.000000 0.000000 0.000000
# 2 -0.003542 0.011378 -0.003774 0.000000 0.000000 0.000000
# 3 -0.017341 -0.003774 0.016483 0.000000 0.000000 0.000000
# 4 0.000000 0.000000 0.000000 0.029019 0.000000 0.000000
# 5 0.000000 0.000000 0.000000 0.000000 0.033723 0.000000
# 6 0.000000 0.000000 0.000000 0.000000 0.000000 0.032292
#
#
# Mechanical properties :
#
#
# Convention : Reuss Voigt Hill
#
# Bulk Modulus (GPa) = 42.50853 67.35252 54.93052
# Shear Modulus (GPa) = 22.21938 28.87386 25.54662
#
# Velocity S-wave (km/s) = 3.40006 3.87590 3.64575
# Velocity P-wave (km/s) = 6.12620 7.42109 6.80452
#
# Compressibility (1/GPa) = 0.02352469
#
# Stress axis : x y z
#
# Youngs Moduli (GPa) = 22.23289 87.88995 60.66910
#
# Poissons Ratio (x) = 0.31132 1.05208
# Poissons Ratio (y) = 0.07875 0.22895
# Poissons Ratio (z) = 0.38555 0.33167
#
# Static dielectric constant tensor:
#      x y z
#    x 3.399940 0.000000 0.000000 
#    y 0.000000 3.808340 0.000000 
#    z 0.000000 0.000000 3.623700 
# 
# 
# High freq. dielectric constant tensor:
#      x y z
#    x 1.744010 0.000000 0.000000 
#    y 0.000000 1.755920 0.000000 
#    z 0.000000 0.000000 1.758430 
# 
# From -- ./inp_files/15271.got.cif
#   From: 2010.03.12/outbox.cif.g09.slc.cpg/sg74_8_cif.got.tgz:15271.got - 2010.04.16 15:46:19.
