data_PCOD8300920
_publ_section_title
;
Structure prediction by ZEFSAII (Michael W. Deem and Ramdas Pophale) SiO2 
 PCOD8300920
Probable space group: I M M A
;
_chemical_formula_sum "Si O2"
_cell_formula_units_Z 112
_cell_length_a 23.997514
_cell_length_b 15.328411
_cell_length_c 14.884690
_cell_angle_alpha 90.000000
_cell_angle_beta 90.000000
_cell_angle_gamma 90.000000
_cell_volume 5475.240300
_symmetry_space_group_name_H-M "I M M A"
_symmetry_group_IT_number 74
_symmetry_cell_setting 'orthorhombic'
loop_
_space_group_symop_operation_xyz
x,y,z
-x,1/2-y,z
x,-y,-z
-x,1/2+y,-z
-x,-y,-z
x,1/2+y,-z
-x,y,z
x,1/2-y,z
1/2+x,1/2+y,1/2+z
1/2-x,-y,1/2+z
1/2+x,1/2-y,1/2-z
1/2-x,y,1/2-z
1/2-x,1/2-y,1/2-z
1/2+x,y,1/2-z
1/2-x,1/2+y,1/2+z
1/2+x,-y,1/2+z
loop_
_atom_site_type_symbol
_atom_site_label
_atom_site_fract_x
_atom_site_fract_y
_atom_site_fract_z
Si Si1 0.120477 0.843990 0.162934
Si Si2 0.652449 0.502412 0.900460
Si Si3 0.263759 0.849726 0.851878
Si Si4 0.563005 0.997414 0.253535
Si Si5 0.436998 0.850036 0.615576
Si Si6 0.703140 0.345608 0.817647
Si Si7 0.831294 0.099844 0.011149
O O1 0.090874 0.750000 0.142224
O O2 0.078043 0.925485 0.169402
O O3 0.147020 0.836795 0.260844
O O4 0.169756 0.858556 0.088740
O O5 0.685704 0.591524 0.885710
O O6 0.601569 0.492649 0.833057
O O7 0.694940 0.419781 0.892900
O O8 0.627248 0.500000 0.000000
O O9 0.284211 0.750000 0.852699
O O10 0.250000 0.879084 0.750000
O O11 0.210124 0.857070 0.917060
O O12 0.500000 0.980744 0.222137
O O13 0.570549 0.093521 0.294530
O O14 0.500000 0.859538 0.577970
O O15 0.423237 0.750000 0.640421
O O16 0.395233 0.886006 0.540645
O O17 0.717589 0.250000 0.860244
O O18 0.750000 0.379168 0.750000
O O19 0.814810 0.000000 0.000000
#
# Coordination Sequence:
#
# PCOD8300920 Si02
#       7
#    16  16  16  16  16  16  16
#     4  10  21  37  58  88 120 157 201 249 309 374
#     4  11  24  39  60  90 120 157 205 261 316 373
#     4  11  25  41  61  89 125 168 207 251 309 372
#     4  10  22  42  64  87 119 162 211 262 317 378
#     4  10  21  38  60  86 120 162 206 252 304 364
#     4   9  20  37  58  81 114 157 200 247 307 371
#     4  12  23  37  60  92 128 166 203 254 307 369
#
# _framework density 20.455724
#
# number of rings (size 3 to 8) (size 9 to 14) (size 15 to 20)
#    0.000    1.571    1.429    3.000    6.000    3.714 
#    0.000    0.000    0.000    0.000    0.000    4.000 
#    0.000    0.000    0.000    0.000    0.000    0.000 
#
# Total GULP energy -694234.389637 kJ/mol
# GULP energy per Si atom -12397.042672 kJ/mol
# Density = 2.040917 g / cm^3
# Si number density = 20.455724 Si / 1000 Ang^3
#
#
#
# Elastic Constant Matrix: (Units=GPa)
#
#
# Indices 1 2 3 4 5 6 
#
# 1 71.4403 27.4373 22.1542 0.0000 0.0000 0.0000
# 2 27.4373 127.3926 39.3849 0.0000 0.0000 0.0000
# 3 22.1542 39.3849 97.9180 0.0000 0.0000 0.0000
# 4 0.0000 0.0000 0.0000 18.2827 0.0000 0.0000
# 5 0.0000 0.0000 0.0000 0.0000 21.5927 0.0000
# 6 0.0000 0.0000 0.0000 0.0000 0.0000 26.4921
#
#
#
# Elastic Compliance Matrix: (Units=1/GPa)
#
#
# Indices 1 2 3 4 5 6 
#
# 1 0.015785 -0.002622 -0.002517 0.000000 0.000000 0.000000
# 2 -0.002622 0.009400 -0.003188 0.000000 0.000000 0.000000
# 3 -0.002517 -0.003188 0.012064 0.000000 0.000000 0.000000
# 4 0.000000 0.000000 0.000000 0.054696 0.000000 0.000000
# 5 0.000000 0.000000 0.000000 0.000000 0.046312 0.000000
# 6 0.000000 0.000000 0.000000 0.000000 0.000000 0.037747
#
#
# Mechanical properties :
#
#
# Convention : Reuss Voigt Hill
#
# Bulk Modulus (GPa) = 48.55140 52.74486 50.64813
# Shear Modulus (GPa) = 25.05979 27.12514 26.09247
#
# Velocity S-wave (km/s) = 3.50390 3.64544 3.57537
# Velocity P-wave (km/s) = 6.33689 6.59999 6.46978
#
# Compressibility (1/GPa) = 0.02059673
#
# Stress axis : x y z
#
# Youngs Moduli (GPa) = 63.35104 106.38416 82.88940
#
# Poissons Ratio (x) = 0.27889 0.20863
# Poissons Ratio (y) = 0.16608 0.26423
# Poissons Ratio (z) = 0.15945 0.33912
#
# Static dielectric constant tensor:
#      x y z
#    x 3.567550 0.000000 0.000000 
#    y 0.000000 4.172250 0.000000 
#    z 0.000000 0.000000 3.647790 
# 
# 
# High freq. dielectric constant tensor:
#      x y z
#    x 1.782440 0.000000 0.000000 
#    y 0.000000 1.822540 0.000000 
#    z 0.000000 0.000000 1.789020 
# 
# From -- ./inp_files/36513.got.cif
#   From: 2010.03.12/outbox.cif.g09.slc.cpg/sg74_19_cif.got.tgz:36513.got - 2010.04.16 15:46:19.
