data_PCOD8300946
_publ_section_title
;
Structure prediction by ZEFSAII (Michael W. Deem and Ramdas Pophale) SiO2 
 PCOD8300946
Probable space group: I M M A
;
_chemical_formula_sum "Si O2"
_cell_formula_units_Z 112
_cell_length_a 29.165548
_cell_length_b 15.979210
_cell_length_c 12.233849
_cell_angle_alpha 90.000000
_cell_angle_beta 90.000000
_cell_angle_gamma 90.000000
_cell_volume 5701.492548
_symmetry_space_group_name_H-M "I M M A"
_symmetry_group_IT_number 74
_symmetry_cell_setting 'orthorhombic'
loop_
_space_group_symop_operation_xyz
x,y,z
-x,1/2-y,z
x,-y,-z
-x,1/2+y,-z
-x,-y,-z
x,1/2+y,-z
-x,y,z
x,1/2-y,z
1/2+x,1/2+y,1/2+z
1/2-x,-y,1/2+z
1/2+x,1/2-y,1/2-z
1/2-x,y,1/2-z
1/2-x,1/2-y,1/2-z
1/2+x,y,1/2-z
1/2-x,1/2+y,1/2+z
1/2+x,-y,1/2+z
loop_
_atom_site_type_symbol
_atom_site_label
_atom_site_fract_x
_atom_site_fract_y
_atom_site_fract_z
Si Si1 0.049579 0.654195 0.286152
Si Si2 0.802846 0.154381 0.231240
Si Si3 0.354514 0.152604 0.714903
Si Si4 0.951254 0.403244 0.474499
Si Si5 0.803934 0.595795 0.010605
Si Si6 0.646981 0.915223 0.926042
Si Si7 0.708792 0.844494 0.094254
O O1 0.047864 0.750000 0.249163
O O2 0.094858 0.610684 0.233023
O O3 0.055380 0.649417 0.415784
O O4 0.000000 0.612452 0.251854
O O5 0.816169 0.250000 0.261926
O O6 0.750000 0.136672 0.250000
O O7 0.812244 0.141096 0.103738
O O8 0.830113 0.086176 0.305574
O O9 0.358667 0.250000 0.744265
O O10 0.339948 0.138646 0.591472
O O11 0.315854 0.115810 0.798136
O O12 0.954773 0.500000 0.500000
O O13 0.905871 0.389341 0.402126
O O14 0.000000 0.375888 0.417699
O O15 0.817074 0.500000 0.000000
O O16 0.752690 0.601581 0.059283
O O17 0.672386 0.843641 0.995521
O O18 0.651965 0.000000 0.000000
O O19 0.725876 0.750000 0.116161
#
# Coordination Sequence:
#
# PCOD8300946 Si02
#       7
#    16  16  16  16  16  16  16
#     4   9  17  31  55  86 113 140 182 235 285 335
#     4  11  24  40  57  77 112 159 197 232 287 354
#     4  10  21  37  60  85 114 147 185 237 292 338
#     4   9  18  32  52  81 116 149 179 224 286 344
#     4  12  26  38  57  81 116 153 199 240 279 335
#     4  11  22  35  59  85 114 148 191 237 279 337
#     4  11  21  37  58  82 112 148 185 232 289 336
#
# _framework density 19.643979000000002
#
# number of rings (size 3 to 8) (size 9 to 14) (size 15 to 20)
#    0.000    1.571    2.857    2.571    2.000    1.714 
#    0.000    0.000    0.000    1.286    0.000    0.000 
#    0.000    0.000    0.000    0.000    0.000    0.000 
#
# Total GULP energy -693851.940867 kJ/mol
# GULP energy per Si atom -12390.213230 kJ/mol
# Density = 1.959927 g / cm^3
# Si number density = 19.643979 Si / 1000 Ang^3
#
#
#
# Elastic Constant Matrix: (Units=GPa)
#
#
# Indices 1 2 3 4 5 6 
#
# 1 153.1220 24.6305 67.2757 0.0000 0.0000 0.0000
# 2 24.6305 32.5115 12.8382 0.0000 0.0000 0.0000
# 3 67.2757 12.8382 122.9747 0.0000 0.0000 0.0000
# 4 0.0000 0.0000 0.0000 25.5625 0.0000 0.0000
# 5 0.0000 0.0000 0.0000 0.0000 22.4329 0.0000
# 6 0.0000 0.0000 0.0000 0.0000 0.0000 1.3309
#
#
#
# Elastic Compliance Matrix: (Units=1/GPa)
#
#
# Indices 1 2 3 4 5 6 
#
# 1 0.009401 -0.005310 -0.004589 0.000000 0.000000 0.000000
# 2 -0.005310 0.035080 -0.000757 0.000000 0.000000 0.000000
# 3 -0.004589 -0.000757 0.010721 0.000000 0.000000 0.000000
# 4 0.000000 0.000000 0.000000 0.039120 0.000000 0.000000
# 5 0.000000 0.000000 0.000000 0.000000 0.044577 0.000000
# 6 0.000000 0.000000 0.000000 0.000000 0.000000 0.751346
#
#
# Mechanical properties :
#
#
# Convention : Reuss Voigt Hill
#
# Bulk Modulus (GPa) = 29.50697 57.56634 43.53666
# Shear Modulus (GPa) = 5.41797 23.45619 14.43708
#
# Velocity S-wave (km/s) = 1.66255 3.45927 2.71391
# Velocity P-wave (km/s) = 4.32885 6.73230 5.65963
#
# Compressibility (1/GPa) = 0.03389029
#
# Stress axis : x y z
#
# Youngs Moduli (GPa) = 106.37215 28.50607 93.27396
#
# Poissons Ratio (x) = 0.15137 0.42800
# Poissons Ratio (y) = 0.56485 0.07063
# Poissons Ratio (z) = 0.48810 0.02159
#
# Static dielectric constant tensor:
#      x y z
#    x 4.161680 0.000000 0.000000 
#    y 0.000000 4.536100 0.000000 
#    z 0.000000 0.000000 3.500960 
# 
# 
# High freq. dielectric constant tensor:
#      x y z
#    x 1.776520 0.000000 0.000000 
#    y 0.000000 1.750040 0.000000 
#    z 0.000000 0.000000 1.735070 
# 
# From -- ./inp_files/21172.got.cif
#   From: 2010.03.12/outbox.cif.g09.slc.cpg/sg74_11_cif.got.tgz:21172.got - 2010.04.16 15:46:19.
