data_PCOD8300608
_publ_section_title
;
Structure prediction by ZEFSAII (Michael W. Deem and Ramdas Pophale) SiO2 
 PCOD8300608
Probable space group: I M M A
;
_chemical_formula_sum "Si O2"
_cell_formula_units_Z 48
_cell_length_a 16.140119
_cell_length_b 15.832393
_cell_length_c 8.720970
_cell_angle_alpha 90.000000
_cell_angle_beta 90.000000
_cell_angle_gamma 90.000000
_cell_volume 2228.527956
_symmetry_space_group_name_H-M "I M M A"
_symmetry_group_IT_number 74
_symmetry_cell_setting 'orthorhombic'
loop_
_space_group_symop_operation_xyz
x,y,z
-x,1/2-y,z
x,-y,-z
-x,1/2+y,-z
-x,-y,-z
x,1/2+y,-z
-x,y,z
x,1/2-y,z
1/2+x,1/2+y,1/2+z
1/2-x,-y,1/2+z
1/2+x,1/2-y,1/2-z
1/2-x,y,1/2-z
1/2-x,1/2-y,1/2-z
1/2+x,y,1/2-z
1/2-x,1/2+y,1/2+z
1/2+x,-y,1/2+z
loop_
_atom_site_type_symbol
_atom_site_label
_atom_site_fract_x
_atom_site_fract_y
_atom_site_fract_z
Si Si1 0.594205 0.092618 0.857955
Si Si2 0.842503 0.417423 0.312923
Si Si3 0.340881 0.750000 0.675559
Si Si4 0.158910 0.250000 0.814547
O O1 0.500000 0.097369 0.917526
O O2 0.610566 0.167185 0.739613
O O3 0.608319 0.003088 0.772154
O O4 0.656111 0.098471 0.003315
O O5 0.750000 0.428010 0.250000
O O6 0.886030 0.335776 0.233293
O O7 0.250000 0.750000 0.750000
O O8 0.337074 0.750000 0.495125
O O9 0.250000 0.250000 0.750000
#
# Coordination Sequence:
#
# PCOD8300608 Si02
#       4
#    16  16   8   8
#     4  11  24  43  64  94 133 172 211 268 332 381
#     4  10  20  39  66  94 123 166 219 266 316 383
#     4  10  22  38  61  93 123 156 208 266 312 360
#     4  12  23  40  67  95 124 168 219 262 312 386
#
# _framework density 21.538882999999998
#
# number of rings (size 3 to 8) (size 9 to 14) (size 15 to 20)
#    0.000    1.333    0.000    8.500    0.000    6.667 
#    0.000   10.833    0.000    0.000    0.000    0.000 
#    0.000    0.000    0.000    0.000    0.000    0.000 
#
# Total GULP energy -297547.176884 kJ/mol
# GULP energy per Si atom -12397.799037 kJ/mol
# Density = 2.148986 g / cm^3
# Si number density = 21.538883 Si / 1000 Ang^3
#
#
#
# Elastic Constant Matrix: (Units=GPa)
#
#
# Indices 1 2 3 4 5 6 
#
# 1 96.5910 33.3641 45.7010 0.0000 0.0000 0.0000
# 2 33.3641 233.0227 93.7119 0.0000 0.0000 0.0000
# 3 45.7010 93.7119 153.1193 0.0000 0.0000 0.0000
# 4 0.0000 0.0000 0.0000 23.3221 0.0000 0.0000
# 5 0.0000 0.0000 0.0000 0.0000 23.4046 0.0000
# 6 0.0000 0.0000 0.0000 0.0000 0.0000 2.9684
#
#
#
# Elastic Compliance Matrix: (Units=1/GPa)
#
#
# Indices 1 2 3 4 5 6 
#
# 1 0.012079 -0.000371 -0.003378 0.000000 0.000000 0.000000
# 2 -0.000371 0.005704 -0.003380 0.000000 0.000000 0.000000
# 3 -0.003378 -0.003380 0.009608 0.000000 0.000000 0.000000
# 4 0.000000 0.000000 0.000000 0.042878 0.000000 0.000000
# 5 0.000000 0.000000 0.000000 0.000000 0.042727 0.000000
# 6 0.000000 0.000000 0.000000 0.000000 0.000000 0.336876
#
#
# Mechanical properties :
#
#
# Convention : Reuss Voigt Hill
#
# Bulk Modulus (GPa) = 76.14732 92.03191 84.08961
# Shear Modulus (GPa) = 10.67217 30.60277 20.63747
#
# Velocity S-wave (km/s) = 2.22836 3.77346 3.09876
# Velocity P-wave (km/s) = 6.48467 7.86170 7.20615
#
# Compressibility (1/GPa) = 0.01313244
#
# Stress axis : x y z
#
# Youngs Moduli (GPa) = 82.78518 175.31841 104.08091
#
# Poissons Ratio (x) = 0.06503 0.35162
# Poissons Ratio (y) = 0.03071 0.35181
# Poissons Ratio (z) = 0.27967 0.59261
#
# Static dielectric constant tensor:
#      x y z
#    x 4.458990 0.000000 0.000000 
#    y 0.000000 5.216700 0.000000 
#    z 0.000000 0.000000 3.703140 
# 
# 
# High freq. dielectric constant tensor:
#      x y z
#    x 1.820310 0.000000 0.000000 
#    y 0.000000 1.884030 0.000000 
#    z 0.000000 0.000000 1.835300 
# 
# From -- ./inp_files/8109.got.cif
#   From: 2010.03.12/outbox.cif.g09.slc.cpg/sg74_5_cif.got.tgz:8109.got - 2010.04.16 15:46:19.
