data_PCOD8300136
_publ_section_title
;
Structure prediction by ZEFSAII (Michael W. Deem and Ramdas Pophale) SiO2 
 PCOD8300136
Probable space group: I M M A
;
_chemical_formula_sum "Si O2"
_cell_formula_units_Z 96
_cell_length_a 18.358635
_cell_length_b 9.366805
_cell_length_c 29.311165
_cell_angle_alpha 90.000000
_cell_angle_beta 90.000000
_cell_angle_gamma 90.000000
_cell_volume 5040.399348
_symmetry_space_group_name_H-M "I M M A"
_symmetry_group_IT_number 74
_symmetry_cell_setting 'orthorhombic'
loop_
_space_group_symop_operation_xyz
x,y,z
-x,1/2-y,z
x,-y,-z
-x,1/2+y,-z
-x,-y,-z
x,1/2+y,-z
-x,y,z
x,1/2-y,z
1/2+x,1/2+y,1/2+z
1/2-x,-y,1/2+z
1/2+x,1/2-y,1/2-z
1/2-x,y,1/2-z
1/2-x,1/2-y,1/2-z
1/2+x,y,1/2-z
1/2-x,1/2+y,1/2+z
1/2+x,-y,1/2+z
loop_
_atom_site_type_symbol
_atom_site_label
_atom_site_fract_x
_atom_site_fract_y
_atom_site_fract_z
Si Si1 0.179411 0.081113 0.220536
Si Si2 0.084005 0.916274 0.044990
Si Si3 0.852677 0.410496 0.618538
Si Si4 0.812934 0.086565 0.872631
Si Si5 0.414433 0.907759 0.959053
Si Si6 0.916183 0.586578 0.285238
O O1 0.171969 0.250000 0.216529
O O2 0.250000 0.036335 0.250000
O O3 0.181592 0.016594 0.170298
O O4 0.108145 0.017482 0.244808
O O5 0.096199 0.750000 0.035132
O O6 0.131308 0.965972 0.088425
O O7 0.000000 0.951304 0.056214
O O8 0.110112 0.000000 0.000000
O O9 0.880683 0.250000 0.608354
O O10 0.767851 0.425065 0.606814
O O11 0.898480 0.520040 0.588952
O O12 0.866932 0.449221 0.671029
O O13 0.829797 0.250000 0.857868
O O14 0.500000 0.896078 0.965895
O O15 0.379314 0.750000 0.960188
O O16 0.379316 0.000000 0.000000
O O17 0.904349 0.750000 0.269646
O O18 0.000000 0.556460 0.297171
#
# Coordination Sequence:
#
# PCOD8300136 Si02
#       6
#    16  16  16  16  16  16
#     4  11  23  38  57  83 117 154 192 237 292 346
#     4   9  19  37  60  86 116 150 189 235 288 345
#     4  10  20  35  56  81 110 144 184 231 282 338
#     4  10  21  37  60  86 114 151 193 234 283 343
#     4  10  21  36  54  76 105 143 184 228 278 331
#     4  10  21  37  59  84 110 148 194 235 281 342
#
# _framework density 19.046109999999999
#
# number of rings (size 3 to 8) (size 9 to 14) (size 15 to 20)
#    0.000    2.000    1.667    1.500    0.000    6.000 
#    0.000    3.333    0.000    0.000    0.000    0.000 
#    0.000    0.000    0.000    0.000    0.000    0.000 
#
# Total GULP energy -595356.190884 kJ/mol
# GULP energy per Si atom -12403.253977 kJ/mol
# Density = 1.900276 g / cm^3
# Si number density = 19.046110 Si / 1000 Ang^3
#
#
#
# Elastic Constant Matrix: (Units=GPa)
#
#
# Indices 1 2 3 4 5 6 
#
# 1 70.5658 29.7894 40.7339 0.0000 0.0000 0.0000
# 2 29.7894 108.3709 72.2786 0.0000 0.0000 0.0000
# 3 40.7339 72.2786 121.3430 0.0000 0.0000 0.0000
# 4 0.0000 0.0000 0.0000 38.6374 0.0000 0.0000
# 5 0.0000 0.0000 0.0000 0.0000 36.4144 0.0000
# 6 0.0000 0.0000 0.0000 0.0000 0.0000 24.3656
#
#
#
# Elastic Compliance Matrix: (Units=1/GPa)
#
#
# Indices 1 2 3 4 5 6 
#
# 1 0.017723 -0.001499 -0.005056 0.000000 0.000000 0.000000
# 2 -0.001499 0.015437 -0.008692 0.000000 0.000000 0.000000
# 3 -0.005056 -0.008692 0.015116 0.000000 0.000000 0.000000
# 4 0.000000 0.000000 0.000000 0.025882 0.000000 0.000000
# 5 0.000000 0.000000 0.000000 0.000000 0.027462 0.000000
# 6 0.000000 0.000000 0.000000 0.000000 0.000000 0.041041
#
#
# Mechanical properties :
#
#
# Convention : Reuss Voigt Hill
#
# Bulk Modulus (GPa) = 56.24108 65.09817 60.66963
# Shear Modulus (GPa) = 27.92027 30.38201 29.15114
#
# Velocity S-wave (km/s) = 3.83290 3.99831 3.91648
# Velocity P-wave (km/s) = 7.01293 7.45444 7.23705
#
# Compressibility (1/GPa) = 0.01778060
#
# Stress axis : x y z
#
# Youngs Moduli (GPa) = 56.42422 64.78099 66.15654
#
# Poissons Ratio (x) = 0.09713 0.33451
# Poissons Ratio (y) = 0.08460 0.57501
# Poissons Ratio (z) = 0.28530 0.56305
#
# Static dielectric constant tensor:
#      x y z
#    x 3.435560 0.000000 0.000000 
#    y 0.000000 3.547090 0.000000 
#    z 0.000000 0.000000 3.378240 
# 
# 
# High freq. dielectric constant tensor:
#      x y z
#    x 1.734090 0.000000 0.000000 
#    y 0.000000 1.740700 0.000000 
#    z 0.000000 0.000000 1.740580 
# 
# From -- ./inp_files/64252.got.cif
#   From: 2010.03.12/outbox.cif.g09.slc.cpg/sg74_33_cif.got.tgz:64252.got - 2010.04.16 15:46:19.
