data_PCOD8300504
_publ_section_title
;
Structure prediction by ZEFSAII (Michael W. Deem and Ramdas Pophale) SiO2 
 PCOD8300504
Probable space group: I M M A
;
_chemical_formula_sum "Si O2"
_cell_formula_units_Z 72
_cell_length_a 8.674400
_cell_length_b 16.681365
_cell_length_c 24.727402
_cell_angle_alpha 90.000000
_cell_angle_beta 90.000000
_cell_angle_gamma 90.000000
_cell_volume 3578.075656
_symmetry_space_group_name_H-M "I M M A"
_symmetry_group_IT_number 74
_symmetry_cell_setting 'orthorhombic'
loop_
_space_group_symop_operation_xyz
x,y,z
-x,1/2-y,z
x,-y,-z
-x,1/2+y,-z
-x,-y,-z
x,1/2+y,-z
-x,y,z
x,1/2-y,z
1/2+x,1/2+y,1/2+z
1/2-x,-y,1/2+z
1/2+x,1/2-y,1/2-z
1/2-x,y,1/2-z
1/2-x,1/2-y,1/2-z
1/2+x,y,1/2-z
1/2-x,1/2+y,1/2+z
1/2+x,-y,1/2+z
loop_
_atom_site_type_symbol
_atom_site_label
_atom_site_fract_x
_atom_site_fract_y
_atom_site_fract_z
Si Si1 0.817354 0.750000 0.810278
Si Si2 0.180147 0.376198 0.390572
Si Si3 0.682132 0.159961 0.695154
Si Si4 0.824318 0.338600 0.999311
Si Si5 0.682541 0.949651 0.401733
O O1 0.750000 0.750000 0.750000
O O2 0.764605 0.829725 0.842079
O O3 0.000000 0.750000 0.806345
O O4 0.218242 0.336712 0.448027
O O5 0.231389 0.467686 0.393594
O O6 0.000000 0.369729 0.379271
O O7 0.500000 0.159139 0.698292
O O8 0.745471 0.250000 0.687108
O O9 0.750000 0.122350 0.750000
O O10 0.741898 0.107318 0.645792
O O11 0.815123 0.250000 0.972012
O O12 0.768430 0.406874 0.957749
O O13 0.000000 0.357168 0.017072
O O14 0.500000 0.963325 0.399997
#
# Coordination Sequence:
#
# PCOD8300504 Si02
#       5
#     8  16  16  16  16
#     4  12  26  48  74  96 120 158 207 258 313 374
#     4  12  25  41  61  90 126 161 199 251 312 370
#     4   9  18  34  56  82 115 154 198 247 297 354
#     4  10  20  37  63  90 120 163 211 256 309 372
#     4  10  21  37  59  88 121 161 210 257 306 366
#
# _framework density 20.122547999999998
#
# number of rings (size 3 to 8) (size 9 to 14) (size 15 to 20)
#    0.000    1.556    1.111    4.333    0.000    8.000 
#    0.000    2.222    0.000    4.000    0.000    0.000 
#    0.000    0.000    0.000    0.000    0.000    0.000 
#
# Total GULP energy -446441.686408 kJ/mol
# GULP energy per Si atom -12401.157956 kJ/mol
# Density = 2.007675 g / cm^3
# Si number density = 20.122548 Si / 1000 Ang^3
#
#
#
# Elastic Constant Matrix: (Units=GPa)
#
#
# Indices 1 2 3 4 5 6 
#
# 1 93.6619 46.8574 52.4420 0.0000 0.0000 0.0000
# 2 46.8574 136.0469 69.3561 0.0000 0.0000 0.0000
# 3 52.4420 69.3561 151.0053 0.0000 0.0000 0.0000
# 4 0.0000 0.0000 0.0000 16.8700 0.0000 0.0000
# 5 0.0000 0.0000 0.0000 0.0000 34.6761 0.0000
# 6 0.0000 0.0000 0.0000 0.0000 0.0000 22.9565
#
#
#
# Elastic Compliance Matrix: (Units=1/GPa)
#
#
# Indices 1 2 3 4 5 6 
#
# 1 0.014190 -0.003101 -0.003504 0.000000 0.000000 0.000000
# 2 -0.003101 0.010275 -0.003642 0.000000 0.000000 0.000000
# 3 -0.003504 -0.003642 0.009512 0.000000 0.000000 0.000000
# 4 0.000000 0.000000 0.000000 0.059277 0.000000 0.000000
# 5 0.000000 0.000000 0.000000 0.000000 0.028838 0.000000
# 6 0.000000 0.000000 0.000000 0.000000 0.000000 0.043561
#
#
# Mechanical properties :
#
#
# Convention : Reuss Voigt Hill
#
# Bulk Modulus (GPa) = 74.16838 79.78058 76.97448
# Shear Modulus (GPa) = 26.22722 29.03776 27.63249
#
# Velocity S-wave (km/s) = 3.61414 3.80287 3.70971
# Velocity P-wave (km/s) = 7.37255 7.68217 7.52895
#
# Compressibility (1/GPa) = 0.01348283
#
# Stress axis : x y z
#
# Youngs Moduli (GPa) = 70.47293 97.31949 105.13039
#
# Poissons Ratio (x) = 0.30181 0.36833
# Poissons Ratio (y) = 0.21855 0.38293
# Poissons Ratio (z) = 0.24691 0.35448
#
# Static dielectric constant tensor:
#      x y z
#    x 3.521780 0.000000 0.000000 
#    y 0.000000 3.899280 0.000000 
#    z 0.000000 0.000000 3.789930 
# 
# 
# High freq. dielectric constant tensor:
#      x y z
#    x 1.771970 0.000000 0.000000 
#    y 0.000000 1.799540 0.000000 
#    z 0.000000 0.000000 1.790620 
# 
# From -- ./inp_files/56695.got.cif
#   From: 2010.03.12/outbox.cif.g09.slc.cpg/sg74_29_cif.got.tgz:56695.got - 2010.04.16 15:46:19.
