data_PCOD8300626
_publ_section_title
;
Structure prediction by ZEFSAII (Michael W. Deem and Ramdas Pophale) SiO2 
 PCOD8300626
Probable space group: I M M A
;
_chemical_formula_sum "Si O2"
_cell_formula_units_Z 88
_cell_length_a 9.057583
_cell_length_b 16.034754
_cell_length_c 30.167592
_cell_angle_alpha 90.000000
_cell_angle_beta 90.000000
_cell_angle_gamma 90.000000
_cell_volume 4381.423868
_symmetry_space_group_name_H-M "I M M A"
_symmetry_group_IT_number 74
_symmetry_cell_setting 'orthorhombic'
loop_
_space_group_symop_operation_xyz
x,y,z
-x,1/2-y,z
x,-y,-z
-x,1/2+y,-z
-x,-y,-z
x,1/2+y,-z
-x,y,z
x,1/2-y,z
1/2+x,1/2+y,1/2+z
1/2-x,-y,1/2+z
1/2+x,1/2-y,1/2-z
1/2-x,y,1/2-z
1/2-x,1/2-y,1/2-z
1/2+x,y,1/2-z
1/2-x,1/2+y,1/2+z
1/2+x,-y,1/2+z
loop_
_atom_site_type_symbol
_atom_site_label
_atom_site_fract_x
_atom_site_fract_y
_atom_site_fract_z
Si Si1 0.323975 0.250000 0.202085
Si Si2 0.672711 0.581111 0.129698
Si Si3 0.662633 0.846823 0.291023
Si Si4 0.672095 0.392188 0.136303
Si Si5 0.164638 0.651937 0.541028
Si Si6 0.827096 0.152520 0.953663
O O1 0.500000 0.250000 0.208337
O O2 0.250000 0.250000 0.250000
O O3 0.266670 0.168428 0.174908
O O4 0.500000 0.600026 0.126453
O O5 0.746797 0.643809 0.163996
O O6 0.704512 0.488105 0.147905
O O7 0.743616 0.595824 0.081947
O O8 0.500000 0.888379 0.295013
O O9 0.642772 0.750000 0.281298
O O10 0.750000 0.889133 0.250000
O O11 0.500000 0.372555 0.131753
O O12 0.740416 0.373553 0.087742
O O13 0.150766 0.750000 0.539227
O O14 0.269814 0.621190 0.501387
O O15 0.000000 0.612305 0.535714
O O16 0.791009 0.250000 0.945502
O O17 0.000000 0.135349 0.950315
#
# Coordination Sequence:
#
# PCOD8300626 Si02
#       6
#     8  16  16  16  16  16
#     4  10  20  40  64  86 112 144 184 232 285 340
#     4  11  22  35  54  83 115 147 185 229 275 330
#     4  10  21  38  59  81 107 143 184 225 272 327
#     4   9  19  36  59  83 109 143 183 230 281 331
#     4   9  16  32  59  82 102 141 192 234 273 328
#     4  10  21  36  53  78 114 153 187 228 279 329
#
# _framework density 20.084795
#
# number of rings (size 3 to 8) (size 9 to 14) (size 15 to 20)
#    0.000    2.182    0.909    2.182    0.000    5.818 
#    0.000   10.000    0.000    0.000    0.000    0.000 
#    0.000    0.000    0.000    0.000    0.000    0.000 
#
# Total GULP energy -545548.588600 kJ/mol
# GULP energy per Si atom -12398.831559 kJ/mol
# Density = 2.003908 g / cm^3
# Si number density = 20.084795 Si / 1000 Ang^3
#
#
#
# Elastic Constant Matrix: (Units=GPa)
#
#
# Indices 1 2 3 4 5 6 
#
# 1 108.7511 32.5310 58.6031 0.0000 0.0000 0.0000
# 2 32.5310 50.5374 33.0650 0.0000 0.0000 0.0000
# 3 58.6031 33.0650 155.3306 0.0000 0.0000 0.0000
# 4 0.0000 0.0000 0.0000 16.3788 0.0000 0.0000
# 5 0.0000 0.0000 0.0000 0.0000 34.7114 0.0000
# 6 0.0000 0.0000 0.0000 0.0000 0.0000 16.2663
#
#
#
# Elastic Compliance Matrix: (Units=1/GPa)
#
#
# Indices 1 2 3 4 5 6 
#
# 1 0.012921 -0.005958 -0.003607 0.000000 0.000000 0.000000
# 2 -0.005958 0.025736 -0.003231 0.000000 0.000000 0.000000
# 3 -0.003607 -0.003231 0.008486 0.000000 0.000000 0.000000
# 4 0.000000 0.000000 0.000000 0.061054 0.000000 0.000000
# 5 0.000000 0.000000 0.000000 0.000000 0.028809 0.000000
# 6 0.000000 0.000000 0.000000 0.000000 0.000000 0.061477
#
#
# Mechanical properties :
#
#
# Convention : Reuss Voigt Hill
#
# Bulk Modulus (GPa) = 46.39636 62.55751 54.47694
# Shear Modulus (GPa) = 21.62091 26.16598 23.89344
#
# Velocity S-wave (km/s) = 3.28454 3.61331 3.45284
# Velocity P-wave (km/s) = 6.12655 6.97297 6.56342
#
# Compressibility (1/GPa) = 0.02155341
#
# Stress axis : x y z
#
# Youngs Moduli (GPa) = 77.39393 38.85618 117.83681
#
# Poissons Ratio (x) = 0.23149 0.42499
# Poissons Ratio (y) = 0.46108 0.38070
# Poissons Ratio (z) = 0.27913 0.12553
#
# Static dielectric constant tensor:
#      x y z
#    x 3.629660 0.000000 0.000000 
#    y 0.000000 3.462890 0.000000 
#    z 0.000000 0.000000 3.766620 
# 
# 
# High freq. dielectric constant tensor:
#      x y z
#    x 1.768170 0.000000 0.000000 
#    y 0.000000 1.766430 0.000000 
#    z 0.000000 0.000000 1.795350 
# 
# From -- ./inp_files/70299.got.cif
#   From: 2010.03.12/outbox.cif.g09.slc.cpg/sg74_36_cif.got.tgz:70299.got - 2010.04.16 15:46:19.
