data_PCOD8300987
_publ_section_title
;
Structure prediction by ZEFSAII (Michael W. Deem and Ramdas Pophale) SiO2 
 PCOD8300987
Probable space group: I M M A
;
_chemical_formula_sum "Si O2"
_cell_formula_units_Z 96
_cell_length_a 8.551159
_cell_length_b 23.564288
_cell_length_c 24.097685
_cell_angle_alpha 90.000000
_cell_angle_beta 90.000000
_cell_angle_gamma 90.000000
_cell_volume 4855.731082
_symmetry_space_group_name_H-M "I M M A"
_symmetry_group_IT_number 74
_symmetry_cell_setting 'orthorhombic'
loop_
_space_group_symop_operation_xyz
x,y,z
-x,1/2-y,z
x,-y,-z
-x,1/2+y,-z
-x,-y,-z
x,1/2+y,-z
-x,y,z
x,1/2-y,z
1/2+x,1/2+y,1/2+z
1/2-x,-y,1/2+z
1/2+x,1/2-y,1/2-z
1/2-x,y,1/2-z
1/2-x,1/2-y,1/2-z
1/2+x,y,1/2-z
1/2-x,1/2+y,1/2+z
1/2+x,-y,1/2+z
loop_
_atom_site_type_symbol
_atom_site_label
_atom_site_fract_x
_atom_site_fract_y
_atom_site_fract_z
Si Si1 0.182734 0.405957 0.808109
Si Si2 0.318057 0.315061 0.881057
Si Si3 0.817541 0.019915 0.597892
Si Si4 0.816731 0.888641 0.590811
Si Si5 0.315629 0.684944 0.690553
Si Si6 0.682233 0.611432 0.475321
O O1 0.250000 0.427376 0.750000
O O2 0.270612 0.348069 0.825252
O O3 0.215211 0.454967 0.852440
O O4 0.000000 0.394124 0.804015
O O5 0.500000 0.324545 0.894115
O O6 0.275730 0.250000 0.871702
O O7 0.217741 0.338573 0.932163
O O8 0.774388 0.053625 0.541355
O O9 0.000000 0.028430 0.610539
O O10 0.771588 0.954529 0.594359
O O11 0.754627 0.855167 0.643712
O O12 0.736136 0.865463 0.535113
O O13 0.000000 0.878919 0.586330
O O14 0.500000 0.677843 0.691293
O O15 0.266145 0.750000 0.678449
O O16 0.250000 0.665181 0.750000
O O17 0.500000 0.597628 0.475447
#
# Coordination Sequence:
#
# PCOD8300987 Si02
#       6
#    16  16  16  16  16  16
#     4  11  22  37  58  82 112 149 188 233 282 332
#     4  10  21  38  59  82 111 148 189 234 283 333
#     4  10  21  38  58  82 114 149 187 231 280 332
#     4  11  23  38  60  87 114 149 189 229 274 330
#     4  10  22  41  63  86 114 147 183 228 280 332
#     4  11  22  36  57  84 116 151 186 230 281 332
#
# _framework density 19.770451999999999
#
# number of rings (size 3 to 8) (size 9 to 14) (size 15 to 20)
#    0.000    1.500    0.000    7.500    0.000    8.667 
#    0.000    0.000    0.000    0.000    0.000    0.000 
#    0.000    0.000    0.000    0.000    0.000    0.000 
#
# Total GULP energy -595417.041192 kJ/mol
# GULP energy per Si atom -12404.521691 kJ/mol
# Density = 1.972545 g / cm^3
# Si number density = 19.770452 Si / 1000 Ang^3
#
#
#
# Elastic Constant Matrix: (Units=GPa)
#
#
# Indices 1 2 3 4 5 6 
#
# 1 90.5495 25.2300 29.9218 0.0000 0.0000 0.0000
# 2 25.2300 50.7905 22.7855 0.0000 0.0000 0.0000
# 3 29.9218 22.7855 120.0968 0.0000 0.0000 0.0000
# 4 0.0000 0.0000 0.0000 20.1993 0.0000 0.0000
# 5 0.0000 0.0000 0.0000 0.0000 39.4575 0.0000
# 6 0.0000 0.0000 0.0000 0.0000 0.0000 28.8581
#
#
#
# Elastic Compliance Matrix: (Units=1/GPa)
#
#
# Indices 1 2 3 4 5 6 
#
# 1 0.013357 -0.005621 -0.002262 0.000000 0.000000 0.000000
# 2 -0.005621 0.023885 -0.003131 0.000000 0.000000 0.000000
# 3 -0.002262 -0.003131 0.009484 0.000000 0.000000 0.000000
# 4 0.000000 0.000000 0.000000 0.049507 0.000000 0.000000
# 5 0.000000 0.000000 0.000000 0.000000 0.025344 0.000000
# 6 0.000000 0.000000 0.000000 0.000000 0.000000 0.034652
#
#
# Mechanical properties :
#
#
# Convention : Reuss Voigt Hill
#
# Bulk Modulus (GPa) = 40.48598 46.36793 43.42695
# Shear Modulus (GPa) = 26.81117 29.93629 28.37373
#
# Velocity S-wave (km/s) = 3.68655 3.89549 3.79246
# Velocity P-wave (km/s) = 6.21638 6.61341 6.41796
#
# Compressibility (1/GPa) = 0.02469991
#
# Stress axis : x y z
#
# Youngs Moduli (GPa) = 74.86684 41.86649 105.43890
#
# Poissons Ratio (x) = 0.23531 0.23845
# Poissons Ratio (y) = 0.42079 0.33017
# Poissons Ratio (z) = 0.16931 0.13110
#
# Static dielectric constant tensor:
#      x y z
#    x 3.687750 0.000000 0.000000 
#    y 0.000000 3.594660 0.000000 
#    z 0.000000 0.000000 3.637400 
# 
# 
# High freq. dielectric constant tensor:
#      x y z
#    x 1.787190 0.000000 0.000000 
#    y 0.000000 1.765260 0.000000 
#    z 0.000000 0.000000 1.777420 
# 
# From -- ./inp_files/57248.got.cif
#   From: 2010.03.12/outbox.cif.g09.slc.cpg/sg74_29_cif.got.tgz:57248.got - 2010.04.16 15:46:19.
