data_PCOD8300730
_publ_section_title
;
Structure prediction by ZEFSAII (Michael W. Deem and Ramdas Pophale) SiO2 
 PCOD8300730
Probable space group: I M M A
;
_chemical_formula_sum "Si O2"
_cell_formula_units_Z 112
_cell_length_a 27.274312
_cell_length_b 13.574976
_cell_length_c 14.727228
_cell_angle_alpha 90.000000
_cell_angle_beta 90.000000
_cell_angle_gamma 90.000000
_cell_volume 5452.728639
_symmetry_space_group_name_H-M "I M M A"
_symmetry_group_IT_number 74
_symmetry_cell_setting 'orthorhombic'
loop_
_space_group_symop_operation_xyz
x,y,z
-x,1/2-y,z
x,-y,-z
-x,1/2+y,-z
-x,-y,-z
x,1/2+y,-z
-x,y,z
x,1/2-y,z
1/2+x,1/2+y,1/2+z
1/2-x,-y,1/2+z
1/2+x,1/2-y,1/2-z
1/2-x,y,1/2-z
1/2-x,1/2-y,1/2-z
1/2+x,y,1/2-z
1/2-x,1/2+y,1/2+z
1/2+x,-y,1/2+z
loop_
_atom_site_type_symbol
_atom_site_label
_atom_site_fract_x
_atom_site_fract_y
_atom_site_fract_z
Si Si1 0.666640 0.137721 0.464636
Si Si2 0.864087 0.046083 0.855535
Si Si3 0.641740 0.138690 0.086595
Si Si4 0.945367 0.633068 0.465526
Si Si5 0.557413 0.137228 0.761723
Si Si6 0.231631 0.859671 0.454146
Si Si7 0.296779 0.498671 0.204607
O O1 0.659067 0.250000 0.432399
O O2 0.641199 0.122223 0.562043
O O3 0.724251 0.110664 0.477342
O O4 0.641984 0.066779 0.389987
O O5 0.916847 0.064563 0.810068
O O6 0.822762 0.067981 0.779553
O O7 0.632281 0.250000 0.120492
O O8 0.661426 0.076704 0.171445
O O9 0.592137 0.092101 0.042181
O O10 0.681480 0.136110 0.007963
O O11 0.944105 0.750000 0.467044
O O12 0.929937 0.600498 0.363911
O O13 0.000000 0.594786 0.489792
O O14 0.500000 0.129683 0.743809
O O15 0.575349 0.250000 0.748134
O O16 0.241534 0.750000 0.416030
O O17 0.226975 0.935011 0.372802
O O18 0.250000 0.442369 0.250000
#
# Coordination Sequence:
#
# PCOD8300730 Si02
#       7
#    16  16  16  16  16  16  16
#     4  10  22  40  58  78 110 154 195 238 294 351
#     4  11  22  36  59  86 111 149 193 241 289 346
#     4  10  21  35  55  83 117 159 196 229 281 347
#     4   8  15  32  58  87 120 156 193 232 278 337
#     4   9  18  35  61  92 123 151 185 235 290 341
#     4  10  21  37  56  78 111 152 194 236 284 344
#     4  12  23  35  55  83 119 151 192 241 288 338
#
# _framework density 20.540174
#
# number of rings (size 3 to 8) (size 9 to 14) (size 15 to 20)
#    0.000    2.000    1.429    3.429    2.000    3.429 
#    0.000    2.143    0.000    4.714    0.000    0.000 
#    0.000    1.143    0.000    0.000    0.000    0.000 
#
# Total GULP energy -694206.031005 kJ/mol
# GULP energy per Si atom -12396.536268 kJ/mol
# Density = 2.049342 g / cm^3
# Si number density = 20.540174 Si / 1000 Ang^3
#
#
#
# Elastic Constant Matrix: (Units=GPa)
#
#
# Indices 1 2 3 4 5 6 
#
# 1 112.3885 31.8972 51.6280 0.0000 0.0000 0.0000
# 2 31.8972 94.7895 41.4114 0.0000 0.0000 0.0000
# 3 51.6280 41.4114 80.3763 0.0000 0.0000 0.0000
# 4 0.0000 0.0000 0.0000 14.2951 0.0000 0.0000
# 5 0.0000 0.0000 0.0000 0.0000 44.2798 0.0000
# 6 0.0000 0.0000 0.0000 0.0000 0.0000 13.8920
#
#
#
# Elastic Compliance Matrix: (Units=1/GPa)
#
#
# Indices 1 2 3 4 5 6 
#
# 1 0.012683 -0.000915 -0.007676 0.000000 0.000000 0.000000
# 2 -0.000915 0.013680 -0.006461 0.000000 0.000000 0.000000
# 3 -0.007676 -0.006461 0.020700 0.000000 0.000000 0.000000
# 4 0.000000 0.000000 0.000000 0.069954 0.000000 0.000000
# 5 0.000000 0.000000 0.000000 0.000000 0.022584 0.000000
# 6 0.000000 0.000000 0.000000 0.000000 0.000000 0.071984
#
#
# Mechanical properties :
#
#
# Convention : Reuss Voigt Hill
#
# Bulk Modulus (GPa) = 58.95603 59.71417 59.33510
# Shear Modulus (GPa) = 20.21501 25.33456 22.77479
#
# Velocity S-wave (km/s) = 3.14055 3.51581 3.33347
# Velocity P-wave (km/s) = 6.47425 6.75398 6.61559
#
# Compressibility (1/GPa) = 0.01696179
#
# Stress axis : x y z
#
# Youngs Moduli (GPa) = 78.84424 73.09933 48.30833
#
# Poissons Ratio (x) = 0.06686 0.37079
# Poissons Ratio (y) = 0.07212 0.31210
# Poissons Ratio (z) = 0.60517 0.47227
#
# Static dielectric constant tensor:
#      x y z
#    x 3.861940 0.000000 0.000000 
#    y 0.000000 3.823960 0.000000 
#    z 0.000000 0.000000 3.709520 
# 
# 
# High freq. dielectric constant tensor:
#      x y z
#    x 1.798880 0.000000 0.000000 
#    y 0.000000 1.797690 0.000000 
#    z 0.000000 0.000000 1.794820 
# 
# From -- ./inp_files/32880.got.cif
#   From: 2010.03.12/outbox.cif.g09.slc.cpg/sg74_17_cif.got.tgz:32880.got - 2010.04.16 15:46:19.
