data_PCOD8300094
_publ_section_title
;
Structure prediction by ZEFSAII (Michael W. Deem and Ramdas Pophale) SiO2 
 PCOD8300094
Probable space group: I M M A
;
_chemical_formula_sum "Si O2"
_cell_formula_units_Z 80
_cell_length_a 17.497679
_cell_length_b 29.013196
_cell_length_c 8.130616
_cell_angle_alpha 90.000000
_cell_angle_beta 90.000000
_cell_angle_gamma 90.000000
_cell_volume 4127.617710
_symmetry_space_group_name_H-M "I M M A"
_symmetry_group_IT_number 74
_symmetry_cell_setting 'orthorhombic'
loop_
_space_group_symop_operation_xyz
x,y,z
-x,1/2-y,z
x,-y,-z
-x,1/2+y,-z
-x,-y,-z
x,1/2+y,-z
-x,y,z
x,1/2-y,z
1/2+x,1/2+y,1/2+z
1/2-x,-y,1/2+z
1/2+x,1/2-y,1/2-z
1/2-x,y,1/2-z
1/2-x,1/2-y,1/2-z
1/2+x,y,1/2-z
1/2-x,1/2+y,1/2+z
1/2+x,-y,1/2+z
loop_
_atom_site_type_symbol
_atom_site_label
_atom_site_fract_x
_atom_site_fract_y
_atom_site_fract_z
Si Si1 0.088876 0.957093 0.904719
Si Si2 0.409823 0.861821 0.438385
Si Si3 0.315839 0.625518 0.133712
Si Si4 0.314774 0.956400 0.887598
Si Si5 0.275212 0.303837 0.434499
O O1 0.106924 0.963680 0.712428
O O2 0.000000 0.958027 0.934047
O O3 0.119862 0.909268 0.978883
O O4 0.127765 0.000000 0.000000
O O5 0.500000 0.852436 0.463699
O O6 0.391331 0.864147 0.242925
O O7 0.360950 0.822156 0.528676
O O8 0.250000 0.604699 0.250000
O O9 0.331747 0.588465 0.994196
O O10 0.286611 0.673211 0.055279
O O11 0.250000 0.947587 0.750000
O O12 0.294745 0.000000 0.000000
O O13 0.274494 0.250000 0.470639
O O14 0.250000 0.315424 0.250000
#
# Coordination Sequence:
#
# PCOD8300094 Si02
#       5
#    16  16  16  16  16
#     4  10  21  37  54  74 107 147 181 216 266 326
#     4  10  21  37  58  84 112 143 183 231 276 321
#     4  10  20  35  55  79 109 143 180 221 270 329
#     4  12  22  33  53  80 110 144 184 230 271 312
#     4  10  21  39  61  82 108 145 184 222 274 339
#
# _framework density 19.381640999999998
#
# number of rings (size 3 to 8) (size 9 to 14) (size 15 to 20)
#    0.000    1.600    0.000    6.600    0.000    5.200 
#    0.000    1.000    0.000    1.200    0.000    0.000 
#    0.000    0.000    0.000    0.000    0.000    0.000 
#
# Total GULP energy -495943.206028 kJ/mol
# GULP energy per Si atom -12398.580151 kJ/mol
# Density = 1.933753 g / cm^3
# Si number density = 19.381641 Si / 1000 Ang^3
#
#
#
# Elastic Constant Matrix: (Units=GPa)
#
#
# Indices 1 2 3 4 5 6 
#
# 1 64.3798 44.1759 44.8984 0.0027 -0.0026 -0.0009
# 2 44.1759 122.7422 65.7214 -0.0020 -0.0005 -0.0028
# 3 44.8984 65.7214 137.0034 0.0070 -0.0051 -0.0077
# 4 0.0027 -0.0020 0.0070 38.7019 -0.0003 -0.0039
# 5 -0.0026 -0.0005 -0.0051 -0.0003 31.4556 -0.0013
# 6 -0.0009 -0.0028 -0.0077 -0.0039 -0.0013 16.7051
#
#
#
# Elastic Compliance Matrix: (Units=1/GPa)
#
#
# Indices 1 2 3 4 5 6 
#
# 1 0.022703 -0.005634 -0.004737 -0.000001 0.000001 -0.000002
# 2 -0.005634 0.012361 -0.004083 0.000002 -0.000001 0.000000
# 3 -0.004737 -0.004083 0.010810 -0.000002 0.000001 0.000004
# 4 -0.000001 0.000002 -0.000002 0.025839 0.000000 0.000006
# 5 0.000001 -0.000001 0.000001 0.000000 0.031791 0.000003
# 6 -0.000002 0.000000 0.000004 0.000006 0.000003 0.059862
#
#
# Mechanical properties :
#
#
# Convention : Reuss Voigt Hill
#
# Bulk Modulus (GPa) = 58.94637 70.41299 64.67968
# Shear Modulus (GPa) = 25.26140 28.66119 26.96129
#
# Velocity S-wave (km/s) = 3.61413 3.84966 3.73376
# Velocity P-wave (km/s) = 6.92066 7.49456 7.21332
#
# Compressibility (1/GPa) = 0.01696457
#
# Stress axis : x y z
#
# Youngs Moduli (GPa) = 44.04757 80.89683 92.50373
#
# Poissons Ratio (x) = 0.45580 0.43821
# Poissons Ratio (y) = 0.24818 0.37773
# Poissons Ratio (z) = 0.20866 0.33033
#
# Static dielectric constant tensor:
#      x y z
#    x 3.422230 0.000000 -0.000010 
#    y 0.000000 3.629290 -0.000010 
#    z -0.000010 -0.000010 3.981840 
# 
# 
# High freq. dielectric constant tensor:
#      x y z
#    x 1.744380 0.000000 0.000000 
#    y 0.000000 1.755820 0.000000 
#    z 0.000000 0.000000 1.769710 
# 
# From -- ./inp_files/10919.got.cif
#   From: 2010.03.12/outbox.cif.g09.slc.cpg/sg74_6_cif.got.tgz:10919.got - 2010.04.16 15:46:19.
