data_PCOD8300619
_publ_section_title
;
Structure prediction by ZEFSAII (Michael W. Deem and Ramdas Pophale) SiO2 
 PCOD8300619
Probable space group: I M M A
;
_chemical_formula_sum "Si O2"
_cell_formula_units_Z 88
_cell_length_a 26.604618
_cell_length_b 8.913514
_cell_length_c 19.199816
_cell_angle_alpha 90.000000
_cell_angle_beta 90.000000
_cell_angle_gamma 90.000000
_cell_volume 4553.056558
_symmetry_space_group_name_H-M "I M M A"
_symmetry_group_IT_number 74
_symmetry_cell_setting 'orthorhombic'
loop_
_space_group_symop_operation_xyz
x,y,z
-x,1/2-y,z
x,-y,-z
-x,1/2+y,-z
-x,-y,-z
x,1/2+y,-z
-x,y,z
x,1/2-y,z
1/2+x,1/2+y,1/2+z
1/2-x,-y,1/2+z
1/2+x,1/2-y,1/2-z
1/2-x,y,1/2-z
1/2-x,1/2-y,1/2-z
1/2+x,y,1/2-z
1/2-x,1/2+y,1/2+z
1/2+x,-y,1/2+z
loop_
_atom_site_type_symbol
_atom_site_label
_atom_site_fract_x
_atom_site_fract_y
_atom_site_fract_z
Si Si1 0.500000 0.073802 0.425097
Si Si2 0.559630 0.419809 0.069474
Si Si3 0.720275 0.075925 0.181202
Si Si4 0.806046 0.575874 0.926047
Si Si5 0.615059 0.572593 0.193596
Si Si6 0.598105 0.572299 0.659510
O O1 0.500000 0.250000 0.436537
O O2 0.451017 0.022035 0.382791
O O3 0.500000 0.000000 0.500000
O O4 0.500000 0.418776 0.069752
O O5 0.580831 0.250000 0.071924
O O6 0.577433 0.512367 0.135674
O O7 0.580381 0.500000 0.000000
O O8 0.704581 0.250000 0.186310
O O9 0.750000 0.027314 0.250000
O O10 0.754704 0.042742 0.114625
O O11 0.671214 0.975858 0.174052
O O12 0.814442 0.750000 0.938621
O O13 0.853229 0.513470 0.882316
O O14 0.802699 0.500000 0.000000
O O15 0.611930 0.750000 0.196461
O O16 0.596775 0.506748 0.266459
O O17 0.600256 0.750000 0.671876
#
# Coordination Sequence:
#
# PCOD8300619 Si02
#       6
#     8  16  16  16  16  16
#     4  10  22  38  62  88 121 160 201 252 302 358
#     4  10  22  42  67  92 122 160 200 246 300 361
#     4  10  20  40  63  82 114 160 203 247 299 356
#     4  10  21  37  61  87 117 155 198 248 299 358
#     4  12  25  38  60  93 126 159 199 254 303 357
#     4  10  21  40  60  86 120 163 208 243 296 362
#
# _framework density 19.327674999999999
#
# number of rings (size 3 to 8) (size 9 to 14) (size 15 to 20)
#    0.000    1.636    1.818    2.727    1.273    4.364 
#    0.000    1.818    0.000    0.000    0.000    0.000 
#    0.000    0.000    0.000    0.000    0.000    0.000 
#
# Total GULP energy -545812.109985 kJ/mol
# GULP energy per Si atom -12404.820681 kJ/mol
# Density = 1.928368 g / cm^3
# Si number density = 19.327675 Si / 1000 Ang^3
#
#
#
# Elastic Constant Matrix: (Units=GPa)
#
#
# Indices 1 2 3 4 5 6 
#
# 1 73.2259 36.6776 44.2880 0.0000 0.0000 0.0000
# 2 36.6776 84.0004 62.2542 0.0000 0.0000 0.0000
# 3 44.2880 62.2542 171.9181 0.0000 0.0000 0.0000
# 4 0.0000 0.0000 0.0000 41.3014 0.0000 0.0000
# 5 0.0000 0.0000 0.0000 0.0000 75.5827 0.0000
# 6 0.0000 0.0000 0.0000 0.0000 0.0000 20.6778
#
#
#
# Elastic Compliance Matrix: (Units=1/GPa)
#
#
# Indices 1 2 3 4 5 6 
#
# 1 0.018220 -0.006119 -0.002478 0.000000 0.000000 0.000000
# 2 -0.006119 0.018327 -0.005060 0.000000 0.000000 0.000000
# 3 -0.002478 -0.005060 0.008287 0.000000 0.000000 0.000000
# 4 0.000000 0.000000 0.000000 0.024212 0.000000 0.000000
# 5 0.000000 0.000000 0.000000 0.000000 0.013231 0.000000
# 6 0.000000 0.000000 0.000000 0.000000 0.000000 0.048361
#
#
# Mechanical properties :
#
#
# Convention : Reuss Voigt Hill
#
# Bulk Modulus (GPa) = 57.07761 68.39820 62.73790
# Shear Modulus (GPa) = 30.52660 39.90735 35.21697
#
# Velocity S-wave (km/s) = 3.97851 4.54891 4.27324
# Velocity P-wave (km/s) = 7.12042 7.94076 7.54175
#
# Compressibility (1/GPa) = 0.01752000
#
# Stress axis : x y z
#
# Youngs Moduli (GPa) = 54.88484 54.56560 120.66601
#
# Poissons Ratio (x) = 0.33389 0.29899
# Poissons Ratio (y) = 0.33585 0.61057
# Poissons Ratio (z) = 0.13600 0.27610
#
# Static dielectric constant tensor:
#      x y z
#    x 3.726770 0.000000 0.000000 
#    y 0.000000 3.518120 0.000000 
#    z 0.000000 0.000000 3.631980 
# 
# 
# High freq. dielectric constant tensor:
#      x y z
#    x 1.759960 0.000000 0.000000 
#    y 0.000000 1.745770 0.000000 
#    z 0.000000 0.000000 1.767570 
# 
# From -- ./inp_files/54521.got.cif
#   From: 2010.03.12/outbox.cif.g09.slc.cpg/sg74_28_cif.got.tgz:54521.got - 2010.04.16 15:46:19.
