data_PCOD8300163
_publ_section_title
;
Structure prediction by ZEFSAII (Michael W. Deem and Ramdas Pophale) SiO2 
 PCOD8300163
Probable space group: I M M A
;
_chemical_formula_sum "Si O2"
_cell_formula_units_Z 112
_cell_length_a 17.292685
_cell_length_b 27.522452
_cell_length_c 12.431552
_cell_angle_alpha 90.000000
_cell_angle_beta 90.000000
_cell_angle_gamma 90.000000
_cell_volume 5916.636719
_symmetry_space_group_name_H-M "I M M A"
_symmetry_group_IT_number 74
_symmetry_cell_setting 'orthorhombic'
loop_
_space_group_symop_operation_xyz
x,y,z
-x,1/2-y,z
x,-y,-z
-x,1/2+y,-z
-x,-y,-z
x,1/2+y,-z
-x,y,z
x,1/2-y,z
1/2+x,1/2+y,1/2+z
1/2-x,-y,1/2+z
1/2+x,1/2-y,1/2-z
1/2-x,y,1/2-z
1/2-x,1/2-y,1/2-z
1/2+x,y,1/2-z
1/2-x,1/2+y,1/2+z
1/2+x,-y,1/2+z
loop_
_atom_site_type_symbol
_atom_site_label
_atom_site_fract_x
_atom_site_fract_y
_atom_site_fract_z
Si Si1 0.410174 0.194697 0.954851
Si Si2 0.088114 0.450029 0.264108
Si Si3 0.908736 0.106758 0.867721
Si Si4 0.180494 0.551963 0.953270
Si Si5 0.162267 0.805136 0.225381
Si Si6 0.161527 0.603614 0.550017
Si Si7 0.587804 0.945058 0.151867
O O1 0.500000 0.180905 0.972483
O O2 0.393422 0.250000 0.990464
O O3 0.391202 0.187544 0.829647
O O4 0.354161 0.160308 0.024864
O O5 0.140838 0.456831 0.160683
O O6 0.116190 0.406192 0.339285
O O7 0.095743 0.497452 0.337887
O O8 0.000000 0.441274 0.227212
O O9 0.870436 0.160303 0.868722
O O10 0.879813 0.080274 0.759312
O O11 0.000000 0.111122 0.874176
O O12 0.882232 0.075407 0.968487
O O13 0.248806 0.590675 0.935204
O O14 0.209259 0.500000 0.000000
O O15 0.158218 0.750000 0.182691
O O16 0.250000 0.820024 0.250000
O O17 0.135062 0.570988 0.450789
O O18 0.500000 0.928749 0.133191
#
# Coordination Sequence:
#
# PCOD8300163 Si02
#       7
#    16  16  16  16  16  16  16
#     4  10  20  36  60  87 115 149 189 236 295 355
#     4  11  23  40  60  81 114 157 202 243 283 344
#     4  11  22  36  58  84 116 159 199 238 283 341
#     4  12  25  40  58  81 118 163 201 234 283 354
#     4  10  20  35  56  87 122 155 193 240 295 349
#     4  12  23  37  59  90 120 145 186 249 304 344
#     4  10  20  35  57  85 115 149 189 237 292 341
#
# _framework density 18.929673999999999
#
# number of rings (size 3 to 8) (size 9 to 14) (size 15 to 20)
#    0.000    1.143    2.857    4.714    0.000    2.571 
#    0.000    0.000    0.000    2.571    0.000    0.000 
#    0.000    0.000    0.000    0.000    0.000    0.000 
#
# Total GULP energy -694571.234256 kJ/mol
# GULP energy per Si atom -12403.057755 kJ/mol
# Density = 1.888659 g / cm^3
# Si number density = 18.929674 Si / 1000 Ang^3
#
#
#
# Elastic Constant Matrix: (Units=GPa)
#
#
# Indices 1 2 3 4 5 6 
#
# 1 100.5437 39.0998 25.9811 0.0000 0.0000 0.0000
# 2 39.0998 106.4953 21.3451 0.0001 0.0000 0.0000
# 3 25.9811 21.3451 69.3092 0.0001 0.0000 0.0000
# 4 0.0000 0.0001 0.0001 22.2974 0.0000 0.0000
# 5 0.0000 0.0000 0.0000 0.0000 28.5494 0.0000
# 6 0.0000 0.0000 0.0000 0.0000 0.0000 31.0345
#
#
#
# Elastic Compliance Matrix: (Units=1/GPa)
#
#
# Indices 1 2 3 4 5 6 
#
# 1 0.012327 -0.003836 -0.003439 0.000000 0.000000 0.000000
# 2 -0.003836 0.011202 -0.002012 0.000000 0.000000 0.000000
# 3 -0.003439 -0.002012 0.016337 0.000000 0.000000 0.000000
# 4 0.000000 0.000000 0.000000 0.044848 0.000000 0.000000
# 5 0.000000 0.000000 0.000000 0.000000 0.035027 0.000000
# 6 0.000000 0.000000 0.000000 0.000000 0.000000 0.032222
#
#
# Mechanical properties :
#
#
# Convention : Reuss Voigt Hill
#
# Bulk Modulus (GPa) = 46.96908 49.91116 48.44012
# Shear Modulus (GPa) = 28.14772 29.03772 28.59272
#
# Velocity S-wave (km/s) = 3.86030 3.92085 3.89069
# Velocity P-wave (km/s) = 6.68846 6.84991 6.76967
#
# Compressibility (1/GPa) = 0.02129060
#
# Stress axis : x y z
#
# Youngs Moduli (GPa) = 81.12579 89.27113 61.21124
#
# Poissons Ratio (x) = 0.34248 0.21052
# Poissons Ratio (y) = 0.31123 0.12314
# Poissons Ratio (z) = 0.27901 0.17959
#
# Static dielectric constant tensor:
#      x y z
#    x 3.540250 0.000000 0.000000 
#    y 0.000000 3.634130 0.000000 
#    z 0.000000 0.000000 3.307620 
# 
# 
# High freq. dielectric constant tensor:
#      x y z
#    x 1.745660 0.000000 0.000000 
#    y 0.000000 1.736790 0.000000 
#    z 0.000000 0.000000 1.715440 
# 
# From -- ./inp_files/21118.got.cif
#   From: 2010.03.12/outbox.cif.g09.slc.cpg/sg74_11_cif.got.tgz:21118.got - 2010.04.16 15:46:19.
