data_PCOD8300022
_publ_section_title
;
Structure prediction by ZEFSAII (Michael W. Deem and Ramdas Pophale) SiO2 
 PCOD8300022
Probable space group: I M M A
;
_chemical_formula_sum "Si O2"
_cell_formula_units_Z 80
_cell_length_a 23.040324
_cell_length_b 9.440210
_cell_length_c 19.182608
_cell_angle_alpha 90.000000
_cell_angle_beta 90.000000
_cell_angle_gamma 90.000000
_cell_volume 4172.322687
_symmetry_space_group_name_H-M "I M M A"
_symmetry_group_IT_number 74
_symmetry_cell_setting 'orthorhombic'
loop_
_space_group_symop_operation_xyz
x,y,z
-x,1/2-y,z
x,-y,-z
-x,1/2+y,-z
-x,-y,-z
x,1/2+y,-z
-x,y,z
x,1/2-y,z
1/2+x,1/2+y,1/2+z
1/2-x,-y,1/2+z
1/2+x,1/2-y,1/2-z
1/2-x,y,1/2-z
1/2-x,1/2-y,1/2-z
1/2+x,y,1/2-z
1/2-x,1/2+y,1/2+z
1/2+x,-y,1/2+z
loop_
_atom_site_type_symbol
_atom_site_label
_atom_site_fract_x
_atom_site_fract_y
_atom_site_fract_z
Si Si1 0.346918 0.579651 0.072087
Si Si2 0.132260 0.409657 0.194669
Si Si3 0.431685 0.417730 0.165790
Si Si4 0.934766 0.408209 0.058212
Si Si5 0.261066 0.093828 0.668556
O O1 0.354195 0.750000 0.062305
O O2 0.406179 0.510775 0.102244
O O3 0.294879 0.541421 0.125450
O O4 0.332607 0.500000 0.000000
O O5 0.153239 0.250000 0.207878
O O6 0.103873 0.469098 0.265687
O O7 0.083349 0.422866 0.137418
O O8 0.185496 0.490199 0.159172
O O9 0.500000 0.451943 0.174160
O O10 0.422827 0.250000 0.152045
O O11 0.928017 0.250000 0.031138
O O12 0.000000 0.462963 0.060260
O O13 0.900025 0.500000 0.000000
O O14 0.278345 0.250000 0.641784
O O15 0.250000 0.096764 0.750000
#
# Coordination Sequence:
#
# PCOD8300022 Si02
#       5
#    16  16  16  16  16
#     4  11  24  42  63  87 118 154 194 240 291 347
#     4  10  20  34  58  87 115 149 192 238 284 340
#     4  10  21  38  61  89 119 153 195 242 292 346
#     4   9  18  33  51  75 111 151 189 231 279 329
#     4  10  21  39  60  83 114 149 185 232 286 335
#
# _framework density 19.173973
#
# number of rings (size 3 to 8) (size 9 to 14) (size 15 to 20)
#    0.000    2.000    2.000    1.200    0.000    6.800 
#    0.000    4.000    0.000    3.600    0.000    0.000 
#    0.000    0.000    0.000    0.000    0.000    0.000 
#
# Total GULP energy -495671.608784 kJ/mol
# GULP energy per Si atom -12391.790220 kJ/mol
# Density = 1.913033 g / cm^3
# Si number density = 19.173973 Si / 1000 Ang^3
#
#
#
# Elastic Constant Matrix: (Units=GPa)
#
#
# Indices 1 2 3 4 5 6 
#
# 1 104.6895 58.0347 50.8275 0.0000 0.0000 0.0000
# 2 58.0347 69.2947 12.8764 0.0000 0.0000 0.0000
# 3 50.8275 12.8764 2.5625 0.0000 0.0000 0.0000
# 4 0.0000 0.0000 0.0000 32.7803 0.0000 0.0000
# 5 0.0000 0.0000 0.0000 0.0000 16.5482 0.0000
# 6 0.0000 0.0000 0.0000 0.0000 0.0000 35.7938
#
#
#
# Elastic Compliance Matrix: (Units=1/GPa)
#
#
# Indices 1 2 3 4 5 6 
#
# 1 -0.000107 -0.004579 0.025122 0.000000 0.000000 0.000000
# 2 -0.004579 0.020961 -0.014502 0.000000 0.000000 0.000000
# 3 0.025122 -0.014502 -0.035186 0.000000 0.000000 0.000000
# 4 0.000000 0.000000 0.000000 0.030506 0.000000 0.000000
# 5 0.000000 0.000000 0.000000 0.000000 0.060429 0.000000
# 6 0.000000 0.000000 0.000000 0.000000 0.000000 0.027938
#
#
# Mechanical properties :
#
#
# Convention : Reuss Voigt Hill
#
# Bulk Modulus (GPa) = -444.66861 46.66934 -198.99963
# Shear Modulus (GPa) = 54.52038 20.67834 37.59936
#
# Velocity S-wave (km/s) = 5.33819 3.28755 4.43307
# Velocity P-wave (km/s) = 13.94349 6.22924 8.82093
#
# Compressibility (1/GPa) = -0.00224887
#
# Stress axis : x y z
#
# Youngs Moduli (GPa) = -9388.19672 47.70820 -28.42029
#
# Poissons Ratio (x) = 0.21846 0.71398
# Poissons Ratio (y) = -42.98863 -0.41214
# Poissons Ratio (z) = 235.85107 0.69184
#
# Static dielectric constant tensor:
#      x y z
#    x 3.958180 0.000000 0.000000 
#    y 0.000000 3.706910 0.000000 
#    z 0.000000 0.000000 3.611920 
# 
# 
# High freq. dielectric constant tensor:
#      x y z
#    x 1.739310 0.000000 0.000000 
#    y 0.000000 1.744360 0.000000 
#    z 0.000000 0.000000 1.753650 
# 
# From -- ./inp_files/46482.got.cif
#   From: 2010.03.12/outbox.cif.g09.slc.cpg/sg74_24_cif.got.tgz:46482.got - 2010.04.16 15:46:19.
