data_PCOD8300166
_publ_section_title
;
Structure prediction by ZEFSAII (Michael W. Deem and Ramdas Pophale) SiO2 
 PCOD8300166
Probable space group: I M M A
;
_chemical_formula_sum "Si O2"
_cell_formula_units_Z 88
_cell_length_a 9.310962
_cell_length_b 23.880612
_cell_length_c 20.258099
_cell_angle_alpha 90.000000
_cell_angle_beta 90.000000
_cell_angle_gamma 90.000000
_cell_volume 4504.418110
_symmetry_space_group_name_H-M "I M M A"
_symmetry_group_IT_number 74
_symmetry_cell_setting 'orthorhombic'
loop_
_space_group_symop_operation_xyz
x,y,z
-x,1/2-y,z
x,-y,-z
-x,1/2+y,-z
-x,-y,-z
x,1/2+y,-z
-x,y,z
x,1/2-y,z
1/2+x,1/2+y,1/2+z
1/2-x,-y,1/2+z
1/2+x,1/2-y,1/2-z
1/2-x,y,1/2-z
1/2-x,1/2-y,1/2-z
1/2+x,y,1/2-z
1/2-x,1/2+y,1/2+z
1/2+x,-y,1/2+z
loop_
_atom_site_type_symbol
_atom_site_label
_atom_site_fract_x
_atom_site_fract_y
_atom_site_fract_z
Si Si1 0.344076 0.486518 0.306533
Si Si2 0.329246 0.344257 0.928170
Si Si3 0.341282 0.644401 0.690648
Si Si4 0.829984 0.962030 0.060938
Si Si5 0.160364 0.186950 0.054131
Si Si6 0.830868 0.750000 0.321115
O O1 0.500000 0.514254 0.299500
O O2 0.250000 0.515627 0.250000
O O3 0.351388 0.420901 0.295603
O O4 0.283081 0.499669 0.378114
O O5 0.500000 0.351106 0.933420
O O6 0.253868 0.404455 0.927647
O O7 0.289835 0.305563 0.864305
O O8 0.270309 0.314914 0.993779
O O9 0.500000 0.671491 0.692190
O O10 0.250000 0.672417 0.750000
O O11 0.275266 0.653902 0.617544
O O12 0.000000 0.949814 0.055232
O O13 0.776776 0.000000 0.000000
O O14 0.145180 0.250000 0.077744
O O15 0.000000 0.163380 0.034929
O O16 0.750000 0.750000 0.250000
O O17 0.000000 0.750000 0.306059
#
# Coordination Sequence:
#
# PCOD8300166 Si02
#       6
#    16  16  16  16  16   8
#     4   9  18  33  53  75 106 144 180 224 275 330
#     4  11  23  40  60  86 120 151 190 247 304 356
#     4   9  18  33  52  78 111 148 189 230 274 325
#     4  10  21  38  60  86 116 152 196 242 290 352
#     4  10  20  35  57  81 108 148 194 234 277 338
#     4  10  24  44  64  88 119 156 201 256 311 368
#
# _framework density 19.536373000000001
#
# number of rings (size 3 to 8) (size 9 to 14) (size 15 to 20)
#    0.000    2.182    0.909    1.636    0.000    7.273 
#    0.000    7.273    0.000    0.000    0.000    0.000 
#    0.000    0.000    0.000    0.000    0.000    0.000 
#
# Total GULP energy -545169.974187 kJ/mol
# GULP energy per Si atom -12390.226686 kJ/mol
# Density = 1.949191 g / cm^3
# Si number density = 19.536373 Si / 1000 Ang^3
#
#
#
# Elastic Constant Matrix: (Units=GPa)
#
#
# Indices 1 2 3 4 5 6 
#
# 1 78.1803 40.1992 73.9204 0.0000 0.0000 0.0000
# 2 40.1992 65.3003 42.8351 0.0000 0.0000 0.0000
# 3 73.9204 42.8351 187.1919 0.0001 0.0000 0.0000
# 4 0.0000 0.0000 0.0001 34.1065 0.0000 0.0000
# 5 0.0000 0.0000 0.0000 0.0000 37.9576 0.0000
# 6 0.0000 0.0000 0.0000 0.0000 0.0000 26.7456
#
#
#
# Elastic Compliance Matrix: (Units=1/GPa)
#
#
# Indices 1 2 3 4 5 6 
#
# 1 0.025496 -0.010697 -0.007621 0.000000 0.000000 0.000000
# 2 -0.010697 0.022506 -0.000926 0.000000 0.000000 0.000000
# 3 -0.007621 -0.000926 0.008563 0.000000 0.000000 0.000000
# 4 0.000000 0.000000 0.000000 0.029320 0.000000 0.000000
# 5 0.000000 0.000000 0.000000 0.000000 0.026345 0.000000
# 6 0.000000 0.000000 0.000000 0.000000 0.000000 0.037389
#
#
# Mechanical properties :
#
#
# Convention : Reuss Voigt Hill
#
# Bulk Modulus (GPa) = 55.31218 71.62020 63.46619
# Shear Modulus (GPa) = 25.75543 31.34313 28.54928
#
# Velocity S-wave (km/s) = 3.63482 4.00978 3.82689
# Velocity P-wave (km/s) = 6.78158 7.62740 7.21689
#
# Compressibility (1/GPa) = 0.01807920
#
# Stress axis : x y z
#
# Youngs Moduli (GPa) = 39.22119 44.43190 116.77743
#
# Poissons Ratio (x) = 0.47528 0.88991
# Poissons Ratio (y) = 0.41954 0.10814
# Poissons Ratio (z) = 0.29889 0.04115
#
# Static dielectric constant tensor:
#      x y z
#    x 3.834000 0.000000 0.000000 
#    y 0.000000 3.541300 0.000000 
#    z 0.000000 0.000000 3.890270 
# 
# 
# High freq. dielectric constant tensor:
#      x y z
#    x 1.749130 0.000000 0.000000 
#    y 0.000000 1.754080 0.000000 
#    z 0.000000 0.000000 1.773820 
# 
# From -- ./inp_files/48702.got.cif
#   From: 2010.03.12/outbox.cif.g09.slc.cpg/sg74_25_cif.got.tgz:48702.got - 2010.04.16 15:46:19.
