data_PCOD8300409
_publ_section_title
;
Structure prediction by ZEFSAII (Michael W. Deem and Ramdas Pophale) SiO2 
 PCOD8300409
Probable space group: I M M A
;
_chemical_formula_sum "Si O2"
_cell_formula_units_Z 128
_cell_length_a 18.564573
_cell_length_b 21.803874
_cell_length_c 17.237552
_cell_angle_alpha 90.000000
_cell_angle_beta 90.000000
_cell_angle_gamma 90.000000
_cell_volume 6977.409585
_symmetry_space_group_name_H-M "I M M A"
_symmetry_group_IT_number 74
_symmetry_cell_setting 'orthorhombic'
loop_
_space_group_symop_operation_xyz
x,y,z
-x,1/2-y,z
x,-y,-z
-x,1/2+y,-z
-x,-y,-z
x,1/2+y,-z
-x,y,z
x,1/2-y,z
1/2+x,1/2+y,1/2+z
1/2-x,-y,1/2+z
1/2+x,1/2-y,1/2-z
1/2-x,y,1/2-z
1/2-x,1/2-y,1/2-z
1/2+x,y,1/2-z
1/2-x,1/2+y,1/2+z
1/2+x,-y,1/2+z
loop_
_atom_site_type_symbol
_atom_site_label
_atom_site_fract_x
_atom_site_fract_y
_atom_site_fract_z
Si Si1 0.212091 0.968092 0.166281
Si Si2 0.585949 0.624898 0.817129
Si Si3 0.209061 0.679544 0.590617
Si Si4 0.418739 0.002720 0.892114
Si Si5 0.308979 0.897595 0.686048
Si Si6 0.320501 0.097579 0.945576
Si Si7 0.921109 0.078041 0.763737
Si Si8 0.581032 0.319135 0.845125
O O1 0.250000 0.963889 0.250000
O O2 0.254176 0.929601 0.102428
O O3 0.135038 0.934858 0.169031
O O4 0.194667 0.038013 0.138815
O O5 0.500000 0.640967 0.815489
O O6 0.636392 0.677111 0.855801
O O7 0.602011 0.567068 0.873503
O O8 0.613311 0.613430 0.728320
O O9 0.216750 0.750000 0.561930
O O10 0.282758 0.661057 0.636068
O O11 0.206287 0.628835 0.523642
O O12 0.500000 0.008890 0.919720
O O13 0.373044 0.038320 0.958977
O O14 0.402695 0.038423 0.812546
O O15 0.250000 0.908605 0.750000
O O16 0.362635 0.151796 0.903418
O O17 0.916838 0.149071 0.739092
O O18 0.000000 0.060441 0.795301
O O19 0.500000 0.324903 0.880363
O O20 0.604592 0.250000 0.831683
#
# Coordination Sequence:
#
# PCOD8300409 Si02
#       8
#    16  16  16  16  16  16  16  16
#     4  11  17  30  53  85 108 133 183 232 272 320
#     4  10  20  36  61  89 109 131 172 227 283 341
#     4  11  25  40  51  71 110 155 189 221 269 325
#     4   9  16  29  51  81 112 136 164 208 273 332
#     4   9  19  35  57  80 105 136 169 224 283 334
#     4  11  20  32  50  74 110 150 188 223 256 310
#     4   9  16  28  48  75 107 138 164 216 276 315
#     4   9  17  29  45  68 104 149 185 209 250 309
#
# _framework density 18.344918
#
# number of rings (size 3 to 8) (size 9 to 14) (size 15 to 20)
#    0.000    2.125    3.750    3.000    0.000    5.500 
#    0.000    3.125    0.000    0.750    0.000    1.750 
#    0.000    0.000    0.000    0.000    0.000    0.000 
#
# Total GULP energy -792851.822647 kJ/mol
# GULP energy per Si atom -12388.309729 kJ/mol
# Density = 1.830316 g / cm^3
# Si number density = 18.344918 Si / 1000 Ang^3
#
#
#
# Elastic Constant Matrix: (Units=GPa)
#
#
# Indices 1 2 3 4 5 6 
#
# 1 63.5129 27.0324 32.9540 0.0000 0.0000 0.0000
# 2 27.0324 85.9334 30.4891 0.0000 0.0000 0.0000
# 3 32.9540 30.4891 53.8452 0.0000 0.0000 0.0000
# 4 0.0000 0.0000 0.0000 15.3742 0.0000 0.0000
# 5 0.0000 0.0000 0.0000 0.0000 11.5166 0.0000
# 6 0.0000 0.0000 0.0000 0.0000 0.0000 18.9571
#
#
#
# Elastic Compliance Matrix: (Units=1/GPa)
#
#
# Indices 1 2 3 4 5 6 
#
# 1 0.023627 -0.002881 -0.012829 0.000000 0.000000 0.000000
# 2 -0.002881 0.014914 -0.006682 0.000000 0.000000 0.000000
# 3 -0.012829 -0.006682 0.030207 0.000000 0.000000 0.000000
# 4 0.000000 0.000000 0.000000 0.065044 0.000000 0.000000
# 5 0.000000 0.000000 0.000000 0.000000 0.086831 0.000000
# 6 0.000000 0.000000 0.000000 0.000000 0.000000 0.052751
#
#
# Mechanical properties :
#
#
# Convention : Reuss Voigt Hill
#
# Bulk Modulus (GPa) = 41.72778 42.69363 42.21070
# Shear Modulus (GPa) = 15.33060 16.69065 16.01062
#
# Velocity S-wave (km/s) = 2.89396 3.01960 2.95745
# Velocity P-wave (km/s) = 5.82772 5.95656 5.89249
#
# Compressibility (1/GPa) = 0.02396485
#
# Stress axis : x y z
#
# Youngs Moduli (GPa) = 42.32374 67.05211 33.10528
#
# Poissons Ratio (x) = 0.19317 0.42471
# Poissons Ratio (y) = 0.12193 0.22120
# Poissons Ratio (z) = 0.54297 0.44801
#
# Static dielectric constant tensor:
#      x y z
#    x 4.191110 0.000000 0.000000 
#    y 0.000000 3.480110 0.000000 
#    z 0.000000 0.000000 3.189220 
# 
# 
# High freq. dielectric constant tensor:
#      x y z
#    x 1.706330 0.000000 0.000000 
#    y 0.000000 1.715640 0.000000 
#    z 0.000000 0.000000 1.668680 
# 
# From -- ./inp_files/44594.got.cif
#   From: 2010.03.12/outbox.cif.g09.slc.cpg/sg74_23_cif.got.tgz:44594.got - 2010.04.16 15:46:19.
