data_PCOD8300130
_publ_section_title
;
Structure prediction by ZEFSAII (Michael W. Deem and Ramdas Pophale) SiO2 
 PCOD8300130
Probable space group: I M M A
;
_chemical_formula_sum "Si O2"
_cell_formula_units_Z 96
_cell_length_a 17.624640
_cell_length_b 29.118257
_cell_length_c 9.223555
_cell_angle_alpha 90.000000
_cell_angle_beta 90.000000
_cell_angle_gamma 90.000000
_cell_volume 4733.517331
_symmetry_space_group_name_H-M "I M M A"
_symmetry_group_IT_number 74
_symmetry_cell_setting 'orthorhombic'
loop_
_space_group_symop_operation_xyz
x,y,z
-x,1/2-y,z
x,-y,-z
-x,1/2+y,-z
-x,-y,-z
x,1/2+y,-z
-x,y,z
x,1/2-y,z
1/2+x,1/2+y,1/2+z
1/2-x,-y,1/2+z
1/2+x,1/2-y,1/2-z
1/2-x,y,1/2-z
1/2-x,1/2-y,1/2-z
1/2+x,y,1/2-z
1/2-x,1/2+y,1/2+z
1/2+x,-y,1/2+z
loop_
_atom_site_type_symbol
_atom_site_label
_atom_site_fract_x
_atom_site_fract_y
_atom_site_fract_z
Si Si1 0.314390 0.533670 0.862134
Si Si2 0.676479 0.362040 0.163800
Si Si3 0.327443 0.197814 0.673931
Si Si4 0.413735 0.536514 0.602288
Si Si5 0.414818 0.802118 0.044309
Si Si6 0.912647 0.638588 0.943212
O O1 0.250000 0.517471 0.750000
O O2 0.303762 0.587521 0.903129
O O3 0.391060 0.532170 0.769949
O O4 0.318250 0.500000 0.000000
O O5 0.750000 0.343483 0.250000
O O6 0.652823 0.330089 0.031055
O O7 0.605194 0.357909 0.272488
O O8 0.314042 0.250000 0.619191
O O9 0.250000 0.179622 0.750000
O O10 0.352038 0.167141 0.536908
O O11 0.397432 0.195783 0.785152
O O12 0.369396 0.500000 0.500000
O O13 0.500000 0.522943 0.607777
O O14 0.399811 0.584996 0.522869
O O15 0.500000 0.822103 0.019491
O O16 0.411083 0.750000 0.987151
O O17 0.000000 0.654191 0.970034
#
# Coordination Sequence:
#
# PCOD8300130 Si02
#       6
#    16  16  16  16  16  16
#     4  10  21  37  57  82 113 148 188 234 284 341
#     4  10  21  37  56  82 113 147 188 236 287 338
#     4  10  21  37  57  83 114 148 189 236 283 335
#     4   9  19  36  55  78 110 145 184 232 284 338
#     4  10  21  37  56  80 113 150 189 238 290 338
#     4  10  20  35  56  80 109 146 187 232 281 338
#
# _framework density 20.280902000000001
#
# number of rings (size 3 to 8) (size 9 to 14) (size 15 to 20)
#    0.000    2.167    0.000    2.500    0.000    4.333 
#    0.000    3.333    0.000    0.000    0.000    0.000 
#    0.000    0.000    0.000    0.000    0.000    0.000 
#
# Total GULP energy -594782.977192 kJ/mol
# GULP energy per Si atom -12391.312025 kJ/mol
# Density = 2.023474 g / cm^3
# Si number density = 20.280902 Si / 1000 Ang^3
#
#
#
# Elastic Constant Matrix: (Units=GPa)
#
#
# Indices 1 2 3 4 5 6 
#
# 1 86.4196 43.7573 32.0526 0.0010 -0.0004 -0.0002
# 2 43.7573 67.9057 45.2960 -0.0006 0.0006 0.0002
# 3 32.0526 45.2960 81.6337 -0.0140 -0.0039 -0.0013
# 4 0.0010 -0.0006 -0.0140 36.4132 -0.0011 -0.0006
# 5 -0.0004 0.0006 -0.0039 -0.0011 34.3105 0.0003
# 6 -0.0002 0.0002 -0.0013 -0.0006 0.0003 26.9010
#
#
#
# Elastic Compliance Matrix: (Units=1/GPa)
#
#
# Indices 1 2 3 4 5 6 
#
# 1 0.017223 -0.010458 -0.000959 -0.000001 0.000000 0.000000
# 2 -0.010458 0.029730 -0.012390 -0.000004 -0.000002 -0.000001
# 3 -0.000959 -0.012390 0.019501 0.000007 0.000002 0.000001
# 4 -0.000001 -0.000004 0.000007 0.027463 0.000001 0.000001
# 5 0.000000 -0.000002 0.000002 0.000001 0.029146 0.000000
# 6 0.000000 -0.000001 0.000001 0.000001 0.000000 0.037173
#
#
# Mechanical properties :
#
#
# Convention : Reuss Voigt Hill
#
# Bulk Modulus (GPa) = 53.08125 53.13007 53.10566
# Shear Modulus (GPa) = 23.35036 27.18180 25.26608
#
# Velocity S-wave (km/s) = 3.39683 3.66494 3.53343
# Velocity P-wave (km/s) = 6.45093 6.64552 6.54895
#
# Compressibility (1/GPa) = 0.01883904
#
# Stress axis : x y z
#
# Youngs Moduli (GPa) = 58.06356 33.63633 51.27847
#
# Poissons Ratio (x) = 0.35176 0.04920
# Poissons Ratio (y) = 0.60722 0.63534
# Poissons Ratio (z) = 0.05571 0.41675
#
# Static dielectric constant tensor:
#      x y z
#    x 3.783170 0.000000 0.000000 
#    y 0.000000 3.659970 0.000000 
#    z 0.000000 0.000000 3.711460 
# 
# 
# High freq. dielectric constant tensor:
#      x y z
#    x 1.807100 0.000000 0.000000 
#    y 0.000000 1.783380 0.000000 
#    z 0.000000 0.000000 1.779680 
# 
# From -- ./inp_files/12681.got.cif
#   From: 2010.03.12/outbox.cif.g09.slc.cpg/sg74_7_cif.got.tgz:12681.got - 2010.04.16 15:46:19.
