data_PCOD8300276
_publ_section_title
;
Structure prediction by ZEFSAII (Michael W. Deem and Ramdas Pophale) SiO2 
 PCOD8300276
Probable space group: I M M A
;
_chemical_formula_sum "Si O2"
_cell_formula_units_Z 96
_cell_length_a 22.806509
_cell_length_b 15.560228
_cell_length_c 13.593200
_cell_angle_alpha 90.000000
_cell_angle_beta 90.000000
_cell_angle_gamma 90.000000
_cell_volume 4823.879781
_symmetry_space_group_name_H-M "I M M A"
_symmetry_group_IT_number 74
_symmetry_cell_setting 'orthorhombic'
loop_
_space_group_symop_operation_xyz
x,y,z
-x,1/2-y,z
x,-y,-z
-x,1/2+y,-z
-x,-y,-z
x,1/2+y,-z
-x,y,z
x,1/2-y,z
1/2+x,1/2+y,1/2+z
1/2-x,-y,1/2+z
1/2+x,1/2-y,1/2-z
1/2-x,y,1/2-z
1/2-x,1/2-y,1/2-z
1/2+x,y,1/2-z
1/2-x,1/2+y,1/2+z
1/2+x,-y,1/2+z
loop_
_atom_site_type_symbol
_atom_site_label
_atom_site_fract_x
_atom_site_fract_y
_atom_site_fract_z
Si Si1 0.858576 0.155586 0.855819
Si Si2 0.147199 0.493330 0.384994
Si Si3 0.569102 0.001477 0.288486
Si Si4 0.235168 0.653942 0.598303
Si Si5 0.351513 0.585430 0.558871
Si Si6 0.274738 0.345815 0.866383
O O1 0.876458 0.250000 0.820776
O O2 0.790482 0.136732 0.818309
O O3 0.904987 0.092072 0.808888
O O4 0.865731 0.154552 0.974522
O O5 0.131127 0.500000 0.500000
O O6 0.088269 0.475356 0.322788
O O7 0.187048 0.411046 0.361175
O O8 0.177939 0.580066 0.343453
O O9 0.500000 0.001236 0.296349
O O10 0.593217 0.067855 0.370415
O O11 0.223795 0.750000 0.640233
O O12 0.299225 0.618641 0.629998
O O13 0.236720 0.653244 0.481570
O O14 0.330761 0.500000 0.500000
O O15 0.297918 0.250000 0.836611
#
# Coordination Sequence:
#
# PCOD8300276 Si02
#       6
#    16  16  16  16  16  16
#     4   9  18  34  57  85 114 136 160 208 275 339
#     4  10  20  36  56  77 106 144 182 225 275 314
#     4  11  24  37  50  73 105 145 194 231 252 296
#     4   9  16  30  55  84 108 130 167 219 274 333
#     4   9  17  32  55  80 110 139 163 204 270 334
#     4   8  15  30  55  86 112 133 163 211 275 339
#
# _framework density 19.900993
#
# number of rings (size 3 to 8) (size 9 to 14) (size 15 to 20)
#    0.000    2.667    0.000    5.000    0.000    7.000 
#    0.000    4.167    0.000    4.000    0.000    4.667 
#    0.000    0.000    0.000    0.000    0.000    0.000 
#
# Total GULP energy -594902.237709 kJ/mol
# GULP energy per Si atom -12393.796619 kJ/mol
# Density = 1.985570 g / cm^3
# Si number density = 19.900993 Si / 1000 Ang^3
#
#
#
# Elastic Constant Matrix: (Units=GPa)
#
#
# Indices 1 2 3 4 5 6 
#
# 1 135.8185 49.3510 39.0220 0.0000 0.0000 0.0000
# 2 49.3510 97.7450 11.2771 0.0000 0.0000 0.0000
# 3 39.0220 11.2771 62.7054 0.0000 0.0000 0.0000
# 4 0.0000 0.0000 0.0000 3.4815 0.0000 0.0000
# 5 0.0000 0.0000 0.0000 0.0000 28.0626 0.0000
# 6 0.0000 0.0000 0.0000 0.0000 0.0000 5.8616
#
#
#
# Elastic Compliance Matrix: (Units=1/GPa)
#
#
# Indices 1 2 3 4 5 6 
#
# 1 0.010774 -0.004765 -0.005848 0.000000 0.000000 0.000000
# 2 -0.004765 0.012555 0.000708 0.000000 0.000000 0.000000
# 3 -0.005848 0.000708 0.019460 0.000000 0.000000 0.000000
# 4 0.000000 0.000000 0.000000 0.287233 0.000000 0.000000
# 5 0.000000 0.000000 0.000000 0.000000 0.035635 0.000000
# 6 0.000000 0.000000 0.000000 0.000000 0.000000 0.170602
#
#
# Mechanical properties :
#
#
# Convention : Reuss Voigt Hill
#
# Bulk Modulus (GPa) = 43.52069 55.06324 49.29196
# Shear Modulus (GPa) = 8.86950 20.58905 14.72927
#
# Velocity S-wave (km/s) = 2.11341 3.21997 2.72348
# Velocity P-wave (km/s) = 5.27934 6.44616 5.89170
#
# Compressibility (1/GPa) = 0.02297758
#
# Stress axis : x y z
#
# Youngs Moduli (GPa) = 92.81200 79.64924 51.38852
#
# Poissons Ratio (x) = 0.37955 0.30052
# Poissons Ratio (y) = 0.44228 -0.03636
# Poissons Ratio (z) = 0.54277 -0.05635
#
# Static dielectric constant tensor:
#      x y z
#    x 3.219370 0.000000 0.000000 
#    y 0.000000 3.940000 0.000000 
#    z 0.000000 0.000000 3.775660 
# 
# 
# High freq. dielectric constant tensor:
#      x y z
#    x 1.727400 0.000000 0.000000 
#    y 0.000000 1.780070 0.000000 
#    z 0.000000 0.000000 1.794010 
# 
# From -- ./inp_files/35247.got.cif
#   From: 2010.03.12/outbox.cif.g09.slc.cpg/sg74_18_cif.got.tgz:35247.got - 2010.04.16 15:46:19.
