data_PCOD8300311
_publ_section_title
;
Structure prediction by ZEFSAII (Michael W. Deem and Ramdas Pophale) SiO2 
 PCOD8300311
Probable space group: I M M A
;
_chemical_formula_sum "Si O2"
_cell_formula_units_Z 112
_cell_length_a 32.890792
_cell_length_b 16.351180
_cell_length_c 10.894053
_cell_angle_alpha 90.000000
_cell_angle_beta 90.000000
_cell_angle_gamma 90.000000
_cell_volume 5858.857222
_symmetry_space_group_name_H-M "I M M A"
_symmetry_group_IT_number 74
_symmetry_cell_setting 'orthorhombic'
loop_
_space_group_symop_operation_xyz
x,y,z
-x,1/2-y,z
x,-y,-z
-x,1/2+y,-z
-x,-y,-z
x,1/2+y,-z
-x,y,z
x,1/2-y,z
1/2+x,1/2+y,1/2+z
1/2-x,-y,1/2+z
1/2+x,1/2-y,1/2-z
1/2-x,y,1/2-z
1/2-x,1/2-y,1/2-z
1/2+x,y,1/2-z
1/2-x,1/2+y,1/2+z
1/2+x,-y,1/2+z
loop_
_atom_site_type_symbol
_atom_site_label
_atom_site_fract_x
_atom_site_fract_y
_atom_site_fract_z
Si Si1 0.309582 0.407460 0.842365
Si Si2 0.227724 0.656562 0.096170
Si Si3 0.885414 0.844097 0.482330
Si Si4 0.637861 0.445577 0.212573
Si Si5 0.153067 0.843191 0.941956
Si Si6 0.545602 0.154365 0.794321
Si Si7 0.090178 0.942897 0.103812
O O1 0.267892 0.399320 0.920619
O O2 0.300436 0.372649 0.708056
O O3 0.323476 0.502414 0.836536
O O4 0.344738 0.352642 0.902281
O O5 0.241500 0.750000 0.118480
O O6 0.200488 0.648336 0.975464
O O7 0.889904 0.750000 0.524428
O O8 0.884883 0.903705 0.598901
O O9 0.923934 0.873074 0.401985
O O10 0.651587 0.374043 0.303184
O O11 0.607437 0.505702 0.282383
O O12 0.137911 0.750000 0.948082
O O13 0.126379 0.894723 0.037050
O O14 0.500000 0.127918 0.831583
O O15 0.549116 0.250000 0.773416
O O16 0.556570 0.115879 0.661962
O O17 0.069274 0.000000 0.000000
#
# Coordination Sequence:
#
# PCOD8300311 Si02
#       7
#    16  16  16  16  16  16  16
#     4  11  20  35  57  80 112 145 193 243 282 338
#     4  10  20  36  57  84 112 149 198 239 289 345
#     4  11  22  39  59  81 114 154 194 237 287 345
#     4  11  22  37  54  87 116 147 196 238 291 343
#     4  10  20  38  60  82 116 157 194 237 289 352
#     4  10  21  38  63  90 115 150 195 237 283 346
#     4  10  20  36  59  87 120 150 189 234 290 346
#
# _framework density 19.116357000000001
#
# number of rings (size 3 to 8) (size 9 to 14) (size 15 to 20)
#    0.000    1.571    2.857    3.000    0.000    2.571 
#   10.286    1.429    0.000    3.429    0.000    8.000 
#    0.000    0.000    0.000    0.000    0.000    0.000 
#
# Total GULP energy -694336.830503 kJ/mol
# GULP energy per Si atom -12398.871973 kJ/mol
# Density = 1.907285 g / cm^3
# Si number density = 19.116357 Si / 1000 Ang^3
#
#
#
# Elastic Constant Matrix: (Units=GPa)
#
#
# Indices 1 2 3 4 5 6 
#
# 1 99.3061 38.8239 71.8316 0.0000 0.0000 0.0000
# 2 38.8239 92.0992 62.0229 0.0000 0.0000 0.0000
# 3 71.8316 62.0229 108.3974 0.0000 0.0000 0.0000
# 4 0.0000 0.0000 0.0000 42.5849 0.0000 0.0000
# 5 0.0000 0.0000 0.0000 0.0000 16.5813 0.0000
# 6 0.0000 0.0000 0.0000 0.0000 0.0000 24.6915
#
#
#
# Elastic Compliance Matrix: (Units=1/GPa)
#
#
# Indices 1 2 3 4 5 6 
#
# 1 0.019375 0.000779 -0.013285 0.000000 0.000000 0.000000
# 2 0.000779 0.017696 -0.010642 0.000000 0.000000 0.000000
# 3 -0.013285 -0.010642 0.024118 0.000000 0.000000 0.000000
# 4 0.000000 0.000000 0.000000 0.023482 0.000000 0.000000
# 5 0.000000 0.000000 0.000000 0.000000 0.060309 0.000000
# 6 0.000000 0.000000 0.000000 0.000000 0.000000 0.040500
#
#
# Mechanical properties :
#
#
# Convention : Reuss Voigt Hill
#
# Bulk Modulus (GPa) = 67.14227 71.68439 69.41333
# Shear Modulus (GPa) = 21.12040 25.24650 23.18345
#
# Velocity S-wave (km/s) = 3.32751 3.63805 3.48624
# Velocity P-wave (km/s) = 7.06840 7.43153 7.25224
#
# Compressibility (1/GPa) = 0.01489375
#
# Stress axis : x y z
#
# Youngs Moduli (GPa) = 51.61392 56.51063 41.46346
#
# Poissons Ratio (x) = -0.04403 0.55083
# Poissons Ratio (y) = -0.04022 0.44123
# Poissons Ratio (z) = 0.68568 0.60136
#
# Static dielectric constant tensor:
#      x y z
#    x 3.461560 0.000000 0.000000 
#    y 0.000000 3.651820 0.000000 
#    z 0.000000 0.000000 3.486670 
# 
# 
# High freq. dielectric constant tensor:
#      x y z
#    x 1.724820 0.000000 0.000000 
#    y 0.000000 1.753130 0.000000 
#    z 0.000000 0.000000 1.743320 
# 
# From -- ./inp_files/27210.got.cif
#   From: 2010.03.12/outbox.cif.g09.slc.cpg/sg74_14_cif.got.tgz:27210.got - 2010.04.16 15:46:19.
