data_PCOD8300405
_publ_section_title
;
Structure prediction by ZEFSAII (Michael W. Deem and Ramdas Pophale) SiO2 
 PCOD8300405
Probable space group: I M M A
;
_chemical_formula_sum "Si O2"
_cell_formula_units_Z 80
_cell_length_a 23.734082
_cell_length_b 16.758861
_cell_length_c 9.920558
_cell_angle_alpha 90.000000
_cell_angle_beta 90.000000
_cell_angle_gamma 90.000000
_cell_volume 3945.963265
_symmetry_space_group_name_H-M "I M M A"
_symmetry_group_IT_number 74
_symmetry_cell_setting 'orthorhombic'
loop_
_space_group_symop_operation_xyz
x,y,z
-x,1/2-y,z
x,-y,-z
-x,1/2+y,-z
-x,-y,-z
x,1/2+y,-z
-x,y,z
x,1/2-y,z
1/2+x,1/2+y,1/2+z
1/2-x,-y,1/2+z
1/2+x,1/2-y,1/2-z
1/2-x,y,1/2-z
1/2-x,1/2-y,1/2-z
1/2+x,y,1/2-z
1/2-x,1/2+y,1/2+z
1/2+x,-y,1/2+z
loop_
_atom_site_type_symbol
_atom_site_label
_atom_site_fract_x
_atom_site_fract_y
_atom_site_fract_z
Si Si1 0.170030 0.096430 0.209247
Si Si2 0.230789 0.158387 0.456599
Si Si3 0.935566 0.659169 0.240387
Si Si4 0.936171 0.090225 0.043930
Si Si5 0.156656 0.446463 0.626976
O O1 0.185632 0.153964 0.334166
O O2 0.211835 0.113403 0.084940
O O3 0.106014 0.114186 0.164335
O O4 0.177456 0.003894 0.252556
O O5 0.243298 0.250000 0.492089
O O6 0.206922 0.114286 0.588800
O O7 0.921406 0.750000 0.277744
O O8 0.898069 0.602261 0.331099
O O9 0.000000 0.637377 0.273213
O O10 0.924112 0.647478 0.081986
O O11 0.000000 0.100381 0.097750
O O12 0.924351 0.000000 0.000000
O O13 0.138744 0.500000 0.500000
#
# Coordination Sequence:
#
# PCOD8300405 Si02
#       5
#    16  16  16  16  16
#     4  10  20  36  61  87 115 151 198 242 288 343
#     4  10  22  40  61  85 120 158 194 239 297 349
#     4  10  21  38  60  88 122 154 189 240 296 344
#     4  10  20  36  61  88 115 151 192 240 295 348
#     4  10  21  38  58  89 115 157 199 240 280 349
#
# _framework density 20.273883000000001
#
# number of rings (size 3 to 8) (size 9 to 14) (size 15 to 20)
#    0.000    2.000    2.000    1.800    0.000    6.000 
#    0.000    3.000    0.000    3.600    0.000    0.000 
#    0.000    0.000    0.000    0.000    0.000    0.000 
#
# Total GULP energy -496052.434578 kJ/mol
# GULP energy per Si atom -12401.310864 kJ/mol
# Density = 2.022774 g / cm^3
# Si number density = 20.273883 Si / 1000 Ang^3
#
#
#
# Elastic Constant Matrix: (Units=GPa)
#
#
# Indices 1 2 3 4 5 6 
#
# 1 132.4482 62.4514 56.7971 0.0000 0.0000 0.0000
# 2 62.4514 138.7116 46.8792 0.0000 0.0000 0.0000
# 3 56.7971 46.8792 54.2432 0.0000 0.0000 0.0000
# 4 0.0000 0.0000 0.0000 26.2269 0.0000 0.0000
# 5 0.0000 0.0000 0.0000 0.0000 42.6949 0.0000
# 6 0.0000 0.0000 0.0000 0.0000 0.0000 30.9698
#
#
#
# Elastic Compliance Matrix: (Units=1/GPa)
#
#
# Indices 1 2 3 4 5 6 
#
# 1 0.014053 -0.001913 -0.013062 0.000000 0.000000 0.000000
# 2 -0.001913 0.010444 -0.007023 0.000000 0.000000 0.000000
# 3 -0.013062 -0.007023 0.038182 0.000000 0.000000 0.000000
# 4 0.000000 0.000000 0.000000 0.038129 0.000000 0.000000
# 5 0.000000 0.000000 0.000000 0.000000 0.023422 0.000000
# 6 0.000000 0.000000 0.000000 0.000000 0.000000 0.032290
#
#
# Mechanical properties :
#
#
# Convention : Reuss Voigt Hill
#
# Bulk Modulus (GPa) = 53.52291 73.07317 63.29804
# Shear Modulus (GPa) = 24.18453 30.59665 27.39059
#
# Velocity S-wave (km/s) = 3.45757 3.88901 3.67962
# Velocity P-wave (km/s) = 6.51130 7.50248 7.02439
#
# Compressibility (1/GPa) = 0.01868359
#
# Stress axis : x y z
#
# Youngs Moduli (GPa) = 71.15787 95.74894 26.19016
#
# Poissons Ratio (x) = 0.18314 0.34209
# Poissons Ratio (y) = 0.13610 0.18394
# Poissons Ratio (z) = 0.92946 0.67248
#
# Static dielectric constant tensor:
#      x y z
#    x 3.704220 0.000000 0.000000 
#    y 0.000000 3.747860 0.000000 
#    z 0.000000 0.000000 3.535350 
# 
# 
# High freq. dielectric constant tensor:
#      x y z
#    x 1.792270 0.000000 0.000000 
#    y 0.000000 1.796750 0.000000 
#    z 0.000000 0.000000 1.772600 
# 
# From -- ./inp_files/24883.got.cif
#   From: 2010.03.12/outbox.cif.g09.slc.cpg/sg74_13_cif.got.tgz:24883.got - 2010.04.16 15:46:19.
