data_PCOD8300077
_publ_section_title
;
Structure prediction by ZEFSAII (Michael W. Deem and Ramdas Pophale) SiO2 
 PCOD8300077
Probable space group: I M M A
;
_chemical_formula_sum "Si O2"
_cell_formula_units_Z 96
_cell_length_a 22.371494
_cell_length_b 8.996042
_cell_length_c 24.540720
_cell_angle_alpha 90.000000
_cell_angle_beta 90.000000
_cell_angle_gamma 90.000000
_cell_volume 4938.940140
_symmetry_space_group_name_H-M "I M M A"
_symmetry_group_IT_number 74
_symmetry_cell_setting 'orthorhombic'
loop_
_space_group_symop_operation_xyz
x,y,z
-x,1/2-y,z
x,-y,-z
-x,1/2+y,-z
-x,-y,-z
x,1/2+y,-z
-x,y,z
x,1/2-y,z
1/2+x,1/2+y,1/2+z
1/2-x,-y,1/2+z
1/2+x,1/2-y,1/2-z
1/2-x,y,1/2-z
1/2-x,1/2-y,1/2-z
1/2+x,y,1/2-z
1/2-x,1/2+y,1/2+z
1/2+x,-y,1/2+z
loop_
_atom_site_type_symbol
_atom_site_label
_atom_site_fract_x
_atom_site_fract_y
_atom_site_fract_z
Si Si1 0.601736 0.578010 0.330957
Si Si2 0.215861 0.583985 0.803957
Si Si3 0.000000 0.925952 0.763023
Si Si4 0.398941 0.426582 0.055676
Si Si5 0.645467 0.075638 0.552920
Si Si6 0.266072 0.918556 0.917651
Si Si7 0.500000 0.074033 0.138653
O O1 0.585387 0.750000 0.323037
O O2 0.667126 0.544350 0.308491
O O3 0.556755 0.479169 0.296866
O O4 0.603739 0.534658 0.395244
O O5 0.186797 0.750000 0.802335
O O6 0.250000 0.545481 0.750000
O O7 0.263649 0.575281 0.852395
O O8 0.000000 0.990109 0.700805
O O9 0.000000 0.750000 0.761190
O O10 0.402408 0.250000 0.049904
O O11 0.330964 0.481230 0.065679
O O12 0.440962 0.479990 0.105821
O O13 0.422793 0.500000 0.000000
O O14 0.648494 0.250000 0.544707
O O15 0.615390 0.000000 0.500000
O O16 0.713433 0.017952 0.557696
O O17 0.257300 0.750000 0.938785
O O18 0.500000 0.250000 0.142506
#
# Coordination Sequence:
#
# PCOD8300077 Si02
#       7
#    16  16   8  16  16  16   8
#     4  10  22  39  57  82 117 150 181 228 288 337
#     4   9  18  32  55  83 112 147 191 234 272 328
#     4  11  23  40  65  85 106 144 194 239 278 335
#     4  10  20  35  54  78 109 144 183 229 278 326
#     4  10  20  35  57  83 114 148 182 223 273 332
#     4   9  18  31  51  80 113 146 182 227 277 327
#     4   9  21  38  58  79 103 140 187 237 280 321
#
# _framework density 19.437367999999999
#
# number of rings (size 3 to 8) (size 9 to 14) (size 15 to 20)
#    0.000    2.333    0.000    2.000    2.333    4.333 
#    0.000    2.083    0.000    0.000    0.000    0.000 
#    0.000    0.000    0.000    0.000    0.000    0.000 
#
# Total GULP energy -595052.855221 kJ/mol
# GULP energy per Si atom -12396.934484 kJ/mol
# Density = 1.939313 g / cm^3
# Si number density = 19.437368 Si / 1000 Ang^3
#
#
#
# Elastic Constant Matrix: (Units=GPa)
#
#
# Indices 1 2 3 4 5 6 
#
# 1 78.8880 27.3002 55.3054 0.0000 0.0000 0.0000
# 2 27.3002 56.8430 53.4188 0.0000 0.0000 0.0000
# 3 55.3054 53.4188 170.9283 0.0000 0.0000 0.0000
# 4 0.0000 0.0000 0.0000 29.7358 0.0000 0.0000
# 5 0.0000 0.0000 0.0000 0.0000 19.6020 0.0000
# 6 0.0000 0.0000 0.0000 0.0000 0.0000 20.5015
#
#
#
# Elastic Compliance Matrix: (Units=1/GPa)
#
#
# Indices 1 2 3 4 5 6 
#
# 1 0.017096 -0.004265 -0.004199 0.000000 0.000000 0.000000
# 2 -0.004265 0.025971 -0.006737 0.000000 0.000000 0.000000
# 3 -0.004199 -0.006737 0.009314 0.000000 0.000000 0.000000
# 4 0.000000 0.000000 0.000000 0.033630 0.000000 0.000000
# 5 0.000000 0.000000 0.000000 0.000000 0.051015 0.000000
# 6 0.000000 0.000000 0.000000 0.000000 0.000000 0.048777
#
#
# Mechanical properties :
#
#
# Convention : Reuss Voigt Hill
#
# Bulk Modulus (GPa) = 45.49385 64.30089 54.89737
# Shear Modulus (GPa) = 22.36833 25.34352 23.85593
#
# Velocity S-wave (km/s) = 3.39601 3.61481 3.50712
# Velocity P-wave (km/s) = 6.23164 7.11164 6.68613
#
# Compressibility (1/GPa) = 0.02198099
#
# Stress axis : x y z
#
# Youngs Moduli (GPa) = 58.49474 38.50376 107.36244
#
# Poissons Ratio (x) = 0.16421 0.45077
# Poissons Ratio (y) = 0.24947 0.72327
# Poissons Ratio (z) = 0.24559 0.25939
#
# Static dielectric constant tensor:
#      x y z
#    x 3.524390 0.000000 0.000000 
#    y 0.000000 3.408240 0.000000 
#    z 0.000000 0.000000 3.894490 
# 
# 
# High freq. dielectric constant tensor:
#      x y z
#    x 1.741410 0.000000 0.000000 
#    y 0.000000 1.743750 0.000000 
#    z 0.000000 0.000000 1.775280 
# 
# From -- ./inp_files/61934.got.cif
#   From: 2010.03.12/outbox.cif.g09.slc.cpg/sg74_31_cif.got.tgz:61934.got - 2010.04.16 15:46:19.
