data_PCOD8300132
_publ_section_title
;
Structure prediction by ZEFSAII (Michael W. Deem and Ramdas Pophale) SiO2 
 PCOD8300132
Probable space group: I M M A
;
_chemical_formula_sum "Si O2"
_cell_formula_units_Z 72
_cell_length_a 8.565747
_cell_length_b 14.439760
_cell_length_c 29.028558
_cell_angle_alpha 90.000000
_cell_angle_beta 90.000000
_cell_angle_gamma 90.000000
_cell_volume 3590.464859
_symmetry_space_group_name_H-M "I M M A"
_symmetry_group_IT_number 74
_symmetry_cell_setting 'orthorhombic'
loop_
_space_group_symop_operation_xyz
x,y,z
-x,1/2-y,z
x,-y,-z
-x,1/2+y,-z
-x,-y,-z
x,1/2+y,-z
-x,y,z
x,1/2-y,z
1/2+x,1/2+y,1/2+z
1/2-x,-y,1/2+z
1/2+x,1/2-y,1/2-z
1/2-x,y,1/2-z
1/2-x,1/2-y,1/2-z
1/2+x,y,1/2-z
1/2-x,1/2+y,1/2+z
1/2+x,-y,1/2+z
loop_
_atom_site_type_symbol
_atom_site_label
_atom_site_fract_x
_atom_site_fract_y
_atom_site_fract_z
Si Si1 0.181787 0.591573 0.615445
Si Si2 0.183690 0.250000 0.949627
Si Si3 0.816156 0.389558 0.873926
Si Si4 0.313894 0.250000 0.447156
Si Si5 0.170569 0.644328 0.793915
Si Si6 0.815527 0.750000 0.301796
O O1 0.268893 0.494570 0.618626
O O2 0.251727 0.656114 0.575743
O O3 0.210744 0.641032 0.663832
O O4 0.000000 0.576932 0.606329
O O5 0.239158 0.160678 0.920832
O O6 0.000000 0.250000 0.955624
O O7 0.254313 0.250000 0.000899
O O8 0.738201 0.342519 0.829093
O O9 0.000000 0.379470 0.866917
O O10 0.500000 0.250000 0.443689
O O11 0.140637 0.750000 0.780855
O O12 0.250000 0.593426 0.750000
O O13 0.000000 0.598450 0.804729
O O14 0.750000 0.750000 0.250000
O O15 0.000000 0.750000 0.298681
#
# Coordination Sequence:
#
# PCOD8300132 Si02
#       6
#    16   8  16   8  16   8
#     4  12  24  38  57  88 124 159 199 248 300 354
#     4   8  19  40  66  89 112 149 199 249 301 359
#     4  10  21  41  65  90 120 158 201 248 299 357
#     4  11  22  40  63  87 116 156 202 248 298 361
#     4  10  20  35  56  80 111 152 194 236 285 343
#     4  11  22  40  65  96 128 161 200 247 297 352
#
# _framework density 20.053114999999998
#
# number of rings (size 3 to 8) (size 9 to 14) (size 15 to 20)
#    0.000    1.556    1.111    5.333    0.000    2.667 
#    0.000   15.556    0.000    0.000    0.000    0.000 
#    0.000    0.000    0.000    0.000    0.000    0.000 
#
# Total GULP energy -446275.494211 kJ/mol
# GULP energy per Si atom -12396.541506 kJ/mol
# Density = 2.000747 g / cm^3
# Si number density = 20.053115 Si / 1000 Ang^3
#
#
#
# Elastic Constant Matrix: (Units=GPa)
#
#
# Indices 1 2 3 4 5 6 
#
# 1 113.0310 32.2412 47.0098 0.0000 0.0000 0.0000
# 2 32.2412 115.7042 55.6720 0.0000 0.0000 0.0000
# 3 47.0098 55.6720 182.7651 0.0000 0.0000 0.0000
# 4 0.0000 0.0000 0.0000 -63.6665 0.0000 0.0000
# 5 0.0000 0.0000 0.0000 0.0000 28.1331 0.0000
# 6 0.0000 0.0000 0.0000 0.0000 0.0000 26.5297
#
#
#
# Elastic Compliance Matrix: (Units=1/GPa)
#
#
# Indices 1 2 3 4 5 6 
#
# 1 0.010237 -0.001858 -0.002067 0.000000 0.000000 0.000000
# 2 -0.001858 0.010464 -0.002710 0.000000 0.000000 0.000000
# 3 -0.002067 -0.002710 0.006829 0.000000 0.000000 0.000000
# 4 0.000000 0.000000 0.000000 -0.015707 0.000000 0.000000
# 5 0.000000 0.000000 0.000000 0.000000 0.035545 0.000000
# 6 0.000000 0.000000 0.000000 0.000000 0.000000 0.037694
#
#
# Mechanical properties :
#
#
# Convention : Reuss Voigt Hill
#
# Bulk Modulus (GPa) = 70.12476 75.70517 72.91496
# Shear Modulus (GPa) = 48.50398 16.63775 32.57087
#
# Velocity S-wave (km/s) = 4.92344 2.88355 4.03455
# Velocity P-wave (km/s) = 8.20767 6.99434 7.62517
#
# Compressibility (1/GPa) = 0.01426030
#
# Stress axis : x y z
#
# Youngs Moduli (GPa) = 97.68674 95.56405 146.44354
#
# Poissons Ratio (x) = 0.17755 0.30272
# Poissons Ratio (y) = 0.18149 0.39681
# Poissons Ratio (z) = 0.20193 0.25894
#
# Static dielectric constant tensor:
#      x y z
#    x 3.826170 0.000000 0.000000 
#    y 0.000000 3.301850 0.000000 
#    z 0.000000 0.000000 3.882750 
# 
# 
# High freq. dielectric constant tensor:
#      x y z
#    x 1.789850 0.000000 0.000000 
#    y 0.000000 1.775250 0.000000 
#    z 0.000000 0.000000 1.789400 
# 
# From -- ./inp_files/63711.got.cif
#   From: 2010.03.12/outbox.cif.g09.slc.cpg/sg74_32_cif.got.tgz:63711.got - 2010.04.16 15:46:19.
