data_PCOD8300205
_publ_section_title
;
Structure prediction by ZEFSAII (Michael W. Deem and Ramdas Pophale) SiO2 
 PCOD8300205
Probable space group: I M M A
;
_chemical_formula_sum "Si O2"
_cell_formula_units_Z 64
_cell_length_a 14.424614
_cell_length_b 15.127543
_cell_length_c 14.550930
_cell_angle_alpha 90.000000
_cell_angle_beta 90.000000
_cell_angle_gamma 90.000000
_cell_volume 3175.143427
_symmetry_space_group_name_H-M "I M M A"
_symmetry_group_IT_number 74
_symmetry_cell_setting 'orthorhombic'
loop_
_space_group_symop_operation_xyz
x,y,z
-x,1/2-y,z
x,-y,-z
-x,1/2+y,-z
-x,-y,-z
x,1/2+y,-z
-x,y,z
x,1/2-y,z
1/2+x,1/2+y,1/2+z
1/2-x,-y,1/2+z
1/2+x,1/2-y,1/2-z
1/2-x,y,1/2-z
1/2-x,1/2-y,1/2-z
1/2+x,y,1/2-z
1/2-x,1/2+y,1/2+z
1/2+x,-y,1/2+z
loop_
_atom_site_type_symbol
_atom_site_label
_atom_site_fract_x
_atom_site_fract_y
_atom_site_fract_z
Si Si1 0.396128 0.561278 0.586322
Si Si2 0.105117 0.510172 0.712389
Si Si3 0.210420 0.850710 0.596728
Si Si4 0.892114 0.849732 0.411659
O O1 0.374865 0.500000 0.500000
O O2 0.500000 0.602008 0.580322
O O3 0.385638 0.501860 0.677954
O O4 0.321462 0.639891 0.587809
O O5 0.328338 0.587878 0.822543
O O6 0.135385 0.415789 0.670528
O O7 0.000000 0.533497 0.683246
O O8 0.186212 0.750000 0.621878
O O9 0.163576 0.879635 0.501500
O O10 0.865313 0.750000 0.381576
O O11 0.000000 0.856151 0.436235
#
# Coordination Sequence:
#
# PCOD8300205 Si02
#       4
#    16  16  16  16
#     4  10  22  39  56  75 104 146 192 230 264 309
#     4  10  20  35  58  84 110 142 178 221 273 325
#     4  11  22  35  55  83 113 145 179 219 270 325
#     4   9  18  34  58  88 115 136 167 218 280 338
#
# _framework density 20.156571
#
# number of rings (size 3 to 8) (size 9 to 14) (size 15 to 20)
#    0.000    2.000    0.000    3.750    0.000    6.000 
#    0.000    3.750    0.000   10.500    0.000    0.000 
#    0.000    0.000    0.000    0.000    0.000    0.000 
#
# Total GULP energy -396856.686561 kJ/mol
# GULP energy per Si atom -12401.771455 kJ/mol
# Density = 2.011069 g / cm^3
# Si number density = 20.156571 Si / 1000 Ang^3
#
#
#
# Elastic Constant Matrix: (Units=GPa)
#
#
# Indices 1 2 3 4 5 6 
#
# 1 96.7660 42.5976 38.5200 0.0000 0.0000 0.0000
# 2 42.5976 98.1609 59.0978 0.0000 0.0000 0.0000
# 3 38.5200 59.0978 128.5705 0.0000 0.0000 0.0000
# 4 0.0000 0.0000 0.0000 15.3031 0.0000 0.0000
# 5 0.0000 0.0000 0.0000 0.0000 12.3932 0.0000
# 6 0.0000 0.0000 0.0000 0.0000 0.0000 31.4188
#
#
#
# Elastic Compliance Matrix: (Units=1/GPa)
#
#
# Indices 1 2 3 4 5 6 
#
# 1 0.013072 -0.004583 -0.001810 0.000000 0.000000 0.000000
# 2 -0.004583 0.015692 -0.005840 0.000000 0.000000 0.000000
# 3 -0.001810 -0.005840 0.011004 0.000000 0.000000 0.000000
# 4 0.000000 0.000000 0.000000 0.065346 0.000000 0.000000
# 5 0.000000 0.000000 0.000000 0.000000 0.080689 0.000000
# 6 0.000000 0.000000 0.000000 0.000000 0.000000 0.031828
#
#
# Mechanical properties :
#
#
# Convention : Reuss Voigt Hill
#
# Bulk Modulus (GPa) = 65.34617 67.10312 66.22465
# Shear Modulus (GPa) = 20.22660 24.04182 22.13421
#
# Velocity S-wave (km/s) = 3.17120 3.45737 3.31738
# Velocity P-wave (km/s) = 6.77483 7.02148 6.89926
#
# Compressibility (1/GPa) = 0.01530312
#
# Stress axis : x y z
#
# Youngs Moduli (GPa) = 76.49812 63.72625 90.87333
#
# Poissons Ratio (x) = 0.29207 0.16446
# Poissons Ratio (y) = 0.35061 0.53068
# Poissons Ratio (z) = 0.13844 0.37215
#
# Static dielectric constant tensor:
#      x y z
#    x 3.910920 0.000000 0.000000 
#    y 0.000000 3.528580 0.000000 
#    z 0.000000 0.000000 3.676340 
# 
# 
# High freq. dielectric constant tensor:
#      x y z
#    x 1.800130 0.000000 0.000000 
#    y 0.000000 1.767180 0.000000 
#    z 0.000000 0.000000 1.789680 
# 
# From -- ./inp_files/19936.got.cif
#   From: 2010.03.12/outbox.cif.g09.slc.cpg/sg74_10_cif.got.tgz:19936.got - 2010.04.16 15:46:19.
