data_PCOD8300048
_publ_section_title
;
Structure prediction by ZEFSAII (Michael W. Deem and Ramdas Pophale) SiO2 
 PCOD8300048
Probable space group: I M M A
;
_chemical_formula_sum "Si O2"
_cell_formula_units_Z 104
_cell_length_a 8.864491
_cell_length_b 21.075100
_cell_length_c 27.976945
_cell_angle_alpha 90.000000
_cell_angle_beta 90.000000
_cell_angle_gamma 90.000000
_cell_volume 5226.653824
_symmetry_space_group_name_H-M "I M M A"
_symmetry_group_IT_number 74
_symmetry_cell_setting 'orthorhombic'
loop_
_space_group_symop_operation_xyz
x,y,z
-x,1/2-y,z
x,-y,-z
-x,1/2+y,-z
-x,-y,-z
x,1/2+y,-z
-x,y,z
x,1/2-y,z
1/2+x,1/2+y,1/2+z
1/2-x,-y,1/2+z
1/2+x,1/2-y,1/2-z
1/2-x,y,1/2-z
1/2-x,1/2-y,1/2-z
1/2+x,y,1/2-z
1/2-x,1/2+y,1/2+z
1/2+x,-y,1/2+z
loop_
_atom_site_type_symbol
_atom_site_label
_atom_site_fract_x
_atom_site_fract_y
_atom_site_fract_z
Si Si1 0.823296 0.924421 0.797962
Si Si2 0.822258 0.321803 0.354049
Si Si3 0.319048 0.250000 0.803044
Si Si4 0.822284 0.405026 0.443329
Si Si5 0.678473 0.652396 0.374546
Si Si6 0.672437 0.819894 0.029403
Si Si7 0.676734 0.991236 0.387108
O O1 0.750000 0.951650 0.750000
O O2 0.758648 0.854586 0.809039
O O3 0.000000 0.920719 0.791311
O O4 0.773893 0.971693 0.839811
O O5 0.765652 0.250000 0.356916
O O6 0.769886 0.356572 0.402299
O O7 0.000000 0.326367 0.346562
O O8 0.500000 0.250000 0.800325
O O9 0.250000 0.250000 0.750000
O O10 0.262779 0.187119 0.830885
O O11 0.766804 0.374118 0.493213
O O12 0.751146 0.474562 0.433477
O O13 0.000000 0.413130 0.444080
O O14 0.500000 0.657849 0.365590
O O15 0.721811 0.684411 0.424438
O O16 0.735048 0.579938 0.379088
O O17 0.500000 0.835007 0.044521
O O18 0.678896 0.750000 0.004712
O O19 0.500000 0.992299 0.395962
#
# Coordination Sequence:
#
# PCOD8300048 Si02
#       7
#    16  16   8  16  16  16  16
#     4  10  20  35  53  74 102 137 180 229 283 337
#     4   9  17  31  51  75 105 142 186 233 279 327
#     4  12  26  46  70  96 124 154 192 242 299 360
#     4   9  18  33  55  83 114 153 198 240 284 338
#     4  11  23  41  63  89 120 153 192 236 289 348
#     4  10  20  35  57  86 121 158 198 243 290 342
#     4   9  21  39  57  80 114 151 189 239 291 346
#
# _framework density 19.898008999999998
#
# number of rings (size 3 to 8) (size 9 to 14) (size 15 to 20)
#    0.000    2.154    0.769    2.077    0.000    6.154 
#    0.000    4.615    0.000    2.769    0.000    0.000 
#    0.000    0.000    0.000    0.000    0.000    0.000 
#
# Total GULP energy -644762.337310 kJ/mol
# GULP energy per Si atom -12399.275718 kJ/mol
# Density = 1.985272 g / cm^3
# Si number density = 19.898009 Si / 1000 Ang^3
#
#
#
# Elastic Constant Matrix: (Units=GPa)
#
#
# Indices 1 2 3 4 5 6 
#
# 1 58.5455 38.0743 39.6055 0.0000 0.0000 0.0000
# 2 38.0743 146.0779 51.6015 0.0000 0.0000 0.0000
# 3 39.6055 51.6015 118.1291 0.0000 0.0000 0.0000
# 4 0.0000 0.0000 0.0000 22.8204 0.0000 0.0000
# 5 0.0000 0.0000 0.0000 0.0000 31.5155 0.0000
# 6 0.0000 0.0000 0.0000 0.0000 0.0000 30.8731
#
#
#
# Elastic Compliance Matrix: (Units=1/GPa)
#
#
# Indices 1 2 3 4 5 6 
#
# 1 0.023939 -0.004025 -0.006268 0.000000 0.000000 0.000000
# 2 -0.004025 0.008772 -0.002482 0.000000 0.000000 0.000000
# 3 -0.006268 -0.002482 0.011651 0.000000 0.000000 0.000000
# 4 0.000000 0.000000 0.000000 0.043820 0.000000 0.000000
# 5 0.000000 0.000000 0.000000 0.000000 0.031730 0.000000
# 6 0.000000 0.000000 0.000000 0.000000 0.000000 0.032391
#
#
# Mechanical properties :
#
#
# Convention : Reuss Voigt Hill
#
# Bulk Modulus (GPa) = 53.16035 64.59057 58.87546
# Shear Modulus (GPa) = 27.15578 29.93990 28.54784
#
# Velocity S-wave (km/s) = 3.69826 3.88321 3.79186
# Velocity P-wave (km/s) = 6.70899 7.25514 6.98740
#
# Compressibility (1/GPa) = 0.01881101
#
# Stress axis : x y z
#
# Youngs Moduli (GPa) = 41.77357 114.00374 85.83058
#
# Poissons Ratio (x) = 0.45892 0.53795
# Poissons Ratio (y) = 0.16816 0.21303
# Poissons Ratio (z) = 0.26182 0.28296
#
# Static dielectric constant tensor:
#      x y z
#    x 3.459510 0.000000 0.000000 
#    y 0.000000 3.866730 0.000000 
#    z 0.000000 0.000000 3.660890 
# 
# 
# High freq. dielectric constant tensor:
#      x y z
#    x 1.767610 0.000000 0.000000 
#    y 0.000000 1.784530 0.000000 
#    z 0.000000 0.000000 1.771790 
# 
# From -- ./inp_files/64422.got.cif
#   From: 2010.03.12/outbox.cif.g09.slc.cpg/sg74_33_cif.got.tgz:64422.got - 2010.04.16 15:46:19.
