data_PCOD8300003
_publ_section_title
;
Structure prediction by ZEFSAII (Michael W. Deem and Ramdas Pophale) SiO2 
 PCOD8300003
Probable space group: I M M A
;
_chemical_formula_sum "Si O2"
_cell_formula_units_Z 104
_cell_length_a 25.719079
_cell_length_b 9.049151
_cell_length_c 22.021078
_cell_angle_alpha 90.000000
_cell_angle_beta 90.000000
_cell_angle_gamma 90.000000
_cell_volume 5125.093854
_symmetry_space_group_name_H-M "I M M A"
_symmetry_group_IT_number 74
_symmetry_cell_setting 'orthorhombic'
loop_
_space_group_symop_operation_xyz
x,y,z
-x,1/2-y,z
x,-y,-z
-x,1/2+y,-z
-x,-y,-z
x,1/2+y,-z
-x,y,z
x,1/2-y,z
1/2+x,1/2+y,1/2+z
1/2-x,-y,1/2+z
1/2+x,1/2-y,1/2-z
1/2-x,y,1/2-z
1/2-x,1/2-y,1/2-z
1/2+x,y,1/2-z
1/2-x,1/2+y,1/2+z
1/2+x,-y,1/2+z
loop_
_atom_site_type_symbol
_atom_site_label
_atom_site_fract_x
_atom_site_fract_y
_atom_site_fract_z
Si Si1 0.941525 0.078037 0.940156
Si Si2 0.269045 0.922367 0.685345
Si Si3 0.000000 0.920400 0.438078
Si Si4 0.707984 0.427460 0.064111
Si Si5 0.441077 0.582373 0.784052
Si Si6 0.890531 0.923641 0.382982
Si Si7 0.886342 0.915229 0.839100
O O1 0.939800 0.250000 0.951528
O O2 0.000000 0.023961 0.924607
O O3 0.902109 0.035961 0.887729
O O4 0.920508 0.000000 0.000000
O O5 0.256423 0.750000 0.687111
O O6 0.250000 0.992989 0.750000
O O7 0.241576 0.982420 0.623027
O O8 0.329557 0.959326 0.683834
O O9 0.051668 0.967448 0.403438
O O10 0.000000 0.750000 0.451936
O O11 0.000000 0.000000 0.500000
O O12 0.708646 0.250000 0.057008
O O13 0.649777 0.486076 0.076021
O O14 0.727795 0.500000 0.000000
O O15 0.500000 0.520954 0.793551
O O16 0.436835 0.750000 0.808702
O O17 0.394895 0.483583 0.814168
O O18 0.429051 0.578189 0.713170
O O19 0.877522 0.750000 0.385777
O O20 0.885178 0.750000 0.867433
#
# Coordination Sequence:
#
# PCOD8300003 Si02
#       7
#    16  16   8  16  16  16  16
#     4  10  21  37  57  83 117 156 194 236 291 352
#     4   9  19  38  63  88 116 153 200 250 300 352
#     4  10  22  36  52  76 106 142 181 224 273 326
#     4  11  23  40  62  88 118 155 198 247 301 359
#     4  10  20  34  56  87 120 156 196 237 287 348
#     4  11  22  38  57  82 115 153 194 237 288 340
#     4  10  20  36  60  88 116 150 194 243 292 349
#
# _framework density 20.292311000000002
#
# number of rings (size 3 to 8) (size 9 to 14) (size 15 to 20)
#    0.000    1.846    0.769    3.231    0.000    7.692 
#    0.000    3.077    0.000    3.231    0.000    0.000 
#    0.000    0.000    0.000    0.000    0.000    0.000 
#
# Total GULP energy -644532.578401 kJ/mol
# GULP energy per Si atom -12394.857277 kJ/mol
# Density = 2.024613 g / cm^3
# Si number density = 20.292311 Si / 1000 Ang^3
#
#
#
# Elastic Constant Matrix: (Units=GPa)
#
#
# Indices 1 2 3 4 5 6 
#
# 1 69.3522 22.2060 40.1760 0.0000 0.0000 0.0000
# 2 22.2060 57.4264 38.8687 0.0000 0.0000 0.0000
# 3 40.1760 38.8687 131.9342 0.0000 0.0000 0.0000
# 4 0.0000 0.0000 0.0000 36.0392 0.0000 0.0000
# 5 0.0000 0.0000 0.0000 0.0000 28.9567 0.0000
# 6 0.0000 0.0000 0.0000 0.0000 0.0000 23.6170
#
#
#
# Elastic Compliance Matrix: (Units=1/GPa)
#
#
# Indices 1 2 3 4 5 6 
#
# 1 0.018255 -0.004118 -0.004346 0.000000 0.000000 0.000000
# 2 -0.004118 0.022680 -0.005428 0.000000 0.000000 0.000000
# 3 -0.004346 -0.005428 0.010502 0.000000 0.000000 0.000000
# 4 0.000000 0.000000 0.000000 0.027748 0.000000 0.000000
# 5 0.000000 0.000000 0.000000 0.000000 0.034534 0.000000
# 6 0.000000 0.000000 0.000000 0.000000 0.000000 0.042342
#
#
# Mechanical properties :
#
#
# Convention : Reuss Voigt Hill
#
# Bulk Modulus (GPa) = 42.27550 51.24602 46.76076
# Shear Modulus (GPa) = 26.07861 28.22004 27.14932
#
# Velocity S-wave (km/s) = 3.58878 3.73322 3.66172
# Velocity P-wave (km/s) = 6.16855 6.62505 6.40087
#
# Compressibility (1/GPa) = 0.02365436
#
# Stress axis : x y z
#
# Youngs Moduli (GPa) = 54.77902 44.09268 95.22018
#
# Poissons Ratio (x) = 0.18155 0.41382
# Poissons Ratio (y) = 0.22555 0.51683
# Poissons Ratio (z) = 0.23807 0.23932
#
# Static dielectric constant tensor:
#      x y z
#    x 3.705910 0.000000 0.000000 
#    y 0.000000 3.422230 0.000000 
#    z 0.000000 0.000000 4.048030 
# 
# 
# High freq. dielectric constant tensor:
#      x y z
#    x 1.792100 0.000000 0.000000 
#    y 0.000000 1.773180 0.000000 
#    z 0.000000 0.000000 1.803240 
# 
# From -- ./inp_files/55250.got.cif
#   From: 2010.03.12/outbox.cif.g09.slc.cpg/sg74_28_cif.got.tgz:55250.got - 2010.04.16 15:46:19.
