data_PCOD8300162
_publ_section_title
;
Structure prediction by ZEFSAII (Michael W. Deem and Ramdas Pophale) SiO2 
 PCOD8300162
Probable space group: I M M A
;
_chemical_formula_sum "Si O2"
_cell_formula_units_Z 96
_cell_length_a 8.852533
_cell_length_b 23.023246
_cell_length_c 23.066194
_cell_angle_alpha 90.000000
_cell_angle_beta 90.000000
_cell_angle_gamma 90.000000
_cell_volume 4701.214301
_symmetry_space_group_name_H-M "I M M A"
_symmetry_group_IT_number 74
_symmetry_cell_setting 'orthorhombic'
loop_
_space_group_symop_operation_xyz
x,y,z
-x,1/2-y,z
x,-y,-z
-x,1/2+y,-z
-x,-y,-z
x,1/2+y,-z
-x,y,z
x,1/2-y,z
1/2+x,1/2+y,1/2+z
1/2-x,-y,1/2+z
1/2+x,1/2-y,1/2-z
1/2-x,y,1/2-z
1/2-x,1/2-y,1/2-z
1/2+x,y,1/2-z
1/2-x,1/2+y,1/2+z
1/2+x,-y,1/2+z
loop_
_atom_site_type_symbol
_atom_site_label
_atom_site_fract_x
_atom_site_fract_y
_atom_site_fract_z
Si Si1 0.333306 0.750000 0.498338
Si Si2 0.176814 0.184234 0.809726
Si Si3 0.172327 0.090733 0.614630
Si Si4 0.173917 0.633547 0.506955
Si Si5 0.178287 0.518103 0.689796
Si Si6 0.336615 0.750000 0.634687
Si Si7 0.681178 0.124679 0.371987
O O1 0.500000 0.750000 0.467874
O O2 0.239669 0.693238 0.480650
O O3 0.359147 0.750000 0.566296
O O4 0.228718 0.250000 0.824668
O O5 0.250000 0.162442 0.750000
O O6 0.225313 0.142366 0.861380
O O7 0.000000 0.180457 0.801283
O O8 0.190843 0.086701 0.544910
O O9 0.000000 0.104748 0.631716
O O10 0.221319 0.029027 0.641117
O O11 0.263241 0.610575 0.562977
O O12 0.000000 0.642678 0.524770
O O13 0.250000 0.496846 0.750000
O O14 0.253309 0.578881 0.672775
O O15 0.000000 0.526418 0.696412
O O16 0.500000 0.750000 0.665635
O O17 0.255470 0.688507 0.649457
O O18 0.500000 0.124210 0.371941
#
# Coordination Sequence:
#
# PCOD8300162 Si02
#       7
#     8  16  16  16  16   8  16
#     4   9  17  31  51  80 119 158 195 237 284 342
#     4  10  21  36  55  80 110 149 197 251 304 351
#     4  10  23  39  57  82 116 157 199 245 295 349
#     4  10  20  35  56  86 120 159 198 240 293 351
#     4  11  24  43  63  85 113 151 198 248 298 355
#     4   7  14  31  56  84 115 146 179 221 273 330
#     4  10  20  38  63  91 121 155 191 236 291 351
#
# _framework density 20.420255000000001
#
# number of rings (size 3 to 8) (size 9 to 14) (size 15 to 20)
#    0.000    2.167    0.000    3.750    1.167    5.667 
#    0.000    5.000    0.000    0.000    0.000    0.000 
#    0.000    0.000    0.000    0.000    0.000    0.000 
#
# Total GULP energy -595080.806327 kJ/mol
# GULP energy per Si atom -12397.516798 kJ/mol
# Density = 2.037378 g / cm^3
# Si number density = 20.420255 Si / 1000 Ang^3
#
#
#
# Elastic Constant Matrix: (Units=GPa)
#
#
# Indices 1 2 3 4 5 6 
#
# 1 91.5195 32.3172 22.9346 0.0000 0.0000 0.0000
# 2 32.3172 92.8454 23.4669 0.0000 0.0000 0.0000
# 3 22.9346 23.4669 52.1775 0.0000 0.0000 0.0000
# 4 0.0000 0.0000 0.0000 34.1937 0.0000 0.0000
# 5 0.0000 0.0000 0.0000 0.0000 31.7408 0.0000
# 6 0.0000 0.0000 0.0000 0.0000 0.0000 22.4871
#
#
#
# Elastic Compliance Matrix: (Units=1/GPa)
#
#
# Indices 1 2 3 4 5 6 
#
# 1 0.013235 -0.003539 -0.004226 0.000000 0.000000 0.000000
# 2 -0.003539 0.013098 -0.004335 0.000000 0.000000 0.000000
# 3 -0.004226 -0.004335 0.022973 0.000000 0.000000 0.000000
# 4 0.000000 0.000000 0.000000 0.029245 0.000000 0.000000
# 5 0.000000 0.000000 0.000000 0.000000 0.031505 0.000000
# 6 0.000000 0.000000 0.000000 0.000000 0.000000 0.044470
#
#
# Mechanical properties :
#
#
# Convention : Reuss Voigt Hill
#
# Bulk Modulus (GPa) = 39.83145 43.77551 41.80348
# Shear Modulus (GPa) = 26.72434 28.20591 27.46512
#
# Velocity S-wave (km/s) = 3.62154 3.72058 3.67139
# Velocity P-wave (km/s) = 6.08569 6.31987 6.20389
#
# Compressibility (1/GPa) = 0.02510579
#
# Stress axis : x y z
#
# Youngs Moduli (GPa) = 75.55585 76.34677 43.52981
#
# Poissons Ratio (x) = 0.27017 0.18396
# Poissons Ratio (y) = 0.26737 0.18872
# Poissons Ratio (z) = 0.31930 0.33100
#
# Static dielectric constant tensor:
#      x y z
#    x 3.693560 0.000000 0.000000 
#    y 0.000000 3.936670 0.000000 
#    z 0.000000 0.000000 3.501580 
# 
# 
# High freq. dielectric constant tensor:
#      x y z
#    x 1.797930 0.000000 0.000000 
#    y 0.000000 1.798220 0.000000 
#    z 0.000000 0.000000 1.785100 
# 
# From -- ./inp_files/57311.got.cif
#   From: 2010.03.12/outbox.cif.g09.slc.cpg/sg74_29_cif.got.tgz:57311.got - 2010.04.16 15:46:19.
