data_PCOD8300669
_publ_section_title
;
Structure prediction by ZEFSAII (Michael W. Deem and Ramdas Pophale) SiO2 
 PCOD8300669
Probable space group: I M M A
;
_chemical_formula_sum "Si O2"
_cell_formula_units_Z 96
_cell_length_a 20.481110
_cell_length_b 15.794552
_cell_length_c 15.769810
_cell_angle_alpha 90.000000
_cell_angle_beta 90.000000
_cell_angle_gamma 90.000000
_cell_volume 5101.375157
_symmetry_space_group_name_H-M "I M M A"
_symmetry_group_IT_number 74
_symmetry_cell_setting 'orthorhombic'
loop_
_space_group_symop_operation_xyz
x,y,z
-x,1/2-y,z
x,-y,-z
-x,1/2+y,-z
-x,-y,-z
x,1/2+y,-z
-x,y,z
x,1/2-y,z
1/2+x,1/2+y,1/2+z
1/2-x,-y,1/2+z
1/2+x,1/2-y,1/2-z
1/2-x,y,1/2-z
1/2-x,1/2-y,1/2-z
1/2+x,y,1/2-z
1/2-x,1/2+y,1/2+z
1/2+x,-y,1/2+z
loop_
_atom_site_type_symbol
_atom_site_label
_atom_site_fract_x
_atom_site_fract_y
_atom_site_fract_z
Si Si1 0.633640 0.445423 0.347350
Si Si2 0.574378 0.615008 0.318210
Si Si3 0.682128 0.343819 0.202181
Si Si4 0.074142 0.345046 0.005943
Si Si5 0.772880 0.495696 0.400544
Si Si6 0.313090 0.343342 0.807372
O O1 0.578910 0.513578 0.323816
O O2 0.630500 0.376231 0.272350
O O3 0.620672 0.403814 0.438381
O O4 0.703654 0.492555 0.351492
O O5 0.500000 0.641296 0.297461
O O6 0.597176 0.652511 0.408705
O O7 0.620673 0.652906 0.246685
O O8 0.661490 0.250000 0.168465
O O9 0.750000 0.336192 0.250000
O O10 0.686299 0.411167 0.124875
O O11 0.080321 0.250000 0.040448
O O12 0.000000 0.378329 0.013492
O O13 0.761842 0.500000 0.500000
O O14 0.812449 0.580345 0.374939
O O15 0.311500 0.250000 0.851458
O O16 0.250000 0.354615 0.750000
#
# Coordination Sequence:
#
# PCOD8300669 Si02
#       6
#    16  16  16  16  16  16
#     4  11  19  34  54  81 116 156 191 223 278 338
#     4  11  21  36  58  84 117 156 192 232 281 342
#     4   9  18  33  53  77 110 147 188 234 281 330
#     4  10  21  34  50  82 123 158 192 225 269 342
#     4  11  21  36  56  82 115 147 191 243 288 337
#     4  11  22  39  59  83 116 153 190 235 288 340
#
# _framework density 18.818455
#
# number of rings (size 3 to 8) (size 9 to 14) (size 15 to 20)
#    0.000    1.500    3.333    3.500    0.000    3.667 
#    0.000    0.000    0.000    0.500    0.000    0.000 
#    0.000    0.000    0.000    0.000    0.000    0.000 
#
# Total GULP energy -595133.391244 kJ/mol
# GULP energy per Si atom -12398.612318 kJ/mol
# Density = 1.877562 g / cm^3
# Si number density = 18.818455 Si / 1000 Ang^3
#
#
#
# Elastic Constant Matrix: (Units=GPa)
#
#
# Indices 1 2 3 4 5 6 
#
# 1 59.7839 18.7419 17.1887 0.0000 0.0000 0.0000
# 2 18.7419 146.2264 31.9216 0.0000 0.0000 0.0000
# 3 17.1887 31.9216 46.4070 0.0000 0.0000 0.0000
# 4 0.0000 0.0000 0.0000 18.5666 0.0000 0.0000
# 5 0.0000 0.0000 0.0000 0.0000 28.6912 0.0000
# 6 0.0000 0.0000 0.0000 0.0000 0.0000 14.5152
#
#
#
# Elastic Compliance Matrix: (Units=1/GPa)
#
#
# Indices 1 2 3 4 5 6 
#
# 1 0.018856 -0.001050 -0.006262 0.000000 0.000000 0.000000
# 2 -0.001050 0.008106 -0.005187 0.000000 0.000000 0.000000
# 3 -0.006262 -0.005187 0.027436 0.000000 0.000000 0.000000
# 4 0.000000 0.000000 0.000000 0.053860 0.000000 0.000000
# 5 0.000000 0.000000 0.000000 0.000000 0.034854 0.000000
# 6 0.000000 0.000000 0.000000 0.000000 0.000000 0.068893
#
#
# Mechanical properties :
#
#
# Convention : Reuss Voigt Hill
#
# Bulk Modulus (GPa) = 34.01311 43.12463 38.56887
# Shear Modulus (GPa) = 20.25916 24.65896 22.45906
#
# Velocity S-wave (km/s) = 3.28465 3.62382 3.45840
# Velocity P-wave (km/s) = 5.70078 6.36202 6.04045
#
# Compressibility (1/GPa) = 0.02940043
#
# Stress axis : x y z
#
# Youngs Moduli (GPa) = 53.03216 123.37267 36.44895
#
# Poissons Ratio (x) = 0.12952 0.22825
# Poissons Ratio (y) = 0.05567 0.18905
# Poissons Ratio (z) = 0.33210 0.63989
#
# Static dielectric constant tensor:
#      x y z
#    x 3.271500 0.000000 0.000000 
#    y 0.000000 3.889250 0.000000 
#    z 0.000000 0.000000 3.187390 
# 
# 
# High freq. dielectric constant tensor:
#      x y z
#    x 1.700220 0.000000 0.000000 
#    y 0.000000 1.756000 0.000000 
#    z 0.000000 0.000000 1.700990 
# 
# From -- ./inp_files/32418.got.cif
#   From: 2010.03.12/outbox.cif.g09.slc.cpg/sg74_17_cif.got.tgz:32418.got - 2010.04.16 15:46:19.
