data_PCOD8300473
_publ_section_title
;
Structure prediction by ZEFSAII (Michael W. Deem and Ramdas Pophale) SiO2 
 PCOD8300473
Probable space group: I M M A
;
_chemical_formula_sum "Si O2"
_cell_formula_units_Z 72
_cell_length_a 8.634575
_cell_length_b 17.734362
_cell_length_c 23.497948
_cell_angle_alpha 90.000000
_cell_angle_beta 90.000000
_cell_angle_gamma 90.000000
_cell_volume 3598.209731
_symmetry_space_group_name_H-M "I M M A"
_symmetry_group_IT_number 74
_symmetry_cell_setting 'orthorhombic'
loop_
_space_group_symop_operation_xyz
x,y,z
-x,1/2-y,z
x,-y,-z
-x,1/2+y,-z
-x,-y,-z
x,1/2+y,-z
-x,y,z
x,1/2-y,z
1/2+x,1/2+y,1/2+z
1/2-x,-y,1/2+z
1/2+x,1/2-y,1/2-z
1/2-x,y,1/2-z
1/2-x,1/2-y,1/2-z
1/2+x,y,1/2-z
1/2-x,1/2+y,1/2+z
1/2+x,-y,1/2+z
loop_
_atom_site_type_symbol
_atom_site_label
_atom_site_fract_x
_atom_site_fract_y
_atom_site_fract_z
Si Si1 0.681256 0.396860 0.624263
Si Si2 0.817458 0.463768 0.311779
Si Si3 0.684300 0.835841 0.614414
Si Si4 0.816400 0.750000 0.188105
Si Si5 0.680990 0.916755 0.502400
O O1 0.500000 0.411242 0.635274
O O2 0.770623 0.471130 0.644049
O O3 0.746244 0.324681 0.657463
O O4 0.713387 0.377868 0.558166
O O5 0.750000 0.482903 0.250000
O O6 0.753139 0.383964 0.333743
O O7 0.000000 0.459361 0.306940
O O8 0.500000 0.840500 0.616779
O O9 0.741479 0.750000 0.621164
O O10 0.750424 0.867404 0.554077
O O11 0.750000 0.750000 0.250000
O O12 0.000000 0.750000 0.188239
O O13 0.500000 0.925212 0.514653
O O14 0.756788 0.000000 0.500000
#
# Coordination Sequence:
#
# PCOD8300473 Si02
#       5
#    16  16  16   8  16
#     4  10  20  37  60  90 122 155 197 243 293 349
#     4  12  25  41  62  85 114 155 202 249 302 358
#     4  10  21  38  62  92 123 157 197 243 294 350
#     4  10  22  36  56  84 120 158 195 242 289 340
#     4   9  16  31  59  90 119 149 188 237 286 340
#
# _framework density 20.009951999999998
#
# number of rings (size 3 to 8) (size 9 to 14) (size 15 to 20)
#    0.000    1.778    2.222    2.667    1.556    3.556 
#    0.000    2.222    0.000    0.000    0.000    0.000 
#    0.000    0.000    0.000    0.000    0.000    0.000 
#
# Total GULP energy -446433.396541 kJ/mol
# GULP energy per Si atom -12400.927682 kJ/mol
# Density = 1.996441 g / cm^3
# Si number density = 20.009952 Si / 1000 Ang^3
#
#
#
# Elastic Constant Matrix: (Units=GPa)
#
#
# Indices 1 2 3 4 5 6 
#
# 1 45.9088 26.1993 11.8053 0.0000 0.0000 0.0000
# 2 26.1993 123.3991 20.0221 0.0000 0.0000 0.0000
# 3 11.8053 20.0221 76.8996 0.0000 0.0000 0.0000
# 4 0.0000 0.0000 0.0000 41.5263 0.0000 0.0000
# 5 0.0000 0.0000 0.0000 0.0000 26.2271 0.0000
# 6 0.0000 0.0000 0.0000 0.0000 0.0000 13.4100
#
#
#
# Elastic Compliance Matrix: (Units=1/GPa)
#
#
# Indices 1 2 3 4 5 6 
#
# 1 0.025271 -0.004945 -0.002592 0.000000 0.000000 0.000000
# 2 -0.004945 0.009429 -0.001696 0.000000 0.000000 0.000000
# 3 -0.002592 -0.001696 0.013843 0.000000 0.000000 0.000000
# 4 0.000000 0.000000 0.000000 0.024081 0.000000 0.000000
# 5 0.000000 0.000000 0.000000 0.000000 0.038129 0.000000
# 6 0.000000 0.000000 0.000000 0.000000 0.000000 0.074571
#
#
# Mechanical properties :
#
#
# Convention : Reuss Voigt Hill
#
# Bulk Modulus (GPa) = 33.24720 40.25122 36.74921
# Shear Modulus (GPa) = 23.38473 28.77805 26.08139
#
# Velocity S-wave (km/s) = 3.42227 3.79646 3.61421
# Velocity P-wave (km/s) = 5.68043 6.27509 5.98515
#
# Compressibility (1/GPa) = 0.03007772
#
# Stress axis : x y z
#
# Youngs Moduli (GPa) = 39.57150 106.05820 72.23642
#
# Poissons Ratio (x) = 0.52443 0.18724
# Poissons Ratio (y) = 0.19567 0.12250
# Poissons Ratio (z) = 0.10257 0.17986
#
# Static dielectric constant tensor:
#      x y z
#    x 3.265890 0.000000 0.000000 
#    y 0.000000 4.010510 0.000000 
#    z 0.000000 0.000000 3.798950 
# 
# 
# High freq. dielectric constant tensor:
#      x y z
#    x 1.740950 0.000000 0.000000 
#    y 0.000000 1.789580 0.000000 
#    z 0.000000 0.000000 1.796010 
# 
# From -- ./inp_files/56634.got.cif
#   From: 2010.03.12/outbox.cif.g09.slc.cpg/sg74_29_cif.got.tgz:56634.got - 2010.04.16 15:46:19.
