data_PCOD8300289
_publ_section_title
;
Structure prediction by ZEFSAII (Michael W. Deem and Ramdas Pophale) SiO2 
 PCOD8300289
Probable space group: I M M A
;
_chemical_formula_sum "Si O2"
_cell_formula_units_Z 72
_cell_length_a 9.361630
_cell_length_b 32.618673
_cell_length_c 13.505032
_cell_angle_alpha 90.000000
_cell_angle_beta 90.000000
_cell_angle_gamma 90.000000
_cell_volume 4123.949886
_symmetry_space_group_name_H-M "I M M A"
_symmetry_group_IT_number 74
_symmetry_cell_setting 'orthorhombic'
loop_
_space_group_symop_operation_xyz
x,y,z
-x,1/2-y,z
x,-y,-z
-x,1/2+y,-z
-x,-y,-z
x,1/2+y,-z
-x,y,z
x,1/2-y,z
1/2+x,1/2+y,1/2+z
1/2-x,-y,1/2+z
1/2+x,1/2-y,1/2-z
1/2-x,y,1/2-z
1/2-x,1/2-y,1/2-z
1/2+x,y,1/2-z
1/2-x,1/2+y,1/2+z
1/2+x,-y,1/2+z
loop_
_atom_site_type_symbol
_atom_site_label
_atom_site_fract_x
_atom_site_fract_y
_atom_site_fract_z
Si Si1 0.000000 0.019516 0.286133
Si Si2 0.500000 0.450642 0.012124
Si Si3 0.824655 0.750000 0.357705
Si Si4 0.330063 0.171639 0.646833
Si Si5 0.281395 0.414387 0.564106
Si Si6 0.750000 0.462884 0.750000
Si Si7 0.000000 0.457833 0.059577
O O1 0.000000 0.055859 0.368311
O O2 0.000000 0.037439 0.176602
O O3 0.137447 0.991478 0.306221
O O4 0.500000 0.500000 0.000000
O O5 0.378776 0.425937 0.956646
O O6 0.750000 0.750000 0.250000
O O7 0.756507 0.709117 0.406806
O O8 0.000000 0.750000 0.356962
O O9 0.500000 0.181191 0.663924
O O10 0.250000 0.161330 0.750000
O O11 0.311290 0.133791 0.572512
O O12 0.330385 0.435373 0.667693
O O13 0.363365 0.431764 0.469808
O O14 0.000000 0.500000 0.000000
#
# Coordination Sequence:
#
# PCOD8300289 Si02
#       7
#     8   8   8  16  16   8   8
#     4  12  24  36  56  70 106 144 198 238 290 316
#     4  12  24  38  52  79 105 149 191 247 279 329
#     4  10  20  36  56  82 114 151 180 219 275 335
#     4  11  22  35  57  83 115 150 184 227 273 335
#     4  12  23  35  55  81 112 145 196 231 278 324
#     4  12  20  34  54  77 102 150 188 239 268 328
#     4  12  22  38  54  75 105 149 191 239 279 333
#
# _framework density 17.458991000000001
#
# number of rings (size 3 to 8) (size 9 to 14) (size 15 to 20)
#    0.000    0.444    6.667    5.000    3.111    0.000 
#    0.000    0.000    0.000    0.000    0.000    0.000 
#    0.000    5.333    0.000    0.000    0.000    0.000 
#
# Total GULP energy -446106.697275 kJ/mol
# GULP energy per Si atom -12391.852702 kJ/mol
# Density = 1.741925 g / cm^3
# Si number density = 17.458991 Si / 1000 Ang^3
#
#
#
# Elastic Constant Matrix: (Units=GPa)
#
#
# Indices 1 2 3 4 5 6 
#
# 1 136.2961 42.0717 6.1512 0.0003 0.0000 0.0000
# 2 42.0717 114.5357 28.4495 0.0012 0.0000 0.0000
# 3 6.1512 28.4495 79.0585 0.0044 0.0002 0.0002
# 4 0.0003 0.0012 0.0044 19.7237 0.0000 0.0000
# 5 0.0000 0.0000 0.0002 0.0000 30.1106 0.0004
# 6 0.0000 0.0000 0.0002 0.0000 0.0004 32.3864
#
#
#
# Elastic Compliance Matrix: (Units=1/GPa)
#
#
# Indices 1 2 3 4 5 6 
#
# 1 0.008293 -0.003169 0.000495 0.000000 0.000000 0.000000
# 2 -0.003169 0.010799 -0.003639 0.000000 0.000000 0.000000
# 3 0.000495 -0.003639 0.013920 -0.000003 0.000000 0.000000
# 4 0.000000 0.000000 -0.000003 0.050701 0.000000 0.000000
# 5 0.000000 0.000000 0.000000 0.000000 0.033211 0.000000
# 6 0.000000 0.000000 0.000000 0.000000 0.000000 0.030877
#
#
# Mechanical properties :
#
#
# Convention : Reuss Voigt Hill
#
# Bulk Modulus (GPa) = 49.05568 53.69279 51.37423
# Shear Modulus (GPa) = 29.90029 33.32532 31.61280
#
# Velocity S-wave (km/s) = 4.14285 4.37369 4.25984
# Velocity P-wave (km/s) = 7.14443 7.50507 7.32697
#
# Compressibility (1/GPa) = 0.02038500
#
# Stress axis : x y z
#
# Youngs Moduli (GPa) = 120.58538 92.60089 71.83899
#
# Poissons Ratio (x) = 0.29347 -0.03558
# Poissons Ratio (y) = 0.38216 0.26146
# Poissons Ratio (z) = -0.05972 0.33702
#
# Static dielectric constant tensor:
#      x y z
#    x 3.542720 0.000000 0.000000 
#    y 0.000000 3.646610 0.000000 
#    z 0.000000 0.000000 3.115380 
# 
# 
# High freq. dielectric constant tensor:
#      x y z
#    x 1.700780 0.000000 0.000000 
#    y 0.000000 1.663240 0.000000 
#    z 0.000000 0.000000 1.639030 
# 
# From -- ./inp_files/29461.got.cif
#   From: 2010.03.12/outbox.cif.g09.slc.cpg/sg74_15_cif.got.tgz:29461.got - 2010.04.16 15:46:19.
