data_PCOD8300753
_publ_section_title
;
Structure prediction by ZEFSAII (Michael W. Deem and Ramdas Pophale) SiO2 
 PCOD8300753
Probable space group: I M M A
;
_chemical_formula_sum "Si O2"
_cell_formula_units_Z 128
_cell_length_a 19.056984
_cell_length_b 15.458785
_cell_length_c 23.554456
_cell_angle_alpha 90.000000
_cell_angle_beta 90.000000
_cell_angle_gamma 90.000000
_cell_volume 6939.091351
_symmetry_space_group_name_H-M "I M M A"
_symmetry_group_IT_number 74
_symmetry_cell_setting 'orthorhombic'
loop_
_space_group_symop_operation_xyz
x,y,z
-x,1/2-y,z
x,-y,-z
-x,1/2+y,-z
-x,-y,-z
x,1/2+y,-z
-x,y,z
x,1/2-y,z
1/2+x,1/2+y,1/2+z
1/2-x,-y,1/2+z
1/2+x,1/2-y,1/2-z
1/2-x,y,1/2-z
1/2-x,1/2-y,1/2-z
1/2+x,y,1/2-z
1/2-x,1/2+y,1/2+z
1/2+x,-y,1/2+z
loop_
_atom_site_type_symbol
_atom_site_label
_atom_site_fract_x
_atom_site_fract_y
_atom_site_fract_z
Si Si1 0.916806 0.001925 0.626736
Si Si2 0.178278 0.647856 0.053169
Si Si3 0.917963 0.150834 0.173800
Si Si4 0.917252 0.989725 0.246198
Si Si5 0.179589 0.147878 0.072501
Si Si6 0.825469 0.914838 0.462866
Si Si7 0.163564 0.653597 0.577811
Si Si8 0.917670 0.850081 0.156142
O O1 0.892563 0.906175 0.609194
O O2 0.000000 0.006382 0.622757
O O3 0.888357 0.021410 0.690101
O O4 0.885406 0.073750 0.584458
O O5 0.184319 0.750000 0.053306
O O6 0.253964 0.609218 0.069869
O O7 0.120666 0.618101 0.098811
O O8 0.157653 0.613390 0.990062
O O9 0.897924 0.250000 0.190569
O O10 0.877572 0.117468 0.117937
O O11 0.000000 0.143798 0.159975
O O12 0.895204 0.085080 0.223575
O O13 0.889263 0.911112 0.207000
O O14 0.000000 0.983785 0.247707
O O15 0.182708 0.250000 0.069925
O O16 0.257824 0.116043 0.089598
O O17 0.848093 0.842748 0.509218
O O18 0.814205 0.000000 0.500000
O O19 0.153499 0.750000 0.602122
O O20 0.900464 0.750000 0.171089
O O21 0.000000 0.863120 0.145613
#
# Coordination Sequence:
#
# PCOD8300753 Si02
#       8
#    16  16  16  16  16  16  16  16
#     4  10  21  36  53  72  94 124 164 207 250 300
#     4   9  17  31  52  75 100 131 164 200 244 293
#     4   9  17  30  50  75 104 138 172 206 241 280
#     4   9  19  35  51  69  98 133 168 208 253 296
#     4   8  15  29  48  72 104 136 163 195 242 298
#     4   9  18  32  51  73 100 130 155 190 246 305
#     4   9  18  33  52  74 101 130 156 192 247 304
#     4   9  18  33  52  73  99 133 172 211 246 281
#
# _framework density 18.44622
#
# number of rings (size 3 to 8) (size 9 to 14) (size 15 to 20)
#    0.000    3.000    0.000    1.125    0.000    6.500 
#    0.000    7.500    0.000    9.000    0.000    0.000 
#    0.000    0.000    0.000    0.000    0.000    0.000 
#
# Total GULP energy -793181.737639 kJ/mol
# GULP energy per Si atom -12393.464651 kJ/mol
# Density = 1.840424 g / cm^3
# Si number density = 18.446220 Si / 1000 Ang^3
#
#
#
# Elastic Constant Matrix: (Units=GPa)
#
#
# Indices 1 2 3 4 5 6 
#
# 1 69.7685 17.0894 50.6419 0.0000 0.0000 0.0000
# 2 17.0894 40.0409 23.5988 0.0000 0.0000 0.0000
# 3 50.6419 23.5988 112.3750 0.0000 0.0000 0.0000
# 4 0.0000 0.0000 0.0000 17.6652 0.0000 0.0000
# 5 0.0000 0.0000 0.0000 0.0000 12.3629 0.0000
# 6 0.0000 0.0000 0.0000 0.0000 0.0000 25.4483
#
#
#
# Elastic Compliance Matrix: (Units=1/GPa)
#
#
# Indices 1 2 3 4 5 6 
#
# 1 0.021854 -0.004020 -0.009004 0.000000 0.000000 0.000000
# 2 -0.004020 0.029242 -0.004329 0.000000 0.000000 0.000000
# 3 -0.009004 -0.004329 0.013866 0.000000 0.000000 0.000000
# 4 0.000000 0.000000 0.000000 0.056609 0.000000 0.000000
# 5 0.000000 0.000000 0.000000 0.000000 0.080887 0.000000
# 6 0.000000 0.000000 0.000000 0.000000 0.000000 0.039295
#
#
# Mechanical properties :
#
#
# Convention : Reuss Voigt Hill
#
# Bulk Modulus (GPa) = 33.05352 44.98273 39.01812
# Shear Modulus (GPa) = 17.44936 19.81888 18.63412
#
# Velocity S-wave (km/s) = 3.07898 3.28138 3.18179
# Velocity P-wave (km/s) = 5.53154 6.22860 5.89039
#
# Compressibility (1/GPa) = 0.03025397
#
# Stress axis : x y z
#
# Youngs Moduli (GPa) = 45.75921 34.19775 72.12126
#
# Poissons Ratio (x) = 0.13749 0.64938
# Poissons Ratio (y) = 0.18397 0.31221
# Poissons Ratio (z) = 0.41202 0.14804
#
# Static dielectric constant tensor:
#      x y z
#    x 3.277980 0.000000 0.000000 
#    y 0.000000 3.501580 0.000000 
#    z 0.000000 0.000000 3.797770 
# 
# 
# High freq. dielectric constant tensor:
#      x y z
#    x 1.696560 0.000000 0.000000 
#    y 0.000000 1.714170 0.000000 
#    z 0.000000 0.000000 1.708460 
# 
# From -- ./inp_files/54172.got.cif
#   From: 2010.03.12/outbox.cif.g09.slc.cpg/sg74_28_cif.got.tgz:54172.got - 2010.04.16 15:46:19.
