data_PCOD8300394
_publ_section_title
;
Structure prediction by ZEFSAII (Michael W. Deem and Ramdas Pophale) SiO2 
 PCOD8300394
Probable space group: I M M A
;
_chemical_formula_sum "Si O2"
_cell_formula_units_Z 88
_cell_length_a 9.583587
_cell_length_b 20.926670
_cell_length_c 21.395150
_cell_angle_alpha 90.000000
_cell_angle_beta 90.000000
_cell_angle_gamma 90.000000
_cell_volume 4290.852159
_symmetry_space_group_name_H-M "I M M A"
_symmetry_group_IT_number 74
_symmetry_cell_setting 'orthorhombic'
loop_
_space_group_symop_operation_xyz
x,y,z
-x,1/2-y,z
x,-y,-z
-x,1/2+y,-z
-x,-y,-z
x,1/2+y,-z
-x,y,z
x,1/2-y,z
1/2+x,1/2+y,1/2+z
1/2-x,-y,1/2+z
1/2+x,1/2-y,1/2-z
1/2-x,y,1/2-z
1/2-x,1/2-y,1/2-z
1/2+x,y,1/2-z
1/2-x,1/2+y,1/2+z
1/2+x,-y,1/2+z
loop_
_atom_site_type_symbol
_atom_site_label
_atom_site_fract_x
_atom_site_fract_y
_atom_site_fract_z
Si Si1 0.341780 0.543104 0.132474
Si Si2 0.846922 0.052308 0.063382
Si Si3 0.842499 0.874026 0.058507
Si Si4 0.349933 0.860506 0.671100
Si Si5 0.665647 0.750000 0.517556
Si Si6 0.333098 0.250000 0.146988
Si Si7 0.250000 0.526165 0.750000
O O1 0.500000 0.556477 0.113512
O O2 0.282466 0.487145 0.089118
O O3 0.253698 0.607906 0.118179
O O4 0.335482 0.521080 0.204622
O O5 0.843579 0.121597 0.097562
O O6 0.000000 0.020510 0.077103
O O7 0.831697 0.065392 0.989343
O O8 0.000000 0.864336 0.082397
O O9 0.789874 0.810459 0.024482
O O10 0.500000 0.827394 0.685400
O O11 0.220938 0.812513 0.685406
O O12 0.347060 0.926870 0.709513
O O13 0.500000 0.750000 0.533922
O O14 0.757773 0.750000 0.580137
O O15 0.500000 0.250000 0.141872
#
# Coordination Sequence:
#
# PCOD8300394 Si02
#       7
#    16  16  16  16   8   8   8
#     4  11  23  37  57  86 118 149 189 245 301 346
#     4   9  18  34  57  84 115 153 195 235 281 347
#     4  10  20  36  60  87 116 153 194 233 282 349
#     4  10  20  38  61  80 110 159 206 241 281 342
#     4  10  20  40  63  86 119 160 200 231 274 351
#     4  12  24  35  55  88 123 154 190 243 298 340
#     4  10  24  43  60  81 110 154 204 252 290 340
#
# _framework density 20.508747
#
# number of rings (size 3 to 8) (size 9 to 14) (size 15 to 20)
#    0.000    1.818    1.818    2.455    0.000    9.818 
#    0.000    0.000    0.000    0.545    0.000    0.000 
#    0.000    0.000    0.000    0.000    0.000    0.000 
#
# Total GULP energy -545350.175464 kJ/mol
# GULP energy per Si atom -12394.322170 kJ/mol
# Density = 2.046207 g / cm^3
# Si number density = 20.508747 Si / 1000 Ang^3
#
#
#
# Elastic Constant Matrix: (Units=GPa)
#
#
# Indices 1 2 3 4 5 6 
#
# 1 146.3045 38.0840 39.9071 0.0000 0.0000 0.0000
# 2 38.0840 60.6581 31.2850 0.0000 0.0000 0.0000
# 3 39.9071 31.2850 81.1411 0.0000 0.0000 0.0000
# 4 0.0000 0.0000 0.0000 28.4956 0.0000 0.0000
# 5 0.0000 0.0000 0.0000 0.0000 18.7846 0.0000
# 6 0.0000 0.0000 0.0000 0.0000 0.0000 25.7162
#
#
#
# Elastic Compliance Matrix: (Units=1/GPa)
#
#
# Indices 1 2 3 4 5 6 
#
# 1 0.008615 -0.004024 -0.002686 0.000000 0.000000 0.000000
# 2 -0.004024 0.022457 -0.006680 0.000000 0.000000 0.000000
# 3 -0.002686 -0.006680 0.016221 0.000000 0.000000 0.000000
# 4 0.000000 0.000000 0.000000 0.035093 0.000000 0.000000
# 5 0.000000 0.000000 0.000000 0.000000 0.053235 0.000000
# 6 0.000000 0.000000 0.000000 0.000000 0.000000 0.038886
#
#
# Mechanical properties :
#
#
# Convention : Reuss Voigt Hill
#
# Bulk Modulus (GPa) = 48.74586 56.29511 52.52049
# Shear Modulus (GPa) = 24.02419 26.52112 25.27265
#
# Velocity S-wave (km/s) = 3.42630 3.59996 3.51420
# Velocity P-wave (km/s) = 6.28273 6.69242 6.49081
#
# Compressibility (1/GPa) = 0.02051456
#
# Stress axis : x y z
#
# Youngs Moduli (GPa) = 116.07622 44.52893 61.65027
#
# Poissons Ratio (x) = 0.17917 0.16557
# Poissons Ratio (y) = 0.46706 0.41181
# Poissons Ratio (z) = 0.31174 0.29744
#
# Static dielectric constant tensor:
#      x y z
#    x 3.496880 0.000000 0.000000 
#    y 0.000000 3.762310 0.000000 
#    z 0.000000 0.000000 3.814860 
# 
# 
# High freq. dielectric constant tensor:
#      x y z
#    x 1.789270 0.000000 0.000000 
#    y 0.000000 1.792630 0.000000 
#    z 0.000000 0.000000 1.792090 
# 
# From -- ./inp_files/57055.got.cif
#   From: 2010.03.12/outbox.cif.g09.slc.cpg/sg74_29_cif.got.tgz:57055.got - 2010.04.16 15:46:19.
