data_PCOD8300467
_publ_section_title
;
Structure prediction by ZEFSAII (Michael W. Deem and Ramdas Pophale) SiO2 
 PCOD8300467
Probable space group: I M M A
;
_chemical_formula_sum "Si O2"
_cell_formula_units_Z 88
_cell_length_a 26.910497
_cell_length_b 8.765132
_cell_length_c 19.261245
_cell_angle_alpha 90.000000
_cell_angle_beta 90.000000
_cell_angle_gamma 90.000000
_cell_volume 4543.228028
_symmetry_space_group_name_H-M "I M M A"
_symmetry_group_IT_number 74
_symmetry_cell_setting 'orthorhombic'
loop_
_space_group_symop_operation_xyz
x,y,z
-x,1/2-y,z
x,-y,-z
-x,1/2+y,-z
-x,-y,-z
x,1/2+y,-z
-x,y,z
x,1/2-y,z
1/2+x,1/2+y,1/2+z
1/2-x,-y,1/2+z
1/2+x,1/2-y,1/2-z
1/2-x,y,1/2-z
1/2-x,1/2-y,1/2-z
1/2+x,y,1/2-z
1/2-x,1/2+y,1/2+z
1/2+x,-y,1/2+z
loop_
_atom_site_type_symbol
_atom_site_label
_atom_site_fract_x
_atom_site_fract_y
_atom_site_fract_z
Si Si1 0.694687 0.429392 0.424699
Si Si2 0.500000 0.431387 0.576796
Si Si3 0.905304 0.430021 0.152500
Si Si4 0.616229 0.071607 0.798634
Si Si5 0.729817 0.572609 0.176965
Si Si6 0.443494 0.570682 0.069247
O O1 0.694771 0.500000 0.500000
O O2 0.695877 0.250000 0.431852
O O3 0.645051 0.484032 0.385282
O O4 0.743843 0.481854 0.384519
O O5 0.500000 0.250000 0.571179
O O6 0.500000 0.500000 0.500000
O O7 0.548657 0.484097 0.617967
O O8 0.913975 0.250000 0.145698
O O9 0.900239 0.474649 0.232609
O O10 0.608290 0.250000 0.781675
O O11 0.671746 0.038282 0.823664
O O12 0.583061 0.011303 0.861838
O O13 0.742323 0.750000 0.167078
O O14 0.750000 0.511455 0.250000
O O15 0.500000 0.515244 0.074903
O O16 0.438127 0.750000 0.063540
O O17 0.418755 0.500000 0.000000
#
# Coordination Sequence:
#
# PCOD8300467 Si02
#       6
#    16   8  16  16  16  16
#     4  11  24  40  62  89 121 159 203 250 301 361
#     4  12  26  44  66  90 123 162 201 250 304 362
#     4  11  24  41  62  92 124 159 203 250 301 362
#     4  10  21  37  60  90 122 159 201 249 303 360
#     4  10  20  37  60  86 120 158 198 244 298 356
#     4   9  19  36  57  82 114 151 194 239 294 354
#
# _framework density 19.369486999999999
#
# number of rings (size 3 to 8) (size 9 to 14) (size 15 to 20)
#    0.000    1.636    1.818    2.455    1.273    6.182 
#    0.000    1.818    0.000    0.000    0.000    0.000 
#    0.000    0.000    0.000    0.000    0.000    0.000 
#
# Total GULP energy -545758.880117 kJ/mol
# GULP energy per Si atom -12403.610912 kJ/mol
# Density = 1.932540 g / cm^3
# Si number density = 19.369487 Si / 1000 Ang^3
#
#
#
# Elastic Constant Matrix: (Units=GPa)
#
#
# Indices 1 2 3 4 5 6 
#
# 1 102.0327 44.5834 75.0076 0.0000 0.0000 0.0000
# 2 44.5834 69.3864 52.9444 0.0000 0.0000 0.0000
# 3 75.0076 52.9444 185.7877 0.0000 0.0000 0.0000
# 4 0.0000 0.0000 0.0000 36.4360 0.0000 0.0000
# 5 0.0000 0.0000 0.0000 0.0000 36.7230 0.0000
# 6 0.0000 0.0000 0.0000 0.0000 0.0000 65.0273
#
#
#
# Elastic Compliance Matrix: (Units=1/GPa)
#
#
# Indices 1 2 3 4 5 6 
#
# 1 0.016173 -0.006913 -0.004560 0.000000 0.000000 0.000000
# 2 -0.006913 0.021371 -0.003299 0.000000 0.000000 0.000000
# 3 -0.004560 -0.003299 0.008164 0.000000 0.000000 0.000000
# 4 0.000000 0.000000 0.000000 0.027445 0.000000 0.000000
# 5 0.000000 0.000000 0.000000 0.000000 0.027231 0.000000
# 6 0.000000 0.000000 0.000000 0.000000 0.000000 0.015378
#
#
# Mechanical properties :
#
#
# Convention : Reuss Voigt Hill
#
# Bulk Modulus (GPa) = 61.86361 78.03084 69.94722
# Shear Modulus (GPa) = 33.17976 39.94870 36.56423
#
# Velocity S-wave (km/s) = 4.14332 4.54635 4.34951
# Velocity P-wave (km/s) = 7.40928 8.24209 7.83676
#
# Compressibility (1/GPa) = 0.01616459
#
# Stress axis : x y z
#
# Youngs Moduli (GPa) = 61.83038 46.79172 122.49547
#
# Poissons Ratio (x) = 0.32346 0.55854
# Poissons Ratio (y) = 0.42742 0.40416
# Poissons Ratio (z) = 0.28192 0.15438
#
# Static dielectric constant tensor:
#      x y z
#    x 3.749710 0.000000 0.000000 
#    y 0.000000 3.468480 0.000000 
#    z 0.000000 0.000000 3.694900 
# 
# 
# High freq. dielectric constant tensor:
#      x y z
#    x 1.762510 0.000000 0.000000 
#    y 0.000000 1.750710 0.000000 
#    z 0.000000 0.000000 1.769720 
# 
# From -- ./inp_files/54507.got.cif
#   From: 2010.03.12/outbox.cif.g09.slc.cpg/sg74_28_cif.got.tgz:54507.got - 2010.04.16 15:46:19.
