data_PCOD8300362
_publ_section_title
;
Structure prediction by ZEFSAII (Michael W. Deem and Ramdas Pophale) SiO2 
 PCOD8300362
Probable space group: I M M A
;
_chemical_formula_sum "Si O2"
_cell_formula_units_Z 64
_cell_length_a 17.323714
_cell_length_b 17.900635
_cell_length_c 10.225129
_cell_angle_alpha 90.000000
_cell_angle_beta 90.000000
_cell_angle_gamma 90.000000
_cell_volume 3170.868548
_symmetry_space_group_name_H-M "I M M A"
_symmetry_group_IT_number 74
_symmetry_cell_setting 'orthorhombic'
loop_
_space_group_symop_operation_xyz
x,y,z
-x,1/2-y,z
x,-y,-z
-x,1/2+y,-z
-x,-y,-z
x,1/2+y,-z
-x,y,z
x,1/2-y,z
1/2+x,1/2+y,1/2+z
1/2-x,-y,1/2+z
1/2+x,1/2-y,1/2-z
1/2-x,y,1/2-z
1/2-x,1/2-y,1/2-z
1/2+x,y,1/2-z
1/2-x,1/2+y,1/2+z
1/2+x,-y,1/2+z
loop_
_atom_site_type_symbol
_atom_site_label
_atom_site_fract_x
_atom_site_fract_y
_atom_site_fract_z
Si Si1 0.645461 0.914015 0.002746
Si Si2 0.588736 0.664381 0.751847
Si Si3 0.672775 0.414402 0.480433
Si Si4 0.658494 0.833715 0.261751
O O1 0.597925 0.867339 0.897289
O O2 0.735699 0.904329 0.973742
O O3 0.622572 0.882260 0.144883
O O4 0.620159 0.000000 0.000000
O O5 0.500000 0.658852 0.709372
O O6 0.617504 0.750000 0.748083
O O7 0.639835 0.614963 0.655334
O O8 0.649613 0.500000 0.500000
O O9 0.634637 0.368622 0.599396
O O10 0.625304 0.750000 0.254102
O O11 0.750000 0.834105 0.250000
#
# Coordination Sequence:
#
# PCOD8300362 Si02
#       4
#    16  16  16  16
#     4  10  20  36  59  84 109 141 185 236 286 334
#     4  11  24  39  55  81 118 157 194 229 272 334
#     4  10  20  36  59  84 109 141 185 236 286 334
#     4   9  17  30  51  79 106 133 172 224 278 327
#
# _framework density 20.183744000000001
#
# number of rings (size 3 to 8) (size 9 to 14) (size 15 to 20)
#    0.000    2.000    0.000    3.750    0.000    9.000 
#    0.000    1.250    0.000    4.500    0.000    0.000 
#    0.000    0.000    0.000    0.000    0.000    0.000 
#
# Total GULP energy -396943.726565 kJ/mol
# GULP energy per Si atom -12404.491455 kJ/mol
# Density = 2.013781 g / cm^3
# Si number density = 20.183744 Si / 1000 Ang^3
#
#
#
# Elastic Constant Matrix: (Units=GPa)
#
#
# Indices 1 2 3 4 5 6 
#
# 1 25.8026 17.3943 3.6210 0.0000 0.0000 0.0000
# 2 17.3943 149.7256 35.8741 0.0000 0.0000 0.0000
# 3 3.6210 35.8741 101.5013 0.0000 0.0000 0.0000
# 4 0.0000 0.0000 0.0000 48.0421 0.0000 0.0000
# 5 0.0000 0.0000 0.0000 0.0000 2.2391 0.0000
# 6 0.0000 0.0000 0.0000 0.0000 0.0000 170.4330
#
#
#
# Elastic Compliance Matrix: (Units=1/GPa)
#
#
# Indices 1 2 3 4 5 6 
#
# 1 0.042055 -0.004945 0.000247 0.000000 0.000000 0.000000
# 2 -0.004945 0.007878 -0.002608 0.000000 0.000000 0.000000
# 3 0.000247 -0.002608 0.010765 0.000000 0.000000 0.000000
# 4 0.000000 0.000000 0.000000 0.020815 0.000000 0.000000
# 5 0.000000 0.000000 0.000000 0.000000 0.446615 0.000000
# 6 0.000000 0.000000 0.000000 0.000000 0.000000 0.005867
#
#
# Mechanical properties :
#
#
# Convention : Reuss Voigt Hill
#
# Bulk Modulus (GPa) = 21.69818 43.42314 32.56066
# Shear Modulus (GPa) = 8.86574 58.81883 33.84229
#
# Velocity S-wave (km/s) = 2.09811 5.40416 4.09921
# Velocity P-wave (km/s) = 4.07959 7.77821 6.21062
#
# Compressibility (1/GPa) = 0.04608681
#
# Stress axis : x y z
#
# Youngs Moduli (GPa) = 23.77859 126.93174 92.89335
#
# Poissons Ratio (x) = 0.62767 -0.02299
# Poissons Ratio (y) = 0.11758 0.24227
# Poissons Ratio (z) = -0.00588 0.33104
#
# Static dielectric constant tensor:
#      x y z
#    x 3.223240 0.000000 0.000000 
#    y 0.000000 3.928070 0.000000 
#    z 0.000000 0.000000 3.751410 
# 
# 
# High freq. dielectric constant tensor:
#      x y z
#    x 1.748030 0.000000 0.000000 
#    y 0.000000 1.806740 0.000000 
#    z 0.000000 0.000000 1.803220 
# 
# From -- ./inp_files/10212.got.cif
#   From: 2010.03.12/outbox.cif.g09.slc.cpg/sg74_6_cif.got.tgz:10212.got - 2010.04.16 15:46:19.
