data_PCOD8300666
_publ_section_title
;
Structure prediction by ZEFSAII (Michael W. Deem and Ramdas Pophale) SiO2 
 PCOD8300666
Probable space group: I M M A
;
_chemical_formula_sum "Si O2"
_cell_formula_units_Z 96
_cell_length_a 25.344381
_cell_length_b 18.468060
_cell_length_c 9.813277
_cell_angle_alpha 90.000000
_cell_angle_beta 90.000000
_cell_angle_gamma 90.000000
_cell_volume 4593.217633
_symmetry_space_group_name_H-M "I M M A"
_symmetry_group_IT_number 74
_symmetry_cell_setting 'orthorhombic'
loop_
_space_group_symop_operation_xyz
x,y,z
-x,1/2-y,z
x,-y,-z
-x,1/2+y,-z
-x,-y,-z
x,1/2+y,-z
-x,y,z
x,1/2-y,z
1/2+x,1/2+y,1/2+z
1/2-x,-y,1/2+z
1/2+x,1/2-y,1/2-z
1/2-x,y,1/2-z
1/2-x,1/2-y,1/2-z
1/2+x,y,1/2-z
1/2-x,1/2+y,1/2+z
1/2+x,-y,1/2+z
loop_
_atom_site_type_symbol
_atom_site_label
_atom_site_fract_x
_atom_site_fract_y
_atom_site_fract_z
Si Si1 0.059836 0.333561 0.180298
Si Si2 0.097360 0.434845 0.415325
Si Si3 0.245081 0.332083 0.496516
Si Si4 0.641846 0.167201 0.856427
Si Si5 0.289055 0.036902 0.138847
Si Si6 0.861237 0.164243 0.943221
O O1 0.074473 0.250000 0.222793
O O2 0.063358 0.390911 0.304698
O O3 0.097029 0.361510 0.057090
O O4 0.000000 0.335546 0.126713
O O5 0.067663 0.500000 0.500000
O O6 0.113585 0.376391 0.526201
O O7 0.147943 0.472727 0.338998
O O8 0.248492 0.250000 0.446352
O O9 0.205706 0.339725 0.627081
O O10 0.220947 0.376884 0.370665
O O11 0.302824 0.364952 0.525212
O O12 0.623962 0.250000 0.872987
O O13 0.624053 0.136300 0.708546
O O14 0.250000 0.002027 0.250000
O O15 0.271031 0.000000 0.000000
O O16 0.859196 0.250000 0.936605
#
# Coordination Sequence:
#
# PCOD8300666 Si02
#       6
#    16  16  16  16  16  16
#     4  10  21  38  59  80 104 139 184 233 282 327
#     4  10  21  36  53  77 108 143 182 224 272 321
#     4   9  17  29  50  79 108 138 172 212 262 322
#     4   9  17  31  53  80 109 139 172 212 260 323
#     4  10  21  34  49  74 109 146 181 216 261 321
#     4   9  17  31  53  80 107 136 174 221 272 325
#
# _framework density 20.900380999999999
#
# number of rings (size 3 to 8) (size 9 to 14) (size 15 to 20)
#    0.000    2.500    0.000    2.000    0.000    7.333 
#    0.000    1.667    0.000    4.000    0.000    0.000 
#    0.000    0.000    0.000    0.000    0.000    0.000 
#
# Total GULP energy -594632.750383 kJ/mol
# GULP energy per Si atom -12388.182300 kJ/mol
# Density = 2.085281 g / cm^3
# Si number density = 20.900381 Si / 1000 Ang^3
#
#
#
# Elastic Constant Matrix: (Units=GPa)
#
#
# Indices 1 2 3 4 5 6 
#
# 1 72.6349 24.6902 44.9024 0.0000 0.0000 0.0000
# 2 24.6902 56.5506 26.7165 0.0000 0.0000 0.0000
# 3 44.9024 26.7165 85.9394 0.0000 0.0000 0.0000
# 4 0.0000 0.0000 0.0000 19.7233 0.0000 0.0000
# 5 0.0000 0.0000 0.0000 0.0000 23.3703 0.0000
# 6 0.0000 0.0000 0.0000 0.0000 0.0000 15.0733
#
#
#
# Elastic Compliance Matrix: (Units=1/GPa)
#
#
# Indices 1 2 3 4 5 6 
#
# 1 0.021373 -0.004754 -0.009689 0.000000 0.000000 0.000000
# 2 -0.004754 0.021785 -0.004288 0.000000 0.000000 0.000000
# 3 -0.009689 -0.004288 0.018032 0.000000 0.000000 0.000000
# 4 0.000000 0.000000 0.000000 0.050701 0.000000 0.000000
# 5 0.000000 0.000000 0.000000 0.000000 0.042789 0.000000
# 6 0.000000 0.000000 0.000000 0.000000 0.000000 0.066342
#
#
# Mechanical properties :
#
#
# Convention : Reuss Voigt Hill
#
# Bulk Modulus (GPa) = 42.14730 45.30478 43.72604
# Shear Modulus (GPa) = 18.76904 19.55445 19.16174
#
# Velocity S-wave (km/s) = 2.99996 3.06208 3.03118
# Velocity P-wave (km/s) = 5.67532 5.85025 5.76344
#
# Compressibility (1/GPa) = 0.02372631
#
# Stress axis : x y z
#
# Youngs Moduli (GPa) = 46.78700 45.90324 55.45719
#
# Poissons Ratio (x) = 0.21823 0.53735
# Poissons Ratio (y) = 0.22243 0.23783
# Poissons Ratio (z) = 0.45334 0.19686
#
# Static dielectric constant tensor:
#      x y z
#    x 3.593230 0.000000 0.000000 
#    y 0.000000 3.944030 0.000000 
#    z 0.000000 0.000000 3.780370 
# 
# 
# High freq. dielectric constant tensor:
#      x y z
#    x 1.784780 0.000000 0.000000 
#    y 0.000000 1.817290 0.000000 
#    z 0.000000 0.000000 1.809120 
# 
# From -- ./inp_files/15093.got.cif
#   From: 2010.03.12/outbox.cif.g09.slc.cpg/sg74_8_cif.got.tgz:15093.got - 2010.04.16 15:46:19.
