data_PCOD8300008
_publ_section_title
;
Structure prediction by ZEFSAII (Michael W. Deem and Ramdas Pophale) SiO2 
 PCOD8300008
Probable space group: I M M A
;
_chemical_formula_sum "Si O2"
_cell_formula_units_Z 80
_cell_length_a 9.649656
_cell_length_b 17.736180
_cell_length_c 25.677484
_cell_angle_alpha 90.000000
_cell_angle_beta 90.000000
_cell_angle_gamma 90.000000
_cell_volume 4394.650950
_symmetry_space_group_name_H-M "I M M A"
_symmetry_group_IT_number 74
_symmetry_cell_setting 'orthorhombic'
loop_
_space_group_symop_operation_xyz
x,y,z
-x,1/2-y,z
x,-y,-z
-x,1/2+y,-z
-x,-y,-z
x,1/2+y,-z
-x,y,z
x,1/2-y,z
1/2+x,1/2+y,1/2+z
1/2-x,-y,1/2+z
1/2+x,1/2-y,1/2-z
1/2-x,y,1/2-z
1/2-x,1/2-y,1/2-z
1/2+x,y,1/2-z
1/2-x,1/2+y,1/2+z
1/2+x,-y,1/2+z
loop_
_atom_site_type_symbol
_atom_site_label
_atom_site_fract_x
_atom_site_fract_y
_atom_site_fract_z
Si Si1 0.269480 0.661152 0.558756
Si Si2 0.500000 0.941298 0.950244
Si Si3 0.000000 0.839362 0.018659
Si Si4 0.277759 0.581725 0.305576
Si Si5 0.000000 0.162572 0.142788
Si Si6 0.000000 0.537673 0.775589
Si Si7 0.500000 0.514921 0.162149
Si Si8 0.000000 0.662655 0.131661
O O1 0.232105 0.750000 0.557729
O O2 0.361803 0.634555 0.510282
O O3 0.359872 0.642576 0.610605
O O4 0.133126 0.612092 0.551241
O O5 0.500000 0.980724 0.894635
O O6 0.500000 0.000000 0.000000
O O7 0.000000 0.877570 0.075395
O O8 0.000000 0.750000 0.019205
O O9 0.250000 0.620770 0.250000
O O10 0.363654 0.505148 0.295814
O O11 0.361359 0.641240 0.338897
O O12 0.135315 0.566620 0.335077
O O13 0.000000 0.119599 0.198045
O O14 0.000000 0.250000 0.156938
O O15 0.000000 0.542990 0.712092
O O16 0.000000 0.750000 0.122127
#
# Coordination Sequence:
#
# PCOD8300008 Si02
#       8
#    16   8   8  16   8   8   8   8
#     4   9  19  38  57  77 112 147 176 221 284 330
#     4  12  25  34  51  83 111 146 183 227 269 317
#     4   8  17  35  58  76  96 138 183 220 265 316
#     4   9  19  35  56  76 105 148 175 208 276 330
#     4   9  17  34  63  90 108 137 185 231 270 326
#     4   9  17  35  58  79 105 150 182 212 264 330
#     4  10  21  36  52  75 116 145 180 220 265 327
#     4  10  20  34  57  81 100 130 185 235 268 318
#
# _framework density 18.203949000000001
#
# number of rings (size 3 to 8) (size 9 to 14) (size 15 to 20)
#    0.000    2.600    0.000    3.300    2.800    0.400 
#    0.000    2.500    0.000    7.800    0.000    0.000 
#    0.000    0.000    0.000    0.000    0.000    0.000 
#
# Total GULP energy -495660.848320 kJ/mol
# GULP energy per Si atom -12391.521208 kJ/mol
# Density = 1.816252 g / cm^3
# Si number density = 18.203949 Si / 1000 Ang^3
#
#
#
# Elastic Constant Matrix: (Units=GPa)
#
#
# Indices 1 2 3 4 5 6 
#
# 1 154.6996 41.1764 53.9388 0.0000 0.0000 0.0000
# 2 41.1764 53.7405 44.8449 0.0000 0.0000 0.0000
# 3 53.9388 44.8449 140.2406 0.0000 0.0000 0.0000
# 4 0.0000 0.0000 0.0000 28.0523 0.0000 0.0000
# 5 0.0000 0.0000 0.0000 0.0000 24.2224 0.0000
# 6 0.0000 0.0000 0.0000 0.0000 0.0000 18.0863
#
#
#
# Elastic Compliance Matrix: (Units=1/GPa)
#
#
# Indices 1 2 3 4 5 6 
#
# 1 0.008374 -0.005085 -0.001594 0.000000 0.000000 0.000000
# 2 -0.005085 0.028469 -0.007148 0.000000 0.000000 0.000000
# 3 -0.001594 -0.007148 0.010029 0.000000 0.000000 0.000000
# 4 0.000000 0.000000 0.000000 0.035648 0.000000 0.000000
# 5 0.000000 0.000000 0.000000 0.000000 0.041284 0.000000
# 6 0.000000 0.000000 0.000000 0.000000 0.000000 0.055290
#
#
# Mechanical properties :
#
#
# Convention : Reuss Voigt Hill
#
# Bulk Modulus (GPa) = 52.03719 69.84454 60.94087
# Shear Modulus (GPa) = 23.45713 27.98691 25.72202
#
# Velocity S-wave (km/s) = 3.59356 3.92523 3.76306
# Velocity P-wave (km/s) = 6.77244 7.68078 7.24087
#
# Compressibility (1/GPa) = 0.01921702
#
# Stress axis : x y z
#
# Youngs Moduli (GPa) = 119.42194 35.12610 99.70629
#
# Poissons Ratio (x) = 0.17863 0.15898
# Poissons Ratio (y) = 0.60731 0.71266
# Poissons Ratio (z) = 0.19042 0.25107
#
# Static dielectric constant tensor:
#      x y z
#    x 3.512080 0.000000 0.000000 
#    y 0.000000 3.019420 0.000000 
#    z 0.000000 0.000000 3.653320 
# 
# 
# High freq. dielectric constant tensor:
#      x y z
#    x 1.722390 0.000000 0.000000 
#    y 0.000000 1.675890 0.000000 
#    z 0.000000 0.000000 1.714650 
# 
# From -- ./inp_files/56940.got.cif
#   From: 2010.03.12/outbox.cif.g09.slc.cpg/sg74_29_cif.got.tgz:56940.got - 2010.04.16 15:46:19.
