data_PCOD8300089
_publ_section_title
;
Structure prediction by ZEFSAII (Michael W. Deem and Ramdas Pophale) SiO2 
 PCOD8300089
Probable space group: I M M A
;
_chemical_formula_sum "Si O2"
_cell_formula_units_Z 64
_cell_length_a 8.823211
_cell_length_b 27.408879
_cell_length_c 14.459684
_cell_angle_alpha 90.000000
_cell_angle_beta 90.000000
_cell_angle_gamma 90.000000
_cell_volume 3496.847886
_symmetry_space_group_name_H-M "I M M A"
_symmetry_group_IT_number 74
_symmetry_cell_setting 'orthorhombic'
loop_
_space_group_symop_operation_xyz
x,y,z
-x,1/2-y,z
x,-y,-z
-x,1/2+y,-z
-x,-y,-z
x,1/2+y,-z
-x,y,z
x,1/2-y,z
1/2+x,1/2+y,1/2+z
1/2-x,-y,1/2+z
1/2+x,1/2-y,1/2-z
1/2-x,y,1/2-z
1/2-x,1/2-y,1/2-z
1/2+x,y,1/2-z
1/2-x,1/2+y,1/2+z
1/2+x,-y,1/2+z
loop_
_atom_site_type_symbol
_atom_site_label
_atom_site_fract_x
_atom_site_fract_y
_atom_site_fract_z
Si Si1 0.665961 0.984304 0.104815
Si Si2 0.676064 0.806796 0.346296
Si Si3 0.822200 0.077696 0.156654
Si Si4 0.320542 0.884660 0.029527
O O1 0.500000 0.989215 0.153265
O O2 0.785866 0.019510 0.154574
O O3 0.721896 0.928034 0.102399
O O4 0.646764 0.000000 0.000000
O O5 0.500000 0.820023 0.342445
O O6 0.704330 0.750000 0.364943
O O7 0.750000 0.823196 0.250000
O O8 0.754790 0.834709 0.430658
O O9 0.750000 0.099971 0.250000
O O10 0.751767 0.106089 0.070390
O O11 0.000000 0.085875 0.156895
O O12 0.500000 0.881168 0.016681
#
# Coordination Sequence:
#
# PCOD8300089 Si02
#       4
#    16  16  16  16
#     4   8  16  31  48  69  99 133 170 211 253 298
#     4  10  21  37  57  81 107 135 170 213 262 315
#     4  11  21  33  51  75 106 143 181 218 258 307
#     4  10  20  35  55  78 106 139 176 218 263 312
#
# _framework density 18.302195999999999
#
# number of rings (size 3 to 8) (size 9 to 14) (size 15 to 20)
#    0.000    2.250    0.000    5.250    0.000    8.000 
#    0.000    0.000    0.000    0.750    0.000    0.000 
#    0.000    0.000    0.000    0.000    0.000    0.000 
#
# Total GULP energy -396726.963493 kJ/mol
# GULP energy per Si atom -12397.717609 kJ/mol
# Density = 1.826054 g / cm^3
# Si number density = 18.302196 Si / 1000 Ang^3
#
#
#
# Elastic Constant Matrix: (Units=GPa)
#
#
# Indices 1 2 3 4 5 6 
#
# 1 141.7630 51.8909 70.2371 0.0000 0.0000 0.0000
# 2 51.8909 75.7560 52.5475 0.0001 0.0000 0.0001
# 3 70.2371 52.5475 113.2195 0.0004 0.0000 0.0000
# 4 0.0000 0.0001 0.0004 25.6407 0.0000 0.0001
# 5 0.0000 0.0000 0.0000 0.0000 33.0451 0.0001
# 6 0.0000 0.0001 0.0000 0.0001 0.0001 21.1924
#
#
#
# Elastic Compliance Matrix: (Units=1/GPa)
#
#
# Indices 1 2 3 4 5 6 
#
# 1 0.010996 -0.004130 -0.004905 0.000000 0.000000 0.000000
# 2 -0.004130 0.021019 -0.007193 0.000000 0.000000 0.000000
# 3 -0.004905 -0.007193 0.015214 0.000000 0.000000 0.000000
# 4 0.000000 0.000000 0.000000 0.039000 0.000000 0.000000
# 5 0.000000 0.000000 0.000000 0.000000 0.030262 0.000000
# 6 0.000000 0.000000 0.000000 0.000000 0.000000 0.047187
#
#
# Mechanical properties :
#
#
# Convention : Reuss Voigt Hill
#
# Bulk Modulus (GPa) = 67.69252 75.56548 71.62900
# Shear Modulus (GPa) = 24.86869 26.37984 25.62427
#
# Velocity S-wave (km/s) = 3.69017 3.80063 3.74580
# Velocity P-wave (km/s) = 7.43120 7.78698 7.61117
#
# Compressibility (1/GPa) = 0.01477268
#
# Stress axis : x y z
#
# Youngs Moduli (GPa) = 90.94487 47.57711 65.73083
#
# Poissons Ratio (x) = 0.19648 0.32238
# Poissons Ratio (y) = 0.37558 0.47282
# Poissons Ratio (z) = 0.44605 0.34223
#
# Static dielectric constant tensor:
#      x y z
#    x 3.426840 0.000000 0.000000 
#    y 0.000000 3.454560 0.000000 
#    z 0.000000 0.000000 4.008370 
# 
# 
# High freq. dielectric constant tensor:
#      x y z
#    x 1.722090 0.000000 0.000000 
#    y 0.000000 1.687600 0.000000 
#    z 0.000000 0.000000 1.702850 
# 
# From -- ./inp_files/28818.got.cif
#   From: 2010.03.12/outbox.cif.g09.slc.cpg/sg74_15_cif.got.tgz:28818.got - 2010.04.16 15:46:19.
