data_PCOD8300613
_publ_section_title
;
Structure prediction by ZEFSAII (Michael W. Deem and Ramdas Pophale) SiO2 
 PCOD8300613
Probable space group: I M M A
;
_chemical_formula_sum "Si O2"
_cell_formula_units_Z 48
_cell_length_a 12.084347
_cell_length_b 10.149030
_cell_length_c 13.632416
_cell_angle_alpha 90.000000
_cell_angle_beta 90.000000
_cell_angle_gamma 90.000000
_cell_volume 1671.939484
_symmetry_space_group_name_H-M "I M M A"
_symmetry_group_IT_number 74
_symmetry_cell_setting 'orthorhombic'
loop_
_space_group_symop_operation_xyz
x,y,z
-x,1/2-y,z
x,-y,-z
-x,1/2+y,-z
-x,-y,-z
x,1/2+y,-z
-x,y,z
x,1/2-y,z
1/2+x,1/2+y,1/2+z
1/2-x,-y,1/2+z
1/2+x,1/2-y,1/2-z
1/2-x,y,1/2-z
1/2-x,1/2-y,1/2-z
1/2+x,y,1/2-z
1/2-x,1/2+y,1/2+z
1/2+x,-y,1/2+z
loop_
_atom_site_type_symbol
_atom_site_label
_atom_site_fract_x
_atom_site_fract_y
_atom_site_fract_z
Si Si1 0.379421 0.535978 0.798305
Si Si2 0.131827 0.902109 0.915437
Si Si3 0.837206 0.750000 0.336256
Si Si4 0.631408 0.250000 0.049710
O O1 0.500000 0.604298 0.784633
O O2 0.317723 0.548639 0.691435
O O3 0.404523 0.384732 0.823537
O O4 0.327646 0.619630 0.889837
O O5 0.166703 0.750000 0.935895
O O6 0.000000 0.913872 0.910063
O O7 0.176093 0.000000 0.000000
O O8 0.750000 0.750000 0.250000
O O9 0.797641 0.750000 0.449113
O O10 0.500000 0.250000 0.025758
#
# Coordination Sequence:
#
# PCOD8300613 Si02
#       4
#    16  16   8   8
#     4  10  20  39  69 100 127 163 223 290 341 389
#     4   9  17  30  53  89 129 162 199 258 327 391
#     4  12  26  40  57  92 137 176 214 261 337 425
#     4  10  20  42  76 104 126 164 227 299 350 385
#
# _framework density 28.709173
#
# number of rings (size 3 to 8) (size 9 to 14) (size 15 to 20)
#    0.000    2.000    1.667    2.500    2.333    2.667 
#    0.000    4.167    0.000    0.000    0.000    0.000 
#    0.000    0.000    0.000    0.000    0.000    0.000 
#
# Total GULP energy -297585.839079 kJ/mol
# GULP energy per Si atom -12399.409962 kJ/mol
# Density = 2.864383 g / cm^3
# Si number density = 28.709173 Si / 1000 Ang^3
#
#
#
# Elastic Constant Matrix: (Units=GPa)
#
#
# Indices 1 2 3 4 5 6 
#
# 1 77.7381 40.7280 81.3460 0.0000 0.0000 0.0000
# 2 40.7280 250.9577 120.8520 0.0000 0.0000 0.0000
# 3 81.3460 120.8520 323.0959 0.0000 0.0000 0.0000
# 4 0.0000 0.0000 0.0000 67.2227 0.0000 0.0000
# 5 0.0000 0.0000 0.0000 0.0000 40.0646 0.0000
# 6 0.0000 0.0000 0.0000 0.0000 0.0000 20.3821
#
#
#
# Elastic Compliance Matrix: (Units=1/GPa)
#
#
# Indices 1 2 3 4 5 6 
#
# 1 0.017624 -0.000882 -0.004107 0.000000 0.000000 0.000000
# 2 -0.000882 0.004904 -0.001612 0.000000 0.000000 0.000000
# 3 -0.004107 -0.001612 0.004732 0.000000 0.000000 0.000000
# 4 0.000000 0.000000 0.000000 0.014876 0.000000 0.000000
# 5 0.000000 0.000000 0.000000 0.000000 0.024960 0.000000
# 6 0.000000 0.000000 0.000000 0.000000 0.000000 0.049063
#
#
# Mechanical properties :
#
#
# Convention : Reuss Voigt Hill
#
# Bulk Modulus (GPa) = 71.14015 126.40485 98.77250
# Shear Modulus (GPa) = 37.30020 52.79159 45.04589
#
# Velocity S-wave (km/s) = 3.60841 4.29282 3.96541
# Velocity P-wave (km/s) = 6.49571 8.28831 7.44615
#
# Compressibility (1/GPa) = 0.01405676
#
# Stress axis : x y z
#
# Youngs Moduli (GPa) = 56.74189 203.90059 211.31965
#
# Poissons Ratio (x) = 0.17991 0.86791
# Poissons Ratio (y) = 0.05006 0.34071
# Poissons Ratio (z) = 0.23304 0.32875
#
# Static dielectric constant tensor:
#      x y z
#    x 5.605620 0.000000 0.000000 
#    y 0.000000 5.354940 0.000000 
#    z 0.000000 0.000000 5.517580 
# 
# 
# High freq. dielectric constant tensor:
#      x y z
#    x 2.242320 0.000000 0.000000 
#    y 0.000000 2.163400 0.000000 
#    z 0.000000 0.000000 2.184520 
# 
# From -- ./inp_files/21380.got.cif
#   From: 2010.03.12/outbox.cif.g09.slc.cpg/sg74_11_cif.got.tgz:21380.got - 2010.04.16 15:46:19.
