data_PCOD8300670
_publ_section_title
;
Structure prediction by ZEFSAII (Michael W. Deem and Ramdas Pophale) SiO2 
 PCOD8300670
Probable space group: I M M A
;
_chemical_formula_sum "Si O2"
_cell_formula_units_Z 104
_cell_length_a 27.910785
_cell_length_b 8.735268
_cell_length_c 22.973300
_cell_angle_alpha 90.000000
_cell_angle_beta 90.000000
_cell_angle_gamma 90.000000
_cell_volume 5601.078624
_symmetry_space_group_name_H-M "I M M A"
_symmetry_group_IT_number 74
_symmetry_cell_setting 'orthorhombic'
loop_
_space_group_symop_operation_xyz
x,y,z
-x,1/2-y,z
x,-y,-z
-x,1/2+y,-z
-x,-y,-z
x,1/2+y,-z
-x,y,z
x,1/2-y,z
1/2+x,1/2+y,1/2+z
1/2-x,-y,1/2+z
1/2+x,1/2-y,1/2-z
1/2-x,y,1/2-z
1/2-x,1/2-y,1/2-z
1/2+x,y,1/2-z
1/2-x,1/2+y,1/2+z
1/2+x,-y,1/2+z
loop_
_atom_site_type_symbol
_atom_site_label
_atom_site_fract_x
_atom_site_fract_y
_atom_site_fract_z
Si Si1 0.555109 0.430508 0.937038
Si Si2 0.643768 0.567778 0.876522
Si Si3 0.270445 0.431325 0.939514
Si Si4 0.000000 0.927935 0.062459
Si Si5 0.303481 0.930456 0.759931
Si Si6 0.184337 0.930462 0.142710
Si Si7 0.898563 0.570243 0.062857
O O1 0.500000 0.469904 0.919830
O O2 0.563237 0.250000 0.940242
O O3 0.590559 0.500658 0.887959
O O4 0.567575 0.500000 0.000000
O O5 0.640747 0.750000 0.877637
O O6 0.678150 0.507521 0.927697
O O7 0.666614 0.506333 0.815453
O O8 0.275238 0.250000 0.945645
O O9 0.235265 0.475707 0.886051
O O10 0.250282 0.500000 0.000000
O O11 0.050075 0.972779 0.093909
O O12 0.000000 0.750000 0.050632
O O13 0.000000 0.000000 0.000000
O O14 0.300188 0.750000 0.765939
O O15 0.250000 0.000792 0.750000
O O16 0.329650 0.982575 0.701638
O O17 0.180986 0.750000 0.153383
O O18 0.143885 0.997325 0.100668
O O19 0.891661 0.750000 0.056659
O O20 0.894998 0.500000 0.000000
#
# Coordination Sequence:
#
# PCOD8300670 Si02
#       7
#    16  16  16   8  16  16  16
#     4  10  21  38  61  89 119 148 181 224 276 333
#     4  11  22  37  58  81 108 144 183 225 270 322
#     4  11  22  34  50  76 109 142 175 216 267 322
#     4   8  14  26  46  68  96 128 162 202 245 298
#     4  10  21  38  57  77 102 138 182 222 264 313
#     4  10  21  34  51  75 103 137 177 220 266 315
#     4   9  17  30  48  74 102 133 169 209 259 310
#
# _framework density 18.567851999999998
#
# number of rings (size 3 to 8) (size 9 to 14) (size 15 to 20)
#    0.000    2.000    1.538    2.308    0.000    3.692 
#    0.000    0.000    1.692    0.000    0.000    0.000 
#    0.000    0.000    0.000    0.000    0.000    0.000 
#
# Total GULP energy -644408.904438 kJ/mol
# GULP energy per Si atom -12392.478932 kJ/mol
# Density = 1.852559 g / cm^3
# Si number density = 18.567852 Si / 1000 Ang^3
#
#
#
# Elastic Constant Matrix: (Units=GPa)
#
#
# Indices 1 2 3 4 5 6 
#
# 1 138.0660 36.4339 53.7015 0.0000 0.0000 0.0000
# 2 36.4339 46.8005 29.6090 0.0000 0.0000 0.0000
# 3 53.7015 29.6090 107.0302 0.0000 0.0000 0.0000
# 4 0.0000 0.0000 0.0000 30.0523 0.0000 0.0000
# 5 0.0000 0.0000 0.0000 0.0000 25.0420 0.0000
# 6 0.0000 0.0000 0.0000 0.0000 0.0000 26.3707
#
#
#
# Elastic Compliance Matrix: (Units=1/GPa)
#
#
# Indices 1 2 3 4 5 6 
#
# 1 0.010095 -0.005642 -0.003504 0.000000 0.000000 0.000000
# 2 -0.005642 0.029053 -0.005207 0.000000 0.000000 0.000000
# 3 -0.003504 -0.005207 0.012542 0.000000 0.000000 0.000000
# 4 0.000000 0.000000 0.000000 0.033275 0.000000 0.000000
# 5 0.000000 0.000000 0.000000 0.000000 0.039933 0.000000
# 6 0.000000 0.000000 0.000000 0.000000 0.000000 0.037921
#
#
# Mechanical properties :
#
#
# Convention : Reuss Voigt Hill
#
# Bulk Modulus (GPa) = 43.50723 59.04281 51.27502
# Shear Modulus (GPa) = 25.10222 27.76983 26.43603
#
# Velocity S-wave (km/s) = 3.68083 3.87148 3.77736
# Velocity P-wave (km/s) = 6.44570 7.20083 6.83370
#
# Compressibility (1/GPa) = 0.02298469
#
# Stress axis : x y z
#
# Youngs Moduli (GPa) = 99.06243 34.41938 79.73368
#
# Poissons Ratio (x) = 0.19418 0.27940
# Poissons Ratio (y) = 0.55887 0.41515
# Poissons Ratio (z) = 0.34713 0.17921
#
# Static dielectric constant tensor:
#      x y z
#    x 3.934680 0.000000 0.000000 
#    y 0.000000 3.218690 0.000000 
#    z 0.000000 0.000000 3.446610 
# 
# 
# High freq. dielectric constant tensor:
#      x y z
#    x 1.730370 0.000000 0.000000 
#    y 0.000000 1.718700 0.000000 
#    z 0.000000 0.000000 1.701810 
# 
# From -- ./inp_files/55659.got.cif
#   From: 2010.03.12/outbox.cif.g09.slc.cpg/sg74_28_cif.got.tgz:55659.got - 2010.04.16 15:46:19.
