data_PCOD8300959
_publ_section_title
;
Structure prediction by ZEFSAII (Michael W. Deem and Ramdas Pophale) SiO2 
 PCOD8300959
Probable space group: I M M A
;
_chemical_formula_sum "Si O2"
_cell_formula_units_Z 64
_cell_length_a 21.399448
_cell_length_b 9.983710
_cell_length_c 16.121052
_cell_angle_alpha 90.000000
_cell_angle_beta 90.000000
_cell_angle_gamma 90.000000
_cell_volume 3444.196389
_symmetry_space_group_name_H-M "I M M A"
_symmetry_group_IT_number 74
_symmetry_cell_setting 'orthorhombic'
loop_
_space_group_symop_operation_xyz
x,y,z
-x,1/2-y,z
x,-y,-z
-x,1/2+y,-z
-x,-y,-z
x,1/2+y,-z
-x,y,z
x,1/2-y,z
1/2+x,1/2+y,1/2+z
1/2-x,-y,1/2+z
1/2+x,1/2-y,1/2-z
1/2-x,y,1/2-z
1/2-x,1/2-y,1/2-z
1/2+x,y,1/2-z
1/2-x,1/2+y,1/2+z
1/2+x,-y,1/2+z
loop_
_atom_site_type_symbol
_atom_site_label
_atom_site_fract_x
_atom_site_fract_y
_atom_site_fract_z
Si Si1 0.427398 0.750000 0.309658
Si Si2 0.642701 0.097328 0.068712
Si Si3 0.572107 0.471475 0.233458
Si Si4 0.071561 0.750000 0.867281
Si Si5 0.762178 0.500000 0.000000
Si Si6 0.154957 0.750000 0.029611
O O1 0.500000 0.750000 0.331841
O O2 0.408858 0.622346 0.254949
O O3 0.393658 0.750000 0.396750
O O4 0.632780 0.250000 0.039804
O O5 0.614466 0.077724 0.158785
O O6 0.716981 0.061670 0.071923
O O7 0.609861 0.000000 0.000000
O O8 0.500000 0.458296 0.206396
O O9 0.585516 0.381651 0.313692
O O10 0.000000 0.750000 0.899031
O O11 0.118164 0.750000 0.943657
O O12 0.803741 0.382837 0.961300
#
# Coordination Sequence:
#
# PCOD8300959 Si02
#       6
#     8  16  16   8   8   8
#     4  10  23  39  59  89 120 150 192 245 294 346
#     4  10  21  40  63  83 122 152 192 240 288 341
#     4  10  21  39  61  90 122 149 189 244 295 345
#     4  10  21  37  61  89 116 150 196 247 290 342
#     4  10  22  38  58  88 116 156 198 244 270 344
#     4  12  21  40  62  82 117 162 198 236 294 340
#
# _framework density 18.581983000000001
#
# number of rings (size 3 to 8) (size 9 to 14) (size 15 to 20)
#    0.750    1.000    2.500    1.875    1.750    0.500 
#    0.000   12.500    0.000    0.000    0.000    0.000 
#    0.000    0.000    0.000    0.000    0.000    0.000 
#
# Total GULP energy -396763.062081 kJ/mol
# GULP energy per Si atom -12398.845690 kJ/mol
# Density = 1.853969 g / cm^3
# Si number density = 18.581983 Si / 1000 Ang^3
#
#
#
# Elastic Constant Matrix: (Units=GPa)
#
#
# Indices 1 2 3 4 5 6 
#
# 1 69.6390 41.3511 49.9401 0.0000 0.0000 0.0000
# 2 41.3511 168.1783 40.7611 0.0000 0.0000 0.0000
# 3 49.9401 40.7611 84.6654 0.0000 0.0000 0.0000
# 4 0.0000 0.0000 0.0000 -14.2556 0.0000 0.0000
# 5 0.0000 0.0000 0.0000 0.0000 133.7428 0.0000
# 6 0.0000 0.0000 0.0000 0.0000 0.0000 -27.6535
#
#
#
# Elastic Compliance Matrix: (Units=1/GPa)
#
#
# Indices 1 2 3 4 5 6 
#
# 1 0.026202 -0.003053 -0.013986 0.000000 0.000000 0.000000
# 2 -0.003053 0.007087 -0.001611 0.000000 0.000000 0.000000
# 3 -0.013986 -0.001611 0.020836 0.000000 0.000000 0.000000
# 4 0.000000 0.000000 0.000000 -0.070148 0.000000 0.000000
# 5 0.000000 0.000000 0.000000 0.000000 0.007477 0.000000
# 6 0.000000 0.000000 0.000000 0.000000 0.000000 -0.036162
#
#
# Mechanical properties :
#
#
# Convention : Reuss Voigt Hill
#
# Bulk Modulus (GPa) = 59.43134 65.17638 62.30386
# Shear Modulus (GPa) = -2779.38773 31.06209 -1374.16282
#
# Velocity S-wave (km/s) = -38.71680 4.09299 -27.22350
# Velocity P-wave (km/s) = 44.34638 7.58208 30.89590
#
# Compressibility (1/GPa) = 0.01682614
#
# Stress axis : x y z
#
# Youngs Moduli (GPa) = 38.16515 141.09897 47.99305
#
# Poissons Ratio (x) = 0.43075 0.67121
# Poissons Ratio (y) = 0.11651 0.07733
# Poissons Ratio (z) = 0.53376 0.22736
#
# Static dielectric constant tensor:
#      x y z
#    x 3.386640 0.000000 0.000000 
#    y 0.000000 3.747830 0.000000 
#    z 0.000000 0.000000 3.090530 
# 
# 
# High freq. dielectric constant tensor:
#      x y z
#    x 1.715450 0.000000 0.000000 
#    y 0.000000 1.747880 0.000000 
#    z 0.000000 0.000000 1.705150 
# 
# From -- ./inp_files/44809.got.cif
#   From: 2010.03.12/outbox.cif.g09.slc.cpg/sg74_23_cif.got.tgz:44809.got - 2010.04.16 15:46:19.
