data_PCOD8300497
_publ_section_title
;
Structure prediction by ZEFSAII (Michael W. Deem and Ramdas Pophale) SiO2 
 PCOD8300497
Probable space group: I M M A
;
_chemical_formula_sum "Si O2"
_cell_formula_units_Z 64
_cell_length_a 11.965588
_cell_length_b 13.792658
_cell_length_c 18.075411
_cell_angle_alpha 90.000000
_cell_angle_beta 90.000000
_cell_angle_gamma 90.000000
_cell_volume 2983.116360
_symmetry_space_group_name_H-M "I M M A"
_symmetry_group_IT_number 74
_symmetry_cell_setting 'orthorhombic'
loop_
_space_group_symop_operation_xyz
x,y,z
-x,1/2-y,z
x,-y,-z
-x,1/2+y,-z
-x,-y,-z
x,1/2+y,-z
-x,y,z
x,1/2-y,z
1/2+x,1/2+y,1/2+z
1/2-x,-y,1/2+z
1/2+x,1/2-y,1/2-z
1/2-x,y,1/2-z
1/2-x,1/2-y,1/2-z
1/2+x,y,1/2-z
1/2-x,1/2+y,1/2+z
1/2+x,-y,1/2+z
loop_
_atom_site_type_symbol
_atom_site_label
_atom_site_fract_x
_atom_site_fract_y
_atom_site_fract_z
Si Si1 0.000000 0.133117 0.118833
Si Si2 0.874529 0.892137 0.528695
Si Si3 0.500000 0.636625 0.455148
Si Si4 0.233204 0.143926 0.891287
Si Si5 0.765278 0.940894 0.833418
O O1 0.893359 0.084279 0.155005
O O2 0.000000 0.250000 0.126231
O O3 0.000000 0.089931 0.036014
O O4 0.805369 0.836977 0.465453
O O5 0.811479 0.882153 0.607641
O O6 0.000000 0.848960 0.536928
O O7 0.881041 0.000000 0.500000
O O8 0.500000 0.750000 0.468928
O O9 0.609724 0.606296 0.411018
O O10 0.232062 0.250000 0.850572
O O11 0.272976 0.055159 0.839508
O O12 0.750000 0.905402 0.750000
#
# Coordination Sequence:
#
# PCOD8300497 Si02
#       5
#     8  16   8  16  16
#     4  11  23  41  64  88 116 151 201 253 298 349
#     4   9  19  36  57  82 115 156 202 244 282 335
#     4   9  17  33  61  90 111 139 192 250 294 336
#     4  10  20  37  62  92 121 153 197 245 293 353
#     4  11  24  38  61  89 122 162 194 238 302 359
#
# _framework density 21.454073999999999
#
# number of rings (size 3 to 8) (size 9 to 14) (size 15 to 20)
#    0.000    2.000    2.500    0.750    1.750    2.500 
#    0.000    0.000    0.000    0.000    0.000    0.000 
#    0.000    0.000    0.000    0.000    0.000    0.000 
#
# Total GULP energy -396425.058159 kJ/mol
# GULP energy per Si atom -12388.283067 kJ/mol
# Density = 2.140524 g / cm^3
# Si number density = 21.454074 Si / 1000 Ang^3
#
#
#
# Elastic Constant Matrix: (Units=GPa)
#
#
# Indices 1 2 3 4 5 6 
#
# 1 139.1451 -1.3725 19.6471 0.0000 0.0000 0.0000
# 2 -1.3725 87.0609 -1.9134 0.0000 0.0000 0.0000
# 3 19.6471 -1.9134 82.2582 0.0000 0.0000 0.0000
# 4 0.0000 0.0000 0.0000 12.6634 0.0000 0.0000
# 5 0.0000 0.0000 0.0000 0.0000 38.3548 0.0000
# 6 0.0000 0.0000 0.0000 0.0000 0.0000 120.8757
#
#
#
# Elastic Compliance Matrix: (Units=1/GPa)
#
#
# Indices 1 2 3 4 5 6 
#
# 1 0.007438 0.000078 -0.001775 0.000000 0.000000 0.000000
# 2 0.000078 0.011493 0.000249 0.000000 0.000000 0.000000
# 3 -0.001775 0.000249 0.012587 0.000000 0.000000 0.000000
# 4 0.000000 0.000000 0.000000 0.078968 0.000000 0.000000
# 5 0.000000 0.000000 0.000000 0.000000 0.026072 0.000000
# 6 0.000000 0.000000 0.000000 0.000000 0.000000 0.008273
#
#
# Mechanical properties :
#
#
# Convention : Reuss Voigt Hill
#
# Bulk Modulus (GPa) = 34.93834 37.90962 36.42398
# Shear Modulus (GPa) = 31.79304 53.85231 42.82267
#
# Velocity S-wave (km/s) = 3.85374 5.01555 4.47253
# Velocity P-wave (km/s) = 6.01018 7.15887 6.60953
#
# Compressibility (1/GPa) = 0.02862185
#
# Stress axis : x y z
#
# Youngs Moduli (GPa) = 134.44283 87.01011 79.45004
#
# Poissons Ratio (x) = -0.00681 0.14100
# Poissons Ratio (y) = -0.01052 -0.01976
# Poissons Ratio (z) = 0.23860 -0.02163
#
# Static dielectric constant tensor:
#      x y z
#    x 4.177080 0.000000 0.000000 
#    y 0.000000 3.824960 0.000000 
#    z 0.000000 0.000000 3.598350 
# 
# 
# High freq. dielectric constant tensor:
#      x y z
#    x 1.846220 0.000000 0.000000 
#    y 0.000000 1.855220 0.000000 
#    z 0.000000 0.000000 1.808180 
# 
# From -- ./inp_files/40726.got.cif
#   From: 2010.03.12/outbox.cif.g09.slc.cpg/sg74_21_cif.got.tgz:40726.got - 2010.04.16 15:46:19.
