data_PCOD8300502
_publ_section_title
;
Structure prediction by ZEFSAII (Michael W. Deem and Ramdas Pophale) SiO2 
 PCOD8300502
Probable space group: I M M A
;
_chemical_formula_sum "Si O2"
_cell_formula_units_Z 112
_cell_length_a 16.570233
_cell_length_b 28.588111
_cell_length_c 11.535711
_cell_angle_alpha 90.000000
_cell_angle_beta 90.000000
_cell_angle_gamma 90.000000
_cell_volume 5464.600811
_symmetry_space_group_name_H-M "I M M A"
_symmetry_group_IT_number 74
_symmetry_cell_setting 'orthorhombic'
loop_
_space_group_symop_operation_xyz
x,y,z
-x,1/2-y,z
x,-y,-z
-x,1/2+y,-z
-x,-y,-z
x,1/2+y,-z
-x,y,z
x,1/2-y,z
1/2+x,1/2+y,1/2+z
1/2-x,-y,1/2+z
1/2+x,1/2-y,1/2-z
1/2-x,y,1/2-z
1/2-x,1/2-y,1/2-z
1/2+x,y,1/2-z
1/2-x,1/2+y,1/2+z
1/2+x,-y,1/2+z
loop_
_atom_site_type_symbol
_atom_site_label
_atom_site_fract_x
_atom_site_fract_y
_atom_site_fract_z
Si Si1 0.907413 0.891763 0.851828
Si Si2 0.595603 0.960812 0.852784
Si Si3 0.651134 0.438867 0.898105
Si Si4 0.089925 0.645425 0.275135
Si Si5 0.156068 0.802534 0.735494
Si Si6 0.174963 0.697259 0.477751
Si Si7 0.801104 0.878561 0.064881
O O1 0.878383 0.928490 0.754382
O O2 0.896971 0.838756 0.808376
O O3 0.000000 0.900514 0.882705
O O4 0.857466 0.901913 0.967976
O O5 0.500000 0.970597 0.856619
O O6 0.644563 0.009387 0.845181
O O7 0.623469 0.934913 0.968878
O O8 0.589885 0.406618 0.827038
O O9 0.742576 0.419246 0.885516
O O10 0.117806 0.682291 0.372216
O O11 0.148501 0.646246 0.165701
O O12 0.000000 0.658705 0.235058
O O13 0.139326 0.750000 0.782460
O O14 0.250000 0.814976 0.750000
O O15 0.128826 0.805916 0.600794
O O16 0.205163 0.750000 0.455480
O O17 0.251463 0.663655 0.490701
#
# Coordination Sequence:
#
# PCOD8300502 Si02
#       7
#    16  16  16  16  16  16  16
#     4  11  23  39  61  92 130 165 201 249 311 377
#     4  10  21  38  63  93 122 152 196 260 317 364
#     4  10  20  39  62  86 115 153 204 255 306 371
#     4  11  23  40  60  82 120 162 201 254 310 362
#     4  10  20  37  62  92 127 161 201 254 306 364
#     4  10  21  38  64  90 118 158 208 261 305 356
#     4  11  23  40  58  88 123 163 210 247 303 375
#
# _framework density 20.495550000000001
#
# number of rings (size 3 to 8) (size 9 to 14) (size 15 to 20)
#    0.000    1.571    1.429    5.571    0.000    3.429 
#   10.286    1.429    0.000    5.143    0.000    0.000 
#    0.000    0.000    0.000    0.000    0.000    0.000 
#
# Total GULP energy -694474.648206 kJ/mol
# GULP energy per Si atom -12401.333004 kJ/mol
# Density = 2.044890 g / cm^3
# Si number density = 20.495550 Si / 1000 Ang^3
#
#
#
# Elastic Constant Matrix: (Units=GPa)
#
#
# Indices 1 2 3 4 5 6 
#
# 1 92.4699 24.9460 25.6221 0.0004 0.0001 -0.0001
# 2 24.9460 91.8961 20.1726 0.0004 0.0000 -0.0002
# 3 25.6221 20.1726 77.3177 -0.0018 -0.0007 -0.0011
# 4 0.0004 0.0004 -0.0018 18.1423 -0.0002 -0.0004
# 5 0.0001 0.0000 -0.0007 -0.0002 34.5888 -0.0001
# 6 -0.0001 -0.0002 -0.0011 -0.0004 -0.0001 16.1541
#
#
#
# Elastic Compliance Matrix: (Units=1/GPa)
#
#
# Indices 1 2 3 4 5 6 
#
# 1 0.012480 -0.002631 -0.003449 -0.000001 0.000000 0.000000
# 2 -0.002631 0.012097 -0.002285 0.000000 0.000000 0.000000
# 3 -0.003449 -0.002285 0.014673 0.000002 0.000000 0.000001
# 4 -0.000001 0.000000 0.000002 0.055120 0.000000 0.000001
# 5 0.000000 0.000000 0.000000 0.000000 0.028911 0.000000
# 6 0.000000 0.000000 0.000001 0.000001 0.000000 0.061904
#
#
# Mechanical properties :
#
#
# Convention : Reuss Voigt Hill
#
# Bulk Modulus (GPa) = 44.40281 44.79615 44.59948
# Shear Modulus (GPa) = 23.87538 26.50655 25.19097
#
# Velocity S-wave (km/s) = 3.41677 3.60013 3.50965
# Velocity P-wave (km/s) = 6.10553 6.25981 6.18315
#
# Compressibility (1/GPa) = 0.02252109
#
# Stress axis : x y z
#
# Youngs Moduli (GPa) = 80.12988 82.66216 68.15351
#
# Poissons Ratio (x) = 0.21745 0.23508
# Poissons Ratio (y) = 0.21079 0.15570
# Poissons Ratio (z) = 0.27639 0.18885
#
# Static dielectric constant tensor:
#      x y z
#    x 3.596800 0.000000 0.000000 
#    y 0.000000 3.700920 0.000000 
#    z 0.000000 0.000000 3.749350 
# 
# 
# High freq. dielectric constant tensor:
#      x y z
#    x 1.789770 0.000000 0.000000 
#    y 0.000000 1.802410 0.000000 
#    z 0.000000 0.000000 1.806370 
# 
# From -- ./inp_files/21139.got.cif
#   From: 2010.03.12/outbox.cif.g09.slc.cpg/sg74_11_cif.got.tgz:21139.got - 2010.04.16 15:46:19.
