data_PCOD8300087
_publ_section_title
;
Structure prediction by ZEFSAII (Michael W. Deem and Ramdas Pophale) SiO2 
 PCOD8300087
Probable space group: I M M A
;
_chemical_formula_sum "Si O2"
_cell_formula_units_Z 96
_cell_length_a 24.979879
_cell_length_b 9.049282
_cell_length_c 23.286854
_cell_angle_alpha 90.000000
_cell_angle_beta 90.000000
_cell_angle_gamma 90.000000
_cell_volume 5263.992634
_symmetry_space_group_name_H-M "I M M A"
_symmetry_group_IT_number 74
_symmetry_cell_setting 'orthorhombic'
loop_
_space_group_symop_operation_xyz
x,y,z
-x,1/2-y,z
x,-y,-z
-x,1/2+y,-z
-x,-y,-z
x,1/2+y,-z
-x,y,z
x,1/2-y,z
1/2+x,1/2+y,1/2+z
1/2-x,-y,1/2+z
1/2+x,1/2-y,1/2-z
1/2-x,y,1/2-z
1/2-x,1/2-y,1/2-z
1/2+x,y,1/2-z
1/2-x,1/2+y,1/2+z
1/2+x,-y,1/2+z
loop_
_atom_site_type_symbol
_atom_site_label
_atom_site_fract_x
_atom_site_fract_y
_atom_site_fract_z
Si Si1 0.658110 0.419796 0.366888
Si Si2 0.940062 0.077409 0.057793
Si Si3 0.062102 0.921588 0.558823
Si Si4 0.246713 0.423025 0.939373
Si Si5 0.311119 0.580262 0.759706
Si Si6 0.648131 0.576967 0.129939
O O1 0.672228 0.250000 0.381708
O O2 0.599778 0.464875 0.390682
O O3 0.703013 0.522119 0.394337
O O4 0.656020 0.443992 0.298776
O O5 0.939513 0.250000 0.045370
O O6 0.000000 0.023387 0.074228
O O7 0.919439 0.000000 0.000000
O O8 0.076133 0.750000 0.552645
O O9 0.000000 0.947849 0.572607
O O10 0.079185 0.000000 0.500000
O O11 0.094900 0.991630 0.610980
O O12 0.239204 0.250000 0.948112
O O13 0.304822 0.462709 0.914513
O O14 0.238275 0.500000 0.000000
O O15 0.313978 0.750000 0.780758
O O16 0.250000 0.532565 0.750000
O O17 0.337047 0.474754 0.806556
O O18 0.636229 0.750000 0.131387
#
# Coordination Sequence:
#
# PCOD8300087 Si02
#       6
#    16  16  16  16  16  16
#     4  10  20  35  55  78 105 141 182 223 273 325
#     4   9  18  33  53  77 105 136 172 215 264 319
#     4  10  21  38  61  87 115 148 186 230 281 337
#     4  11  23  35  51  78 110 141 176 222 275 328
#     4  10  20  36  57  79 108 148 188 230 276 328
#     4  11  23  37  56  82 112 148 187 230 277 332
#
# _framework density 18.237107999999999
#
# number of rings (size 3 to 8) (size 9 to 14) (size 15 to 20)
#    0.000    1.833    1.667    2.500    0.000    7.333 
#    0.000    0.833    0.000    3.000    0.000    0.000 
#    0.000    0.000    0.000    0.000    0.000    0.000 
#
# Total GULP energy -595431.387774 kJ/mol
# GULP energy per Si atom -12404.820579 kJ/mol
# Density = 1.819560 g / cm^3
# Si number density = 18.237108 Si / 1000 Ang^3
#
#
#
# Elastic Constant Matrix: (Units=GPa)
#
#
# Indices 1 2 3 4 5 6 
#
# 1 95.3030 53.6403 50.1114 0.0000 0.0000 0.0000
# 2 53.6403 79.8944 50.1174 0.0000 0.0000 0.0000
# 3 50.1114 50.1174 97.1075 0.0000 0.0000 0.0000
# 4 0.0000 0.0000 0.0000 35.3150 0.0000 0.0000
# 5 0.0000 0.0000 0.0000 0.0000 27.2890 0.0000
# 6 0.0000 0.0000 0.0000 0.0000 0.0000 27.0197
#
#
#
# Elastic Compliance Matrix: (Units=1/GPa)
#
#
# Indices 1 2 3 4 5 6 
#
# 1 0.018128 -0.009320 -0.004545 0.000000 0.000000 0.000000
# 2 -0.009320 0.023301 -0.007216 0.000000 0.000000 0.000000
# 3 -0.004545 -0.007216 0.016367 0.000000 0.000000 0.000000
# 4 0.000000 0.000000 0.000000 0.028317 0.000000 0.000000
# 5 0.000000 0.000000 0.000000 0.000000 0.036645 0.000000
# 6 0.000000 0.000000 0.000000 0.000000 0.000000 0.037010
#
#
# Mechanical properties :
#
#
# Convention : Reuss Voigt Hill
#
# Bulk Modulus (GPa) = 63.96144 64.44925 64.20534
# Shear Modulus (GPa) = 24.13819 25.82047 24.97933
#
# Velocity S-wave (km/s) = 3.64204 3.76682 3.70496
# Velocity P-wave (km/s) = 7.26872 7.37122 7.32015
#
# Compressibility (1/GPa) = 0.01563442
#
# Stress axis : x y z
#
# Youngs Moduli (GPa) = 55.16216 42.91753 61.09771
#
# Poissons Ratio (x) = 0.40000 0.27767
# Poissons Ratio (y) = 0.51413 0.44087
# Poissons Ratio (z) = 0.25070 0.30968
#
# Static dielectric constant tensor:
#      x y z
#    x 3.490040 0.000000 0.000000 
#    y 0.000000 3.404030 0.000000 
#    z 0.000000 0.000000 3.337260 
# 
# 
# High freq. dielectric constant tensor:
#      x y z
#    x 1.707760 0.000000 0.000000 
#    y 0.000000 1.711540 0.000000 
#    z 0.000000 0.000000 1.704830 
# 
# From -- ./inp_files/49061.got.cif
#   From: 2010.03.12/outbox.cif.g09.slc.cpg/sg74_25_cif.got.tgz:49061.got - 2010.04.16 15:46:19.
