data_PCOD8300461
_publ_section_title
;
Structure prediction by ZEFSAII (Michael W. Deem and Ramdas Pophale) SiO2 
 PCOD8300461
Probable space group: I M M A
;
_chemical_formula_sum "Si O2"
_cell_formula_units_Z 64
_cell_length_a 8.852297
_cell_length_b 14.878421
_cell_length_c 24.394898
_cell_angle_alpha 90.000000
_cell_angle_beta 90.000000
_cell_angle_gamma 90.000000
_cell_volume 3213.008143
_symmetry_space_group_name_H-M "I M M A"
_symmetry_group_IT_number 74
_symmetry_cell_setting 'orthorhombic'
loop_
_space_group_symop_operation_xyz
x,y,z
-x,1/2-y,z
x,-y,-z
-x,1/2+y,-z
-x,-y,-z
x,1/2+y,-z
-x,y,z
x,1/2-y,z
1/2+x,1/2+y,1/2+z
1/2-x,-y,1/2+z
1/2+x,1/2-y,1/2-z
1/2-x,y,1/2-z
1/2-x,1/2-y,1/2-z
1/2+x,y,1/2-z
1/2-x,1/2+y,1/2+z
1/2+x,-y,1/2+z
loop_
_atom_site_type_symbol
_atom_site_label
_atom_site_fract_x
_atom_site_fract_y
_atom_site_fract_z
Si Si1 0.822350 0.393586 0.612901
Si Si2 0.323327 0.600674 0.892171
Si Si3 0.320232 0.250000 0.690147
Si Si4 0.676869 0.250000 0.191400
Si Si5 0.830472 0.606484 0.002051
O O1 0.779247 0.498021 0.620931
O O2 0.735009 0.339344 0.659410
O O3 0.768172 0.359189 0.553297
O O4 0.000000 0.376003 0.618368
O O5 0.500000 0.609083 0.904226
O O6 0.271697 0.660681 0.840880
O O7 0.240528 0.641188 0.945455
O O8 0.500000 0.250000 0.693942
O O9 0.250000 0.250000 0.750000
O O10 0.500000 0.250000 0.199790
O O11 0.750000 0.250000 0.250000
O O12 0.000000 0.644279 0.008285
O O13 0.828705 0.500000 0.000000
#
# Coordination Sequence:
#
# PCOD8300461 Si02
#       5
#    16  16   8   8  16
#     4  10  20  37  60  85 114 149 186 228 280 334
#     4   9  19  36  58  83 114 151 188 229 278 332
#     4  12  26  43  60  81 110 145 189 237 283 338
#     4  10  22  39  56  79 110 145 189 233 273 322
#     4   9  17  31  54  85 117 148 185 229 277 331
#
# _framework density 19.919028000000001
#
# number of rings (size 3 to 8) (size 9 to 14) (size 15 to 20)
#    0.000    2.250    0.000    2.625    0.000    7.000 
#    0.000    6.250    0.000    0.000    0.000    0.000 
#    0.000    0.000    0.000    0.000    0.000    0.000 
#
# Total GULP energy -396843.016778 kJ/mol
# GULP energy per Si atom -12401.344274 kJ/mol
# Density = 1.987369 g / cm^3
# Si number density = 19.919028 Si / 1000 Ang^3
#
#
#
# Elastic Constant Matrix: (Units=GPa)
#
#
# Indices 1 2 3 4 5 6 
#
# 1 116.2282 46.1741 77.5029 0.0000 0.0000 0.0000
# 2 46.1741 100.1228 75.0440 0.0000 0.0000 0.0000
# 3 77.5029 75.0440 199.3012 0.0000 0.0000 0.0000
# 4 0.0000 0.0000 0.0000 41.5047 0.0000 0.0000
# 5 0.0000 0.0000 0.0000 0.0000 43.2361 0.0000
# 6 0.0000 0.0000 0.0000 0.0000 0.0000 21.7865
#
#
#
# Elastic Compliance Matrix: (Units=1/GPa)
#
#
# Indices 1 2 3 4 5 6 
#
# 1 0.012184 -0.002881 -0.003653 0.000000 0.000000 0.000000
# 2 -0.002881 0.014596 -0.004376 0.000000 0.000000 0.000000
# 3 -0.003653 -0.004376 0.008086 0.000000 0.000000 0.000000
# 4 0.000000 0.000000 0.000000 0.024094 0.000000 0.000000
# 5 0.000000 0.000000 0.000000 0.000000 0.023129 0.000000
# 6 0.000000 0.000000 0.000000 0.000000 0.000000 0.045900
#
#
# Mechanical properties :
#
#
# Convention : Reuss Voigt Hill
#
# Bulk Modulus (GPa) = 76.64955 90.34383 83.49669
# Shear Modulus (GPa) = 32.43444 35.76755 34.10099
#
# Velocity S-wave (km/s) = 4.03962 4.24210 4.14210
# Velocity P-wave (km/s) = 7.76673 8.33354 8.05512
#
# Compressibility (1/GPa) = 0.01304639
#
# Stress axis : x y z
#
# Youngs Moduli (GPa) = 82.07209 68.51247 123.67298
#
# Poissons Ratio (x) = 0.19737 0.45184
# Poissons Ratio (y) = 0.23643 0.54114
# Poissons Ratio (z) = 0.29985 0.29978
#
# Static dielectric constant tensor:
#      x y z
#    x 3.699610 0.000000 0.000000 
#    y 0.000000 3.704550 0.000000 
#    z 0.000000 0.000000 3.983680 
# 
# 
# High freq. dielectric constant tensor:
#      x y z
#    x 1.780450 0.000000 0.000000 
#    y 0.000000 1.777790 0.000000 
#    z 0.000000 0.000000 1.777030 
# 
# From -- ./inp_files/56424.got.cif
#   From: 2010.03.12/outbox.cif.g09.slc.cpg/sg74_29_cif.got.tgz:56424.got - 2010.04.16 15:46:19.
