data_PCOD8300518
_publ_section_title
;
Structure prediction by ZEFSAII (Michael W. Deem and Ramdas Pophale) SiO2 
 PCOD8300518
Probable space group: I M M A
;
_chemical_formula_sum "Si O2"
_cell_formula_units_Z 64
_cell_length_a 13.368314
_cell_length_b 18.224544
_cell_length_c 13.233730
_cell_angle_alpha 90.000000
_cell_angle_beta 90.000000
_cell_angle_gamma 90.000000
_cell_volume 3224.152520
_symmetry_space_group_name_H-M "I M M A"
_symmetry_group_IT_number 74
_symmetry_cell_setting 'orthorhombic'
loop_
_space_group_symop_operation_xyz
x,y,z
-x,1/2-y,z
x,-y,-z
-x,1/2+y,-z
-x,-y,-z
x,1/2+y,-z
-x,y,z
x,1/2-y,z
1/2+x,1/2+y,1/2+z
1/2-x,-y,1/2+z
1/2+x,1/2-y,1/2-z
1/2-x,y,1/2-z
1/2-x,1/2-y,1/2-z
1/2+x,y,1/2-z
1/2-x,1/2+y,1/2+z
1/2+x,-y,1/2+z
loop_
_atom_site_type_symbol
_atom_site_label
_atom_site_fract_x
_atom_site_fract_y
_atom_site_fract_z
Si Si1 0.269946 0.250000 0.631597
Si Si2 0.821991 0.949850 0.871486
Si Si3 0.385291 0.398153 0.161938
Si Si4 0.112762 0.750000 0.544040
Si Si5 0.113353 0.603105 0.084881
O O1 0.250000 0.250000 0.750000
O O2 0.172920 0.250000 0.560549
O O3 0.328829 0.323117 0.606473
O O4 0.700988 0.949222 0.887089
O O5 0.862896 0.898243 0.781726
O O6 0.848085 0.034714 0.847950
O O7 0.877785 0.919575 0.968650
O O8 0.500000 0.424601 0.139881
O O9 0.365194 0.318434 0.116237
O O10 0.000000 0.750000 0.505302
O O11 0.000000 0.618809 0.113787
#
# Coordination Sequence:
#
# PCOD8300518 Si02
#       5
#     8  16  16   8  16
#     4  12  27  44  63  89 123 171 222 261 309 378
#     4  10  21  38  67  97 130 161 206 262 312 381
#     4  10  20  37  65  98 131 164 200 254 324 380
#     4  10  22  43  64  94 133 161 202 263 327 383
#     4  11  23  43  64  91 128 169 212 261 312 369
#
# _framework density 19.850179000000001
#
# number of rings (size 3 to 8) (size 9 to 14) (size 15 to 20)
#    0.000    1.500    2.500    3.375    3.500    4.000 
#    0.000    6.250    0.000    0.000    0.000    0.000 
#    0.000    0.000    0.000    0.000    0.000    0.000 
#
# Total GULP energy -396584.487862 kJ/mol
# GULP energy per Si atom -12393.265246 kJ/mol
# Density = 1.980500 g / cm^3
# Si number density = 19.850179 Si / 1000 Ang^3
#
#
#
# Elastic Constant Matrix: (Units=GPa)
#
#
# Indices 1 2 3 4 5 6 
#
# 1 158.8090 64.9935 36.2536 0.0000 0.0000 0.0000
# 2 64.9935 145.8111 60.9475 -0.0003 0.0000 0.0000
# 3 36.2536 60.9475 101.2649 -0.0006 0.0000 -0.0001
# 4 0.0000 -0.0003 -0.0006 21.8369 0.0000 -0.0001
# 5 0.0000 0.0000 0.0000 0.0000 25.3737 0.0000
# 6 0.0000 0.0000 -0.0001 -0.0001 0.0000 40.7712
#
#
#
# Elastic Compliance Matrix: (Units=1/GPa)
#
#
# Indices 1 2 3 4 5 6 
#
# 1 0.007767 -0.003073 -0.000931 0.000000 0.000000 0.000000
# 2 -0.003073 0.010379 -0.005147 0.000000 0.000000 0.000000
# 3 -0.000931 -0.005147 0.013306 0.000000 0.000000 0.000000
# 4 0.000000 0.000000 0.000000 0.045794 0.000000 0.000000
# 5 0.000000 0.000000 0.000000 0.000000 0.039411 0.000000
# 6 0.000000 0.000000 0.000000 0.000000 0.000000 0.024527
#
#
# Mechanical properties :
#
#
# Convention : Reuss Voigt Hill
#
# Bulk Modulus (GPa) = 76.04152 81.14159 78.59155
# Shear Modulus (GPa) = 30.51211 33.84239 32.17725
#
# Velocity S-wave (km/s) = 3.92487 4.13351 4.03054
# Velocity P-wave (km/s) = 7.67661 7.98417 7.83190
#
# Compressibility (1/GPa) = 0.01315071
#
# Stress axis : x y z
#
# Youngs Moduli (GPa) = 128.74943 96.34720 75.15349
#
# Poissons Ratio (x) = 0.29606 0.06999
# Poissons Ratio (y) = 0.39562 0.38679
# Poissons Ratio (z) = 0.11990 0.49587
#
# Static dielectric constant tensor:
#      x y z
#    x 3.940870 0.000000 0.000000 
#    y 0.000000 3.537030 0.000000 
#    z 0.000000 0.000000 3.593590 
# 
# 
# High freq. dielectric constant tensor:
#      x y z
#    x 1.793960 0.000000 0.000000 
#    y 0.000000 1.773470 0.000000 
#    z 0.000000 0.000000 1.768430 
# 
# From -- ./inp_files/19957.got.cif
#   From: 2010.03.12/outbox.cif.g09.slc.cpg/sg74_10_cif.got.tgz:19957.got - 2010.04.16 15:46:19.
