data_PCOD8300907
_publ_section_title
;
Structure prediction by ZEFSAII (Michael W. Deem and Ramdas Pophale) SiO2 
 PCOD8300907
Probable space group: I M M A
;
_chemical_formula_sum "Si O2"
_cell_formula_units_Z 64
_cell_length_a 14.404396
_cell_length_b 14.952403
_cell_length_c 15.052944
_cell_angle_alpha 90.000000
_cell_angle_beta 90.000000
_cell_angle_gamma 90.000000
_cell_volume 3242.108106
_symmetry_space_group_name_H-M "I M M A"
_symmetry_group_IT_number 74
_symmetry_cell_setting 'orthorhombic'
loop_
_space_group_symop_operation_xyz
x,y,z
-x,1/2-y,z
x,-y,-z
-x,1/2+y,-z
-x,-y,-z
x,1/2+y,-z
-x,y,z
x,1/2-y,z
1/2+x,1/2+y,1/2+z
1/2-x,-y,1/2+z
1/2+x,1/2-y,1/2-z
1/2-x,y,1/2-z
1/2-x,1/2-y,1/2-z
1/2+x,y,1/2-z
1/2-x,1/2+y,1/2+z
1/2+x,-y,1/2+z
loop_
_atom_site_type_symbol
_atom_site_label
_atom_site_fract_x
_atom_site_fract_y
_atom_site_fract_z
Si Si1 0.390112 0.750000 0.052109
Si Si2 0.893269 0.438037 0.276131
Si Si3 0.390092 0.250000 0.150224
Si Si4 0.100337 0.465457 0.901655
Si Si5 0.717845 0.395270 0.843472
O O1 0.500000 0.750000 0.055509
O O2 0.355002 0.836759 0.103472
O O3 0.353022 0.750000 0.951113
O O4 0.855069 0.338838 0.298476
O O5 0.883451 0.455172 0.170426
O O6 0.829599 0.508256 0.329285
O O7 0.000000 0.448695 0.307755
O O8 0.500000 0.250000 0.149883
O O9 0.186853 0.398581 0.899493
O O10 0.000000 0.419190 0.878855
O O11 0.094274 0.500000 0.000000
O O12 0.750000 0.352217 0.750000
#
# Coordination Sequence:
#
# PCOD8300907 Si02
#       5
#     8  16   8  16  16
#     4  11  23  37  57  88 121 151 193 243 294 358
#     4   9  18  36  59  85 118 152 189 239 298 354
#     4   9  20  35  55  89 121 148 182 228 299 368
#     4   9  19  36  58  81 109 151 200 242 281 338
#     4  10  21  37  58  83 111 154 197 242 294 344
#
# _framework density 19.740241000000001
#
# number of rings (size 3 to 8) (size 9 to 14) (size 15 to 20)
#    0.000    2.500    0.000    1.125    3.500    1.000 
#    0.000   11.250    0.000    3.000    0.000    0.000 
#    0.000    0.000    0.000    0.000    0.000    0.000 
#
# Total GULP energy -396519.461020 kJ/mol
# GULP energy per Si atom -12391.233157 kJ/mol
# Density = 1.969531 g / cm^3
# Si number density = 19.740241 Si / 1000 Ang^3
#
#
#
# Elastic Constant Matrix: (Units=GPa)
#
#
# Indices 1 2 3 4 5 6 
#
# 1 123.7335 39.7213 41.3936 0.0000 0.0000 0.0000
# 2 39.7213 113.7174 51.1449 0.0000 0.0000 0.0000
# 3 41.3936 51.1449 99.6459 0.0000 0.0000 0.0000
# 4 0.0000 0.0000 0.0000 -9.1241 0.0000 0.0001
# 5 0.0000 0.0000 0.0000 0.0000 29.4532 0.0000
# 6 0.0000 0.0000 0.0000 0.0001 0.0000 211.2602
#
#
#
# Elastic Compliance Matrix: (Units=1/GPa)
#
#
# Indices 1 2 3 4 5 6 
#
# 1 0.009743 -0.002058 -0.002991 0.000000 0.000000 0.000000
# 2 -0.002058 0.011868 -0.005236 0.000000 0.000000 0.000000
# 3 -0.002991 -0.005236 0.013966 0.000000 0.000000 0.000000
# 4 0.000000 0.000000 0.000000 -0.109600 0.000000 0.000000
# 5 0.000000 0.000000 0.000000 0.000000 0.033952 0.000000
# 6 0.000000 0.000000 0.000000 0.000000 0.000000 0.004733
#
#
# Mechanical properties :
#
#
# Convention : Reuss Voigt Hill
#
# Bulk Modulus (GPa) = 66.64162 66.84625 66.74394
# Shear Modulus (GPa) = -512.02787 59.97367 -226.02710
#
# Velocity S-wave (km/s) = -16.12284 5.51791 -10.71211
# Velocity P-wave (km/s) = 17.68508 8.63325 10.91396
#
# Compressibility (1/GPa) = 0.01500564
#
# Stress axis : x y z
#
# Youngs Moduli (GPa) = 102.63587 84.26259 71.60410
#
# Poissons Ratio (x) = 0.17341 0.21417
# Poissons Ratio (y) = 0.21123 0.37494
# Poissons Ratio (z) = 0.30699 0.44123
#
# Static dielectric constant tensor:
#      x y z
#    x 4.213210 0.000000 0.000000 
#    y 0.000000 3.369740 0.000000 
#    z 0.000000 0.000000 3.706100 
# 
# 
# High freq. dielectric constant tensor:
#      x y z
#    x 1.790620 0.000000 0.000000 
#    y 0.000000 1.736780 0.000000 
#    z 0.000000 0.000000 1.773290 
# 
# From -- ./inp_files/31845.got.cif
#   From: 2010.03.12/outbox.cif.g09.slc.cpg/sg74_16_cif.got.tgz:31845.got - 2010.04.16 15:46:19.
