data_PCOD8300858
_publ_section_title
;
Structure prediction by ZEFSAII (Michael W. Deem and Ramdas Pophale) SiO2 
 PCOD8300858
Probable space group: I M M A
;
_chemical_formula_sum "Si O2"
_cell_formula_units_Z 96
_cell_length_a 9.048490
_cell_length_b 29.001787
_cell_length_c 19.189090
_cell_angle_alpha 90.000000
_cell_angle_beta 90.000000
_cell_angle_gamma 90.000000
_cell_volume 5035.646661
_symmetry_space_group_name_H-M "I M M A"
_symmetry_group_IT_number 74
_symmetry_cell_setting 'orthorhombic'
loop_
_space_group_symop_operation_xyz
x,y,z
-x,1/2-y,z
x,-y,-z
-x,1/2+y,-z
-x,-y,-z
x,1/2+y,-z
-x,y,z
x,1/2-y,z
1/2+x,1/2+y,1/2+z
1/2-x,-y,1/2+z
1/2+x,1/2-y,1/2-z
1/2-x,y,1/2-z
1/2-x,1/2-y,1/2-z
1/2+x,y,1/2-z
1/2-x,1/2+y,1/2+z
1/2+x,-y,1/2+z
loop_
_atom_site_type_symbol
_atom_site_label
_atom_site_fract_x
_atom_site_fract_y
_atom_site_fract_z
Si Si1 0.833880 0.804333 0.182847
Si Si2 0.831052 0.474691 0.068968
Si Si3 0.170246 0.945745 0.176714
Si Si4 0.826812 0.619793 0.570650
Si Si5 0.673896 0.633037 0.088505
Si Si6 0.674154 0.302384 0.177665
O O1 0.837951 0.750000 0.186372
O O2 0.750000 0.825292 0.250000
O O3 0.740511 0.818779 0.115348
O O4 0.000000 0.824503 0.180879
O O5 0.815605 0.506377 0.136338
O O6 0.746811 0.428440 0.090324
O O7 0.000000 0.461855 0.052114
O O8 0.763303 0.500000 0.000000
O O9 0.250000 0.951222 0.250000
O O10 0.247410 0.907360 0.130215
O O11 0.000000 0.932134 0.188689
O O12 0.783674 0.631395 0.491940
O O13 0.769079 0.661692 0.619138
O O14 0.000000 0.613445 0.580230
O O15 0.500000 0.630658 0.101252
O O16 0.500000 0.306541 0.188141
O O17 0.717327 0.250000 0.155358
O O18 0.750000 0.316015 0.250000
#
# Coordination Sequence:
#
# PCOD8300858 Si02
#       6
#    16  16  16  16  16  16
#     4  10  21  37  56  78 107 145 187 232 280 331
#     4  10  21  39  60  82 112 152 191 237 292 341
#     4  11  23  39  59  83 113 149 191 235 284 341
#     4  10  22  37  59  88 116 151 191 235 287 343
#     4  11  22  36  56  83 113 148 187 231 284 337
#     4   9  19  38  61  86 118 154 193 238 291 349
#
# _framework density 19.064084999999999
#
# number of rings (size 3 to 8) (size 9 to 14) (size 15 to 20)
#    0.000    1.833    1.667    2.000    0.000    5.333 
#    0.000    5.000    0.000    2.000    0.000    0.000 
#    0.000    0.000    0.000    0.000    0.000    0.000 
#
# Total GULP energy -595267.899935 kJ/mol
# GULP energy per Si atom -12401.414582 kJ/mol
# Density = 1.902069 g / cm^3
# Si number density = 19.064085 Si / 1000 Ang^3
#
#
#
# Elastic Constant Matrix: (Units=GPa)
#
#
# Indices 1 2 3 4 5 6 
#
# 1 74.7552 32.7956 62.3272 0.0000 0.0000 0.0000
# 2 32.7956 92.3161 67.7905 -0.0002 0.0000 0.0000
# 3 62.3272 67.7905 143.0620 0.0002 0.0000 0.0001
# 4 0.0000 -0.0002 0.0002 55.4639 0.0000 0.0001
# 5 0.0000 0.0000 0.0000 0.0000 30.7794 0.0000
# 6 0.0000 0.0000 0.0001 0.0001 0.0000 33.0869
#
#
#
# Elastic Compliance Matrix: (Units=1/GPa)
#
#
# Indices 1 2 3 4 5 6 
#
# 1 0.021086 -0.001143 -0.008645 0.000000 0.000000 0.000000
# 2 -0.001143 0.016675 -0.007404 0.000000 0.000000 0.000000
# 3 -0.008645 -0.007404 0.014265 0.000000 0.000000 0.000000
# 4 0.000000 0.000000 0.000000 0.018030 0.000000 0.000000
# 5 0.000000 0.000000 0.000000 0.000000 0.032489 0.000000
# 6 0.000000 0.000000 0.000000 0.000000 0.000000 0.030223
#
#
# Mechanical properties :
#
#
# Convention : Reuss Voigt Hill
#
# Bulk Modulus (GPa) = 56.67981 70.66221 63.67101
# Shear Modulus (GPa) = 28.89638 33.68070 31.28854
#
# Velocity S-wave (km/s) = 3.89749 4.20778 4.05560
# Velocity P-wave (km/s) = 7.07458 7.79444 7.44322
#
# Compressibility (1/GPa) = 0.01764297
#
# Stress axis : x y z
#
# Youngs Moduli (GPa) = 47.42467 59.96983 70.10344
#
# Poissons Ratio (x) = 0.06852 0.60605
# Poissons Ratio (y) = 0.05419 0.51903
# Poissons Ratio (z) = 0.40999 0.44400
#
# Static dielectric constant tensor:
#      x y z
#    x 3.679350 0.000000 0.000000 
#    y 0.000000 3.559340 0.000000 
#    z 0.000000 0.000000 3.510210 
# 
# 
# High freq. dielectric constant tensor:
#      x y z
#    x 1.745290 0.000000 0.000000 
#    y 0.000000 1.747500 0.000000 
#    z 0.000000 0.000000 1.744310 
# 
# From -- ./inp_files/49098.got.cif
#   From: 2010.03.12/outbox.cif.g09.slc.cpg/sg74_25_cif.got.tgz:49098.got - 2010.04.16 15:46:19.
