data_PCOD8300918
_publ_section_title
;
Structure prediction by ZEFSAII (Michael W. Deem and Ramdas Pophale) SiO2 
 PCOD8300918
Probable space group: I M M A
;
_chemical_formula_sum "Si O2"
_cell_formula_units_Z 112
_cell_length_a 18.699421
_cell_length_b 24.663418
_cell_length_c 12.352346
_cell_angle_alpha 90.000000
_cell_angle_beta 90.000000
_cell_angle_gamma 90.000000
_cell_volume 5696.798666
_symmetry_space_group_name_H-M "I M M A"
_symmetry_group_IT_number 74
_symmetry_cell_setting 'orthorhombic'
loop_
_space_group_symop_operation_xyz
x,y,z
-x,1/2-y,z
x,-y,-z
-x,1/2+y,-z
-x,-y,-z
x,1/2+y,-z
-x,y,z
x,1/2-y,z
1/2+x,1/2+y,1/2+z
1/2-x,-y,1/2+z
1/2+x,1/2-y,1/2-z
1/2-x,y,1/2-z
1/2-x,1/2-y,1/2-z
1/2+x,y,1/2-z
1/2-x,1/2+y,1/2+z
1/2+x,-y,1/2+z
loop_
_atom_site_type_symbol
_atom_site_label
_atom_site_fract_x
_atom_site_fract_y
_atom_site_fract_z
Si Si1 0.915475 0.515574 0.190812
Si Si2 0.834916 0.189937 0.745833
Si Si3 0.674173 0.687657 0.800558
Si Si4 0.415564 0.108955 0.342351
Si Si5 0.577568 0.948452 0.072122
Si Si6 0.683629 0.137502 0.972484
Si Si7 0.653601 0.889602 0.432200
O O1 0.892348 0.452988 0.179683
O O2 0.892617 0.536050 0.309343
O O3 0.871340 0.550174 0.102460
O O4 0.000000 0.522442 0.168871
O O5 0.867028 0.250000 0.760944
O O6 0.750000 0.191566 0.750000
O O7 0.854317 0.167113 0.628410
O O8 0.869398 0.152684 0.838898
O O9 0.652697 0.750000 0.778148
O O10 0.750000 0.672814 0.750000
O O11 0.615108 0.648055 0.750415
O O12 0.682570 0.678960 0.928547
O O13 0.500000 0.115504 0.340690
O O14 0.385543 0.127975 0.458032
O O15 0.500000 0.919475 0.084874
O O16 0.632857 0.913040 0.003707
O O17 0.565434 0.000000 0.000000
O O18 0.761573 0.113373 0.948170
#
# Coordination Sequence:
#
# PCOD8300918 Si02
#       7
#    16  16  16  16  16  16  16
#     4  10  21  39  61  88 130 171 204 253 316 383
#     4   9  19  35  58  88 122 160 201 245 304 367
#     4  11  24  44  66  91 125 165 210 259 316 371
#     4  11  24  43  65  92 126 166 211 255 314 381
#     4  10  21  37  58  86 123 167 206 248 308 372
#     4  11  21  39  63  92 121 159 205 266 308 364
#     4  11  21  37  61  97 125 162 207 255 313 375
#
# _framework density 19.660164000000002
#
# number of rings (size 3 to 8) (size 9 to 14) (size 15 to 20)
#    0.000    1.571    2.857    2.143    0.000    5.429 
#    2.571    0.000    0.000    4.286    0.000    0.000 
#    0.000    0.000    0.000    0.000    0.000    0.000 
#
# Total GULP energy -694460.945800 kJ/mol
# GULP energy per Si atom -12401.088318 kJ/mol
# Density = 1.961542 g / cm^3
# Si number density = 19.660164 Si / 1000 Ang^3
#
#
#
# Elastic Constant Matrix: (Units=GPa)
#
#
# Indices 1 2 3 4 5 6 
#
# 1 75.5524 51.0526 29.9615 0.0000 0.0000 0.0000
# 2 51.0526 118.6085 32.3433 0.0000 0.0000 0.0000
# 3 29.9615 32.3433 107.2289 0.0000 0.0000 0.0000
# 4 0.0000 0.0000 0.0000 30.9338 0.0000 0.0000
# 5 0.0000 0.0000 0.0000 0.0000 -1.8443 0.0000
# 6 0.0000 0.0000 0.0000 0.0000 0.0000 25.6432
#
#
#
# Elastic Compliance Matrix: (Units=1/GPa)
#
#
# Indices 1 2 3 4 5 6 
#
# 1 0.019622 -0.007574 -0.003198 0.000000 0.000000 0.000000
# 2 -0.007574 0.012110 -0.001537 0.000000 0.000000 0.000000
# 3 -0.003198 -0.001537 0.010683 0.000000 0.000000 0.000000
# 4 0.000000 0.000000 0.000000 0.032327 0.000000 0.000000
# 5 0.000000 0.000000 0.000000 0.000000 -0.542216 0.000000
# 6 0.000000 0.000000 0.000000 0.000000 0.000000 0.038997
#
#
# Mechanical properties :
#
#
# Convention : Reuss Voigt Hill
#
# Bulk Modulus (GPa) = 56.18624 58.67829 57.43227
# Shear Modulus (GPa) = -12.56508 23.48204 5.45848
#
# Velocity S-wave (km/s) = -2.53081 3.45975 1.66807
# Velocity P-wave (km/s) = 4.48339 6.77281 5.74333
#
# Compressibility (1/GPa) = 0.01779795
#
# Stress axis : x y z
#
# Youngs Moduli (GPa) = 50.96337 82.57600 93.60718
#
# Poissons Ratio (x) = 0.62541 0.29938
# Poissons Ratio (y) = 0.38598 0.14383
# Poissons Ratio (z) = 0.16299 0.12688
#
# Static dielectric constant tensor:
#      x y z
#    x 3.484270 0.000000 0.000000 
#    y 0.000000 3.637480 0.000000 
#    z 0.000000 0.000000 3.805290 
# 
# 
# High freq. dielectric constant tensor:
#      x y z
#    x 1.751080 0.000000 0.000000 
#    y 0.000000 1.765630 0.000000 
#    z 0.000000 0.000000 1.782850 
# 
# From -- ./inp_files/24167.got.cif
#   From: 2010.03.12/outbox.cif.g09.slc.cpg/sg74_13_cif.got.tgz:24167.got - 2010.04.16 15:46:19.
