data_PCOD8300629
_publ_section_title
;
Structure prediction by ZEFSAII (Michael W. Deem and Ramdas Pophale) SiO2 
 PCOD8300629
Probable space group: I M M A
;
_chemical_formula_sum "Si O2"
_cell_formula_units_Z 96
_cell_length_a 17.836645
_cell_length_b 10.891493
_cell_length_c 24.794340
_cell_angle_alpha 90.000000
_cell_angle_beta 90.000000
_cell_angle_gamma 90.000000
_cell_volume 4816.739260
_symmetry_space_group_name_H-M "I M M A"
_symmetry_group_IT_number 74
_symmetry_cell_setting 'orthorhombic'
loop_
_space_group_symop_operation_xyz
x,y,z
-x,1/2-y,z
x,-y,-z
-x,1/2+y,-z
-x,-y,-z
x,1/2+y,-z
-x,y,z
x,1/2-y,z
1/2+x,1/2+y,1/2+z
1/2-x,-y,1/2+z
1/2+x,1/2-y,1/2-z
1/2-x,y,1/2-z
1/2-x,1/2-y,1/2-z
1/2+x,y,1/2-z
1/2-x,1/2+y,1/2+z
1/2+x,-y,1/2+z
loop_
_atom_site_type_symbol
_atom_site_label
_atom_site_fract_x
_atom_site_fract_y
_atom_site_fract_z
Si Si1 0.086781 0.002290 0.939025
Si Si2 0.088244 0.495308 0.745356
Si Si3 0.664886 0.890674 0.655045
Si Si4 0.169533 0.108431 0.350603
Si Si5 0.085849 0.250000 0.875383
Si Si6 0.337720 0.750000 0.261547
Si Si7 0.412111 0.607222 0.958076
O O1 0.101390 0.134453 0.913173
O O2 0.000000 0.964455 0.938121
O O3 0.133021 0.901558 0.905409
O O4 0.117491 0.000000 0.000000
O O5 0.110384 0.535260 0.805415
O O6 0.117590 0.590790 0.701337
O O7 0.125754 0.365749 0.731815
O O8 0.000000 0.484672 0.741966
O O9 0.665363 0.750000 0.673579
O O10 0.748082 0.951080 0.658027
O O11 0.184630 0.250000 0.359267
O O12 0.129016 0.060341 0.404145
O O13 0.142747 0.250000 0.825234
O O14 0.000000 0.250000 0.853325
O O15 0.250000 0.750000 0.250000
O O16 0.500000 0.603237 0.946619
O O17 0.390387 0.750000 0.974746
O O18 0.389137 0.500000 0.000000
#
# Coordination Sequence:
#
# PCOD8300629 Si02
#       7
#    16  16  16  16   8   8  16
#     4  10  22  38  60  87 118 159 204 250 298 360
#     4  12  24  40  62  89 119 156 202 248 299 363
#     4  11  23  38  59  87 120 155 197 251 302 357
#     4  10  22  40  61  86 121 157 198 247 307 367
#     4  10  20  40  64  88 122 164 205 250 308 365
#     4  12  24  40  64  88 124 166 202 246 304 368
#     4   9  18  36  63  90 118 157 201 252 313 374
#
# _framework density 19.930496999999999
#
# number of rings (size 3 to 8) (size 9 to 14) (size 15 to 20)
#    0.000    1.500    1.667    3.750    1.167    5.000 
#    1.500    0.000    0.000    0.000    0.000    0.000 
#    0.000    0.000    0.000    0.000    0.000    0.000 
#
# Total GULP energy -595204.861048 kJ/mol
# GULP energy per Si atom -12400.101272 kJ/mol
# Density = 1.988513 g / cm^3
# Si number density = 19.930497 Si / 1000 Ang^3
#
#
#
# Elastic Constant Matrix: (Units=GPa)
#
#
# Indices 1 2 3 4 5 6 
#
# 1 134.9182 26.8463 54.9499 0.0000 0.0000 0.0000
# 2 26.8463 58.3987 18.1384 0.0000 0.0000 0.0000
# 3 54.9499 18.1384 118.5604 0.0000 0.0000 0.0000
# 4 0.0000 0.0000 0.0000 33.2703 0.0000 0.0000
# 5 0.0000 0.0000 0.0000 0.0000 25.8472 0.0000
# 6 0.0000 0.0000 0.0000 0.0000 0.0000 24.7534
#
#
#
# Elastic Compliance Matrix: (Units=1/GPa)
#
#
# Indices 1 2 3 4 5 6 
#
# 1 0.009677 -0.003208 -0.003994 0.000000 0.000000 0.000000
# 2 -0.003208 0.019041 -0.001426 0.000000 0.000000 0.000000
# 3 -0.003994 -0.001426 0.010504 0.000000 0.000000 0.000000
# 4 0.000000 0.000000 0.000000 0.030057 0.000000 0.000000
# 5 0.000000 0.000000 0.000000 0.000000 0.038689 0.000000
# 6 0.000000 0.000000 0.000000 0.000000 0.000000 0.040399
#
#
# Mechanical properties :
#
#
# Convention : Reuss Voigt Hill
#
# Bulk Modulus (GPa) = 45.52640 56.86073 51.19357
# Shear Modulus (GPa) = 28.91083 30.90369 29.90726
#
# Velocity S-wave (km/s) = 3.81278 3.94200 3.87793
# Velocity P-wave (km/s) = 6.50194 7.02215 6.76705
#
# Compressibility (1/GPa) = 0.02196527
#
# Stress axis : x y z
#
# Youngs Moduli (GPa) = 103.33736 52.51714 95.20200
#
# Poissons Ratio (x) = 0.16847 0.38026
# Poissons Ratio (y) = 0.33151 0.13579
# Poissons Ratio (z) = 0.41276 0.07490
#
# Static dielectric constant tensor:
#      x y z
#    x 3.716350 0.000000 0.000000 
#    y 0.000000 3.725710 0.000000 
#    z 0.000000 0.000000 3.575320 
# 
# 
# High freq. dielectric constant tensor:
#      x y z
#    x 1.781260 0.000000 0.000000 
#    y 0.000000 1.779270 0.000000 
#    z 0.000000 0.000000 1.776640 
# 
# From -- ./inp_files/58907.got.cif
#   From: 2010.03.12/outbox.cif.g09.slc.cpg/sg74_30_cif.got.tgz:58907.got - 2010.04.16 15:46:19.
