data_PCOD8300025
_publ_section_title
;
Structure prediction by ZEFSAII (Michael W. Deem and Ramdas Pophale) SiO2 
 PCOD8300025
Probable space group: I M M A
;
_chemical_formula_sum "Si O2"
_cell_formula_units_Z 96
_cell_length_a 14.325475
_cell_length_b 21.683599
_cell_length_c 15.255631
_cell_angle_alpha 90.000000
_cell_angle_beta 90.000000
_cell_angle_gamma 90.000000
_cell_volume 4738.823940
_symmetry_space_group_name_H-M "I M M A"
_symmetry_group_IT_number 74
_symmetry_cell_setting 'orthorhombic'
loop_
_space_group_symop_operation_xyz
x,y,z
-x,1/2-y,z
x,-y,-z
-x,1/2+y,-z
-x,-y,-z
x,1/2+y,-z
-x,y,z
x,1/2-y,z
1/2+x,1/2+y,1/2+z
1/2-x,-y,1/2+z
1/2+x,1/2-y,1/2-z
1/2-x,y,1/2-z
1/2-x,1/2-y,1/2-z
1/2+x,y,1/2-z
1/2-x,1/2+y,1/2+z
1/2+x,-y,1/2+z
loop_
_atom_site_type_symbol
_atom_site_label
_atom_site_fract_x
_atom_site_fract_y
_atom_site_fract_z
Si Si1 0.890790 0.250000 0.825338
Si Si2 0.611378 0.883563 0.260122
Si Si3 0.888760 0.750000 0.980186
Si Si4 0.394121 0.355475 0.353325
Si Si5 0.607151 0.181859 0.157191
Si Si6 0.766373 0.424251 0.415906
Si Si7 0.765668 0.062713 0.618114
O O1 0.861795 0.188438 0.773371
O O2 0.000000 0.250000 0.840799
O O3 0.844814 0.250000 0.922386
O O4 0.500000 0.895398 0.269106
O O5 0.668180 0.925200 0.330363
O O6 0.648279 0.900903 0.163327
O O7 0.855182 0.810302 0.928735
O O8 0.000000 0.750000 0.979299
O O9 0.500000 0.376161 0.368308
O O10 0.379840 0.322317 0.261226
O O11 0.330288 0.415533 0.362887
O O12 0.500000 0.174723 0.130725
O O13 0.643558 0.250000 0.128553
O O14 0.659138 0.127022 0.109489
O O15 0.798235 0.491463 0.384193
O O16 0.749921 0.416390 0.519114
#
# Coordination Sequence:
#
# PCOD8300025 Si02
#       7
#     8  16   8  16  16  16  16
#     4   9  18  35  63  91 118 155 197 247 315 362
#     4  10  22  43  67  91 121 158 204 260 308 366
#     4   9  16  30  54  89 126 152 187 239 298 368
#     4  10  20  34  58  91 124 162 202 245 304 364
#     4  10  22  40  61  91 125 163 209 253 300 362
#     4  11  24  41  60  88 129 164 204 255 307 366
#     4  10  25  43  60  92 124 161 210 251 307 373
#
# _framework density 20.258189999999999
#
# number of rings (size 3 to 8) (size 9 to 14) (size 15 to 20)
#    0.000    2.000    0.833    1.500    5.833    6.000 
#    3.000    3.333    0.000    0.000    0.000    0.000 
#    0.000    0.000    0.000    0.000    0.000    0.000 
#
# Total GULP energy -595024.961740 kJ/mol
# GULP energy per Si atom -12396.353370 kJ/mol
# Density = 2.021208 g / cm^3
# Si number density = 20.258190 Si / 1000 Ang^3
#
#
#
# Elastic Constant Matrix: (Units=GPa)
#
#
# Indices 1 2 3 4 5 6 
#
# 1 96.6743 46.7864 30.6137 0.0000 0.0000 -0.0001
# 2 46.7864 125.0563 37.5055 0.0002 -0.0001 0.0000
# 3 30.6137 37.5055 49.8256 0.0003 -0.0001 0.0000
# 4 0.0000 0.0002 0.0003 29.6228 -0.0001 -0.0001
# 5 0.0000 -0.0001 -0.0001 -0.0001 26.4016 0.0000
# 6 -0.0001 0.0000 0.0000 -0.0001 0.0000 13.9727
#
#
#
# Elastic Compliance Matrix: (Units=1/GPa)
#
#
# Indices 1 2 3 4 5 6 
#
# 1 0.013881 -0.003404 -0.005966 0.000000 0.000000 0.000000
# 2 -0.003404 0.011163 -0.006311 0.000000 0.000000 0.000000
# 3 -0.005966 -0.006311 0.028487 0.000000 0.000000 0.000000
# 4 0.000000 0.000000 0.000000 0.033758 0.000000 0.000000
# 5 0.000000 0.000000 0.000000 0.000000 0.037876 0.000000
# 6 0.000000 0.000000 0.000000 0.000000 0.000000 0.071568
#
#
# Mechanical properties :
#
#
# Convention : Reuss Voigt Hill
#
# Bulk Modulus (GPa) = 45.11183 55.70750 50.40966
# Shear Modulus (GPa) = 21.23288 24.44279 22.83784
#
# Velocity S-wave (km/s) = 3.24097 3.47733 3.36123
# Velocity P-wave (km/s) = 6.02677 6.60915 6.32467
#
# Compressibility (1/GPa) = 0.02216713
#
# Stress axis : x y z
#
# Youngs Moduli (GPa) = 72.04279 89.58502 35.10430
#
# Poissons Ratio (x) = 0.30492 0.20945
# Poissons Ratio (y) = 0.24521 0.22155
# Poissons Ratio (z) = 0.42984 0.56539
#
# Static dielectric constant tensor:
#      x y z
#    x 3.681440 0.000000 0.000000 
#    y 0.000000 3.801690 0.000000 
#    z 0.000000 0.000000 3.730000 
# 
# 
# High freq. dielectric constant tensor:
#      x y z
#    x 1.784030 0.000000 0.000000 
#    y 0.000000 1.797610 0.000000 
#    z 0.000000 0.000000 1.790720 
# 
# From -- ./inp_files/32471.got.cif
#   From: 2010.03.12/outbox.cif.g09.slc.cpg/sg74_17_cif.got.tgz:32471.got - 2010.04.16 15:46:19.
