data_PCOD8300877
_publ_section_title
;
Structure prediction by ZEFSAII (Michael W. Deem and Ramdas Pophale) SiO2 
 PCOD8300877
Probable space group: I M M A
;
_chemical_formula_sum "Si O2"
_cell_formula_units_Z 80
_cell_length_a 27.548589
_cell_length_b 8.532659
_cell_length_c 17.940692
_cell_angle_alpha 90.000000
_cell_angle_beta 90.000000
_cell_angle_gamma 90.000000
_cell_volume 4217.187786
_symmetry_space_group_name_H-M "I M M A"
_symmetry_group_IT_number 74
_symmetry_cell_setting 'orthorhombic'
loop_
_space_group_symop_operation_xyz
x,y,z
-x,1/2-y,z
x,-y,-z
-x,1/2+y,-z
-x,-y,-z
x,1/2+y,-z
-x,y,z
x,1/2-y,z
1/2+x,1/2+y,1/2+z
1/2-x,-y,1/2+z
1/2+x,1/2-y,1/2-z
1/2-x,y,1/2-z
1/2-x,1/2-y,1/2-z
1/2+x,y,1/2-z
1/2-x,1/2+y,1/2+z
1/2+x,-y,1/2+z
loop_
_atom_site_type_symbol
_atom_site_label
_atom_site_fract_x
_atom_site_fract_y
_atom_site_fract_z
Si Si1 0.054477 0.567169 0.271720
Si Si2 0.850962 0.569361 0.783351
Si Si3 0.908870 0.433566 0.421699
Si Si4 0.214141 0.567616 0.920620
Si Si5 0.813394 0.932307 0.363206
O O1 0.065701 0.750000 0.265862
O O2 0.092306 0.476866 0.218582
O O3 0.060367 0.515943 0.357151
O O4 0.000000 0.527550 0.244839
O O5 0.845242 0.750000 0.760442
O O6 0.831033 0.537278 0.865781
O O7 0.819846 0.469390 0.724265
O O8 0.927701 0.500000 0.500000
O O9 0.918135 0.250000 0.418131
O O10 0.851861 0.469968 0.411667
O O11 0.227141 0.750000 0.926802
O O12 0.260092 0.475945 0.889354
O O13 0.198257 0.500000 0.000000
O O14 0.822858 0.750000 0.377458
#
# Coordination Sequence:
#
# PCOD8300877 Si02
#       5
#    16  16  16  16  16
#     4  10  21  37  57  80 104 133 173 219 266 317
#     4  10  21  37  57  80 107 139 176 218 261 310
#     4  11  21  34  52  75 108 145 180 219 260 306
#     4  11  23  37  54  79 110 142 177 217 261 310
#     4  11  21  34  54  79 109 145 182 216 254 306
#
# _framework density 18.969989000000002
#
# number of rings (size 3 to 8) (size 9 to 14) (size 15 to 20)
#    0.000    1.400    0.000    9.000    0.000    7.600 
#    0.000    0.000    0.000    0.600    0.000    0.000 
#    0.000    0.000    0.000    0.000    0.000    0.000 
#
# Total GULP energy -496175.106796 kJ/mol
# GULP energy per Si atom -12404.377670 kJ/mol
# Density = 1.892681 g / cm^3
# Si number density = 18.969989 Si / 1000 Ang^3
#
#
#
# Elastic Constant Matrix: (Units=GPa)
#
#
# Indices 1 2 3 4 5 6 
#
# 1 81.0716 10.7902 38.2781 0.0000 0.0000 0.0000
# 2 10.7902 41.3796 14.6805 0.0000 0.0000 0.0000
# 3 38.2781 14.6805 91.3738 0.0000 0.0000 0.0000
# 4 0.0000 0.0000 0.0000 29.8617 0.0000 0.0000
# 5 0.0000 0.0000 0.0000 0.0000 17.4929 0.0000
# 6 0.0000 0.0000 0.0000 0.0000 0.0000 25.0037
#
#
#
# Elastic Compliance Matrix: (Units=1/GPa)
#
#
# Indices 1 2 3 4 5 6 
#
# 1 0.015508 -0.001844 -0.006200 0.000000 0.000000 0.000000
# 2 -0.001844 0.025847 -0.003380 0.000000 0.000000 0.000000
# 3 -0.006200 -0.003380 0.014084 0.000000 0.000000 0.000000
# 4 0.000000 0.000000 0.000000 0.033488 0.000000 0.000000
# 5 0.000000 0.000000 0.000000 0.000000 0.057166 0.000000
# 6 0.000000 0.000000 0.000000 0.000000 0.000000 0.039994
#
#
# Mechanical properties :
#
#
# Convention : Reuss Voigt Hill
#
# Bulk Modulus (GPa) = 30.68428 37.92472 34.30450
# Shear Modulus (GPa) = 22.74813 24.47675 23.61244
#
# Velocity S-wave (km/s) = 3.46665 3.59595 3.53190
# Velocity P-wave (km/s) = 5.67749 6.10545 5.89535
#
# Compressibility (1/GPa) = 0.03258997
#
# Stress axis : x y z
#
# Youngs Moduli (GPa) = 64.48450 38.68985 71.00030
#
# Poissons Ratio (x) = 0.07135 0.44021
# Poissons Ratio (y) = 0.11892 0.23999
# Poissons Ratio (z) = 0.39981 0.13077
#
# Static dielectric constant tensor:
#      x y z
#    x 3.434800 0.000000 0.000000 
#    y 0.000000 3.655840 0.000000 
#    z 0.000000 0.000000 3.239020 
# 
# 
# High freq. dielectric constant tensor:
#      x y z
#    x 1.729250 0.000000 0.000000 
#    y 0.000000 1.757350 0.000000 
#    z 0.000000 0.000000 1.721030 
# 
# From -- ./inp_files/39704.got.cif
#   From: 2010.03.12/outbox.cif.g09.slc.cpg/sg74_20_cif.got.tgz:39704.got - 2010.04.16 15:46:19.
