data_PCOD8300029
_publ_section_title
;
Structure prediction by ZEFSAII (Michael W. Deem and Ramdas Pophale) SiO2 
 PCOD8300029
Probable space group: I M M A
;
_chemical_formula_sum "Si O2"
_cell_formula_units_Z 104
_cell_length_a 25.154280
_cell_length_b 24.053865
_cell_length_c 8.806947
_cell_angle_alpha 90.000000
_cell_angle_beta 90.000000
_cell_angle_gamma 90.000000
_cell_volume 5328.710702
_symmetry_space_group_name_H-M "I M M A"
_symmetry_group_IT_number 74
_symmetry_cell_setting 'orthorhombic'
loop_
_space_group_symop_operation_xyz
x,y,z
-x,1/2-y,z
x,-y,-z
-x,1/2+y,-z
-x,-y,-z
x,1/2+y,-z
-x,y,z
x,1/2-y,z
1/2+x,1/2+y,1/2+z
1/2-x,-y,1/2+z
1/2+x,1/2-y,1/2-z
1/2-x,y,1/2-z
1/2-x,1/2-y,1/2-z
1/2+x,y,1/2-z
1/2-x,1/2+y,1/2+z
1/2+x,-y,1/2+z
loop_
_atom_site_type_symbol
_atom_site_label
_atom_site_fract_x
_atom_site_fract_y
_atom_site_fract_z
Si Si1 0.849067 0.939408 0.564464
Si Si2 0.562345 0.250000 0.850171
Si Si3 0.393846 0.750000 0.470237
Si Si4 0.439419 0.641442 0.954901
Si Si5 0.439788 0.358366 0.395317
Si Si6 0.149463 0.559435 0.922381
Si Si7 0.727030 0.750000 0.579083
Si Si8 0.250559 0.370117 0.431162
O O1 0.902962 0.911279 0.501593
O O2 0.845957 0.947061 0.743393
O O3 0.801321 0.900529 0.505136
O O4 0.842589 0.000000 0.500000
O O5 0.500000 0.250000 0.799511
O O6 0.605028 0.250000 0.713286
O O7 0.575181 0.195809 0.949986
O O8 0.427715 0.696761 0.513896
O O9 0.337112 0.750000 0.556661
O O10 0.500000 0.623026 0.982625
O O11 0.427843 0.655520 0.779842
O O12 0.500000 0.376984 0.421917
O O13 0.404839 0.408686 0.461325
O O14 0.198198 0.595691 0.987586
O O15 0.149169 0.500000 0.000000
O O16 0.750000 0.750000 0.750000
O O17 0.747842 0.807044 0.501447
O O18 0.250000 0.366690 0.250000
#
# Coordination Sequence:
#
# PCOD8300029 Si02
#       8
#    16   8   8  16  16  16   8  16
#     4  10  21  36  57  83 105 147 203 242 274 343
#     4  10  21  37  58  86 123 161 187 231 301 358
#     4  12  21  35  59  91 118 145 185 238 294 349
#     4   9  20  38  58  81 115 156 195 235 290 352
#     4  10  20  35  57  87 113 147 198 242 283 349
#     4  10  20  35  56  79 113 152 186 238 297 343
#     4  10  20  34  59  88 112 147 186 226 284 354
#     4   9  18  35  56  82 109 145 189 230 285 346
#
# _framework density 19.516915999999998
#
# number of rings (size 3 to 8) (size 9 to 14) (size 15 to 20)
#    0.000    2.154    1.538    1.615    2.154    3.692 
#    0.000    0.000    0.000    0.923    0.000    0.000 
#    0.000    0.000    0.000    0.000    0.000    0.000 
#
# Total GULP energy -644625.544740 kJ/mol
# GULP energy per Si atom -12396.645091 kJ/mol
# Density = 1.947250 g / cm^3
# Si number density = 19.516916 Si / 1000 Ang^3
#
#
#
# Elastic Constant Matrix: (Units=GPa)
#
#
# Indices 1 2 3 4 5 6 
#
# 1 137.8554 84.9298 41.6857 0.0000 0.0000 0.0000
# 2 84.9298 198.0453 41.4152 0.0000 0.0000 0.0000
# 3 41.6857 41.4152 42.6301 0.0000 0.0000 0.0000
# 4 0.0000 0.0000 0.0000 0.4320 0.0000 0.0000
# 5 0.0000 0.0000 0.0000 0.0000 19.7116 0.0000
# 6 0.0000 0.0000 0.0000 0.0000 0.0000 40.3340
#
#
#
# Elastic Compliance Matrix: (Units=1/GPa)
#
#
# Indices 1 2 3 4 5 6 
#
# 1 0.011823 -0.003329 -0.008327 0.000000 0.000000 0.000000
# 2 -0.003329 0.007274 -0.003812 0.000000 0.000000 0.000000
# 3 -0.008327 -0.003812 0.035303 0.000000 0.000000 0.000000
# 4 0.000000 0.000000 0.000000 2.314725 0.000000 0.000000
# 5 0.000000 0.000000 0.000000 0.000000 0.050732 0.000000
# 6 0.000000 0.000000 0.000000 0.000000 0.000000 0.024793
#
#
# Mechanical properties :
#
#
# Convention : Reuss Voigt Hill
#
# Bulk Modulus (GPa) = 42.61645 79.39911 61.00778
# Shear Modulus (GPa) = 2.01336 26.12885 14.07111
#
# Velocity S-wave (km/s) = 1.01678 3.66290 2.68800
# Velocity P-wave (km/s) = 4.82302 7.65896 6.40005
#
# Compressibility (1/GPa) = 0.02346512
#
# Stress axis : x y z
#
# Youngs Moduli (GPa) = 84.58313 137.47722 28.32613
#
# Poissons Ratio (x) = 0.45762 0.23587
# Poissons Ratio (y) = 0.28155 0.10797
# Poissons Ratio (z) = 0.70432 0.52402
#
# Static dielectric constant tensor:
#      x y z
#    x 3.781480 0.000000 0.000000 
#    y 0.000000 3.715240 0.000000 
#    z 0.000000 0.000000 3.254870 
# 
# 
# High freq. dielectric constant tensor:
#      x y z
#    x 1.769710 0.000000 0.000000 
#    y 0.000000 1.772840 0.000000 
#    z 0.000000 0.000000 1.726100 
# 
# From -- ./inp_files/15270.got.cif
#   From: 2010.03.12/outbox.cif.g09.slc.cpg/sg74_8_cif.got.tgz:15270.got - 2010.04.16 15:46:19.
