data_PCOD8300061
_publ_section_title
;
Structure prediction by ZEFSAII (Michael W. Deem and Ramdas Pophale) SiO2 
 PCOD8300061
Probable space group: I M M A
;
_chemical_formula_sum "Si O2"
_cell_formula_units_Z 128
_cell_length_a 23.662698
_cell_length_b 26.872845
_cell_length_c 10.858488
_cell_angle_alpha 90.000000
_cell_angle_beta 90.000000
_cell_angle_gamma 90.000000
_cell_volume 6904.738953
_symmetry_space_group_name_H-M "I M M A"
_symmetry_group_IT_number 74
_symmetry_cell_setting 'orthorhombic'
loop_
_space_group_symop_operation_xyz
x,y,z
-x,1/2-y,z
x,-y,-z
-x,1/2+y,-z
-x,-y,-z
x,1/2+y,-z
-x,y,z
x,1/2-y,z
1/2+x,1/2+y,1/2+z
1/2-x,-y,1/2+z
1/2+x,1/2-y,1/2-z
1/2-x,y,1/2-z
1/2-x,1/2-y,1/2-z
1/2+x,y,1/2-z
1/2-x,1/2+y,1/2+z
1/2+x,-y,1/2+z
loop_
_atom_site_type_symbol
_atom_site_label
_atom_site_fract_x
_atom_site_fract_y
_atom_site_fract_z
Si Si1 0.065391 0.806561 0.992707
Si Si2 0.062705 0.454712 0.592985
Si Si3 0.187147 0.429077 0.240157
Si Si4 0.438371 0.193880 0.205707
Si Si5 0.272572 0.628156 0.127051
Si Si6 0.870002 0.123421 0.457086
Si Si7 0.342592 0.612476 0.486661
Si Si8 0.334728 0.958842 0.263070
O O1 0.076703 0.750000 0.041033
O O2 0.076884 0.808084 0.848256
O O3 0.000000 0.821490 0.023049
O O4 0.110398 0.845665 0.050097
O O5 0.064992 0.500000 0.500000
O O6 0.078889 0.402799 0.527844
O O7 0.104429 0.466877 0.703140
O O8 0.000000 0.448254 0.647567
O O9 0.250000 0.406617 0.250000
O O10 0.158775 0.418562 0.371921
O O11 0.192488 0.487664 0.214688
O O12 0.151127 0.404339 0.128713
O O13 0.500000 0.169174 0.184008
O O14 0.439820 0.250000 0.158632
O O15 0.390627 0.167302 0.128531
O O16 0.250000 0.657529 0.250000
O O17 0.221797 0.630782 0.029622
O O18 0.292266 0.573041 0.175513
O O19 0.327052 0.649280 0.055600
O O20 0.348551 0.566733 0.393126
#
# Coordination Sequence:
#
# PCOD8300061 Si02
#       8
#    16  16  16  16  16  16  16  16
#     4   9  19  36  58  81 108 144 183 228 289 351
#     4  10  20  35  54  74 104 146 188 227 268 322
#     4  12  21  32  52  82 114 147 185 223 275 335
#     4   9  18  34  56  82 109 138 177 228 284 339
#     4   9  20  36  52  76 109 147 183 223 270 320
#     4  11  19  33  56  80 110 141 185 227 274 333
#     4  11  20  35  55  81 113 142 183 231 276 332
#     4  10  22  36  52  78 113 154 188 224 270 325
#
# _framework density 18.537994000000001
#
# number of rings (size 3 to 8) (size 9 to 14) (size 15 to 20)
#    0.000    1.875    3.750    2.625    0.000    0.500 
#    0.000    1.250    0.000   14.250    0.000   15.750 
#    0.000    0.000    0.000    0.000    0.000    0.000 
#
# Total GULP energy -793067.847487 kJ/mol
# GULP energy per Si atom -12391.685117 kJ/mol
# Density = 1.849580 g / cm^3
# Si number density = 18.537994 Si / 1000 Ang^3
#
#
#
# Elastic Constant Matrix: (Units=GPa)
#
#
# Indices 1 2 3 4 5 6 
#
# 1 111.3225 29.3932 21.9734 0.0000 0.0000 0.0000
# 2 29.3932 56.3345 11.8080 0.0000 0.0000 0.0000
# 3 21.9734 11.8080 59.0600 0.0000 0.0000 0.0000
# 4 0.0000 0.0000 0.0000 19.7222 0.0000 0.0000
# 5 0.0000 0.0000 0.0000 0.0000 28.8348 0.0000
# 6 0.0000 0.0000 0.0000 0.0000 0.0000 9.2012
#
#
#
# Elastic Compliance Matrix: (Units=1/GPa)
#
#
# Indices 1 2 3 4 5 6 
#
# 1 0.010921 -0.005058 -0.003052 0.000000 0.000000 0.000000
# 2 -0.005058 0.020871 -0.002291 0.000000 0.000000 0.000000
# 3 -0.003052 -0.002291 0.018525 0.000000 0.000000 0.000000
# 4 0.000000 0.000000 0.000000 0.050704 0.000000 0.000000
# 5 0.000000 0.000000 0.000000 0.000000 0.034680 0.000000
# 6 0.000000 0.000000 0.000000 0.000000 0.000000 0.108681
#
#
# Mechanical properties :
#
#
# Convention : Reuss Voigt Hill
#
# Bulk Modulus (GPa) = 33.88116 39.22959 36.55538
# Shear Modulus (GPa) = 18.18032 22.45447 20.31740
#
# Velocity S-wave (km/s) = 3.13502 3.48410 3.31416
# Velocity P-wave (km/s) = 5.60542 6.11498 5.86574
#
# Compressibility (1/GPa) = 0.02951493
#
# Stress axis : x y z
#
# Youngs Moduli (GPa) = 91.56745 47.91441 53.98012
#
# Poissons Ratio (x) = 0.24237 0.16474
# Poissons Ratio (y) = 0.46319 0.12365
# Poissons Ratio (z) = 0.27945 0.10976
#
# Static dielectric constant tensor:
#      x y z
#    x 3.627180 0.000000 0.000000 
#    y 0.000000 3.145720 0.000000 
#    z 0.000000 0.000000 3.455570 
# 
# 
# High freq. dielectric constant tensor:
#      x y z
#    x 1.731540 0.000000 0.000000 
#    y 0.000000 1.686400 0.000000 
#    z 0.000000 0.000000 1.713770 
# 
# From -- ./inp_files/25569.got.cif
#   From: 2010.03.12/outbox.cif.g09.slc.cpg/sg74_13_cif.got.tgz:25569.got - 2010.04.16 15:46:19.
