data_PCOD8300559
_publ_section_title
;
Structure prediction by ZEFSAII (Michael W. Deem and Ramdas Pophale) SiO2 
 PCOD8300559
Probable space group: I M M A
;
_chemical_formula_sum "Si O2"
_cell_formula_units_Z 88
_cell_length_a 26.320163
_cell_length_b 14.917395
_cell_length_c 10.987836
_cell_angle_alpha 90.000000
_cell_angle_beta 90.000000
_cell_angle_gamma 90.000000
_cell_volume 4314.135017
_symmetry_space_group_name_H-M "I M M A"
_symmetry_group_IT_number 74
_symmetry_cell_setting 'orthorhombic'
loop_
_space_group_symop_operation_xyz
x,y,z
-x,1/2-y,z
x,-y,-z
-x,1/2+y,-z
-x,-y,-z
x,1/2+y,-z
-x,y,z
x,1/2-y,z
1/2+x,1/2+y,1/2+z
1/2-x,-y,1/2+z
1/2+x,1/2-y,1/2-z
1/2-x,y,1/2-z
1/2-x,1/2-y,1/2-z
1/2+x,y,1/2-z
1/2-x,1/2+y,1/2+z
1/2+x,-y,1/2+z
loop_
_atom_site_type_symbol
_atom_site_label
_atom_site_fract_x
_atom_site_fract_y
_atom_site_fract_z
Si Si1 0.768616 0.250000 0.480022
Si Si2 0.945076 0.350008 0.251601
Si Si3 0.372098 0.250000 0.868627
Si Si4 0.441303 0.896954 0.020414
Si Si5 0.157688 0.750000 0.090670
Si Si6 0.255879 0.561017 0.612201
Si Si7 0.628798 0.584980 0.561396
O O1 0.821494 0.250000 0.550584
O O2 0.718636 0.250000 0.566788
O O3 0.767656 0.161024 0.395886
O O4 0.945917 0.250000 0.199862
O O5 0.934424 0.345859 0.394159
O O6 0.900816 0.401946 0.185983
O O7 0.000000 0.396224 0.227231
O O8 0.351697 0.250000 0.732634
O O9 0.405402 0.159107 0.887728
O O10 0.500000 0.894246 0.066485
O O11 0.423510 0.000000 0.000000
O O12 0.128847 0.833641 0.032089
O O13 0.232984 0.500000 0.500000
O O14 0.250000 0.521743 0.750000
O O15 0.315310 0.560839 0.599530
O O16 0.601890 0.500000 0.500000
#
# Coordination Sequence:
#
# PCOD8300559 Si02
#       7
#     8  16   8  16   8  16  16
#     4  10  24  41  61  90 126 168 210 257 305 370
#     4  10  20  38  63  87 118 155 202 256 302 366
#     4  12  24  38  65  93 119 169 210 250 314 387
#     4  10  23  42  62  92 126 157 200 263 314 359
#     4  10  23  43  56  89 132 160 198 266 311 360
#     4  10  23  41  63  92 126 165 211 263 310 367
#     4  10  22  39  62  86 121 163 201 251 312 368
#
# _framework density 20.398063
#
# number of rings (size 3 to 8) (size 9 to 14) (size 15 to 20)
#    0.000    1.818    1.818    0.818    5.091    5.455 
#    0.000    1.818    0.000    0.000    0.000    0.000 
#    0.000    0.000    0.000    0.000    0.000    0.000 
#
# Total GULP energy -545276.087523 kJ/mol
# GULP energy per Si atom -12392.638353 kJ/mol
# Density = 2.035164 g / cm^3
# Si number density = 20.398063 Si / 1000 Ang^3
#
#
#
# Elastic Constant Matrix: (Units=GPa)
#
#
# Indices 1 2 3 4 5 6 
#
# 1 61.1067 25.2140 26.2607 0.0000 0.0000 0.0000
# 2 25.2140 118.2807 31.8340 0.0000 0.0000 0.0000
# 3 26.2607 31.8340 109.0717 0.0000 0.0000 0.0000
# 4 0.0000 0.0000 0.0000 27.8808 0.0000 0.0000
# 5 0.0000 0.0000 0.0000 0.0000 27.4755 0.0000
# 6 0.0000 0.0000 0.0000 0.0000 0.0000 -28.5944
#
#
#
# Elastic Compliance Matrix: (Units=1/GPa)
#
#
# Indices 1 2 3 4 5 6 
#
# 1 0.019246 -0.003099 -0.003729 0.000000 0.000000 0.000000
# 2 -0.003099 0.009674 -0.002077 0.000000 0.000000 0.000000
# 3 -0.003729 -0.002077 0.010672 0.000000 0.000000 0.000000
# 4 0.000000 0.000000 0.000000 0.035867 0.000000 0.000000
# 5 0.000000 0.000000 0.000000 0.000000 0.036396 0.000000
# 6 0.000000 0.000000 0.000000 0.000000 0.000000 -0.034972
#
#
# Mechanical properties :
#
#
# Convention : Reuss Voigt Hill
#
# Bulk Modulus (GPa) = 45.91075 50.56406 48.23741
# Shear Modulus (GPa) = 49.04075 19.02908 34.03491
#
# Velocity S-wave (km/s) = 4.90857 3.05763 4.08920
# Velocity P-wave (km/s) = 7.39471 6.10802 6.78195
#
# Compressibility (1/GPa) = 0.02178139
#
# Stress axis : x y z
#
# Youngs Moduli (GPa) = 51.95824 103.36772 93.69883
#
# Poissons Ratio (x) = 0.32034 0.34943
# Poissons Ratio (y) = 0.16102 0.19465
# Poissons Ratio (z) = 0.19377 0.21474
#
# Static dielectric constant tensor:
#      x y z
#    x 3.716570 0.000000 0.000000 
#    y 0.000000 3.913960 0.000000 
#    z 0.000000 0.000000 3.783650 
# 
# 
# High freq. dielectric constant tensor:
#      x y z
#    x 1.793690 0.000000 0.000000 
#    y 0.000000 1.805720 0.000000 
#    z 0.000000 0.000000 1.789220 
# 
# From -- ./inp_files/25041.got.cif
#   From: 2010.03.12/outbox.cif.g09.slc.cpg/sg74_13_cif.got.tgz:25041.got - 2010.04.16 15:46:19.
