data_PCOD8300135
_publ_section_title
;
Structure prediction by ZEFSAII (Michael W. Deem and Ramdas Pophale) SiO2 
 PCOD8300135
Probable space group: I M M A
;
_chemical_formula_sum "Si O2"
_cell_formula_units_Z 96
_cell_length_a 20.407550
_cell_length_b 8.572446
_cell_length_c 27.758307
_cell_angle_alpha 90.000000
_cell_angle_beta 90.000000
_cell_angle_gamma 90.000000
_cell_volume 4856.110964
_symmetry_space_group_name_H-M "I M M A"
_symmetry_group_IT_number 74
_symmetry_cell_setting 'orthorhombic'
loop_
_space_group_symop_operation_xyz
x,y,z
-x,1/2-y,z
x,-y,-z
-x,1/2+y,-z
-x,-y,-z
x,1/2+y,-z
-x,y,z
x,1/2-y,z
1/2+x,1/2+y,1/2+z
1/2-x,-y,1/2+z
1/2+x,1/2-y,1/2-z
1/2-x,y,1/2-z
1/2-x,1/2-y,1/2-z
1/2+x,y,1/2-z
1/2-x,1/2+y,1/2+z
1/2+x,-y,1/2+z
loop_
_atom_site_type_symbol
_atom_site_label
_atom_site_fract_x
_atom_site_fract_y
_atom_site_fract_z
Si Si1 0.186808 0.068676 0.217316
Si Si2 0.075779 0.066769 0.051484
Si Si3 0.803138 0.566671 0.551944
Si Si4 0.812497 0.068156 0.886534
Si Si5 0.427487 0.435765 0.107711
Si Si6 0.072689 0.065233 0.284668
O O1 0.177589 0.250000 0.203270
O O2 0.250000 0.044719 0.250000
O O3 0.125146 0.999691 0.246922
O O4 0.192577 0.966472 0.169772
O O5 0.089003 0.250000 0.051731
O O6 0.000000 0.026606 0.061394
O O7 0.117203 0.986408 0.093575
O O8 0.098374 0.000000 0.000000
O O9 0.787467 0.500000 0.500000
O O10 0.808564 0.750000 0.547842
O O11 0.744642 0.525612 0.587391
O O12 0.871836 0.496697 0.572186
O O13 0.803120 0.250000 0.896233
O O14 0.500000 0.490646 0.090380
O O15 0.424628 0.250000 0.108849
O O16 0.413716 0.500215 0.161606
O O17 0.079370 0.250000 0.286585
O O18 0.000000 0.015301 0.267567
#
# Coordination Sequence:
#
# PCOD8300135 Si02
#       6
#    16  16  16  16  16  16
#     4  10  20  35  56  81 108 142 186 232 278 328
#     4  10  21  39  63  88 114 145 183 228 280 338
#     4  11  22  37  57  81 111 146 186 231 279 332
#     4  12  25  39  56  80 113 150 189 233 280 333
#     4   8  15  30  54  83 112 143 180 223 271 323
#     4   8  14  27  50  79 107 135 172 218 265 315
#
# _framework density 19.768903999999999
#
# number of rings (size 3 to 8) (size 9 to 14) (size 15 to 20)
#    0.000    2.167    0.000    5.000    0.000    5.000 
#    0.000    1.667    0.000    1.500    0.000    4.667 
#    0.000    0.000    0.000    0.000    0.000    0.000 
#
# Total GULP energy -595216.833966 kJ/mol
# GULP energy per Si atom -12400.350708 kJ/mol
# Density = 1.972391 g / cm^3
# Si number density = 19.768904 Si / 1000 Ang^3
#
#
#
# Elastic Constant Matrix: (Units=GPa)
#
#
# Indices 1 2 3 4 5 6 
#
# 1 114.3986 19.1948 44.2901 0.0000 0.0000 0.0000
# 2 19.1948 42.7467 21.7172 0.0000 0.0000 0.0000
# 3 44.2901 21.7172 91.9167 0.0000 0.0000 0.0000
# 4 0.0000 0.0000 0.0000 29.0180 0.0000 0.0000
# 5 0.0000 0.0000 0.0000 0.0000 42.0695 0.0000
# 6 0.0000 0.0000 0.0000 0.0000 0.0000 13.4599
#
#
#
# Elastic Compliance Matrix: (Units=1/GPa)
#
#
# Indices 1 2 3 4 5 6 
#
# 1 0.010985 -0.002550 -0.004691 0.000000 0.000000 0.000000
# 2 -0.002550 0.027176 -0.005192 0.000000 0.000000 0.000000
# 3 -0.004691 -0.005192 0.014367 0.000000 0.000000 0.000000
# 4 0.000000 0.000000 0.000000 0.034461 0.000000 0.000000
# 5 0.000000 0.000000 0.000000 0.000000 0.023770 0.000000
# 6 0.000000 0.000000 0.000000 0.000000 0.000000 0.074295
#
#
# Mechanical properties :
#
#
# Convention : Reuss Voigt Hill
#
# Bulk Modulus (GPa) = 36.15019 46.60738 41.37878
# Shear Modulus (GPa) = 22.81631 27.83347 25.32489
#
# Velocity S-wave (km/s) = 3.40097 3.75633 3.58305
# Velocity P-wave (km/s) = 5.80932 6.51465 6.17207
#
# Compressibility (1/GPa) = 0.02766237
#
# Stress axis : x y z
#
# Youngs Moduli (GPa) = 91.03118 36.79654 69.60629
#
# Poissons Ratio (x) = 0.09382 0.32651
# Poissons Ratio (y) = 0.23210 0.36143
# Poissons Ratio (z) = 0.42701 0.19106
#
# Static dielectric constant tensor:
#      x y z
#    x 3.948210 0.000000 0.000000 
#    y 0.000000 3.267910 0.000000 
#    z 0.000000 0.000000 3.626530 
# 
# 
# High freq. dielectric constant tensor:
#      x y z
#    x 1.788820 0.000000 0.000000 
#    y 0.000000 1.736790 0.000000 
#    z 0.000000 0.000000 1.772580 
# 
# From -- ./inp_files/68129.got.cif
#   From: 2010.03.12/outbox.cif.g09.slc.cpg/sg74_35_cif.got.tgz:68129.got - 2010.04.16 15:46:19.
