data_PCOD8300609
_publ_section_title
;
Structure prediction by ZEFSAII (Michael W. Deem and Ramdas Pophale) SiO2 
 PCOD8300609
Probable space group: I M M A
;
_chemical_formula_sum "Si O2"
_cell_formula_units_Z 64
_cell_length_a 10.094255
_cell_length_b 18.032822
_cell_length_c 17.057382
_cell_angle_alpha 90.000000
_cell_angle_beta 90.000000
_cell_angle_gamma 90.000000
_cell_volume 3104.919487
_symmetry_space_group_name_H-M "I M M A"
_symmetry_group_IT_number 74
_symmetry_cell_setting 'orthorhombic'
loop_
_space_group_symop_operation_xyz
x,y,z
-x,1/2-y,z
x,-y,-z
-x,1/2+y,-z
-x,-y,-z
x,1/2+y,-z
-x,y,z
x,1/2-y,z
1/2+x,1/2+y,1/2+z
1/2-x,-y,1/2+z
1/2+x,1/2-y,1/2-z
1/2-x,y,1/2-z
1/2-x,1/2-y,1/2-z
1/2+x,y,1/2-z
1/2-x,1/2+y,1/2+z
1/2+x,-y,1/2+z
loop_
_atom_site_type_symbol
_atom_site_label
_atom_site_fract_x
_atom_site_fract_y
_atom_site_fract_z
Si Si1 0.000000 0.556786 0.426110
Si Si2 0.250000 0.439852 0.250000
Si Si3 0.650984 0.167416 0.117185
Si Si4 0.500000 0.164719 0.644117
Si Si5 0.500000 0.528322 0.249937
Si Si6 0.764669 0.333815 0.550970
O O1 0.000000 0.500000 0.500000
O O2 0.000000 0.514112 0.343607
O O3 0.870582 0.606993 0.420901
O O4 0.305413 0.389905 0.181356
O O5 0.368408 0.489886 0.284632
O O6 0.500000 0.150979 0.088675
O O7 0.659967 0.250000 0.153070
O O8 0.748241 0.159905 0.042994
O O9 0.500000 0.250000 0.672684
O O10 0.500000 0.114052 0.722119
O O11 0.374192 0.146324 0.590394
O O12 0.809175 0.250000 0.573621
#
# Coordination Sequence:
#
# PCOD8300609 Si02
#       6
#     8   8  16   8   8  16
#     4  12  23  40  64  95 122 165 211 254 309 381
#     4  12  23  42  59  94 130 168 200 258 317 378
#     4  10  20  39  66  95 124 163 210 256 307 374
#     4  10  24  45  63  90 126 163 213 273 324 377
#     4  12  26  41  62  89 131 166 207 257 322 376
#     4  10  21  41  68  92 120 160 213 265 313 371
#
# _framework density 20.612449999999999
#
# number of rings (size 3 to 8) (size 9 to 14) (size 15 to 20)
#    0.000    1.250    2.500    3.750    0.000    2.000 
#    0.000    6.250    0.000    0.000    0.000    0.000 
#    0.000    0.000    0.000    0.000    0.000    0.000 
#
# Total GULP energy -396793.259522 kJ/mol
# GULP energy per Si atom -12399.789360 kJ/mol
# Density = 2.056554 g / cm^3
# Si number density = 20.612450 Si / 1000 Ang^3
#
#
#
# Elastic Constant Matrix: (Units=GPa)
#
#
# Indices 1 2 3 4 5 6 
#
# 1 136.3468 66.3538 34.6281 0.0000 0.0000 -0.0006
# 2 66.3538 117.7194 48.3356 0.0000 0.0000 0.0007
# 3 34.6281 48.3356 92.9505 0.0000 0.0000 0.0019
# 4 0.0000 0.0000 0.0000 37.6745 0.0000 0.0009
# 5 0.0000 0.0000 0.0000 0.0000 27.9820 -0.0002
# 6 -0.0006 0.0007 0.0019 0.0009 -0.000221536.2748
#
#
#
# Elastic Compliance Matrix: (Units=1/GPa)
#
#
# Indices 1 2 3 4 5 6 
#
# 1 0.010183 -0.005318 -0.001028 0.000000 0.000000 0.000000
# 2 -0.005318 0.013578 -0.005080 0.000000 0.000000 0.000000
# 3 -0.001028 -0.005080 0.013783 0.000000 0.000000 0.000000
# 4 0.000000 0.000000 0.000000 0.026543 0.000000 0.000000
# 5 0.000000 0.000000 0.000000 0.000000 0.035737 0.000000
# 6 0.000000 0.000000 0.000000 0.000000 0.000000 0.000046
#
#
# Mechanical properties :
#
#
# Convention : Reuss Voigt Hill
#
# Bulk Modulus (GPa) = 68.06097 71.73908 69.90002
# Shear Modulus (GPa) = 39.17881 4333.56619 2186.37250
#
# Velocity S-wave (km/s) = 4.36447 45.90170 32.60380
# Velocity P-wave (km/s) = 7.64782 53.33074 38.09631
#
# Compressibility (1/GPa) = 0.01469271
#
# Stress axis : x y z
#
# Youngs Moduli (GPa) = 98.20008 73.64962 72.55293
#
# Poissons Ratio (x) = 0.39164 0.07462
# Poissons Ratio (y) = 0.52219 0.36854
# Poissons Ratio (z) = 0.10100 0.37411
#
# Static dielectric constant tensor:
#      x y z
#    x 3.966440 0.000000 0.000000 
#    y 0.000000 3.976770 0.000000 
#    z 0.000000 0.000000 3.669820 
# 
# 
# High freq. dielectric constant tensor:
#      x y z
#    x 1.807920 0.000000 0.000000 
#    y 0.000000 1.826690 0.000000 
#    z 0.000000 0.000000 1.796110 
# 
# From -- ./inp_files/40746.got.cif
#   From: 2010.03.12/outbox.cif.g09.slc.cpg/sg74_21_cif.got.tgz:40746.got - 2010.04.16 15:46:19.
