data_PCOD8300404
_publ_section_title
;
Structure prediction by ZEFSAII (Michael W. Deem and Ramdas Pophale) SiO2 
 PCOD8300404
Probable space group: I M M A
;
_chemical_formula_sum "Si O2"
_cell_formula_units_Z 96
_cell_length_a 19.033039
_cell_length_b 13.480918
_cell_length_c 19.695082
_cell_angle_alpha 90.000000
_cell_angle_beta 90.000000
_cell_angle_gamma 90.000000
_cell_volume 5053.420035
_symmetry_space_group_name_H-M "I M M A"
_symmetry_group_IT_number 74
_symmetry_cell_setting 'orthorhombic'
loop_
_space_group_symop_operation_xyz
x,y,z
-x,1/2-y,z
x,-y,-z
-x,1/2+y,-z
-x,-y,-z
x,1/2+y,-z
-x,y,z
x,1/2-y,z
1/2+x,1/2+y,1/2+z
1/2-x,-y,1/2+z
1/2+x,1/2-y,1/2-z
1/2-x,y,1/2-z
1/2-x,1/2-y,1/2-z
1/2+x,y,1/2-z
1/2-x,1/2+y,1/2+z
1/2+x,-y,1/2+z
loop_
_atom_site_type_symbol
_atom_site_label
_atom_site_fract_x
_atom_site_fract_y
_atom_site_fract_z
Si Si1 0.793462 0.514884 0.921196
Si Si2 0.081616 0.362707 0.528388
Si Si3 0.421291 0.865318 0.627356
Si Si4 0.140765 0.546464 0.600682
Si Si5 0.420828 0.489373 0.241945
Si Si6 0.187060 0.365920 0.802246
O O1 0.863495 0.580501 0.918045
O O2 0.723726 0.570973 0.894699
O O3 0.800779 0.414918 0.876266
O O4 0.779353 0.500000 0.000000
O O5 0.097221 0.250000 0.549782
O O6 0.129027 0.432890 0.575603
O O7 0.101647 0.377938 0.449658
O O8 0.000000 0.389649 0.538688
O O9 0.500000 0.888457 0.599247
O O10 0.405035 0.750000 0.625136
O O11 0.414706 0.901267 0.704251
O O12 0.109925 0.559947 0.674821
O O13 0.500000 0.524251 0.229156
O O14 0.381208 0.587511 0.267110
O O15 0.174611 0.250000 0.814441
O O16 0.250000 0.386843 0.750000
#
# Coordination Sequence:
#
# PCOD8300404 Si02
#       6
#    16  16  16  16  16  16
#     4  11  22  38  60  88 119 156 195 239 293 353
#     4  10  21  35  51  76 115 161 203 238 277 334
#     4   9  21  41  62  85 113 147 191 245 300 349
#     4  11  20  36  55  83 118 155 189 238 288 341
#     4  10  20  36  61  86 115 152 192 238 290 348
#     4  10  21  38  59  82 116 155 194 242 295 345
#
# _framework density 18.997036000000001
#
# number of rings (size 3 to 8) (size 9 to 14) (size 15 to 20)
#    0.000    1.833    3.333    2.000    0.000    4.000 
#    0.000    2.500    0.000    0.000    0.000    0.000 
#    0.000    0.000    0.000    0.000    0.000    0.000 
#
# Total GULP energy -595173.778478 kJ/mol
# GULP energy per Si atom -12399.453718 kJ/mol
# Density = 1.895380 g / cm^3
# Si number density = 18.997036 Si / 1000 Ang^3
#
#
#
# Elastic Constant Matrix: (Units=GPa)
#
#
# Indices 1 2 3 4 5 6 
#
# 1 125.9075 24.4969 16.1760 0.0000 0.0000 0.0000
# 2 24.4969 66.0517 -11.4205 0.0000 0.0000 0.0000
# 3 16.1760 -11.4205 56.5890 0.0000 0.0000 0.0000
# 4 0.0000 0.0000 0.0000 13.1829 0.0000 0.0000
# 5 0.0000 0.0000 0.0000 0.0000 32.3904 0.0000
# 6 0.0000 0.0000 0.0000 0.0000 0.0000 23.9553
#
#
#
# Elastic Compliance Matrix: (Units=1/GPa)
#
#
# Indices 1 2 3 4 5 6 
#
# 1 0.009158 -0.003988 -0.003423 0.000000 0.000000 0.000000
# 2 -0.003988 0.017424 0.004656 0.000000 0.000000 0.000000
# 3 -0.003423 0.004656 0.019589 0.000000 0.000000 0.000000
# 4 0.000000 0.000000 0.000000 0.075856 0.000000 0.000000
# 5 0.000000 0.000000 0.000000 0.000000 0.030873 0.000000
# 6 0.000000 0.000000 0.000000 0.000000 0.000000 0.041744
#
#
# Mechanical properties :
#
#
# Convention : Reuss Voigt Hill
#
# Bulk Modulus (GPa) = 24.59283 34.11701 29.35492
# Shear Modulus (GPa) = 23.39637 28.52542 25.96090
#
# Velocity S-wave (km/s) = 3.51319 3.87922 3.70073
# Velocity P-wave (km/s) = 5.42498 6.16948 5.80917
#
# Compressibility (1/GPa) = 0.04066226
#
# Stress axis : x y z
#
# Youngs Moduli (GPa) = 109.19352 57.39230 51.04801
#
# Poissons Ratio (x) = 0.22890 0.17472
# Poissons Ratio (y) = 0.43550 -0.23770
# Poissons Ratio (z) = 0.37374 -0.26725
#
# Static dielectric constant tensor:
#      x y z
#    x 3.838580 0.000000 0.000000 
#    y 0.000000 3.287600 0.000000 
#    z 0.000000 0.000000 3.439990 
# 
# 
# High freq. dielectric constant tensor:
#      x y z
#    x 1.757180 0.000000 0.000000 
#    y 0.000000 1.722600 0.000000 
#    z 0.000000 0.000000 1.737020 
# 
# From -- ./inp_files/51908.got.cif
#   From: 2010.03.12/outbox.cif.g09.slc.cpg/sg74_26_cif.got.tgz:51908.got - 2010.04.16 15:46:19.
