data_PCOD8300727
_publ_section_title
;
Structure prediction by ZEFSAII (Michael W. Deem and Ramdas Pophale) SiO2 
 PCOD8300727
Probable space group: I M M A
;
_chemical_formula_sum "Si O2"
_cell_formula_units_Z 128
_cell_length_a 22.301887
_cell_length_b 27.339816
_cell_length_c 11.456359
_cell_angle_alpha 90.000000
_cell_angle_beta 90.000000
_cell_angle_gamma 90.000000
_cell_volume 6985.279896
_symmetry_space_group_name_H-M "I M M A"
_symmetry_group_IT_number 74
_symmetry_cell_setting 'orthorhombic'
loop_
_space_group_symop_operation_xyz
x,y,z
-x,1/2-y,z
x,-y,-z
-x,1/2+y,-z
-x,-y,-z
x,1/2+y,-z
-x,y,z
x,1/2-y,z
1/2+x,1/2+y,1/2+z
1/2-x,-y,1/2+z
1/2+x,1/2-y,1/2-z
1/2-x,y,1/2-z
1/2-x,1/2-y,1/2-z
1/2+x,y,1/2-z
1/2-x,1/2+y,1/2+z
1/2+x,-y,1/2+z
loop_
_atom_site_type_symbol
_atom_site_label
_atom_site_fract_x
_atom_site_fract_y
_atom_site_fract_z
Si Si1 0.065449 0.440674 0.808583
Si Si2 0.430238 0.550356 0.636252
Si Si3 0.844394 0.895620 0.045373
Si Si4 0.836826 0.304753 0.328514
Si Si5 0.286418 0.305110 0.429538
Si Si6 0.107573 0.949896 0.435550
Si Si7 0.240985 0.533968 0.384835
Si Si8 0.569092 0.613570 0.860115
O O1 0.085650 0.492684 0.865702
O O2 0.109714 0.396714 0.845837
O O3 0.061584 0.446099 0.670473
O O4 0.000000 0.427199 0.855813
O O5 0.500000 0.559011 0.597414
O O6 0.381105 0.577305 0.557216
O O7 0.420397 0.571088 0.765647
O O8 0.785184 0.921885 0.090844
O O9 0.824861 0.841002 0.011768
O O10 0.855811 0.250000 0.363723
O O11 0.783166 0.322178 0.415790
O O12 0.814166 0.305890 0.197464
O O13 0.895314 0.337608 0.331757
O O14 0.290053 0.250000 0.481606
O O15 0.174047 0.945960 0.384675
O O16 0.095089 0.904688 0.518501
O O17 0.093879 0.000000 0.500000
O O18 0.249404 0.500000 0.500000
O O19 0.250000 0.511917 0.250000
O O20 0.500000 0.628134 0.869789
#
# Coordination Sequence:
#
# PCOD8300727 Si02
#       8
#    16  16  16  16  16  16  16  16
#     4  11  22  36  55  77 112 158 199 231 269 332
#     4  10  21  35  54  84 117 153 198 236 282 343
#     4  12  21  36  59  81 114 148 192 235 299 340
#     4   9  18  37  59  85 115 144 186 238 301 358
#     4   9  19  36  60  86 111 144 186 240 297 360
#     4  11  22  37  55  78 115 156 198 236 284 341
#     4  11  24  39  57  86 124 159 197 247 294 349
#     4  11  21  34  56  87 119 152 193 239 292 349
#
# _framework density 18.324248000000001
#
# number of rings (size 3 to 8) (size 9 to 14) (size 15 to 20)
#    0.000    1.500    3.750    3.375    0.000    1.750 
#    2.250    0.000    0.000    2.625    0.000    0.000 
#    0.000    0.000    0.000    0.000    0.000    0.000 
#
# Total GULP energy -793040.093234 kJ/mol
# GULP energy per Si atom -12391.251457 kJ/mol
# Density = 1.828254 g / cm^3
# Si number density = 18.324248 Si / 1000 Ang^3
#
#
#
# Elastic Constant Matrix: (Units=GPa)
#
#
# Indices 1 2 3 4 5 6 
#
# 1 87.1056 50.2979 28.8791 0.0000 0.0000 0.0000
# 2 50.2979 76.0269 26.0399 0.0000 0.0000 0.0000
# 3 28.8791 26.0399 91.8021 0.0000 0.0000 0.0000
# 4 0.0000 0.0000 0.0000 26.6665 0.0000 0.0000
# 5 0.0000 0.0000 0.0000 0.0000 34.1422 0.0000
# 6 0.0000 0.0000 0.0000 0.0000 0.0000 29.2713
#
#
#
# Elastic Compliance Matrix: (Units=1/GPa)
#
#
# Indices 1 2 3 4 5 6 
#
# 1 0.019160 -0.011753 -0.002694 0.000000 0.000000 0.000000
# 2 -0.011753 0.021779 -0.002480 0.000000 0.000000 0.000000
# 3 -0.002694 -0.002480 0.012444 0.000000 0.000000 0.000000
# 4 0.000000 0.000000 0.000000 0.037500 0.000000 0.000000
# 5 0.000000 0.000000 0.000000 0.000000 0.029289 0.000000
# 6 0.000000 0.000000 0.000000 0.000000 0.000000 0.034163
#
#
# Mechanical properties :
#
#
# Convention : Reuss Voigt Hill
#
# Bulk Modulus (GPa) = 51.20757 51.70757 51.45757
# Shear Modulus (GPa) = 25.68067 27.99718 26.83893
#
# Velocity S-wave (km/s) = 3.74767 3.91305 3.83125
# Velocity P-wave (km/s) = 6.83612 6.97820 6.90753
#
# Compressibility (1/GPa) = 0.01952836
#
# Stress axis : x y z
#
# Youngs Moduli (GPa) = 52.19151 45.91672 80.36115
#
# Poissons Ratio (x) = 0.53968 0.21645
# Poissons Ratio (y) = 0.61343 0.19931
# Poissons Ratio (z) = 0.14058 0.11388
#
# Static dielectric constant tensor:
#      x y z
#    x 3.578820 0.000000 0.000000 
#    y 0.000000 3.274750 0.000000 
#    z 0.000000 0.000000 3.549490 
# 
# 
# High freq. dielectric constant tensor:
#      x y z
#    x 1.728050 0.000000 0.000000 
#    y 0.000000 1.676250 0.000000 
#    z 0.000000 0.000000 1.712790 
# 
# From -- ./inp_files/25700.got.cif
#   From: 2010.03.12/outbox.cif.g09.slc.cpg/sg74_13_cif.got.tgz:25700.got - 2010.04.16 15:46:19.
