data_PCOD8300690
_publ_section_title
;
Structure prediction by ZEFSAII (Michael W. Deem and Ramdas Pophale) SiO2 
 PCOD8300690
Probable space group: I M M A
;
_chemical_formula_sum "Si O2"
_cell_formula_units_Z 64
_cell_length_a 9.456608
_cell_length_b 9.441403
_cell_length_c 40.891095
_cell_angle_alpha 90.000000
_cell_angle_beta 90.000000
_cell_angle_gamma 90.000000
_cell_volume 3650.906097
_symmetry_space_group_name_H-M "I M M A"
_symmetry_group_IT_number 74
_symmetry_cell_setting 'orthorhombic'
loop_
_space_group_symop_operation_xyz
x,y,z
-x,1/2-y,z
x,-y,-z
-x,1/2+y,-z
-x,-y,-z
x,1/2+y,-z
-x,y,z
x,1/2-y,z
1/2+x,1/2+y,1/2+z
1/2-x,-y,1/2+z
1/2+x,1/2-y,1/2-z
1/2-x,y,1/2-z
1/2-x,1/2-y,1/2-z
1/2+x,y,1/2-z
1/2-x,1/2+y,1/2+z
1/2+x,-y,1/2+z
loop_
_atom_site_type_symbol
_atom_site_label
_atom_site_fract_x
_atom_site_fract_y
_atom_site_fract_z
Si Si1 0.664198 0.087101 0.218291
Si Si2 0.164693 0.914969 0.898001
Si Si3 0.667449 0.905723 0.528834
Si Si4 0.834142 0.585756 0.344903
O O1 0.500000 0.064624 0.226077
O O2 0.697608 0.250000 0.209317
O O3 0.750000 0.037857 0.250000
O O4 0.714849 0.990022 0.188395
O O5 0.203425 0.750000 0.892757
O O6 0.203030 0.963453 0.934969
O O7 0.000000 0.939525 0.890656
O O8 0.255124 0.014195 0.874867
O O9 0.500000 0.897885 0.524783
O O10 0.733044 0.750000 0.524714
O O11 0.735331 0.000000 0.500000
O O12 0.792234 0.750000 0.342742
O O13 0.000000 0.564396 0.350501
#
# Coordination Sequence:
#
# PCOD8300690 Si02
#       4
#    16  16  16  16
#     4   9  18  33  52  72  94 123 159 196 235 282
#     4   9  18  32  50  73  99 127 163 204 242 285
#     4   8  14  25  42  66  95 124 154 192 239 287
#     4  10  21  35  50  71 100 132 164 198 239 287
#
# _framework density 17.529895
#
# number of rings (size 3 to 8) (size 9 to 14) (size 15 to 20)
#    0.000    3.000    0.000    2.250    0.000    4.500 
#    0.000    5.000    0.000    0.750    0.000    0.000 
#    0.000    0.000    0.000    0.000    0.000    0.000 
#
# Total GULP energy -396723.083344 kJ/mol
# GULP energy per Si atom -12397.596355 kJ/mol
# Density = 1.749000 g / cm^3
# Si number density = 17.529895 Si / 1000 Ang^3
#
#
#
# Elastic Constant Matrix: (Units=GPa)
#
#
# Indices 1 2 3 4 5 6 
#
# 1 34.3768 40.2490 52.6946 0.0000 0.0000 0.0000
# 2 40.2490 112.4443 98.2209 0.0000 0.0000 0.0000
# 3 52.6946 98.2209 173.3402 0.0000 0.0000 0.0000
# 4 0.0000 0.0000 0.0000 36.3348 0.0000 0.0000
# 5 0.0000 0.0000 0.0000 0.0000 26.5350 0.0000
# 6 0.0000 0.0000 0.0000 0.0000 0.0000 23.3777
#
#
#
# Elastic Compliance Matrix: (Units=1/GPa)
#
#
# Indices 1 2 3 4 5 6 
#
# 1 0.060765 -0.011118 -0.012173 0.000000 0.000000 0.000000
# 2 -0.011118 0.019643 -0.007751 0.000000 0.000000 0.000000
# 3 -0.012173 -0.007751 0.013861 0.000000 0.000000 0.000000
# 4 0.000000 0.000000 0.000000 0.027522 0.000000 0.000000
# 5 0.000000 0.000000 0.000000 0.000000 0.037686 0.000000
# 6 0.000000 0.000000 0.000000 0.000000 0.000000 0.042776
#
#
# Mechanical properties :
#
#
# Convention : Reuss Voigt Hill
#
# Bulk Modulus (GPa) = 31.06815 78.05447 54.56131
# Shear Modulus (GPa) = 18.17751 25.84927 22.01339
#
# Velocity S-wave (km/s) = 3.22365 3.84420 3.54752
# Velocity P-wave (km/s) = 5.62293 8.02041 6.92619
#
# Compressibility (1/GPa) = 0.03218731
#
# Stress axis : x y z
#
# Youngs Moduli (GPa) = 16.45680 50.90795 72.14326
#
# Poissons Ratio (x) = 0.56599 0.87817
# Poissons Ratio (y) = 0.18296 0.55917
# Poissons Ratio (z) = 0.20032 0.39458
#
# Static dielectric constant tensor:
#      x y z
#    x 2.932190 0.000000 0.000000 
#    y 0.000000 3.435750 0.000000 
#    z 0.000000 0.000000 3.408330 
# 
# 
# High freq. dielectric constant tensor:
#      x y z
#    x 1.643510 0.000000 0.000000 
#    y 0.000000 1.676950 0.000000 
#    z 0.000000 0.000000 1.690010 
# 
# From -- ./inp_files/71288.got.cif
#   From: 2010.03.12/outbox.cif.g09.slc.cpg/sg74_36_cif.got.tgz:71288.got - 2010.04.16 15:46:19.
