data_PCOD8300897
_publ_section_title
;
Structure prediction by ZEFSAII (Michael W. Deem and Ramdas Pophale) SiO2 
 PCOD8300897
Probable space group: I M M A
;
_chemical_formula_sum "Si O2"
_cell_formula_units_Z 96
_cell_length_a 24.497603
_cell_length_b 9.458339
_cell_length_c 19.751949
_cell_angle_alpha 90.000000
_cell_angle_beta 90.000000
_cell_angle_gamma 90.000000
_cell_volume 4576.657615
_symmetry_space_group_name_H-M "I M M A"
_symmetry_group_IT_number 74
_symmetry_cell_setting 'orthorhombic'
loop_
_space_group_symop_operation_xyz
x,y,z
-x,1/2-y,z
x,-y,-z
-x,1/2+y,-z
-x,-y,-z
x,1/2+y,-z
-x,y,z
x,1/2-y,z
1/2+x,1/2+y,1/2+z
1/2-x,-y,1/2+z
1/2+x,1/2-y,1/2-z
1/2-x,y,1/2-z
1/2-x,1/2-y,1/2-z
1/2+x,y,1/2-z
1/2-x,1/2+y,1/2+z
1/2+x,-y,1/2+z
loop_
_atom_site_type_symbol
_atom_site_label
_atom_site_fract_x
_atom_site_fract_y
_atom_site_fract_z
Si Si1 0.939132 0.090001 0.381890
Si Si2 0.940490 0.918468 0.112357
Si Si3 0.674204 0.585297 0.934825
Si Si4 0.827929 0.588184 0.060535
Si Si5 0.240995 0.413995 0.671594
Si Si6 0.563323 0.403538 0.760566
O O1 0.944141 0.250000 0.357070
O O2 0.892135 0.075255 0.438393
O O3 0.000000 0.038739 0.406900
O O4 0.914478 0.004330 0.318724
O O5 0.942516 0.750000 0.118070
O O6 0.890637 0.967480 0.065600
O O7 0.927714 0.976083 0.187660
O O8 0.000000 0.974606 0.086221
O O9 0.692728 0.750000 0.938349
O O10 0.696781 0.513455 0.865834
O O11 0.696845 0.500000 0.000000
O O12 0.825952 0.750000 0.038322
O O13 0.798027 0.564776 0.131928
O O14 0.799790 0.500000 0.000000
O O15 0.222050 0.250000 0.667998
O O16 0.250000 0.460125 0.750000
O O17 0.500000 0.380144 0.773231
O O18 0.593167 0.250000 0.765400
#
# Coordination Sequence:
#
# PCOD8300897 Si02
#       6
#    16  16  16  16  16  16
#     4   9  19  35  54  81 119 156 189 233 292 351
#     4   8  15  29  51  80 113 147 185 230 278 331
#     4  11  24  41  62  88 120 159 198 242 296 354
#     4  10  21  37  57  83 115 152 189 231 284 340
#     4  10  23  42  65  90 115 148 195 250 301 352
#     4   8  14  26  48  77 106 142 188 234 277 327
#
# _framework density 20.976006999999999
#
# number of rings (size 3 to 8) (size 9 to 14) (size 15 to 20)
#    0.000    2.667    0.000    2.000    2.333    4.333 
#    0.000    0.833    0.000    1.000    0.000    0.000 
#    0.000    0.000    0.000    0.000    0.000    0.000 
#
# Total GULP energy -594636.527172 kJ/mol
# GULP energy per Si atom -12388.260983 kJ/mol
# Density = 2.092826 g / cm^3
# Si number density = 20.976007 Si / 1000 Ang^3
#
#
#
# Elastic Constant Matrix: (Units=GPa)
#
#
# Indices 1 2 3 4 5 6 
#
# 1 101.3975 37.5208 33.9407 0.0000 0.0000 0.0000
# 2 37.5208 84.6409 55.1485 0.0000 0.0000 0.0000
# 3 33.9407 55.1485 125.9859 0.0000 0.0000 0.0000
# 4 0.0000 0.0000 0.0000 25.5627 0.0000 0.0000
# 5 0.0000 0.0000 0.0000 0.0000 19.0057 0.0000
# 6 0.0000 0.0000 0.0000 0.0000 0.0000 22.1777
#
#
#
# Elastic Compliance Matrix: (Units=1/GPa)
#
#
# Indices 1 2 3 4 5 6 
#
# 1 0.011938 -0.004472 -0.001259 0.000000 0.000000 0.000000
# 2 -0.004472 0.018204 -0.006764 0.000000 0.000000 0.000000
# 3 -0.001259 -0.006764 0.011237 0.000000 0.000000 0.000000
# 4 0.000000 0.000000 0.000000 0.039119 0.000000 0.000000
# 5 0.000000 0.000000 0.000000 0.000000 0.052616 0.000000
# 6 0.000000 0.000000 0.000000 0.000000 0.000000 0.045090
#
#
# Mechanical properties :
#
#
# Convention : Reuss Voigt Hill
#
# Bulk Modulus (GPa) = 61.01052 62.80492 61.90772
# Shear Modulus (GPa) = 23.96270 25.71019 24.83645
#
# Velocity S-wave (km/s) = 3.38359 3.50479 3.44472
# Velocity P-wave (km/s) = 6.66437 6.81061 6.73789
#
# Compressibility (1/GPa) = 0.01639062
#
# Stress axis : x y z
#
# Youngs Moduli (GPa) = 83.76396 54.93266 88.99005
#
# Poissons Ratio (x) = 0.24567 0.11200
# Poissons Ratio (y) = 0.37460 0.60191
# Poissons Ratio (z) = 0.10542 0.37155
#
# Static dielectric constant tensor:
#      x y z
#    x 3.960740 0.000000 0.000000 
#    y 0.000000 3.860260 0.000000 
#    z 0.000000 0.000000 3.653880 
# 
# 
# High freq. dielectric constant tensor:
#      x y z
#    x 1.830240 0.000000 0.000000 
#    y 0.000000 1.792410 0.000000 
#    z 0.000000 0.000000 1.810000 
# 
# From -- ./inp_files/55054.got.cif
#   From: 2010.03.12/outbox.cif.g09.slc.cpg/sg74_28_cif.got.tgz:55054.got - 2010.04.16 15:46:19.
