data_PCOD8300020
_publ_section_title
;
Structure prediction by ZEFSAII (Michael W. Deem and Ramdas Pophale) SiO2 
 PCOD8300020
Probable space group: I M M A
;
_chemical_formula_sum "Si O2"
_cell_formula_units_Z 96
_cell_length_a 21.213218
_cell_length_b 14.772218
_cell_length_c 15.448852
_cell_angle_alpha 90.000000
_cell_angle_beta 90.000000
_cell_angle_gamma 90.000000
_cell_volume 4841.149294
_symmetry_space_group_name_H-M "I M M A"
_symmetry_group_IT_number 74
_symmetry_cell_setting 'orthorhombic'
loop_
_space_group_symop_operation_xyz
x,y,z
-x,1/2-y,z
x,-y,-z
-x,1/2+y,-z
-x,-y,-z
x,1/2+y,-z
-x,y,z
x,1/2-y,z
1/2+x,1/2+y,1/2+z
1/2-x,-y,1/2+z
1/2+x,1/2-y,1/2-z
1/2-x,y,1/2-z
1/2-x,1/2-y,1/2-z
1/2+x,y,1/2-z
1/2-x,1/2+y,1/2+z
1/2+x,-y,1/2+z
loop_
_atom_site_type_symbol
_atom_site_label
_atom_site_fract_x
_atom_site_fract_y
_atom_site_fract_z
Si Si1 0.213377 0.149352 0.594276
Si Si2 0.131522 0.476778 0.138946
Si Si3 0.000000 0.844877 0.620282
Si Si4 0.000000 0.019556 0.228346
Si Si5 0.088955 0.600996 0.480479
Si Si6 0.250000 0.473276 0.750000
Si Si7 0.500000 0.149399 0.831499
Si Si8 0.650507 0.646030 0.475399
O O1 0.195734 0.250000 0.626151
O O2 0.163589 0.111133 0.525320
O O3 0.215936 0.087555 0.678685
O O4 0.275535 0.149878 0.537775
O O5 0.192052 0.470675 0.204917
O O6 0.123706 0.577815 0.098194
O O7 0.064377 0.452675 0.180993
O O8 0.139355 0.397609 0.068847
O O9 0.000000 0.931058 0.680149
O O10 0.061675 0.840990 0.559213
O O11 0.000000 0.750000 0.673582
O O12 0.000000 0.912855 0.246712
O O13 0.067396 0.500000 0.500000
O O14 0.062102 0.632869 0.388393
O O15 0.500000 0.250000 0.794029
O O16 0.622835 0.750000 0.469134
#
# Coordination Sequence:
#
# PCOD8300020 Si02
#       8
#    16  16   8   8  16   8   8  16
#     4  10  20  34  58  87 114 149 196 244 289 343
#     4  10  23  39  62  86 118 153 193 244 298 350
#     4  11  23  39  55  80 120 157 194 235 286 352
#     4  12  24  40  56  92 120 150 192 250 302 354
#     4  11  20  34  58  82 117 156 197 234 280 352
#     4  10  21  36  59  86 122 156 188 236 304 352
#     4  11  21  37  55  82 120 155 190 235 288 346
#     4   9  21  42  62  84 112 151 203 247 286 345
#
# _framework density 19.830000999999999
#
# number of rings (size 3 to 8) (size 9 to 14) (size 15 to 20)
#    0.000    1.667    1.667    3.750    4.667    3.333 
#    0.000    1.250    0.000    0.000    0.000    0.000 
#    0.000    0.000    0.000    0.000    0.000    0.000 
#
# Total GULP energy -594887.658823 kJ/mol
# GULP energy per Si atom -12393.492892 kJ/mol
# Density = 1.978487 g / cm^3
# Si number density = 19.830001 Si / 1000 Ang^3
#
#
#
# Elastic Constant Matrix: (Units=GPa)
#
#
# Indices 1 2 3 4 5 6 
#
# 1 101.9074 10.4550 43.3280 0.0000 0.0000 0.0000
# 2 10.4550 86.6241 19.1244 0.0000 0.0000 0.0000
# 3 43.3280 19.1244 90.2789 0.0000 0.0000 0.0000
# 4 0.0000 0.0000 0.0000 23.0448 0.0000 0.0000
# 5 0.0000 0.0000 0.0000 0.0000 40.5080 0.0000
# 6 0.0000 0.0000 0.0000 0.0000 0.0000 21.1863
#
#
#
# Elastic Compliance Matrix: (Units=1/GPa)
#
#
# Indices 1 2 3 4 5 6 
#
# 1 0.012332 -0.000191 -0.005878 0.000000 0.000000 0.000000
# 2 -0.000191 0.012113 -0.002475 0.000000 0.000000 0.000000
# 3 -0.005878 -0.002475 0.014422 0.000000 0.000000 0.000000
# 4 0.000000 0.000000 0.000000 0.043394 0.000000 0.000000
# 5 0.000000 0.000000 0.000000 0.000000 0.024686 0.000000
# 6 0.000000 0.000000 0.000000 0.000000 0.000000 0.047200
#
#
# Mechanical properties :
#
#
# Convention : Reuss Voigt Hill
#
# Bulk Modulus (GPa) = 45.91229 47.18061 46.54645
# Shear Modulus (GPa) = 28.01216 30.67471 29.34344
#
# Velocity S-wave (km/s) = 3.76255 3.93731 3.85092
# Velocity P-wave (km/s) = 6.48683 6.67189 6.58001
#
# Compressibility (1/GPa) = 0.02178066
#
# Stress axis : x y z
#
# Youngs Moduli (GPa) = 81.09309 82.55278 69.33842
#
# Poissons Ratio (x) = 0.01574 0.40757
# Poissons Ratio (y) = 0.01546 0.17158
# Poissons Ratio (z) = 0.47666 0.20428
#
# Static dielectric constant tensor:
#      x y z
#    x 3.642120 0.000000 0.000000 
#    y 0.000000 3.808570 0.000000 
#    z 0.000000 0.000000 3.439480 
# 
# 
# High freq. dielectric constant tensor:
#      x y z
#    x 1.773340 0.000000 0.000000 
#    y 0.000000 1.776480 0.000000 
#    z 0.000000 0.000000 1.760310 
# 
# From -- ./inp_files/35364.got.cif
#   From: 2010.03.12/outbox.cif.g09.slc.cpg/sg74_18_cif.got.tgz:35364.got - 2010.04.16 15:46:19.
