data_PCOD8300871
_publ_section_title
;
Structure prediction by ZEFSAII (Michael W. Deem and Ramdas Pophale) SiO2 
 PCOD8300871
Probable space group: I M M A
;
_chemical_formula_sum "Si O2"
_cell_formula_units_Z 112
_cell_length_a 24.669158
_cell_length_b 15.355429
_cell_length_c 14.735579
_cell_angle_alpha 90.000000
_cell_angle_beta 90.000000
_cell_angle_gamma 90.000000
_cell_volume 5581.918432
_symmetry_space_group_name_H-M "I M M A"
_symmetry_group_IT_number 74
_symmetry_cell_setting 'orthorhombic'
loop_
_space_group_symop_operation_xyz
x,y,z
-x,1/2-y,z
x,-y,-z
-x,1/2+y,-z
-x,-y,-z
x,1/2+y,-z
-x,y,z
x,1/2-y,z
1/2+x,1/2+y,1/2+z
1/2-x,-y,1/2+z
1/2+x,1/2-y,1/2-z
1/2-x,y,1/2-z
1/2-x,1/2-y,1/2-z
1/2+x,y,1/2-z
1/2-x,1/2+y,1/2+z
1/2+x,-y,1/2+z
loop_
_atom_site_type_symbol
_atom_site_label
_atom_site_fract_x
_atom_site_fract_y
_atom_site_fract_z
Si Si1 0.441677 0.850838 0.990510
Si Si2 0.332178 0.555890 0.412441
Si Si3 0.439896 0.917856 0.186224
Si Si4 0.331299 0.648769 0.911328
Si Si5 0.560596 0.848628 0.378786
Si Si6 0.668350 0.001840 0.785455
Si Si7 0.274145 0.349419 0.898751
O O1 0.500000 0.895506 0.965312
O O2 0.446310 0.750000 0.971637
O O3 0.428062 0.863552 0.095886
O O4 0.392561 0.886127 0.929938
O O5 0.317268 0.500000 0.500000
O O6 0.393485 0.591058 0.423841
O O7 0.323497 0.496548 0.322725
O O8 0.290340 0.635914 0.404744
O O9 0.500000 0.960104 0.185076
O O10 0.433715 0.851376 0.269978
O O11 0.395866 0.993830 0.195304
O O12 0.328855 0.750000 0.881327
O O13 0.308643 0.586942 0.830986
O O14 0.297553 0.632202 0.001784
O O15 0.500000 0.880680 0.408058
O O16 0.569386 0.750000 0.411381
O O17 0.698646 0.086691 0.825360
O O18 0.285420 0.250000 0.868330
#
# Coordination Sequence:
#
# PCOD8300871 Si02
#       7
#    16  16  16  16  16  16  16
#     4   9  16  27  47  78 116 154 188 222 266 327
#     4  11  24  40  59  83 113 149 191 240 287 334
#     4   9  17  28  49  83 117 149 184 229 285 340
#     4  10  21  37  56  82 118 159 192 224 272 335
#     4   9  18  34  57  84 113 143 182 238 299 349
#     4  11  22  37  59  83 115 154 193 234 281 338
#     4  11  23  39  62  90 117 143 179 232 294 353
#
# _framework density 20.064786000000002
#
# number of rings (size 3 to 8) (size 9 to 14) (size 15 to 20)
#    0.000    2.000    1.429    2.571    0.000    6.000 
#    0.000    2.857    0.000    3.429    0.000    2.000 
#    0.000    0.000    0.000    0.000    0.000    0.000 
#
# Total GULP energy -694074.114204 kJ/mol
# GULP energy per Si atom -12394.180611 kJ/mol
# Density = 2.001912 g / cm^3
# Si number density = 20.064786 Si / 1000 Ang^3
#
#
#
# Elastic Constant Matrix: (Units=GPa)
#
#
# Indices 1 2 3 4 5 6 
#
# 1 98.5936 38.7351 37.3413 0.0000 0.0000 0.0000
# 2 38.7351 73.4740 44.9331 0.0000 0.0000 0.0000
# 3 37.3413 44.9331 89.0018 0.0000 0.0000 0.0000
# 4 0.0000 0.0000 0.0000 14.2256 0.0000 0.0000
# 5 0.0000 0.0000 0.0000 0.0000 12.6669 0.0000
# 6 0.0000 0.0000 0.0000 0.0000 0.0000 17.2062
#
#
#
# Elastic Compliance Matrix: (Units=1/GPa)
#
#
# Indices 1 2 3 4 5 6 
#
# 1 0.013308 -0.005210 -0.002953 0.000000 0.000000 0.000000
# 2 -0.005210 0.021729 -0.008784 0.000000 0.000000 0.000000
# 3 -0.002953 -0.008784 0.016909 0.000000 0.000000 0.000000
# 4 0.000000 0.000000 0.000000 0.070296 0.000000 0.000000
# 5 0.000000 0.000000 0.000000 0.000000 0.078946 0.000000
# 6 0.000000 0.000000 0.000000 0.000000 0.000000 0.058119
#
#
# Mechanical properties :
#
#
# Convention : Reuss Voigt Hill
#
# Bulk Modulus (GPa) = 55.39581 55.89874 55.64728
# Shear Modulus (GPa) = 16.71020 18.15705 17.43363
#
# Velocity S-wave (km/s) = 2.88898 3.01145 2.95085
# Velocity P-wave (km/s) = 6.22870 6.32546 6.27726
#
# Compressibility (1/GPa) = 0.01805191
#
# Stress axis : x y z
#
# Youngs Moduli (GPa) = 75.14291 46.02187 59.13844
#
# Poissons Ratio (x) = 0.23977 0.17465
# Poissons Ratio (y) = 0.39148 0.51948
# Poissons Ratio (z) = 0.22191 0.40426
#
# Static dielectric constant tensor:
#      x y z
#    x 4.297880 0.000000 0.000000 
#    y 0.000000 3.299170 0.000000 
#    z 0.000000 0.000000 3.381340 
# 
# 
# High freq. dielectric constant tensor:
#      x y z
#    x 1.805610 0.000000 0.000000 
#    y 0.000000 1.759640 0.000000 
#    z 0.000000 0.000000 1.757980 
# 
# From -- ./inp_files/32718.got.cif
#   From: 2010.03.12/outbox.cif.g09.slc.cpg/sg74_17_cif.got.tgz:32718.got - 2010.04.16 15:46:19.
