data_PCOD8300851
_publ_section_title
;
Structure prediction by ZEFSAII (Michael W. Deem and Ramdas Pophale) SiO2 
 PCOD8300851
Probable space group: I M M A
;
_chemical_formula_sum "Si O2"
_cell_formula_units_Z 72
_cell_length_a 13.096901
_cell_length_b 8.756749
_cell_length_c 31.898021
_cell_angle_alpha 90.000000
_cell_angle_beta 90.000000
_cell_angle_gamma 90.000000
_cell_volume 3658.265200
_symmetry_space_group_name_H-M "I M M A"
_symmetry_group_IT_number 74
_symmetry_cell_setting 'orthorhombic'
loop_
_space_group_symop_operation_xyz
x,y,z
-x,1/2-y,z
x,-y,-z
-x,1/2+y,-z
-x,-y,-z
x,1/2+y,-z
-x,y,z
x,1/2-y,z
1/2+x,1/2+y,1/2+z
1/2-x,-y,1/2+z
1/2+x,1/2-y,1/2-z
1/2-x,y,1/2-z
1/2-x,1/2-y,1/2-z
1/2+x,y,1/2-z
1/2-x,1/2+y,1/2+z
1/2+x,-y,1/2+z
loop_
_atom_site_type_symbol
_atom_site_label
_atom_site_fract_x
_atom_site_fract_y
_atom_site_fract_z
Si Si1 0.885155 0.570309 0.544458
Si Si2 0.805366 0.430421 0.099012
Si Si3 0.797027 0.570402 0.188477
Si Si4 0.000000 0.570967 0.954664
Si Si5 0.884833 0.925712 0.732229
O O1 0.854999 0.500000 0.500000
O O2 0.879272 0.750000 0.538894
O O3 0.802410 0.516445 0.578761
O O4 0.000000 0.519328 0.558185
O O5 0.806191 0.250000 0.107638
O O6 0.822781 0.518956 0.141926
O O7 0.898247 0.482019 0.069427
O O8 0.811890 0.750000 0.193033
O O9 0.873429 0.486366 0.220426
O O10 0.681547 0.524467 0.200040
O O11 0.000000 0.750000 0.960137
O O12 0.000000 0.500000 0.000000
O O13 0.849526 0.750000 0.730477
O O14 0.000000 0.943931 0.717098
#
# Coordination Sequence:
#
# PCOD8300851 Si02
#       5
#    16  16  16   8  16
#     4   9  18  33  54  78 105 139 179 227 280 336
#     4  10  21  37  55  79 112 149 192 233 280 346
#     4  11  23  37  56  86 118 147 186 237 288 337
#     4  10  22  38  58  82 112 152 194 244 294 344
#     4  10  21  39  63  84 110 151 191 231 282 346
#
# _framework density 19.681460000000001
#
# number of rings (size 3 to 8) (size 9 to 14) (size 15 to 20)
#    0.000    2.000    0.000    4.667    1.556    4.444 
#    0.000    2.222    0.000    0.000    0.000    0.000 
#    0.000    0.000    0.000    0.000    0.000    0.000 
#
# Total GULP energy -446446.678888 kJ/mol
# GULP energy per Si atom -12401.296636 kJ/mol
# Density = 1.963666 g / cm^3
# Si number density = 19.681460 Si / 1000 Ang^3
#
#
#
# Elastic Constant Matrix: (Units=GPa)
#
#
# Indices 1 2 3 4 5 6 
#
# 1 100.6980 11.2029 31.5325 0.0000 0.0000 0.0000
# 2 11.2029 47.0767 24.1894 0.0000 0.0000 0.0000
# 3 31.5325 24.1894 117.3536 0.0000 0.0000 0.0000
# 4 0.0000 0.0000 0.0000 37.7176 0.0000 0.0000
# 5 0.0000 0.0000 0.0000 0.0000 12.9354 0.0000
# 6 0.0000 0.0000 0.0000 0.0000 0.0000 18.3730
#
#
#
# Elastic Compliance Matrix: (Units=1/GPa)
#
#
# Indices 1 2 3 4 5 6 
#
# 1 0.010905 -0.001219 -0.002679 0.000000 0.000000 0.000000
# 2 -0.001219 0.023894 -0.004598 0.000000 0.000000 0.000000
# 3 -0.002679 -0.004598 0.010189 0.000000 0.000000 0.000000
# 4 0.000000 0.000000 0.000000 0.026513 0.000000 0.000000
# 5 0.000000 0.000000 0.000000 0.000000 0.077307 0.000000
# 6 0.000000 0.000000 0.000000 0.000000 0.000000 0.054428
#
#
# Mechanical properties :
#
#
# Convention : Reuss Voigt Hill
#
# Bulk Modulus (GPa) = 35.71725 44.33086 40.02405
# Shear Modulus (GPa) = 21.78086 27.01877 24.39982
#
# Velocity S-wave (km/s) = 3.33027 3.70916 3.52481
# Velocity P-wave (km/s) = 5.74236 6.39663 6.07830
#
# Compressibility (1/GPa) = 0.02799768
#
# Stress axis : x y z
#
# Youngs Moduli (GPa) = 91.69978 41.85079 98.14686
#
# Poissons Ratio (x) = 0.05100 0.26294
# Poissons Ratio (y) = 0.11174 0.45126
# Poissons Ratio (z) = 0.24566 0.19242
#
# Static dielectric constant tensor:
#      x y z
#    x 3.879230 0.000000 0.000000 
#    y 0.000000 3.584930 0.000000 
#    z 0.000000 0.000000 3.493020 
# 
# 
# High freq. dielectric constant tensor:
#      x y z
#    x 1.779770 0.000000 0.000000 
#    y 0.000000 1.762350 0.000000 
#    z 0.000000 0.000000 1.764050 
# 
# From -- ./inp_files/66738.got.cif
#   From: 2010.03.12/outbox.cif.g09.slc.cpg/sg74_34_cif.got.tgz:66738.got - 2010.04.16 15:46:19.
