data_PCOD8300507
_publ_section_title
;
Structure prediction by ZEFSAII (Michael W. Deem and Ramdas Pophale) SiO2 
 PCOD8300507
Probable space group: I M M A
;
_chemical_formula_sum "Si O2"
_cell_formula_units_Z 112
_cell_length_a 25.543327
_cell_length_b 13.578349
_cell_length_c 15.842425
_cell_angle_alpha 90.000000
_cell_angle_beta 90.000000
_cell_angle_gamma 90.000000
_cell_volume 5494.726622
_symmetry_space_group_name_H-M "I M M A"
_symmetry_group_IT_number 74
_symmetry_cell_setting 'orthorhombic'
loop_
_space_group_symop_operation_xyz
x,y,z
-x,1/2-y,z
x,-y,-z
-x,1/2+y,-z
-x,-y,-z
x,1/2+y,-z
-x,y,z
x,1/2-y,z
1/2+x,1/2+y,1/2+z
1/2-x,-y,1/2+z
1/2+x,1/2-y,1/2-z
1/2-x,y,1/2-z
1/2-x,1/2-y,1/2-z
1/2+x,y,1/2-z
1/2-x,1/2+y,1/2+z
1/2+x,-y,1/2+z
loop_
_atom_site_type_symbol
_atom_site_label
_atom_site_fract_x
_atom_site_fract_y
_atom_site_fract_z
Si Si1 0.303482 0.141616 0.395370
Si Si2 0.252444 0.547104 0.348853
Si Si3 0.940720 0.026606 0.831660
Si Si4 0.879294 0.362863 0.259269
Si Si5 0.853398 0.862851 0.070709
Si Si6 0.354859 0.013063 0.902742
Si Si7 0.441245 0.859029 0.165279
O O1 0.278322 0.250000 0.408484
O O2 0.331389 0.135503 0.305379
O O3 0.344140 0.119546 0.471169
O O4 0.258652 0.059545 0.394524
O O5 0.250000 0.537311 0.250000
O O6 0.299320 0.618348 0.378111
O O7 0.194306 0.581214 0.374371
O O8 0.898987 0.060475 0.902722
O O9 0.938030 0.112183 0.762909
O O10 0.000000 0.017259 0.868838
O O11 0.926065 0.923521 0.786001
O O12 0.897404 0.250000 0.276950
O O13 0.860100 0.413243 0.346520
O O14 0.870601 0.750000 0.087499
O O15 0.408089 0.072050 0.894435
O O16 0.345939 0.000000 0.000000
O O17 0.500000 0.866272 0.131108
O O18 0.418637 0.750000 0.157926
#
# Coordination Sequence:
#
# PCOD8300507 Si02
#       7
#    16  16  16  16  16  16  16
#     4  10  21  39  62  83 117 166 210 251 304 370
#     4  12  22  39  61  86 122 162 207 257 312 370
#     4  10  20  37  63  92 122 160 206 256 303 359
#     4  10  21  40  62  87 121 163 206 251 308 370
#     4  11  23  38  59  89 125 166 209 258 313 363
#     4  11  23  37  59  93 123 154 202 259 309 368
#     4   9  19  38  61  83 115 157 197 242 302 368
#
# _framework density 20.383178999999998
#
# number of rings (size 3 to 8) (size 9 to 14) (size 15 to 20)
#    0.000    1.571    2.857    2.571    0.000    3.714 
#    0.000    1.429    0.000    2.571    0.000    0.000 
#    0.000    0.000    0.000    0.000    0.000    0.000 
#
# Total GULP energy -694092.313784 kJ/mol
# GULP energy per Si atom -12394.505603 kJ/mol
# Density = 2.033679 g / cm^3
# Si number density = 20.383179 Si / 1000 Ang^3
#
#
#
# Elastic Constant Matrix: (Units=GPa)
#
#
# Indices 1 2 3 4 5 6 
#
# 1 83.7421 36.1557 32.1285 0.0000 0.0000 0.0000
# 2 36.1557 100.2979 40.4168 0.0000 0.0000 0.0000
# 3 32.1285 40.4168 107.3032 0.0000 0.0000 0.0000
# 4 0.0000 0.0000 0.0000 17.0692 0.0000 0.0000
# 5 0.0000 0.0000 0.0000 0.0000 22.8914 0.0000
# 6 0.0000 0.0000 0.0000 0.0000 0.0000 19.5200
#
#
#
# Elastic Compliance Matrix: (Units=1/GPa)
#
#
# Indices 1 2 3 4 5 6 
#
# 1 0.014854 -0.004200 -0.002866 0.000000 0.000000 0.000000
# 2 -0.004200 0.012942 -0.003617 0.000000 0.000000 0.000000
# 3 -0.002866 -0.003617 0.011540 0.000000 0.000000 0.000000
# 4 0.000000 0.000000 0.000000 0.058585 0.000000 0.000000
# 5 0.000000 0.000000 0.000000 0.000000 0.043685 0.000000
# 6 0.000000 0.000000 0.000000 0.000000 0.000000 0.051230
#
#
# Mechanical properties :
#
#
# Convention : Reuss Voigt Hill
#
# Bulk Modulus (GPa) = 55.64690 56.52723 56.08707
# Shear Modulus (GPa) = 22.70758 24.07226 23.38992
#
# Velocity S-wave (km/s) = 3.34134 3.44028 3.39117
# Velocity P-wave (km/s) = 6.49967 6.60100 6.55053
#
# Compressibility (1/GPa) = 0.01797045
#
# Stress axis : x y z
#
# Youngs Moduli (GPa) = 67.32107 77.26837 86.65615
#
# Poissons Ratio (x) = 0.32452 0.24833
# Poissons Ratio (y) = 0.28274 0.31345
# Poissons Ratio (z) = 0.19292 0.27949
#
# Static dielectric constant tensor:
#      x y z
#    x 3.847210 0.000000 0.000000 
#    y 0.000000 3.922750 0.000000 
#    z 0.000000 0.000000 3.630190 
# 
# 
# High freq. dielectric constant tensor:
#      x y z
#    x 1.789670 0.000000 0.000000 
#    y 0.000000 1.796390 0.000000 
#    z 0.000000 0.000000 1.795280 
# 
# From -- ./inp_files/36543.got.cif
#   From: 2010.03.12/outbox.cif.g09.slc.cpg/sg74_19_cif.got.tgz:36543.got - 2010.04.16 15:46:19.
