data_PCOD8300270
_publ_section_title
;
Structure prediction by ZEFSAII (Michael W. Deem and Ramdas Pophale) SiO2 
 PCOD8300270
Probable space group: I M M A
;
_chemical_formula_sum "Si O2"
_cell_formula_units_Z 112
_cell_length_a 23.276589
_cell_length_b 17.886166
_cell_length_c 13.572013
_cell_angle_alpha 90.000000
_cell_angle_beta 90.000000
_cell_angle_gamma 90.000000
_cell_volume 5650.421715
_symmetry_space_group_name_H-M "I M M A"
_symmetry_group_IT_number 74
_symmetry_cell_setting 'orthorhombic'
loop_
_space_group_symop_operation_xyz
x,y,z
-x,1/2-y,z
x,-y,-z
-x,1/2+y,-z
-x,-y,-z
x,1/2+y,-z
-x,y,z
x,1/2-y,z
1/2+x,1/2+y,1/2+z
1/2-x,-y,1/2+z
1/2+x,1/2-y,1/2-z
1/2-x,y,1/2-z
1/2-x,1/2-y,1/2-z
1/2+x,y,1/2-z
1/2-x,1/2+y,1/2+z
1/2+x,-y,1/2+z
loop_
_atom_site_type_symbol
_atom_site_label
_atom_site_fract_x
_atom_site_fract_y
_atom_site_fract_z
Si Si1 0.060513 0.038168 0.599943
Si Si2 0.639129 0.836665 0.110842
Si Si3 0.285568 0.664687 0.923481
Si Si4 0.333200 0.164422 0.509950
Si Si5 0.433476 0.663187 0.635560
Si Si6 0.641203 0.065864 0.222412
Si Si7 0.812686 0.420224 0.791140
O O1 0.082101 0.121754 0.573572
O O2 0.000000 0.043028 0.660760
O O3 0.044621 0.000000 0.500000
O O4 0.109122 0.989976 0.650565
O O5 0.626283 0.750000 0.121696
O O6 0.648581 0.871077 0.218722
O O7 0.690162 0.852894 0.032872
O O8 0.299626 0.750000 0.894335
O O9 0.216736 0.651072 0.927800
O O10 0.312578 0.613524 0.838839
O O11 0.329475 0.250000 0.547661
O O12 0.395554 0.147935 0.462207
O O13 0.322584 0.108802 0.599197
O O14 0.500000 0.638736 0.617489
O O15 0.430525 0.750000 0.664620
O O16 0.405749 0.617600 0.725132
O O17 0.673891 0.009228 0.296352
O O18 0.750000 0.406149 0.750000
#
# Coordination Sequence:
#
# PCOD8300270 Si02
#       7
#    16  16  16  16  16  16  16
#     4  10  20  36  55  80 119 161 198 249 305 357
#     4  10  20  36  59  87 118 158 205 252 303 365
#     4  10  20  36  61  89 125 160 198 255 311 368
#     4  10  22  41  64  91 122 162 211 260 310 368
#     4  10  23  45  69  91 121 164 214 262 307 363
#     4  11  23  38  59  92 124 164 202 253 308 377
#     4  11  23  37  59  92 124 164 200 247 311 378
#
# _framework density 19.821529000000002
#
# number of rings (size 3 to 8) (size 9 to 14) (size 15 to 20)
#    0.000    1.714    2.857    1.286    2.000    1.429 
#    0.000    6.429    0.000    3.429    0.000    0.000 
#    0.000    0.000    0.000    0.000    0.000    0.000 
#
# Total GULP energy -694090.171414 kJ/mol
# GULP energy per Si atom -12394.467347 kJ/mol
# Density = 1.977641 g / cm^3
# Si number density = 19.821529 Si / 1000 Ang^3
#
#
#
# Elastic Constant Matrix: (Units=GPa)
#
#
# Indices 1 2 3 4 5 6 
#
# 1 128.0456 61.2836 45.7075 0.0000 0.0000 0.0000
# 2 61.2836 126.1375 55.9532 0.0000 0.0000 0.0000
# 3 45.7075 55.9532 78.7494 0.0000 0.0000 0.0000
# 4 0.0000 0.0000 0.0000 31.2765 0.0000 0.0000
# 5 0.0000 0.0000 0.0000 0.0000 21.4220 0.0000
# 6 0.0000 0.0000 0.0000 0.0000 0.0000 16.6675
#
#
#
# Elastic Compliance Matrix: (Units=1/GPa)
#
#
# Indices 1 2 3 4 5 6 
#
# 1 0.010880 -0.003628 -0.003737 0.000000 0.000000 0.000000
# 2 -0.003628 0.012787 -0.006979 0.000000 0.000000 0.000000
# 3 -0.003737 -0.006979 0.019826 0.000000 0.000000 0.000000
# 4 0.000000 0.000000 0.000000 0.031973 0.000000 0.000000
# 5 0.000000 0.000000 0.000000 0.000000 0.046681 0.000000
# 6 0.000000 0.000000 0.000000 0.000000 0.000000 0.059997
#
#
# Mechanical properties :
#
#
# Convention : Reuss Voigt Hill
#
# Bulk Modulus (GPa) = 67.54914 73.20236 70.37575
# Shear Modulus (GPa) = 23.17302 25.20574 24.18938
#
# Velocity S-wave (km/s) = 3.42290 3.56987 3.49715
# Velocity P-wave (km/s) = 7.05509 7.34866 7.20337
#
# Compressibility (1/GPa) = 0.01480404
#
# Stress axis : x y z
#
# Youngs Moduli (GPa) = 91.90920 78.20675 50.43787
#
# Poissons Ratio (x) = 0.28377 0.18849
# Poissons Ratio (y) = 0.33349 0.35201
# Poissons Ratio (z) = 0.34347 0.54582
#
# Static dielectric constant tensor:
#      x y z
#    x 3.952220 0.000000 0.000000 
#    y 0.000000 3.936380 0.000000 
#    z 0.000000 0.000000 4.253700 
# 
# 
# High freq. dielectric constant tensor:
#      x y z
#    x 1.779850 0.000000 0.000000 
#    y 0.000000 1.783790 0.000000 
#    z 0.000000 0.000000 1.757000 
# 
# From -- ./inp_files/36523.got.cif
#   From: 2010.03.12/outbox.cif.g09.slc.cpg/sg74_19_cif.got.tgz:36523.got - 2010.04.16 15:46:19.
