data_PCOD8300385
_publ_section_title
;
Structure prediction by ZEFSAII (Michael W. Deem and Ramdas Pophale) SiO2 
 PCOD8300385
Probable space group: I M M A
;
_chemical_formula_sum "Si O2"
_cell_formula_units_Z 96
_cell_length_a 18.553856
_cell_length_b 18.647792
_cell_length_c 13.803521
_cell_angle_alpha 90.000000
_cell_angle_beta 90.000000
_cell_angle_gamma 90.000000
_cell_volume 4775.858801
_symmetry_space_group_name_H-M "I M M A"
_symmetry_group_IT_number 74
_symmetry_cell_setting 'orthorhombic'
loop_
_space_group_symop_operation_xyz
x,y,z
-x,1/2-y,z
x,-y,-z
-x,1/2+y,-z
-x,-y,-z
x,1/2+y,-z
-x,y,z
x,1/2-y,z
1/2+x,1/2+y,1/2+z
1/2-x,-y,1/2+z
1/2+x,1/2-y,1/2-z
1/2-x,y,1/2-z
1/2-x,1/2-y,1/2-z
1/2+x,y,1/2-z
1/2-x,1/2+y,1/2+z
1/2+x,-y,1/2+z
loop_
_atom_site_type_symbol
_atom_site_label
_atom_site_fract_x
_atom_site_fract_y
_atom_site_fract_z
Si Si1 0.300710 0.333149 0.836404
Si Si2 0.916687 0.330093 0.918204
Si Si3 0.291294 0.670908 0.945982
Si Si4 0.866240 0.828495 0.876483
Si Si5 0.167766 0.929456 0.715516
Si Si6 0.585492 0.923591 0.239433
O O1 0.309590 0.250000 0.818139
O O2 0.250000 0.365489 0.750000
O O3 0.381269 0.366213 0.835173
O O4 0.270374 0.351232 0.943703
O O5 0.879408 0.250000 0.903503
O O6 0.890601 0.391618 0.844445
O O7 0.000000 0.318414 0.900703
O O8 0.901549 0.359631 0.025653
O O9 0.329947 0.750000 0.945434
O O10 0.218868 0.678919 0.886011
O O11 0.336769 0.609426 0.890079
O O12 0.899661 0.750000 0.853736
O O13 0.880394 0.881771 0.788434
O O14 0.250000 0.942059 0.750000
O O15 0.125685 0.003492 0.713640
O O16 0.500000 0.931586 0.226300
#
# Coordination Sequence:
#
# PCOD8300385 Si02
#       6
#    16  16  16  16  16  16
#     4  10  20  36  60  86 109 135 175 227 278 326
#     4   9  18  33  54  80 108 138 174 219 273 331
#     4   9  18  34  57  82 105 134 178 228 271 317
#     4   9  17  32  56  82 107 137 174 219 271 324
#     4  10  21  36  54  78 110 146 181 217 262 320
#     4  11  23  37  53  76 110 147 182 222 270 324
#
# _framework density 20.101096999999999
#
# number of rings (size 3 to 8) (size 9 to 14) (size 15 to 20)
#    0.000    2.333    0.000    2.500    0.000    7.667 
#    0.000    6.667    0.000    2.500    0.000    0.000 
#    0.000    0.000    0.000    0.000    0.000    0.000 
#
# Total GULP energy -594693.226888 kJ/mol
# GULP energy per Si atom -12389.442227 kJ/mol
# Density = 2.005535 g / cm^3
# Si number density = 20.101097 Si / 1000 Ang^3
#
#
#
# Elastic Constant Matrix: (Units=GPa)
#
#
# Indices 1 2 3 4 5 6 
#
# 1 54.7872 37.1896 22.5683 0.0000 0.0000 0.0000
# 2 37.1896 94.0581 60.9004 0.0000 0.0000 0.0000
# 3 22.5683 60.9004 114.1614 0.0000 0.0000 0.0000
# 4 0.0000 0.0000 0.0000 50.9673 0.0000 0.0000
# 5 0.0000 0.0000 0.0000 0.0000 26.1006 0.0000
# 6 0.0000 0.0000 0.0000 0.0000 0.0000 13.0584
#
#
#
# Elastic Compliance Matrix: (Units=1/GPa)
#
#
# Indices 1 2 3 4 5 6 
#
# 1 0.024967 -0.010199 0.000505 0.000000 0.000000 0.000000
# 2 -0.010199 0.020408 -0.008870 0.000000 0.000000 0.000000
# 3 0.000505 -0.008870 0.013392 0.000000 0.000000 0.000000
# 4 0.000000 0.000000 0.000000 0.019620 0.000000 0.000000
# 5 0.000000 0.000000 0.000000 0.000000 0.038313 0.000000
# 6 0.000000 0.000000 0.000000 0.000000 0.000000 0.076579
#
#
# Mechanical properties :
#
#
# Convention : Reuss Voigt Hill
#
# Bulk Modulus (GPa) = 46.21482 56.03593 51.12537
# Shear Modulus (GPa) = 21.04194 27.51517 24.27856
#
# Velocity S-wave (km/s) = 3.23895 3.70380 3.47914
# Velocity P-wave (km/s) = 6.08513 6.79915 6.45202
#
# Compressibility (1/GPa) = 0.02163808
#
# Stress axis : x y z
#
# Youngs Moduli (GPa) = 40.05226 49.00127 74.67283
#
# Poissons Ratio (x) = 0.49975 -0.03770
# Poissons Ratio (y) = 0.40848 0.66238
# Poissons Ratio (z) = -0.02022 0.43466
#
# Static dielectric constant tensor:
#      x y z
#    x 3.455800 0.000000 0.000000 
#    y 0.000000 3.826640 0.000000 
#    z 0.000000 0.000000 3.766790 
# 
# 
# High freq. dielectric constant tensor:
#      x y z
#    x 1.754770 0.000000 0.000000 
#    y 0.000000 1.782950 0.000000 
#    z 0.000000 0.000000 1.781470 
# 
# From -- ./inp_files/25171.got.cif
#   From: 2010.03.12/outbox.cif.g09.slc.cpg/sg74_13_cif.got.tgz:25171.got - 2010.04.16 15:46:19.
