data_PCOD8300940
_publ_section_title
;
Structure prediction by ZEFSAII (Michael W. Deem and Ramdas Pophale) SiO2 
 PCOD8300940
Probable space group: I M M A
;
_chemical_formula_sum "Si O2"
_cell_formula_units_Z 88
_cell_length_a 10.660741
_cell_length_b 13.908073
_cell_length_c 28.075713
_cell_angle_alpha 90.000000
_cell_angle_beta 90.000000
_cell_angle_gamma 90.000000
_cell_volume 4162.796188
_symmetry_space_group_name_H-M "I M M A"
_symmetry_group_IT_number 74
_symmetry_cell_setting 'orthorhombic'
loop_
_space_group_symop_operation_xyz
x,y,z
-x,1/2-y,z
x,-y,-z
-x,1/2+y,-z
-x,-y,-z
x,1/2+y,-z
-x,y,z
x,1/2-y,z
1/2+x,1/2+y,1/2+z
1/2-x,-y,1/2+z
1/2+x,1/2-y,1/2-z
1/2-x,y,1/2-z
1/2-x,1/2-y,1/2-z
1/2+x,y,1/2-z
1/2-x,1/2+y,1/2+z
1/2+x,-y,1/2+z
loop_
_atom_site_type_symbol
_atom_site_label
_atom_site_fract_x
_atom_site_fract_y
_atom_site_fract_z
Si Si1 0.639476 0.643205 0.683264
Si Si2 0.647295 0.856624 0.169527
Si Si3 0.859146 0.443338 0.569748
Si Si4 0.640851 0.141471 0.507422
Si Si5 0.750000 0.506224 0.250000
Si Si6 0.276200 0.643359 0.913627
O O1 0.500000 0.636983 0.662694
O O2 0.665517 0.750000 0.704419
O O3 0.651250 0.563716 0.724402
O O4 0.731248 0.622414 0.639681
O O5 0.500000 0.848367 0.169240
O O6 0.706678 0.750000 0.176865
O O7 0.691459 0.897784 0.118779
O O8 0.684228 0.926556 0.211829
O O9 0.752929 0.419774 0.530938
O O10 0.873786 0.558834 0.574216
O O11 0.000000 0.405344 0.555904
O O12 0.500000 0.101183 0.518702
O O13 0.651487 0.250000 0.526765
O O14 0.659905 0.138683 0.450482
O O15 0.339283 0.750000 0.916851
#
# Coordination Sequence:
#
# PCOD8300940 Si02
#       6
#    16  16  16  16   8  16
#     4  10  21  37  59  88 122 160 201 249 309 370
#     4  10  22  40  60  85 120 159 200 251 310 365
#     4  11  23  41  63  90 126 167 206 250 308 368
#     4  10  22  40  64  94 126 163 207 252 300 361
#     4  12  20  38  62  88 114 154 206 260 304 362
#     4  10  21  39  61  89 125 161 199 250 307 364
#
# _framework density 21.139637
#
# number of rings (size 3 to 8) (size 9 to 14) (size 15 to 20)
#    0.000    1.636    1.818    2.727    0.000    7.273 
#    0.000    1.818    0.000    3.273    0.000    0.000 
#    0.000    0.000    0.000    0.000    0.000    0.000 
#
# Total GULP energy -545275.039231 kJ/mol
# GULP energy per Si atom -12392.614528 kJ/mol
# Density = 2.109152 g / cm^3
# Si number density = 21.139637 Si / 1000 Ang^3
#
#
#
# Elastic Constant Matrix: (Units=GPa)
#
#
# Indices 1 2 3 4 5 6 
#
# 1 75.9744 25.8385 28.2394 0.0000 0.0000 0.0000
# 2 25.8385 149.6274 45.5915 0.0000 0.0000 0.0000
# 3 28.2394 45.5915 106.3920 0.0000 0.0000 0.0000
# 4 0.0000 0.0000 0.0000 39.4363 0.0000 0.0000
# 5 0.0000 0.0000 0.0000 0.0000 23.0394 0.0000
# 6 0.0000 0.0000 0.0000 0.0000 0.0000 20.6108
#
#
#
# Elastic Compliance Matrix: (Units=1/GPa)
#
#
# Indices 1 2 3 4 5 6 
#
# 1 0.014919 -0.001575 -0.003285 0.000000 0.000000 0.000000
# 2 -0.001575 0.007853 -0.002947 0.000000 0.000000 0.000000
# 3 -0.003285 -0.002947 0.011534 0.000000 0.000000 0.000000
# 4 0.000000 0.000000 0.000000 0.025357 0.000000 0.000000
# 5 0.000000 0.000000 0.000000 0.000000 0.043404 0.000000
# 6 0.000000 0.000000 0.000000 0.000000 0.000000 0.048518
#
#
# Mechanical properties :
#
#
# Convention : Reuss Voigt Hill
#
# Bulk Modulus (GPa) = 53.50005 59.03694 56.26849
# Shear Modulus (GPa) = 28.82982 32.10558 30.46770
#
# Velocity S-wave (km/s) = 3.69695 3.90133 3.80051
# Velocity P-wave (km/s) = 6.60198 6.94849 6.77745
#
# Compressibility (1/GPa) = 0.01869157
#
# Stress axis : x y z
#
# Youngs Moduli (GPa) = 67.02827 127.33464 86.70003
#
# Poissons Ratio (x) = 0.20061 0.28480
# Poissons Ratio (y) = 0.10560 0.25552
# Poissons Ratio (z) = 0.22018 0.37528
#
# Static dielectric constant tensor:
#      x y z
#    x 3.465560 0.000000 0.000000 
#    y 0.000000 4.269500 0.000000 
#    z 0.000000 0.000000 3.846400 
# 
# 
# High freq. dielectric constant tensor:
#      x y z
#    x 1.801980 0.000000 0.000000 
#    y 0.000000 1.851440 0.000000 
#    z 0.000000 0.000000 1.827780 
# 
# From -- ./inp_files/65930.got.cif
#   From: 2010.03.12/outbox.cif.g09.slc.cpg/sg74_33_cif.got.tgz:65930.got - 2010.04.16 15:46:19.
