data_PCOD8300843
_publ_section_title
;
Structure prediction by ZEFSAII (Michael W. Deem and Ramdas Pophale) SiO2 
 PCOD8300843
Probable space group: I M M A
;
_chemical_formula_sum "Si O2"
_cell_formula_units_Z 88
_cell_length_a 12.321482
_cell_length_b 22.588390
_cell_length_c 17.041444
_cell_angle_alpha 90.000000
_cell_angle_beta 90.000000
_cell_angle_gamma 90.000000
_cell_volume 4743.016289
_symmetry_space_group_name_H-M "I M M A"
_symmetry_group_IT_number 74
_symmetry_cell_setting 'orthorhombic'
loop_
_space_group_symop_operation_xyz
x,y,z
-x,1/2-y,z
x,-y,-z
-x,1/2+y,-z
-x,-y,-z
x,1/2+y,-z
-x,y,z
x,1/2-y,z
1/2+x,1/2+y,1/2+z
1/2-x,-y,1/2+z
1/2+x,1/2-y,1/2-z
1/2-x,y,1/2-z
1/2-x,1/2-y,1/2-z
1/2+x,y,1/2-z
1/2-x,1/2+y,1/2+z
1/2+x,-y,1/2+z
loop_
_atom_site_type_symbol
_atom_site_label
_atom_site_fract_x
_atom_site_fract_y
_atom_site_fract_z
Si Si1 0.250000 0.852980 0.250000
Si Si2 0.872086 0.250000 0.970780
Si Si3 0.735973 0.427524 0.897442
Si Si4 0.377973 0.750000 0.296037
Si Si5 0.230136 0.060978 0.341841
Si Si6 0.000000 0.568824 0.427182
Si Si7 0.000000 0.442083 0.388862
Si Si8 0.629903 0.875886 0.536225
O O1 0.219071 0.894314 0.177872
O O2 0.351428 0.807818 0.243670
O O3 0.835912 0.191920 0.019179
O O4 0.000000 0.250000 0.963091
O O5 0.819123 0.250000 0.882711
O O6 0.735182 0.497844 0.885225
O O7 0.614962 0.399288 0.909963
O O8 0.816691 0.416598 0.969389
O O9 0.500000 0.750000 0.318427
O O10 0.250000 0.054416 0.250000
O O11 0.108858 0.088077 0.354111
O O12 0.319437 0.104625 0.380097
O O13 0.000000 0.511943 0.369001
O O14 0.000000 0.557546 0.518506
O O15 0.500000 0.885146 0.537510
#
# Coordination Sequence:
#
# PCOD8300843 Si02
#       8
#     8   8  16   8  16   8   8  16
#     4  11  22  34  56  88 118 157 198 236 282 341
#     4   9  19  39  60  78 108 157 201 236 295 347
#     4  11  21  38  57  86 121 157 193 232 291 351
#     4  10  21  37  54  80 121 161 196 240 282 333
#     4  11  23  38  58  89 120 149 191 240 297 352
#     4   9  18  34  56  76 109 159 193 218 276 356
#     4   9  18  36  56  76 112 158 182 223 284 351
#     4  11  23  40  63  86 115 154 198 247 291 347
#
# _framework density 18.553592999999999
#
# number of rings (size 3 to 8) (size 9 to 14) (size 15 to 20)
#    0.000    1.636    4.545    0.545    2.545    1.455 
#    0.000    0.455    0.000    1.636    0.000    0.000 
#    0.000    0.000    0.000    0.000    0.000    0.000 
#
# Total GULP energy -545121.693174 kJ/mol
# GULP energy per Si atom -12389.129390 kJ/mol
# Density = 1.851136 g / cm^3
# Si number density = 18.553593 Si / 1000 Ang^3
#
#
#
# Elastic Constant Matrix: (Units=GPa)
#
#
# Indices 1 2 3 4 5 6 
#
# 1 113.1129 25.7038 37.2412 0.0001 0.0000 0.0000
# 2 25.7038 75.2518 26.1156 0.0000 0.0000 0.0000
# 3 37.2412 26.1156 87.6752 -0.0001 0.0000 0.0000
# 4 0.0001 0.0000 -0.0001 23.6052 0.0000 0.0000
# 5 0.0000 0.0000 0.0000 0.0000 19.0073 0.0000
# 6 0.0000 0.0000 0.0000 0.0000 0.0000 19.2935
#
#
#
# Elastic Compliance Matrix: (Units=1/GPa)
#
#
# Indices 1 2 3 4 5 6 
#
# 1 0.010624 -0.002300 -0.003827 0.000000 0.000000 0.000000
# 2 -0.002300 0.015319 -0.003586 0.000000 0.000000 0.000000
# 3 -0.003827 -0.003586 0.014100 0.000000 0.000000 0.000000
# 4 0.000000 0.000000 0.000000 0.042364 0.000000 0.000000
# 5 0.000000 0.000000 0.000000 0.000000 0.052611 0.000000
# 6 0.000000 0.000000 0.000000 0.000000 0.000000 0.051831
#
#
# Mechanical properties :
#
#
# Convention : Reuss Voigt Hill
#
# Bulk Modulus (GPa) = 48.50873 50.46233 49.48553
# Shear Modulus (GPa) = 23.45802 24.84649 24.15225
#
# Velocity S-wave (km/s) = 3.55961 3.66344 3.61190
# Velocity P-wave (km/s) = 6.56478 6.71949 6.64259
#
# Compressibility (1/GPa) = 0.02061485
#
# Stress axis : x y z
#
# Youngs Moduli (GPa) = 94.13035 65.27865 70.92439
#
# Poissons Ratio (x) = 0.15017 0.27145
# Poissons Ratio (y) = 0.21654 0.25433
# Poissons Ratio (z) = 0.36026 0.23408
#
# Static dielectric constant tensor:
#      x y z
#    x 3.792850 0.000000 0.000000 
#    y 0.000000 3.405050 0.000000 
#    z 0.000000 0.000000 3.368840 
# 
# 
# High freq. dielectric constant tensor:
#      x y z
#    x 1.723830 0.000000 0.000000 
#    y 0.000000 1.695700 0.000000 
#    z 0.000000 0.000000 1.715230 
# 
# From -- ./inp_files/30859.got.cif
#   From: 2010.03.12/outbox.cif.g09.slc.cpg/sg74_16_cif.got.tgz:30859.got - 2010.04.16 15:46:19.
