data_PCOD8300322
_publ_section_title
;
Structure prediction by ZEFSAII (Michael W. Deem and Ramdas Pophale) SiO2 
 PCOD8300322
Probable space group: I M M A
;
_chemical_formula_sum "Si O2"
_cell_formula_units_Z 96
_cell_length_a 27.218480
_cell_length_b 9.209716
_cell_length_c 20.506408
_cell_angle_alpha 90.000000
_cell_angle_beta 90.000000
_cell_angle_gamma 90.000000
_cell_volume 5140.432972
_symmetry_space_group_name_H-M "I M M A"
_symmetry_group_IT_number 74
_symmetry_cell_setting 'orthorhombic'
loop_
_space_group_symop_operation_xyz
x,y,z
-x,1/2-y,z
x,-y,-z
-x,1/2+y,-z
-x,-y,-z
x,1/2+y,-z
-x,y,z
x,1/2-y,z
1/2+x,1/2+y,1/2+z
1/2-x,-y,1/2+z
1/2+x,1/2-y,1/2-z
1/2-x,y,1/2-z
1/2-x,1/2-y,1/2-z
1/2+x,y,1/2-z
1/2-x,1/2+y,1/2+z
1/2+x,-y,1/2+z
loop_
_atom_site_type_symbol
_atom_site_label
_atom_site_fract_x
_atom_site_fract_y
_atom_site_fract_z
Si Si1 0.219874 0.420742 0.686639
Si Si2 0.617051 0.078794 0.188890
Si Si3 0.397261 0.920815 0.434123
Si Si4 0.443043 0.916517 0.684236
Si Si5 0.056439 0.580016 0.564020
Si Si6 0.784229 0.080870 0.935434
O O1 0.209831 0.250000 0.685513
O O2 0.250000 0.467298 0.750000
O O3 0.168894 0.501999 0.687927
O O4 0.250919 0.472277 0.624202
O O5 0.624985 0.250000 0.187144
O O6 0.587618 0.031516 0.253213
O O7 0.586828 0.025386 0.126130
O O8 0.406259 0.750000 0.442002
O O9 0.340541 0.957769 0.418880
O O10 0.414369 0.000000 0.500000
O O11 0.430162 0.980312 0.375765
O O12 0.500000 0.933791 0.701967
O O13 0.430556 0.750000 0.666008
O O14 0.077077 0.500000 0.500000
O O15 0.062834 0.750000 0.552677
O O16 0.000000 0.537684 0.576613
O O17 0.777977 0.250000 0.948596
O O18 0.765893 0.000000 0.000000
#
# Coordination Sequence:
#
# PCOD8300322 Si02
#       6
#    16  16  16  16  16  16
#     4  10  21  37  55  76 105 139 174 215 263 312
#     4  10  21  36  55  79 106 138 177 220 264 311
#     4  10  20  36  58  82 108 139 176 217 261 311
#     4  10  21  37  56  78 106 140 177 218 264 313
#     4   9  18  34  55  78 106 140 176 215 261 312
#     4   9  19  35  55  78 105 138 173 212 259 310
#
# _framework density 18.675470000000001
#
# number of rings (size 3 to 8) (size 9 to 14) (size 15 to 20)
#    0.000    2.333    0.000    2.000    0.000    7.667 
#    0.000    3.333    0.000    3.000    0.000    0.000 
#    0.000    0.000    0.000    0.000    0.000    0.000 
#
# Total GULP energy -595395.530280 kJ/mol
# GULP energy per Si atom -12404.073548 kJ/mol
# Density = 1.863296 g / cm^3
# Si number density = 18.675470 Si / 1000 Ang^3
#
#
#
# Elastic Constant Matrix: (Units=GPa)
#
#
# Indices 1 2 3 4 5 6 
#
# 1 77.7234 26.6828 52.2887 0.0000 0.0000 0.0000
# 2 26.6828 44.3196 44.3121 0.0000 0.0000 0.0000
# 3 52.2887 44.3121 147.6657 0.0000 0.0000 0.0000
# 4 0.0000 0.0000 0.0000 34.7914 0.0000 0.0000
# 5 0.0000 0.0000 0.0000 0.0000 39.2178 0.0000
# 6 0.0000 0.0000 0.0000 0.0000 0.0000 28.4413
#
#
#
# Elastic Compliance Matrix: (Units=1/GPa)
#
#
# Indices 1 2 3 4 5 6 
#
# 1 0.018079 -0.006406 -0.004480 0.000000 0.000000 0.000000
# 2 -0.006406 0.034505 -0.008086 0.000000 0.000000 0.000000
# 3 -0.004480 -0.008086 0.010785 0.000000 0.000000 0.000000
# 4 0.000000 0.000000 0.000000 0.028743 0.000000 0.000000
# 5 0.000000 0.000000 0.000000 0.000000 0.025499 0.000000
# 6 0.000000 0.000000 0.000000 0.000000 0.000000 0.035160
#
#
# Mechanical properties :
#
#
# Convention : Reuss Voigt Hill
#
# Bulk Modulus (GPa) = 39.33020 57.36400 48.34710
# Shear Modulus (GPa) = 25.10201 30.25177 27.67689
#
# Velocity S-wave (km/s) = 3.67020 4.02912 3.85384
# Velocity P-wave (km/s) = 6.25028 7.24072 6.76365
#
# Compressibility (1/GPa) = 0.02542575
#
# Stress axis : x y z
#
# Youngs Moduli (GPa) = 55.31330 28.98169 92.72358
#
# Poissons Ratio (x) = 0.18565 0.41536
# Poissons Ratio (y) = 0.35432 0.74976
# Poissons Ratio (z) = 0.24778 0.23435
#
# Static dielectric constant tensor:
#      x y z
#    x 3.383340 0.000000 0.000000 
#    y 0.000000 3.338980 0.000000 
#    z 0.000000 0.000000 3.691660 
# 
# 
# High freq. dielectric constant tensor:
#      x y z
#    x 1.725430 0.000000 0.000000 
#    y 0.000000 1.718100 0.000000 
#    z 0.000000 0.000000 1.739690 
# 
# From -- ./inp_files/49036.got.cif
#   From: 2010.03.12/outbox.cif.g09.slc.cpg/sg74_25_cif.got.tgz:49036.got - 2010.04.16 15:46:19.
