data_PCOD8300615
_publ_section_title
;
Structure prediction by ZEFSAII (Michael W. Deem and Ramdas Pophale) SiO2 
 PCOD8300615
Probable space group: I M M A
;
_chemical_formula_sum "Si O2"
_cell_formula_units_Z 68
_cell_length_a 14.702300
_cell_length_b 20.889039
_cell_length_c 11.986433
_cell_angle_alpha 90.000000
_cell_angle_beta 90.000000
_cell_angle_gamma 90.000000
_cell_volume 3681.236362
_symmetry_space_group_name_H-M "I M M A"
_symmetry_group_IT_number 74
_symmetry_cell_setting 'orthorhombic'
loop_
_space_group_symop_operation_xyz
x,y,z
-x,1/2-y,z
x,-y,-z
-x,1/2+y,-z
-x,-y,-z
x,1/2+y,-z
-x,y,z
x,1/2-y,z
1/2+x,1/2+y,1/2+z
1/2-x,-y,1/2+z
1/2+x,1/2-y,1/2-z
1/2-x,y,1/2-z
1/2-x,1/2-y,1/2-z
1/2+x,y,1/2-z
1/2-x,1/2+y,1/2+z
1/2+x,-y,1/2+z
loop_
_atom_site_type_symbol
_atom_site_label
_atom_site_fract_x
_atom_site_fract_y
_atom_site_fract_z
Si Si1 0.000000 0.750000 0.824316
Si Si2 0.179448 0.883639 0.052532
Si Si3 0.250000 0.535664 0.250000
Si Si4 0.395888 0.250000 0.537976
Si Si5 0.000000 0.932578 0.943066
Si Si6 0.343521 0.946193 0.918660
Si Si7 0.000000 0.116120 0.295351
O O1 0.000000 0.688477 0.746063
O O2 0.090206 0.750000 0.903018
O O3 0.186981 0.920664 0.169949
O O4 0.169051 0.808392 0.077078
O O5 0.088577 0.896717 0.984157
O O6 0.263708 0.905166 0.976222
O O7 0.314177 0.488009 0.185349
O O8 0.500000 0.250000 0.591526
O O9 0.000000 0.933540 0.808571
O O10 0.000000 0.000000 0.000000
O O11 0.414451 0.894309 0.875732
O O12 0.386520 0.000000 0.000000
#
# Coordination Sequence:
#
# PCOD8300615 Si02
#       7
#     4  16   8   8   8  16   8
#     4  10  22  38  56  94 112 152 214 234 282 362
#     4  11  21  39  59  86 123 152 197 251 288 350
#     4  10  22  35  58  91 112 154 204 236 308 354
#     4  10  20  40  59  85 123 152 198 251 283 341
#     4  12  20  33  59  85 112 153 196 248 291 342
#     4  10  22  38  57  89 123 152 195 251 296 351
#     4  12  21  38  59  82 121 163 194 236 301 346
#
# _framework density 18.472055000000001
#
# number of rings (size 3 to 8) (size 9 to 14) (size 15 to 20)
#    0.353    0.941    3.529    5.294    0.000    1.412 
#    0.000    2.353    0.000    0.000    0.000    0.000 
#    0.000    0.000    0.000    0.000    0.000    0.000 
#
# Total GULP energy -421304.675167 kJ/mol
# GULP energy per Si atom -12391.313976 kJ/mol
# Density = 1.843001 g / cm^3
# Si number density = 18.472055 Si / 1000 Ang^3
#
#
#
# Elastic Constant Matrix: (Units=GPa)
#
#
# Indices 1 2 3 4 5 6 
#
# 1 75.3787 30.3293 31.2745 0.0000 0.0000 0.0000
# 2 30.3293 126.3010 25.3936 0.0000 0.0000 0.0000
# 3 31.2745 25.3936 86.3104 0.0001 0.0000 0.0000
# 4 0.0000 0.0000 0.0001 34.2015 0.0000 0.0000
# 5 0.0000 0.0000 0.0000 0.0000 18.1208 0.0000
# 6 0.0000 0.0000 0.0000 0.0000 0.0000 43.2513
#
#
#
# Elastic Compliance Matrix: (Units=1/GPa)
#
#
# Indices 1 2 3 4 5 6 
#
# 1 0.016587 -0.002949 -0.005142 0.000000 0.000000 0.000000
# 2 -0.002949 0.008940 -0.001562 0.000000 0.000000 0.000000
# 3 -0.005142 -0.001562 0.013909 0.000000 0.000000 0.000000
# 4 0.000000 0.000000 0.000000 0.029238 0.000000 0.000000
# 5 0.000000 0.000000 0.000000 0.000000 0.055185 0.000000
# 6 0.000000 0.000000 0.000000 0.000000 0.000000 0.023121
#
#
# Mechanical properties :
#
#
# Convention : Reuss Voigt Hill
#
# Bulk Modulus (GPa) = 49.67981 51.33168 50.50575
# Shear Modulus (GPa) = 28.90250 32.51423 30.70837
#
# Velocity S-wave (km/s) = 3.95987 4.20001 4.08171
# Velocity P-wave (km/s) = 6.91812 7.16723 7.04378
#
# Compressibility (1/GPa) = 0.02012890
#
# Stress axis : x y z
#
# Youngs Moduli (GPa) = 60.28985 111.86012 71.89645
#
# Poissons Ratio (x) = 0.32988 0.36973
# Poissons Ratio (y) = 0.17780 0.11227
# Poissons Ratio (z) = 0.31004 0.17468
#
# Static dielectric constant tensor:
#      x y z
#    x 3.298390 0.000000 0.000000 
#    y 0.000000 3.734690 0.000000 
#    z 0.000000 0.000000 3.432820 
# 
# 
# High freq. dielectric constant tensor:
#      x y z
#    x 1.708360 0.000000 0.000000 
#    y 0.000000 1.724020 0.000000 
#    z 0.000000 0.000000 1.715700 
# 
# From -- ./inp_files/20278.got.cif
#   From: 2010.03.12/outbox.cif.g09.slc.cpg/sg74_11_cif.got.tgz:20278.got - 2010.04.16 15:46:19.
