data_PCOD8300323
_publ_section_title
;
Structure prediction by ZEFSAII (Michael W. Deem and Ramdas Pophale) SiO2 
 PCOD8300323
Probable space group: I M M A
;
_chemical_formula_sum "Si O2"
_cell_formula_units_Z 120
_cell_length_a 18.374523
_cell_length_b 28.958441
_cell_length_c 12.066588
_cell_angle_alpha 90.000000
_cell_angle_beta 90.000000
_cell_angle_gamma 90.000000
_cell_volume 6420.601793
_symmetry_space_group_name_H-M "I M M A"
_symmetry_group_IT_number 74
_symmetry_cell_setting 'orthorhombic'
loop_
_space_group_symop_operation_xyz
x,y,z
-x,1/2-y,z
x,-y,-z
-x,1/2+y,-z
-x,-y,-z
x,1/2+y,-z
-x,y,z
x,1/2-y,z
1/2+x,1/2+y,1/2+z
1/2-x,-y,1/2+z
1/2+x,1/2-y,1/2-z
1/2-x,y,1/2-z
1/2-x,1/2-y,1/2-z
1/2+x,y,1/2-z
1/2-x,1/2+y,1/2+z
1/2+x,-y,1/2+z
loop_
_atom_site_type_symbol
_atom_site_label
_atom_site_fract_x
_atom_site_fract_y
_atom_site_fract_z
Si Si1 0.915907 0.697180 0.632159
Si Si2 0.328323 0.147510 0.545169
Si Si3 0.698036 0.555253 0.350463
Si Si4 0.166828 0.628800 0.789076
Si Si5 0.823050 0.696248 0.415145
Si Si6 0.580579 0.695766 0.287898
Si Si7 0.163984 0.971384 0.730856
Si Si8 0.300152 0.000000 0.000000
O O1 0.905791 0.750000 0.670242
O O2 0.880954 0.665649 0.725236
O O3 0.877160 0.688177 0.516270
O O4 0.000000 0.684382 0.616856
O O5 0.345794 0.099497 0.607652
O O6 0.340128 0.142079 0.415867
O O7 0.247429 0.165074 0.569608
O O8 0.387426 0.183365 0.591665
O O9 0.750000 0.570038 0.250000
O O10 0.640554 0.515013 0.308884
O O11 0.748125 0.540245 0.454311
O O12 0.250000 0.630983 0.750000
O O13 0.131707 0.577808 0.768336
O O14 0.800101 0.750000 0.404105
O O15 0.864562 0.677541 0.306569
O O16 0.500000 0.673980 0.273247
O O17 0.574147 0.750000 0.276597
O O18 0.250000 0.970229 0.750000
O O19 0.148901 0.980145 0.599678
#
# Coordination Sequence:
#
# PCOD8300323 Si02
#       8
#    16  16  16  16  16  16  16   8
#     4  10  22  39  58  81 112 153 195 233 285 349
#     4  12  21  32  55  86 117 142 187 237 285 336
#     4   9  16  27  45  75 110 140 176 222 276 329
#     4  11  21  35  54  83 115 150 189 235 282 332
#     4  10  20  36  58  82 110 143 189 244 289 334
#     4  10  22  39  56  77 110 151 188 227 285 347
#     4   8  16  29  47  74 110 144 182 225 279 332
#     4   8  14  26  46  70 106 144 176 222 276 320
#
# _framework density 18.689836
#
# number of rings (size 3 to 8) (size 9 to 14) (size 15 to 20)
#    0.000    2.400    1.333    4.400    0.000    4.533 
#    0.000    1.333    0.000    0.800    0.000    2.800 
#    0.000    0.000    0.000    0.000    0.000    0.000 
#
# Total GULP energy -743745.866934 kJ/mol
# GULP energy per Si atom -12395.764449 kJ/mol
# Density = 1.864730 g / cm^3
# Si number density = 18.689836 Si / 1000 Ang^3
#
#
#
# Elastic Constant Matrix: (Units=GPa)
#
#
# Indices 1 2 3 4 5 6 
#
# 1 67.2427 39.5029 33.4101 -0.0004 -0.0007 0.0002
# 2 39.5029 78.5193 49.7563 -0.0008 0.0003 0.0002
# 3 33.4101 49.7563 138.1990 -0.0033 0.0031 0.0002
# 4 -0.0004 -0.0008 -0.0033 33.7710 0.0002 0.0002
# 5 -0.0007 0.0003 0.0031 0.0002 -3.1109 -0.0004
# 6 0.0002 0.0002 0.0002 0.0002 -0.0004 8.0571
#
#
#
# Elastic Compliance Matrix: (Units=1/GPa)
#
#
# Indices 1 2 3 4 5 6 
#
# 1 0.021408 -0.009705 -0.001681 0.000000 -0.000007 0.000000
# 2 -0.009705 0.020900 -0.005178 0.000000 -0.000001 0.000000
# 3 -0.001681 -0.005178 0.009507 0.000001 0.000009 0.000000
# 4 0.000000 0.000000 0.000001 0.029611 0.000002 -0.000001
# 5 -0.000007 -0.000001 0.000009 0.000002 -0.321448 -0.000017
# 6 0.000000 0.000000 0.000000 -0.000001 -0.000017 0.124114
#
#
# Mechanical properties :
#
#
# Convention : Reuss Voigt Hill
#
# Bulk Modulus (GPa) = 53.51809 58.81108 56.16458
# Shear Modulus (GPa) = -65.31660 18.49620 -23.41020
#
# Velocity S-wave (km/s) = -5.91807 3.14927 -3.54300
# Velocity P-wave (km/s) = 4.24276 6.69022 3.65773
#
# Compressibility (1/GPa) = 0.01868527
#
# Stress axis : x y z
#
# Youngs Moduli (GPa) = 46.71082 47.84744 105.18754
#
# Poissons Ratio (x) = 0.46436 0.17686
# Poissons Ratio (y) = 0.45333 0.54470
# Poissons Ratio (z) = 0.07854 0.24777
#
# Static dielectric constant tensor:
#      x y z
#    x 3.113300 0.000000 0.000000 
#    y 0.000000 3.811450 0.000000 
#    z 0.000000 0.000000 3.971460 
# 
# 
# High freq. dielectric constant tensor:
#      x y z
#    x 1.674780 0.000000 0.000000 
#    y 0.000000 1.733140 0.000000 
#    z 0.000000 0.000000 1.743110 
# 
# From -- ./inp_files/24463.got.cif
#   From: 2010.03.12/outbox.cif.g09.slc.cpg/sg74_13_cif.got.tgz:24463.got - 2010.04.16 15:46:19.
