data_PCOD8300531
_publ_section_title
;
Structure prediction by ZEFSAII (Michael W. Deem and Ramdas Pophale) SiO2 
 PCOD8300531
Probable space group: I M M A
;
_chemical_formula_sum "Si O2"
_cell_formula_units_Z 56
_cell_length_a 20.773753
_cell_length_b 13.364234
_cell_length_c 9.869957
_cell_angle_alpha 90.000000
_cell_angle_beta 90.000000
_cell_angle_gamma 90.000000
_cell_volume 2740.149735
_symmetry_space_group_name_H-M "I M M A"
_symmetry_group_IT_number 74
_symmetry_cell_setting 'orthorhombic'
loop_
_space_group_symop_operation_xyz
x,y,z
-x,1/2-y,z
x,-y,-z
-x,1/2+y,-z
-x,-y,-z
x,1/2+y,-z
-x,y,z
x,1/2-y,z
1/2+x,1/2+y,1/2+z
1/2-x,-y,1/2+z
1/2+x,1/2-y,1/2-z
1/2-x,y,1/2-z
1/2-x,1/2-y,1/2-z
1/2+x,y,1/2-z
1/2-x,1/2+y,1/2+z
1/2+x,-y,1/2+z
loop_
_atom_site_type_symbol
_atom_site_label
_atom_site_fract_x
_atom_site_fract_y
_atom_site_fract_z
Si Si1 0.213151 0.361266 0.889002
Si Si2 0.688458 0.500000 0.000000
Si Si3 0.000000 0.363227 0.791240
Si Si4 0.000000 0.631697 0.890027
Si Si5 0.109427 0.005008 0.766489
O O1 0.187625 0.250000 0.934429
O O2 0.250000 0.349351 0.750000
O O3 0.156439 0.443965 0.877956
O O4 0.266355 0.401922 0.993080
O O5 0.647060 0.527189 0.867751
O O6 0.937691 0.407122 0.718350
O O7 0.000000 0.250000 0.757751
O O8 0.000000 0.391968 0.950372
O O9 0.934040 0.585290 0.827589
O O10 0.000000 0.750000 0.861286
#
# Coordination Sequence:
#
# PCOD8300531 Si02
#       5
#    16   8   8   8  16
#     4   9  19  36  57  82 115 154 190 227 275 340
#     4  10  22  35  58  89 120 150 190 238 292 346
#     4  10  21  37  61  84 105 149 203 243 280 337
#     4  10  23  39  59  84 115 154 194 242 292 343
#     4  10  20  38  58  86 118 150 192 241 290 343
#
# _framework density 20.43684
#
# number of rings (size 3 to 8) (size 9 to 14) (size 15 to 20)
#    0.000    2.286    0.000    2.571    4.000    4.571 
#    0.000    1.429    0.000    5.143    0.000    0.000 
#    0.000    0.000    0.000    0.000    0.000    0.000 
#
# Total GULP energy -346888.312032 kJ/mol
# GULP energy per Si atom -12388.868287 kJ/mol
# Density = 2.039032 g / cm^3
# Si number density = 20.436840 Si / 1000 Ang^3
#
#
#
# Elastic Constant Matrix: (Units=GPa)
#
#
# Indices 1 2 3 4 5 6 
#
# 1 141.9952 65.5358 49.2429 0.0000 0.0000 0.0000
# 2 65.5358 139.2548 47.2309 0.0000 0.0000 0.0000
# 3 49.2429 47.2309 59.4655 0.0000 0.0000 0.0000
# 4 0.0000 0.0000 0.0000 14.8868 0.0000 0.0000
# 5 0.0000 0.0000 0.0000 0.0000 48.1196 0.0000
# 6 0.0000 0.0000 0.0000 0.0000 0.0000 18.1516
#
#
#
# Elastic Compliance Matrix: (Units=1/GPa)
#
#
# Indices 1 2 3 4 5 6 
#
# 1 0.010598 -0.002753 -0.006590 0.000000 0.000000 0.000000
# 2 -0.002753 0.010544 -0.006095 0.000000 0.000000 0.000000
# 3 -0.006590 -0.006095 0.027115 0.000000 0.000000 0.000000
# 4 0.000000 0.000000 0.000000 0.067174 0.000000 0.000000
# 5 0.000000 0.000000 0.000000 0.000000 0.020782 0.000000
# 6 0.000000 0.000000 0.000000 0.000000 0.000000 0.055092
#
#
# Mechanical properties :
#
#
# Convention : Reuss Voigt Hill
#
# Bulk Modulus (GPa) = 57.53315 73.85941 65.69628
# Shear Modulus (GPa) = 21.93244 28.14533 25.03889
#
# Velocity S-wave (km/s) = 3.27950 3.71507 3.50406
# Velocity P-wave (km/s) = 6.52326 7.39061 6.97044
#
# Compressibility (1/GPa) = 0.01738128
#
# Stress axis : x y z
#
# Youngs Moduli (GPa) = 94.35461 94.84296 36.88034
#
# Poissons Ratio (x) = 0.26106 0.24305
# Poissons Ratio (y) = 0.25972 0.22479
# Poissons Ratio (z) = 0.62181 0.57807
#
# Static dielectric constant tensor:
#      x y z
#    x 4.028710 0.000000 0.000000 
#    y 0.000000 4.010940 0.000000 
#    z 0.000000 0.000000 3.484210 
# 
# 
# High freq. dielectric constant tensor:
#      x y z
#    x 1.821570 0.000000 0.000000 
#    y 0.000000 1.802450 0.000000 
#    z 0.000000 0.000000 1.769600 
# 
# From -- ./inp_files/8476.got.cif
#   From: 2010.03.12/outbox.cif.g09.slc.cpg/sg74_5_cif.got.tgz:8476.got - 2010.04.16 15:46:19.
