data_PCOD8300804
_publ_section_title
;
Structure prediction by ZEFSAII (Michael W. Deem and Ramdas Pophale) SiO2 
 PCOD8300804
Probable space group: I M M A
;
_chemical_formula_sum "Si O2"
_cell_formula_units_Z 80
_cell_length_a 17.094247
_cell_length_b 14.208093
_cell_length_c 16.457727
_cell_angle_alpha 90.000000
_cell_angle_beta 90.000000
_cell_angle_gamma 90.000000
_cell_volume 3997.197619
_symmetry_space_group_name_H-M "I M M A"
_symmetry_group_IT_number 74
_symmetry_cell_setting 'orthorhombic'
loop_
_space_group_symop_operation_xyz
x,y,z
-x,1/2-y,z
x,-y,-z
-x,1/2+y,-z
-x,-y,-z
x,1/2+y,-z
-x,y,z
x,1/2-y,z
1/2+x,1/2+y,1/2+z
1/2-x,-y,1/2+z
1/2+x,1/2-y,1/2-z
1/2-x,y,1/2-z
1/2-x,1/2-y,1/2-z
1/2+x,y,1/2-z
1/2-x,1/2+y,1/2+z
1/2+x,-y,1/2+z
loop_
_atom_site_type_symbol
_atom_site_label
_atom_site_fract_x
_atom_site_fract_y
_atom_site_fract_z
Si Si1 0.146711 0.859724 0.021743
Si Si2 0.408722 0.489185 0.799904
Si Si3 0.589728 0.855233 0.928161
Si Si4 0.819980 0.359146 0.582794
Si Si5 0.411740 0.476755 0.382252
O O1 0.123510 0.750000 0.020199
O O2 0.144091 0.902248 0.929911
O O3 0.229186 0.876807 0.065743
O O4 0.085869 0.920833 0.074325
O O5 0.500000 0.457014 0.803118
O O6 0.395010 0.585413 0.847947
O O7 0.351692 0.409995 0.836605
O O8 0.380274 0.509850 0.708779
O O9 0.500000 0.855095 0.953782
O O10 0.620476 0.750000 0.909694
O O11 0.634752 0.899595 0.004536
O O12 0.838567 0.250000 0.595546
O O13 0.500000 0.436654 0.380959
#
# Coordination Sequence:
#
# PCOD8300804 Si02
#       5
#    16  16  16  16  16
#     4  10  22  40  60  83 113 151 191 236 290 341
#     4  10  21  36  57  86 119 151 187 238 289 333
#     4   9  18  33  54  82 116 154 191 224 269 336
#     4  10  21  36  56  84 117 152 191 229 280 348
#     4  10  23  40  59  87 112 144 199 243 285 346
#
# _framework density 20.014022000000001
#
# number of rings (size 3 to 8) (size 9 to 14) (size 15 to 20)
#    0.000    2.200    0.000    2.400    5.600    6.800 
#    0.000    6.000    0.000    3.600    0.000    0.000 
#    0.000    0.000    0.000    0.000    0.000    0.000 
#
# Total GULP energy -495962.448999 kJ/mol
# GULP energy per Si atom -12399.061225 kJ/mol
# Density = 1.996847 g / cm^3
# Si number density = 20.014022 Si / 1000 Ang^3
#
#
#
# Elastic Constant Matrix: (Units=GPa)
#
#
# Indices 1 2 3 4 5 6 
#
# 1 45.9466 15.3891 16.6791 0.0000 0.0000 0.0000
# 2 15.3891 81.5501 20.4875 0.0000 0.0000 0.0000
# 3 16.6791 20.4875 117.1611 0.0000 0.0000 0.0000
# 4 0.0000 0.0000 0.0000 15.2642 0.0000 0.0000
# 5 0.0000 0.0000 0.0000 0.0000 13.2494 0.0000
# 6 0.0000 0.0000 0.0000 0.0000 0.0000 24.6561
#
#
#
# Elastic Compliance Matrix: (Units=1/GPa)
#
#
# Indices 1 2 3 4 5 6 
#
# 1 0.024052 -0.003848 -0.002751 0.000000 0.000000 0.000000
# 2 -0.003848 0.013441 -0.001803 0.000000 0.000000 0.000000
# 3 -0.002751 -0.001803 0.009242 0.000000 0.000000 0.000000
# 4 0.000000 0.000000 0.000000 0.065513 0.000000 0.000000
# 5 0.000000 0.000000 0.000000 0.000000 0.075475 0.000000
# 6 0.000000 0.000000 0.000000 0.000000 0.000000 0.040558
#
#
# Mechanical properties :
#
#
# Convention : Reuss Voigt Hill
#
# Bulk Modulus (GPa) = 33.40869 38.86325 36.13597
# Shear Modulus (GPa) = 19.60313 23.44075 21.52194
#
# Velocity S-wave (km/s) = 3.13304 3.42602 3.28280
# Velocity P-wave (km/s) = 5.46048 5.92539 5.69768
#
# Compressibility (1/GPa) = 0.02993233
#
# Stress axis : x y z
#
# Youngs Moduli (GPa) = 41.57699 74.39733 108.19994
#
# Poissons Ratio (x) = 0.28625 0.29768
# Poissons Ratio (y) = 0.15997 0.19505
# Poissons Ratio (z) = 0.11439 0.13412
#
# Static dielectric constant tensor:
#      x y z
#    x 3.539200 0.000000 0.000000 
#    y 0.000000 3.664410 0.000000 
#    z 0.000000 0.000000 3.681560 
# 
# 
# High freq. dielectric constant tensor:
#      x y z
#    x 1.774580 0.000000 0.000000 
#    y 0.000000 1.781380 0.000000 
#    z 0.000000 0.000000 1.779550 
# 
# From -- ./inp_files/43841.got.cif
#   From: 2010.03.12/outbox.cif.g09.slc.cpg/sg74_22_cif.got.tgz:43841.got - 2010.04.16 15:46:19.
