data_PCOD8300273
_publ_section_title
;
Structure prediction by ZEFSAII (Michael W. Deem and Ramdas Pophale) SiO2 
 PCOD8300273
Probable space group: I M M A
;
_chemical_formula_sum "Si O2"
_cell_formula_units_Z 72
_cell_length_a 25.648772
_cell_length_b 13.716093
_cell_length_c 11.201996
_cell_angle_alpha 90.000000
_cell_angle_beta 90.000000
_cell_angle_gamma 90.000000
_cell_volume 3940.872746
_symmetry_space_group_name_H-M "I M M A"
_symmetry_group_IT_number 74
_symmetry_cell_setting 'orthorhombic'
loop_
_space_group_symop_operation_xyz
x,y,z
-x,1/2-y,z
x,-y,-z
-x,1/2+y,-z
-x,-y,-z
x,1/2+y,-z
-x,y,z
x,1/2-y,z
1/2+x,1/2+y,1/2+z
1/2-x,-y,1/2+z
1/2+x,1/2-y,1/2-z
1/2-x,y,1/2-z
1/2-x,1/2-y,1/2-z
1/2+x,y,1/2-z
1/2-x,1/2+y,1/2+z
1/2+x,-y,1/2+z
loop_
_atom_site_type_symbol
_atom_site_label
_atom_site_fract_x
_atom_site_fract_y
_atom_site_fract_z
Si Si1 0.804403 0.000000 0.000000
Si Si2 0.378965 0.358340 0.928137
Si Si3 0.280973 0.360306 0.092173
Si Si4 0.558314 0.865140 0.843785
Si Si5 0.645859 0.020314 0.256284
O O1 0.770290 0.905426 0.967997
O O2 0.841221 0.020884 0.886726
O O3 0.393803 0.250000 0.883257
O O4 0.375980 0.429034 0.816900
O O5 0.322837 0.358151 0.988255
O O6 0.420953 0.396325 0.025077
O O7 0.269293 0.250000 0.137254
O O8 0.302566 0.426543 0.201646
O O9 0.500000 0.906465 0.825610
O O10 0.559417 0.750000 0.832631
O O11 0.597267 0.904740 0.741472
#
# Coordination Sequence:
#
# PCOD8300273 Si02
#       5
#     8  16  16  16  16
#     4  12  24  34  49  78 109 154 190 214 266 326
#     4   9  18  33  54  80 107 137 175 227 280 323
#     4  10  20  36  56  76 103 142 189 233 271 314
#     4   9  18  35  61  86 104 130 176 233 285 326
#     4  11  21  35  53  78 112 145 182 227 268 330
#
# _framework density 18.270066
#
# number of rings (size 3 to 8) (size 9 to 14) (size 15 to 20)
#    0.000    2.000    2.222    4.667    0.000    5.333 
#    0.000    2.778    0.000    0.000    0.000    3.111 
#    0.000    0.000    0.000    0.000    0.000    0.000 
#
# Total GULP energy -446283.447882 kJ/mol
# GULP energy per Si atom -12396.762441 kJ/mol
# Density = 1.822848 g / cm^3
# Si number density = 18.270066 Si / 1000 Ang^3
#
#
#
# Elastic Constant Matrix: (Units=GPa)
#
#
# Indices 1 2 3 4 5 6 
#
# 1 117.5991 30.3834 56.5818 0.0000 0.0000 0.0000
# 2 30.3834 67.7366 29.3781 0.0000 0.0000 0.0000
# 3 56.5818 29.3781 91.0918 0.0000 0.0000 0.0000
# 4 0.0000 0.0000 0.0000 4.2988 0.0000 0.0000
# 5 0.0000 0.0000 0.0000 0.0000 12.3584 0.0000
# 6 0.0000 0.0000 0.0000 0.0000 0.0000 29.0918
#
#
#
# Elastic Compliance Matrix: (Units=1/GPa)
#
#
# Indices 1 2 3 4 5 6 
#
# 1 0.012512 -0.002606 -0.006931 0.000000 0.000000 0.000000
# 2 -0.002606 0.017707 -0.004092 0.000000 0.000000 0.000000
# 3 -0.006931 -0.004092 0.016603 0.000000 0.000000 0.000000
# 4 0.000000 0.000000 0.000000 0.232621 0.000000 0.000000
# 5 0.000000 0.000000 0.000000 0.000000 0.080916 0.000000
# 6 0.000000 0.000000 0.000000 0.000000 0.000000 0.034374
#
#
# Mechanical properties :
#
#
# Convention : Reuss Voigt Hill
#
# Bulk Modulus (GPa) = 51.11647 56.56821 53.84234
# Shear Modulus (GPa) = 11.66831 19.82210 15.74520
#
# Velocity S-wave (km/s) = 2.52991 3.29743 2.93883
# Velocity P-wave (km/s) = 6.04755 6.74736 6.40702
#
# Compressibility (1/GPa) = 0.01956317
#
# Stress axis : x y z
#
# Youngs Moduli (GPa) = 79.92563 56.47580 60.23037
#
# Poissons Ratio (x) = 0.14718 0.41747
# Poissons Ratio (y) = 0.20829 0.24646
# Poissons Ratio (z) = 0.55398 0.23109
#
# Static dielectric constant tensor:
#      x y z
#    x 3.558070 0.000000 0.000000 
#    y 0.000000 3.693350 0.000000 
#    z 0.000000 0.000000 3.108960 
# 
# 
# High freq. dielectric constant tensor:
#      x y z
#    x 1.701450 0.000000 0.000000 
#    y 0.000000 1.717900 0.000000 
#    z 0.000000 0.000000 1.673150 
# 
# From -- ./inp_files/9142.got.cif
#   From: 2010.03.12/outbox.cif.g09.slc.cpg/sg74_5_cif.got.tgz:9142.got - 2010.04.16 15:46:19.
