data_PCOD8300391
_publ_section_title
;
Structure prediction by ZEFSAII (Michael W. Deem and Ramdas Pophale) SiO2 
 PCOD8300391
Probable space group: I M M A
;
_chemical_formula_sum "Si O2"
_cell_formula_units_Z 104
_cell_length_a 21.107878
_cell_length_b 8.927942
_cell_length_c 27.754675
_cell_angle_alpha 90.000000
_cell_angle_beta 90.000000
_cell_angle_gamma 90.000000
_cell_volume 5230.366020
_symmetry_space_group_name_H-M "I M M A"
_symmetry_group_IT_number 74
_symmetry_cell_setting 'orthorhombic'
loop_
_space_group_symop_operation_xyz
x,y,z
-x,1/2-y,z
x,-y,-z
-x,1/2+y,-z
-x,-y,-z
x,1/2+y,-z
-x,y,z
x,1/2-y,z
1/2+x,1/2+y,1/2+z
1/2-x,-y,1/2+z
1/2+x,1/2-y,1/2-z
1/2-x,y,1/2-z
1/2-x,1/2-y,1/2-z
1/2+x,y,1/2-z
1/2-x,1/2+y,1/2+z
1/2+x,-y,1/2+z
loop_
_atom_site_type_symbol
_atom_site_label
_atom_site_fract_x
_atom_site_fract_y
_atom_site_fract_z
Si Si1 0.259316 0.072580 0.861086
Si Si2 0.319855 0.419995 0.548947
Si Si3 0.097267 0.424242 0.623950
Si Si4 0.069835 0.421721 0.731309
Si Si5 0.571587 0.422223 0.615737
Si Si6 0.000000 0.570928 0.553274
Si Si7 0.654304 0.074047 0.304910
O O1 0.254268 0.250000 0.854076
O O2 0.223488 0.014508 0.908612
O O3 0.331100 0.019031 0.867543
O O4 0.223480 0.998251 0.815273
O O5 0.303885 0.500000 0.500000
O O6 0.301472 0.250000 0.540234
O O7 0.393062 0.440862 0.564511
O O8 0.095390 0.250000 0.608625
O O9 0.062706 0.451515 0.674490
O O10 0.062780 0.517989 0.582063
O O11 0.088924 0.250000 0.740864
O O12 0.125584 0.522162 0.753725
O O13 0.000000 0.456363 0.753880
O O14 0.500000 0.473418 0.607476
O O15 0.576934 0.250000 0.633551
O O16 0.602947 0.526411 0.655510
O O17 0.000000 0.500000 0.500000
O O18 0.000000 0.750000 0.549074
O O19 0.663120 0.250000 0.304341
#
# Coordination Sequence:
#
# PCOD8300391 Si02
#       7
#    16  16  16  16  16   8  16
#     4   9  20  39  61  82 112 152 194 242 291 349
#     4   9  18  32  50  75 104 138 179 227 285 340
#     4  10  21  42  68  92 116 149 199 247 293 352
#     4  10  20  36  60  86 116 154 195 241 293 355
#     4   9  18  34  53  72 101 143 192 240 286 339
#     4  12  26  44  68  96 130 164 198 246 303 364
#     4  11  22  34  52  82 119 155 194 238 285 346
#
# _framework density 19.883886
#
# number of rings (size 3 to 8) (size 9 to 14) (size 15 to 20)
#    0.000    2.154    0.769    3.462    0.000    7.692 
#    0.000    4.615    0.000    0.000    0.000    0.000 
#    0.000    0.000    0.000    0.000    0.000    0.000 
#
# Total GULP energy -644663.964157 kJ/mol
# GULP energy per Si atom -12397.383926 kJ/mol
# Density = 1.983863 g / cm^3
# Si number density = 19.883886 Si / 1000 Ang^3
#
#
#
# Elastic Constant Matrix: (Units=GPa)
#
#
# Indices 1 2 3 4 5 6 
#
# 1 151.3226 47.6294 39.2010 0.0000 0.0000 0.0000
# 2 47.6294 92.7304 43.7303 0.0000 0.0000 0.0000
# 3 39.2010 43.7303 90.1548 0.0000 0.0000 0.0000
# 4 0.0000 0.0000 0.0000 32.1872 0.0000 0.0000
# 5 0.0000 0.0000 0.0000 0.0000 23.6082 0.0000
# 6 0.0000 0.0000 0.0000 0.0000 0.0000 23.6749
#
#
#
# Elastic Compliance Matrix: (Units=1/GPa)
#
#
# Indices 1 2 3 4 5 6 
#
# 1 0.008141 -0.003257 -0.001960 0.000000 0.000000 0.000000
# 2 -0.003257 0.015286 -0.005998 0.000000 0.000000 0.000000
# 3 -0.001960 -0.005998 0.014854 0.000000 0.000000 0.000000
# 4 0.000000 0.000000 0.000000 0.031068 0.000000 0.000000
# 5 0.000000 0.000000 0.000000 0.000000 0.042358 0.000000
# 6 0.000000 0.000000 0.000000 0.000000 0.000000 0.042239
#
#
# Mechanical properties :
#
#
# Convention : Reuss Voigt Hill
#
# Bulk Modulus (GPa) = 63.09211 66.14768 64.61989
# Shear Modulus (GPa) = 27.52394 29.47056 28.49725
#
# Velocity S-wave (km/s) = 3.72456 3.85402 3.78985
# Velocity P-wave (km/s) = 7.09194 7.28998 7.19165
#
# Compressibility (1/GPa) = 0.01584984
#
# Stress axis : x y z
#
# Youngs Moduli (GPa) = 122.82854 65.42085 67.32333
#
# Poissons Ratio (x) = 0.21310 0.13196
# Poissons Ratio (y) = 0.40010 0.40381
# Poissons Ratio (z) = 0.24075 0.39240
#
# Static dielectric constant tensor:
#      x y z
#    x 3.869150 0.000000 0.000000 
#    y 0.000000 3.393850 0.000000 
#    z 0.000000 0.000000 3.572820 
# 
# 
# High freq. dielectric constant tensor:
#      x y z
#    x 1.787160 0.000000 0.000000 
#    y 0.000000 1.753730 0.000000 
#    z 0.000000 0.000000 1.769400 
# 
# From -- ./inp_files/68272.got.cif
#   From: 2010.03.12/outbox.cif.g09.slc.cpg/sg74_35_cif.got.tgz:68272.got - 2010.04.16 15:46:19.
