data_PCOD8300149
_publ_section_title
;
Structure prediction by ZEFSAII (Michael W. Deem and Ramdas Pophale) SiO2 
 PCOD8300149
Probable space group: I M M A
;
_chemical_formula_sum "Si O2"
_cell_formula_units_Z 104
_cell_length_a 25.979504
_cell_length_b 8.955378
_cell_length_c 23.831582
_cell_angle_alpha 90.000000
_cell_angle_beta 90.000000
_cell_angle_gamma 90.000000
_cell_volume 5544.567181
_symmetry_space_group_name_H-M "I M M A"
_symmetry_group_IT_number 74
_symmetry_cell_setting 'orthorhombic'
loop_
_space_group_symop_operation_xyz
x,y,z
-x,1/2-y,z
x,-y,-z
-x,1/2+y,-z
-x,-y,-z
x,1/2+y,-z
-x,y,z
x,1/2-y,z
1/2+x,1/2+y,1/2+z
1/2-x,-y,1/2+z
1/2+x,1/2-y,1/2-z
1/2-x,y,1/2-z
1/2-x,1/2-y,1/2-z
1/2+x,y,1/2-z
1/2-x,1/2+y,1/2+z
1/2+x,-y,1/2+z
loop_
_atom_site_type_symbol
_atom_site_label
_atom_site_fract_x
_atom_site_fract_y
_atom_site_fract_z
Si Si1 0.715279 0.579109 0.357170
Si Si2 0.389198 0.925034 0.940342
Si Si3 0.128264 0.420308 0.764723
Si Si4 0.000000 0.923507 0.558819
Si Si5 0.857282 0.425623 0.059761
Si Si6 0.178559 0.573265 0.662069
Si Si7 0.441075 0.076708 0.348684
O O1 0.725740 0.750000 0.374237
O O2 0.675492 0.566627 0.306918
O O3 0.693970 0.492125 0.411490
O O4 0.766594 0.504750 0.333490
O O5 0.385996 0.750000 0.950720
O O6 0.445423 0.968384 0.912538
O O7 0.345865 0.976718 0.897035
O O8 0.378817 0.000000 0.000000
O O9 0.118346 0.250000 0.746667
O O10 0.140551 0.518493 0.710596
O O11 0.077220 0.483484 0.794676
O O12 0.000000 0.750000 0.547430
O O13 0.000000 0.000000 0.500000
O O14 0.849398 0.250000 0.052399
O O15 0.907410 0.464844 0.096802
O O16 0.866244 0.500000 0.000000
O O17 0.185214 0.750000 0.667228
O O18 0.500000 0.035298 0.362192
O O19 0.434416 0.250000 0.333732
#
# Coordination Sequence:
#
# PCOD8300149 Si02
#       7
#    16  16  16   8  16  16  16
#     4  10  21  37  56  77 105 143 182 226 277 323
#     4   9  19  34  53  76 102 133 169 209 257 309
#     4  10  21  37  56  79 107 140 182 228 274 324
#     4   8  14  30  52  70  92 124 160 196 237 290
#     4  10  20  35  56  83 114 148 187 228 273 330
#     4  11  22  35  53  81 110 140 180 223 271 330
#     4   9  19  37  59  82 111 148 186 227 278 332
#
# _framework density 18.757100000000001
#
# number of rings (size 3 to 8) (size 9 to 14) (size 15 to 20)
#    0.000    2.308    0.000    2.308    0.000    6.769 
#    1.385    1.538    0.000    0.000    0.000    0.000 
#    0.000    0.000    0.000    0.000    0.000    0.000 
#
# Total GULP energy -644688.875039 kJ/mol
# GULP energy per Si atom -12397.862982 kJ/mol
# Density = 1.871441 g / cm^3
# Si number density = 18.757100 Si / 1000 Ang^3
#
#
#
# Elastic Constant Matrix: (Units=GPa)
#
#
# Indices 1 2 3 4 5 6 
#
# 1 54.8645 33.0906 30.3033 0.0000 0.0000 0.0000
# 2 33.0906 89.4602 47.4754 0.0000 0.0000 0.0000
# 3 30.3033 47.4754 96.5780 0.0000 0.0000 0.0000
# 4 0.0000 0.0000 0.0000 34.4671 0.0000 0.0000
# 5 0.0000 0.0000 0.0000 0.0000 16.5676 0.0000
# 6 0.0000 0.0000 0.0000 0.0000 0.0000 26.7495
#
#
#
# Elastic Compliance Matrix: (Units=1/GPa)
#
#
# Indices 1 2 3 4 5 6 
#
# 1 0.024783 -0.006819 -0.004424 0.000000 0.000000 0.000000
# 2 -0.006819 0.017000 -0.006217 0.000000 0.000000 0.000000
# 3 -0.004424 -0.006217 0.014799 0.000000 0.000000 0.000000
# 4 0.000000 0.000000 0.000000 0.029013 0.000000 0.000000
# 5 0.000000 0.000000 0.000000 0.000000 0.060359 0.000000
# 6 0.000000 0.000000 0.000000 0.000000 0.000000 0.037384
#
#
# Mechanical properties :
#
#
# Convention : Reuss Voigt Hill
#
# Bulk Modulus (GPa) = 46.16609 51.40459 48.78534
# Shear Modulus (GPa) = 22.17505 24.22573 23.20039
#
# Velocity S-wave (km/s) = 3.44208 3.59771 3.52075
# Velocity P-wave (km/s) = 6.36107 6.68752 6.52634
#
# Compressibility (1/GPa) = 0.02166092
#
# Stress axis : x y z
#
# Youngs Moduli (GPa) = 40.34993 58.82401 67.57402
#
# Poissons Ratio (x) = 0.40114 0.29895
# Poissons Ratio (y) = 0.27516 0.42011
# Poissons Ratio (z) = 0.17851 0.36571
#
# Static dielectric constant tensor:
#      x y z
#    x 4.001060 0.000000 0.000000 
#    y 0.000000 3.548340 0.000000 
#    z 0.000000 0.000000 3.356200 
# 
# 
# High freq. dielectric constant tensor:
#      x y z
#    x 1.734300 0.000000 0.000000 
#    y 0.000000 1.736720 0.000000 
#    z 0.000000 0.000000 1.717430 
# 
# From -- ./inp_files/49295.got.cif
#   From: 2010.03.12/outbox.cif.g09.slc.cpg/sg74_25_cif.got.tgz:49295.got - 2010.04.16 15:46:19.
