data_PCOD8300236
_publ_section_title
;
Structure prediction by ZEFSAII (Michael W. Deem and Ramdas Pophale) SiO2 
 PCOD8300236
Probable space group: I M M A
;
_chemical_formula_sum "Si O2"
_cell_formula_units_Z 112
_cell_length_a 17.647658
_cell_length_b 17.780064
_cell_length_c 18.035778
_cell_angle_alpha 90.000000
_cell_angle_beta 90.000000
_cell_angle_gamma 90.000000
_cell_volume 5659.203092
_symmetry_space_group_name_H-M "I M M A"
_symmetry_group_IT_number 74
_symmetry_cell_setting 'orthorhombic'
loop_
_space_group_symop_operation_xyz
x,y,z
-x,1/2-y,z
x,-y,-z
-x,1/2+y,-z
-x,-y,-z
x,1/2+y,-z
-x,y,z
x,1/2-y,z
1/2+x,1/2+y,1/2+z
1/2-x,-y,1/2+z
1/2+x,1/2-y,1/2-z
1/2-x,y,1/2-z
1/2-x,1/2-y,1/2-z
1/2+x,y,1/2-z
1/2-x,1/2+y,1/2+z
1/2+x,-y,1/2+z
loop_
_atom_site_type_symbol
_atom_site_label
_atom_site_fract_x
_atom_site_fract_y
_atom_site_fract_z
Si Si1 0.335590 0.932733 0.046512
Si Si2 0.659502 0.667612 0.543158
Si Si3 0.170375 0.041116 0.784904
Si Si4 0.167891 0.162560 0.413825
Si Si5 0.085808 0.026470 0.082457
Si Si6 0.914155 0.967840 0.657015
Si Si7 0.787637 0.336271 0.880615
O O1 0.283976 0.892131 0.108259
O O2 0.403581 0.975888 0.087791
O O3 0.368197 0.868393 0.991104
O O4 0.292311 0.000000 0.000000
O O5 0.632628 0.750000 0.564710
O O6 0.742307 0.652071 0.577344
O O7 0.596339 0.616160 0.580711
O O8 0.660361 0.658418 0.453721
O O9 0.250000 0.013320 0.750000
O O10 0.171859 0.130862 0.805999
O O11 0.151015 0.004549 0.864204
O O12 0.104271 0.016472 0.729854
O O13 0.145616 0.250000 0.400506
O O14 0.136718 0.108655 0.348176
O O15 0.000000 0.006049 0.107464
O O16 0.103841 0.000000 0.000000
O O17 0.000000 0.940623 0.661178
O O18 0.762698 0.250000 0.866732
#
# Coordination Sequence:
#
# PCOD8300236 Si02
#       7
#    16  16  16  16  16  16  16
#     4   9  18  33  59  90 119 153 193 242 296 353
#     4   9  18  35  61  91 120 146 194 258 303 346
#     4  12  23  39  62  89 115 162 205 255 301 363
#     4   9  19  36  62  91 120 157 204 256 300 351
#     4  11  23  38  61  88 122 163 208 253 303 368
#     4  11  23  38  55  84 126 162 201 246 300 368
#     4  10  20  35  59  90 117 149 199 256 300 351
#
# _framework density 19.790772
#
# number of rings (size 3 to 8) (size 9 to 14) (size 15 to 20)
#    0.000    1.857    2.857    2.571    4.000    3.429 
#    0.000    0.714    0.000    9.000    0.000    0.000 
#    0.000    0.000    0.000    0.000    0.000    0.000 
#
# Total GULP energy -693794.044281 kJ/mol
# GULP energy per Si atom -12389.179362 kJ/mol
# Density = 1.974573 g / cm^3
# Si number density = 19.790772 Si / 1000 Ang^3
#
#
#
# Elastic Constant Matrix: (Units=GPa)
#
#
# Indices 1 2 3 4 5 6 
#
# 1 56.5252 39.1164 40.2242 0.0000 0.0000 0.0000
# 2 39.1164 144.1463 50.9193 0.0000 0.0000 0.0000
# 3 40.2242 50.9193 79.8152 0.0000 0.0000 0.0000
# 4 0.0000 0.0000 0.0000 30.7895 0.0000 0.0000
# 5 0.0000 0.0000 0.0000 0.0000 24.7473 0.0000
# 6 0.0000 0.0000 0.0000 0.0000 0.0000 19.3858
#
#
#
# Elastic Compliance Matrix: (Units=1/GPa)
#
#
# Indices 1 2 3 4 5 6 
#
# 1 0.028875 -0.003479 -0.012332 0.000000 0.000000 0.000000
# 2 -0.003479 0.009375 -0.004227 0.000000 0.000000 0.000000
# 3 -0.012332 -0.004227 0.021441 0.000000 0.000000 0.000000
# 4 0.000000 0.000000 0.000000 0.032479 0.000000 0.000000
# 5 0.000000 0.000000 0.000000 0.000000 0.040408 0.000000
# 6 0.000000 0.000000 0.000000 0.000000 0.000000 0.051584
#
#
# Mechanical properties :
#
#
# Convention : Reuss Voigt Hill
#
# Bulk Modulus (GPa) = 50.98744 60.11183 55.54963
# Shear Modulus (GPa) = 21.66593 24.99964 23.33278
#
# Velocity S-wave (km/s) = 3.31229 3.55800 3.43734
# Velocity P-wave (km/s) = 6.35984 6.87887 6.62444
#
# Compressibility (1/GPa) = 0.01961267
#
# Stress axis : x y z
#
# Youngs Moduli (GPa) = 34.63232 106.66807 46.63982
#
# Poissons Ratio (x) = 0.37113 0.57517
# Poissons Ratio (y) = 0.12050 0.19716
# Poissons Ratio (z) = 0.42709 0.45093
#
# Static dielectric constant tensor:
#      x y z
#    x 3.217170 0.000000 0.000000 
#    y 0.000000 3.836840 0.000000 
#    z 0.000000 0.000000 3.647480 
# 
# 
# High freq. dielectric constant tensor:
#      x y z
#    x 1.733200 0.000000 0.000000 
#    y 0.000000 1.780050 0.000000 
#    z 0.000000 0.000000 1.765040 
# 
# From -- ./inp_files/45440.got.cif
#   From: 2010.03.12/outbox.cif.g09.slc.cpg/sg74_23_cif.got.tgz:45440.got - 2010.04.16 15:46:19.
