data_PCOD8300407
_publ_section_title
;
Structure prediction by ZEFSAII (Michael W. Deem and Ramdas Pophale) SiO2 
 PCOD8300407
Probable space group: I M M A
;
_chemical_formula_sum "Si O2"
_cell_formula_units_Z 72
_cell_length_a 9.134033
_cell_length_b 22.322823
_cell_length_c 18.916484
_cell_angle_alpha 90.000000
_cell_angle_beta 90.000000
_cell_angle_gamma 90.000000
_cell_volume 3857.021941
_symmetry_space_group_name_H-M "I M M A"
_symmetry_group_IT_number 74
_symmetry_cell_setting 'orthorhombic'
loop_
_space_group_symop_operation_xyz
x,y,z
-x,1/2-y,z
x,-y,-z
-x,1/2+y,-z
-x,-y,-z
x,1/2+y,-z
-x,y,z
x,1/2-y,z
1/2+x,1/2+y,1/2+z
1/2-x,-y,1/2+z
1/2+x,1/2-y,1/2-z
1/2-x,y,1/2-z
1/2-x,1/2-y,1/2-z
1/2+x,y,1/2-z
1/2-x,1/2+y,1/2+z
1/2+x,-y,1/2+z
loop_
_atom_site_type_symbol
_atom_site_label
_atom_site_fract_x
_atom_site_fract_y
_atom_site_fract_z
Si Si1 0.170799 0.480525 0.923136
Si Si2 0.672712 0.140026 0.921125
Si Si3 0.173114 0.750000 0.324803
Si Si4 0.330837 0.320392 0.076221
Si Si5 0.328322 0.408341 0.324042
O O1 0.253018 0.421409 0.896664
O O2 0.208078 0.532735 0.868705
O O3 0.000000 0.465809 0.926792
O O4 0.229973 0.500000 0.000000
O O5 0.500000 0.132184 0.918101
O O6 0.724672 0.191693 0.867893
O O7 0.723798 0.157067 0.999950
O O8 0.250000 0.750000 0.250000
O O9 0.000000 0.750000 0.314157
O O10 0.500000 0.337468 0.088298
O O11 0.306672 0.250000 0.081264
O O12 0.232911 0.350293 0.136309
O O13 0.500000 0.399479 0.312359
O O14 0.250000 0.415955 0.250000
#
# Coordination Sequence:
#
# PCOD8300407 Si02
#       5
#    16  16   8  16  16
#     4  10  21  38  59  86 118 150 191 242 289 339
#     4  10  20  36  61  88 116 152 196 240 286 343
#     4  10  22  40  58  86 123 156 193 240 291 342
#     4  10  20  37  62  89 116 150 193 241 289 343
#     4  11  24  41  60  85 120 155 191 239 292 346
#
# _framework density 18.667251
#
# number of rings (size 3 to 8) (size 9 to 14) (size 15 to 20)
#    0.000    1.778    3.333    0.667    0.000    4.889 
#    0.000    4.444    0.000    0.000    0.000    0.000 
#    0.000    0.000    0.000    0.000    0.000    0.000 
#
# Total GULP energy -446586.711450 kJ/mol
# GULP energy per Si atom -12405.186429 kJ/mol
# Density = 1.862476 g / cm^3
# Si number density = 18.667251 Si / 1000 Ang^3
#
#
#
# Elastic Constant Matrix: (Units=GPa)
#
#
# Indices 1 2 3 4 5 6 
#
# 1 57.5904 46.4064 50.0223 0.0000 0.0000 0.0000
# 2 46.4064 113.1821 44.5267 0.0000 0.0000 0.0000
# 3 50.0223 44.5267 129.9756 0.0000 0.0000 0.0000
# 4 0.0000 0.0000 0.0000 28.0840 0.0000 0.0000
# 5 0.0000 0.0000 0.0000 0.0000 31.8609 0.0000
# 6 0.0000 0.0000 0.0000 0.0000 0.0000 27.7593
#
#
#
# Elastic Compliance Matrix: (Units=1/GPa)
#
#
# Indices 1 2 3 4 5 6 
#
# 1 0.033795 -0.010101 -0.009546 0.000000 0.000000 0.000000
# 2 -0.010101 0.013231 -0.000645 0.000000 0.000000 0.000000
# 3 -0.009546 -0.000645 0.011589 0.000000 0.000000 0.000000
# 4 0.000000 0.000000 0.000000 0.035607 0.000000 0.000000
# 5 0.000000 0.000000 0.000000 0.000000 0.031386 0.000000
# 6 0.000000 0.000000 0.000000 0.000000 0.000000 0.036024
#
#
# Mechanical properties :
#
#
# Convention : Reuss Voigt Hill
#
# Bulk Modulus (GPa) = 55.46256 64.73987 60.10122
# Shear Modulus (GPa) = 24.01239 28.19368 26.10303
#
# Velocity S-wave (km/s) = 3.59045 3.89051 3.74349
# Velocity P-wave (km/s) = 6.85303 7.41200 7.13799
#
# Compressibility (1/GPa) = 0.01803018
#
# Stress axis : x y z
#
# Youngs Moduli (GPa) = 29.59032 75.58206 86.29197
#
# Poissons Ratio (x) = 0.76345 0.82373
# Poissons Ratio (y) = 0.29889 0.05566
# Poissons Ratio (z) = 0.28247 0.04876
#
# Static dielectric constant tensor:
#      x y z
#    x 3.335690 0.000000 0.000000 
#    y 0.000000 3.595050 0.000000 
#    z 0.000000 0.000000 3.470790 
# 
# 
# High freq. dielectric constant tensor:
#      x y z
#    x 1.719110 0.000000 0.000000 
#    y 0.000000 1.738120 0.000000 
#    z 0.000000 0.000000 1.727550 
# 
# From -- ./inp_files/39449.got.cif
#   From: 2010.03.12/outbox.cif.g09.slc.cpg/sg74_20_cif.got.tgz:39449.got - 2010.04.16 15:46:19.
