data_PCOD8300846
_publ_section_title
;
Structure prediction by ZEFSAII (Michael W. Deem and Ramdas Pophale) SiO2 
 PCOD8300846
Probable space group: I M M A
;
_chemical_formula_sum "Si O2"
_cell_formula_units_Z 96
_cell_length_a 23.285413
_cell_length_b 9.222083
_cell_length_c 23.196773
_cell_angle_alpha 90.000000
_cell_angle_beta 90.000000
_cell_angle_gamma 90.000000
_cell_volume 4981.275298
_symmetry_space_group_name_H-M "I M M A"
_symmetry_group_IT_number 74
_symmetry_cell_setting 'orthorhombic'
loop_
_space_group_symop_operation_xyz
x,y,z
-x,1/2-y,z
x,-y,-z
-x,1/2+y,-z
-x,-y,-z
x,1/2+y,-z
-x,y,z
x,1/2-y,z
1/2+x,1/2+y,1/2+z
1/2-x,-y,1/2+z
1/2+x,1/2-y,1/2-z
1/2-x,y,1/2-z
1/2-x,1/2-y,1/2-z
1/2+x,y,1/2-z
1/2-x,1/2+y,1/2+z
1/2+x,-y,1/2+z
loop_
_atom_site_type_symbol
_atom_site_label
_atom_site_fract_x
_atom_site_fract_y
_atom_site_fract_z
Si Si1 0.270765 0.078009 0.440275
Si Si2 0.000000 0.087154 0.883533
Si Si3 0.500000 0.912604 0.246675
Si Si4 0.388618 0.080699 0.248799
Si Si5 0.167760 0.079828 0.363455
Si Si6 0.935511 0.920213 0.558827
Si Si7 0.887655 0.580264 0.880089
O O1 0.265769 0.250000 0.448801
O O2 0.225158 0.016741 0.393171
O O3 0.333868 0.034138 0.418680
O O4 0.257453 0.000000 0.500000
O O5 0.000000 0.250000 0.908991
O O6 0.000000 0.088365 0.815316
O O7 0.942818 0.004596 0.904825
O O8 0.500000 0.750000 0.221743
O O9 0.443881 0.995933 0.225200
O O10 0.403728 0.250000 0.244897
O O11 0.336367 0.040802 0.204924
O O12 0.372487 0.036858 0.313990
O O13 0.171330 0.250000 0.371175
O O14 0.109939 0.022487 0.394214
O O15 0.929239 0.750000 0.547627
O O16 0.000000 0.959133 0.580079
O O17 0.920500 0.000000 0.500000
O O18 0.901271 0.750000 0.884137
#
# Coordination Sequence:
#
# PCOD8300846 Si02
#       7
#    16   8   8  16  16  16  16
#     4  10  21  37  55  76 103 136 175 217 259 306
#     4   9  17  31  54  80 107 136 165 200 251 309
#     4   9  17  29  45  72 109 140 167 204 248 303
#     4   9  17  30  51  76 102 137 172 208 257 310
#     4   9  18  31  50  75 100 132 174 216 254 300
#     4   9  17  29  45  65  92 127 169 213 252 290
#     4   9  18  33  54  80 108 135 168 210 255 308
#
# _framework density 19.272172999999999
#
# number of rings (size 3 to 8) (size 9 to 14) (size 15 to 20)
#    0.000    2.833    0.000    1.000    1.167    3.333 
#    0.000    5.417    0.000    0.000    0.000    5.833 
#    0.000    0.000    0.000    0.000    0.000    0.000 
#
# Total GULP energy -594990.235874 kJ/mol
# GULP energy per Si atom -12395.629914 kJ/mol
# Density = 1.922831 g / cm^3
# Si number density = 19.272173 Si / 1000 Ang^3
#
#
#
# Elastic Constant Matrix: (Units=GPa)
#
#
# Indices 1 2 3 4 5 6 
#
# 1 106.2206 28.5772 25.4384 0.0000 0.0000 0.0000
# 2 28.5772 43.5901 15.0507 0.0000 0.0000 0.0000
# 3 25.4384 15.0507 46.3588 0.0000 0.0000 0.0000
# 4 0.0000 0.0000 0.0000 21.7033 0.0000 0.0000
# 5 0.0000 0.0000 0.0000 0.0000 31.1103 0.0000
# 6 0.0000 0.0000 0.0000 0.0000 0.0000 14.8440
#
#
#
# Elastic Compliance Matrix: (Units=1/GPa)
#
#
# Indices 1 2 3 4 5 6 
#
# 1 0.012256 -0.006434 -0.004636 0.000000 0.000000 0.000000
# 2 -0.006434 0.029215 -0.005954 0.000000 0.000000 0.000000
# 3 -0.004636 -0.005954 0.026048 0.000000 0.000000 0.000000
# 4 0.000000 0.000000 0.000000 0.046076 0.000000 0.000000
# 5 0.000000 0.000000 0.000000 0.000000 0.032144 0.000000
# 6 0.000000 0.000000 0.000000 0.000000 0.000000 0.067367
#
#
# Mechanical properties :
#
#
# Convention : Reuss Voigt Hill
#
# Bulk Modulus (GPa) = 29.87784 37.14470 33.51127
# Shear Modulus (GPa) = 19.35652 22.00507 20.68079
#
# Velocity S-wave (km/s) = 3.17263 3.38273 3.27936
# Velocity P-wave (km/s) = 5.38122 5.87986 5.63605
#
# Compressibility (1/GPa) = 0.03346962
#
# Stress axis : x y z
#
# Youngs Moduli (GPa) = 81.59515 34.22907 38.39060
#
# Poissons Ratio (x) = 0.22023 0.17799
# Poissons Ratio (y) = 0.52497 0.22859
# Poissons Ratio (z) = 0.37829 0.20381
#
# Static dielectric constant tensor:
#      x y z
#    x 3.699290 0.000000 0.000000 
#    y 0.000000 3.329950 0.000000 
#    z 0.000000 0.000000 3.439880 
# 
# 
# High freq. dielectric constant tensor:
#      x y z
#    x 1.751740 0.000000 0.000000 
#    y 0.000000 1.721060 0.000000 
#    z 0.000000 0.000000 1.740540 
# 
# From -- ./inp_files/61935.got.cif
#   From: 2010.03.12/outbox.cif.g09.slc.cpg/sg74_31_cif.got.tgz:61935.got - 2010.04.16 15:46:19.
