data_PCOD8300645
_publ_section_title
;
Structure prediction by ZEFSAII (Michael W. Deem and Ramdas Pophale) SiO2 
 PCOD8300645
Probable space group: I M M A
;
_chemical_formula_sum "Si O2"
_cell_formula_units_Z 84
_cell_length_a 14.761506
_cell_length_b 20.466357
_cell_length_c 13.571838
_cell_angle_alpha 90.000000
_cell_angle_beta 90.000000
_cell_angle_gamma 90.000000
_cell_volume 4100.245681
_symmetry_space_group_name_H-M "I M M A"
_symmetry_group_IT_number 74
_symmetry_cell_setting 'orthorhombic'
loop_
_space_group_symop_operation_xyz
x,y,z
-x,1/2-y,z
x,-y,-z
-x,1/2+y,-z
-x,-y,-z
x,1/2+y,-z
-x,y,z
x,1/2-y,z
1/2+x,1/2+y,1/2+z
1/2-x,-y,1/2+z
1/2+x,1/2-y,1/2-z
1/2-x,y,1/2-z
1/2-x,1/2-y,1/2-z
1/2+x,y,1/2-z
1/2-x,1/2+y,1/2+z
1/2+x,-y,1/2+z
loop_
_atom_site_type_symbol
_atom_site_label
_atom_site_fract_x
_atom_site_fract_y
_atom_site_fract_z
Si Si1 0.655105 0.872178 0.104497
Si Si2 0.601434 0.750000 0.219502
Si Si3 0.000000 0.373999 0.047201
Si Si4 0.000000 0.901101 0.735365
Si Si5 0.500000 0.750000 0.409508
Si Si6 0.144957 0.988949 0.254478
Si Si7 0.832807 0.563869 0.049497
Si Si8 0.500000 0.827492 0.963981
O O1 0.655484 0.813942 0.184791
O O2 0.624001 0.938883 0.157045
O O3 0.756732 0.880384 0.062910
O O4 0.589339 0.856346 0.014699
O O5 0.500000 0.750000 0.169980
O O6 0.589357 0.750000 0.338675
O O7 0.000000 0.359343 0.163649
O O8 0.000000 0.310893 0.980244
O O9 0.090195 0.414444 0.025807
O O10 0.000000 0.848602 0.649113
O O11 0.088556 0.946045 0.727938
O O12 0.250000 0.008663 0.250000
O O13 0.118636 0.952926 0.152966
O O14 0.786420 0.500000 0.000000
O O15 0.500000 0.750000 0.968797
#
# Coordination Sequence:
#
# PCOD8300645 Si02
#       8
#    16   8   8   8   4  16  16   8
#     4  11  22  41  70  98 133 164 220 276 335 394
#     4  10  20  43  67  98 135 167 209 274 334 387
#     4  12  24  45  63  95 135 180 222 262 321 393
#     4  12  26  39  69  85 134 180 217 267 324 378
#     4  10  24  40  74  98 130 176 230 260 330 408
#     4  10  23  40  63 105 130 161 214 271 331 398
#     4  11  23  41  68  99 138 174 212 268 334 400
#     4  12  26  46  67  94 126 178 227 274 336 386
#
# _framework density 20.486577
#
# number of rings (size 3 to 8) (size 9 to 14) (size 15 to 20)
#    0.286    0.762    3.810    2.571    6.000    1.524 
#    0.000    5.238    0.000    1.714    0.000    0.000 
#    0.000    0.000    0.000    0.000    0.000    0.000 
#
# Total GULP energy -520895.320851 kJ/mol
# GULP energy per Si atom -12402.269544 kJ/mol
# Density = 2.043995 g / cm^3
# Si number density = 20.486577 Si / 1000 Ang^3
#
#
#
# Elastic Constant Matrix: (Units=GPa)
#
#
# Indices 1 2 3 4 5 6 
#
# 1 102.3613 61.6443 49.9902 0.0000 0.0000 0.0000
# 2 61.6443 105.0931 55.9107 0.0000 0.0000 0.0000
# 3 49.9902 55.9107 157.6694 0.0000 0.0000 0.0001
# 4 0.0000 0.0000 0.0000 48.6777 0.0000 0.0000
# 5 0.0000 0.0000 0.0000 0.0000 34.9704 0.0000
# 6 0.0000 0.0000 0.0001 0.0000 0.0000 57.8297
#
#
#
# Elastic Compliance Matrix: (Units=1/GPa)
#
#
# Indices 1 2 3 4 5 6 
#
# 1 0.015652 -0.008061 -0.002104 0.000000 0.000000 0.000000
# 2 -0.008061 0.015880 -0.003075 0.000000 0.000000 0.000000
# 3 -0.002104 -0.003075 0.008100 0.000000 0.000000 0.000000
# 4 0.000000 0.000000 0.000000 0.020543 0.000000 0.000000
# 5 0.000000 0.000000 0.000000 0.000000 0.028596 0.000000
# 6 0.000000 0.000000 0.000000 0.000000 0.000000 0.017292
#
#
# Mechanical properties :
#
#
# Convention : Reuss Voigt Hill
#
# Bulk Modulus (GPa) = 76.04258 77.80157 76.92207
# Shear Modulus (GPa) = 36.51582 41.46748 38.99165
#
# Velocity S-wave (km/s) = 4.22646 4.50391 4.36739
# Velocity P-wave (km/s) = 7.81128 8.06885 7.94111
#
# Compressibility (1/GPa) = 0.01315053
#
# Stress axis : x y z
#
# Youngs Moduli (GPa) = 63.89148 62.97214 123.45830
#
# Poissons Ratio (x) = 0.50765 0.25973
# Poissons Ratio (y) = 0.51506 0.37966
# Poissons Ratio (z) = 0.13441 0.19365
#
# Static dielectric constant tensor:
#      x y z
#    x 3.715580 0.000000 0.000000 
#    y 0.000000 3.753670 0.000000 
#    z 0.000000 0.000000 3.859870 
# 
# 
# High freq. dielectric constant tensor:
#      x y z
#    x 1.799410 0.000000 0.000000 
#    y 0.000000 1.791810 0.000000 
#    z 0.000000 0.000000 1.810090 
# 
# From -- ./inp_files/32291.got.cif
#   From: 2010.03.12/outbox.cif.g09.slc.cpg/sg74_17_cif.got.tgz:32291.got - 2010.04.16 15:46:19.
