data_PCOD8300792
_publ_section_title
;
Structure prediction by ZEFSAII (Michael W. Deem and Ramdas Pophale) SiO2 
 PCOD8300792
Probable space group: I M M A
;
_chemical_formula_sum "Si O2"
_cell_formula_units_Z 112
_cell_length_a 15.660924
_cell_length_b 14.720131
_cell_length_c 26.260304
_cell_angle_alpha 90.000000
_cell_angle_beta 90.000000
_cell_angle_gamma 90.000000
_cell_volume 6053.810278
_symmetry_space_group_name_H-M "I M M A"
_symmetry_group_IT_number 74
_symmetry_cell_setting 'orthorhombic'
loop_
_space_group_symop_operation_xyz
x,y,z
-x,1/2-y,z
x,-y,-z
-x,1/2+y,-z
-x,-y,-z
x,1/2+y,-z
-x,y,z
x,1/2-y,z
1/2+x,1/2+y,1/2+z
1/2-x,-y,1/2+z
1/2+x,1/2-y,1/2-z
1/2-x,y,1/2-z
1/2-x,1/2-y,1/2-z
1/2+x,y,1/2-z
1/2-x,1/2+y,1/2+z
1/2+x,-y,1/2+z
loop_
_atom_site_type_symbol
_atom_site_label
_atom_site_fract_x
_atom_site_fract_y
_atom_site_fract_z
Si Si1 0.905512 0.848819 0.343085
Si Si2 0.900679 0.645422 0.548395
Si Si3 0.750196 0.471412 0.405749
Si Si4 0.806923 0.504736 0.294783
Si Si5 0.402833 0.856448 0.621051
Si Si6 0.097645 0.853420 0.761387
Si Si7 0.697081 0.149297 0.945893
O O1 0.895185 0.750000 0.317246
O O2 0.848569 0.855960 0.392426
O O3 0.000000 0.866145 0.362669
O O4 0.883129 0.923826 0.301357
O O5 0.891410 0.750000 0.566301
O O6 0.837910 0.582818 0.581906
O O7 0.872363 0.634934 0.489880
O O8 0.000000 0.614245 0.554028
O O9 0.752947 0.496035 0.346312
O O10 0.665258 0.410443 0.414194
O O11 0.739678 0.561507 0.442256
O O12 0.750000 0.546499 0.250000
O O13 0.842893 0.408114 0.276996
O O14 0.500000 0.883024 0.605646
O O15 0.388243 0.750000 0.611854
O O16 0.387147 0.881457 0.680077
O O17 0.123846 0.750000 0.753163
O O18 0.000000 0.869995 0.746211
O O19 0.741550 0.250000 0.952297
#
# Coordination Sequence:
#
# PCOD8300792 Si02
#       7
#    16  16  16  16  16  16  16
#     4   9  18  33  53  74  97 132 178 220 256 306
#     4  10  21  36  55  83 118 147 172 211 266 328
#     4  11  21  33  54  80 106 139 184 225 265 315
#     4  11  21  32  46  72 104 137 170 215 269 314
#     4   9  18  34  54  74  98 134 180 224 264 310
#     4   9  18  32  49  67  93 134 176 210 252 311
#     4   9  19  35  55  78 108 144 175 208 261 328
#
# _framework density 18.500744999999998
#
# number of rings (size 3 to 8) (size 9 to 14) (size 15 to 20)
#    0.000    2.286    1.429    2.571    0.000    7.429 
#    0.000    1.429    0.000    2.143    0.000    2.000 
#    0.000    0.000    0.000    0.000    0.000    0.000 
#
# Total GULP energy -693940.354915 kJ/mol
# GULP energy per Si atom -12391.792052 kJ/mol
# Density = 1.845864 g / cm^3
# Si number density = 18.500745 Si / 1000 Ang^3
#
#
#
# Elastic Constant Matrix: (Units=GPa)
#
#
# Indices 1 2 3 4 5 6 
#
# 1 78.1252 44.9830 21.0787 0.0000 0.0000 0.0000
# 2 44.9830 94.1661 27.0993 0.0000 0.0000 0.0000
# 3 21.0787 27.0993 47.8510 0.0000 0.0000 0.0000
# 4 0.0000 0.0000 0.0000 24.0164 0.0000 0.0000
# 5 0.0000 0.0000 0.0000 0.0000 18.2899 0.0000
# 6 0.0000 0.0000 0.0000 0.0000 0.0000 31.1236
#
#
#
# Elastic Compliance Matrix: (Units=1/GPa)
#
#
# Indices 1 2 3 4 5 6 
#
# 1 0.018187 -0.007625 -0.003693 0.000000 0.000000 0.000000
# 2 -0.007625 0.015884 -0.005637 0.000000 0.000000 0.000000
# 3 -0.003693 -0.005637 0.025717 0.000000 0.000000 0.000000
# 4 0.000000 0.000000 0.000000 0.041638 0.000000 0.000000
# 5 0.000000 0.000000 0.000000 0.000000 0.054675 0.000000
# 6 0.000000 0.000000 0.000000 0.000000 0.000000 0.032130
#
#
# Mechanical properties :
#
#
# Convention : Reuss Voigt Hill
#
# Bulk Modulus (GPa) = 38.64226 45.16271 41.90249
# Shear Modulus (GPa) = 21.66686 23.15139 22.40913
#
# Velocity S-wave (km/s) = 3.42590 3.54132 3.48409
# Velocity P-wave (km/s) = 6.04824 6.41760 6.23565
#
# Compressibility (1/GPa) = 0.02587840
#
# Stress axis : x y z
#
# Youngs Moduli (GPa) = 54.98529 62.95600 38.88426
#
# Poissons Ratio (x) = 0.48003 0.14361
# Poissons Ratio (y) = 0.41926 0.21918
# Poissons Ratio (z) = 0.20307 0.35487
#
# Static dielectric constant tensor:
#      x y z
#    x 3.393670 0.000000 0.000000 
#    y 0.000000 3.944540 0.000000 
#    z 0.000000 0.000000 3.272140 
# 
# 
# High freq. dielectric constant tensor:
#      x y z
#    x 1.698270 0.000000 0.000000 
#    y 0.000000 1.727970 0.000000 
#    z 0.000000 0.000000 1.700790 
# 
# From -- ./inp_files/67176.got.cif
#   From: 2010.03.12/outbox.cif.g09.slc.cpg/sg74_34_cif.got.tgz:67176.got - 2010.04.16 15:46:19.
