data_PCOD8300309
_publ_section_title
;
Structure prediction by ZEFSAII (Michael W. Deem and Ramdas Pophale) SiO2 
 PCOD8300309
Probable space group: I M M A
;
_chemical_formula_sum "Si O2"
_cell_formula_units_Z 72
_cell_length_a 29.785381
_cell_length_b 10.245779
_cell_length_c 12.285193
_cell_angle_alpha 90.000000
_cell_angle_beta 90.000000
_cell_angle_gamma 90.000000
_cell_volume 3749.126785
_symmetry_space_group_name_H-M "I M M A"
_symmetry_group_IT_number 74
_symmetry_cell_setting 'orthorhombic'
loop_
_space_group_symop_operation_xyz
x,y,z
-x,1/2-y,z
x,-y,-z
-x,1/2+y,-z
-x,-y,-z
x,1/2+y,-z
-x,y,z
x,1/2-y,z
1/2+x,1/2+y,1/2+z
1/2-x,-y,1/2+z
1/2+x,1/2-y,1/2-z
1/2-x,y,1/2-z
1/2-x,1/2-y,1/2-z
1/2+x,y,1/2-z
1/2-x,1/2+y,1/2+z
1/2+x,-y,1/2+z
loop_
_atom_site_type_symbol
_atom_site_label
_atom_site_fract_x
_atom_site_fract_y
_atom_site_fract_z
Si Si1 0.800461 0.750000 0.710082
Si Si2 0.117065 0.750000 0.113485
Si Si3 0.389393 0.750000 0.640828
Si Si4 0.801029 0.250000 0.719779
Si Si5 0.000000 0.589619 0.389198
Si Si6 0.419422 0.989456 0.268882
Si Si7 0.664903 0.499984 0.119966
O O1 0.750000 0.750000 0.750000
O O2 0.840785 0.750000 0.799409
O O3 0.803376 0.623988 0.634316
O O4 0.164985 0.750000 0.176632
O O5 0.086895 0.625066 0.143821
O O6 0.125035 0.750000 0.985127
O O7 0.422470 0.872231 0.668292
O O8 0.750000 0.250000 0.750000
O O9 0.806495 0.372650 0.642081
O O10 0.000000 0.500000 0.500000
O O11 0.958344 0.547072 0.315283
O O12 0.000000 0.750000 0.412675
O O13 0.375503 0.006382 0.200453
O O14 0.644562 0.500000 0.000000
#
# Coordination Sequence:
#
# PCOD8300309 Si02
#       7
#     8   8   8   8   8  16  16
#     4  10  21  37  55  85 121 151 204 258 290 348
#     4  10  20  40  61  84 123 168 208 247 304 360
#     4  10  22  38  63  88 121 172 210 245 302 364
#     4  10  21  35  55  85 119 153 202 256 298 358
#     4  12  26  44  69  97 126 158 195 253 321 376
#     4  10  22  41  61  89 124 153 202 254 299 369
#     4  10  20  36  57  82 114 154 191 240 308 366
#
# _framework density 19.204471000000002
#
# number of rings (size 3 to 8) (size 9 to 14) (size 15 to 20)
#    0.000    1.778    1.111    2.667    1.556    1.778 
#    4.000    3.333    0.000    0.000    0.000    0.000 
#    0.000    0.000    0.000    0.000    0.000    0.000 
#
# Total GULP energy -446005.248500 kJ/mol
# GULP energy per Si atom -12389.034681 kJ/mol
# Density = 1.916076 g / cm^3
# Si number density = 19.204471 Si / 1000 Ang^3
#
#
#
# Elastic Constant Matrix: (Units=GPa)
#
#
# Indices 1 2 3 4 5 6 
#
# 1 57.5776 34.1214 -1.8206 0.0000 0.0000 0.0000
# 2 34.1214 189.6783 51.3174 0.0000 0.0000 0.0000
# 3 -1.8206 51.3174 100.0713 0.0000 0.0000 0.0000
# 4 0.0000 0.0000 0.0000 22.6124 0.0000 0.0000
# 5 0.0000 0.0000 0.0000 0.0000 97.7878 0.0000
# 6 0.0000 0.0000 0.0000 0.0000 0.0000 36.8117
#
#
#
# Elastic Compliance Matrix: (Units=1/GPa)
#
#
# Indices 1 2 3 4 5 6 
#
# 1 0.019991 -0.004290 0.002564 0.000000 0.000000 0.000000
# 2 -0.004290 0.007042 -0.003689 0.000000 0.000000 0.000000
# 3 0.002564 -0.003689 0.011931 0.000000 0.000000 0.000000
# 4 0.000000 0.000000 0.000000 0.044224 0.000000 0.000000
# 5 0.000000 0.000000 0.000000 0.000000 0.010226 0.000000
# 6 0.000000 0.000000 0.000000 0.000000 0.000000 0.027165
#
#
# Mechanical properties :
#
#
# Convention : Reuss Voigt Hill
#
# Bulk Modulus (GPa) = 35.54484 57.17374 46.35929
# Shear Modulus (GPa) = 35.51439 49.02299 42.26869
#
# Velocity S-wave (km/s) = 4.30499 5.05789 4.69655
# Velocity P-wave (km/s) = 6.57719 7.99659 7.32136
#
# Compressibility (1/GPa) = 0.02813348
#
# Stress axis : x y z
#
# Youngs Moduli (GPa) = 50.02226 142.00749 83.81276
#
# Poissons Ratio (x) = 0.60918 -0.21486
# Poissons Ratio (y) = 0.21458 0.30920
# Poissons Ratio (z) = -0.12823 0.52389
#
# Static dielectric constant tensor:
#      x y z
#    x 2.661290 0.000000 0.000000 
#    y 0.000000 4.474140 0.000000 
#    z 0.000000 0.000000 3.481170 
# 
# 
# High freq. dielectric constant tensor:
#      x y z
#    x 1.734580 0.000000 0.000000 
#    y 0.000000 1.776300 0.000000 
#    z 0.000000 0.000000 1.748620 
# 
# From -- ./inp_files/26889.got.cif
#   From: 2010.03.12/outbox.cif.g09.slc.cpg/sg74_14_cif.got.tgz:26889.got - 2010.04.16 15:46:19.
