data_PCOD8300814
_publ_section_title
;
Structure prediction by ZEFSAII (Michael W. Deem and Ramdas Pophale) SiO2 
 PCOD8300814
Probable space group: I M M A
;
_chemical_formula_sum "Si O2"
_cell_formula_units_Z 80
_cell_length_a 15.659064
_cell_length_b 9.112795
_cell_length_c 28.865270
_cell_angle_alpha 90.000000
_cell_angle_beta 90.000000
_cell_angle_gamma 90.000000
_cell_volume 4119.011684
_symmetry_space_group_name_H-M "I M M A"
_symmetry_group_IT_number 74
_symmetry_cell_setting 'orthorhombic'
loop_
_space_group_symop_operation_xyz
x,y,z
-x,1/2-y,z
x,-y,-z
-x,1/2+y,-z
-x,-y,-z
x,1/2+y,-z
-x,y,z
x,1/2-y,z
1/2+x,1/2+y,1/2+z
1/2-x,-y,1/2+z
1/2+x,1/2-y,1/2-z
1/2-x,y,1/2-z
1/2-x,1/2-y,1/2-z
1/2+x,y,1/2-z
1/2-x,1/2+y,1/2+z
1/2+x,-y,1/2+z
loop_
_atom_site_type_symbol
_atom_site_label
_atom_site_fract_x
_atom_site_fract_y
_atom_site_fract_z
Si Si1 0.500000 0.925127 0.278957
Si Si2 0.500000 0.423630 0.616912
Si Si3 0.842393 0.421070 0.268936
Si Si4 0.834768 0.421641 0.546362
Si Si5 0.860749 0.921997 0.046101
Si Si6 0.097400 0.414680 0.367973
O O1 0.500000 0.750000 0.276500
O O2 0.500000 0.987301 0.331437
O O3 0.414425 0.982719 0.255292
O O4 0.500000 0.250000 0.619679
O O5 0.415744 0.478367 0.589696
O O6 0.861039 0.250000 0.259109
O O7 0.750000 0.469018 0.250000
O O8 0.843538 0.453586 0.323971
O O9 0.868997 0.500000 0.500000
O O10 0.847970 0.250000 0.539535
O O11 0.736851 0.465252 0.555797
O O12 0.888204 0.473117 0.590414
O O13 0.872328 0.750000 0.038277
O O14 0.895012 0.000000 0.000000
O O15 0.117424 0.250000 0.385639
O O16 0.000000 0.427925 0.350976
#
# Coordination Sequence:
#
# PCOD8300814 Si02
#       6
#     8   8  16  16  16  16
#     4  11  23  38  60  90 125 157 194 248 297 354
#     4   9  19  34  52  78 116 153 183 226 285 330
#     4  10  22  42  65  87 118 160 201 247 300 354
#     4  10  21  36  57  84 114 147 187 233 282 341
#     4   9  18  34  54  77 110 149 187 229 275 329
#     4  10  21  39  61  83 112 147 185 235 290 343
#
# _framework density 19.422134
#
# number of rings (size 3 to 8) (size 9 to 14) (size 15 to 20)
#    0.000    2.200    1.000    1.200    2.800    2.800 
#    0.000    2.000    0.000    0.000    0.000    0.000 
#    0.000    0.000    0.000    0.000    0.000    0.000 
#
# Total GULP energy -496094.570091 kJ/mol
# GULP energy per Si atom -12402.364252 kJ/mol
# Density = 1.937793 g / cm^3
# Si number density = 19.422134 Si / 1000 Ang^3
#
#
#
# Elastic Constant Matrix: (Units=GPa)
#
#
# Indices 1 2 3 4 5 6 
#
# 1 94.3556 38.5450 55.0128 0.0000 0.0000 0.0000
# 2 38.5450 68.9886 52.3476 0.0000 0.0000 0.0000
# 3 55.0128 52.3476 141.5510 0.0000 0.0000 0.0000
# 4 0.0000 0.0000 0.0000 33.2538 0.0000 0.0000
# 5 0.0000 0.0000 0.0000 0.0000 33.9989 0.0000
# 6 0.0000 0.0000 0.0000 0.0000 0.0000 23.7437
#
#
#
# Elastic Compliance Matrix: (Units=1/GPa)
#
#
# Indices 1 2 3 4 5 6 
#
# 1 0.015083 -0.005531 -0.003816 0.000000 0.000000 0.000000
# 2 -0.005531 0.022178 -0.006052 0.000000 0.000000 0.000000
# 3 -0.003816 -0.006052 0.010786 0.000000 0.000000 0.000000
# 4 0.000000 0.000000 0.000000 0.030072 0.000000 0.000000
# 5 0.000000 0.000000 0.000000 0.000000 0.029413 0.000000
# 6 0.000000 0.000000 0.000000 0.000000 0.000000 0.042116
#
#
# Mechanical properties :
#
#
# Convention : Reuss Voigt Hill
#
# Bulk Modulus (GPa) = 57.97982 66.30066 62.14024
# Shear Modulus (GPa) = 26.85352 28.79860 27.82606
#
# Velocity S-wave (km/s) = 3.72240 3.85486 3.78921
# Velocity P-wave (km/s) = 6.95646 7.35010 7.15598
#
# Compressibility (1/GPa) = 0.01724738
#
# Stress axis : x y z
#
# Youngs Moduli (GPa) = 66.30069 45.09036 92.71399
#
# Poissons Ratio (x) = 0.24941 0.35382
# Poissons Ratio (y) = 0.36673 0.56110
# Poissons Ratio (z) = 0.25302 0.27288
#
# Static dielectric constant tensor:
#      x y z
#    x 3.599120 0.000000 0.000000 
#    y 0.000000 3.373840 0.000000 
#    z 0.000000 0.000000 3.677090 
# 
# 
# High freq. dielectric constant tensor:
#      x y z
#    x 1.758620 0.000000 0.000000 
#    y 0.000000 1.743580 0.000000 
#    z 0.000000 0.000000 1.764170 
# 
# From -- ./inp_files/67551.got.cif
#   From: 2010.03.12/outbox.cif.g09.slc.cpg/sg74_34_cif.got.tgz:67551.got - 2010.04.16 15:46:19.
