data_PCOD8300367
_publ_section_title
;
Structure prediction by ZEFSAII (Michael W. Deem and Ramdas Pophale) SiO2 
 PCOD8300367
Probable space group: I M M A
;
_chemical_formula_sum "Si O2"
_cell_formula_units_Z 96
_cell_length_a 27.154867
_cell_length_b 8.942770
_cell_length_c 20.487887
_cell_angle_alpha 90.000000
_cell_angle_beta 90.000000
_cell_angle_gamma 90.000000
_cell_volume 4975.272947
_symmetry_space_group_name_H-M "I M M A"
_symmetry_group_IT_number 74
_symmetry_cell_setting 'orthorhombic'
loop_
_space_group_symop_operation_xyz
x,y,z
-x,1/2-y,z
x,-y,-z
-x,1/2+y,-z
-x,-y,-z
x,1/2+y,-z
-x,y,z
x,1/2-y,z
1/2+x,1/2+y,1/2+z
1/2-x,-y,1/2+z
1/2+x,1/2-y,1/2-z
1/2-x,y,1/2-z
1/2-x,1/2-y,1/2-z
1/2+x,y,1/2-z
1/2-x,1/2+y,1/2+z
1/2+x,-y,1/2+z
loop_
_atom_site_type_symbol
_atom_site_label
_atom_site_fract_x
_atom_site_fract_y
_atom_site_fract_z
Si Si1 0.717699 0.422882 0.813686
Si Si2 0.056574 0.074297 0.567568
Si Si3 0.283875 0.074521 0.565774
Si Si4 0.395875 0.073979 0.566534
Si Si5 0.114400 0.926038 0.684244
Si Si6 0.943043 0.078678 0.187247
O O1 0.701410 0.250000 0.820582
O O2 0.750000 0.447158 0.750000
O O3 0.749809 0.477398 0.874944
O O4 0.670917 0.528885 0.809156
O O5 0.064722 0.250000 0.561399
O O6 0.000000 0.033626 0.583289
O O7 0.073366 0.000000 0.500000
O O8 0.090609 0.011555 0.624106
O O9 0.281794 0.250000 0.555919
O O10 0.339747 0.022449 0.580184
O O11 0.263389 0.000000 0.500000
O O12 0.400405 0.250000 0.558940
O O13 0.415589 0.000000 0.500000
O O14 0.429691 0.022304 0.625777
O O15 0.109154 0.750000 0.672592
O O16 0.087227 0.976937 0.750152
O O17 0.930358 0.250000 0.170409
O O18 0.000000 0.057440 0.204296
#
# Coordination Sequence:
#
# PCOD8300367 Si02
#       6
#    16  16  16  16  16  16
#     4  10  21  38  58  80 110 147 188 235 282 330
#     4  10  21  38  61  87 115 149 189 232 280 337
#     4   9  19  35  56  81 109 142 178 221 272 324
#     4  10  20  36  59  85 112 144 183 226 275 330
#     4  11  23  38  58  84 115 150 188 234 285 337
#     4  10  22  39  57  79 110 147 186 229 276 326
#
# _framework density 19.295425000000002
#
# number of rings (size 3 to 8) (size 9 to 14) (size 15 to 20)
#    0.000    2.000    0.000    3.000    0.000    7.333 
#    0.000    1.667    0.000    0.000    0.000    0.000 
#    0.000    0.000    0.000    0.000    0.000    0.000 
#
# Total GULP energy -595461.630810 kJ/mol
# GULP energy per Si atom -12405.450642 kJ/mol
# Density = 1.925151 g / cm^3
# Si number density = 19.295425 Si / 1000 Ang^3
#
#
#
# Elastic Constant Matrix: (Units=GPa)
#
#
# Indices 1 2 3 4 5 6 
#
# 1 72.8214 27.3366 46.2148 0.0000 0.0000 0.0000
# 2 27.3366 61.0876 42.4374 0.0000 0.0000 0.0000
# 3 46.2148 42.4374 138.5507 0.0000 0.0000 0.0000
# 4 0.0000 0.0000 0.0000 33.6542 0.0000 0.0000
# 5 0.0000 0.0000 0.0000 0.0000 26.8755 0.0000
# 6 0.0000 0.0000 0.0000 0.0000 0.0000 33.7985
#
#
#
# Elastic Compliance Matrix: (Units=1/GPa)
#
#
# Indices 1 2 3 4 5 6 
#
# 1 0.018590 -0.005095 -0.004640 0.000000 0.000000 0.000000
# 2 -0.005095 0.022191 -0.005097 0.000000 0.000000 0.000000
# 3 -0.004640 -0.005097 0.010327 0.000000 0.000000 0.000000
# 4 0.000000 0.000000 0.000000 0.029714 0.000000 0.000000
# 5 0.000000 0.000000 0.000000 0.000000 0.037209 0.000000
# 6 0.000000 0.000000 0.000000 0.000000 0.000000 0.029587
#
#
# Mechanical properties :
#
#
# Convention : Reuss Voigt Hill
#
# Bulk Modulus (GPa) = 46.63791 56.04858 51.34324
# Shear Modulus (GPa) = 27.11047 29.29703 28.20375
#
# Velocity S-wave (km/s) = 3.75243 3.90082 3.82734
# Velocity P-wave (km/s) = 6.55722 7.02845 6.79692
#
# Compressibility (1/GPa) = 0.02144179
#
# Stress axis : x y z
#
# Youngs Moduli (GPa) = 53.79311 45.06266 96.83697
#
# Poissons Ratio (x) = 0.22961 0.44933
# Poissons Ratio (y) = 0.27410 0.49362
# Poissons Ratio (z) = 0.24960 0.22971
#
# Static dielectric constant tensor:
#      x y z
#    x 3.511090 0.000000 0.000000 
#    y 0.000000 3.500870 0.000000 
#    z 0.000000 0.000000 3.636970 
# 
# 
# High freq. dielectric constant tensor:
#      x y z
#    x 1.750660 0.000000 0.000000 
#    y 0.000000 1.751910 0.000000 
#    z 0.000000 0.000000 1.765180 
# 
# From -- ./inp_files/49035.got.cif
#   From: 2010.03.12/outbox.cif.g09.slc.cpg/sg74_25_cif.got.tgz:49035.got - 2010.04.16 15:46:19.
