data_PCOD8300138
_publ_section_title
;
Structure prediction by ZEFSAII (Michael W. Deem and Ramdas Pophale) SiO2 
 PCOD8300138
Probable space group: I M M A
;
_chemical_formula_sum "Si O2"
_cell_formula_units_Z 112
_cell_length_a 26.305737
_cell_length_b 19.255580
_cell_length_c 11.234256
_cell_angle_alpha 90.000000
_cell_angle_beta 90.000000
_cell_angle_gamma 90.000000
_cell_volume 5690.512668
_symmetry_space_group_name_H-M "I M M A"
_symmetry_group_IT_number 74
_symmetry_cell_setting 'orthorhombic'
loop_
_space_group_symop_operation_xyz
x,y,z
-x,1/2-y,z
x,-y,-z
-x,1/2+y,-z
-x,-y,-z
x,1/2+y,-z
-x,y,z
x,1/2-y,z
1/2+x,1/2+y,1/2+z
1/2-x,-y,1/2+z
1/2+x,1/2-y,1/2-z
1/2-x,y,1/2-z
1/2-x,1/2-y,1/2-z
1/2+x,y,1/2-z
1/2-x,1/2+y,1/2+z
1/2+x,-y,1/2+z
loop_
_atom_site_type_symbol
_atom_site_label
_atom_site_fract_x
_atom_site_fract_y
_atom_site_fract_z
Si Si1 0.602752 0.170773 0.469407
Si Si2 0.944043 0.167721 0.267758
Si Si3 0.696844 0.170367 0.616885
Si Si4 0.231771 0.042442 0.619841
Si Si5 0.940294 0.670825 0.471804
Si Si6 0.630361 0.910585 0.201917
Si Si7 0.558127 0.948769 0.394144
O O1 0.584617 0.250000 0.481407
O O2 0.594934 0.143421 0.334301
O O3 0.662462 0.162762 0.498224
O O4 0.566413 0.129567 0.559745
O O5 0.947601 0.250000 0.277927
O O6 0.926560 0.140751 0.397022
O O7 0.000000 0.137911 0.235248
O O8 0.715398 0.250000 0.633689
O O9 0.745243 0.120092 0.606181
O O10 0.661613 0.148096 0.727054
O O11 0.250000 0.011226 0.750000
O O12 0.170566 0.045671 0.623819
O O13 0.248109 0.000000 0.500000
O O14 0.922282 0.750000 0.458169
O O15 0.911153 0.624783 0.378874
O O16 0.000000 0.664222 0.447553
O O17 0.598363 0.962311 0.287978
O O18 0.500000 0.959014 0.351686
O O19 0.573137 0.000000 0.500000
#
# Coordination Sequence:
#
# PCOD8300138 Si02
#       7
#    16  16  16  16  16  16  16
#     4   9  17  31  54  83 111 142 185 233 279 331
#     4   8  14  26  45  72 109 150 185 216 260 323
#     4   9  19  35  59  88 113 140 185 242 296 343
#     4  10  23  43  64  85 111 151 196 242 298 355
#     4   9  17  30  50  79 117 153 182 219 272 334
#     4  10  20  35  56  81 111 145 191 228 282 338
#     4  10  21  36  54  81 116 152 188 229 278 329
#
# _framework density 19.681882999999999
#
# number of rings (size 3 to 8) (size 9 to 14) (size 15 to 20)
#    0.000    2.714    0.000    2.143    0.000    9.714 
#    5.143    0.000    0.000    1.286    0.000    0.000 
#    0.000    0.000    0.000    0.000    0.000    0.000 
#
# Total GULP energy -693961.688557 kJ/mol
# GULP energy per Si atom -12392.173010 kJ/mol
# Density = 1.963709 g / cm^3
# Si number density = 19.681883 Si / 1000 Ang^3
#
#
#
# Elastic Constant Matrix: (Units=GPa)
#
#
# Indices 1 2 3 4 5 6 
#
# 1 84.9372 24.7571 49.4919 0.0000 0.0000 0.0000
# 2 24.7571 51.8422 30.1814 0.0000 0.0000 0.0000
# 3 49.4919 30.1814 115.4462 0.0000 0.0000 0.0000
# 4 0.0000 0.0000 0.0000 25.8042 0.0000 0.0000
# 5 0.0000 0.0000 0.0000 0.0000 31.0671 0.0000
# 6 0.0000 0.0000 0.0000 0.0000 0.0000 18.0312
#
#
#
# Elastic Compliance Matrix: (Units=1/GPa)
#
#
# Indices 1 2 3 4 5 6 
#
# 1 0.016517 -0.004441 -0.005920 0.000000 0.000000 0.000000
# 2 -0.004441 0.023946 -0.004356 0.000000 0.000000 0.000000
# 3 -0.005920 -0.004356 0.012339 0.000000 0.000000 0.000000
# 4 0.000000 0.000000 0.000000 0.038753 0.000000 0.000000
# 5 0.000000 0.000000 0.000000 0.000000 0.032188 0.000000
# 6 0.000000 0.000000 0.000000 0.000000 0.000000 0.055459
#
#
# Mechanical properties :
#
#
# Convention : Reuss Voigt Hill
#
# Bulk Modulus (GPa) = 42.79476 51.23182 47.01329
# Shear Modulus (GPa) = 23.10235 24.83352 23.96793
#
# Velocity S-wave (km/s) = 3.42978 3.55596 3.49344
# Velocity P-wave (km/s) = 6.12167 6.55334 6.34118
#
# Compressibility (1/GPa) = 0.02336735
#
# Stress axis : x y z
#
# Youngs Moduli (GPa) = 60.54211 41.75986 81.04510
#
# Poissons Ratio (x) = 0.18547 0.47978
# Poissons Ratio (y) = 0.26889 0.35306
# Poissons Ratio (z) = 0.35840 0.18192
#
# Static dielectric constant tensor:
#      x y z
#    x 3.564280 0.000000 0.000000 
#    y 0.000000 3.350830 0.000000 
#    z 0.000000 0.000000 3.898720 
# 
# 
# High freq. dielectric constant tensor:
#      x y z
#    x 1.759140 0.000000 0.000000 
#    y 0.000000 1.742350 0.000000 
#    z 0.000000 0.000000 1.772540 
# 
# From -- ./inp_files/24320.got.cif
#   From: 2010.03.12/outbox.cif.g09.slc.cpg/sg74_13_cif.got.tgz:24320.got - 2010.04.16 15:46:19.
