data_PCOD8300179
_publ_section_title
;
Structure prediction by ZEFSAII (Michael W. Deem and Ramdas Pophale) SiO2 
 PCOD8300179
Probable space group: I M M A
;
_chemical_formula_sum "Si O2"
_cell_formula_units_Z 72
_cell_length_a 8.727227
_cell_length_b 15.415222
_cell_length_c 26.544529
_cell_angle_alpha 90.000000
_cell_angle_beta 90.000000
_cell_angle_gamma 90.000000
_cell_volume 3571.092335
_symmetry_space_group_name_H-M "I M M A"
_symmetry_group_IT_number 74
_symmetry_cell_setting 'orthorhombic'
loop_
_space_group_symop_operation_xyz
x,y,z
-x,1/2-y,z
x,-y,-z
-x,1/2+y,-z
-x,-y,-z
x,1/2+y,-z
-x,y,z
x,1/2-y,z
1/2+x,1/2+y,1/2+z
1/2-x,-y,1/2+z
1/2+x,1/2-y,1/2-z
1/2-x,y,1/2-z
1/2-x,1/2-y,1/2-z
1/2+x,y,1/2-z
1/2-x,1/2+y,1/2+z
1/2+x,-y,1/2+z
loop_
_atom_site_type_symbol
_atom_site_label
_atom_site_fract_x
_atom_site_fract_y
_atom_site_fract_z
Si Si1 0.180931 0.250000 0.695043
Si Si2 0.680036 0.418416 0.865272
Si Si3 0.178188 0.410023 0.972598
Si Si4 0.318674 0.750000 0.539206
Si Si5 0.818937 0.930148 0.803333
Si Si6 0.682392 0.250000 0.348065
O O1 0.250000 0.250000 0.750000
O O2 0.238555 0.165044 0.665594
O O3 0.000000 0.250000 0.699271
O O4 0.500000 0.432552 0.858606
O O5 0.719474 0.403766 0.923206
O O6 0.767938 0.502860 0.845887
O O7 0.000000 0.398239 0.958208
O O8 0.208163 0.500000 0.000000
O O9 0.237274 0.335178 0.009916
O O10 0.500000 0.750000 0.543565
O O11 0.248339 0.750000 0.595432
O O12 0.750000 0.958249 0.750000
O O13 0.757840 0.834852 0.818682
O O14 0.000000 0.931515 0.799273
O O15 0.500000 0.250000 0.350686
#
# Coordination Sequence:
#
# PCOD8300179 Si02
#       6
#     8  16  16   8  16   8
#     4  10  23  40  58  81 111 148 189 234 283 337
#     4  11  23  39  58  83 115 150 190 235 284 336
#     4  10  20  35  57  83 111 146 188 231 278 333
#     4   9  17  32  55  82 109 142 187 232 275 328
#     4  11  22  38  60  86 116 150 189 232 281 335
#     4   9  19  36  59  85 115 150 187 230 277 331
#
# _framework density 20.161897
#
# number of rings (size 3 to 8) (size 9 to 14) (size 15 to 20)
#    0.000    1.778    0.000    4.333    0.000    7.556 
#    0.000    1.667    0.000    2.667    0.000    0.000 
#    0.000    0.000    0.000    0.000    0.000    0.000 
#
# Total GULP energy -446590.869546 kJ/mol
# GULP energy per Si atom -12405.301932 kJ/mol
# Density = 2.011601 g / cm^3
# Si number density = 20.161897 Si / 1000 Ang^3
#
#
#
# Elastic Constant Matrix: (Units=GPa)
#
#
# Indices 1 2 3 4 5 6 
#
# 1 44.6669 28.5053 23.9074 0.0000 0.0000 0.0000
# 2 28.5053 125.3006 25.6896 0.0000 0.0000 0.0000
# 3 23.9074 25.6896 114.4198 0.0000 0.0000 0.0000
# 4 0.0000 0.0000 0.0000 34.8950 0.0000 0.0000
# 5 0.0000 0.0000 0.0000 0.0000 35.5478 0.0000
# 6 0.0000 0.0000 0.0000 0.0000 0.0000 1.1923
#
#
#
# Elastic Compliance Matrix: (Units=1/GPa)
#
#
# Indices 1 2 3 4 5 6 
#
# 1 0.028415 -0.005500 -0.004702 0.000000 0.000000 0.000000
# 2 -0.005500 0.009431 -0.000968 0.000000 0.000000 0.000000
# 3 -0.004702 -0.000968 0.009940 0.000000 0.000000 0.000000
# 4 0.000000 0.000000 0.000000 0.028657 0.000000 0.000000
# 5 0.000000 0.000000 0.000000 0.000000 0.028131 0.000000
# 6 0.000000 0.000000 0.000000 0.000000 0.000000 0.838681
#
#
# Mechanical properties :
#
#
# Convention : Reuss Voigt Hill
#
# Bulk Modulus (GPa) = 39.30205 48.95464 44.12835
# Shear Modulus (GPa) = 5.13307 28.07937 16.60622
#
# Velocity S-wave (km/s) = 1.59733 3.73593 2.87303
# Velocity P-wave (km/s) = 4.78931 6.55310 5.73936
#
# Compressibility (1/GPa) = 0.02544396
#
# Stress axis : x y z
#
# Youngs Moduli (GPa) = 35.19288 106.03824 100.60744
#
# Poissons Ratio (x) = 0.58323 0.47308
# Poissons Ratio (y) = 0.19357 0.09740
# Poissons Ratio (z) = 0.16549 0.10266
#
# Static dielectric constant tensor:
#      x y z
#    x 3.343720 0.000000 0.000000 
#    y 0.000000 4.036190 0.000000 
#    z 0.000000 0.000000 3.628030 
# 
# 
# High freq. dielectric constant tensor:
#      x y z
#    x 1.760710 0.000000 0.000000 
#    y 0.000000 1.807230 0.000000 
#    z 0.000000 0.000000 1.802730 
# 
# From -- ./inp_files/63659.got.cif
#   From: 2010.03.12/outbox.cif.g09.slc.cpg/sg74_32_cif.got.tgz:63659.got - 2010.04.16 15:46:19.
