data_PCOD8300978
_publ_section_title
;
Structure prediction by ZEFSAII (Michael W. Deem and Ramdas Pophale) SiO2 
 PCOD8300978
Probable space group: I M M A
;
_chemical_formula_sum "Si O2"
_cell_formula_units_Z 112
_cell_length_a 26.801383
_cell_length_b 14.182703
_cell_length_c 16.068417
_cell_angle_alpha 90.000000
_cell_angle_beta 90.000000
_cell_angle_gamma 90.000000
_cell_volume 6107.863281
_symmetry_space_group_name_H-M "I M M A"
_symmetry_group_IT_number 74
_symmetry_cell_setting 'orthorhombic'
loop_
_space_group_symop_operation_xyz
x,y,z
-x,1/2-y,z
x,-y,-z
-x,1/2+y,-z
-x,-y,-z
x,1/2+y,-z
-x,y,z
x,1/2-y,z
1/2+x,1/2+y,1/2+z
1/2-x,-y,1/2+z
1/2+x,1/2-y,1/2-z
1/2-x,y,1/2-z
1/2-x,1/2-y,1/2-z
1/2+x,y,1/2-z
1/2-x,1/2+y,1/2+z
1/2+x,-y,1/2+z
loop_
_atom_site_type_symbol
_atom_site_label
_atom_site_fract_x
_atom_site_fract_y
_atom_site_fract_z
Si Si1 0.106527 0.357308 0.844315
Si Si2 0.693842 0.978623 0.903487
Si Si3 0.113927 0.143291 0.037694
Si Si4 0.305313 0.356652 0.780239
Si Si5 0.288794 0.357264 0.360976
Si Si6 0.557440 0.956550 0.676903
Si Si7 0.862379 0.141105 0.287336
O O1 0.087976 0.250000 0.829416
O O2 0.157975 0.378468 0.796608
O O3 0.064861 0.430635 0.812783
O O4 0.115644 0.378628 0.940743
O O5 0.746496 0.933087 0.878748
O O6 0.649675 0.907616 0.875540
O O7 0.683718 0.076998 0.857793
O O8 0.690154 0.000000 0.000000
O O9 0.096669 0.250000 0.056656
O O10 0.169888 0.127417 0.068738
O O11 0.075335 0.075415 0.085103
O O12 0.312403 0.250000 0.811875
O O13 0.250000 0.375679 0.750000
O O14 0.267430 0.250000 0.364362
O O15 0.313784 0.376069 0.271049
O O16 0.500000 0.931318 0.689148
O O17 0.588219 0.902362 0.747292
O O18 0.873126 0.250000 0.301834
#
# Coordination Sequence:
#
# PCOD8300978 Si02
#       7
#    16  16  16  16  16  16  16
#     4  10  21  38  57  78 118 161 191 226 271 330
#     4  12  24  34  56  85 114 146 189 238 284 330
#     4   9  20  35  54  85 120 154 190 226 275 332
#     4  10  22  38  55  78 113 156 196 228 265 325
#     4   9  19  35  56  82 116 155 189 226 271 332
#     4  11  22  37  60  87 114 144 188 239 288 340
#     4  10  21  40  60  82 115 151 188 231 289 344
#
# _framework density 18.337019000000002
#
# number of rings (size 3 to 8) (size 9 to 14) (size 15 to 20)
#    0.000    1.857    1.429    3.429    4.000    4.857 
#    0.000    1.429    0.000    0.429    0.000    0.000 
#    0.000    0.000    0.000    0.000    0.000    0.000 
#
# Total GULP energy -694440.681159 kJ/mol
# GULP energy per Si atom -12400.726449 kJ/mol
# Density = 1.829528 g / cm^3
# Si number density = 18.337019 Si / 1000 Ang^3
#
#
#
# Elastic Constant Matrix: (Units=GPa)
#
#
# Indices 1 2 3 4 5 6 
#
# 1 98.3578 59.2389 58.8848 0.0000 0.0000 0.0000
# 2 59.2389 128.9182 58.1723 0.0000 0.0000 0.0000
# 3 58.8848 58.1723 84.8264 0.0000 0.0000 0.0000
# 4 0.0000 0.0000 0.0000 24.3117 0.0000 0.0000
# 5 0.0000 0.0000 0.0000 0.0000 5.5486 0.0000
# 6 0.0000 0.0000 0.0000 0.0000 0.0000 19.7959
#
#
#
# Elastic Compliance Matrix: (Units=1/GPa)
#
#
# Indices 1 2 3 4 5 6 
#
# 1 0.018696 -0.003960 -0.010263 0.000000 0.000000 0.000000
# 2 -0.003960 0.012072 -0.005529 0.000000 0.000000 0.000000
# 3 -0.010263 -0.005529 0.022705 0.000000 0.000000 0.000000
# 4 0.000000 0.000000 0.000000 0.041133 0.000000 0.000000
# 5 0.000000 0.000000 0.000000 0.000000 0.180227 0.000000
# 6 0.000000 0.000000 0.000000 0.000000 0.000000 0.050516
#
#
# Mechanical properties :
#
#
# Convention : Reuss Voigt Hill
#
# Bulk Modulus (GPa) = 71.59151 73.85495 72.72323
# Shear Modulus (GPa) = 13.53149 18.98498 16.25823
#
# Velocity S-wave (km/s) = 2.71944 3.22115 2.98087
# Velocity P-wave (km/s) = 6.99909 7.36195 7.18281
#
# Compressibility (1/GPa) = 0.01396814
#
# Stress axis : x y z
#
# Youngs Moduli (GPa) = 53.48702 82.83872 44.04333
#
# Poissons Ratio (x) = 0.32805 0.45200
# Poissons Ratio (y) = 0.21182 0.24354
# Poissons Ratio (z) = 0.54892 0.45805
#
# Static dielectric constant tensor:
#      x y z
#    x 3.105080 0.000000 0.000000 
#    y 0.000000 3.715750 0.000000 
#    z 0.000000 0.000000 3.317790 
# 
# 
# High freq. dielectric constant tensor:
#      x y z
#    x 1.682280 0.000000 0.000000 
#    y 0.000000 1.738160 0.000000 
#    z 0.000000 0.000000 1.691510 
# 
# From -- ./inp_files/32752.got.cif
#   From: 2010.03.12/outbox.cif.g09.slc.cpg/sg74_17_cif.got.tgz:32752.got - 2010.04.16 15:46:19.
