data_PCOD8300310
_publ_section_title
;
Structure prediction by ZEFSAII (Michael W. Deem and Ramdas Pophale) SiO2 
 PCOD8300310
Probable space group: I M M A
;
_chemical_formula_sum "Si O2"
_cell_formula_units_Z 112
_cell_length_a 13.973525
_cell_length_b 18.471966
_cell_length_c 22.659266
_cell_angle_alpha 90.000000
_cell_angle_beta 90.000000
_cell_angle_gamma 90.000000
_cell_volume 5848.775268
_symmetry_space_group_name_H-M "I M M A"
_symmetry_group_IT_number 74
_symmetry_cell_setting 'orthorhombic'
loop_
_space_group_symop_operation_xyz
x,y,z
-x,1/2-y,z
x,-y,-z
-x,1/2+y,-z
-x,-y,-z
x,1/2+y,-z
-x,y,z
x,1/2-y,z
1/2+x,1/2+y,1/2+z
1/2-x,-y,1/2+z
1/2+x,1/2-y,1/2-z
1/2-x,y,1/2-z
1/2-x,1/2-y,1/2-z
1/2+x,y,1/2-z
1/2-x,1/2+y,1/2+z
1/2+x,-y,1/2+z
loop_
_atom_site_type_symbol
_atom_site_label
_atom_site_fract_x
_atom_site_fract_y
_atom_site_fract_z
Si Si1 0.387780 0.094971 0.184820
Si Si2 0.758063 0.076639 0.983901
Si Si3 0.610901 0.666183 0.694953
Si Si4 0.387066 0.552986 0.121370
Si Si5 0.391771 0.333503 0.594198
Si Si6 0.760489 0.832550 0.597961
Si Si7 0.270557 0.166544 0.814917
O O1 0.500000 0.100533 0.183222
O O2 0.353570 0.113539 0.251741
O O3 0.349450 0.157327 0.141805
O O4 0.353806 0.016603 0.160103
O O5 0.669043 0.060512 0.940347
O O6 0.845381 0.122834 0.958976
O O7 0.720307 0.117347 0.041660
O O8 0.804206 0.000000 0.000000
O O9 0.500000 0.653841 0.681367
O O10 0.632013 0.750000 0.711947
O O11 0.665936 0.644440 0.634948
O O12 0.500000 0.551476 0.108046
O O13 0.360394 0.623511 0.159114
O O14 0.500000 0.359926 0.606426
O O15 0.390292 0.250000 0.575682
O O16 0.328963 0.348097 0.651870
O O17 0.754635 0.750000 0.576415
O O18 0.301091 0.250000 0.816980
O O19 0.250000 0.138445 0.750000
#
# Coordination Sequence:
#
# PCOD8300310 Si02
#       7
#    16  16  16  16  16  16  16
#     4  10  20  36  57  83 116 151 186 230 288 349
#     4  11  22  39  57  81 113 155 194 243 284 336
#     4   9  19  36  58  86 118 148 183 230 284 348
#     4  10  22  39  59  83 115 157 196 238 294 346
#     4   9  19  37  59  82 111 147 186 231 285 342
#     4  11  22  36  58  85 113 151 194 235 287 344
#     4   9  19  36  59  86 115 147 189 240 289 343
#
# _framework density 19.149307
#
# number of rings (size 3 to 8) (size 9 to 14) (size 15 to 20)
#    0.000    2.143    1.429    1.286    0.000    6.286 
#    0.000    2.857    0.000    0.000    0.000    0.000 
#    0.000    0.000    0.000    0.000    0.000    0.000 
#
# Total GULP energy -694273.311658 kJ/mol
# GULP energy per Si atom -12397.737708 kJ/mol
# Density = 1.910572 g / cm^3
# Si number density = 19.149307 Si / 1000 Ang^3
#
#
#
# Elastic Constant Matrix: (Units=GPa)
#
#
# Indices 1 2 3 4 5 6 
#
# 1 67.8971 41.4189 27.5195 0.0000 0.0000 0.0000
# 2 41.4189 83.7360 53.7632 0.0000 0.0000 0.0000
# 3 27.5195 53.7632 108.9085 0.0000 0.0000 0.0000
# 4 0.0000 0.0000 0.0000 39.3554 0.0000 0.0000
# 5 0.0000 0.0000 0.0000 0.0000 21.8900 0.0000
# 6 0.0000 0.0000 0.0000 0.0000 0.0000 26.5477
#
#
#
# Elastic Compliance Matrix: (Units=1/GPa)
#
#
# Indices 1 2 3 4 5 6 
#
# 1 0.021098 -0.010267 -0.000263 0.000000 0.000000 0.000000
# 2 -0.010267 0.022480 -0.008503 0.000000 0.000000 0.000000
# 3 -0.000263 -0.008503 0.013446 0.000000 0.000000 0.000000
# 4 0.000000 0.000000 0.000000 0.025409 0.000000 0.000000
# 5 0.000000 0.000000 0.000000 0.000000 0.045683 0.000000
# 6 0.000000 0.000000 0.000000 0.000000 0.000000 0.037668
#
#
# Mechanical properties :
#
#
# Convention : Reuss Voigt Hill
#
# Bulk Modulus (GPa) = 52.74752 56.21607 54.48179
# Shear Modulus (GPa) = 23.79028 26.74797 25.26913
#
# Velocity S-wave (km/s) = 3.52853 3.74145 3.63655
# Velocity P-wave (km/s) = 6.64875 6.93434 6.79305
#
# Compressibility (1/GPa) = 0.01895824
#
# Stress axis : x y z
#
# Youngs Moduli (GPa) = 47.39828 44.48345 74.37140
#
# Poissons Ratio (x) = 0.45672 0.01954
# Poissons Ratio (y) = 0.48664 0.63239
# Poissons Ratio (z) = 0.01245 0.37825
#
# Static dielectric constant tensor:
#      x y z
#    x 3.437740 0.000000 0.000000 
#    y 0.000000 3.678290 0.000000 
#    z 0.000000 0.000000 3.644520 
# 
# 
# High freq. dielectric constant tensor:
#      x y z
#    x 1.740950 0.000000 0.000000 
#    y 0.000000 1.747940 0.000000 
#    z 0.000000 0.000000 1.749310 
# 
# From -- ./inp_files/60096.got.cif
#   From: 2010.03.12/outbox.cif.g09.slc.cpg/sg74_31_cif.got.tgz:60096.got - 2010.04.16 15:46:19.
