data_PCOD8300033
_publ_section_title
;
Structure prediction by ZEFSAII (Michael W. Deem and Ramdas Pophale) SiO2 
 PCOD8300033
Probable space group: I M M A
;
_chemical_formula_sum "Si O2"
_cell_formula_units_Z 68
_cell_length_a 13.487392
_cell_length_b 25.498025
_cell_length_c 9.271024
_cell_angle_alpha 90.000000
_cell_angle_beta 90.000000
_cell_angle_gamma 90.000000
_cell_volume 3188.322383
_symmetry_space_group_name_H-M "I M M A"
_symmetry_group_IT_number 74
_symmetry_cell_setting 'orthorhombic'
loop_
_space_group_symop_operation_xyz
x,y,z
-x,1/2-y,z
x,-y,-z
-x,1/2+y,-z
-x,-y,-z
x,1/2+y,-z
-x,y,z
x,1/2-y,z
1/2+x,1/2+y,1/2+z
1/2-x,-y,1/2+z
1/2+x,1/2-y,1/2-z
1/2-x,y,1/2-z
1/2-x,1/2-y,1/2-z
1/2+x,y,1/2-z
1/2-x,1/2+y,1/2+z
1/2+x,-y,1/2+z
loop_
_atom_site_type_symbol
_atom_site_label
_atom_site_fract_x
_atom_site_fract_y
_atom_site_fract_z
Si Si1 0.000000 0.250000 0.703031
Si Si2 0.790177 0.250000 0.591951
Si Si3 0.500000 0.638663 0.234348
Si Si4 0.500000 0.101133 0.450396
Si Si5 0.000000 0.686581 0.725248
Si Si6 0.707077 0.449543 0.402810
Si Si7 0.160801 0.646625 0.507561
O O1 0.910195 0.250000 0.589302
O O2 0.000000 0.301985 0.800182
O O3 0.750000 0.250000 0.750000
O O4 0.761082 0.195192 0.516660
O O5 0.500000 0.601377 0.373644
O O6 0.402805 0.632030 0.135103
O O7 0.500000 0.159923 0.383879
O O8 0.406247 0.068671 0.393505
O O9 0.904338 0.663777 0.643565
O O10 0.000000 0.750000 0.739712
O O11 0.718157 0.500000 0.500000
O O12 0.750000 0.466490 0.250000
O O13 0.773513 0.403194 0.464216
#
# Coordination Sequence:
#
# PCOD8300033 Si02
#       7
#     4   8   8   8   8  16  16
#     4   8  18  36  50  94 138 176 214 264 324 406
#     4  10  20  34  66 100 141 178 234 280 343 431
#     4   9  22  38  69 100 140 180 225 280 348 417
#     4  12  27  47  67 108 146 173 246 307 354 431
#     4  11  21  46  72 104 152 194 230 295 365 437
#     4  12  29  51  74 100 140 187 247 306 367 428
#     4  10  22  45  70 101 141 192 238 283 361 447
#
# _framework density 21.327831
#
# number of rings (size 3 to 8) (size 9 to 14) (size 15 to 20)
#    0.000    1.412    3.529    1.059   12.353    0.000 
#    2.118    4.706    0.000    0.000    0.000    0.000 
#    0.000    0.000    0.000    0.000    0.000    0.000 
#
# Total GULP energy -421400.486480 kJ/mol
# GULP energy per Si atom -12394.131955 kJ/mol
# Density = 2.127929 g / cm^3
# Si number density = 21.327831 Si / 1000 Ang^3
#
#
#
# Elastic Constant Matrix: (Units=GPa)
#
#
# Indices 1 2 3 4 5 6 
#
# 1 111.6882 74.8959 49.7320 0.0040 0.0010 -0.0005
# 2 74.8959 182.6018 65.0561 -0.0047 -0.0022 0.0005
# 3 49.7320 65.0561 135.3582 0.0322 0.0057 -0.0059
# 4 0.0040 -0.0047 0.0322 23.8614 0.0150 -0.0099
# 5 0.0010 -0.0022 0.0057 0.0150 10.5522 -0.0030
# 6 -0.0005 0.0005 -0.0059 -0.0099 -0.0030 23.3896
#
#
#
# Elastic Compliance Matrix: (Units=1/GPa)
#
#
# Indices 1 2 3 4 5 6 
#
# 1 0.013118 -0.004420 -0.002695 0.000001 -0.000001 0.000000
# 2 -0.004420 0.008097 -0.002268 0.000005 0.000003 -0.000001
# 3 -0.002695 -0.002268 0.009468 -0.000013 -0.000005 0.000002
# 4 0.000001 0.000005 -0.000013 0.041909 -0.000060 0.000018
# 5 -0.000001 0.000003 -0.000005 -0.000060 0.094767 0.000012
# 6 0.000000 -0.000001 0.000002 0.000018 0.000012 0.042754
#
#
# Mechanical properties :
#
#
# Convention : Reuss Voigt Hill
#
# Bulk Modulus (GPa) = 83.91467 89.89068 86.90267
# Shear Modulus (GPa) = 21.47300 27.55827 24.51563
#
# Velocity S-wave (km/s) = 3.17646 3.59852 3.39406
# Velocity P-wave (km/s) = 7.27212 7.71391 7.49627
#
# Compressibility (1/GPa) = 0.01191687
#
# Stress axis : x y z
#
# Youngs Moduli (GPa) = 76.23340 123.49832 105.61937
#
# Poissons Ratio (x) = 0.54588 0.28466
# Poissons Ratio (y) = 0.33696 0.23952
# Poissons Ratio (z) = 0.20546 0.28006
#
# Static dielectric constant tensor:
#      x y z
#    x 4.068900 -0.000010 -0.000030 
#    y -0.000010 4.103230 -0.000010 
#    z -0.000030 -0.000010 3.843720 
# 
# 
# High freq. dielectric constant tensor:
#      x y z
#    x 1.837070 0.000000 0.000000 
#    y 0.000000 1.843470 0.000000 
#    z 0.000000 0.000000 1.833930 
# 
# From -- ./inp_files/9114.got.cif
#   From: 2010.03.12/outbox.cif.g09.slc.cpg/sg74_5_cif.got.tgz:9114.got - 2010.04.16 15:46:19.
