data_PCOD8300227
_publ_section_title
;
Structure prediction by ZEFSAII (Michael W. Deem and Ramdas Pophale) SiO2 
 PCOD8300227
Probable space group: I M M A
;
_chemical_formula_sum "Si O2"
_cell_formula_units_Z 104
_cell_length_a 23.658833
_cell_length_b 9.239887
_cell_length_c 25.399701
_cell_angle_alpha 90.000000
_cell_angle_beta 90.000000
_cell_angle_gamma 90.000000
_cell_volume 5552.500201
_symmetry_space_group_name_H-M "I M M A"
_symmetry_group_IT_number 74
_symmetry_cell_setting 'orthorhombic'
loop_
_space_group_symop_operation_xyz
x,y,z
-x,1/2-y,z
x,-y,-z
-x,1/2+y,-z
-x,-y,-z
x,1/2+y,-z
-x,y,z
x,1/2-y,z
1/2+x,1/2+y,1/2+z
1/2-x,-y,1/2+z
1/2+x,1/2-y,1/2-z
1/2-x,y,1/2-z
1/2-x,1/2-y,1/2-z
1/2+x,y,1/2-z
1/2-x,1/2+y,1/2+z
1/2+x,-y,1/2+z
loop_
_atom_site_type_symbol
_atom_site_label
_atom_site_fract_x
_atom_site_fract_y
_atom_site_fract_z
Si Si1 0.565508 0.419342 0.447907
Si Si2 0.934090 0.919632 0.732107
Si Si3 0.231772 0.588906 0.195478
Si Si4 0.125284 0.580449 0.840817
Si Si5 0.121206 0.582698 0.555003
Si Si6 0.853853 0.411387 0.650964
Si Si7 0.500000 0.591285 0.949209
O O1 0.589156 0.500000 0.500000
O O2 0.500000 0.457226 0.439519
O O3 0.575022 0.250000 0.456712
O O4 0.597528 0.474014 0.395429
O O5 0.925630 0.750000 0.720002
O O6 0.916106 0.956522 0.792030
O O7 0.000000 0.963085 0.724490
O O8 0.893490 0.009060 0.693384
O O9 0.206169 0.750000 0.206042
O O10 0.250000 0.512026 0.250000
O O11 0.185624 0.495723 0.164894
O O12 0.289189 0.603202 0.164742
O O13 0.136644 0.750000 0.843445
O O14 0.125940 0.500000 0.500000
O O15 0.139062 0.750000 0.547530
O O16 0.157366 0.501936 0.597987
O O17 0.058176 0.567006 0.581998
O O18 0.879238 0.250000 0.641342
O O19 0.500000 0.750000 0.973453
O O20 0.500000 0.500000 0.000000
#
# Coordination Sequence:
#
# PCOD8300227 Si02
#       7
#    16  16  16  16  16  16   8
#     4   9  18  34  56  85 121 156 190 231 282 340
#     4  10  21  36  55  82 115 147 180 226 283 338
#     4  10  21  39  58  78 110 148 187 234 283 331
#     4  10  20  35  59  86 112 146 191 236 280 336
#     4  10  20  36  56  79 108 141 179 223 272 325
#     4  11  23  38  56  80 110 147 188 229 279 331
#     4   8  16  30  50  74 100 132 168 208 255 308
#
# _framework density 18.730301999999998
#
# number of rings (size 3 to 8) (size 9 to 14) (size 15 to 20)
#    0.000    2.154    1.538    1.385    1.077    4.923 
#    0.000    0.769    0.000    4.615    0.000    0.000 
#    0.000    0.000    0.000    0.000    0.000    0.000 
#
# Total GULP energy -644278.541467 kJ/mol
# GULP energy per Si atom -12389.971951 kJ/mol
# Density = 1.868767 g / cm^3
# Si number density = 18.730302 Si / 1000 Ang^3
#
#
#
# Elastic Constant Matrix: (Units=GPa)
#
#
# Indices 1 2 3 4 5 6 
#
# 1 86.2417 38.9571 43.7181 0.0000 0.0000 0.0000
# 2 38.9571 90.9961 61.4121 0.0000 0.0000 0.0000
# 3 43.7181 61.4121 137.6844 0.0000 0.0000 0.0000
# 4 0.0000 0.0000 0.0000 29.2740 0.0000 0.0000
# 5 0.0000 0.0000 0.0000 0.0000 28.2800 0.0000
# 6 0.0000 0.0000 0.0000 0.0000 0.0000 11.5036
#
#
#
# Elastic Compliance Matrix: (Units=1/GPa)
#
#
# Indices 1 2 3 4 5 6 
#
# 1 0.015058 -0.004607 -0.002727 0.000000 0.000000 0.000000
# 2 -0.004607 0.017131 -0.006179 0.000000 0.000000 0.000000
# 3 -0.002727 -0.006179 0.010885 0.000000 0.000000 0.000000
# 4 0.000000 0.000000 0.000000 0.034160 0.000000 0.000000
# 5 0.000000 0.000000 0.000000 0.000000 0.035361 0.000000
# 6 0.000000 0.000000 0.000000 0.000000 0.000000 0.086929
#
#
# Mechanical properties :
#
#
# Convention : Reuss Voigt Hill
#
# Bulk Modulus (GPa) = 62.30191 67.01077 64.65634
# Shear Modulus (GPa) = 21.56118 25.20051 23.38084
#
# Velocity S-wave (km/s) = 3.39652 3.67200 3.53695
# Velocity P-wave (km/s) = 6.97973 7.33706 7.16063
#
# Compressibility (1/GPa) = 0.01605087
#
# Stress axis : x y z
#
# Youngs Moduli (GPa) = 66.40787 58.37210 91.87263
#
# Poissons Ratio (x) = 0.26890 0.25051
# Poissons Ratio (y) = 0.30591 0.56764
# Poissons Ratio (z) = 0.18108 0.36065
#
# Static dielectric constant tensor:
#      x y z
#    x 3.351600 0.000000 0.000000 
#    y 0.000000 3.586370 0.000000 
#    z 0.000000 0.000000 3.497340 
# 
# 
# High freq. dielectric constant tensor:
#      x y z
#    x 1.719040 0.000000 0.000000 
#    y 0.000000 1.729510 0.000000 
#    z 0.000000 0.000000 1.730360 
# 
# From -- ./inp_files/64805.got.cif
#   From: 2010.03.12/outbox.cif.g09.slc.cpg/sg74_33_cif.got.tgz:64805.got - 2010.04.16 15:46:19.
