data_PCOD8300924
_publ_section_title
;
Structure prediction by ZEFSAII (Michael W. Deem and Ramdas Pophale) SiO2 
 PCOD8300924
Probable space group: I M M A
;
_chemical_formula_sum "Si O2"
_cell_formula_units_Z 72
_cell_length_a 17.667661
_cell_length_b 9.237818
_cell_length_c 23.443192
_cell_angle_alpha 90.000000
_cell_angle_beta 90.000000
_cell_angle_gamma 90.000000
_cell_volume 3826.178295
_symmetry_space_group_name_H-M "I M M A"
_symmetry_group_IT_number 74
_symmetry_cell_setting 'orthorhombic'
loop_
_space_group_symop_operation_xyz
x,y,z
-x,1/2-y,z
x,-y,-z
-x,1/2+y,-z
-x,-y,-z
x,1/2+y,-z
-x,y,z
x,1/2-y,z
1/2+x,1/2+y,1/2+z
1/2-x,-y,1/2+z
1/2+x,1/2-y,1/2-z
1/2-x,y,1/2-z
1/2-x,1/2-y,1/2-z
1/2+x,y,1/2-z
1/2-x,1/2+y,1/2+z
1/2+x,-y,1/2+z
loop_
_atom_site_type_symbol
_atom_site_label
_atom_site_fract_x
_atom_site_fract_y
_atom_site_fract_z
Si Si1 0.500000 0.582894 0.942013
Si Si2 0.837641 0.079788 0.745020
Si Si3 0.912413 0.083454 0.151617
Si Si4 0.209491 0.581778 0.940549
Si Si5 0.145122 0.580376 0.630538
O O1 0.500000 0.750000 0.957033
O O2 0.425723 0.538926 0.907845
O O3 0.500000 0.500000 0.000000
O O4 0.851516 0.250000 0.742005
O O5 0.750000 0.039260 0.750000
O O6 0.883397 0.018470 0.798331
O O7 0.868611 0.006675 0.688208
O O8 0.898835 0.250000 0.169779
O O9 0.867619 0.048436 0.093457
O O10 0.000000 0.051066 0.139400
O O11 0.219304 0.750000 0.954504
O O12 0.279342 0.527534 0.901782
O O13 0.207733 0.500000 0.000000
O O14 0.149299 0.750000 0.645154
#
# Coordination Sequence:
#
# PCOD8300924 Si02
#       5
#     8  16  16  16  16
#     4  10  22  38  58  86 118 154 195 236 287 344
#     4  11  23  38  59  88 118 149 190 241 295 344
#     4  10  22  40  61  85 116 156 197 236 284 346
#     4  10  21  37  59  84 112 150 194 239 289 343
#     4  10  21  38  59  84 115 155 197 236 285 349
#
# _framework density 18.817733
#
# number of rings (size 3 to 8) (size 9 to 14) (size 15 to 20)
#    0.000    1.778    2.222    1.333    1.556    4.444 
#    0.000    0.000    0.000    0.000    0.000    0.000 
#    0.000    0.000    0.000    0.000    0.000    0.000 
#
# Total GULP energy -446572.421795 kJ/mol
# GULP energy per Si atom -12404.789494 kJ/mol
# Density = 1.877490 g / cm^3
# Si number density = 18.817733 Si / 1000 Ang^3
#
#
#
# Elastic Constant Matrix: (Units=GPa)
#
#
# Indices 1 2 3 4 5 6 
#
# 1 118.2523 32.5276 32.4170 0.0000 0.0000 0.0000
# 2 32.5276 56.2086 50.1200 0.0000 0.0000 0.0000
# 3 32.4170 50.1200 114.1841 0.0000 0.0000 0.0000
# 4 0.0000 0.0000 0.0000 44.1697 0.0000 0.0000
# 5 0.0000 0.0000 0.0000 0.0000 -12.2063 0.0000
# 6 0.0000 0.0000 0.0000 0.0000 0.0000 -28.3775
#
#
#
# Elastic Compliance Matrix: (Units=1/GPa)
#
#
# Indices 1 2 3 4 5 6 
#
# 1 0.010074 -0.005389 -0.000495 0.000000 0.000000 0.000000
# 2 -0.005389 0.032115 -0.012567 0.000000 0.000000 0.000000
# 3 -0.000495 -0.012567 0.014414 0.000000 0.000000 0.000000
# 4 0.000000 0.000000 0.000000 0.022640 0.000000 0.000000
# 5 0.000000 0.000000 0.000000 0.000000 -0.081925 0.000000
# 6 0.000000 0.000000 0.000000 0.000000 0.000000 -0.035239
#
#
# Mechanical properties :
#
#
# Convention : Reuss Voigt Hill
#
# Bulk Modulus (GPa) = 50.75359 57.64158 54.19759
# Shear Modulus (GPa) = 901.32138 12.28919 456.80529
#
# Velocity S-wave (km/s) = 21.90923 2.55829 15.59742
# Velocity P-wave (km/s) = 25.82729 6.27889 18.79459
#
# Compressibility (1/GPa) = 0.01970304
#
# Stress axis : x y z
#
# Youngs Moduli (GPa) = 99.26110 31.13842 69.37607
#
# Poissons Ratio (x) = 0.16780 0.03432
# Poissons Ratio (y) = 0.53490 0.87181
# Poissons Ratio (z) = 0.04911 0.39130
#
# Static dielectric constant tensor:
#      x y z
#    x 3.643690 0.000000 0.000000 
#    y 0.000000 3.385850 0.000000 
#    z 0.000000 0.000000 3.379300 
# 
# 
# High freq. dielectric constant tensor:
#      x y z
#    x 1.744740 0.000000 0.000000 
#    y 0.000000 1.725360 0.000000 
#    z 0.000000 0.000000 1.738160 
# 
# From -- ./inp_files/56658.got.cif
#   From: 2010.03.12/outbox.cif.g09.slc.cpg/sg74_29_cif.got.tgz:56658.got - 2010.04.16 15:46:19.
