data_PCOD8300366
_publ_section_title
;
Structure prediction by ZEFSAII (Michael W. Deem and Ramdas Pophale) SiO2 
 PCOD8300366
Probable space group: I M M A
;
_chemical_formula_sum "Si O2"
_cell_formula_units_Z 112
_cell_length_a 15.389826
_cell_length_b 14.615002
_cell_length_c 23.285398
_cell_angle_alpha 90.000000
_cell_angle_beta 90.000000
_cell_angle_gamma 90.000000
_cell_volume 5237.406154
_symmetry_space_group_name_H-M "I M M A"
_symmetry_group_IT_number 74
_symmetry_cell_setting 'orthorhombic'
loop_
_space_group_symop_operation_xyz
x,y,z
-x,1/2-y,z
x,-y,-z
-x,1/2+y,-z
-x,-y,-z
x,1/2+y,-z
-x,y,z
x,1/2-y,z
1/2+x,1/2+y,1/2+z
1/2-x,-y,1/2+z
1/2+x,1/2-y,1/2-z
1/2-x,y,1/2-z
1/2-x,1/2-y,1/2-z
1/2+x,y,1/2-z
1/2-x,1/2+y,1/2+z
1/2+x,-y,1/2+z
loop_
_atom_site_type_symbol
_atom_site_label
_atom_site_fract_x
_atom_site_fract_y
_atom_site_fract_z
Si Si1 0.349834 0.855375 0.734002
Si Si2 0.901196 0.080638 0.454852
Si Si3 0.096001 0.976911 0.667657
Si Si4 0.839660 0.647531 0.099692
Si Si5 0.401543 0.045172 0.382242
Si Si6 0.217201 0.648956 0.970702
Si Si7 0.304480 0.848481 0.192736
O O1 0.374414 0.750000 0.722469
O O2 0.250000 0.868057 0.750000
O O3 0.373116 0.915364 0.678998
O O4 0.402449 0.891416 0.788913
O O5 0.822911 0.146749 0.473970
O O6 0.000000 0.124906 0.450359
O O7 0.906881 0.000000 0.500000
O O8 0.862295 0.048000 0.393467
O O9 0.132719 0.066307 0.697987
O O10 0.000000 0.003758 0.650901
O O11 0.881066 0.750000 0.108072
O O12 0.902900 0.565826 0.120303
O O13 0.752376 0.640001 0.136054
O O14 0.817714 0.629776 0.033775
O O15 0.500000 0.077616 0.396902
O O16 0.331339 0.077935 0.429045
O O17 0.191229 0.750000 0.949249
O O18 0.353889 0.750000 0.188936
O O19 0.250000 0.849663 0.250000
#
# Coordination Sequence:
#
# PCOD8300366 Si02
#       7
#    16  16  16  16  16  16  16
#     4  11  24  42  64  88 117 157 205 256 309 369
#     4  10  21  38  61  89 122 162 210 262 316 378
#     4  11  22  35  56  85 117 153 191 241 304 365
#     4  10  22  40  63  90 120 159 208 259 312 375
#     4  12  25  41  64  92 126 168 211 260 317 378
#     4  11  23  39  61  89 124 167 213 261 316 379
#     4  10  20  36  59  84 112 150 195 244 302 367
#
# _framework density 21.384630999999999
#
# number of rings (size 3 to 8) (size 9 to 14) (size 15 to 20)
#    0.000    1.286    0.000    6.857    0.000    5.714 
#    0.000    2.857    0.000    9.429    0.000    0.000 
#    0.000    0.000    0.000    0.000    0.000    0.000 
#
# Total GULP energy -693982.085071 kJ/mol
# GULP energy per Si atom -12392.537233 kJ/mol
# Density = 2.133596 g / cm^3
# Si number density = 21.384631 Si / 1000 Ang^3
#
#
#
# Elastic Constant Matrix: (Units=GPa)
#
#
# Indices 1 2 3 4 5 6 
#
# 1 83.1096 36.3959 10.1807 0.0000 0.0000 0.0000
# 2 36.3959 133.6903 48.8714 0.0000 0.0000 0.0000
# 3 10.1807 48.8714 121.2458 0.0000 0.0000 0.0000
# 4 0.0000 0.0000 0.0000 27.8590 0.0000 0.0000
# 5 0.0000 0.0000 0.0000 0.0000 30.8284 0.0000
# 6 0.0000 0.0000 0.0000 0.0000 0.0000 36.3282
#
#
#
# Elastic Compliance Matrix: (Units=1/GPa)
#
#
# Indices 1 2 3 4 5 6 
#
# 1 0.013679 -0.003875 0.000413 0.000000 0.000000 0.000000
# 2 -0.003875 0.009870 -0.003653 0.000000 0.000000 0.000000
# 3 0.000413 -0.003653 0.009685 0.000000 0.000000 0.000000
# 4 0.000000 0.000000 0.000000 0.035895 0.000000 0.000000
# 5 0.000000 0.000000 0.000000 0.000000 0.032438 0.000000
# 6 0.000000 0.000000 0.000000 0.000000 0.000000 0.027527
#
#
# Mechanical properties :
#
#
# Convention : Reuss Voigt Hill
#
# Bulk Modulus (GPa) = 52.61789 58.77129 55.69459
# Shear Modulus (GPa) = 33.40942 35.17631 34.29286
#
# Velocity S-wave (km/s) = 3.95689 4.06018 4.00887
# Velocity P-wave (km/s) = 6.74796 7.03724 6.89411
#
# Compressibility (1/GPa) = 0.01900494
#
# Stress axis : x y z
#
# Youngs Moduli (GPa) = 73.10676 101.31379 103.24725
#
# Poissons Ratio (x) = 0.39259 -0.04268
# Poissons Ratio (y) = 0.28329 0.37718
# Poissons Ratio (z) = -0.03022 0.37011
#
# Static dielectric constant tensor:
#      x y z
#    x 9.636970 0.000000 0.000000 
#    y 0.000000 4.229980 0.000000 
#    z 0.000000 0.000000 4.093620 
# 
# 
# High freq. dielectric constant tensor:
#      x y z
#    x 1.824880 0.000000 0.000000 
#    y 0.000000 1.845330 0.000000 
#    z 0.000000 0.000000 1.857020 
# 
# From -- ./inp_files/60188.got.cif
#   From: 2010.03.12/outbox.cif.g09.slc.cpg/sg74_31_cif.got.tgz:60188.got - 2010.04.16 15:46:19.
