data_PCOD8300044
_publ_section_title
;
Structure prediction by ZEFSAII (Michael W. Deem and Ramdas Pophale) SiO2 
 PCOD8300044
Probable space group: I M M A
;
_chemical_formula_sum "Si O2"
_cell_formula_units_Z 88
_cell_length_a 22.503323
_cell_length_b 8.689303
_cell_length_c 24.602660
_cell_angle_alpha 90.000000
_cell_angle_beta 90.000000
_cell_angle_gamma 90.000000
_cell_volume 4810.759656
_symmetry_space_group_name_H-M "I M M A"
_symmetry_group_IT_number 74
_symmetry_cell_setting 'orthorhombic'
loop_
_space_group_symop_operation_xyz
x,y,z
-x,1/2-y,z
x,-y,-z
-x,1/2+y,-z
-x,-y,-z
x,1/2+y,-z
-x,y,z
x,1/2-y,z
1/2+x,1/2+y,1/2+z
1/2-x,-y,1/2+z
1/2+x,1/2-y,1/2-z
1/2-x,y,1/2-z
1/2-x,1/2-y,1/2-z
1/2+x,y,1/2-z
1/2-x,1/2+y,1/2+z
1/2+x,-y,1/2+z
loop_
_atom_site_type_symbol
_atom_site_label
_atom_site_fract_x
_atom_site_fract_y
_atom_site_fract_z
Si Si1 0.000000 0.568376 0.059656
Si Si2 0.390804 0.929998 0.624112
Si Si3 0.346696 0.568689 0.056708
Si Si4 0.430115 0.425796 0.730062
Si Si5 0.210648 0.067982 0.942658
Si Si6 0.433893 0.066726 0.851271
O O1 0.941624 0.517212 0.091302
O O2 0.000000 0.750000 0.055286
O O3 0.000000 0.500000 0.000000
O O4 0.397191 0.750000 0.613604
O O5 0.395525 0.965969 0.688041
O O6 0.326908 0.989926 0.604886
O O7 0.353677 0.750000 0.053194
O O8 0.278849 0.521160 0.068167
O O9 0.387366 0.499993 0.105007
O O10 0.369445 0.500000 0.000000
O O11 0.500000 0.438254 0.719108
O O12 0.409002 0.250000 0.722036
O O13 0.414863 0.485876 0.790716
O O14 0.201062 0.250000 0.942829
O O15 0.188755 0.000000 0.000000
O O16 0.500000 0.004498 0.865160
O O17 0.434799 0.250000 0.852170
#
# Coordination Sequence:
#
# PCOD8300044 Si02
#       6
#     8  16  16  16  16  16
#     4  12  24  38  54  76 106 136 171 216 263 310
#     4  12  23  35  52  76 104 136 174 218 265 312
#     4   9  18  33  54  79 107 139 175 214 260 313
#     4   9  17  32  54  76 101 137 177 217 260 308
#     4  10  20  35  53  73 101 139 179 218 260 312
#     4   8  15  30  54  82 108 136 174 217 258 307
#
# _framework density 18.29233
#
# number of rings (size 3 to 8) (size 9 to 14) (size 15 to 20)
#    0.000    2.182    0.909    4.636    0.000    1.091 
#    0.000    1.818    0.000    6.545    0.000    0.000 
#    0.000    0.000    0.000    0.000    0.000    0.000 
#
# Total GULP energy -545652.811807 kJ/mol
# GULP energy per Si atom -12401.200268 kJ/mol
# Density = 1.825070 g / cm^3
# Si number density = 18.292330 Si / 1000 Ang^3
#
#
#
# Elastic Constant Matrix: (Units=GPa)
#
#
# Indices 1 2 3 4 5 6 
#
# 1 91.4488 32.0079 80.4619 0.0000 0.0000 0.0000
# 2 32.0079 79.2949 40.7669 0.0000 0.0000 0.0000
# 3 80.4619 40.7669 158.2334 0.0000 0.0000 0.0000
# 4 0.0000 0.0000 0.0000 28.9289 0.0000 0.0000
# 5 0.0000 0.0000 0.0000 0.0000 35.2942 0.0000
# 6 0.0000 0.0000 0.0000 0.0000 0.0000 16.6894
#
#
#
# Elastic Compliance Matrix: (Units=1/GPa)
#
#
# Indices 1 2 3 4 5 6 
#
# 1 0.020540 -0.003367 -0.009577 0.000000 0.000000 0.000000
# 2 -0.003367 0.015089 -0.002175 0.000000 0.000000 0.000000
# 3 -0.009577 -0.002175 0.011750 0.000000 0.000000 0.000000
# 4 0.000000 0.000000 0.000000 0.034567 0.000000 0.000000
# 5 0.000000 0.000000 0.000000 0.000000 0.028333 0.000000
# 6 0.000000 0.000000 0.000000 0.000000 0.000000 0.059918
#
#
# Mechanical properties :
#
#
# Convention : Reuss Voigt Hill
#
# Bulk Modulus (GPa) = 58.34389 70.60564 64.47476
# Shear Modulus (GPa) = 24.25408 27.89852 26.07630
#
# Velocity S-wave (km/s) = 3.64526 3.90955 3.77972
# Velocity P-wave (km/s) = 7.04853 7.68516 7.37372
#
# Compressibility (1/GPa) = 0.01713976
#
# Stress axis : x y z
#
# Youngs Moduli (GPa) = 48.68489 66.27484 85.10517
#
# Poissons Ratio (x) = 0.22318 0.81507
# Poissons Ratio (y) = 0.16394 0.18511
# Poissons Ratio (z) = 0.46626 0.14415
#
# Static dielectric constant tensor:
#      x y z
#    x 3.470570 0.000000 0.000000 
#    y 0.000000 3.199010 0.000000 
#    z 0.000000 0.000000 3.637880 
# 
# 
# High freq. dielectric constant tensor:
#      x y z
#    x 1.698720 0.000000 0.000000 
#    y 0.000000 1.694360 0.000000 
#    z 0.000000 0.000000 1.716520 
# 
# From -- ./inp_files/48740.got.cif
#   From: 2010.03.12/outbox.cif.g09.slc.cpg/sg74_25_cif.got.tgz:48740.got - 2010.04.16 15:46:19.
