data_PCOD8300912
_publ_section_title
;
Structure prediction by ZEFSAII (Michael W. Deem and Ramdas Pophale) SiO2 
 PCOD8300912
Probable space group: I M M A
;
_chemical_formula_sum "Si O2"
_cell_formula_units_Z 96
_cell_length_a 13.431426
_cell_length_b 14.875433
_cell_length_c 21.471819
_cell_angle_alpha 90.000000
_cell_angle_beta 90.000000
_cell_angle_gamma 90.000000
_cell_volume 4290.032452
_symmetry_space_group_name_H-M "I M M A"
_symmetry_group_IT_number 74
_symmetry_cell_setting 'orthorhombic'
loop_
_space_group_symop_operation_xyz
x,y,z
-x,1/2-y,z
x,-y,-z
-x,1/2+y,-z
-x,-y,-z
x,1/2+y,-z
-x,y,z
x,1/2-y,z
1/2+x,1/2+y,1/2+z
1/2-x,-y,1/2+z
1/2+x,1/2-y,1/2-z
1/2-x,y,1/2-z
1/2-x,1/2-y,1/2-z
1/2+x,y,1/2-z
1/2-x,1/2+y,1/2+z
1/2+x,-y,1/2+z
loop_
_atom_site_type_symbol
_atom_site_label
_atom_site_fract_x
_atom_site_fract_y
_atom_site_fract_z
Si Si1 0.615341 0.153838 0.838907
Si Si2 0.109291 0.856461 0.474500
Si Si3 0.888521 0.025897 0.283052
Si Si4 0.307719 0.970234 0.652220
Si Si5 0.384508 0.147101 0.596739
Si Si6 0.696236 0.645818 0.537458
O O1 0.500000 0.168434 0.853305
O O2 0.662734 0.250000 0.818964
O O3 0.655526 0.118651 0.906375
O O4 0.629795 0.082124 0.783972
O O5 0.101542 0.750000 0.477911
O O6 0.190655 0.889427 0.524645
O O7 0.000000 0.899736 0.488201
O O8 0.805467 0.061808 0.331374
O O9 0.873333 0.057055 0.212325
O O10 0.000000 0.052979 0.305448
O O11 0.347518 0.912818 0.594039
O O12 0.320101 0.077163 0.638424
O O13 0.500000 0.132598 0.613277
O O14 0.351163 0.250000 0.612340
O O15 0.370669 0.128849 0.523263
O O16 0.694205 0.750000 0.556977
#
# Coordination Sequence:
#
# PCOD8300912 Si02
#       6
#    16  16  16  16  16  16
#     4   8  14  27  49  76 107 142 174 209 265 336
#     4   8  14  27  51  84 118 147 177 222 284 350
#     4  10  22  38  54  78 113 150 193 240 282 333
#     4  11  23  38  59  84 112 151 193 236 285 333
#     4  10  22  40  62  89 119 149 183 226 279 341
#     4  10  21  37  58  85 115 148 191 239 285 334
#
# _framework density 22.377452999999999
#
# number of rings (size 3 to 8) (size 9 to 14) (size 15 to 20)
#    0.000    2.500    0.000    3.000    0.000    5.333 
#    0.000    5.000    0.000    6.000    0.000    0.000 
#    0.000    0.000    0.000    0.000    0.000    0.000 
#
# Total GULP energy -594719.948877 kJ/mol
# GULP energy per Si atom -12389.998935 kJ/mol
# Density = 2.232652 g / cm^3
# Si number density = 22.377453 Si / 1000 Ang^3
#
#
#
# Elastic Constant Matrix: (Units=GPa)
#
#
# Indices 1 2 3 4 5 6 
#
# 1 79.2422 8.4658 18.4373 0.0000 0.0000 0.0000
# 2 8.4658 40.2120 20.1048 0.0000 0.0000 0.0000
# 3 18.4373 20.1048 84.1732 0.0000 0.0000 0.0000
# 4 0.0000 0.0000 0.0000 25.5825 0.0000 0.0000
# 5 0.0000 0.0000 0.0000 0.0000 21.4051 0.0000
# 6 0.0000 0.0000 0.0000 0.0000 0.0000 16.8163
#
#
#
# Elastic Compliance Matrix: (Units=1/GPa)
#
#
# Indices 1 2 3 4 5 6 
#
# 1 0.013380 -0.001535 -0.002564 0.000000 0.000000 0.000000
# 2 -0.001535 0.028417 -0.006451 0.000000 0.000000 0.000000
# 3 -0.002564 -0.006451 0.013983 0.000000 0.000000 0.000000
# 4 0.000000 0.000000 0.000000 0.039089 0.000000 0.000000
# 5 0.000000 0.000000 0.000000 0.000000 0.046718 0.000000
# 6 0.000000 0.000000 0.000000 0.000000 0.000000 0.059466
#
#
# Mechanical properties :
#
#
# Convention : Reuss Voigt Hill
#
# Bulk Modulus (GPa) = 28.83572 33.07147 30.95360
# Shear Modulus (GPa) = 21.39377 23.20208 22.29792
#
# Velocity S-wave (km/s) = 3.09535 3.22351 3.16008
# Velocity P-wave (km/s) = 5.06842 5.35404 5.21319
#
# Compressibility (1/GPa) = 0.03467921
#
# Stress axis : x y z
#
# Youngs Moduli (GPa) = 74.73774 35.19058 71.51655
#
# Poissons Ratio (x) = 0.05401 0.18338
# Poissons Ratio (y) = 0.11471 0.46136
# Poissons Ratio (z) = 0.19164 0.22702
#
# Static dielectric constant tensor:
#      x y z
#    x 4.286430 0.000000 0.000000 
#    y 0.000000 3.592920 0.000000 
#    z 0.000000 0.000000 3.748200 
# 
# 
# High freq. dielectric constant tensor:
#      x y z
#    x 1.892590 0.000000 0.000000 
#    y 0.000000 1.840100 0.000000 
#    z 0.000000 0.000000 1.864430 
# 
# From -- ./inp_files/51880.got.cif
#   From: 2010.03.12/outbox.cif.g09.slc.cpg/sg74_26_cif.got.tgz:51880.got - 2010.04.16 15:46:19.
