data_PCOD8300196
_publ_section_title
;
Structure prediction by ZEFSAII (Michael W. Deem and Ramdas Pophale) SiO2 
 PCOD8300196
Probable space group: I M M A
;
_chemical_formula_sum "Si O2"
_cell_formula_units_Z 72
_cell_length_a 17.783999
_cell_length_b 8.855375
_cell_length_c 23.456060
_cell_angle_alpha 90.000000
_cell_angle_beta 90.000000
_cell_angle_gamma 90.000000
_cell_volume 3693.953687
_symmetry_space_group_name_H-M "I M M A"
_symmetry_group_IT_number 74
_symmetry_cell_setting 'orthorhombic'
loop_
_space_group_symop_operation_xyz
x,y,z
-x,1/2-y,z
x,-y,-z
-x,1/2+y,-z
-x,-y,-z
x,1/2+y,-z
-x,y,z
x,1/2-y,z
1/2+x,1/2+y,1/2+z
1/2-x,-y,1/2+z
1/2+x,1/2-y,1/2-z
1/2-x,y,1/2-z
1/2-x,1/2-y,1/2-z
1/2+x,y,1/2-z
1/2-x,1/2+y,1/2+z
1/2+x,-y,1/2+z
loop_
_atom_site_type_symbol
_atom_site_label
_atom_site_fract_x
_atom_site_fract_y
_atom_site_fract_z
Si Si1 0.714916 0.074101 0.560894
Si Si2 0.364077 0.072851 0.872084
Si Si3 0.500000 0.928646 0.938312
Si Si4 0.087690 0.425112 0.261703
Si Si5 0.914200 0.574011 0.143395
O O1 0.712437 0.250000 0.549636
O O2 0.784036 0.030024 0.601380
O O3 0.638256 0.019662 0.591437
O O4 0.724270 0.000000 0.500000
O O5 0.381731 0.250000 0.876655
O O6 0.426324 0.979136 0.905273
O O7 0.363604 0.021552 0.806336
O O8 0.500000 0.750000 0.943808
O O9 0.500000 0.000000 0.000000
O O10 0.108230 0.250000 0.267710
O O11 0.109204 0.480041 0.198842
O O12 0.000000 0.454719 0.274114
O O13 0.901622 0.750000 0.157275
O O14 0.000000 0.540411 0.125559
#
# Coordination Sequence:
#
# PCOD8300196 Si02
#       5
#    16  16   8  16  16
#     4  10  23  40  58  84 115 150 194 241 287 344
#     4  11  22  37  58  83 115 155 193 234 288 341
#     4  12  24  38  56  82 114 152 199 240 279 338
#     4  10  20  35  57  87 119 149 190 240 286 339
#     4   9  19  38  62  85 113 151 192 235 288 348
#
# _framework density 19.491311
#
# number of rings (size 3 to 8) (size 9 to 14) (size 15 to 20)
#    0.000    1.778    1.111    3.000    0.000    6.667 
#    0.000    4.444    0.000    0.000    0.000    0.000 
#    0.000    0.000    0.000    0.000    0.000    0.000 
#
# Total GULP energy -446558.614457 kJ/mol
# GULP energy per Si atom -12404.405957 kJ/mol
# Density = 1.944695 g / cm^3
# Si number density = 19.491311 Si / 1000 Ang^3
#
#
#
# Elastic Constant Matrix: (Units=GPa)
#
#
# Indices 1 2 3 4 5 6 
#
# 1 106.7207 47.9934 52.6846 0.0000 0.0000 0.0000
# 2 47.9934 87.1898 50.5563 0.0000 0.0000 0.0000
# 3 52.6846 50.5563 98.6611 0.0000 0.0000 0.0000
# 4 0.0000 0.0000 0.0000 37.0697 0.0000 0.0000
# 5 0.0000 0.0000 0.0000 0.0000 53.6339 0.0000
# 6 0.0000 0.0000 0.0000 0.0000 0.0000 11.5586
#
#
#
# Elastic Compliance Matrix: (Units=1/GPa)
#
#
# Indices 1 2 3 4 5 6 
#
# 1 0.014007 -0.004799 -0.005021 0.000000 0.000000 0.000000
# 2 -0.004799 0.017962 -0.006641 0.000000 0.000000 0.000000
# 3 -0.005021 -0.006641 0.016220 0.000000 0.000000 0.000000
# 4 0.000000 0.000000 0.000000 0.026976 0.000000 0.000000
# 5 0.000000 0.000000 0.000000 0.000000 0.018645 0.000000
# 6 0.000000 0.000000 0.000000 0.000000 0.000000 0.086516
#
#
# Mechanical properties :
#
#
# Convention : Reuss Voigt Hill
#
# Bulk Modulus (GPa) = 65.50185 66.11556 65.80871
# Shear Modulus (GPa) = 22.90049 29.87492 26.38770
#
# Velocity S-wave (km/s) = 3.43141 3.91926 3.68342
# Velocity P-wave (km/s) = 7.02695 7.38071 7.20600
#
# Compressibility (1/GPa) = 0.01526674
#
# Stress axis : x y z
#
# Youngs Moduli (GPa) = 71.39370 55.67379 61.65284
#
# Poissons Ratio (x) = 0.26717 0.30953
# Poissons Ratio (y) = 0.34261 0.40946
# Poissons Ratio (z) = 0.35843 0.36975
#
# Static dielectric constant tensor:
#      x y z
#    x 3.667730 0.000000 0.000000 
#    y 0.000000 3.596050 0.000000 
#    z 0.000000 0.000000 3.505490 
# 
# 
# High freq. dielectric constant tensor:
#      x y z
#    x 1.757440 0.000000 0.000000 
#    y 0.000000 1.761710 0.000000 
#    z 0.000000 0.000000 1.767850 
# 
# From -- ./inp_files/56667.got.cif
#   From: 2010.03.12/outbox.cif.g09.slc.cpg/sg74_29_cif.got.tgz:56667.got - 2010.04.16 15:46:19.
