data_PCOD8300372
_publ_section_title
;
Structure prediction by ZEFSAII (Michael W. Deem and Ramdas Pophale) SiO2 
 PCOD8300372
Probable space group: I M M A
;
_chemical_formula_sum "Si O2"
_cell_formula_units_Z 72
_cell_length_a 20.055241
_cell_length_b 9.256024
_cell_length_c 19.334960
_cell_angle_alpha 90.000000
_cell_angle_beta 90.000000
_cell_angle_gamma 90.000000
_cell_volume 3589.183273
_symmetry_space_group_name_H-M "I M M A"
_symmetry_group_IT_number 74
_symmetry_cell_setting 'orthorhombic'
loop_
_space_group_symop_operation_xyz
x,y,z
-x,1/2-y,z
x,-y,-z
-x,1/2+y,-z
-x,-y,-z
x,1/2+y,-z
-x,y,z
x,1/2-y,z
1/2+x,1/2+y,1/2+z
1/2-x,-y,1/2+z
1/2+x,1/2-y,1/2-z
1/2-x,y,1/2-z
1/2-x,1/2-y,1/2-z
1/2+x,y,1/2-z
1/2-x,1/2+y,1/2+z
1/2+x,-y,1/2+z
loop_
_atom_site_type_symbol
_atom_site_label
_atom_site_fract_x
_atom_site_fract_y
_atom_site_fract_z
Si Si1 0.808171 0.917149 0.801136
Si Si2 0.354596 0.080597 0.573230
Si Si3 0.920594 0.587447 0.434807
Si Si4 0.500000 0.087472 0.568228
Si Si5 0.924259 0.415689 0.301585
O O1 0.797988 0.750000 0.821137
O O2 0.750000 0.969730 0.750000
O O3 0.879166 0.943510 0.764946
O O4 0.804340 0.011232 0.871103
O O5 0.338458 0.250000 0.563397
O O6 0.429485 0.056080 0.606185
O O7 0.346285 0.000000 0.500000
O O8 0.890986 0.500000 0.500000
O O9 0.892357 0.750000 0.436833
O O10 0.896656 0.511968 0.364438
O O11 0.000000 0.586967 0.438233
O O12 0.500000 0.250000 0.542277
O O13 0.500000 0.000000 0.500000
O O14 0.920165 0.250000 0.326272
O O15 0.000000 0.458071 0.281594
#
# Coordination Sequence:
#
# PCOD8300372 Si02
#       5
#    16  16  16   8  16
#     4  10  22  39  57  80 114 151 186 229 282 338
#     4  10  20  36  59  86 116 150 190 235 285 341
#     4   9  16  27  46  73 104 136 171 217 268 316
#     4   8  16  30  50  82 116 144 177 226 281 332
#     4   9  18  33  53  77 104 138 180 224 273 330
#
# _framework density 20.060274
#
# number of rings (size 3 to 8) (size 9 to 14) (size 15 to 20)
#    0.000    2.667    0.000    1.333    1.556    4.889 
#    0.000    1.111    0.000    0.000    0.000    0.000 
#    0.000    0.000    0.000    0.000    0.000    0.000 
#
# Total GULP energy -446177.346669 kJ/mol
# GULP energy per Si atom -12393.815185 kJ/mol
# Density = 2.001462 g / cm^3
# Si number density = 20.060274 Si / 1000 Ang^3
#
#
#
# Elastic Constant Matrix: (Units=GPa)
#
#
# Indices 1 2 3 4 5 6 
#
# 1 64.7982 30.3114 40.8957 0.0000 0.0000 0.0000
# 2 30.3114 117.5716 73.3439 0.0000 0.0000 0.0000
# 3 40.8957 73.3439 116.8272 0.0000 0.0000 0.0000
# 4 0.0000 0.0000 0.0000 39.6745 0.0000 0.0000
# 5 0.0000 0.0000 0.0000 0.0000 22.7660 0.0000
# 6 0.0000 0.0000 0.0000 0.0000 0.0000 16.4013
#
#
#
# Elastic Compliance Matrix: (Units=1/GPa)
#
#
# Indices 1 2 3 4 5 6 
#
# 1 0.019928 -0.001292 -0.006165 0.000000 0.000000 0.000000
# 2 -0.001292 0.014065 -0.008377 0.000000 0.000000 0.000000
# 3 -0.006165 -0.008377 0.015977 0.000000 0.000000 0.000000
# 4 0.000000 0.000000 0.000000 0.025205 0.000000 0.000000
# 5 0.000000 0.000000 0.000000 0.000000 0.043925 0.000000
# 6 0.000000 0.000000 0.000000 0.000000 0.000000 0.060971
#
#
# Mechanical properties :
#
#
# Convention : Reuss Voigt Hill
#
# Bulk Modulus (GPa) = 54.64178 65.36657 60.00417
# Shear Modulus (GPa) = 22.95280 26.07810 24.51545
#
# Velocity S-wave (km/s) = 3.38626 3.60944 3.49963
# Velocity P-wave (km/s) = 6.52587 7.07295 6.80491
#
# Compressibility (1/GPa) = 0.01830101
#
# Stress axis : x y z
#
# Youngs Moduli (GPa) = 50.18187 71.10051 62.59009
#
# Poissons Ratio (x) = 0.09186 0.38584
# Poissons Ratio (y) = 0.06483 0.52435
# Poissons Ratio (z) = 0.30935 0.59564
#
# Static dielectric constant tensor:
#      x y z
#    x 3.372270 0.000000 0.000000 
#    y 0.000000 3.670510 0.000000 
#    z 0.000000 0.000000 3.394740 
# 
# 
# High freq. dielectric constant tensor:
#      x y z
#    x 1.757250 0.000000 0.000000 
#    y 0.000000 1.786420 0.000000 
#    z 0.000000 0.000000 1.773460 
# 
# From -- ./inp_files/39484.got.cif
#   From: 2010.03.12/outbox.cif.g09.slc.cpg/sg74_20_cif.got.tgz:39484.got - 2010.04.16 15:46:19.
