data_PCOD8300801
_publ_section_title
;
Structure prediction by ZEFSAII (Michael W. Deem and Ramdas Pophale) SiO2 
 PCOD8300801
Probable space group: I M M A
;
_chemical_formula_sum "Si O2"
_cell_formula_units_Z 80
_cell_length_a 10.295657
_cell_length_b 14.125822
_cell_length_c 24.731583
_cell_angle_alpha 90.000000
_cell_angle_beta 90.000000
_cell_angle_gamma 90.000000
_cell_volume 3596.828330
_symmetry_space_group_name_H-M "I M M A"
_symmetry_group_IT_number 74
_symmetry_cell_setting 'orthorhombic'
loop_
_space_group_symop_operation_xyz
x,y,z
-x,1/2-y,z
x,-y,-z
-x,1/2+y,-z
-x,-y,-z
x,1/2+y,-z
-x,y,z
x,1/2-y,z
1/2+x,1/2+y,1/2+z
1/2-x,-y,1/2+z
1/2+x,1/2-y,1/2-z
1/2-x,y,1/2-z
1/2-x,1/2-y,1/2-z
1/2+x,y,1/2-z
1/2-x,1/2+y,1/2+z
1/2+x,-y,1/2+z
loop_
_atom_site_type_symbol
_atom_site_label
_atom_site_fract_x
_atom_site_fract_y
_atom_site_fract_z
Si Si1 0.856591 0.639055 0.791182
Si Si2 0.738136 0.353259 0.094257
Si Si3 0.643927 0.443409 0.907913
Si Si4 0.853297 0.641018 0.294016
Si Si5 0.640149 0.108214 0.513264
O O1 0.863147 0.750000 0.780120
O O2 0.750000 0.593803 0.750000
O O3 0.822687 0.618725 0.853519
O O4 0.000000 0.595137 0.779197
O O5 0.667861 0.250000 0.104412
O O6 0.645018 0.442648 0.082122
O O7 0.827604 0.336746 0.041801
O O8 0.500000 0.407866 0.924187
O O9 0.672396 0.424332 0.845505
O O10 0.746447 0.381559 0.942230
O O11 0.829012 0.750000 0.310111
O O12 0.750000 0.606427 0.250000
O O13 0.000000 0.627354 0.271865
O O14 0.500000 0.146137 0.535214
O O15 0.624863 0.000000 0.500000
#
# Coordination Sequence:
#
# PCOD8300801 Si02
#       5
#    16  16  16  16  16
#     4   9  18  33  52  74 104 144 189 235 278 322
#     4  10  21  36  56  83 117 157 197 235 278 336
#     4  10  22  39  58  85 120 152 187 237 293 347
#     4   9  19  38  63  88 114 146 187 238 295 350
#     4   9  19  36  57  80 108 147 195 243 289 338
#
# _framework density 22.241817999999999
#
# number of rings (size 3 to 8) (size 9 to 14) (size 15 to 20)
#    0.000    2.600    0.000    0.600    0.000    9.200 
#    0.000    4.000    0.000    0.000    0.000    0.000 
#    0.000    0.000    0.000    0.000    0.000    0.000 
#
# Total GULP energy -495623.655306 kJ/mol
# GULP energy per Si atom -12390.591383 kJ/mol
# Density = 2.219119 g / cm^3
# Si number density = 22.241818 Si / 1000 Ang^3
#
#
#
# Elastic Constant Matrix: (Units=GPa)
#
#
# Indices 1 2 3 4 5 6 
#
# 1 182.8058 11.0831 101.5272 0.0000 0.0000 0.0000
# 2 11.0831 62.1287 20.8059 0.0000 0.0000 0.0000
# 3 101.5272 20.8059 137.8403 0.0000 0.0000 0.0000
# 4 0.0000 0.0000 0.0000 39.1086 0.0000 0.0000
# 5 0.0000 0.0000 0.0000 0.0000 35.6359 0.0000
# 6 0.0000 0.0000 0.0000 0.0000 0.0000 38.9290
#
#
#
# Elastic Compliance Matrix: (Units=1/GPa)
#
#
# Indices 1 2 3 4 5 6 
#
# 1 0.009283 0.000668 -0.006938 0.000000 0.000000 0.000000
# 2 0.000668 0.017001 -0.003058 0.000000 0.000000 0.000000
# 3 -0.006938 -0.003058 0.012827 0.000000 0.000000 0.000000
# 4 0.000000 0.000000 0.000000 0.025570 0.000000 0.000000
# 5 0.000000 0.000000 0.000000 0.000000 0.028062 0.000000
# 6 0.000000 0.000000 0.000000 0.000000 0.000000 0.025688
#
#
# Mechanical properties :
#
#
# Convention : Reuss Voigt Hill
#
# Bulk Modulus (GPa) = 48.89173 72.17857 60.53515
# Shear Modulus (GPa) = 34.74514 39.35861 37.05188
#
# Velocity S-wave (km/s) = 3.95670 4.21120 4.08593
# Velocity P-wave (km/s) = 6.55008 7.49452 7.03816
#
# Compressibility (1/GPa) = 0.02045336
#
# Stress axis : x y z
#
# Youngs Moduli (GPa) = 107.72030 58.82169 77.96136
#
# Poissons Ratio (x) = -0.03926 0.54093
# Poissons Ratio (y) = -0.07191 0.23839
# Poissons Ratio (z) = 0.74741 0.17986
#
# Static dielectric constant tensor:
#      x y z
#    x 4.387620 0.000000 0.000000 
#    y 0.000000 4.091250 0.000000 
#    z 0.000000 0.000000 3.949790 
# 
# 
# High freq. dielectric constant tensor:
#      x y z
#    x 1.868400 0.000000 0.000000 
#    y 0.000000 1.867910 0.000000 
#    z 0.000000 0.000000 1.867870 
# 
# From -- ./inp_files/58492.got.cif
#   From: 2010.03.12/outbox.cif.g09.slc.cpg/sg74_30_cif.got.tgz:58492.got - 2010.04.16 15:46:19.
