data_PCOD8300112
_publ_section_title
;
Structure prediction by ZEFSAII (Michael W. Deem and Ramdas Pophale) SiO2 
 PCOD8300112
Probable space group: I M M A
;
_chemical_formula_sum "Si O2"
_cell_formula_units_Z 96
_cell_length_a 8.884297
_cell_length_b 27.445457
_cell_length_c 20.586801
_cell_angle_alpha 90.000000
_cell_angle_beta 90.000000
_cell_angle_gamma 90.000000
_cell_volume 5019.753621
_symmetry_space_group_name_H-M "I M M A"
_symmetry_group_IT_number 74
_symmetry_cell_setting 'orthorhombic'
loop_
_space_group_symop_operation_xyz
x,y,z
-x,1/2-y,z
x,-y,-z
-x,1/2+y,-z
-x,-y,-z
x,1/2+y,-z
-x,y,z
x,1/2-y,z
1/2+x,1/2+y,1/2+z
1/2-x,-y,1/2+z
1/2+x,1/2-y,1/2-z
1/2-x,y,1/2-z
1/2-x,1/2-y,1/2-z
1/2+x,y,1/2-z
1/2-x,1/2+y,1/2+z
1/2+x,-y,1/2+z
loop_
_atom_site_type_symbol
_atom_site_label
_atom_site_fract_x
_atom_site_fract_y
_atom_site_fract_z
Si Si1 0.823021 0.532439 0.438444
Si Si2 0.822117 0.135568 0.941674
Si Si3 0.678457 0.304382 0.433642
Si Si4 0.322477 0.518806 0.682825
Si Si5 0.822751 0.694790 0.183950
Si Si6 0.177482 0.630314 0.816498
O O1 0.776334 0.500000 0.500000
O O2 0.770152 0.586760 0.453234
O O3 0.738301 0.513927 0.374981
O O4 0.000000 0.530654 0.425664
O O5 0.771142 0.160041 0.874337
O O6 0.000000 0.124498 0.943385
O O7 0.773185 0.172379 0.998290
O O8 0.500000 0.302402 0.428891
O O9 0.746457 0.250000 0.429081
O O10 0.742862 0.336829 0.374688
O O11 0.500000 0.512181 0.687807
O O12 0.250000 0.500442 0.750000
O O13 0.275661 0.574645 0.669333
O O14 0.767644 0.750000 0.169854
O O15 0.750000 0.674501 0.250000
O O16 0.000000 0.693492 0.192089
O O17 0.250000 0.649338 0.750000
O O18 0.000000 0.635387 0.810023
#
# Coordination Sequence:
#
# PCOD8300112 Si02
#       6
#    16  16  16  16  16  16
#     4  11  24  39  55  78 109 143 180 226 276 323
#     4  10  20  35  56  79 103 136 179 223 265 313
#     4   9  17  31  53  79 105 135 175 220 261 306
#     4  10  20  36  58  82 109 142 181 223 268 321
#     4   9  18  33  54  80 108 138 172 211 257 310
#     4   9  18  32  52  78 106 137 172 212 259 311
#
# _framework density 19.124442999999999
#
# number of rings (size 3 to 8) (size 9 to 14) (size 15 to 20)
#    0.000    2.333    0.000    2.500    0.000    7.000 
#    0.000    2.500    0.000    2.500    0.000    0.000 
#    0.000    0.000    0.000    0.000    0.000    0.000 
#
# Total GULP energy -595333.553858 kJ/mol
# GULP energy per Si atom -12402.782372 kJ/mol
# Density = 1.908092 g / cm^3
# Si number density = 19.124443 Si / 1000 Ang^3
#
#
#
# Elastic Constant Matrix: (Units=GPa)
#
#
# Indices 1 2 3 4 5 6 
#
# 1 34.5259 16.6942 22.7179 0.0000 0.0000 0.0000
# 2 16.6942 85.3333 37.5363 0.0001 0.0000 0.0000
# 3 22.7179 37.5363 116.5319 -0.0004 0.0000 0.0000
# 4 0.0000 0.0001 -0.0004 39.1632 0.0000 0.0000
# 5 0.0000 0.0000 0.0000 0.0000 30.8376 -0.0001
# 6 0.0000 0.0000 0.0000 0.0000 -0.0001 20.9387
#
#
#
# Elastic Compliance Matrix: (Units=1/GPa)
#
#
# Indices 1 2 3 4 5 6 
#
# 1 0.034606 -0.004430 -0.005319 0.000000 0.000000 0.000000
# 2 -0.004430 0.014220 -0.003717 0.000000 0.000000 0.000000
# 3 -0.005319 -0.003717 0.010816 0.000000 0.000000 0.000000
# 4 0.000000 0.000000 0.000000 0.025534 0.000000 0.000000
# 5 0.000000 0.000000 0.000000 0.000000 0.032428 0.000000
# 6 0.000000 0.000000 0.000000 0.000000 0.000000 0.047758
#
#
# Mechanical properties :
#
#
# Convention : Reuss Voigt Hill
#
# Bulk Modulus (GPa) = 30.57264 43.36534 36.96899
# Shear Modulus (GPa) = 24.60644 28.81742 26.71193
#
# Velocity S-wave (km/s) = 3.59088 3.88601 3.74136
# Velocity P-wave (km/s) = 5.76311 6.54671 6.16736
#
# Compressibility (1/GPa) = 0.03270899
#
# Stress axis : x y z
#
# Youngs Moduli (GPa) = 28.89664 70.32128 92.45893
#
# Poissons Ratio (x) = 0.31154 0.49183
# Poissons Ratio (y) = 0.12802 0.34366
# Poissons Ratio (z) = 0.15371 0.26138
#
# Static dielectric constant tensor:
#      x y z
#    x 3.264030 0.000000 0.000000 
#    y 0.000000 3.614960 0.000000 
#    z 0.000000 0.000000 3.679130 
# 
# 
# High freq. dielectric constant tensor:
#      x y z
#    x 1.721010 0.000000 0.000000 
#    y 0.000000 1.746170 0.000000 
#    z 0.000000 0.000000 1.759550 
# 
# From -- ./inp_files/49102.got.cif
#   From: 2010.03.12/outbox.cif.g09.slc.cpg/sg74_25_cif.got.tgz:49102.got - 2010.04.16 15:46:19.
