data_PCOD8300319
_publ_section_title
;
Structure prediction by ZEFSAII (Michael W. Deem and Ramdas Pophale) SiO2 
 PCOD8300319
Probable space group: I M M A
;
_chemical_formula_sum "Si O2"
_cell_formula_units_Z 96
_cell_length_a 29.534398
_cell_length_b 9.131981
_cell_length_c 19.145134
_cell_angle_alpha 90.000000
_cell_angle_beta 90.000000
_cell_angle_gamma 90.000000
_cell_volume 5163.587403
_symmetry_space_group_name_H-M "I M M A"
_symmetry_group_IT_number 74
_symmetry_cell_setting 'orthorhombic'
loop_
_space_group_symop_operation_xyz
x,y,z
-x,1/2-y,z
x,-y,-z
-x,1/2+y,-z
-x,-y,-z
x,1/2+y,-z
-x,y,z
x,1/2-y,z
1/2+x,1/2+y,1/2+z
1/2-x,-y,1/2+z
1/2+x,1/2-y,1/2-z
1/2-x,y,1/2-z
1/2-x,1/2-y,1/2-z
1/2+x,y,1/2-z
1/2-x,1/2+y,1/2+z
1/2+x,-y,1/2+z
loop_
_atom_site_type_symbol
_atom_site_label
_atom_site_fract_x
_atom_site_fract_y
_atom_site_fract_z
Si Si1 0.375242 0.918416 0.671339
Si Si2 0.727651 0.078733 0.820681
Si Si3 0.050027 0.084859 0.063435
Si Si4 0.948561 0.921288 0.428045
Si Si5 0.303688 0.423203 0.574615
Si Si6 0.874599 0.923266 0.314280
O O1 0.358399 0.750000 0.677045
O O2 0.423389 0.929565 0.634662
O O3 0.340068 0.014531 0.628225
O O4 0.385788 0.988167 0.745276
O O5 0.727994 0.250000 0.807596
O O6 0.750000 0.006782 0.750000
O O7 0.755424 0.038913 0.890387
O O8 0.676299 0.027222 0.835413
O O9 0.047420 0.250000 0.037758
O O10 0.000000 0.018966 0.076539
O O11 0.074734 0.000000 0.000000
O O12 0.943869 0.750000 0.441612
O O13 0.911516 0.973309 0.371456
O O14 0.000000 0.960517 0.403426
O O15 0.936596 0.000000 0.500000
O O16 0.307050 0.500000 0.500000
O O17 0.311190 0.250000 0.565129
O O18 0.877681 0.750000 0.300297
#
# Coordination Sequence:
#
# PCOD8300319 Si02
#       6
#    16  16  16  16  16  16
#     4  11  22  35  53  80 110 141 179 222 271 323
#     4   9  17  34  57  77 101 143 186 220 268 326
#     4   9  19  35  52  71  99 135 174 216 261 310
#     4   9  19  36  58  84 114 147 184 229 283 339
#     4  11  22  37  57  80 109 142 182 225 272 327
#     4  10  20  36  58  81 108 145 185 224 271 329
#
# _framework density 18.591725
#
# number of rings (size 3 to 8) (size 9 to 14) (size 15 to 20)
#    0.000    2.167    1.667    1.500    0.000    4.667 
#    0.000    2.500    0.000    0.000    0.000    0.000 
#    0.000    0.000    0.000    0.000    0.000    0.000 
#
# Total GULP energy -595007.488238 kJ/mol
# GULP energy per Si atom -12395.989338 kJ/mol
# Density = 1.854941 g / cm^3
# Si number density = 18.591725 Si / 1000 Ang^3
#
#
#
# Elastic Constant Matrix: (Units=GPa)
#
#
# Indices 1 2 3 4 5 6 
#
# 1 125.3813 44.3814 78.9295 0.0000 0.0000 0.0000
# 2 44.3814 72.5179 60.6076 0.0000 0.0000 0.0000
# 3 78.9295 60.6076 149.7217 0.0000 0.0000 0.0000
# 4 0.0000 0.0000 0.0000 34.2151 0.0000 0.0000
# 5 0.0000 0.0000 0.0000 0.0000 17.5452 0.0000
# 6 0.0000 0.0000 0.0000 0.0000 0.0000 18.5160
#
#
#
# Elastic Compliance Matrix: (Units=1/GPa)
#
#
# Indices 1 2 3 4 5 6 
#
# 1 0.012414 -0.003216 -0.005243 0.000000 0.000000 0.000000
# 2 -0.003216 0.021673 -0.007078 0.000000 0.000000 0.000000
# 3 -0.005243 -0.007078 0.012308 0.000000 0.000000 0.000000
# 4 0.000000 0.000000 0.000000 0.029227 0.000000 0.000000
# 5 0.000000 0.000000 0.000000 0.000000 0.056996 0.000000
# 6 0.000000 0.000000 0.000000 0.000000 0.000000 0.054007
#
#
# Mechanical properties :
#
#
# Convention : Reuss Voigt Hill
#
# Bulk Modulus (GPa) = 65.26394 79.49531 72.37962
# Shear Modulus (GPa) = 22.44095 24.96876 23.70485
#
# Velocity S-wave (km/s) = 3.47802 3.66868 3.57462
# Velocity P-wave (km/s) = 7.16301 7.79723 7.48684
#
# Compressibility (1/GPa) = 0.01532240
#
# Stress axis : x y z
#
# Youngs Moduli (GPa) = 80.55140 46.13932 81.24740
#
# Poissons Ratio (x) = 0.14839 0.42596
# Poissons Ratio (y) = 0.25906 0.57507
# Poissons Ratio (z) = 0.42231 0.32658
#
# Static dielectric constant tensor:
#      x y z
#    x 3.863670 0.000000 0.000000 
#    y 0.000000 3.396110 0.000000 
#    z 0.000000 0.000000 3.448060 
# 
# 
# High freq. dielectric constant tensor:
#      x y z
#    x 1.732110 0.000000 0.000000 
#    y 0.000000 1.708690 0.000000 
#    z 0.000000 0.000000 1.720700 
# 
# From -- ./inp_files/49168.got.cif
#   From: 2010.03.12/outbox.cif.g09.slc.cpg/sg74_25_cif.got.tgz:49168.got - 2010.04.16 15:46:19.
