data_PCOD8300318
_publ_section_title
;
Structure prediction by ZEFSAII (Michael W. Deem and Ramdas Pophale) SiO2 
 PCOD8300318
Probable space group: I M M A
;
_chemical_formula_sum "Si O2"
_cell_formula_units_Z 88
_cell_length_a 9.433888
_cell_length_b 22.010245
_cell_length_c 22.689811
_cell_angle_alpha 90.000000
_cell_angle_beta 90.000000
_cell_angle_gamma 90.000000
_cell_volume 4711.361960
_symmetry_space_group_name_H-M "I M M A"
_symmetry_group_IT_number 74
_symmetry_cell_setting 'orthorhombic'
loop_
_space_group_symop_operation_xyz
x,y,z
-x,1/2-y,z
x,-y,-z
-x,1/2+y,-z
-x,-y,-z
x,1/2+y,-z
-x,y,z
x,1/2-y,z
1/2+x,1/2+y,1/2+z
1/2-x,-y,1/2+z
1/2+x,1/2-y,1/2-z
1/2-x,y,1/2-z
1/2-x,1/2-y,1/2-z
1/2+x,y,1/2-z
1/2-x,1/2+y,1/2+z
1/2+x,-y,1/2+z
loop_
_atom_site_type_symbol
_atom_site_label
_atom_site_fract_x
_atom_site_fract_y
_atom_site_fract_z
Si Si1 0.663742 0.750000 0.810858
Si Si2 0.330134 0.983917 0.692186
Si Si3 0.340062 0.682090 0.301862
Si Si4 0.160126 0.086321 0.899592
Si Si5 0.164905 0.569892 0.507887
Si Si6 0.334214 0.620498 0.864441
O O1 0.500000 0.750000 0.792255
O O2 0.750000 0.750000 0.750000
O O3 0.698473 0.808769 0.851351
O O4 0.500000 0.981201 0.702366
O O5 0.250000 0.009316 0.750000
O O6 0.265535 0.917550 0.679371
O O7 0.289540 0.027681 0.637751
O O8 0.500000 0.681316 0.279185
O O9 0.284882 0.750000 0.314396
O O10 0.250000 0.650989 0.250000
O O11 0.323369 0.646043 0.361409
O O12 0.000000 0.075473 0.920697
O O13 0.254249 0.103270 0.955586
O O14 0.212057 0.500000 0.500000
O O15 0.209135 0.601348 0.569224
O O16 0.000000 0.577578 0.496957
O O17 0.500000 0.605241 0.853092
#
# Coordination Sequence:
#
# PCOD8300318 Si02
#       6
#     8  16  16  16  16  16
#     4  10  22  40  62  84 112 148 187 234 281 330
#     4  11  22  34  53  82 112 142 178 224 276 329
#     4   9  18  34  54  76 106 142 179 220 267 318
#     4  10  21  35  53  79 110 143 180 223 271 324
#     4  10  20  36  58  81 107 142 181 221 270 327
#     4  10  21  39  59  81 111 146 184 228 278 329
#
# _framework density 18.678250999999999
#
# number of rings (size 3 to 8) (size 9 to 14) (size 15 to 20)
#    0.000    2.000    1.818    1.636    0.000    4.727 
#    1.636    0.000    0.000    0.000    0.000    0.000 
#    0.000    0.000    0.000    0.000    0.000    0.000 
#
# Total GULP energy -545509.896920 kJ/mol
# GULP energy per Si atom -12397.952203 kJ/mol
# Density = 1.863574 g / cm^3
# Si number density = 18.678251 Si / 1000 Ang^3
#
#
#
# Elastic Constant Matrix: (Units=GPa)
#
#
# Indices 1 2 3 4 5 6 
#
# 1 61.7722 31.9762 54.8211 0.0000 0.0000 0.0000
# 2 31.9762 94.1662 41.8432 0.0000 0.0000 0.0000
# 3 54.8211 41.8432 121.4043 0.0000 0.0000 0.0000
# 4 0.0000 0.0000 0.0000 -3.4194 0.0000 0.0000
# 5 0.0000 0.0000 0.0000 0.0000 40.5773 0.0000
# 6 0.0000 0.0000 0.0000 0.0000 0.0000 23.4676
#
#
#
# Elastic Compliance Matrix: (Units=1/GPa)
#
#
# Indices 1 2 3 4 5 6 
#
# 1 0.028677 -0.004704 -0.011328 0.000000 0.000000 0.000000
# 2 -0.004704 0.013312 -0.002464 0.000000 0.000000 0.000000
# 3 -0.011328 -0.002464 0.014201 0.000000 0.000000 0.000000
# 4 0.000000 0.000000 0.000000 -0.292453 0.000000 0.000000
# 5 0.000000 0.000000 0.000000 0.000000 0.024644 0.000000
# 6 0.000000 0.000000 0.000000 0.000000 0.000000 0.042612
#
#
# Mechanical properties :
#
#
# Convention : Reuss Voigt Hill
#
# Bulk Modulus (GPa) = 52.08863 59.40264 55.74564
# Shear Modulus (GPa) = -39.80402 22.03857 -8.88272
#
# Velocity S-wave (km/s) = -4.62132 3.43870 -2.18311
# Velocity P-wave (km/s) = 0.72639 6.90206 4.85339
#
# Compressibility (1/GPa) = 0.01919805
#
# Stress axis : x y z
#
# Youngs Moduli (GPa) = 34.87131 75.12157 70.41604
#
# Poissons Ratio (x) = 0.35339 0.79767
# Poissons Ratio (y) = 0.16404 0.17349
# Poissons Ratio (z) = 0.39502 0.18508
#
# Static dielectric constant tensor:
#      x y z
#    x 3.447550 0.000000 0.000000 
#    y 0.000000 3.552940 0.000000 
#    z 0.000000 0.000000 3.431160 
# 
# 
# High freq. dielectric constant tensor:
#      x y z
#    x 1.724740 0.000000 0.000000 
#    y 0.000000 1.723070 0.000000 
#    z 0.000000 0.000000 1.726740 
# 
# From -- ./inp_files/48696.got.cif
#   From: 2010.03.12/outbox.cif.g09.slc.cpg/sg74_25_cif.got.tgz:48696.got - 2010.04.16 15:46:19.
