data_PCOD8300703
_publ_section_title
;
Structure prediction by ZEFSAII (Michael W. Deem and Ramdas Pophale) SiO2 
 PCOD8300703
Probable space group: I M M A
;
_chemical_formula_sum "Si O2"
_cell_formula_units_Z 96
_cell_length_a 9.117887
_cell_length_b 20.208522
_cell_length_c 27.906711
_cell_angle_alpha 90.000000
_cell_angle_beta 90.000000
_cell_angle_gamma 90.000000
_cell_volume 5142.063221
_symmetry_space_group_name_H-M "I M M A"
_symmetry_group_IT_number 74
_symmetry_cell_setting 'orthorhombic'
loop_
_space_group_symop_operation_xyz
x,y,z
-x,1/2-y,z
x,-y,-z
-x,1/2+y,-z
-x,-y,-z
x,1/2+y,-z
-x,y,z
x,1/2-y,z
1/2+x,1/2+y,1/2+z
1/2-x,-y,1/2+z
1/2+x,1/2-y,1/2-z
1/2-x,y,1/2-z
1/2-x,1/2-y,1/2-z
1/2+x,y,1/2-z
1/2-x,1/2+y,1/2+z
1/2+x,-y,1/2+z
loop_
_atom_site_type_symbol
_atom_site_label
_atom_site_fract_x
_atom_site_fract_y
_atom_site_fract_z
Si Si1 0.170757 0.944155 0.637554
Si Si2 0.825425 0.053379 0.800820
Si Si3 0.669804 0.824113 0.797152
Si Si4 0.830502 0.173428 0.968483
Si Si5 0.674089 0.322878 0.638728
Si Si6 0.327564 0.064560 0.027507
O O1 0.204133 0.871450 0.658330
O O2 0.218052 0.942869 0.582544
O O3 0.000000 0.963587 0.644245
O O4 0.273499 0.996285 0.663844
O O5 0.750000 0.043567 0.750000
O O6 0.771538 0.123293 0.822956
O O7 0.000000 0.050150 0.794935
O O8 0.500000 0.824114 0.784383
O O9 0.724354 0.750000 0.810320
O O10 0.750000 0.851553 0.750000
O O11 0.806473 0.250000 0.981580
O O12 0.769784 0.159175 0.914729
O O13 0.000000 0.153751 0.971991
O O14 0.742553 0.130481 0.006440
O O15 0.500000 0.320973 0.636566
O O16 0.733321 0.250000 0.653978
O O17 0.500000 0.071883 0.021366
O O18 0.267961 0.000000 0.000000
#
# Coordination Sequence:
#
# PCOD8300703 Si02
#       6
#    16  16  16  16  16  16
#     4  10  21  36  53  74 103 137 172 211 253 305
#     4  11  22  35  54  78 104 136 173 215 262 311
#     4   9  18  33  52  72  94 124 162 201 243 292
#     4   9  18  34  56  80 105 136 177 220 259 308
#     4   8  16  33  55  77 103 137 175 213 255 305
#     4  10  21  35  52  77 108 139 172 215 266 315
#
# _framework density 18.669547999999999
#
# number of rings (size 3 to 8) (size 9 to 14) (size 15 to 20)
#    0.000    2.500    0.000    3.000    0.000    4.333 
#    0.000    2.500    0.000    5.500    0.000    0.000 
#    0.000    0.000    0.000    0.000    0.000    0.000 
#
# Total GULP energy -595214.413090 kJ/mol
# GULP energy per Si atom -12400.300273 kJ/mol
# Density = 1.862706 g / cm^3
# Si number density = 18.669548 Si / 1000 Ang^3
#
#
#
# Elastic Constant Matrix: (Units=GPa)
#
#
# Indices 1 2 3 4 5 6 
#
# 1 43.2361 35.7191 38.5738 0.0000 0.0000 0.0000
# 2 35.7191 97.7459 59.9865 0.0000 0.0000 0.0000
# 3 38.5738 59.9865 125.7050 0.0000 0.0000 0.0000
# 4 0.0000 0.0000 0.0000 37.3848 0.0000 0.0000
# 5 0.0000 0.0000 0.0000 0.0000 24.6607 0.0000
# 6 0.0000 0.0000 0.0000 0.0000 0.0000 26.6449
#
#
#
# Elastic Compliance Matrix: (Units=1/GPa)
#
#
# Indices 1 2 3 4 5 6 
#
# 1 0.036950 -0.009254 -0.006922 0.000000 0.000000 0.000000
# 2 -0.009254 0.016785 -0.005170 0.000000 0.000000 0.000000
# 3 -0.006922 -0.005170 0.012547 0.000000 0.000000 0.000000
# 4 0.000000 0.000000 0.000000 0.026749 0.000000 0.000000
# 5 0.000000 0.000000 0.000000 0.000000 0.040550 0.000000
# 6 0.000000 0.000000 0.000000 0.000000 0.000000 0.037531
#
#
# Mechanical properties :
#
#
# Convention : Reuss Voigt Hill
#
# Bulk Modulus (GPa) = 42.39402 59.47175 50.93288
# Shear Modulus (GPa) = 22.55621 26.56524 24.56072
#
# Velocity S-wave (km/s) = 3.47966 3.77625 3.63099
# Velocity P-wave (km/s) = 6.23706 7.13705 6.70218
#
# Compressibility (1/GPa) = 0.02358824
#
# Stress axis : x y z
#
# Youngs Moduli (GPa) = 27.06350 59.57574 79.70344
#
# Poissons Ratio (x) = 0.55134 0.55173
# Poissons Ratio (y) = 0.25046 0.41208
# Poissons Ratio (z) = 0.18734 0.30802
#
# Static dielectric constant tensor:
#      x y z
#    x 3.202580 0.000000 0.000000 
#    y 0.000000 3.754580 0.000000 
#    z 0.000000 0.000000 3.523630 
# 
# 
# High freq. dielectric constant tensor:
#      x y z
#    x 1.703600 0.000000 0.000000 
#    y 0.000000 1.737670 0.000000 
#    z 0.000000 0.000000 1.727630 
# 
# From -- ./inp_files/64266.got.cif
#   From: 2010.03.12/outbox.cif.g09.slc.cpg/sg74_33_cif.got.tgz:64266.got - 2010.04.16 15:46:19.
