data_PCOD8300702
_publ_section_title
;
Structure prediction by ZEFSAII (Michael W. Deem and Ramdas Pophale) SiO2 
 PCOD8300702
Probable space group: I M M A
;
_chemical_formula_sum "Si O2"
_cell_formula_units_Z 96
_cell_length_a 9.472491
_cell_length_b 26.868822
_cell_length_c 18.848206
_cell_angle_alpha 90.000000
_cell_angle_beta 90.000000
_cell_angle_gamma 90.000000
_cell_volume 4797.145016
_symmetry_space_group_name_H-M "I M M A"
_symmetry_group_IT_number 74
_symmetry_cell_setting 'orthorhombic'
loop_
_space_group_symop_operation_xyz
x,y,z
-x,1/2-y,z
x,-y,-z
-x,1/2+y,-z
-x,-y,-z
x,1/2+y,-z
-x,y,z
x,1/2-y,z
1/2+x,1/2+y,1/2+z
1/2-x,-y,1/2+z
1/2+x,1/2-y,1/2-z
1/2-x,y,1/2-z
1/2-x,1/2-y,1/2-z
1/2+x,y,1/2-z
1/2-x,1/2+y,1/2+z
1/2+x,-y,1/2+z
loop_
_atom_site_type_symbol
_atom_site_label
_atom_site_fract_x
_atom_site_fract_y
_atom_site_fract_z
Si Si1 0.158710 0.692061 0.059272
Si Si2 0.844944 0.454772 0.688546
Si Si3 0.667705 0.195012 0.399915
Si Si4 0.334801 0.402172 0.320558
Si Si5 0.660251 0.504299 0.583095
Si Si6 0.343209 0.339306 0.813125
O O1 0.155387 0.750000 0.076910
O O2 0.266447 0.665683 0.111942
O O3 0.000000 0.669922 0.068693
O O4 0.217169 0.682669 0.979992
O O5 0.750000 0.480264 0.750000
O O6 0.766746 0.463740 0.614518
O O7 0.861852 0.396975 0.703594
O O8 0.000000 0.480029 0.688792
O O9 0.500000 0.196387 0.401217
O O10 0.724750 0.250000 0.376426
O O11 0.721476 0.151897 0.347203
O O12 0.500000 0.400009 0.302107
O O13 0.250000 0.417019 0.250000
O O14 0.305141 0.441396 0.384040
O O15 0.685910 0.500000 0.500000
O O16 0.500000 0.489338 0.602057
O O17 0.500000 0.314602 0.815116
O O18 0.250000 0.314505 0.750000
#
# Coordination Sequence:
#
# PCOD8300702 Si02
#       6
#    16  16  16  16  16  16
#     4   9  18  33  55  80 105 139 182 229 281 333
#     4  10  21  37  56  78 107 144 184 227 275 328
#     4   8  16  33  57  83 110 143 183 226 275 331
#     4  10  21  37  57  84 115 147 184 227 275 329
#     4  10  22  37  56  84 112 145 188 230 277 330
#     4  10  21  35  52  77 106 142 185 228 278 332
#
# _framework density 20.011901999999999
#
# number of rings (size 3 to 8) (size 9 to 14) (size 15 to 20)
#    0.000    2.500    0.000    2.500    2.333    5.333 
#    0.000    0.833    0.000    1.000    0.000    0.000 
#    0.000    0.000    0.000    0.000    0.000    0.000 
#
# Total GULP energy -595017.519643 kJ/mol
# GULP energy per Si atom -12396.198326 kJ/mol
# Density = 1.996635 g / cm^3
# Si number density = 20.011902 Si / 1000 Ang^3
#
#
#
# Elastic Constant Matrix: (Units=GPa)
#
#
# Indices 1 2 3 4 5 6 
#
# 1 117.0632 23.9305 63.4858 0.0000 0.0000 0.0000
# 2 23.9305 55.9129 41.4391 0.0000 0.0000 0.0000
# 3 63.4858 41.4391 122.6189 0.0000 0.0001 -0.0001
# 4 0.0000 0.0000 0.0000 28.1320 0.0000 0.0000
# 5 0.0000 0.0000 0.0001 0.0000 31.2501 0.0000
# 6 0.0000 0.0000 -0.0001 0.0000 0.0000 16.2798
#
#
#
# Elastic Compliance Matrix: (Units=1/GPa)
#
#
# Indices 1 2 3 4 5 6 
#
# 1 0.011898 -0.000703 -0.005923 0.000000 0.000000 0.000000
# 2 -0.000703 0.023903 -0.007714 0.000000 0.000000 0.000000
# 3 -0.005923 -0.007714 0.013829 0.000000 0.000000 0.000000
# 4 0.000000 0.000000 0.000000 0.035547 0.000000 0.000000
# 5 0.000000 0.000000 0.000000 0.000000 0.032000 0.000000
# 6 0.000000 0.000000 0.000000 0.000000 0.000000 0.061426
#
#
# Mechanical properties :
#
#
# Convention : Reuss Voigt Hill
#
# Bulk Modulus (GPa) = 47.73137 61.47841 54.60489
# Shear Modulus (GPa) = 23.33558 26.24835 24.79196
#
# Velocity S-wave (km/s) = 3.41850 3.62558 3.52356
# Velocity P-wave (km/s) = 6.28370 6.95083 6.62567
#
# Compressibility (1/GPa) = 0.02095058
#
# Stress axis : x y z
#
# Youngs Moduli (GPa) = 84.04726 41.83580 72.31282
#
# Poissons Ratio (x) = 0.02940 0.42829
# Poissons Ratio (y) = 0.05907 0.55783
# Poissons Ratio (z) = 0.49779 0.32273
#
# Static dielectric constant tensor:
#      x y z
#    x 3.712940 0.000000 0.000000 
#    y 0.000000 3.630160 0.000000 
#    z 0.000000 0.000000 3.613480 
# 
# 
# High freq. dielectric constant tensor:
#      x y z
#    x 1.764390 0.000000 0.000000 
#    y 0.000000 1.773310 0.000000 
#    z 0.000000 0.000000 1.779770 
# 
# From -- ./inp_files/49139.got.cif
#   From: 2010.03.12/outbox.cif.g09.slc.cpg/sg74_25_cif.got.tgz:49139.got - 2010.04.16 15:46:19.
