data_PCOD8300120
_publ_section_title
;
Structure prediction by ZEFSAII (Michael W. Deem and Ramdas Pophale) SiO2 
 PCOD8300120
Probable space group: I M M A
;
_chemical_formula_sum "Si O2"
_cell_formula_units_Z 72
_cell_length_a 8.790321
_cell_length_b 14.390819
_cell_length_c 29.069961
_cell_angle_alpha 90.000000
_cell_angle_beta 90.000000
_cell_angle_gamma 90.000000
_cell_volume 3677.347696
_symmetry_space_group_name_H-M "I M M A"
_symmetry_group_IT_number 74
_symmetry_cell_setting 'orthorhombic'
loop_
_space_group_symop_operation_xyz
x,y,z
-x,1/2-y,z
x,-y,-z
-x,1/2+y,-z
-x,-y,-z
x,1/2+y,-z
-x,y,z
x,1/2-y,z
1/2+x,1/2+y,1/2+z
1/2-x,-y,1/2+z
1/2+x,1/2-y,1/2-z
1/2-x,y,1/2-z
1/2-x,1/2-y,1/2-z
1/2+x,y,1/2-z
1/2-x,1/2+y,1/2+z
1/2+x,-y,1/2+z
loop_
_atom_site_type_symbol
_atom_site_label
_atom_site_fract_x
_atom_site_fract_y
_atom_site_fract_z
Si Si1 0.178616 0.597996 0.616359
Si Si2 0.179567 0.250000 0.949538
Si Si3 0.820223 0.397471 0.876665
Si Si4 0.681254 0.250000 0.446976
Si Si5 0.166002 0.644577 0.792600
Si Si6 0.678685 0.750000 0.300705
O O1 0.229730 0.492161 0.618908
O O2 0.259563 0.655353 0.575983
O O3 0.224447 0.644430 0.664021
O O4 0.000000 0.605210 0.608706
O O5 0.232680 0.159533 0.921536
O O6 0.000000 0.250000 0.951966
O O7 0.245670 0.250000 0.000980
O O8 0.773717 0.341643 0.830094
O O9 0.000000 0.416108 0.876964
O O10 0.500000 0.250000 0.444177
O O11 0.135225 0.750000 0.778238
O O12 0.250000 0.592830 0.750000
O O13 0.000000 0.597079 0.802249
O O14 0.500000 0.750000 0.293965
O O15 0.750000 0.750000 0.250000
#
# Coordination Sequence:
#
# PCOD8300120 Si02
#       6
#    16   8  16   8  16   8
#     4  12  24  37  55  85 121 156 192 234 287 348
#     4   8  18  39  66  87 105 142 197 247 294 348
#     4   9  19  39  62  85 114 150 193 241 288 341
#     4  11  22  39  62  85 110 147 195 246 294 346
#     4  10  20  35  56  79 108 148 190 231 277 328
#     4   9  19  36  62  90 118 151 190 235 283 332
#
# _framework density 19.579326999999999
#
# number of rings (size 3 to 8) (size 9 to 14) (size 15 to 20)
#    0.000    2.000    1.111    4.333    0.000    3.556 
#    0.000   10.556    0.000    0.000    0.000    0.000 
#    0.000    0.000    0.000    0.000    0.000    0.000 
#
# Total GULP energy -446212.358002 kJ/mol
# GULP energy per Si atom -12394.787722 kJ/mol
# Density = 1.953476 g / cm^3
# Si number density = 19.579327 Si / 1000 Ang^3
#
#
#
# Elastic Constant Matrix: (Units=GPa)
#
#
# Indices 1 2 3 4 5 6 
#
# 1 102.7772 44.7689 51.2323 0.0000 0.0000 0.0000
# 2 44.7689 109.4395 57.0763 0.0000 0.0000 0.0000
# 3 51.2323 57.0763 180.7212 0.0000 0.0000 0.0000
# 4 0.0000 0.0000 0.0000 -44.9573 0.0000 0.0000
# 5 0.0000 0.0000 0.0000 0.0000 28.0254 0.0000
# 6 0.0000 0.0000 0.0000 0.0000 0.0000 22.1225
#
#
#
# Elastic Compliance Matrix: (Units=1/GPa)
#
#
# Indices 1 2 3 4 5 6 
#
# 1 0.012608 -0.003943 -0.002329 0.000000 0.000000 0.000000
# 2 -0.003943 0.012172 -0.002727 0.000000 0.000000 0.000000
# 3 -0.002329 -0.002727 0.007055 0.000000 0.000000 0.000000
# 4 0.000000 0.000000 0.000000 -0.022243 0.000000 0.000000
# 5 0.000000 0.000000 0.000000 0.000000 0.035682 0.000000
# 6 0.000000 0.000000 0.000000 0.000000 0.000000 0.045203
#
#
# Mechanical properties :
#
#
# Convention : Reuss Voigt Hill
#
# Bulk Modulus (GPa) = 72.26337 77.67698 74.97017
# Shear Modulus (GPa) = 44.21373 17.02880 30.62126
#
# Velocity S-wave (km/s) = 4.75719 2.95232 3.95898
# Velocity P-wave (km/s) = 8.19528 7.16803 7.69881
#
# Compressibility (1/GPa) = 0.01383827
#
# Stress axis : x y z
#
# Youngs Moduli (GPa) = 79.31278 82.15254 141.74870
#
# Poissons Ratio (x) = 0.32394 0.33013
# Poissons Ratio (y) = 0.31274 0.38649
# Poissons Ratio (z) = 0.18472 0.22399
#
# Static dielectric constant tensor:
#      x y z
#    x 3.601670 0.000000 0.000000 
#    y 0.000000 3.585950 0.000000 
#    z 0.000000 0.000000 4.004090 
# 
# 
# High freq. dielectric constant tensor:
#      x y z
#    x 1.756030 0.000000 0.000000 
#    y 0.000000 1.756600 0.000000 
#    z 0.000000 0.000000 1.769930 
# 
# From -- ./inp_files/63709.got.cif
#   From: 2010.03.12/outbox.cif.g09.slc.cpg/sg74_32_cif.got.tgz:63709.got - 2010.04.16 15:46:19.
