data_PCOD8300979
_publ_section_title
;
Structure prediction by ZEFSAII (Michael W. Deem and Ramdas Pophale) SiO2 
 PCOD8300979
Probable space group: I M M A
;
_chemical_formula_sum "Si O2"
_cell_formula_units_Z 96
_cell_length_a 29.779663
_cell_length_b 16.832585
_cell_length_c 10.282312
_cell_angle_alpha 90.000000
_cell_angle_beta 90.000000
_cell_angle_gamma 90.000000
_cell_volume 5154.201259
_symmetry_space_group_name_H-M "I M M A"
_symmetry_group_IT_number 74
_symmetry_cell_setting 'orthorhombic'
loop_
_space_group_symop_operation_xyz
x,y,z
-x,1/2-y,z
x,-y,-z
-x,1/2+y,-z
-x,-y,-z
x,1/2+y,-z
-x,y,z
x,1/2-y,z
1/2+x,1/2+y,1/2+z
1/2-x,-y,1/2+z
1/2+x,1/2-y,1/2-z
1/2-x,y,1/2-z
1/2-x,1/2-y,1/2-z
1/2+x,y,1/2-z
1/2-x,1/2+y,1/2+z
1/2+x,-y,1/2+z
loop_
_atom_site_type_symbol
_atom_site_label
_atom_site_fract_x
_atom_site_fract_y
_atom_site_fract_z
Si Si1 0.451571 0.564944 0.612701
Si Si2 0.278967 0.844164 0.131711
Si Si3 0.727827 0.844375 0.618294
Si Si4 0.948617 0.538737 0.363825
Si Si5 0.862440 0.905350 0.988538
Si Si6 0.374073 0.342918 0.774627
O O1 0.453982 0.500000 0.500000
O O2 0.500000 0.610454 0.615176
O O3 0.442630 0.526259 0.752264
O O4 0.409369 0.621656 0.580731
O O5 0.274434 0.750000 0.136430
O O6 0.250000 0.881186 0.250000
O O7 0.331068 0.868740 0.139834
O O8 0.258632 0.877684 0.998161
O O9 0.725927 0.750000 0.619070
O O10 0.750000 0.877463 0.750000
O O11 0.677540 0.876472 0.603408
O O12 0.933743 0.500000 0.500000
O O13 0.917575 0.613443 0.330117
O O14 0.000000 0.569231 0.370967
O O15 0.860909 0.863898 0.127570
O O16 0.860286 0.000000 0.000000
O O17 0.384102 0.250000 0.784637
#
# Coordination Sequence:
#
# PCOD8300979 Si02
#       6
#    16  16  16  16  16  16
#     4   9  17  33  57  81 115 154 188 224 282 352
#     4   9  17  33  55  76 106 150 190 226 288 356
#     4  10  21  38  57  79 112 153 191 234 295 356
#     4  10  21  38  59  87 120 157 192 236 301 359
#     4  11  20  35  56  86 117 148 194 244 292 337
#     4  11  21  36  62  90 114 153 203 247 288 347
#
# _framework density 18.625582999999999
#
# number of rings (size 3 to 8) (size 9 to 14) (size 15 to 20)
#    0.000    2.000    5.000    0.500    0.000    1.667 
#    3.000    0.000    0.000    2.500    0.000    4.667 
#    0.000    0.000    0.000    0.000    0.000    0.000 
#
# Total GULP energy -595006.897929 kJ/mol
# GULP energy per Si atom -12395.977040 kJ/mol
# Density = 1.858319 g / cm^3
# Si number density = 18.625583 Si / 1000 Ang^3
#
#
#
# Elastic Constant Matrix: (Units=GPa)
#
#
# Indices 1 2 3 4 5 6 
#
# 1 171.8376 35.8826 67.9438 0.0000 0.0000 0.0000
# 2 35.8826 30.5646 18.4172 0.0000 0.0000 0.0000
# 3 67.9438 18.4172 139.1239 0.0000 0.0000 0.0000
# 4 0.0000 0.0000 0.0000 17.8775 0.0000 0.0000
# 5 0.0000 0.0000 0.0000 0.0000 32.1068 0.0000
# 6 0.0000 0.0000 0.0000 0.0000 0.0000 22.3620
#
#
#
# Elastic Compliance Matrix: (Units=1/GPa)
#
#
# Indices 1 2 3 4 5 6 
#
# 1 0.008853 -0.008464 -0.003203 0.000000 0.000000 0.000000
# 2 -0.008464 0.043645 -0.001644 0.000000 0.000000 0.000000
# 3 -0.003203 -0.001644 0.008970 0.000000 0.000000 0.000000
# 4 0.000000 0.000000 0.000000 0.055936 0.000000 0.000000
# 5 0.000000 0.000000 0.000000 0.000000 0.031146 0.000000
# 6 0.000000 0.000000 0.000000 0.000000 0.000000 0.044719
#
#
# Mechanical properties :
#
#
# Convention : Reuss Voigt Hill
#
# Bulk Modulus (GPa) = 28.69815 65.11256 46.90535
# Shear Modulus (GPa) = 21.59770 29.08811 25.34290
#
# Velocity S-wave (km/s) = 3.40894 3.95616 3.69270
# Velocity P-wave (km/s) = 5.56200 7.47682 6.58934
#
# Compressibility (1/GPa) = 0.03484546
#
# Stress axis : x y z
#
# Youngs Moduli (GPa) = 112.95160 22.91238 111.48393
#
# Poissons Ratio (x) = 0.19392 0.35712
# Poissons Ratio (y) = 0.95597 0.18331
# Poissons Ratio (z) = 0.36182 0.03767
#
# Static dielectric constant tensor:
#      x y z
#    x 4.034990 0.000000 0.000000 
#    y 0.000000 1.513000 0.000000 
#    z 0.000000 0.000000 3.286140 
# 
# 
# High freq. dielectric constant tensor:
#      x y z
#    x 1.747140 0.000000 0.000000 
#    y 0.000000 1.674470 0.000000 
#    z 0.000000 0.000000 1.730920 
# 
# From -- ./inp_files/26293.got.cif
#   From: 2010.03.12/outbox.cif.g09.slc.cpg/sg74_14_cif.got.tgz:26293.got - 2010.04.16 15:46:19.
