data_PCOD8300382
_publ_section_title
;
Structure prediction by ZEFSAII (Michael W. Deem and Ramdas Pophale) SiO2 
 PCOD8300382
Probable space group: I M M A
;
_chemical_formula_sum "Si O2"
_cell_formula_units_Z 96
_cell_length_a 23.467351
_cell_length_b 8.954536
_cell_length_c 24.729625
_cell_angle_alpha 90.000000
_cell_angle_beta 90.000000
_cell_angle_gamma 90.000000
_cell_volume 5196.664587
_symmetry_space_group_name_H-M "I M M A"
_symmetry_group_IT_number 74
_symmetry_cell_setting 'orthorhombic'
loop_
_space_group_symop_operation_xyz
x,y,z
-x,1/2-y,z
x,-y,-z
-x,1/2+y,-z
-x,-y,-z
x,1/2+y,-z
-x,y,z
x,1/2-y,z
1/2+x,1/2+y,1/2+z
1/2-x,-y,1/2+z
1/2+x,1/2-y,1/2-z
1/2-x,y,1/2-z
1/2-x,1/2-y,1/2-z
1/2+x,y,1/2-z
1/2-x,1/2+y,1/2+z
1/2+x,-y,1/2+z
loop_
_atom_site_type_symbol
_atom_site_label
_atom_site_fract_x
_atom_site_fract_y
_atom_site_fract_z
Si Si1 0.863617 0.579248 0.832533
Si Si2 0.273853 0.424187 0.606042
Si Si3 0.434276 0.924322 0.240505
Si Si4 0.066523 0.576523 0.629827
Si Si5 0.866433 0.919800 0.950723
Si Si6 0.655400 0.075336 0.943246
O O1 0.858879 0.750000 0.812522
O O2 0.799697 0.510669 0.841041
O O3 0.898003 0.481444 0.790556
O O4 0.896396 0.570746 0.891292
O O5 0.287160 0.250000 0.612339
O O6 0.306353 0.490368 0.553450
O O7 0.206802 0.454384 0.598993
O O8 0.500000 0.960664 0.252707
O O9 0.423524 0.750000 0.232130
O O10 0.413610 0.007434 0.186688
O O11 0.082089 0.750000 0.630052
O O12 0.098461 0.495670 0.581040
O O13 0.000000 0.548053 0.620281
O O14 0.854868 0.750000 0.966948
O O15 0.901338 0.000000 0.000000
O O16 0.645685 0.250000 0.952779
O O17 0.669867 0.000000 0.000000
#
# Coordination Sequence:
#
# PCOD8300382 Si02
#       6
#    16  16  16  16  16  16
#     4   9  19  32  51  80 111 145 184 226 273 325
#     4   9  18  32  51  77 109 143 180 222 267 320
#     4  10  20  36  60  85 109 141 183 230 278 330
#     4  10  22  40  61  83 109 143 182 228 280 330
#     4   9  17  27  45  72 103 140 178 217 263 315
#     4  11  23  37  57  84 114 148 185 226 273 328
#
# _framework density 18.473388
#
# number of rings (size 3 to 8) (size 9 to 14) (size 15 to 20)
#    1.000    1.333    0.000    3.000    0.000    6.333 
#    0.000    0.833    0.000    5.500    0.000    0.000 
#    0.000    0.000    0.000    0.000    0.000    0.000 
#
# Total GULP energy -594776.109816 kJ/mol
# GULP energy per Si atom -12391.168954 kJ/mol
# Density = 1.843134 g / cm^3
# Si number density = 18.473388 Si / 1000 Ang^3
#
#
#
# Elastic Constant Matrix: (Units=GPa)
#
#
# Indices 1 2 3 4 5 6 
#
# 1 59.9573 43.0541 39.8321 0.0000 0.0000 0.0000
# 2 43.0541 111.9631 39.9026 0.0000 0.0000 0.0000
# 3 39.8321 39.9026 64.6286 0.0000 0.0000 0.0000
# 4 0.0000 0.0000 0.0000 37.9163 0.0000 0.0000
# 5 0.0000 0.0000 0.0000 0.0000 28.7352 0.0000
# 6 0.0000 0.0000 0.0000 0.0000 0.0000 25.1853
#
#
#
# Elastic Compliance Matrix: (Units=1/GPa)
#
#
# Indices 1 2 3 4 5 6 
#
# 1 0.031741 -0.006710 -0.015420 0.000000 0.000000 0.000000
# 2 -0.006710 0.012870 -0.003810 0.000000 0.000000 0.000000
# 3 -0.015420 -0.003810 0.027329 0.000000 0.000000 0.000000
# 4 0.000000 0.000000 0.000000 0.026374 0.000000 0.000000
# 5 0.000000 0.000000 0.000000 0.000000 0.034800 0.000000
# 6 0.000000 0.000000 0.000000 0.000000 0.000000 0.039706
#
#
# Mechanical properties :
#
#
# Convention : Reuss Voigt Hill
#
# Bulk Modulus (GPa) = 49.85204 53.56963 51.71084
# Shear Modulus (GPa) = 21.60882 25.95138 23.78010
#
# Velocity S-wave (km/s) = 3.42384 3.75213 3.59174
# Velocity P-wave (km/s) = 6.53259 6.91611 6.72708
#
# Compressibility (1/GPa) = 0.02005936
#
# Stress axis : x y z
#
# Youngs Moduli (GPa) = 31.50506 77.70120 36.59099
#
# Poissons Ratio (x) = 0.52139 0.56422
# Poissons Ratio (y) = 0.21140 0.13943
# Poissons Ratio (z) = 0.48580 0.29607
#
# Static dielectric constant tensor:
#      x y z
#    x 3.072870 0.000000 0.000000 
#    y 0.000000 3.525840 0.000000 
#    z 0.000000 0.000000 3.337490 
# 
# 
# High freq. dielectric constant tensor:
#      x y z
#    x 1.680540 0.000000 0.000000 
#    y 0.000000 1.738990 0.000000 
#    z 0.000000 0.000000 1.712730 
# 
# From -- ./inp_files/61918.got.cif
#   From: 2010.03.12/outbox.cif.g09.slc.cpg/sg74_31_cif.got.tgz:61918.got - 2010.04.16 15:46:19.
