data_PCOD8300667
_publ_section_title
;
Structure prediction by ZEFSAII (Michael W. Deem and Ramdas Pophale) SiO2 
 PCOD8300667
Probable space group: I M M A
;
_chemical_formula_sum "Si O2"
_cell_formula_units_Z 120
_cell_length_a 9.427038
_cell_length_b 26.789563
_cell_length_c 27.215241
_cell_angle_alpha 90.000000
_cell_angle_beta 90.000000
_cell_angle_gamma 90.000000
_cell_volume 6873.106470
_symmetry_space_group_name_H-M "I M M A"
_symmetry_group_IT_number 74
_symmetry_cell_setting 'orthorhombic'
loop_
_space_group_symop_operation_xyz
x,y,z
-x,1/2-y,z
x,-y,-z
-x,1/2+y,-z
-x,-y,-z
x,1/2+y,-z
-x,y,z
x,1/2-y,z
1/2+x,1/2+y,1/2+z
1/2-x,-y,1/2+z
1/2+x,1/2-y,1/2-z
1/2-x,y,1/2-z
1/2-x,1/2-y,1/2-z
1/2+x,y,1/2-z
1/2-x,1/2+y,1/2+z
1/2+x,-y,1/2+z
loop_
_atom_site_type_symbol
_atom_site_label
_atom_site_fract_x
_atom_site_fract_y
_atom_site_fract_z
Si Si1 0.836751 0.943104 0.992854
Si Si2 0.164790 0.306851 0.435468
Si Si3 0.163947 0.750000 0.200467
Si Si4 0.836201 0.607863 0.890994
Si Si5 0.663974 0.930192 0.297558
Si Si6 0.666344 0.857752 0.037421
Si Si7 0.664682 0.841983 0.367992
Si Si8 0.665993 0.044213 0.298165
O O1 0.809263 0.928941 0.936480
O O2 0.000000 0.933667 0.008056
O O3 0.736808 0.911538 0.028626
O O4 0.793051 0.000000 0.000000
O O5 0.213378 0.250000 0.427695
O O6 0.249570 0.341029 0.397095
O O7 0.198849 0.321942 0.491414
O O8 0.000000 0.314032 0.424046
O O9 0.250000 0.750000 0.250000
O O10 0.204625 0.701092 0.169984
O O11 0.000000 0.750000 0.214697
O O12 0.782899 0.579123 0.842671
O O13 0.000000 0.622586 0.886624
O O14 0.500000 0.924461 0.283562
O O15 0.750000 0.912372 0.250000
O O16 0.702099 0.895354 0.343711
O O17 0.702565 0.986988 0.311965
O O18 0.500000 0.864653 0.046519
O O19 0.738292 0.832919 0.084616
O O20 0.500000 0.839108 0.383569
O O21 0.500000 0.050545 0.287820
O O22 0.750000 0.061505 0.250000
#
# Coordination Sequence:
#
# PCOD8300667 Si02
#       8
#    16  16   8  16  16  16  16  16
#     4   9  18  32  53  75 102 140 173 204 252 309
#     4   9  19  36  55  74 101 134 167 206 255 309
#     4  10  22  38  54  76 100 132 176 228 279 324
#     4   9  18  32  51  78 104 131 170 210 249 299
#     4   9  18  32  51  71  97 132 168 210 254 302
#     4  10  21  34  50  75 104 134 170 213 257 302
#     4  10  21  35  52  73 100 133 173 219 266 315
#     4   9  18  32  51  76 105 134 168 205 246 297
#
# _framework density 17.459354999999999
#
# number of rings (size 3 to 8) (size 9 to 14) (size 15 to 20)
#    0.000    2.667    0.000    0.800    2.800    2.667 
#    0.000    0.000    0.000    0.400    0.000    0.000 
#    0.000    0.000    0.000    0.000    0.000    0.000 
#
# Total GULP energy -744168.714487 kJ/mol
# GULP energy per Si atom -12402.811908 kJ/mol
# Density = 1.741962 g / cm^3
# Si number density = 17.459355 Si / 1000 Ang^3
#
#
#
# Elastic Constant Matrix: (Units=GPa)
#
#
# Indices 1 2 3 4 5 6 
#
# 1 64.4554 50.8372 53.5369 0.0000 0.0000 0.0000
# 2 50.8372 126.3227 61.8202 0.0000 0.0000 0.0000
# 3 53.5369 61.8202 108.4420 0.0000 0.0000 0.0000
# 4 0.0000 0.0000 0.0000 18.5206 0.0000 0.0000
# 5 0.0000 0.0000 0.0000 0.0000 34.6818 0.0000
# 6 0.0000 0.0000 0.0000 0.0000 0.0000 25.7178
#
#
#
# Elastic Compliance Matrix: (Units=1/GPa)
#
#
# Indices 1 2 3 4 5 6 
#
# 1 0.029857 -0.006660 -0.010943 0.000000 0.000000 0.000000
# 2 -0.006660 0.012465 -0.003818 0.000000 0.000000 0.000000
# 3 -0.010943 -0.003818 0.016801 0.000000 0.000000 0.000000
# 4 0.000000 0.000000 0.000000 0.053994 0.000000 0.000000
# 5 0.000000 0.000000 0.000000 0.000000 0.028834 0.000000
# 6 0.000000 0.000000 0.000000 0.000000 0.000000 0.038883
#
#
# Mechanical properties :
#
#
# Convention : Reuss Voigt Hill
#
# Bulk Modulus (GPa) = 61.42561 70.17873 65.80217
# Shear Modulus (GPa) = 21.82416 24.65244 23.23830
#
# Velocity S-wave (km/s) = 3.53937 3.76172 3.65224
# Velocity P-wave (km/s) = 7.20842 7.69091 7.45357
#
# Compressibility (1/GPa) = 0.01627985
#
# Stress axis : x y z
#
# Youngs Moduli (GPa) = 33.49254 80.22470 59.52127
#
# Poissons Ratio (x) = 0.53432 0.65137
# Poissons Ratio (y) = 0.22307 0.22725
# Poissons Ratio (z) = 0.36653 0.30629
#
# Static dielectric constant tensor:
#      x y z
#    x 3.221690 0.000000 0.000000 
#    y 0.000000 3.308540 0.000000 
#    z 0.000000 0.000000 3.164800 
# 
# 
# High freq. dielectric constant tensor:
#      x y z
#    x 1.671790 0.000000 0.000000 
#    y 0.000000 1.674480 0.000000 
#    z 0.000000 0.000000 1.666310 
# 
# From -- ./inp_files/65132.got.cif
#   From: 2010.03.12/outbox.cif.g09.slc.cpg/sg74_33_cif.got.tgz:65132.got - 2010.04.16 15:46:19.
