data_PCOD8300115
_publ_section_title
;
Structure prediction by ZEFSAII (Michael W. Deem and Ramdas Pophale) SiO2 
 PCOD8300115
Probable space group: I M M A
;
_chemical_formula_sum "Si O2"
_cell_formula_units_Z 96
_cell_length_a 27.309242
_cell_length_b 8.947082
_cell_length_c 20.602853
_cell_angle_alpha 90.000000
_cell_angle_beta 90.000000
_cell_angle_gamma 90.000000
_cell_volume 5034.060464
_symmetry_space_group_name_H-M "I M M A"
_symmetry_group_IT_number 74
_symmetry_cell_setting 'orthorhombic'
loop_
_space_group_symop_operation_xyz
x,y,z
-x,1/2-y,z
x,-y,-z
-x,1/2+y,-z
-x,-y,-z
x,1/2+y,-z
-x,y,z
x,1/2-y,z
1/2+x,1/2+y,1/2+z
1/2-x,-y,1/2+z
1/2+x,1/2-y,1/2-z
1/2-x,y,1/2-z
1/2-x,1/2-y,1/2-z
1/2+x,y,1/2-z
1/2-x,1/2+y,1/2+z
1/2+x,-y,1/2+z
loop_
_atom_site_type_symbol
_atom_site_label
_atom_site_fract_x
_atom_site_fract_y
_atom_site_fract_z
Si Si1 0.724599 0.427550 0.814205
Si Si2 0.055994 0.074556 0.564936
Si Si3 0.287488 0.074851 0.566375
Si Si4 0.400174 0.073976 0.567476
Si Si5 0.112859 0.072773 0.691813
Si Si6 0.943543 0.076380 0.191012
O O1 0.728372 0.250000 0.814026
O O2 0.750000 0.493860 0.750000
O O3 0.753474 0.490830 0.876531
O O4 0.668637 0.479867 0.815609
O O5 0.061402 0.250000 0.556565
O O6 0.085663 0.017499 0.627087
O O7 0.000000 0.024892 0.575164
O O8 0.077804 0.000000 0.500000
O O9 0.280153 0.250000 0.558206
O O10 0.343639 0.035582 0.582810
O O11 0.270084 0.000000 0.500000
O O12 0.409192 0.250000 0.563154
O O13 0.416539 0.000000 0.500000
O O14 0.433493 0.005980 0.623550
O O15 0.108073 0.250000 0.701907
O O16 0.089867 0.993501 0.753517
O O17 0.930686 0.250000 0.183214
O O18 0.000000 0.051844 0.210091
#
# Coordination Sequence:
#
# PCOD8300115 Si02
#       6
#    16  16  16  16  16  16
#     4   9  17  31  52  77 104 135 173 214 256 305
#     4   9  18  32  50  73 101 133 170 211 255 305
#     4   9  18  33  54  80 109 141 176 215 260 311
#     4  10  20  36  59  83 109 143 180 219 263 314
#     4  10  20  35  56  79 104 139 181 221 262 313
#     4  11  24  39  55  78 108 140 176 222 274 325
#
# _framework density 19.070091999999999
#
# number of rings (size 3 to 8) (size 9 to 14) (size 15 to 20)
#    0.000    2.333    0.000    2.500    0.000    7.000 
#    0.000    2.500    0.000    2.000    0.000    0.000 
#    0.000    0.000    0.000    0.000    0.000    0.000 
#
# Total GULP energy -595341.441986 kJ/mol
# GULP energy per Si atom -12402.946708 kJ/mol
# Density = 1.902669 g / cm^3
# Si number density = 19.070092 Si / 1000 Ang^3
#
#
#
# Elastic Constant Matrix: (Units=GPa)
#
#
# Indices 1 2 3 4 5 6 
#
# 1 76.9569 22.9497 46.5224 0.0000 0.0000 0.0000
# 2 22.9497 46.6479 33.8851 0.0000 0.0000 0.0000
# 3 46.5224 33.8851 139.8008 0.0000 0.0000 0.0000
# 4 0.0000 0.0000 0.0000 37.8819 0.0000 0.0000
# 5 0.0000 0.0000 0.0000 0.0000 42.2454 0.0000
# 6 0.0000 0.0000 0.0000 0.0000 0.0000 -17.7949
#
#
#
# Elastic Compliance Matrix: (Units=1/GPa)
#
#
# Indices 1 2 3 4 5 6 
#
# 1 0.017262 -0.005243 -0.004474 0.000000 0.000000 0.000000
# 2 -0.005243 0.027610 -0.004948 0.000000 0.000000 0.000000
# 3 -0.004474 -0.004948 0.009841 0.000000 0.000000 0.000000
# 4 0.000000 0.000000 0.000000 0.026398 0.000000 0.000000
# 5 0.000000 0.000000 0.000000 0.000000 0.023671 0.000000
# 6 0.000000 0.000000 0.000000 0.000000 0.000000 -0.056196
#
#
# Mechanical properties :
#
#
# Convention : Reuss Voigt Hill
#
# Bulk Modulus (GPa) = 39.39274 52.23557 45.81416
# Shear Modulus (GPa) = 57.88590 23.13639 40.51114
#
# Velocity S-wave (km/s) = 5.51545 3.48692 4.61404
# Velocity P-wave (km/s) = 7.82700 6.60775 7.24307
#
# Compressibility (1/GPa) = 0.02538539
#
# Stress axis : x y z
#
# Youngs Moduli (GPa) = 57.92985 36.21813 101.61609
#
# Poissons Ratio (x) = 0.18989 0.45460
# Poissons Ratio (y) = 0.30372 0.50275
# Poissons Ratio (z) = 0.25916 0.17919
#
# Static dielectric constant tensor:
#      x y z
#    x 3.585610 0.000000 0.000000 
#    y 0.000000 3.273440 0.000000 
#    z 0.000000 0.000000 3.744460 
# 
# 
# High freq. dielectric constant tensor:
#      x y z
#    x 1.742590 0.000000 0.000000 
#    y 0.000000 1.720280 0.000000 
#    z 0.000000 0.000000 1.757770 
# 
# From -- ./inp_files/49075.got.cif
#   From: 2010.03.12/outbox.cif.g09.slc.cpg/sg74_25_cif.got.tgz:49075.got - 2010.04.16 15:46:19.
