data_PCOD8300937
_publ_section_title
;
Structure prediction by ZEFSAII (Michael W. Deem and Ramdas Pophale) SiO2 
 PCOD8300937
Probable space group: I M M A
;
_chemical_formula_sum "Si O2"
_cell_formula_units_Z 88
_cell_length_a 22.497004
_cell_length_b 9.955257
_cell_length_c 19.879889
_cell_angle_alpha 90.000000
_cell_angle_beta 90.000000
_cell_angle_gamma 90.000000
_cell_volume 4452.368656
_symmetry_space_group_name_H-M "I M M A"
_symmetry_group_IT_number 74
_symmetry_cell_setting 'orthorhombic'
loop_
_space_group_symop_operation_xyz
x,y,z
-x,1/2-y,z
x,-y,-z
-x,1/2+y,-z
-x,-y,-z
x,1/2+y,-z
-x,y,z
x,1/2-y,z
1/2+x,1/2+y,1/2+z
1/2-x,-y,1/2+z
1/2+x,1/2-y,1/2-z
1/2-x,y,1/2-z
1/2-x,1/2-y,1/2-z
1/2+x,y,1/2-z
1/2-x,1/2+y,1/2+z
1/2+x,-y,1/2+z
loop_
_atom_site_type_symbol
_atom_site_label
_atom_site_fract_x
_atom_site_fract_y
_atom_site_fract_z
Si Si1 0.000000 0.901755 0.595971
Si Si2 0.381789 0.898867 0.303203
Si Si3 0.813578 0.898612 0.719067
Si Si4 0.897918 0.000000 0.500000
Si Si5 0.697331 0.901216 0.098085
Si Si6 0.500000 0.599437 0.223564
Si Si7 0.169507 0.899424 0.055313
O O1 0.000000 0.750000 0.623220
O O2 0.059443 0.921289 0.551680
O O3 0.000000 0.999940 0.660198
O O4 0.358357 0.750000 0.280502
O O5 0.446615 0.923415 0.274494
O O6 0.377073 0.906775 0.383559
O O7 0.344624 0.023300 0.278450
O O8 0.841073 0.750000 0.704193
O O9 0.750000 0.877101 0.750000
O O10 0.820171 0.988759 0.652994
O O11 0.853310 0.098518 0.540406
O O12 0.698598 0.750000 0.128615
O O13 0.762927 0.941028 0.073467
O O14 0.500000 0.750000 0.192650
O O15 0.170666 0.750000 0.024739
O O16 0.144229 0.000000 0.000000
#
# Coordination Sequence:
#
# PCOD8300937 Si02
#       7
#     8  16  16   8  16   8  16
#     4  11  25  43  62  85 119 159 203 251 297 350
#     4  10  21  40  63  87 117 157 201 246 299 357
#     4  11  23  36  55  87 123 157 197 250 304 353
#     4  11  24  40  60  88 122 159 204 250 294 349
#     4  11  22  37  59  86 118 159 201 241 294 360
#     4  10  23  43  67  90 117 155 204 257 298 346
#     4  10  21  37  59  87 120 155 192 237 295 361
#
# _framework density 19.764761
#
# number of rings (size 3 to 8) (size 9 to 14) (size 15 to 20)
#    0.000    1.455    2.727    2.182    0.000    9.455 
#    0.000    0.455    0.000    0.000    0.000    0.000 
#    0.000    0.000    0.000    0.000    0.000    0.000 
#
# Total GULP energy -545254.303289 kJ/mol
# GULP energy per Si atom -12392.143257 kJ/mol
# Density = 1.971978 g / cm^3
# Si number density = 19.764761 Si / 1000 Ang^3
#
#
#
# Elastic Constant Matrix: (Units=GPa)
#
#
# Indices 1 2 3 4 5 6 
#
# 1 71.7782 31.4387 41.8227 0.0000 0.0000 0.0000
# 2 31.4387 153.7151 66.6258 0.0000 0.0000 0.0000
# 3 41.8227 66.6258 111.2066 0.0000 0.0000 0.0000
# 4 0.0000 0.0000 0.0000 38.9333 0.0000 0.0000
# 5 0.0000 0.0000 0.0000 0.0000 44.7089 0.0000
# 6 0.0000 0.0000 0.0000 0.0000 0.0000 13.7786
#
#
#
# Elastic Compliance Matrix: (Units=1/GPa)
#
#
# Indices 1 2 3 4 5 6 
#
# 1 0.017956 -0.001007 -0.006150 0.000000 0.000000 0.000000
# 2 -0.001007 0.008844 -0.004920 0.000000 0.000000 0.000000
# 3 -0.006150 -0.004920 0.014253 0.000000 0.000000 0.000000
# 4 0.000000 0.000000 0.000000 0.025685 0.000000 0.000000
# 5 0.000000 0.000000 0.000000 0.000000 0.022367 0.000000
# 6 0.000000 0.000000 0.000000 0.000000 0.000000 0.072577
#
#
# Mechanical properties :
#
#
# Convention : Reuss Voigt Hill
#
# Bulk Modulus (GPa) = 59.17281 68.49712 63.83497
# Shear Modulus (GPa) = 26.11414 32.60499 29.35957
#
# Velocity S-wave (km/s) = 3.63884 4.06600 3.85833
# Velocity P-wave (km/s) = 6.90351 7.53489 7.22610
#
# Compressibility (1/GPa) = 0.01689965
#
# Stress axis : x y z
#
# Youngs Moduli (GPa) = 55.69156 113.07184 70.16269
#
# Poissons Ratio (x) = 0.11386 0.43147
# Poissons Ratio (y) = 0.05608 0.34519
# Poissons Ratio (z) = 0.34248 0.55630
#
# Static dielectric constant tensor:
#      x y z
#    x 3.594050 0.000000 0.000000 
#    y 0.000000 3.943420 0.000000 
#    z 0.000000 0.000000 3.548120 
# 
# 
# High freq. dielectric constant tensor:
#      x y z
#    x 1.762750 0.000000 0.000000 
#    y 0.000000 1.782040 0.000000 
#    z 0.000000 0.000000 1.765480 
# 
# From -- ./inp_files/54561.got.cif
#   From: 2010.03.12/outbox.cif.g09.slc.cpg/sg74_28_cif.got.tgz:54561.got - 2010.04.16 15:46:19.
