data_PCOD8300016
_publ_section_title
;
Structure prediction by ZEFSAII (Michael W. Deem and Ramdas Pophale) SiO2 
 PCOD8300016
Probable space group: I M M A
;
_chemical_formula_sum "Si O2"
_cell_formula_units_Z 96
_cell_length_a 22.581902
_cell_length_b 14.160557
_cell_length_c 13.848888
_cell_angle_alpha 90.000000
_cell_angle_beta 90.000000
_cell_angle_gamma 90.000000
_cell_volume 4428.490913
_symmetry_space_group_name_H-M "I M M A"
_symmetry_group_IT_number 74
_symmetry_cell_setting 'orthorhombic'
loop_
_space_group_symop_operation_xyz
x,y,z
-x,1/2-y,z
x,-y,-z
-x,1/2+y,-z
-x,-y,-z
x,1/2+y,-z
-x,y,z
x,1/2-y,z
1/2+x,1/2+y,1/2+z
1/2-x,-y,1/2+z
1/2+x,1/2-y,1/2-z
1/2-x,y,1/2-z
1/2-x,1/2-y,1/2-z
1/2+x,y,1/2-z
1/2-x,1/2+y,1/2+z
1/2+x,-y,1/2+z
loop_
_atom_site_type_symbol
_atom_site_label
_atom_site_fract_x
_atom_site_fract_y
_atom_site_fract_z
Si Si1 0.121182 0.469810 0.128958
Si Si2 0.933638 0.645715 0.720367
Si Si3 0.254396 0.972109 0.864210
Si Si4 0.935424 0.611055 0.500026
Si Si5 0.930713 0.643396 0.042571
Si Si6 0.807167 0.356312 0.533497
O O1 0.112081 0.431646 0.237668
O O2 0.188459 0.462007 0.094235
O O3 0.100681 0.578902 0.123939
O O4 0.081636 0.402635 0.061411
O O5 0.918580 0.750000 0.761313
O O6 0.928059 0.650539 0.606625
O O7 0.000000 0.616040 0.750986
O O8 0.250000 0.950805 0.750000
O O9 0.294906 0.898698 0.925403
O O10 0.277265 0.078504 0.884455
O O11 0.934067 0.500000 0.500000
O O12 0.877879 0.648265 0.443162
O O13 0.000000 0.645093 0.457802
O O14 0.905324 0.750000 0.047529
O O15 0.000000 0.643823 0.062263
O O16 0.781433 0.250000 0.539918
#
# Coordination Sequence:
#
# PCOD8300016 Si02
#       6
#    16  16  16  16  16  16
#     4  11  21  34  59  82 114 163 199 245 293 351
#     4  10  20  34  57  92 124 150 190 241 297 359
#     4  11  25  42  60  88 123 160 210 256 298 354
#     4  10  20  37  64  91 120 153 185 236 301 364
#     4  10  20  35  56  85 119 153 196 246 300 360
#     4  11  23  42  66  90 123 161 203 252 305 360
#
# _framework density 21.677813
#
# number of rings (size 3 to 8) (size 9 to 14) (size 15 to 20)
#    0.000    1.500    1.667    6.000    0.000    6.333 
#    0.000    0.000    0.000    0.000    0.000    0.000 
#    0.000    0.000    0.000    0.000    0.000    0.000 
#
# Total GULP energy -594919.621554 kJ/mol
# GULP energy per Si atom -12394.158782 kJ/mol
# Density = 2.162847 g / cm^3
# Si number density = 21.677813 Si / 1000 Ang^3
#
#
#
# Elastic Constant Matrix: (Units=GPa)
#
#
# Indices 1 2 3 4 5 6 
#
# 1 118.8365 27.5876 4.5672 0.0000 0.0000 0.0000
# 2 27.5876 141.7595 2.8970 0.0000 0.0000 0.0000
# 3 4.5672 2.8970 42.0170 0.0000 0.0000 0.0000
# 4 0.0000 0.0000 0.0000 22.8489 0.0000 0.0000
# 5 0.0000 0.0000 0.0000 0.0000 24.8902 0.0000
# 6 0.0000 0.0000 0.0000 0.0000 0.0000 17.5207
#
#
#
# Elastic Compliance Matrix: (Units=1/GPa)
#
#
# Indices 1 2 3 4 5 6 
#
# 1 0.008843 -0.001704 -0.000844 0.000000 0.000000 0.000000
# 2 -0.001704 0.007392 -0.000325 0.000000 0.000000 0.000000
# 3 -0.000844 -0.000325 0.023914 0.000000 0.000000 0.000000
# 4 0.000000 0.000000 0.000000 0.043766 0.000000 0.000000
# 5 0.000000 0.000000 0.000000 0.000000 0.040177 0.000000
# 6 0.000000 0.000000 0.000000 0.000000 0.000000 0.057075
#
#
# Mechanical properties :
#
#
# Convention : Reuss Voigt Hill
#
# Bulk Modulus (GPa) = 29.06519 41.41296 35.23907
# Shear Modulus (GPa) = 25.20424 30.88935 28.04680
#
# Velocity S-wave (km/s) = 3.41350 3.77892 3.60085
# Velocity P-wave (km/s) = 5.38265 6.17945 5.79476
#
# Compressibility (1/GPa) = 0.03440541
#
# Stress axis : x y z
#
# Youngs Moduli (GPa) = 113.08573 135.27454 41.81650
#
# Poissons Ratio (x) = 0.23046 0.03528
# Poissons Ratio (y) = 0.19266 0.01357
# Poissons Ratio (z) = 0.09542 0.04390
#
# Static dielectric constant tensor:
#      x y z
#    x 4.276180 0.000000 0.000000 
#    y 0.000000 4.047880 0.000000 
#    z 0.000000 0.000000 3.576950 
# 
# 
# High freq. dielectric constant tensor:
#      x y z
#    x 1.866850 0.000000 0.000000 
#    y 0.000000 1.855170 0.000000 
#    z 0.000000 0.000000 1.816460 
# 
# From -- ./inp_files/35274.got.cif
#   From: 2010.03.12/outbox.cif.g09.slc.cpg/sg74_18_cif.got.tgz:35274.got - 2010.04.16 15:46:19.
