data_PCOD8300911
_publ_section_title
;
Structure prediction by ZEFSAII (Michael W. Deem and Ramdas Pophale) SiO2 
 PCOD8300911
Probable space group: I M M A
;
_chemical_formula_sum "Si O2"
_cell_formula_units_Z 88
_cell_length_a 15.320654
_cell_length_b 22.410594
_cell_length_c 13.026809
_cell_angle_alpha 90.000000
_cell_angle_beta 90.000000
_cell_angle_gamma 90.000000
_cell_volume 4472.689171
_symmetry_space_group_name_H-M "I M M A"
_symmetry_group_IT_number 74
_symmetry_cell_setting 'orthorhombic'
loop_
_space_group_symop_operation_xyz
x,y,z
-x,1/2-y,z
x,-y,-z
-x,1/2+y,-z
-x,-y,-z
x,1/2+y,-z
-x,y,z
x,1/2-y,z
1/2+x,1/2+y,1/2+z
1/2-x,-y,1/2+z
1/2+x,1/2-y,1/2-z
1/2-x,y,1/2-z
1/2-x,1/2-y,1/2-z
1/2+x,y,1/2-z
1/2-x,1/2+y,1/2+z
1/2+x,-y,1/2+z
loop_
_atom_site_type_symbol
_atom_site_label
_atom_site_fract_x
_atom_site_fract_y
_atom_site_fract_z
Si Si1 0.749795 0.316990 0.031364
Si Si2 0.902311 0.681446 0.380658
Si Si3 0.099338 0.952649 0.791448
Si Si4 0.648989 0.421251 0.734100
Si Si5 0.901428 0.593934 0.007262
Si Si6 0.250000 0.637526 0.750000
O O1 0.766455 0.250000 0.997453
O O2 0.734292 0.320699 0.152434
O O3 0.665501 0.340587 0.967741
O O4 0.836767 0.351136 0.003502
O O5 0.882605 0.750000 0.343920
O O6 0.899700 0.634645 0.285975
O O7 0.000000 0.678705 0.426988
O O8 0.162991 0.901592 0.752219
O O9 0.000000 0.935212 0.764556
O O10 0.123492 0.012618 0.726306
O O11 0.111453 0.955200 0.916538
O O12 0.750000 0.408307 0.750000
O O13 0.619137 0.432653 0.617814
O O14 0.000000 0.618665 0.003827
#
# Coordination Sequence:
#
# PCOD8300911 Si02
#       6
#    16  16  16  16  16   8
#     4  10  21  38  59  84 114 149 192 239 287 338
#     4  10  22  39  58  83 117 153 188 230 282 342
#     4  10  21  38  59  84 115 150 191 236 282 335
#     4  12  21  36  60  87 115 152 190 228 285 345
#     4  10  21  37  58  84 117 153 188 233 283 336
#     4  10  21  38  60  84 113 148 192 240 288 338
#
# _framework density 19.674965
#
# number of rings (size 3 to 8) (size 9 to 14) (size 15 to 20)
#    0.000    1.636    2.727    2.455    0.000    3.636 
#    0.000    0.909    0.000    5.455    0.000    0.000 
#    0.000    0.000    0.000    0.000    0.000    0.000 
#
# Total GULP energy -545203.972505 kJ/mol
# GULP energy per Si atom -12390.999375 kJ/mol
# Density = 1.963018 g / cm^3
# Si number density = 19.674965 Si / 1000 Ang^3
#
#
#
# Elastic Constant Matrix: (Units=GPa)
#
#
# Indices 1 2 3 4 5 6 
#
# 1 143.6872 42.8417 31.1103 0.0000 0.0000 0.0000
# 2 42.8417 88.6591 29.3838 0.0000 0.0000 0.0000
# 3 31.1103 29.3838 55.8187 0.0001 0.0000 0.0000
# 4 0.0000 0.0000 0.0001 31.1645 0.0000 0.0000
# 5 0.0000 0.0000 0.0000 0.0000 25.7651 0.0000
# 6 0.0000 0.0000 0.0000 0.0000 0.0000 40.8125
#
#
#
# Elastic Compliance Matrix: (Units=1/GPa)
#
#
# Indices 1 2 3 4 5 6 
#
# 1 0.008563 -0.003096 -0.003143 0.000000 0.000000 0.000000
# 2 -0.003096 0.014782 -0.006056 0.000000 0.000000 0.000000
# 3 -0.003143 -0.006056 0.022855 0.000000 0.000000 0.000000
# 4 0.000000 0.000000 0.000000 0.032088 0.000000 0.000000
# 5 0.000000 0.000000 0.000000 0.000000 0.038812 0.000000
# 6 0.000000 0.000000 0.000000 0.000000 0.000000 0.024502
#
#
# Mechanical properties :
#
#
# Convention : Reuss Voigt Hill
#
# Bulk Modulus (GPa) = 46.27425 54.98186 50.62805
# Shear Modulus (GPa) = 28.83572 31.87037 30.35304
#
# Velocity S-wave (km/s) = 3.83247 4.02909 3.93201
# Velocity P-wave (km/s) = 6.56919 7.04631 6.81193
#
# Compressibility (1/GPa) = 0.02161029
#
# Stress axis : x y z
#
# Youngs Moduli (GPa) = 116.77878 67.64780 43.75475
#
# Poissons Ratio (x) = 0.20946 0.13751
# Poissons Ratio (y) = 0.36158 0.26498
# Poissons Ratio (z) = 0.36700 0.40967
#
# Static dielectric constant tensor:
#      x y z
#    x 3.767250 0.000000 0.000000 
#    y 0.000000 3.457800 0.000000 
#    z 0.000000 0.000000 3.593830 
# 
# 
# High freq. dielectric constant tensor:
#      x y z
#    x 1.782780 0.000000 0.000000 
#    y 0.000000 1.766460 0.000000 
#    z 0.000000 0.000000 1.751430 
# 
# From -- ./inp_files/32232.got.cif
#   From: 2010.03.12/outbox.cif.g09.slc.cpg/sg74_17_cif.got.tgz:32232.got - 2010.04.16 15:46:19.
