data_PCOD8300784
_publ_section_title
;
Structure prediction by ZEFSAII (Michael W. Deem and Ramdas Pophale) SiO2 
 PCOD8300784
Probable space group: I M M A
;
_chemical_formula_sum "Si O2"
_cell_formula_units_Z 64
_cell_length_a 8.416201
_cell_length_b 14.136285
_cell_length_c 28.259206
_cell_angle_alpha 90.000000
_cell_angle_beta 90.000000
_cell_angle_gamma 90.000000
_cell_volume 3362.105574
_symmetry_space_group_name_H-M "I M M A"
_symmetry_group_IT_number 74
_symmetry_cell_setting 'orthorhombic'
loop_
_space_group_symop_operation_xyz
x,y,z
-x,1/2-y,z
x,-y,-z
-x,1/2+y,-z
-x,-y,-z
x,1/2+y,-z
-x,y,z
x,1/2-y,z
1/2+x,1/2+y,1/2+z
1/2-x,-y,1/2+z
1/2+x,1/2-y,1/2-z
1/2-x,y,1/2-z
1/2-x,1/2-y,1/2-z
1/2+x,y,1/2-z
1/2-x,1/2+y,1/2+z
1/2+x,-y,1/2+z
loop_
_atom_site_type_symbol
_atom_site_label
_atom_site_fract_x
_atom_site_fract_y
_atom_site_fract_z
Si Si1 0.185916 0.358229 0.122653
Si Si2 0.185221 0.505864 0.697774
Si Si3 0.814416 0.993091 0.446262
Si Si4 0.814877 0.358181 0.871634
O O1 0.241340 0.250000 0.125030
O O2 0.225652 0.407199 0.172558
O O3 0.280211 0.408271 0.080127
O O4 0.000000 0.367721 0.112521
O O5 0.250000 0.493753 0.750000
O O6 0.215953 0.408677 0.669714
O O7 0.000000 0.528335 0.698552
O O8 0.719560 0.907551 0.421819
O O9 0.000000 0.969991 0.443546
O O10 0.754683 0.000000 0.500000
O O11 0.759580 0.250000 0.874524
O O12 0.000000 0.367328 0.859616
#
# Coordination Sequence:
#
# PCOD8300784 Si02
#       4
#    16  16  16  16
#     4  10  21  37  57  81 109 141 179 223 269 318
#     4  11  22  37  58  81 109 143 178 220 267 317
#     4  10  21  36  55  80 110 144 181 222 267 317
#     4  10  21  37  57  81 109 141 179 223 269 318
#
# _framework density 19.035689000000001
#
# number of rings (size 3 to 8) (size 9 to 14) (size 15 to 20)
#    0.000    1.750    0.000    7.500    0.000    8.000 
#    0.000    5.000    0.000    0.000    0.000    0.000 
#    0.000    0.000    0.000    0.000    0.000    0.000 
#
# Total GULP energy -396942.767430 kJ/mol
# GULP energy per Si atom -12404.461482 kJ/mol
# Density = 1.899236 g / cm^3
# Si number density = 19.035689 Si / 1000 Ang^3
#
#
#
# Elastic Constant Matrix: (Units=GPa)
#
#
# Indices 1 2 3 4 5 6 
#
# 1 49.0269 8.9986 6.9110 0.0000 0.0000 0.0000
# 2 8.9986 153.5188 49.6150 0.0000 0.0000 0.0000
# 3 6.9110 49.6150 146.1398 0.0000 0.0000 0.0000
# 4 0.0000 0.0000 0.0000 17.7816 0.0000 0.0000
# 5 0.0000 0.0000 0.0000 0.0000 33.9266 0.0000
# 6 0.0000 0.0000 0.0000 0.0000 0.0000 25.5964
#
#
#
# Elastic Compliance Matrix: (Units=1/GPa)
#
#
# Indices 1 2 3 4 5 6 
#
# 1 0.020671 -0.001006 -0.000636 0.000000 0.000000 0.000000
# 2 -0.001006 0.007366 -0.002453 0.000000 0.000000 0.000000
# 3 -0.000636 -0.002453 0.007706 0.000000 0.000000 0.000000
# 4 0.000000 0.000000 0.000000 0.056238 0.000000 0.000000
# 5 0.000000 0.000000 0.000000 0.000000 0.029475 0.000000
# 6 0.000000 0.000000 0.000000 0.000000 0.000000 0.039068
#
#
# Mechanical properties :
#
#
# Convention : Reuss Voigt Hill
#
# Bulk Modulus (GPa) = 36.29470 53.30386 44.79928
# Shear Modulus (GPa) = 28.10592 34.33830 31.22211
#
# Velocity S-wave (km/s) = 3.84668 4.25183 4.05432
# Velocity P-wave (km/s) = 6.23195 7.22267 6.74552
#
# Compressibility (1/GPa) = 0.02755224
#
# Stress axis : x y z
#
# Youngs Moduli (GPa) = 48.37631 135.76564 129.77461
#
# Poissons Ratio (x) = 0.13660 0.08253
# Poissons Ratio (y) = 0.04867 0.31835
# Poissons Ratio (z) = 0.03077 0.33304
#
# Static dielectric constant tensor:
#      x y z
#    x 3.597640 0.000000 0.000000 
#    y 0.000000 3.560600 0.000000 
#    z 0.000000 0.000000 3.456040 
# 
# 
# High freq. dielectric constant tensor:
#      x y z
#    x 1.754090 0.000000 0.000000 
#    y 0.000000 1.741130 0.000000 
#    z 0.000000 0.000000 1.741810 
# 
# From -- ./inp_files/9277.got.cif
#   From: 2010.03.12/outbox.cif.g09.slc.cpg/sg74_5_cif.got.tgz:9277.got - 2010.04.16 15:46:19.
