data_PCOD8300102
_publ_section_title
;
Structure prediction by ZEFSAII (Michael W. Deem and Ramdas Pophale) SiO2 
 PCOD8300102
Probable space group: I M M A
;
_chemical_formula_sum "Si O2"
_cell_formula_units_Z 112
_cell_length_a 15.157561
_cell_length_b 23.746738
_cell_length_c 14.419081
_cell_angle_alpha 90.000000
_cell_angle_beta 90.000000
_cell_angle_gamma 90.000000
_cell_volume 5190.041934
_symmetry_space_group_name_H-M "I M M A"
_symmetry_group_IT_number 74
_symmetry_cell_setting 'orthorhombic'
loop_
_space_group_symop_operation_xyz
x,y,z
-x,1/2-y,z
x,-y,-z
-x,1/2+y,-z
-x,-y,-z
x,1/2+y,-z
-x,y,z
x,1/2-y,z
1/2+x,1/2+y,1/2+z
1/2-x,-y,1/2+z
1/2+x,1/2-y,1/2-z
1/2-x,y,1/2-z
1/2-x,1/2-y,1/2-z
1/2+x,y,1/2-z
1/2-x,1/2+y,1/2+z
1/2+x,-y,1/2+z
loop_
_atom_site_type_symbol
_atom_site_label
_atom_site_fract_x
_atom_site_fract_y
_atom_site_fract_z
Si Si1 0.397001 0.140739 0.652473
Si Si2 0.397352 0.124545 0.860746
Si Si3 0.677099 0.188272 0.327042
Si Si4 0.750755 0.186039 0.973265
Si Si5 0.398950 0.997914 0.099907
Si Si6 0.897589 0.518688 0.096725
Si Si7 0.646700 0.924246 0.742746
O O1 0.500000 0.148616 0.625139
O O2 0.383543 0.154129 0.761260
O O3 0.336153 0.182341 0.593490
O O4 0.359640 0.078170 0.630787
O O5 0.500000 0.130939 0.892229
O O6 0.333528 0.150941 0.937953
O O7 0.369437 0.058848 0.846657
O O8 0.629646 0.250000 0.341220
O O9 0.750000 0.197757 0.250000
O O10 0.721126 0.166927 0.423301
O O11 0.611652 0.137814 0.290592
O O12 0.718700 0.250000 0.975888
O O13 0.500000 0.990752 0.078793
O O14 0.385864 0.055685 0.156749
O O15 0.349328 0.000000 0.000000
O O16 0.882828 0.470650 0.170819
O O17 0.000000 0.528219 0.081128
O O18 0.852358 0.500000 0.000000
O O19 0.750000 0.919037 0.750000
#
# Coordination Sequence:
#
# PCOD8300102 Si02
#       7
#    16  16  16  16  16  16  16
#     4  10  21  38  59  89 129 166 203 258 323 386
#     4  10  22  39  62  92 129 168 208 264 323 379
#     4   9  21  42  62  88 125 162 211 269 313 364
#     4  11  24  41  66  91 121 170 218 266 320 378
#     4  10  22  39  60  88 126 164 200 254 317 378
#     4  10  20  35  55  81 116 156 194 242 300 361
#     4  11  22  33  59  93 115 157 198 246 307 374
#
# _framework density 21.579785999999999
#
# number of rings (size 3 to 8) (size 9 to 14) (size 15 to 20)
#    0.000    1.857    1.429    1.714    6.000    2.286 
#    0.000    2.143    0.000    4.286    0.000    4.000 
#    0.000    0.000    0.000    0.000    0.000    0.000 
#
# Total GULP energy -693861.632166 kJ/mol
# GULP energy per Si atom -12390.386289 kJ/mol
# Density = 2.153067 g / cm^3
# Si number density = 21.579786 Si / 1000 Ang^3
#
#
#
# Elastic Constant Matrix: (Units=GPa)
#
#
# Indices 1 2 3 4 5 6 
#
# 1 53.3037 14.1971 26.8614 0.0000 0.0000 0.0000
# 2 14.1971 114.3955 44.5139 0.0015 0.0001 0.0001
# 3 26.8614 44.5139 149.3944 0.0016 0.0001 0.0001
# 4 0.0000 0.0015 0.0016 23.4103 0.0002 0.0002
# 5 0.0000 0.0001 0.0001 0.0002 23.7466 0.0000
# 6 0.0000 0.0001 0.0001 0.0002 0.0000 13.5220
#
#
#
# Elastic Compliance Matrix: (Units=1/GPa)
#
#
# Indices 1 2 3 4 5 6 
#
# 1 0.020792 -0.001273 -0.003359 0.000000 0.000000 0.000000
# 2 -0.001273 0.009966 -0.002741 0.000000 0.000000 0.000000
# 3 -0.003359 -0.002741 0.008114 0.000000 0.000000 0.000000
# 4 0.000000 0.000000 0.000000 0.042716 0.000000 -0.000001
# 5 0.000000 0.000000 0.000000 0.000000 0.042111 0.000000
# 6 0.000000 0.000000 0.000000 -0.000001 0.000000 0.073954
#
#
# Mechanical properties :
#
#
# Convention : Reuss Voigt Hill
#
# Bulk Modulus (GPa) = 41.44800 54.24873 47.84836
# Shear Modulus (GPa) = 22.68171 27.57052 25.12612
#
# Velocity S-wave (km/s) = 3.24553 3.57824 3.41594
# Velocity P-wave (km/s) = 5.77002 6.50115 6.14647
#
# Compressibility (1/GPa) = 0.02412662
#
# Stress axis : x y z
#
# Youngs Moduli (GPa) = 48.09471 100.34071 123.24009
#
# Poissons Ratio (x) = 0.12777 0.41397
# Poissons Ratio (y) = 0.06124 0.33775
# Poissons Ratio (z) = 0.16155 0.27499
#
# Static dielectric constant tensor:
#      x y z
#    x 3.583450 0.000000 0.000000 
#    y 0.000000 5.883630 0.000000 
#    z 0.000000 0.000000 4.112100 
# 
# 
# High freq. dielectric constant tensor:
#      x y z
#    x 1.816760 0.000000 0.000000 
#    y 0.000000 1.850020 0.000000 
#    z 0.000000 0.000000 1.862300 
# 
# From -- ./inp_files/32751.got.cif
#   From: 2010.03.12/outbox.cif.g09.slc.cpg/sg74_17_cif.got.tgz:32751.got - 2010.04.16 15:46:19.
