data_PCOD8300969
_publ_section_title
;
Structure prediction by ZEFSAII (Michael W. Deem and Ramdas Pophale) SiO2 
 PCOD8300969
Probable space group: I M M A
;
_chemical_formula_sum "Si O2"
_cell_formula_units_Z 96
_cell_length_a 14.711456
_cell_length_b 14.655707
_cell_length_c 20.263146
_cell_angle_alpha 90.000000
_cell_angle_beta 90.000000
_cell_angle_gamma 90.000000
_cell_volume 4368.871838
_symmetry_space_group_name_H-M "I M M A"
_symmetry_group_IT_number 74
_symmetry_cell_setting 'orthorhombic'
loop_
_space_group_symop_operation_xyz
x,y,z
-x,1/2-y,z
x,-y,-z
-x,1/2+y,-z
-x,-y,-z
x,1/2+y,-z
-x,y,z
x,1/2-y,z
1/2+x,1/2+y,1/2+z
1/2-x,-y,1/2+z
1/2+x,1/2-y,1/2-z
1/2-x,y,1/2-z
1/2-x,1/2-y,1/2-z
1/2+x,y,1/2-z
1/2-x,1/2+y,1/2+z
1/2+x,-y,1/2+z
loop_
_atom_site_type_symbol
_atom_site_label
_atom_site_fract_x
_atom_site_fract_y
_atom_site_fract_z
Si Si1 0.208825 0.852851 0.529725
Si Si2 0.602223 0.853274 0.846233
Si Si3 0.102218 0.151621 0.841220
Si Si4 0.898508 0.395839 0.983974
Si Si5 0.150353 0.025886 0.725008
Si Si6 0.393339 0.142140 0.901695
O O1 0.173518 0.750000 0.530825
O O2 0.169047 0.894736 0.597480
O O3 0.319082 0.855937 0.530784
O O4 0.161687 0.897401 0.465161
O O5 0.500000 0.851736 0.874338
O O6 0.629571 0.750000 0.822957
O O7 0.606842 0.925833 0.786285
O O8 0.147884 0.250000 0.821128
O O9 0.143627 0.116305 0.910361
O O10 0.100356 0.077826 0.783776
O O11 0.000000 0.171445 0.860194
O O12 0.000000 0.351133 0.995033
O O13 0.908900 0.500000 0.000000
O O14 0.250000 0.008577 0.750000
O O15 0.147309 0.090163 0.661156
O O16 0.500000 0.119615 0.909518
O O17 0.377341 0.250000 0.891255
#
# Coordination Sequence:
#
# PCOD8300969 Si02
#       6
#    16  16  16  16  16  16
#     4  10  21  37  63  93 122 161 209 261 319 374
#     4  10  23  44  66  89 121 163 213 268 323 376
#     4  10  21  39  62  88 122 164 206 249 305 370
#     4  10  22  38  60  90 127 166 206 255 310 376
#     4  12  25  37  59  90 124 167 208 257 309 375
#     4  10  21  38  61  96 137 169 206 256 309 374
#
# _framework density 21.973635999999999
#
# number of rings (size 3 to 8) (size 9 to 14) (size 15 to 20)
#    0.000    1.667    0.000    4.000    4.667    7.333 
#    0.000    1.667    0.000    0.000    0.000    0.000 
#    0.000    0.000    0.000    0.000    0.000    0.000 
#
# Total GULP energy -594726.707229 kJ/mol
# GULP energy per Si atom -12390.139734 kJ/mol
# Density = 2.192362 g / cm^3
# Si number density = 21.973636 Si / 1000 Ang^3
#
#
#
# Elastic Constant Matrix: (Units=GPa)
#
#
# Indices 1 2 3 4 5 6 
#
# 1 118.0338 25.8566 45.2585 0.0000 0.0000 0.0000
# 2 25.8566 117.7300 56.3140 0.0000 0.0000 0.0000
# 3 45.2585 56.3140 83.9833 0.0000 0.0000 0.0000
# 4 0.0000 0.0000 0.0000 34.5571 0.0000 0.0000
# 5 0.0000 0.0000 0.0000 0.0000 28.4476 0.0000
# 6 0.0000 0.0000 0.0000 0.0000 0.0000 34.8868
#
#
#
# Elastic Compliance Matrix: (Units=1/GPa)
#
#
# Indices 1 2 3 4 5 6 
#
# 1 0.010708 0.000601 -0.006174 0.000000 0.000000 0.000000
# 2 0.000601 0.012539 -0.008732 0.000000 0.000000 0.000000
# 3 -0.006174 -0.008732 0.021089 0.000000 0.000000 0.000000
# 4 0.000000 0.000000 0.000000 0.028938 0.000000 0.000000
# 5 0.000000 0.000000 0.000000 0.000000 0.035152 0.000000
# 6 0.000000 0.000000 0.000000 0.000000 0.000000 0.028664
#
#
# Mechanical properties :
#
#
# Convention : Reuss Voigt Hill
#
# Bulk Modulus (GPa) = 63.58326 63.84504 63.71415
# Shear Modulus (GPa) = 29.25015 32.39950 30.82483
#
# Velocity S-wave (km/s) = 3.65245 3.84405 3.74947
# Velocity P-wave (km/s) = 6.84004 6.98718 6.91400
#
# Compressibility (1/GPa) = 0.01572741
#
# Stress axis : x y z
#
# Youngs Moduli (GPa) = 93.39177 79.75395 47.41824
#
# Poissons Ratio (x) = -0.04796 0.29274
# Poissons Ratio (y) = -0.05616 0.41404
# Poissons Ratio (z) = 0.57656 0.69638
#
# Static dielectric constant tensor:
#      x y z
#    x 4.129670 0.000000 0.000000 
#    y 0.000000 4.271380 0.000000 
#    z 0.000000 0.000000 4.156020 
# 
# 
# High freq. dielectric constant tensor:
#      x y z
#    x 1.872540 0.000000 0.000000 
#    y 0.000000 1.866770 0.000000 
#    z 0.000000 0.000000 1.845960 
# 
# From -- ./inp_files/51890.got.cif
#   From: 2010.03.12/outbox.cif.g09.slc.cpg/sg74_26_cif.got.tgz:51890.got - 2010.04.16 15:46:19.
