data_PCOD8300983
_publ_section_title
;
Structure prediction by ZEFSAII (Michael W. Deem and Ramdas Pophale) SiO2 
 PCOD8300983
Probable space group: I M M A
;
_chemical_formula_sum "Si O2"
_cell_formula_units_Z 80
_cell_length_a 19.303278
_cell_length_b 8.876959
_cell_length_c 25.829518
_cell_angle_alpha 90.000000
_cell_angle_beta 90.000000
_cell_angle_gamma 90.000000
_cell_volume 4426.001750
_symmetry_space_group_name_H-M "I M M A"
_symmetry_group_IT_number 74
_symmetry_cell_setting 'orthorhombic'
loop_
_space_group_symop_operation_xyz
x,y,z
-x,1/2-y,z
x,-y,-z
-x,1/2+y,-z
-x,-y,-z
x,1/2+y,-z
-x,y,z
x,1/2-y,z
1/2+x,1/2+y,1/2+z
1/2-x,-y,1/2+z
1/2+x,1/2-y,1/2-z
1/2-x,y,1/2-z
1/2-x,1/2-y,1/2-z
1/2+x,y,1/2-z
1/2-x,1/2+y,1/2+z
1/2+x,-y,1/2+z
loop_
_atom_site_type_symbol
_atom_site_label
_atom_site_fract_x
_atom_site_fract_y
_atom_site_fract_z
Si Si1 0.679031 0.571554 0.857424
Si Si2 0.167938 0.416311 0.245092
Si Si3 0.580797 0.074214 0.446349
Si Si4 0.578366 0.927593 0.947479
Si Si5 0.327924 0.927472 0.357981
O O1 0.693949 0.750000 0.859727
O O2 0.643232 0.529392 0.802110
O O3 0.625730 0.515575 0.900655
O O4 0.750597 0.486121 0.867047
O O5 0.138230 0.250000 0.231863
O O6 0.250000 0.407796 0.250000
O O7 0.144964 0.529286 0.199667
O O8 0.500000 0.043090 0.436932
O O9 0.598006 0.250000 0.448943
O O10 0.605537 0.000000 0.500000
O O11 0.621609 0.000437 0.399447
O O12 0.500000 0.982310 0.936854
O O13 0.582151 0.750000 0.953291
O O14 0.607482 0.000000 0.000000
O O15 0.329881 0.750000 0.364240
#
# Coordination Sequence:
#
# PCOD8300983 Si02
#       5
#    16  16  16  16  16
#     4   9  18  33  52  73 101 135 172 214 254 297
#     4   8  15  30  50  71  98 133 170 208 252 297
#     4  10  21  38  58  77 100 132 168 206 251 302
#     4   9  18  33  52  73  98 130 166 205 251 299
#     4  11  21  32  51  78 106 134 166 206 250 300
#
# _framework density 18.075004
#
# number of rings (size 3 to 8) (size 9 to 14) (size 15 to 20)
#    0.000    2.600    0.000    3.600    0.000    6.400 
#    0.000    3.000    0.000    3.600    0.000    0.000 
#    0.000    0.000    0.000    0.000    0.000    0.000 
#
# Total GULP energy -495898.315331 kJ/mol
# GULP energy per Si atom -12397.457883 kJ/mol
# Density = 1.803386 g / cm^3
# Si number density = 18.075004 Si / 1000 Ang^3
#
#
#
# Elastic Constant Matrix: (Units=GPa)
#
#
# Indices 1 2 3 4 5 6 
#
# 1 60.6055 42.9926 73.3598 0.0000 0.0000 0.0000
# 2 42.9926 94.3628 66.8190 0.0000 0.0000 0.0000
# 3 73.3598 66.8190 189.0195 0.0000 0.0000 0.0000
# 4 0.0000 0.0000 0.0000 33.5322 0.0000 0.0000
# 5 0.0000 0.0000 0.0000 0.0000 -16.6483 0.0000
# 6 0.0000 0.0000 0.0000 0.0000 0.0000 19.0183
#
#
#
# Elastic Compliance Matrix: (Units=1/GPa)
#
#
# Indices 1 2 3 4 5 6 
#
# 1 0.035689 -0.008606 -0.010809 0.000000 0.000000 0.000000
# 2 -0.008606 0.016211 -0.002391 0.000000 0.000000 0.000000
# 3 -0.010809 -0.002391 0.010330 0.000000 0.000000 0.000000
# 4 0.000000 0.000000 0.000000 0.029822 0.000000 0.000000
# 5 0.000000 0.000000 0.000000 0.000000 -0.060066 0.000000
# 6 0.000000 0.000000 0.000000 0.000000 0.000000 0.052581
#
#
# Mechanical properties :
#
#
# Convention : Reuss Voigt Hill
#
# Bulk Modulus (GPa) = 53.70790 78.92562 66.31676
# Shear Modulus (GPa) = 37.20657 17.90153 27.55405
#
# Velocity S-wave (km/s) = 4.54194 3.15048 3.90863
# Velocity P-wave (km/s) = 7.56862 7.54947 7.55905
#
# Compressibility (1/GPa) = 0.01861924
#
# Stress axis : x y z
#
# Youngs Moduli (GPa) = 28.02012 61.68528 96.80144
#
# Poissons Ratio (x) = 0.53089 1.04629
# Poissons Ratio (y) = 0.24115 0.23141
# Poissons Ratio (z) = 0.30286 0.14746
#
# Static dielectric constant tensor:
#      x y z
#    x 3.159110 0.000000 0.000000 
#    y 0.000000 3.301340 0.000000 
#    z 0.000000 0.000000 3.943320 
# 
# 
# High freq. dielectric constant tensor:
#      x y z
#    x 1.670530 0.000000 0.000000 
#    y 0.000000 1.695780 0.000000 
#    z 0.000000 0.000000 1.719720 
# 
# From -- ./inp_files/67540.got.cif
#   From: 2010.03.12/outbox.cif.g09.slc.cpg/sg74_34_cif.got.tgz:67540.got - 2010.04.16 15:46:19.
