data_PCOD8300997
_publ_section_title
;
Structure prediction by ZEFSAII (Michael W. Deem and Ramdas Pophale) SiO2 
 PCOD8300997
Probable space group: I M M A
;
_chemical_formula_sum "Si O2"
_cell_formula_units_Z 104
_cell_length_a 8.597267
_cell_length_b 22.375924
_cell_length_c 28.133466
_cell_angle_alpha 90.000000
_cell_angle_beta 90.000000
_cell_angle_gamma 90.000000
_cell_volume 5412.085298
_symmetry_space_group_name_H-M "I M M A"
_symmetry_group_IT_number 74
_symmetry_cell_setting 'orthorhombic'
loop_
_space_group_symop_operation_xyz
x,y,z
-x,1/2-y,z
x,-y,-z
-x,1/2+y,-z
-x,-y,-z
x,1/2+y,-z
-x,y,z
x,1/2-y,z
1/2+x,1/2+y,1/2+z
1/2-x,-y,1/2+z
1/2+x,1/2-y,1/2-z
1/2-x,y,1/2-z
1/2-x,1/2-y,1/2-z
1/2+x,y,1/2-z
1/2-x,1/2+y,1/2+z
1/2+x,-y,1/2+z
loop_
_atom_site_type_symbol
_atom_site_label
_atom_site_fract_x
_atom_site_fract_y
_atom_site_fract_z
Si Si1 0.319030 0.934895 0.048754
Si Si2 0.817126 0.368113 0.149035
Si Si3 0.184096 0.750000 0.696216
Si Si4 0.324860 0.183646 0.800976
Si Si5 0.177153 0.083634 0.858222
Si Si6 0.182269 0.480088 0.300125
Si Si7 0.819425 0.573474 0.556797
O O1 0.500000 0.926742 0.059672
O O2 0.215719 0.900647 0.087216
O O3 0.272372 0.004148 0.055649
O O4 0.281903 0.906018 0.997228
O O5 0.736033 0.307250 0.165594
O O6 0.766217 0.419059 0.185698
O O7 0.774566 0.387322 0.095001
O O8 0.000000 0.358485 0.152081
O O9 0.250000 0.750000 0.750000
O O10 0.000000 0.750000 0.700755
O O11 0.500000 0.156668 0.799188
O O12 0.329859 0.250000 0.822798
O O13 0.250000 0.185300 0.750000
O O14 0.209549 0.144667 0.831767
O O15 0.000000 0.063699 0.851391
O O16 0.286420 0.030401 0.839428
O O17 0.250000 0.502828 0.250000
O O18 0.000000 0.468204 0.296332
O O19 0.000000 0.581282 0.569524
#
# Coordination Sequence:
#
# PCOD8300997 Si02
#       7
#    16  16   8  16  16  16  16
#     4   9  18  34  58  87 120 154 194 235 285 346
#     4  12  24  40  62  91 122 155 197 247 301 358
#     4  12  26  46  68  90 120 162 208 254 305 366
#     4  10  21  38  59  81 109 149 193 235 281 340
#     4  12  23  35  55  86 119 152 190 237 292 344
#     4  12  24  39  57  82 118 155 194 239 291 350
#     4   9  18  35  60  88 117 155 193 236 287 348
#
# _framework density 19.216252000000001
#
# number of rings (size 3 to 8) (size 9 to 14) (size 15 to 20)
#    0.000    1.231    1.538    7.154    0.000    1.538 
#    0.000    1.538    1.692    0.000    0.000    0.000 
#    0.000    0.000    0.000    0.000    0.000    0.000 
#
# Total GULP energy -644741.602187 kJ/mol
# GULP energy per Si atom -12398.876965 kJ/mol
# Density = 1.917252 g / cm^3
# Si number density = 19.216252 Si / 1000 Ang^3
#
#
#
# Elastic Constant Matrix: (Units=GPa)
#
#
# Indices 1 2 3 4 5 6 
#
# 1 116.3282 36.2213 46.5629 0.0000 0.0000 0.0000
# 2 36.2213 74.6969 37.0481 0.0000 0.0000 0.0000
# 3 46.5629 37.0481 111.5675 0.0000 0.0000 0.0000
# 4 0.0000 0.0000 0.0000 47.6089 0.0000 0.0000
# 5 0.0000 0.0000 0.0000 0.0000 30.7767 0.0000
# 6 0.0000 0.0000 0.0000 0.0000 0.0000 29.0588
#
#
#
# Elastic Compliance Matrix: (Units=1/GPa)
#
#
# Indices 1 2 3 4 5 6 
#
# 1 0.011113 -0.003697 -0.003410 0.000000 0.000000 0.000000
# 2 -0.003697 0.017257 -0.004188 0.000000 0.000000 0.000000
# 3 -0.003410 -0.004188 0.011777 0.000000 0.000000 0.000000
# 4 0.000000 0.000000 0.000000 0.021004 0.000000 0.000000
# 5 0.000000 0.000000 0.000000 0.000000 0.032492 0.000000
# 6 0.000000 0.000000 0.000000 0.000000 0.000000 0.034413
#
#
# Mechanical properties :
#
#
# Convention : Reuss Voigt Hill
#
# Bulk Modulus (GPa) = 56.95753 60.25080 58.60417
# Shear Modulus (GPa) = 31.94923 33.67291 32.81107
#
# Velocity S-wave (km/s) = 4.08194 4.19061 4.13663
# Velocity P-wave (km/s) = 7.20562 7.40520 7.30609
#
# Compressibility (1/GPa) = 0.01755694
#
# Stress axis : x y z
#
# Youngs Moduli (GPa) = 89.98831 57.94681 84.91175
#
# Poissons Ratio (x) = 0.21424 0.28956
# Poissons Ratio (y) = 0.33271 0.35557
# Poissons Ratio (z) = 0.30687 0.24265
#
# Static dielectric constant tensor:
#      x y z
#    x 3.531680 0.000000 0.000000 
#    y 0.000000 3.505960 0.000000 
#    z 0.000000 0.000000 3.641490 
# 
# 
# High freq. dielectric constant tensor:
#      x y z
#    x 1.756450 0.000000 0.000000 
#    y 0.000000 1.724820 0.000000 
#    z 0.000000 0.000000 1.759610 
# 
# From -- ./inp_files/64797.got.cif
#   From: 2010.03.12/outbox.cif.g09.slc.cpg/sg74_33_cif.got.tgz:64797.got - 2010.04.16 15:46:19.
