data_PCOD8300429
_publ_section_title
;
Structure prediction by ZEFSAII (Michael W. Deem and Ramdas Pophale) SiO2 
 PCOD8300429
Probable space group: I M M A
;
_chemical_formula_sum "Si O2"
_cell_formula_units_Z 88
_cell_length_a 23.597233
_cell_length_b 14.925673
_cell_length_c 13.523856
_cell_angle_alpha 90.000000
_cell_angle_beta 90.000000
_cell_angle_gamma 90.000000
_cell_volume 4763.164069
_symmetry_space_group_name_H-M "I M M A"
_symmetry_group_IT_number 74
_symmetry_cell_setting 'orthorhombic'
loop_
_space_group_symop_operation_xyz
x,y,z
-x,1/2-y,z
x,-y,-z
-x,1/2+y,-z
-x,-y,-z
x,1/2+y,-z
-x,y,z
x,1/2-y,z
1/2+x,1/2+y,1/2+z
1/2-x,-y,1/2+z
1/2+x,1/2-y,1/2-z
1/2-x,y,1/2-z
1/2-x,1/2-y,1/2-z
1/2+x,y,1/2-z
1/2-x,1/2+y,1/2+z
1/2+x,-y,1/2+z
loop_
_atom_site_type_symbol
_atom_site_label
_atom_site_fract_x
_atom_site_fract_y
_atom_site_fract_z
Si Si1 0.307210 0.147809 0.697901
Si Si2 0.377512 0.477098 0.820528
Si Si3 0.000000 0.349772 0.233400
Si Si4 0.213698 0.148072 0.030861
Si Si5 0.000000 0.999514 0.382730
Si Si6 0.199051 0.500000 0.500000
Si Si7 0.377332 0.147173 0.304117
O O1 0.316944 0.250000 0.729780
O O2 0.250000 0.111235 0.750000
O O3 0.360231 0.090249 0.733888
O O4 0.305750 0.135887 0.581091
O O5 0.442803 0.452610 0.843616
O O6 0.340406 0.456085 0.916997
O O7 0.365127 0.579643 0.786568
O O8 0.943790 0.367906 0.167029
O O9 0.000000 0.250000 0.273328
O O10 0.000000 0.401429 0.337334
O O11 0.234688 0.250000 0.050261
O O12 0.161022 0.123656 0.101452
O O13 0.263871 0.078153 0.051342
O O14 0.000000 0.000000 0.500000
O O15 0.366224 0.250000 0.269590
#
# Coordination Sequence:
#
# PCOD8300429 Si02
#       7
#    16  16   8  16   8   8  16
#     4  10  20  37  57  77 106 146 184 218 264 325
#     4  11  22  36  57  79 109 146 183 225 273 320
#     4   8  16  34  57  79 107 145 179 216 275 332
#     4  10  21  35  54  83 112 139 179 225 270 326
#     4  10  20  38  55  77 107 141 185 230 268 316
#     4  12  22  33  54  79 106 148 184 218 272 328
#     4   9  19  35  56  83 112 141 178 226 275 325
#
# _framework density 18.475114000000001
#
# number of rings (size 3 to 8) (size 9 to 14) (size 15 to 20)
#    0.000    2.000    2.727    1.091    0.000    0.727 
#    0.000    4.091    0.000    6.000    0.000    0.000 
#    0.000    0.000    0.000    0.000    0.000    0.000 
#
# Total GULP energy -545436.207681 kJ/mol
# GULP energy per Si atom -12396.277447 kJ/mol
# Density = 1.843306 g / cm^3
# Si number density = 18.475114 Si / 1000 Ang^3
#
#
#
# Elastic Constant Matrix: (Units=GPa)
#
#
# Indices 1 2 3 4 5 6 
#
# 1 138.3971 50.8337 49.9860 0.0000 0.0000 0.0000
# 2 50.8337 60.5720 15.4345 0.0000 0.0000 0.0000
# 3 49.9860 15.4345 71.8862 0.0000 0.0000 0.0000
# 4 0.0000 0.0000 0.0000 24.1627 0.0000 0.0000
# 5 0.0000 0.0000 0.0000 0.0000 36.3028 0.0000
# 6 0.0000 0.0000 0.0000 0.0000 0.0000 25.9375
#
#
#
# Elastic Compliance Matrix: (Units=1/GPa)
#
#
# Indices 1 2 3 4 5 6 
#
# 1 0.013236 -0.009270 -0.007213 0.000000 0.000000 0.000000
# 2 -0.009270 0.023957 0.001302 0.000000 0.000000 0.000000
# 3 -0.007213 0.001302 0.018647 0.000000 0.000000 0.000000
# 4 0.000000 0.000000 0.000000 0.041386 0.000000 0.000000
# 5 0.000000 0.000000 0.000000 0.000000 0.027546 0.000000
# 6 0.000000 0.000000 0.000000 0.000000 0.000000 0.038554
#
#
# Mechanical properties :
#
#
# Convention : Reuss Voigt Hill
#
# Bulk Modulus (GPa) = 39.24988 55.92931 47.58959
# Shear Modulus (GPa) = 24.73045 27.58735 26.15890
#
# Velocity S-wave (km/s) = 3.66263 3.86841 3.76693
# Velocity P-wave (km/s) = 6.25918 7.09163 6.68837
#
# Compressibility (1/GPa) = 0.02547778
#
# Stress axis : x y z
#
# Youngs Moduli (GPa) = 75.55402 41.74165 53.62812
#
# Poissons Ratio (x) = 0.38693 0.38682
# Poissons Ratio (y) = 0.70036 -0.06982
# Poissons Ratio (z) = 0.54498 -0.05435
#
# Static dielectric constant tensor:
#      x y z
#    x 3.627250 0.000000 0.000000 
#    y 0.000000 3.482630 0.000000 
#    z 0.000000 0.000000 3.254070 
# 
# 
# High freq. dielectric constant tensor:
#      x y z
#    x 1.721230 0.000000 0.000000 
#    y 0.000000 1.715330 0.000000 
#    z 0.000000 0.000000 1.706310 
# 
# From -- ./inp_files/25016.got.cif
#   From: 2010.03.12/outbox.cif.g09.slc.cpg/sg74_13_cif.got.tgz:25016.got - 2010.04.16 15:46:19.
