data_PCOD8300708
_publ_section_title
;
Structure prediction by ZEFSAII (Michael W. Deem and Ramdas Pophale) SiO2 
 PCOD8300708
Probable space group: I M M A
;
_chemical_formula_sum "Si O2"
_cell_formula_units_Z 96
_cell_length_a 8.900754
_cell_length_b 22.980996
_cell_length_c 25.364412
_cell_angle_alpha 90.000000
_cell_angle_beta 90.000000
_cell_angle_gamma 90.000000
_cell_volume 5188.244618
_symmetry_space_group_name_H-M "I M M A"
_symmetry_group_IT_number 74
_symmetry_cell_setting 'orthorhombic'
loop_
_space_group_symop_operation_xyz
x,y,z
-x,1/2-y,z
x,-y,-z
-x,1/2+y,-z
-x,-y,-z
x,1/2+y,-z
-x,y,z
x,1/2-y,z
1/2+x,1/2+y,1/2+z
1/2-x,-y,1/2+z
1/2+x,1/2-y,1/2-z
1/2-x,y,1/2-z
1/2-x,1/2-y,1/2-z
1/2+x,y,1/2-z
1/2-x,1/2+y,1/2+z
1/2+x,-y,1/2+z
loop_
_atom_site_type_symbol
_atom_site_label
_atom_site_fract_x
_atom_site_fract_y
_atom_site_fract_z
Si Si1 0.677036 0.612639 0.898618
Si Si2 0.671665 0.182850 0.998673
Si Si3 0.174086 0.501479 0.939808
Si Si4 0.326918 0.872266 0.401579
Si Si5 0.823640 0.816403 0.304048
Si Si6 0.176834 0.683343 0.805275
O O1 0.500000 0.615658 0.889072
O O2 0.729355 0.546316 0.905393
O O3 0.759037 0.640796 0.849207
O O4 0.726427 0.647017 0.950872
O O5 0.500000 0.167549 0.983814
O O6 0.689880 0.250000 0.013163
O O7 0.776514 0.167831 0.949820
O O8 0.202002 0.439180 0.914339
O O9 0.000000 0.520180 0.938352
O O10 0.232395 0.500000 0.000000
O O11 0.500000 0.858983 0.390166
O O12 0.231588 0.857720 0.350310
O O13 0.775996 0.750000 0.316521
O O14 0.750000 0.838130 0.250000
O O15 0.000000 0.822535 0.298162
O O16 0.217971 0.750000 0.819673
O O17 0.250000 0.665481 0.750000
O O18 0.000000 0.674371 0.800756
#
# Coordination Sequence:
#
# PCOD8300708 Si02
#       6
#    16  16  16  16  16  16
#     4  11  22  36  58  85 115 150 193 239 285 340
#     4  10  21  35  52  79 115 149 182 228 283 338
#     4  10  21  39  58  79 113 154 195 239 285 336
#     4  11  22  36  57  83 112 148 190 235 282 334
#     4  10  21  38  60  85 115 149 185 229 281 338
#     4  10  21  38  61  87 117 153 191 234 287 344
#
# _framework density 18.503367999999998
#
# number of rings (size 3 to 8) (size 9 to 14) (size 15 to 20)
#    0.000    1.667    1.667    3.000    0.000    7.333 
#    0.000    0.833    0.000    4.000    0.000    0.000 
#    0.000    0.000    0.000    0.000    0.000    0.000 
#
# Total GULP energy -595499.639364 kJ/mol
# GULP energy per Si atom -12406.242487 kJ/mol
# Density = 1.846125 g / cm^3
# Si number density = 18.503368 Si / 1000 Ang^3
#
#
#
# Elastic Constant Matrix: (Units=GPa)
#
#
# Indices 1 2 3 4 5 6 
#
# 1 72.1855 33.2177 50.2403 0.0000 0.0000 0.0000
# 2 33.2177 75.5789 47.7002 0.0000 0.0000 0.0000
# 3 50.2403 47.7002 132.2400 0.0000 0.0000 0.0000
# 4 0.0000 0.0000 0.0000 -0.0985 0.0000 0.0000
# 5 0.0000 0.0000 0.0000 0.0000 36.0446 0.0000
# 6 0.0000 0.0000 0.0000 0.0000 0.0000 32.1610
#
#
#
# Elastic Compliance Matrix: (Units=1/GPa)
#
#
# Indices 1 2 3 4 5 6 
#
# 1 0.020327 -0.005257 -0.005827 -0.000001 0.000000 0.000000
# 2 -0.005257 0.018491 -0.004673 0.000004 0.000000 0.000000
# 3 -0.005827 -0.004673 0.011461 0.000000 0.000000 0.000000
# 4 -0.000001 0.000004 0.000000-10.155862 0.000000 0.000001
# 5 0.000000 0.000000 0.000000 0.000000 0.027743 0.000000
# 6 0.000000 0.000000 0.000000 0.000001 0.000000 0.031094
#
#
# Mechanical properties :
#
#
# Convention : Reuss Voigt Hill
#
# Bulk Modulus (GPa) = 53.28437 60.25787 56.77112
# Shear Modulus (GPa) = -0.49955 23.54450 11.52248
#
# Velocity S-wave (km/s) = -0.52016 3.57100 2.49815
# Velocity P-wave (km/s) = 5.33843 7.04552 6.25053
#
# Compressibility (1/GPa) = 0.01876723
#
# Stress axis : x y z
#
# Youngs Moduli (GPa) = 49.19449 54.08142 87.25181
#
# Poissons Ratio (x) = 0.28430 0.50838
# Poissons Ratio (y) = 0.25861 0.40769
# Poissons Ratio (z) = 0.28664 0.25270
#
# Static dielectric constant tensor:
#      x y z
#    x 3.479000 0.000000 0.000000 
#    y 0.000000 3.382630 0.000000 
#    z 0.000000 0.000000 3.626620 
# 
# 
# High freq. dielectric constant tensor:
#      x y z
#    x 1.727690 0.000000 0.000000 
#    y 0.000000 1.716370 0.000000 
#    z 0.000000 0.000000 1.721000 
# 
# From -- ./inp_files/57250.got.cif
#   From: 2010.03.12/outbox.cif.g09.slc.cpg/sg74_29_cif.got.tgz:57250.got - 2010.04.16 15:46:19.
