data_PCOD8300903
_publ_section_title
;
Structure prediction by ZEFSAII (Michael W. Deem and Ramdas Pophale) SiO2 
 PCOD8300903
Probable space group: I M M A
;
_chemical_formula_sum "Si O2"
_cell_formula_units_Z 56
_cell_length_a 8.547373
_cell_length_b 15.325833
_cell_length_c 19.941215
_cell_angle_alpha 90.000000
_cell_angle_beta 90.000000
_cell_angle_gamma 90.000000
_cell_volume 2612.211647
_symmetry_space_group_name_H-M "I M M A"
_symmetry_group_IT_number 74
_symmetry_cell_setting 'orthorhombic'
loop_
_space_group_symop_operation_xyz
x,y,z
-x,1/2-y,z
x,-y,-z
-x,1/2+y,-z
-x,-y,-z
x,1/2+y,-z
-x,y,z
x,1/2-y,z
1/2+x,1/2+y,1/2+z
1/2-x,-y,1/2+z
1/2+x,1/2-y,1/2-z
1/2-x,y,1/2-z
1/2-x,1/2-y,1/2-z
1/2+x,y,1/2-z
1/2-x,1/2+y,1/2+z
1/2+x,-y,1/2+z
loop_
_atom_site_type_symbol
_atom_site_label
_atom_site_fract_x
_atom_site_fract_y
_atom_site_fract_z
Si Si1 0.817911 0.911494 0.561825
Si Si2 0.669553 0.151126 0.313309
Si Si3 0.185740 0.750000 0.325933
Si Si4 0.685247 0.398050 0.577720
O O1 0.785285 0.848342 0.623529
O O2 0.734440 0.868706 0.497182
O O3 0.000000 0.921010 0.545890
O O4 0.747915 0.003998 0.585218
O O5 0.500000 0.106927 0.328867
O O6 0.639204 0.250000 0.292358
O O7 0.750000 0.102113 0.250000
O O8 0.250000 0.750000 0.250000
O O9 0.241985 0.836074 0.365527
O O10 0.000000 0.750000 0.322798
O O11 0.500000 0.394389 0.585070
#
# Coordination Sequence:
#
# PCOD8300903 Si02
#       4
#    16  16   8  16
#     4  11  22  39  63  92 125 163 208 257 310 367
#     4  10  21  37  57  85 121 159 202 249 303 363
#     4  12  26  46  68  96 129 166 211 262 320 382
#     4  11  23  42  65  92 124 161 207 257 310 368
#
# _framework density 21.437771000000001
#
# number of rings (size 3 to 8) (size 9 to 14) (size 15 to 20)
#    0.000    1.143    0.000    9.000    2.000    2.857 
#    0.000    5.714    0.000    0.000    0.000    0.000 
#    0.000    0.000    0.000    0.000    0.000    0.000 
#
# Total GULP energy -347074.628726 kJ/mol
# GULP energy per Si atom -12395.522455 kJ/mol
# Density = 2.138898 g / cm^3
# Si number density = 21.437771 Si / 1000 Ang^3
#
#
#
# Elastic Constant Matrix: (Units=GPa)
#
#
# Indices 1 2 3 4 5 6 
#
# 1 180.6584 40.4949 45.2593 0.0000 0.0000 0.0000
# 2 40.4949 59.1516 49.5415 0.0000 0.0000 0.0000
# 3 45.2593 49.5415 154.5285 0.0000 0.0000 0.0000
# 4 0.0000 0.0000 0.0000 45.6782 0.0000 0.0000
# 5 0.0000 0.0000 0.0000 0.0000 42.9492 0.0000
# 6 0.0000 0.0000 0.0000 0.0000 0.0000 29.7522
#
#
#
# Elastic Compliance Matrix: (Units=1/GPa)
#
#
# Indices 1 2 3 4 5 6 
#
# 1 0.006588 -0.003956 -0.000661 0.000000 0.000000 0.000000
# 2 -0.003956 0.025487 -0.007012 0.000000 0.000000 0.000000
# 3 -0.000661 -0.007012 0.008913 0.000000 0.000000 0.000000
# 4 0.000000 0.000000 0.000000 0.021892 0.000000 0.000000
# 5 0.000000 0.000000 0.000000 0.000000 0.023283 0.000000
# 6 0.000000 0.000000 0.000000 0.000000 0.000000 0.033611
#
#
# Mechanical properties :
#
#
# Convention : Reuss Voigt Hill
#
# Bulk Modulus (GPa) = 56.40615 73.88112 65.14363
# Shear Modulus (GPa) = 33.56974 40.94545 37.25760
#
# Velocity S-wave (km/s) = 3.96146 4.37506 4.17339
# Velocity P-wave (km/s) = 6.87698 7.74980 7.32640
#
# Compressibility (1/GPa) = 0.01772856
#
# Stress axis : x y z
#
# Youngs Moduli (GPa) = 151.79744 39.23529 112.19451
#
# Poissons Ratio (x) = 0.15522 0.07417
# Poissons Ratio (y) = 0.60055 0.78676
# Poissons Ratio (z) = 0.10035 0.27513
#
# Static dielectric constant tensor:
#      x y z
#    x 4.332570 0.000000 0.000000 
#    y 0.000000 3.694070 0.000000 
#    z 0.000000 0.000000 4.071800 
# 
# 
# High freq. dielectric constant tensor:
#      x y z
#    x 1.866840 0.000000 0.000000 
#    y 0.000000 1.819730 0.000000 
#    z 0.000000 0.000000 1.854520 
# 
# From -- ./inp_files/38870.got.cif
#   From: 2010.03.12/outbox.cif.g09.slc.cpg/sg74_20_cif.got.tgz:38870.got - 2010.04.16 15:46:19.
