data_PCOD8300746
_publ_section_title
;
Structure prediction by ZEFSAII (Michael W. Deem and Ramdas Pophale) SiO2 
 PCOD8300746
Probable space group: I M M A
;
_chemical_formula_sum "Si O2"
_cell_formula_units_Z 80
_cell_length_a 17.572157
_cell_length_b 23.732381
_cell_length_c 10.022666
_cell_angle_alpha 90.000000
_cell_angle_beta 90.000000
_cell_angle_gamma 90.000000
_cell_volume 4179.743631
_symmetry_space_group_name_H-M "I M M A"
_symmetry_group_IT_number 74
_symmetry_cell_setting 'orthorhombic'
loop_
_space_group_symop_operation_xyz
x,y,z
-x,1/2-y,z
x,-y,-z
-x,1/2+y,-z
-x,-y,-z
x,1/2+y,-z
-x,y,z
x,1/2-y,z
1/2+x,1/2+y,1/2+z
1/2-x,-y,1/2+z
1/2+x,1/2-y,1/2-z
1/2-x,y,1/2-z
1/2-x,1/2-y,1/2-z
1/2+x,y,1/2-z
1/2-x,1/2+y,1/2+z
1/2+x,-y,1/2+z
loop_
_atom_site_type_symbol
_atom_site_label
_atom_site_fract_x
_atom_site_fract_y
_atom_site_fract_z
Si Si1 0.183032 0.591981 0.419972
Si Si2 0.911957 0.814328 0.917136
Si Si3 0.147097 0.394604 0.861972
Si Si4 0.663698 0.607440 0.784841
Si Si5 0.086864 0.507447 0.279205
O O1 0.161284 0.629814 0.289345
O O2 0.274014 0.586089 0.430128
O O3 0.152913 0.619214 0.557065
O O4 0.142590 0.530836 0.397241
O O5 0.887598 0.750000 0.940307
O O6 0.863381 0.837434 0.793399
O O7 0.000000 0.819885 0.880692
O O8 0.894870 0.847430 0.053077
O O9 0.095443 0.451130 0.849528
O O10 0.750000 0.592827 0.750000
O O11 0.612077 0.555113 0.738185
O O12 0.000000 0.507011 0.329145
#
# Coordination Sequence:
#
# PCOD8300746 Si02
#       5
#    16  16  16  16  16
#     4   9  20  38  61  91 121 161 199 242 300 359
#     4  11  25  44  64  88 121 158 203 260 307 349
#     4   9  19  42  61  86 121 161 204 245 296 360
#     4  12  22  38  62  91 126 165 199 244 305 366
#     4  10  21  35  61  93 128 163 197 246 304 366
#
# _framework density 19.139931000000001
#
# number of rings (size 3 to 8) (size 9 to 14) (size 15 to 20)
#    1.200    0.600    2.000    3.000    0.000    3.600 
#    0.000    5.000    0.000    2.400    0.000    0.000 
#    0.000    0.000    0.000    0.000    0.000    0.000 
#
# Total GULP energy -495690.519079 kJ/mol
# GULP energy per Si atom -12392.262977 kJ/mol
# Density = 1.909637 g / cm^3
# Si number density = 19.139931 Si / 1000 Ang^3
#
#
#
# Elastic Constant Matrix: (Units=GPa)
#
#
# Indices 1 2 3 4 5 6 
#
# 1 98.7909 44.0934 24.7085 0.0000 0.0000 0.0000
# 2 44.0934 96.9721 57.3103 0.0000 0.0000 0.0000
# 3 24.7085 57.3103 105.0874 0.0000 0.0000 0.0000
# 4 0.0000 0.0000 0.0000 20.0555 0.0000 0.0000
# 5 0.0000 0.0000 0.0000 0.0000 20.4015 0.0000
# 6 0.0000 0.0000 0.0000 0.0000 0.0000 23.2931
#
#
#
# Elastic Compliance Matrix: (Units=1/GPa)
#
#
# Indices 1 2 3 4 5 6 
#
# 1 0.012704 -0.005919 0.000241 0.000000 0.000000 0.000000
# 2 -0.005919 0.017974 -0.008411 0.000000 0.000000 0.000000
# 3 0.000241 -0.008411 0.014046 0.000000 0.000000 0.000000
# 4 0.000000 0.000000 0.000000 0.049862 0.000000 0.000000
# 5 0.000000 0.000000 0.000000 0.000000 0.049016 0.000000
# 6 0.000000 0.000000 0.000000 0.000000 0.000000 0.042931
#
#
# Mechanical properties :
#
#
# Convention : Reuss Voigt Hill
#
# Bulk Modulus (GPa) = 60.43431 61.45276 60.94354
# Shear Modulus (GPa) = 22.70392 24.39923 23.55157
#
# Velocity S-wave (km/s) = 3.44787 3.57428 3.51165
# Velocity P-wave (km/s) = 6.89159 7.01504 6.95359
#
# Compressibility (1/GPa) = 0.01654689
#
# Stress axis : x y z
#
# Youngs Moduli (GPa) = 78.71593 55.63495 71.19400
#
# Poissons Ratio (x) = 0.32930 -0.01715
# Poissons Ratio (y) = 0.46591 0.59880
# Poissons Ratio (z) = -0.01896 0.46793
#
# Static dielectric constant tensor:
#      x y z
#    x 3.479150 0.000000 0.000000 
#    y 0.000000 3.150540 0.000000 
#    z 0.000000 0.000000 3.523020 
# 
# 
# High freq. dielectric constant tensor:
#      x y z
#    x 1.751600 0.000000 0.000000 
#    y 0.000000 1.704710 0.000000 
#    z 0.000000 0.000000 1.750720 
# 
# From -- ./inp_files/20455.got.cif
#   From: 2010.03.12/outbox.cif.g09.slc.cpg/sg74_11_cif.got.tgz:20455.got - 2010.04.16 15:46:19.
