data_PCOD8300651
_publ_section_title
;
Structure prediction by ZEFSAII (Michael W. Deem and Ramdas Pophale) SiO2 
 PCOD8300651
Probable space group: I M M A
;
_chemical_formula_sum "Si O2"
_cell_formula_units_Z 88
_cell_length_a 14.407521
_cell_length_b 12.181455
_cell_length_c 27.751342
_cell_angle_alpha 90.000000
_cell_angle_beta 90.000000
_cell_angle_gamma 90.000000
_cell_volume 4870.487309
_symmetry_space_group_name_H-M "I M M A"
_symmetry_group_IT_number 74
_symmetry_cell_setting 'orthorhombic'
loop_
_space_group_symop_operation_xyz
x,y,z
-x,1/2-y,z
x,-y,-z
-x,1/2+y,-z
-x,-y,-z
x,1/2+y,-z
-x,y,z
x,1/2-y,z
1/2+x,1/2+y,1/2+z
1/2-x,-y,1/2+z
1/2+x,1/2-y,1/2-z
1/2-x,y,1/2-z
1/2-x,1/2-y,1/2-z
1/2+x,y,1/2-z
1/2-x,1/2+y,1/2+z
1/2+x,-y,1/2+z
loop_
_atom_site_type_symbol
_atom_site_label
_atom_site_fract_x
_atom_site_fract_y
_atom_site_fract_z
Si Si1 0.897535 0.622859 0.365359
Si Si2 0.601740 0.750000 0.634511
Si Si3 0.896286 0.926152 0.784368
Si Si4 0.893541 0.456302 0.449085
Si Si5 0.226160 0.631995 0.196923
Si Si6 0.698771 0.250000 0.100204
Si Si7 0.388116 0.250000 0.207576
O O1 0.888056 0.750000 0.378053
O O2 0.883059 0.559469 0.414582
O O3 0.819112 0.584755 0.328069
O O4 0.000000 0.596873 0.343377
O O5 0.500000 0.750000 0.607866
O O6 0.608277 0.855366 0.667867
O O7 0.688904 0.750000 0.598301
O O8 0.855113 0.858068 0.738212
O O9 0.000000 0.957237 0.769952
O O10 0.849192 0.037916 0.800898
O O11 0.854603 0.500000 0.500000
O O12 0.834124 0.356223 0.428619
O O13 0.000000 0.416676 0.453923
O O14 0.193280 0.750000 0.173007
O O15 0.250000 0.665026 0.250000
O O16 0.660653 0.250000 0.155422
O O17 0.500000 0.250000 0.201711
#
# Coordination Sequence:
#
# PCOD8300651 Si02
#       7
#    16   8  16  16  16   8   8
#     4   9  19  36  55  73 103 149 186 220 267 317
#     4   9  20  36  54  82 110 142 180 227 276 315
#     4   9  19  34  51  74 111 146 178 223 276 316
#     4  10  22  36  55  85 116 140 174 222 273 331
#     4  10  21  33  48  73 104 142 190 230 259 312
#     4  12  22  35  60  82 108 144 181 220 269 325
#     4   9  20  34  52  82 110 142 182 219 262 326
#
# _framework density 18.068007999999999
#
# number of rings (size 3 to 8) (size 9 to 14) (size 15 to 20)
#    0.000    2.364    0.000    3.000    6.364    1.818 
#    0.000    1.818    0.000    0.545    0.000    0.000 
#    0.000    0.000    0.000    0.000    0.000    0.000 
#
# Total GULP energy -545124.186686 kJ/mol
# GULP energy per Si atom -12389.186061 kJ/mol
# Density = 1.802688 g / cm^3
# Si number density = 18.068008 Si / 1000 Ang^3
#
#
#
# Elastic Constant Matrix: (Units=GPa)
#
#
# Indices 1 2 3 4 5 6 
#
# 1 106.1238 65.1966 58.1207 0.0000 0.0000 0.0000
# 2 65.1966 112.8523 39.3232 0.0000 0.0000 0.0000
# 3 58.1207 39.3232 93.0055 0.0000 0.0000 0.0000
# 4 0.0000 0.0000 0.0000 12.0875 0.0000 0.0000
# 5 0.0000 0.0000 0.0000 0.0000 21.1947 0.0000
# 6 0.0000 0.0000 0.0000 0.0000 0.0000 27.9492
#
#
#
# Elastic Compliance Matrix: (Units=1/GPa)
#
#
# Indices 1 2 3 4 5 6 
#
# 1 0.018992 -0.008018 -0.008478 0.000000 0.000000 0.000000
# 2 -0.008018 0.013777 -0.000815 0.000000 0.000000 0.000000
# 3 -0.008478 -0.000815 0.016395 0.000000 0.000000 0.000000
# 4 0.000000 0.000000 0.000000 0.082730 0.000000 0.000000
# 5 0.000000 0.000000 0.000000 0.000000 0.047182 0.000000
# 6 0.000000 0.000000 0.000000 0.000000 0.000000 0.035779
#
#
# Mechanical properties :
#
#
# Convention : Reuss Voigt Hill
#
# Bulk Modulus (GPa) = 68.76525 70.80697 69.78611
# Shear Modulus (GPa) = 19.65998 22.20234 20.93116
#
# Velocity S-wave (km/s) = 3.30223 3.50926 3.40732
# Velocity P-wave (km/s) = 7.25819 7.46285 7.36123
#
# Compressibility (1/GPa) = 0.01454223
#
# Stress axis : x y z
#
# Youngs Moduli (GPa) = 52.65388 72.58521 60.99489
#
# Poissons Ratio (x) = 0.58196 0.51714
# Poissons Ratio (y) = 0.42216 0.04969
# Poissons Ratio (z) = 0.44643 0.05913
#
# Static dielectric constant tensor:
#      x y z
#    x 3.395900 0.000000 0.000000 
#    y 0.000000 2.073470 0.000000 
#    z 0.000000 0.000000 3.161490 
# 
# 
# High freq. dielectric constant tensor:
#      x y z
#    x 1.690800 0.000000 0.000000 
#    y 0.000000 1.720650 0.000000 
#    z 0.000000 0.000000 1.668570 
# 
# From -- ./inp_files/58689.got.cif
#   From: 2010.03.12/outbox.cif.g09.slc.cpg/sg74_30_cif.got.tgz:58689.got - 2010.04.16 15:46:19.
