data_PCOD8300035
_publ_section_title
;
Structure prediction by ZEFSAII (Michael W. Deem and Ramdas Pophale) SiO2 
 PCOD8300035
Probable space group: I M M A
;
_chemical_formula_sum "Si O2"
_cell_formula_units_Z 88
_cell_length_a 8.759756
_cell_length_b 19.923135
_cell_length_c 29.916649
_cell_angle_alpha 90.000000
_cell_angle_beta 90.000000
_cell_angle_gamma 90.000000
_cell_volume 5221.107474
_symmetry_space_group_name_H-M "I M M A"
_symmetry_group_IT_number 74
_symmetry_cell_setting 'orthorhombic'
loop_
_space_group_symop_operation_xyz
x,y,z
-x,1/2-y,z
x,-y,-z
-x,1/2+y,-z
-x,-y,-z
x,1/2+y,-z
-x,y,z
x,1/2-y,z
1/2+x,1/2+y,1/2+z
1/2-x,-y,1/2+z
1/2+x,1/2-y,1/2-z
1/2-x,y,1/2-z
1/2-x,1/2-y,1/2-z
1/2+x,y,1/2-z
1/2-x,1/2+y,1/2+z
1/2+x,-y,1/2+z
loop_
_atom_site_type_symbol
_atom_site_label
_atom_site_fract_x
_atom_site_fract_y
_atom_site_fract_z
Si Si1 0.676278 0.821067 0.918342
Si Si2 0.319393 0.896822 0.701066
Si Si3 0.678473 0.250000 0.298077
Si Si4 0.821412 0.540035 0.044023
Si Si5 0.325824 0.324302 0.976512
Si Si6 0.318383 0.456391 0.120404
O O1 0.500000 0.821964 0.904658
O O2 0.748729 0.750000 0.900355
O O3 0.754178 0.887392 0.899212
O O4 0.695620 0.822721 0.970971
O O5 0.500000 0.906514 0.703574
O O6 0.250000 0.904979 0.750000
O O7 0.274588 0.822288 0.679885
O O8 0.246650 0.956409 0.670865
O O9 0.500000 0.250000 0.290790
O O10 0.750000 0.250000 0.250000
O O11 0.786031 0.619098 0.042525
O O12 0.742722 0.515778 0.089611
O O13 0.000000 0.527970 0.048031
O O14 0.758208 0.500000 0.000000
O O15 0.500000 0.342744 0.963985
O O16 0.284198 0.250000 0.957187
O O17 0.500000 0.459739 0.120550
#
# Coordination Sequence:
#
# PCOD8300035 Si02
#       6
#    16  16   8  16  16  16
#     4   8  15  27  43  66  93 123 163 206 246 290
#     4  10  20  35  50  68  95 125 164 208 254 300
#     4   8  16  30  48  66  90 124 160 204 252 296
#     4  11  22  34  48  70 103 135 166 205 249 296
#     4   9  17  32  53  72  94 127 168 209 247 292
#     4  11  21  32  51  72  94 129 169 209 254 298
#
# _framework density 16.854662000000001
#
# number of rings (size 3 to 8) (size 9 to 14) (size 15 to 20)
#    0.000    2.364    1.818    2.727    1.273    1.818 
#    0.000    0.000    0.000    0.000    0.000    0.000 
#    0.000    0.727    0.000    2.727    0.000    4.182 
#
# Total GULP energy -545085.809264 kJ/mol
# GULP energy per Si atom -12388.313847 kJ/mol
# Density = 1.681630 g / cm^3
# Si number density = 16.854662 Si / 1000 Ang^3
#
#
#
# Elastic Constant Matrix: (Units=GPa)
#
#
# Indices 1 2 3 4 5 6 
#
# 1 58.5846 25.4489 25.8985 0.0000 0.0000 0.0000
# 2 25.4489 84.3871 31.0860 0.0000 0.0000 0.0000
# 3 25.8985 31.0860 49.1039 0.0000 0.0000 0.0000
# 4 0.0000 0.0000 0.0000 31.2595 0.0000 0.0000
# 5 0.0000 0.0000 0.0000 0.0000 21.3458 0.0000
# 6 0.0000 0.0000 0.0000 0.0000 0.0000 24.1190
#
#
#
# Elastic Compliance Matrix: (Units=1/GPa)
#
#
# Indices 1 2 3 4 5 6 
#
# 1 0.022905 -0.003205 -0.010052 0.000000 0.000000 0.000000
# 2 -0.003205 0.015902 -0.008377 0.000000 0.000000 0.000000
# 3 -0.010052 -0.008377 0.030970 0.000000 0.000000 0.000000
# 4 0.000000 0.000000 0.000000 0.031990 0.000000 0.000000
# 5 0.000000 0.000000 0.000000 0.000000 0.046848 0.000000
# 6 0.000000 0.000000 0.000000 0.000000 0.000000 0.041461
#
#
# Mechanical properties :
#
#
# Convention : Reuss Voigt Hill
#
# Bulk Modulus (GPa) = 37.72152 39.66026 38.69089
# Shear Modulus (GPa) = 20.64576 22.65435 21.65006
#
# Velocity S-wave (km/s) = 3.50370 3.67017 3.58790
# Velocity P-wave (km/s) = 6.22872 6.44531 6.33794
#
# Compressibility (1/GPa) = 0.02651006
#
# Stress axis : x y z
#
# Youngs Moduli (GPa) = 43.65844 62.88320 32.28947
#
# Poissons Ratio (x) = 0.20152 0.32457
# Poissons Ratio (y) = 0.13991 0.27049
# Poissons Ratio (z) = 0.43885 0.52678
#
# Static dielectric constant tensor:
#      x y z
#    x 3.415830 0.000000 0.000000 
#    y 0.000000 3.246530 0.000000 
#    z 0.000000 0.000000 2.977070 
# 
# 
# High freq. dielectric constant tensor:
#      x y z
#    x 1.642800 0.000000 0.000000 
#    y 0.000000 1.633200 0.000000 
#    z 0.000000 0.000000 1.626250 
# 
# From -- ./inp_files/70283.got.cif
#   From: 2010.03.12/outbox.cif.g09.slc.cpg/sg74_36_cif.got.tgz:70283.got - 2010.04.16 15:46:19.
