data_PCOD8300353
_publ_section_title
;
Structure prediction by ZEFSAII (Michael W. Deem and Ramdas Pophale) SiO2 
 PCOD8300353
Probable space group: I M M A
;
_chemical_formula_sum "Si O2"
_cell_formula_units_Z 64
_cell_length_a 13.711486
_cell_length_b 18.393228
_cell_length_c 10.403186
_cell_angle_alpha 90.000000
_cell_angle_beta 90.000000
_cell_angle_gamma 90.000000
_cell_volume 2623.667782
_symmetry_space_group_name_H-M "I M M A"
_symmetry_group_IT_number 74
_symmetry_cell_setting 'orthorhombic'
loop_
_space_group_symop_operation_xyz
x,y,z
-x,1/2-y,z
x,-y,-z
-x,1/2+y,-z
-x,-y,-z
x,1/2+y,-z
-x,y,z
x,1/2-y,z
1/2+x,1/2+y,1/2+z
1/2-x,-y,1/2+z
1/2+x,1/2-y,1/2-z
1/2-x,y,1/2-z
1/2-x,1/2-y,1/2-z
1/2+x,y,1/2-z
1/2-x,1/2+y,1/2+z
1/2+x,-y,1/2+z
loop_
_atom_site_type_symbol
_atom_site_label
_atom_site_fract_x
_atom_site_fract_y
_atom_site_fract_z
Si Si1 0.385032 0.334071 0.202772
Si Si2 0.610324 0.460600 0.378029
Si Si3 0.724723 0.165981 0.947980
Si Si4 0.109507 0.610428 0.208535
O O1 0.500000 0.345586 0.180081
O O2 0.361155 0.250000 0.237212
O O3 0.344933 0.385673 0.318965
O O4 0.329708 0.361340 0.075528
O O5 0.664041 0.500000 0.500000
O O6 0.500000 0.442124 0.421494
O O7 0.612336 0.523150 0.267049
O O8 0.746161 0.250000 0.958979
O O9 0.829412 0.127596 0.923171
O O10 0.654092 0.152031 0.828103
O O11 0.000000 0.638618 0.186583
#
# Coordination Sequence:
#
# PCOD8300353 Si02
#       4
#    16  16  16  16
#     4   9  18  36  64  95 130 167 204 260 324 382
#     4   9  19  38  61  89 124 160 210 263 315 388
#     4  10  21  37  57  92 130 164 219 266 312 391
#     4  10  20  36  58  87 126 171 213 266 321 371
#
# _framework density 24.393333999999999
#
# number of rings (size 3 to 8) (size 9 to 14) (size 15 to 20)
#    0.000    2.500    0.000    2.250    0.000    4.000 
#    9.000    6.250    0.000   12.000    0.000    0.000 
#    0.000    1.000    0.000    0.000    0.000    0.000 
#
# Total GULP energy -396514.187206 kJ/mol
# GULP energy per Si atom -12391.068350 kJ/mol
# Density = 2.433781 g / cm^3
# Si number density = 24.393334 Si / 1000 Ang^3
#
#
#
# Elastic Constant Matrix: (Units=GPa)
#
#
# Indices 1 2 3 4 5 6 
#
# 1 143.5101 30.6135 47.2531 0.0000 0.0000 0.0000
# 2 30.6135 114.4822 67.1943 0.0000 0.0000 0.0000
# 3 47.2531 67.1943 140.3099 0.0000 0.0000 0.0000
# 4 0.0000 0.0000 0.0000 46.4549 0.0000 0.0000
# 5 0.0000 0.0000 0.0000 0.0000 30.3152 0.0000
# 6 0.0000 0.0000 0.0000 0.0000 0.0000 23.5820
#
#
#
# Elastic Compliance Matrix: (Units=1/GPa)
#
#
# Indices 1 2 3 4 5 6 
#
# 1 0.007885 -0.000765 -0.002289 0.000000 0.000000 0.000000
# 2 -0.000765 0.012224 -0.005597 0.000000 0.000000 0.000000
# 3 -0.002289 -0.005597 0.010578 0.000000 0.000000 0.000000
# 4 0.000000 0.000000 0.000000 0.021526 0.000000 0.000000
# 5 0.000000 0.000000 0.000000 0.000000 0.032987 0.000000
# 6 0.000000 0.000000 0.000000 0.000000 0.000000 0.042405
#
#
# Mechanical properties :
#
#
# Convention : Reuss Voigt Hill
#
# Bulk Modulus (GPa) = 74.70361 76.49155 75.59758
# Shear Modulus (GPa) = 33.47403 36.95320 35.21361
#
# Velocity S-wave (km/s) = 3.70842 3.89638 3.80356
# Velocity P-wave (km/s) = 7.00197 7.18805 7.09562
#
# Compressibility (1/GPa) = 0.01338623
#
# Stress axis : x y z
#
# Youngs Moduli (GPa) = 126.82191 81.80327 94.53340
#
# Poissons Ratio (x) = 0.06257 0.21641
# Poissons Ratio (y) = 0.09701 0.52907
# Poissons Ratio (z) = 0.29032 0.45783
#
# Static dielectric constant tensor:
#      x y z
#    x 4.440170 0.000000 0.000000 
#    y 0.000000 4.567530 0.000000 
#    z 0.000000 0.000000 4.470200 
# 
# 
# High freq. dielectric constant tensor:
#      x y z
#    x 1.969530 0.000000 0.000000 
#    y 0.000000 1.979670 0.000000 
#    z 0.000000 0.000000 1.968710 
# 
# From -- ./inp_files/19942.got.cif
#   From: 2010.03.12/outbox.cif.g09.slc.cpg/sg74_10_cif.got.tgz:19942.got - 2010.04.16 15:46:19.
