data_PCOD8300649
_publ_section_title
;
Structure prediction by ZEFSAII (Michael W. Deem and Ramdas Pophale) SiO2 
 PCOD8300649
Probable space group: I M M A
;
_chemical_formula_sum "Si O2"
_cell_formula_units_Z 88
_cell_length_a 25.410251
_cell_length_b 27.865283
_cell_length_c 5.849212
_cell_angle_alpha 90.000000
_cell_angle_beta 90.000000
_cell_angle_gamma 90.000000
_cell_volume 4141.615482
_symmetry_space_group_name_H-M "I M M A"
_symmetry_group_IT_number 74
_symmetry_cell_setting 'orthorhombic'
loop_
_space_group_symop_operation_xyz
x,y,z
-x,1/2-y,z
x,-y,-z
-x,1/2+y,-z
-x,-y,-z
x,1/2+y,-z
-x,y,z
x,1/2-y,z
1/2+x,1/2+y,1/2+z
1/2-x,-y,1/2+z
1/2+x,1/2-y,1/2-z
1/2-x,y,1/2-z
1/2-x,1/2-y,1/2-z
1/2+x,y,1/2-z
1/2-x,1/2+y,1/2+z
1/2+x,-y,1/2+z
loop_
_atom_site_type_symbol
_atom_site_label
_atom_site_fract_x
_atom_site_fract_y
_atom_site_fract_z
Si Si1 0.203238 0.804102 0.589784
Si Si2 0.558355 0.111163 0.138253
Si Si3 0.000000 0.025968 0.747397
Si Si4 0.402158 0.196978 0.383754
Si Si5 0.100405 0.946933 0.037259
Si Si6 0.358589 0.861805 0.232059
O O1 0.216819 0.750000 0.503349
O O2 0.250000 0.823826 0.750000
O O3 0.195895 0.841172 0.375906
O O4 0.149555 0.803725 0.728528
O O5 0.500000 0.101520 0.031450
O O6 0.554798 0.159527 0.292373
O O7 0.572916 0.066130 0.297201
O O8 0.603551 0.118502 0.959494
O O9 0.055452 0.055246 0.761155
O O10 0.000000 0.000000 0.500000
O O11 0.000000 0.000000 0.000000
O O12 0.427265 0.250000 0.389536
O O13 0.385661 0.182759 0.640193
O O14 0.146843 0.908141 0.097227
O O15 0.125061 0.000000 0.000000
#
# Coordination Sequence:
#
# PCOD8300649 Si02
#       6
#    16  16   8  16  16  16
#     4   9  18  35  59  84 111 138 174 233 306 368
#     4  10  21  35  50  76 111 152 193 236 277 336
#     4  10  22  34  54  84 113 154 203 250 308 360
#     4   9  19  36  52  77 113 143 183 229 278 347
#     4  10  22  34  52  77 113 149 190 244 298 344
#     4  10  21  32  53  78 113 142 189 229 290 356
#
# _framework density 21.247747
#
# number of rings (size 3 to 8) (size 9 to 14) (size 15 to 20)
#    0.000    2.364    0.909    0.545    6.364    2.545 
#    0.000    2.727    0.000    0.000    0.000    0.000 
#  196.364    0.000    0.000    0.000    0.000    0.000 
#
# Total GULP energy -545103.973777 kJ/mol
# GULP energy per Si atom -12388.726677 kJ/mol
# Density = 2.119939 g / cm^3
# Si number density = 21.247747 Si / 1000 Ang^3
#
#
#
# Elastic Constant Matrix: (Units=GPa)
#
#
# Indices 1 2 3 4 5 6 
#
# 1 39.0994 11.6917 -6.5991 0.0000 0.0000 0.0000
# 2 11.6917 122.6742 8.7889 0.0000 0.0000 0.0000
# 3 -6.5991 8.7889 49.2742 0.0000 0.0000 0.0000
# 4 0.0000 0.0000 0.0000 39.0781 0.0000 0.0000
# 5 0.0000 0.0000 0.0000 0.0000 36.4216 0.0000
# 6 0.0000 0.0000 0.0000 0.0000 0.0000 25.3871
#
#
#
# Elastic Compliance Matrix: (Units=1/GPa)
#
#
# Indices 1 2 3 4 5 6 
#
# 1 0.027138 -0.002884 0.004149 0.000000 0.000000 0.000000
# 2 -0.002884 0.008564 -0.001914 0.000000 0.000000 0.000000
# 3 0.004149 -0.001914 0.021192 0.000000 0.000000 0.000000
# 4 0.000000 0.000000 0.000000 0.025590 0.000000 0.000000
# 5 0.000000 0.000000 0.000000 0.000000 0.027456 0.000000
# 6 0.000000 0.000000 0.000000 0.000000 0.000000 0.039390
#
#
# Mechanical properties :
#
#
# Convention : Reuss Voigt Hill
#
# Bulk Modulus (GPa) = 17.98671 26.53454 22.26062
# Shear Modulus (GPa) = 29.55801 33.32178 31.43990
#
# Velocity S-wave (km/s) = 3.73381 3.96441 3.85084
# Velocity P-wave (km/s) = 5.20308 5.78538 5.50194
#
# Compressibility (1/GPa) = 0.05559662
#
# Stress axis : x y z
#
# Youngs Moduli (GPa) = 36.84813 116.77308 47.18855
#
# Poissons Ratio (x) = 0.33674 -0.19578
# Poissons Ratio (y) = 0.10626 0.09030
# Poissons Ratio (z) = -0.15288 0.22347
#
# Static dielectric constant tensor:
#      x y z
#    x 3.760220 0.000000 0.000000 
#    y 0.000000 4.392280 0.000000 
#    z 0.000000 0.000000 4.152390 
# 
# 
# High freq. dielectric constant tensor:
#      x y z
#    x 1.782320 0.000000 0.000000 
#    y 0.000000 1.846650 0.000000 
#    z 0.000000 0.000000 1.850500 
# 
# From -- ./inp_files/4619.got.cif
#   From: 2010.03.12/outbox.cif.g09.slc.cpg/sg74_3_cif.got.tgz:4619.got - 2010.04.16 15:46:19.
