data_PCOD8300269
_publ_section_title
;
Structure prediction by ZEFSAII (Michael W. Deem and Ramdas Pophale) SiO2 
 PCOD8300269
Probable space group: I M M A
;
_chemical_formula_sum "Si O2"
_cell_formula_units_Z 96
_cell_length_a 28.295652
_cell_length_b 9.405552
_cell_length_c 20.047062
_cell_angle_alpha 90.000000
_cell_angle_beta 90.000000
_cell_angle_gamma 90.000000
_cell_volume 5335.249428
_symmetry_space_group_name_H-M "I M M A"
_symmetry_group_IT_number 74
_symmetry_cell_setting 'orthorhombic'
loop_
_space_group_symop_operation_xyz
x,y,z
-x,1/2-y,z
x,-y,-z
-x,1/2+y,-z
-x,-y,-z
x,1/2+y,-z
-x,y,z
x,1/2-y,z
1/2+x,1/2+y,1/2+z
1/2-x,-y,1/2+z
1/2+x,1/2-y,1/2-z
1/2-x,y,1/2-z
1/2-x,1/2-y,1/2-z
1/2+x,y,1/2-z
1/2-x,1/2+y,1/2+z
1/2+x,-y,1/2+z
loop_
_atom_site_type_symbol
_atom_site_label
_atom_site_fract_x
_atom_site_fract_y
_atom_site_fract_z
Si Si1 0.596058 0.581837 0.692565
Si Si2 0.945206 0.404053 0.056910
Si Si3 0.210550 0.083297 0.659063
Si Si4 0.872457 0.416201 0.567570
Si Si5 0.187593 0.582051 0.192540
Si Si6 0.945214 0.585997 0.316630
O O1 0.601034 0.750000 0.704837
O O2 0.560682 0.541535 0.632485
O O3 0.644973 0.513785 0.666705
O O4 0.576389 0.511083 0.759131
O O5 0.920694 0.250000 0.050988
O O6 0.000000 0.392404 0.040694
O O7 0.920613 0.500000 0.000000
O O8 0.203146 0.250000 0.659853
O O9 0.175652 0.021918 0.602173
O O10 0.195447 0.029320 0.731786
O O11 0.265876 0.046066 0.647794
O O12 0.881664 0.500000 0.500000
O O13 0.867487 0.250000 0.550885
O O14 0.917093 0.444789 0.615407
O O15 0.175958 0.750000 0.188783
O O16 0.938824 0.750000 0.295161
O O17 0.000000 0.547623 0.328578
#
# Coordination Sequence:
#
# PCOD8300269 Si02
#       6
#    16  16  16  16  16  16
#     4  11  21  33  52  82 115 141 167 217 279 321
#     4   9  19  35  52  71  99 136 174 210 253 309
#     4   8  15  31  55  77  99 133 176 217 256 304
#     4  10  20  36  55  78 108 142 182 227 275 327
#     4   9  16  31  56  79 100 134 176 214 255 311
#     4  10  21  37  57  79 104 140 189 234 268 319
#
# _framework density 17.993535999999999
#
# number of rings (size 3 to 8) (size 9 to 14) (size 15 to 20)
#    0.000    2.500    1.667    2.000    0.000    3.333 
#    0.000    5.000    0.000    4.000    0.000    0.000 
#    0.000    0.000    0.000    0.000    0.000    0.000 
#
# Total GULP energy -594868.535838 kJ/mol
# GULP energy per Si atom -12393.094497 kJ/mol
# Density = 1.795258 g / cm^3
# Si number density = 17.993536 Si / 1000 Ang^3
#
#
#
# Elastic Constant Matrix: (Units=GPa)
#
#
# Indices 1 2 3 4 5 6 
#
# 1 111.5258 47.3538 44.8910 0.0000 0.0000 0.0000
# 2 47.3538 72.9435 54.6939 0.0000 0.0000 0.0000
# 3 44.8910 54.6939 102.0054 0.0000 0.0000 0.0000
# 4 0.0000 0.0000 0.0000 29.9780 0.0000 0.0000
# 5 0.0000 0.0000 0.0000 0.0000 26.6308 0.0000
# 6 0.0000 0.0000 0.0000 0.0000 0.0000 10.7738
#
#
#
# Elastic Compliance Matrix: (Units=1/GPa)
#
#
# Indices 1 2 3 4 5 6 
#
# 1 0.012604 -0.006728 -0.001939 0.000000 0.000000 0.000000
# 2 -0.006728 0.026518 -0.011258 0.000000 0.000000 0.000000
# 3 -0.001939 -0.011258 0.016693 0.000000 0.000000 0.000000
# 4 0.000000 0.000000 0.000000 0.033358 0.000000 0.000000
# 5 0.000000 0.000000 0.000000 0.000000 0.037551 0.000000
# 6 0.000000 0.000000 0.000000 0.000000 0.000000 0.092818
#
#
# Mechanical properties :
#
#
# Convention : Reuss Voigt Hill
#
# Bulk Modulus (GPa) = 62.63740 64.48356 63.56048
# Shear Modulus (GPa) = 18.88835 22.77892 20.83364
#
# Velocity S-wave (km/s) = 3.24347 3.56188 3.40640
# Velocity P-wave (km/s) = 6.99381 7.26848 7.13247
#
# Compressibility (1/GPa) = 0.01596490
#
# Stress axis : x y z
#
# Youngs Moduli (GPa) = 79.34049 37.70980 59.90515
#
# Poissons Ratio (x) = 0.25372 0.11617
# Poissons Ratio (y) = 0.53382 0.67440
# Poissons Ratio (z) = 0.15386 0.42453
#
# Static dielectric constant tensor:
#      x y z
#    x 3.554170 0.000000 0.000000 
#    y 0.000000 3.276230 0.000000 
#    z 0.000000 0.000000 3.260120 
# 
# 
# High freq. dielectric constant tensor:
#      x y z
#    x 1.701440 0.000000 0.000000 
#    y 0.000000 1.678330 0.000000 
#    z 0.000000 0.000000 1.683960 
# 
# From -- ./inp_files/49089.got.cif
#   From: 2010.03.12/outbox.cif.g09.slc.cpg/sg74_25_cif.got.tgz:49089.got - 2010.04.16 15:46:19.
