data_PCOD8300791
_publ_section_title
;
Structure prediction by ZEFSAII (Michael W. Deem and Ramdas Pophale) SiO2 
 PCOD8300791
Probable space group: I M M A
;
_chemical_formula_sum "Si O2"
_cell_formula_units_Z 96
_cell_length_a 9.061356
_cell_length_b 29.099296
_cell_length_c 19.089796
_cell_angle_alpha 90.000000
_cell_angle_beta 90.000000
_cell_angle_gamma 90.000000
_cell_volume 5033.579854
_symmetry_space_group_name_H-M "I M M A"
_symmetry_group_IT_number 74
_symmetry_cell_setting 'orthorhombic'
loop_
_space_group_symop_operation_xyz
x,y,z
-x,1/2-y,z
x,-y,-z
-x,1/2+y,-z
-x,-y,-z
x,1/2+y,-z
-x,y,z
x,1/2-y,z
1/2+x,1/2+y,1/2+z
1/2-x,-y,1/2+z
1/2+x,1/2-y,1/2-z
1/2-x,y,1/2-z
1/2-x,1/2-y,1/2-z
1/2+x,y,1/2-z
1/2-x,1/2+y,1/2+z
1/2+x,-y,1/2+z
loop_
_atom_site_type_symbol
_atom_site_label
_atom_site_fract_x
_atom_site_fract_y
_atom_site_fract_z
Si Si1 0.167746 0.622915 0.081476
Si Si2 0.325890 0.302820 0.175779
Si Si3 0.833101 0.947917 0.323407
Si Si4 0.174133 0.621692 0.921820
Si Si5 0.668328 0.972869 0.930258
Si Si6 0.668411 0.300613 0.685445
O O1 0.270872 0.587286 0.120192
O O2 0.191726 0.672746 0.114060
O O3 0.000000 0.605220 0.088765
O O4 0.213350 0.630777 0.002153
O O5 0.500000 0.312022 0.182654
O O6 0.295558 0.250000 0.151511
O O7 0.250000 0.312025 0.250000
O O8 0.256909 0.338950 0.121612
O O9 0.750000 0.948099 0.250000
O O10 0.000000 0.933836 0.306682
O O11 0.823016 0.997035 0.360317
O O12 0.232715 0.570424 0.908008
O O13 0.000000 0.623949 0.905499
O O14 0.500000 0.957402 0.945829
O O15 0.728204 0.000000 0.000000
O O16 0.500000 0.298109 0.707516
O O17 0.736298 0.250000 0.673933
O O18 0.750000 0.325958 0.750000
#
# Coordination Sequence:
#
# PCOD8300791 Si02
#       6
#    16  16  16  16  16  16
#     4  10  21  36  55  82 114 151 192 235 287 346
#     4  10  22  42  67  93 124 162 204 253 308 369
#     4  11  23  38  59  84 113 150 193 243 295 353
#     4  11  23  37  61  93 123 157 196 246 302 362
#     4  10  21  40  61  82 114 159 203 248 303 360
#     4   9  18  33  51  72 102 141 184 229 276 327
#
# _framework density 19.071912999999999
#
# number of rings (size 3 to 8) (size 9 to 14) (size 15 to 20)
#    0.000    1.833    1.667    2.000    0.000    6.667 
#    0.000    3.333    0.000    2.000    0.000    0.000 
#    0.000    0.000    0.000    0.000    0.000    0.000 
#
# Total GULP energy -595092.981685 kJ/mol
# GULP energy per Si atom -12397.770452 kJ/mol
# Density = 1.902850 g / cm^3
# Si number density = 19.071913 Si / 1000 Ang^3
#
#
#
# Elastic Constant Matrix: (Units=GPa)
#
#
# Indices 1 2 3 4 5 6 
#
# 1 118.4960 70.6924 75.6493 0.0001 0.0000 0.0000
# 2 70.6924 111.6681 69.7619 0.0001 0.0000 0.0000
# 3 75.6493 69.7619 131.2873 0.0009 0.0000 0.0000
# 4 0.0001 0.0001 0.0009 46.9808 0.0000 0.0000
# 5 0.0000 0.0000 0.0000 0.0000 32.5259 0.0001
# 6 0.0000 0.0000 0.0000 0.0000 0.0001 27.9389
#
#
#
# Elastic Compliance Matrix: (Units=1/GPa)
#
#
# Indices 1 2 3 4 5 6 
#
# 1 0.016015 -0.006547 -0.005749 0.000000 0.000000 0.000000
# 2 -0.006547 0.016081 -0.004773 0.000000 0.000000 0.000000
# 3 -0.005749 -0.004773 0.013466 0.000000 0.000000 0.000000
# 4 0.000000 0.000000 0.000000 0.021285 0.000000 0.000000
# 5 0.000000 0.000000 0.000000 0.000000 0.030745 0.000000
# 6 0.000000 0.000000 0.000000 0.000000 0.000000 0.035792
#
#
# Mechanical properties :
#
#
# Convention : Reuss Voigt Hill
#
# Bulk Modulus (GPa) = 87.53132 88.18425 87.85778
# Shear Modulus (GPa) = 29.18328 31.17898 30.18113
#
# Velocity S-wave (km/s) = 3.91598 4.04767 3.98237
# Velocity P-wave (km/s) = 8.15117 8.25730 8.20441
#
# Compressibility (1/GPa) = 0.01142448
#
# Stress axis : x y z
#
# Youngs Moduli (GPa) = 62.44024 62.18419 74.26188
#
# Poissons Ratio (x) = 0.40711 0.42697
# Poissons Ratio (y) = 0.40878 0.35443
# Poissons Ratio (z) = 0.35900 0.29679
#
# Static dielectric constant tensor:
#      x y z
#    x 3.548200 0.000000 0.000000 
#    y 0.000000 3.780290 0.000000 
#    z 0.000000 0.000000 3.560800 
# 
# 
# High freq. dielectric constant tensor:
#      x y z
#    x 1.748030 0.000000 0.000000 
#    y 0.000000 1.746450 0.000000 
#    z 0.000000 0.000000 1.745600 
# 
# From -- ./inp_files/49169.got.cif
#   From: 2010.03.12/outbox.cif.g09.slc.cpg/sg74_25_cif.got.tgz:49169.got - 2010.04.16 15:46:19.
