data_PCOD8300632
_publ_section_title
;
Structure prediction by ZEFSAII (Michael W. Deem and Ramdas Pophale) SiO2 
 PCOD8300632
Probable space group: I M M A
;
_chemical_formula_sum "Si O2"
_cell_formula_units_Z 72
_cell_length_a 27.182592
_cell_length_b 14.237916
_cell_length_c 9.553083
_cell_angle_alpha 90.000000
_cell_angle_beta 90.000000
_cell_angle_gamma 90.000000
_cell_volume 3697.267251
_symmetry_space_group_name_H-M "I M M A"
_symmetry_group_IT_number 74
_symmetry_cell_setting 'orthorhombic'
loop_
_space_group_symop_operation_xyz
x,y,z
-x,1/2-y,z
x,-y,-z
-x,1/2+y,-z
-x,-y,-z
x,1/2+y,-z
-x,y,z
x,1/2-y,z
1/2+x,1/2+y,1/2+z
1/2-x,-y,1/2+z
1/2+x,1/2-y,1/2-z
1/2-x,y,1/2-z
1/2-x,1/2-y,1/2-z
1/2+x,y,1/2-z
1/2-x,1/2+y,1/2+z
1/2+x,-y,1/2+z
loop_
_atom_site_type_symbol
_atom_site_label
_atom_site_fract_x
_atom_site_fract_y
_atom_site_fract_z
Si Si1 0.696031 0.859906 0.895158
Si Si2 0.303845 0.360405 0.419153
Si Si3 0.943152 0.997796 0.724603
Si Si4 0.120551 0.500000 0.000000
Si Si5 0.592731 0.861173 0.004440
O O1 0.699018 0.750000 0.870862
O O2 0.687747 0.899701 0.738782
O O3 0.748090 0.890984 0.963255
O O4 0.650841 0.887267 0.995626
O O5 0.312353 0.250000 0.435260
O O6 0.343805 0.409866 0.518489
O O7 0.927530 0.093398 0.645921
O O8 0.000000 0.004586 0.763891
O O9 0.913340 0.987826 0.866129
O O10 0.934686 0.906152 0.628604
O O11 0.583042 0.750000 0.004920
#
# Coordination Sequence:
#
# PCOD8300632 Si02
#       5
#    16  16  16   8  16
#     4   8  15  33  60  85 112 145 185 233 278 333
#     4   9  18  34  56  86 119 152 187 226 279 344
#     4  11  25  40  57  84 115 149 196 248 288 330
#     4  12  23  38  58  84 118 160 189 228 288 354
#     4  10  20  40  65  86 111 148 192 238 289 341
#
# _framework density 19.473844
#
# number of rings (size 3 to 8) (size 9 to 14) (size 15 to 20)
#    0.000    2.222    2.222    3.000    0.000    4.444 
#    0.000    0.000    0.000    8.000    0.000    0.000 
#    0.000    0.000    0.000    0.000    0.000    0.000 
#
# Total GULP energy -446247.062130 kJ/mol
# GULP energy per Si atom -12395.751726 kJ/mol
# Density = 1.942952 g / cm^3
# Si number density = 19.473844 Si / 1000 Ang^3
#
#
#
# Elastic Constant Matrix: (Units=GPa)
#
#
# Indices 1 2 3 4 5 6 
#
# 1 154.7061 40.7682 26.3775 0.0000 0.0000 0.0000
# 2 40.7682 101.6518 19.7968 0.0000 0.0000 0.0000
# 3 26.3775 19.7968 45.6335 0.0000 0.0000 0.0000
# 4 0.0000 0.0000 0.0000 11.7441 0.0000 0.0000
# 5 0.0000 0.0000 0.0000 0.0000 14.5311 0.0000
# 6 0.0000 0.0000 0.0000 0.0000 0.0000 25.5974
#
#
#
# Elastic Compliance Matrix: (Units=1/GPa)
#
#
# Indices 1 2 3 4 5 6 
#
# 1 0.007679 -0.002420 -0.003389 0.000000 0.000000 0.000000
# 2 -0.002420 0.011508 -0.003594 0.000000 0.000000 0.000000
# 3 -0.003389 -0.003594 0.025432 0.000000 0.000000 0.000000
# 4 0.000000 0.000000 0.000000 0.085149 0.000000 0.000000
# 5 0.000000 0.000000 0.000000 0.000000 0.068818 0.000000
# 6 0.000000 0.000000 0.000000 0.000000 0.000000 0.039066
#
#
# Mechanical properties :
#
#
# Convention : Reuss Voigt Hill
#
# Bulk Modulus (GPa) = 38.73897 52.87515 45.80706
# Shear Modulus (GPa) = 18.86348 24.71111 21.78730
#
# Velocity S-wave (km/s) = 3.11570 3.56608 3.34847
# Velocity P-wave (km/s) = 5.73406 6.64581 6.20670
#
# Compressibility (1/GPa) = 0.02581380
#
# Stress axis : x y z
#
# Youngs Moduli (GPa) = 130.21849 86.89713 39.32097
#
# Poissons Ratio (x) = 0.21028 0.13326
# Poissons Ratio (y) = 0.31511 0.14130
# Poissons Ratio (z) = 0.44133 0.31227
#
# Static dielectric constant tensor:
#      x y z
#    x 3.929770 0.000000 0.000000 
#    y 0.000000 3.418530 0.000000 
#    z 0.000000 0.000000 3.588180 
# 
# 
# High freq. dielectric constant tensor:
#      x y z
#    x 1.778030 0.000000 0.000000 
#    y 0.000000 1.750570 0.000000 
#    z 0.000000 0.000000 1.729790 
# 
# From -- ./inp_files/14704.got.cif
#   From: 2010.03.12/outbox.cif.g09.slc.cpg/sg74_8_cif.got.tgz:14704.got - 2010.04.16 15:46:19.
