data_PCOD8300786
_publ_section_title
;
Structure prediction by ZEFSAII (Michael W. Deem and Ramdas Pophale) SiO2 
 PCOD8300786
Probable space group: I M M A
;
_chemical_formula_sum "Si O2"
_cell_formula_units_Z 88
_cell_length_a 14.829448
_cell_length_b 13.991363
_cell_length_c 22.501458
_cell_angle_alpha 90.000000
_cell_angle_beta 90.000000
_cell_angle_gamma 90.000000
_cell_volume 4668.696788
_symmetry_space_group_name_H-M "I M M A"
_symmetry_group_IT_number 74
_symmetry_cell_setting 'orthorhombic'
loop_
_space_group_symop_operation_xyz
x,y,z
-x,1/2-y,z
x,-y,-z
-x,1/2+y,-z
-x,-y,-z
x,1/2+y,-z
-x,y,z
x,1/2-y,z
1/2+x,1/2+y,1/2+z
1/2-x,-y,1/2+z
1/2+x,1/2-y,1/2-z
1/2-x,y,1/2-z
1/2-x,1/2-y,1/2-z
1/2+x,y,1/2-z
1/2-x,1/2+y,1/2+z
1/2+x,-y,1/2+z
loop_
_atom_site_type_symbol
_atom_site_label
_atom_site_fract_x
_atom_site_fract_y
_atom_site_fract_z
Si Si1 0.500000 0.046589 0.386741
Si Si2 0.837469 0.363370 0.512348
Si Si3 0.181005 0.859014 0.699232
Si Si4 0.858415 0.142828 0.031282
Si Si5 0.000000 0.851880 0.069608
Si Si6 0.602645 0.027685 0.094003
Si Si7 0.000000 0.147574 0.231458
O O1 0.591665 0.080490 0.418762
O O2 0.500000 0.068839 0.318266
O O3 0.500000 0.932856 0.381518
O O4 0.845304 0.250000 0.526214
O O5 0.740471 0.393727 0.485342
O O6 0.905363 0.396955 0.460600
O O7 0.859348 0.424308 0.571886
O O8 0.207481 0.750000 0.679415
O O9 0.250000 0.896421 0.750000
O O10 0.174025 0.930060 0.642632
O O11 0.083420 0.861513 0.726163
O O12 0.855479 0.250000 0.056920
O O13 0.912295 0.137437 0.970490
O O14 0.000000 0.750000 0.102795
O O15 0.500000 0.015261 0.118718
O O16 0.000000 0.250000 0.198361
#
# Coordination Sequence:
#
# PCOD8300786 Si02
#       7
#     8  16  16  16   8  16   8
#     4  11  20  29  55  78 111 155 186 223 275 335
#     4  10  22  35  57  87 115 146 189 237 284 337
#     4  10  22  39  59  84 115 150 186 234 289 342
#     4   9  18  32  48  78 115 144 179 225 276 333
#     4   9  19  31  46  72 112 157 188 220 274 324
#     4  11  23  38  59  82 113 150 188 232 287 347
#     4  10  21  36  55  81 110 140 190 238 283 338
#
# _framework density 18.848942000000001
#
# number of rings (size 3 to 8) (size 9 to 14) (size 15 to 20)
#    0.000    2.000    0.909    4.091    7.636    2.182 
#    0.000    0.000    0.000    1.636    0.000    0.000 
#    0.000    0.000    0.000    0.000    0.000    0.000 
#
# Total GULP energy -545250.743904 kJ/mol
# GULP energy per Si atom -12392.062361 kJ/mol
# Density = 1.880604 g / cm^3
# Si number density = 18.848942 Si / 1000 Ang^3
#
#
#
# Elastic Constant Matrix: (Units=GPa)
#
#
# Indices 1 2 3 4 5 6 
#
# 1 86.1598 9.1389 12.5401 0.0000 0.0000 0.0000
# 2 9.1389 119.0932 52.7155 0.0000 0.0000 0.0000
# 3 12.5401 52.7155 83.8771 0.0000 0.0000 0.0000
# 4 0.0000 0.0000 0.0000 32.7969 0.0000 0.0000
# 5 0.0000 0.0000 0.0000 0.0000 9.2140 0.0000
# 6 0.0000 0.0000 0.0000 0.0000 0.0000 22.5439
#
#
#
# Elastic Compliance Matrix: (Units=1/GPa)
#
#
# Indices 1 2 3 4 5 6 
#
# 1 0.011867 -0.000174 -0.001665 0.000000 0.000000 0.000000
# 2 -0.000174 0.011636 -0.007287 0.000000 0.000000 0.000000
# 3 -0.001665 -0.007287 0.016751 0.000000 0.000000 0.000000
# 4 0.000000 0.000000 0.000000 0.030491 0.000000 0.000000
# 5 0.000000 0.000000 0.000000 0.000000 0.108530 0.000000
# 6 0.000000 0.000000 0.000000 0.000000 0.000000 0.044358
#
#
# Mechanical properties :
#
#
# Convention : Reuss Voigt Hill
#
# Bulk Modulus (GPa) = 45.44956 48.65769 47.05363
# Shear Modulus (GPa) = 20.06280 27.22667 23.64473
#
# Velocity S-wave (km/s) = 3.26605 3.80474 3.54564
# Velocity P-wave (km/s) = 6.19578 6.72101 6.46373
#
# Compressibility (1/GPa) = 0.02200241
#
# Stress axis : x y z
#
# Youngs Moduli (GPa) = 84.26659 85.94351 59.69863
#
# Poissons Ratio (x) = 0.01492 0.09940
# Poissons Ratio (y) = 0.01463 0.43501
# Poissons Ratio (z) = 0.14031 0.62625
#
# Static dielectric constant tensor:
#      x y z
#    x 3.520800 0.000000 0.000000 
#    y 0.000000 3.627890 0.000000 
#    z 0.000000 0.000000 3.165530 
# 
# 
# High freq. dielectric constant tensor:
#      x y z
#    x 1.748700 0.000000 0.000000 
#    y 0.000000 1.724680 0.000000 
#    z 0.000000 0.000000 1.698680 
# 
# From -- ./inp_files/59978.got.cif
#   From: 2010.03.12/outbox.cif.g09.slc.cpg/sg74_30_cif.got.tgz:59978.got - 2010.04.16 15:46:19.
