data_PCOD8300902
_publ_section_title
;
Structure prediction by ZEFSAII (Michael W. Deem and Ramdas Pophale) SiO2 
 PCOD8300902
Probable space group: I M M A
;
_chemical_formula_sum "Si O2"
_cell_formula_units_Z 72
_cell_length_a 21.969048
_cell_length_b 8.763378
_cell_length_c 17.698314
_cell_angle_alpha 90.000000
_cell_angle_beta 90.000000
_cell_angle_gamma 90.000000
_cell_volume 3407.333779
_symmetry_space_group_name_H-M "I M M A"
_symmetry_group_IT_number 74
_symmetry_cell_setting 'orthorhombic'
loop_
_space_group_symop_operation_xyz
x,y,z
-x,1/2-y,z
x,-y,-z
-x,1/2+y,-z
-x,-y,-z
x,1/2+y,-z
-x,y,z
x,1/2-y,z
1/2+x,1/2+y,1/2+z
1/2-x,-y,1/2+z
1/2+x,1/2-y,1/2-z
1/2-x,y,1/2-z
1/2-x,1/2-y,1/2-z
1/2+x,y,1/2-z
1/2-x,1/2+y,1/2+z
1/2+x,-y,1/2+z
loop_
_atom_site_type_symbol
_atom_site_label
_atom_site_fract_x
_atom_site_fract_y
_atom_site_fract_z
Si Si1 0.000000 0.429688 0.582652
Si Si2 0.870812 0.070272 0.645304
Si Si3 0.571635 0.922764 0.577036
Si Si4 0.242592 0.070056 0.422141
Si Si5 0.339893 0.929004 0.314887
O O1 0.000000 0.500000 0.500000
O O2 0.940197 0.482459 0.629305
O O3 0.000000 0.250000 0.572691
O O4 0.863614 0.250000 0.632826
O O5 0.849428 0.021528 0.728632
O O6 0.826982 0.983592 0.587094
O O7 0.500000 0.925424 0.585692
O O8 0.597043 0.750000 0.579304
O O9 0.593403 0.000000 0.500000
O O10 0.598147 0.022564 0.644397
O O11 0.246037 0.250000 0.427481
O O12 0.268916 0.000000 0.500000
O O13 0.282277 0.013889 0.351011
O O14 0.328627 0.750000 0.322377
#
# Coordination Sequence:
#
# PCOD8300902 Si02
#       5
#     8  16  16  16  16
#     4  10  22  42  66  94 125 162 205 252 303 362
#     4  10  23  42  65  93 127 163 207 256 311 370
#     4  10  21  37  57  84 120 162 209 259 308 367
#     4  12  25  42  65  91 125 164 209 258 312 373
#     4  11  23  39  63  91 125 163 205 255 311 373
#
# _framework density 21.130890999999998
#
# number of rings (size 3 to 8) (size 9 to 14) (size 15 to 20)
#    0.000    1.333    0.000    5.333    1.556    8.444 
#    0.000    0.000    0.000    0.000    0.000    0.000 
#    0.000    0.000    0.000    0.000    0.000    0.000 
#
# Total GULP energy -446557.856601 kJ/mol
# GULP energy per Si atom -12404.384906 kJ/mol
# Density = 2.108280 g / cm^3
# Si number density = 21.130891 Si / 1000 Ang^3
#
#
#
# Elastic Constant Matrix: (Units=GPa)
#
#
# Indices 1 2 3 4 5 6 
#
# 1 123.5557 47.1154 59.2332 0.0000 0.0000 0.0000
# 2 47.1154 85.6167 52.4594 0.0000 0.0000 0.0000
# 3 59.2332 52.4594 123.0180 0.0000 0.0000 0.0000
# 4 0.0000 0.0000 0.0000 35.0693 0.0000 0.0000
# 5 0.0000 0.0000 0.0000 0.0000 50.8908 0.0000
# 6 0.0000 0.0000 0.0000 0.0000 0.0000 35.4087
#
#
#
# Elastic Compliance Matrix: (Units=1/GPa)
#
#
# Indices 1 2 3 4 5 6 
#
# 1 0.011431 -0.003950 -0.003819 0.000000 0.000000 0.000000
# 2 -0.003950 0.017176 -0.005423 0.000000 0.000000 0.000000
# 3 -0.003819 -0.005423 0.012280 0.000000 0.000000 0.000000
# 4 0.000000 0.000000 0.000000 0.028515 0.000000 0.000000
# 5 0.000000 0.000000 0.000000 0.000000 0.019650 0.000000
# 6 0.000000 0.000000 0.000000 0.000000 0.000000 0.028242
#
#
# Mechanical properties :
#
#
# Convention : Reuss Voigt Hill
#
# Bulk Modulus (GPa) = 68.95102 72.20073 70.57588
# Shear Modulus (GPa) = 33.66706 35.83258 34.74982
#
# Velocity S-wave (km/s) = 3.99590 4.12241 4.05965
# Velocity P-wave (km/s) = 7.34785 7.54331 7.44622
#
# Compressibility (1/GPa) = 0.01450305
#
# Stress axis : x y z
#
# Youngs Moduli (GPa) = 87.48203 58.21960 81.43087
#
# Poissons Ratio (x) = 0.22998 0.31102
# Poissons Ratio (y) = 0.34557 0.44157
# Poissons Ratio (z) = 0.33413 0.31570
#
# Static dielectric constant tensor:
#      x y z
#    x 3.976850 0.000000 0.000000 
#    y 0.000000 3.840060 0.000000 
#    z 0.000000 0.000000 3.103340 
# 
# 
# High freq. dielectric constant tensor:
#      x y z
#    x 1.844100 0.000000 0.000000 
#    y 0.000000 1.828200 0.000000 
#    z 0.000000 0.000000 1.834870 
# 
# From -- ./inp_files/45818.got.cif
#   From: 2010.03.12/outbox.cif.g09.slc.cpg/sg74_23_cif.got.tgz:45818.got - 2010.04.16 15:46:19.
