data_PCOD8300384
_publ_section_title
;
Structure prediction by ZEFSAII (Michael W. Deem and Ramdas Pophale) SiO2 
 PCOD8300384
Probable space group: I M M A
;
_chemical_formula_sum "Si O2"
_cell_formula_units_Z 88
_cell_length_a 20.828649
_cell_length_b 26.665840
_cell_length_c 8.650351
_cell_angle_alpha 90.000000
_cell_angle_beta 90.000000
_cell_angle_gamma 90.000000
_cell_volume 4804.521047
_symmetry_space_group_name_H-M "I M M A"
_symmetry_group_IT_number 74
_symmetry_cell_setting 'orthorhombic'
loop_
_space_group_symop_operation_xyz
x,y,z
-x,1/2-y,z
x,-y,-z
-x,1/2+y,-z
-x,-y,-z
x,1/2+y,-z
-x,y,z
x,1/2-y,z
1/2+x,1/2+y,1/2+z
1/2-x,-y,1/2+z
1/2+x,1/2-y,1/2-z
1/2-x,y,1/2-z
1/2-x,1/2-y,1/2-z
1/2+x,y,1/2-z
1/2-x,1/2+y,1/2+z
1/2+x,-y,1/2+z
loop_
_atom_site_type_symbol
_atom_site_label
_atom_site_fract_x
_atom_site_fract_y
_atom_site_fract_z
Si Si1 0.000000 0.307554 0.381817
Si Si2 0.380119 0.154148 0.934207
Si Si3 0.000000 0.046148 0.883907
Si Si4 0.500000 0.347755 0.443630
Si Si5 0.623443 0.808206 0.402246
Si Si6 0.750648 0.190573 0.076821
Si Si7 0.571079 0.951280 0.083544
O O1 0.063523 0.315479 0.482934
O O2 0.000000 0.250000 0.322331
O O3 0.000000 0.347623 0.242343
O O4 0.388120 0.161407 0.752752
O O5 0.384091 0.094796 0.964224
O O6 0.311432 0.172797 0.986597
O O7 0.000000 0.096575 0.985821
O O8 0.063000 0.043361 0.771173
O O9 0.000000 0.000000 0.000000
O O10 0.437579 0.316552 0.490446
O O11 0.632155 0.750000 0.362413
O O12 0.686358 0.829420 0.489097
O O13 0.751574 0.250000 0.082505
O O14 0.750000 0.168362 0.250000
O O15 0.500000 0.941408 0.011628
O O16 0.601427 0.000000 0.000000
#
# Coordination Sequence:
#
# PCOD8300384 Si02
#       7
#     8  16   8   8  16  16  16
#     4  12  24  33  51  87 124 159 191 238 293 346
#     4  12  21  38  59  84 116 153 203 242 290 353
#     4  10  20  36  60  85 117 151 190 243 300 357
#     4  12  23  37  56  89 123 152 190 249 299 342
#     4  11  21  37  59  85 119 158 195 238 289 353
#     4  10  22  39  57  83 119 160 199 234 287 360
#     4   9  19  38  58  85 113 145 192 249 298 345
#
# _framework density 18.316081000000001
#
# number of rings (size 3 to 8) (size 9 to 14) (size 15 to 20)
#    0.545    0.727    2.727    4.636    2.545    2.909 
#    0.000    0.000    0.000    3.273    0.000    0.000 
#    0.000    0.000    0.000    0.000    0.000    0.000 
#
# Total GULP energy -545572.916357 kJ/mol
# GULP energy per Si atom -12399.384463 kJ/mol
# Density = 1.827439 g / cm^3
# Si number density = 18.316081 Si / 1000 Ang^3
#
#
#
# Elastic Constant Matrix: (Units=GPa)
#
#
# Indices 1 2 3 4 5 6 
#
# 1 119.8451 7.8712 38.0437 0.0000 0.0000 0.0000
# 2 7.8712 66.5721 30.4835 0.0000 0.0000 0.0000
# 3 38.0437 30.4835 112.5960 0.0000 0.0000 0.0000
# 4 0.0000 0.0000 0.0000 33.1034 0.0000 0.0000
# 5 0.0000 0.0000 0.0000 0.0000 28.1223 0.0000
# 6 0.0000 0.0000 0.0000 0.0000 0.0000 6.4523
#
#
#
# Elastic Compliance Matrix: (Units=1/GPa)
#
#
# Indices 1 2 3 4 5 6 
#
# 1 0.009355 0.000390 -0.003266 0.000000 0.000000 0.000000
# 2 0.000390 0.017163 -0.004778 0.000000 0.000000 0.000000
# 3 -0.003266 -0.004778 0.011279 0.000000 0.000000 0.000000
# 4 0.000000 0.000000 0.000000 0.030208 0.000000 0.000000
# 5 0.000000 0.000000 0.000000 0.000000 0.035559 0.000000
# 6 0.000000 0.000000 0.000000 0.000000 0.000000 0.154983
#
#
# Mechanical properties :
#
#
# Convention : Reuss Voigt Hill
#
# Bulk Modulus (GPa) = 44.47027 50.20110 47.33569
# Shear Modulus (GPa) = 17.77124 28.37659 23.07392
#
# Velocity S-wave (km/s) = 3.11827 3.94035 3.55316
# Velocity P-wave (km/s) = 6.10712 6.94043 6.53706
#
# Compressibility (1/GPa) = 0.02248693
#
# Stress axis : x y z
#
# Youngs Moduli (GPa) = 106.88984 58.26403 88.66335
#
# Poissons Ratio (x) = -0.02270 0.28962
# Poissons Ratio (y) = -0.04164 0.42366
# Poissons Ratio (z) = 0.34915 0.27840
#
# Static dielectric constant tensor:
#      x y z
#    x 3.269840 0.000000 0.000000 
#    y 0.000000 3.270260 0.000000 
#    z 0.000000 0.000000 3.581060 
# 
# 
# High freq. dielectric constant tensor:
#      x y z
#    x 1.696190 0.000000 0.000000 
#    y 0.000000 1.698680 0.000000 
#    z 0.000000 0.000000 1.723250 
# 
# From -- ./inp_files/12488.got.cif
#   From: 2010.03.12/outbox.cif.g09.slc.cpg/sg74_7_cif.got.tgz:12488.got - 2010.04.16 15:46:19.
