data_PCOD8300641
_publ_section_title
;
Structure prediction by ZEFSAII (Michael W. Deem and Ramdas Pophale) SiO2 
 PCOD8300641
Probable space group: I M M A
;
_chemical_formula_sum "Si O2"
_cell_formula_units_Z 88
_cell_length_a 22.018623
_cell_length_b 8.660529
_cell_length_c 22.860950
_cell_angle_alpha 90.000000
_cell_angle_beta 90.000000
_cell_angle_gamma 90.000000
_cell_volume 4359.421379
_symmetry_space_group_name_H-M "I M M A"
_symmetry_group_IT_number 74
_symmetry_cell_setting 'orthorhombic'
loop_
_space_group_symop_operation_xyz
x,y,z
-x,1/2-y,z
x,-y,-z
-x,1/2+y,-z
-x,-y,-z
x,1/2+y,-z
-x,y,z
x,1/2-y,z
1/2+x,1/2+y,1/2+z
1/2-x,-y,1/2+z
1/2+x,1/2-y,1/2-z
1/2-x,y,1/2-z
1/2-x,1/2-y,1/2-z
1/2+x,y,1/2-z
1/2-x,1/2+y,1/2+z
1/2+x,-y,1/2+z
loop_
_atom_site_type_symbol
_atom_site_label
_atom_site_fract_x
_atom_site_fract_y
_atom_site_fract_z
Si Si1 0.381691 0.571681 0.621523
Si Si2 0.931820 0.575365 0.562729
Si Si3 0.682302 0.432221 0.260969
Si Si4 0.000000 0.931319 0.065091
Si Si5 0.759199 0.427591 0.061608
Si Si6 0.337252 0.929692 0.143826
O O1 0.400304 0.750000 0.629499
O O2 0.352955 0.503477 0.681828
O O3 0.440913 0.478929 0.602061
O O4 0.331130 0.552938 0.570990
O O5 0.929546 0.500000 0.500000
O O6 0.905155 0.750000 0.561237
O O7 0.893459 0.462181 0.602468
O O8 0.000000 0.578550 0.587155
O O9 0.686966 0.250000 0.268401
O O10 0.750000 0.502111 0.250000
O O11 0.645587 0.481860 0.203606
O O12 0.000000 0.750000 0.057311
O O13 0.000000 0.000000 0.000000
O O14 0.739682 0.250000 0.061358
O O15 0.724869 0.508440 0.115182
O O16 0.739487 0.500000 0.000000
O O17 0.330098 0.750000 0.156274
#
# Coordination Sequence:
#
# PCOD8300641 Si02
#       6
#    16  16  16   8  16  16
#     4  10  22  42  68  93 123 163 209 259 315 375
#     4  10  21  39  62  86 116 156 200 248 302 359
#     4  10  20  41  67  91 120 159 202 248 305 367
#     4  12  26  44  68  96 132 170 215 266 321 384
#     4  11  22  38  60  90 123 158 201 253 308 368
#     4  12  24  37  58  89 124 161 200 249 302 364
#
# _framework density 20.186166
#
# number of rings (size 3 to 8) (size 9 to 14) (size 15 to 20)
#    0.000    1.273    1.818    4.636    0.000    5.091 
#    1.636    0.000    0.000    0.000    0.000    0.000 
#    0.000    0.000    0.000    0.000    0.000    0.000 
#
# Total GULP energy -545643.521413 kJ/mol
# GULP energy per Si atom -12400.989123 kJ/mol
# Density = 2.014022 g / cm^3
# Si number density = 20.186166 Si / 1000 Ang^3
#
#
#
# Elastic Constant Matrix: (Units=GPa)
#
#
# Indices 1 2 3 4 5 6 
#
# 1 112.6942 34.3241 49.0247 0.0000 0.0000 0.0000
# 2 34.3241 63.9225 25.8103 0.0000 0.0000 0.0000
# 3 49.0247 25.8103 112.0711 0.0000 0.0000 0.0000
# 4 0.0000 0.0000 0.0000 24.0805 0.0000 0.0000
# 5 0.0000 0.0000 0.0000 0.0000 4.9671 0.0000
# 6 0.0000 0.0000 0.0000 0.0000 0.0000 29.6738
#
#
#
# Elastic Compliance Matrix: (Units=1/GPa)
#
#
# Indices 1 2 3 4 5 6 
#
# 1 0.012181 -0.004839 -0.004214 0.000000 0.000000 0.000000
# 2 -0.004839 0.019170 -0.002298 0.000000 0.000000 0.000000
# 3 -0.004214 -0.002298 0.011295 0.000000 0.000000 0.000000
# 4 0.000000 0.000000 0.000000 0.041527 0.000000 0.000000
# 5 0.000000 0.000000 0.000000 0.000000 0.201326 0.000000
# 6 0.000000 0.000000 0.000000 0.000000 0.000000 0.033700
#
#
# Mechanical properties :
#
#
# Convention : Reuss Voigt Hill
#
# Bulk Modulus (GPa) = 50.13989 56.33398 53.23693
# Shear Modulus (GPa) = 14.34515 23.71285 19.02900
#
# Velocity S-wave (km/s) = 2.66868 3.43112 3.07363
# Velocity P-wave (km/s) = 5.86417 6.60792 6.24712
#
# Compressibility (1/GPa) = 0.01994420
#
# Stress axis : x y z
#
# Youngs Moduli (GPa) = 82.09797 52.16405 88.53088
#
# Poissons Ratio (x) = 0.25243 0.37306
# Poissons Ratio (y) = 0.39728 0.20346
# Poissons Ratio (z) = 0.34595 0.11988
#
# Static dielectric constant tensor:
#      x y z
#    x 3.723770 0.000000 0.000000 
#    y 0.000000 3.589950 0.000000 
#    z 0.000000 0.000000 3.572440 
# 
# 
# High freq. dielectric constant tensor:
#      x y z
#    x 1.787430 0.000000 0.000000 
#    y 0.000000 1.785630 0.000000 
#    z 0.000000 0.000000 1.796170 
# 
# From -- ./inp_files/61409.got.cif
#   From: 2010.03.12/outbox.cif.g09.slc.cpg/sg74_31_cif.got.tgz:61409.got - 2010.04.16 15:46:19.
