data_PCOD8300688
_publ_section_title
;
Structure prediction by ZEFSAII (Michael W. Deem and Ramdas Pophale) SiO2 
 PCOD8300688
Probable space group: I M M A
;
_chemical_formula_sum "Si O2"
_cell_formula_units_Z 128
_cell_length_a 18.250394
_cell_length_b 18.560561
_cell_length_c 21.480054
_cell_angle_alpha 90.000000
_cell_angle_beta 90.000000
_cell_angle_gamma 90.000000
_cell_volume 7276.100890
_symmetry_space_group_name_H-M "I M M A"
_symmetry_group_IT_number 74
_symmetry_cell_setting 'orthorhombic'
loop_
_space_group_symop_operation_xyz
x,y,z
-x,1/2-y,z
x,-y,-z
-x,1/2+y,-z
-x,-y,-z
x,1/2+y,-z
-x,y,z
x,1/2-y,z
1/2+x,1/2+y,1/2+z
1/2-x,-y,1/2+z
1/2+x,1/2-y,1/2-z
1/2-x,y,1/2-z
1/2-x,1/2-y,1/2-z
1/2+x,y,1/2-z
1/2-x,1/2+y,1/2+z
1/2+x,-y,1/2+z
loop_
_atom_site_type_symbol
_atom_site_label
_atom_site_fract_x
_atom_site_fract_y
_atom_site_fract_z
Si Si1 0.087480 0.332158 0.120313
Si Si2 0.912866 0.581371 0.998878
Si Si3 0.086091 0.044062 0.689619
Si Si4 0.913151 0.899776 0.752559
Si Si5 0.084128 0.333444 0.880381
Si Si6 0.335787 0.667649 0.254486
Si Si7 0.586978 0.030419 0.063796
Si Si8 0.587389 0.170805 0.127339
O O1 0.116149 0.250000 0.117595
O O2 0.119322 0.371121 0.182209
O O3 0.000000 0.333019 0.120801
O O4 0.118305 0.375987 0.060996
O O5 0.886539 0.621046 0.061316
O O6 0.000000 0.581264 0.995649
O O7 0.882070 0.500000 0.000000
O O8 0.126063 0.118649 0.703015
O O9 0.000000 0.057376 0.692693
O O10 0.109671 0.982731 0.739702
O O11 0.110778 0.020334 0.620742
O O12 0.883629 0.850133 0.696140
O O13 0.000000 0.894349 0.754550
O O14 0.090961 0.250000 0.898448
O O15 0.135020 0.354176 0.822475
O O16 0.000000 0.353121 0.863733
O O17 0.356780 0.750000 0.239529
O O18 0.250000 0.654603 0.250000
O O19 0.500000 0.031536 0.058507
O O20 0.615255 0.112062 0.076875
O O21 0.622228 0.000000 0.000000
O O22 0.500000 0.170198 0.128742
O O23 0.617480 0.250000 0.109247
#
# Coordination Sequence:
#
# PCOD8300688 Si02
#       8
#    16  16  16  16  16  16  16  16
#     4   9  15  22  33  53  87 125 154 184 222 259
#     4   9  17  25  36  59  91 127 160 190 221 260
#     4   9  17  29  48  71  93 119 150 186 230 280
#     4   8  14  22  36  60  87 115 145 181 223 261
#     4   9  17  30  48  67  90 124 160 191 229 278
#     4  10  21  35  50  68  90 118 154 197 242 280
#     4   8  14  25  40  62  93 123 147 179 228 280
#     4   8  12  19  32  52  82 118 150 176 212 268
#
# _framework density 17.591840000000001
#
# number of rings (size 3 to 8) (size 9 to 14) (size 15 to 20)
#    0.000    3.250    0.000    2.625    1.750    3.750 
#    0.000    0.625    0.000    3.000    0.000    0.000 
#    0.000   12.500    0.000    0.000    0.000    0.000 
#
# Total GULP energy -793262.287580 kJ/mol
# GULP energy per Si atom -12394.723243 kJ/mol
# Density = 1.755180 g / cm^3
# Si number density = 17.591840 Si / 1000 Ang^3
#
#
#
# Elastic Constant Matrix: (Units=GPa)
#
#
# Indices 1 2 3 4 5 6 
#
# 1 21.7471 28.1191 28.8526 0.0000 0.0000 0.0000
# 2 28.1191 146.6184 94.4314 0.0000 0.0000 0.0000
# 3 28.8526 94.4314 151.8051 0.0000 0.0000 0.0000
# 4 0.0000 0.0000 0.0000 29.6937 0.0000 0.0000
# 5 0.0000 0.0000 0.0000 0.0000 1.7775 0.0000
# 6 0.0000 0.0000 0.0000 0.0000 0.0000 4.7168
#
#
#
# Elastic Compliance Matrix: (Units=1/GPa)
#
#
# Indices 1 2 3 4 5 6 
#
# 1 0.066286 -0.007672 -0.007826 0.000000 0.000000 0.000000
# 2 -0.007672 0.012268 -0.006173 0.000000 0.000000 0.000000
# 3 -0.007826 -0.006173 0.011915 0.000000 0.000000 0.000000
# 4 0.000000 0.000000 0.000000 0.033677 0.000000 0.000000
# 5 0.000000 0.000000 0.000000 0.000000 0.562579 0.000000
# 6 0.000000 0.000000 0.000000 0.000000 0.000000 0.212010
#
#
# Mechanical properties :
#
#
# Convention : Reuss Voigt Hill
#
# Bulk Modulus (GPa) = 21.21959 69.21966 45.21963
# Shear Modulus (GPa) = 5.22037 18.48876 11.85457
#
# Velocity S-wave (km/s) = 1.72451 3.24541 2.59871
# Velocity P-wave (km/s) = 4.00670 7.31277 5.89619
#
# Compressibility (1/GPa) = 0.04712626
#
# Stress axis : x y z
#
# Youngs Moduli (GPa) = 15.08608 81.51564 83.92940
#
# Poissons Ratio (x) = 0.62540 0.65684
# Poissons Ratio (y) = 0.11574 0.51809
# Poissons Ratio (z) = 0.11807 0.50319
#
# Static dielectric constant tensor:
#      x y z
#    x 2.566980 0.000000 0.000000 
#    y 0.000000 3.533700 0.000000 
#    z 0.000000 0.000000 3.494340 
# 
# 
# High freq. dielectric constant tensor:
#      x y z
#    x 1.601020 0.000000 0.000000 
#    y 0.000000 1.693410 0.000000 
#    z 0.000000 0.000000 1.683160 
# 
# From -- ./inp_files/61137.got.cif
#   From: 2010.03.12/outbox.cif.g09.slc.cpg/sg74_31_cif.got.tgz:61137.got - 2010.04.16 15:46:19.
