data_PCOD8300676
_publ_section_title
;
Structure prediction by ZEFSAII (Michael W. Deem and Ramdas Pophale) SiO2 
 PCOD8300676
Probable space group: I M M A
;
_chemical_formula_sum "Si O2"
_cell_formula_units_Z 72
_cell_length_a 9.505986
_cell_length_b 15.277443
_cell_length_c 23.816210
_cell_angle_alpha 90.000000
_cell_angle_beta 90.000000
_cell_angle_gamma 90.000000
_cell_volume 3458.760523
_symmetry_space_group_name_H-M "I M M A"
_symmetry_group_IT_number 74
_symmetry_cell_setting 'orthorhombic'
loop_
_space_group_symop_operation_xyz
x,y,z
-x,1/2-y,z
x,-y,-z
-x,1/2+y,-z
-x,-y,-z
x,1/2+y,-z
-x,y,z
x,1/2-y,z
1/2+x,1/2+y,1/2+z
1/2-x,-y,1/2+z
1/2+x,1/2-y,1/2-z
1/2-x,y,1/2-z
1/2-x,1/2-y,1/2-z
1/2+x,y,1/2-z
1/2-x,1/2+y,1/2+z
1/2+x,-y,1/2+z
loop_
_atom_site_type_symbol
_atom_site_label
_atom_site_fract_x
_atom_site_fract_y
_atom_site_fract_z
Si Si1 0.838353 0.848077 0.806565
Si Si2 0.662714 0.083627 0.962620
Si Si3 0.330781 0.750000 0.452223
Si Si4 0.152396 0.750000 0.170299
Si Si5 0.750000 0.896955 0.250000
Si Si6 0.844269 0.507209 0.651269
O O1 0.829162 0.750000 0.831317
O O2 0.750000 0.855307 0.750000
O O3 0.770021 0.914832 0.850953
O O4 0.000000 0.874245 0.794562
O O5 0.500000 0.110686 0.971672
O O6 0.764704 0.163289 0.980933
O O7 0.693543 0.060707 0.897630
O O8 0.702044 0.000000 0.000000
O O9 0.500000 0.750000 0.460069
O O10 0.262777 0.750000 0.388274
O O11 0.162984 0.664052 0.208275
O O12 0.000000 0.750000 0.143619
O O13 0.847327 0.958087 0.288577
O O14 0.000000 0.546783 0.641175
#
# Coordination Sequence:
#
# PCOD8300676 Si02
#       6
#    16  16   8   8   8  16
#     4  10  21  36  55  81 116 158 197 244 296 355
#     4  10  23  45  67  89 121 163 213 261 309 363
#     4  11  22  40  66  96 128 163 205 255 313 373
#     4  10  21  34  52  87 130 164 189 230 295 367
#     4  11  20  34  55  88 126 162 193 242 288 375
#     4  11  22  36  60  90 119 159 203 251 302 363
#
# _framework density 20.816707000000001
#
# number of rings (size 3 to 8) (size 9 to 14) (size 15 to 20)
#    0.000    1.556    3.333    1.667    0.000    3.556 
#    2.000    0.000    0.000    0.000    0.000    0.000 
#    0.000    0.000    0.000    0.000    0.000    0.000 
#
# Total GULP energy -446197.757359 kJ/mol
# GULP energy per Si atom -12394.382149 kJ/mol
# Density = 2.076933 g / cm^3
# Si number density = 20.816707 Si / 1000 Ang^3
#
#
#
# Elastic Constant Matrix: (Units=GPa)
#
#
# Indices 1 2 3 4 5 6 
#
# 1 141.2043 80.2915 19.4818 0.0000 0.0000 0.0000
# 2 80.2915 148.5946 27.0354 0.0000 0.0000 0.0000
# 3 19.4818 27.0354 56.3165 0.0000 0.0000 0.0000
# 4 0.0000 0.0000 0.0000 35.7789 0.0000 0.0000
# 5 0.0000 0.0000 0.0000 0.0000 23.3126 0.0000
# 6 0.0000 0.0000 0.0000 0.0000 0.0000 -48.2583
#
#
#
# Elastic Compliance Matrix: (Units=1/GPa)
#
#
# Indices 1 2 3 4 5 6 
#
# 1 0.010271 -0.005373 -0.000974 0.000000 0.000000 0.000000
# 2 -0.005373 0.010184 -0.003030 0.000000 0.000000 0.000000
# 3 -0.000974 -0.003030 0.019548 0.000000 0.000000 0.000000
# 4 0.000000 0.000000 0.000000 0.027949 0.000000 0.000000
# 5 0.000000 0.000000 0.000000 0.000000 0.042895 0.000000
# 6 0.000000 0.000000 0.000000 0.000000 0.000000 -0.020722
#
#
# Mechanical properties :
#
#
# Convention : Reuss Voigt Hill
#
# Bulk Modulus (GPa) = 47.05938 66.63698 56.84818
# Shear Modulus (GPa) = 43.11655 16.78706 29.95180
#
# Velocity S-wave (km/s) = 4.55603 2.84284 3.79731
# Velocity P-wave (km/s) = 7.09452 6.54648 6.82600
#
# Compressibility (1/GPa) = 0.02124975
#
# Stress axis : x y z
#
# Youngs Moduli (GPa) = 97.35758 98.19097 51.15485
#
# Poissons Ratio (x) = 0.52757 0.04982
# Poissons Ratio (y) = 0.52309 0.15502
# Poissons Ratio (z) = 0.09482 0.29756
#
# Static dielectric constant tensor:
#      x y z
#    x 3.649510 0.000000 0.000000 
#    y 0.000000 3.942490 0.000000 
#    z 0.000000 0.000000 3.536450 
# 
# 
# High freq. dielectric constant tensor:
#      x y z
#    x 1.808520 0.000000 0.000000 
#    y 0.000000 1.824230 0.000000 
#    z 0.000000 0.000000 1.793480 
# 
# From -- ./inp_files/63699.got.cif
#   From: 2010.03.12/outbox.cif.g09.slc.cpg/sg74_32_cif.got.tgz:63699.got - 2010.04.16 15:46:19.
