data_PCOD8300388
_publ_section_title
;
Structure prediction by ZEFSAII (Michael W. Deem and Ramdas Pophale) SiO2 
 PCOD8300388
Probable space group: I M M A
;
_chemical_formula_sum "Si O2"
_cell_formula_units_Z 96
_cell_length_a 8.837191
_cell_length_b 27.007856
_cell_length_c 20.581463
_cell_angle_alpha 90.000000
_cell_angle_beta 90.000000
_cell_angle_gamma 90.000000
_cell_volume 4912.251496
_symmetry_space_group_name_H-M "I M M A"
_symmetry_group_IT_number 74
_symmetry_cell_setting 'orthorhombic'
loop_
_space_group_symop_operation_xyz
x,y,z
-x,1/2-y,z
x,-y,-z
-x,1/2+y,-z
-x,-y,-z
x,1/2+y,-z
-x,y,z
x,1/2-y,z
1/2+x,1/2+y,1/2+z
1/2-x,-y,1/2+z
1/2+x,1/2-y,1/2-z
1/2-x,y,1/2-z
1/2-x,1/2-y,1/2-z
1/2+x,y,1/2-z
1/2-x,1/2+y,1/2+z
1/2+x,-y,1/2+z
loop_
_atom_site_type_symbol
_atom_site_label
_atom_site_fract_x
_atom_site_fract_y
_atom_site_fract_z
Si Si1 0.678533 0.653207 0.317805
Si Si2 0.322306 0.460556 0.683323
Si Si3 0.174610 0.693106 0.443999
Si Si4 0.173792 0.691499 0.683622
Si Si5 0.320524 0.637882 0.562865
Si Si6 0.819994 0.974799 0.935164
O O1 0.500000 0.661612 0.315315
O O2 0.750000 0.670940 0.250000
O O3 0.721348 0.596127 0.331531
O O4 0.749303 0.686352 0.374122
O O5 0.500000 0.466886 0.689877
O O6 0.250000 0.479342 0.750000
O O7 0.255922 0.494679 0.626066
O O8 0.191469 0.750000 0.465467
O O9 0.258362 0.659272 0.495988
O O10 0.000000 0.677329 0.440362
O O11 0.189850 0.750000 0.677166
O O12 0.250000 0.672453 0.750000
O O13 0.259340 0.668048 0.623473
O O14 0.000000 0.674642 0.683341
O O15 0.500000 0.641704 0.561331
O O16 0.264163 0.581531 0.569274
O O17 0.000000 0.977492 0.936076
O O18 0.753731 0.000000 0.000000
#
# Coordination Sequence:
#
# PCOD8300388 Si02
#       6
#    16  16  16  16  16  16
#     4  10  20  36  60  86 112 145 183 225 273 325
#     4   9  18  34  56  81 110 143 178 218 266 321
#     4  11  24  40  57  79 110 147 186 230 277 326
#     4  10  21  38  59  82 111 147 185 227 275 327
#     4  11  22  36  58  85 112 145 184 228 277 328
#     4   9  18  34  55  79 108 142 181 223 268 320
#
# _framework density 19.542974000000001
#
# number of rings (size 3 to 8) (size 9 to 14) (size 15 to 20)
#    0.000    2.000    0.000    3.500    0.000    8.667 
#    0.000    3.333    0.000    3.500    0.000    0.000 
#    0.000    0.000    0.000    0.000    0.000    0.000 
#
# Total GULP energy -595397.246853 kJ/mol
# GULP energy per Si atom -12404.109309 kJ/mol
# Density = 1.949849 g / cm^3
# Si number density = 19.542974 Si / 1000 Ang^3
#
#
#
# Elastic Constant Matrix: (Units=GPa)
#
#
# Indices 1 2 3 4 5 6 
#
# 1 82.2354 27.7427 38.4852 -0.0001 0.0000 -0.0001
# 2 27.7427 46.4112 25.3194 -0.0001 0.0000 0.0002
# 3 38.4852 25.3194 130.1411 -0.0010 0.0001 -0.0011
# 4 -0.0001 -0.0001 -0.0010 42.7725 0.0000 -0.0005
# 5 0.0000 0.0000 0.0001 0.0000 40.3508 -0.0001
# 6 -0.0001 0.0002 -0.0011 -0.0005 -0.0001 -44.7782
#
#
#
# Elastic Compliance Matrix: (Units=1/GPa)
#
#
# Indices 1 2 3 4 5 6 
#
# 1 0.016403 -0.008009 -0.003293 0.000000 0.000000 0.000000
# 2 -0.008009 0.028015 -0.003082 0.000000 0.000000 0.000000
# 3 -0.003293 -0.003082 0.009257 0.000000 0.000000 0.000000
# 4 0.000000 0.000000 0.000000 0.023379 0.000000 0.000000
# 5 0.000000 0.000000 0.000000 0.000000 0.024783 0.000000
# 6 0.000000 0.000000 0.000000 0.000000 0.000000 -0.022332
#
#
# Mechanical properties :
#
#
# Convention : Reuss Voigt Hill
#
# Bulk Modulus (GPa) = 40.14677 49.09805 44.62241
# Shear Modulus (GPa) = 42.89086 18.81837 30.85461
#
# Velocity S-wave (km/s) = 4.68984 3.10647 3.97773
# Velocity P-wave (km/s) = 7.06495 6.16802 6.63167
#
# Compressibility (1/GPa) = 0.02490860
#
# Stress axis : x y z
#
# Youngs Moduli (GPa) = 60.96489 35.69484 108.02323
#
# Poissons Ratio (x) = 0.28587 0.35567
# Poissons Ratio (y) = 0.48825 0.33294
# Poissons Ratio (z) = 0.20073 0.11002
#
# Static dielectric constant tensor:
#      x y z
#    x 3.506640 0.000000 0.000000 
#    y 0.000000 3.612320 0.000000 
#    z 0.000000 0.000000 3.738660 
# 
# 
# High freq. dielectric constant tensor:
#      x y z
#    x 1.753810 0.000000 0.000000 
#    y 0.000000 1.760480 0.000000 
#    z 0.000000 0.000000 1.778690 
# 
# From -- ./inp_files/49038.got.cif
#   From: 2010.03.12/outbox.cif.g09.slc.cpg/sg74_25_cif.got.tgz:49038.got - 2010.04.16 15:46:19.
