data_PCOD8300693
_publ_section_title
;
Structure prediction by ZEFSAII (Michael W. Deem and Ramdas Pophale) SiO2 
 PCOD8300693
Probable space group: I M M A
;
_chemical_formula_sum "Si O2"
_cell_formula_units_Z 64
_cell_length_a 40.326679
_cell_length_b 9.595442
_cell_length_c 9.458083
_cell_angle_alpha 90.000000
_cell_angle_beta 90.000000
_cell_angle_gamma 90.000000
_cell_volume 3659.827059
_symmetry_space_group_name_H-M "I M M A"
_symmetry_group_IT_number 74
_symmetry_cell_setting 'orthorhombic'
loop_
_space_group_symop_operation_xyz
x,y,z
-x,1/2-y,z
x,-y,-z
-x,1/2+y,-z
-x,-y,-z
x,1/2+y,-z
-x,y,z
x,1/2-y,z
1/2+x,1/2+y,1/2+z
1/2-x,-y,1/2+z
1/2+x,1/2-y,1/2-z
1/2-x,y,1/2-z
1/2-x,1/2-y,1/2-z
1/2+x,y,1/2-z
1/2-x,1/2+y,1/2+z
1/2+x,-y,1/2+z
loop_
_atom_site_type_symbol
_atom_site_label
_atom_site_fract_x
_atom_site_fract_y
_atom_site_fract_z
Si Si1 0.410570 0.588967 0.133633
Si Si2 0.537091 0.909807 0.363252
Si Si3 0.779588 0.087232 0.856066
Si Si4 0.665161 0.588914 0.136811
O O1 0.415836 0.750000 0.095989
O O2 0.435445 0.538527 0.254067
O O3 0.372793 0.558563 0.179629
O O4 0.420760 0.500000 0.000000
O O5 0.500000 0.931639 0.300885
O O6 0.542981 0.750000 0.404984
O O7 0.542690 0.000000 0.500000
O O8 0.778338 0.250000 0.896704
O O9 0.750000 0.047502 0.750000
O O10 0.813394 0.047952 0.773900
O O11 0.776985 0.000000 0.000000
O O12 0.671002 0.750000 0.096225
O O13 0.675969 0.500000 0.000000
#
# Coordination Sequence:
#
# PCOD8300693 Si02
#       4
#    16  16  16  16
#     4   9  18  32  49  70  96 124 155 193 235 278
#     4   9  18  32  48  67  93 124 157 194 235 278
#     4  10  21  35  51  73  99 126 158 195 234 277
#     4   9  18  33  51  71  96 125 157 193 233 278
#
# _framework density 17.487165000000001
#
# number of rings (size 3 to 8) (size 9 to 14) (size 15 to 20)
#    0.000    2.750    0.000    0.750    0.000    4.000 
#    0.000    0.000    0.000    0.000    0.000    0.000 
#    0.000    0.000    0.000    0.000    0.000    0.000 
#
# Total GULP energy -396786.785135 kJ/mol
# GULP energy per Si atom -12399.587035 kJ/mol
# Density = 1.744736 g / cm^3
# Si number density = 17.487165 Si / 1000 Ang^3
#
#
#
# Elastic Constant Matrix: (Units=GPa)
#
#
# Indices 1 2 3 4 5 6 
#
# 1 118.1807 52.0365 92.0251 0.0000 0.0000 0.0000
# 2 52.0365 60.8223 68.8561 0.0000 0.0000 0.0000
# 3 92.0251 68.8561 142.7493 0.0000 0.0000 0.0000
# 4 0.0000 0.0000 0.0000 37.7844 0.0000 0.0000
# 5 0.0000 0.0000 0.0000 0.0000 34.0248 0.0000
# 6 0.0000 0.0000 0.0000 0.0000 0.0000 22.8998
#
#
#
# Elastic Compliance Matrix: (Units=1/GPa)
#
#
# Indices 1 2 3 4 5 6 
#
# 1 0.017625 -0.004882 -0.009007 0.000000 0.000000 0.000000
# 2 -0.004882 0.037572 -0.014976 0.000000 0.000000 0.000000
# 3 -0.009007 -0.014976 0.020036 0.000000 0.000000 0.000000
# 4 0.000000 0.000000 0.000000 0.026466 0.000000 0.000000
# 5 0.000000 0.000000 0.000000 0.000000 0.029390 0.000000
# 6 0.000000 0.000000 0.000000 0.000000 0.000000 0.043669
#
#
# Mechanical properties :
#
#
# Convention : Reuss Voigt Hill
#
# Bulk Modulus (GPa) = 57.13513 83.06530 70.10022
# Shear Modulus (GPa) = 20.97998 26.19745 23.58871
#
# Velocity S-wave (km/s) = 3.46748 3.87472 3.67674
# Velocity P-wave (km/s) = 6.98389 8.22325 7.62878
#
# Compressibility (1/GPa) = 0.01750237
#
# Stress axis : x y z
#
# Youngs Moduli (GPa) = 56.73730 26.61542 49.91095
#
# Poissons Ratio (x) = 0.12994 0.44956
# Poissons Ratio (y) = 0.27700 0.74746
# Poissons Ratio (z) = 0.51105 0.39859
#
# Static dielectric constant tensor:
#      x y z
#    x 3.523310 0.000000 0.000000 
#    y 0.000000 3.233190 0.000000 
#    z 0.000000 0.000000 3.130680 
# 
# 
# High freq. dielectric constant tensor:
#      x y z
#    x 1.691440 0.000000 0.000000 
#    y 0.000000 1.674460 0.000000 
#    z 0.000000 0.000000 1.664290 
# 
# From -- ./inp_files/15826.got.cif
#   From: 2010.03.12/outbox.cif.g09.slc.cpg/sg74_8_cif.got.tgz:15826.got - 2010.04.16 15:46:19.
