data_PCOD8300286
_publ_section_title
;
Structure prediction by ZEFSAII (Michael W. Deem and Ramdas Pophale) SiO2 
 PCOD8300286
Probable space group: I M M A
;
_chemical_formula_sum "Si O2"
_cell_formula_units_Z 104
_cell_length_a 8.971845
_cell_length_b 28.461254
_cell_length_c 19.912603
_cell_angle_alpha 90.000000
_cell_angle_beta 90.000000
_cell_angle_gamma 90.000000
_cell_volume 5084.682367
_symmetry_space_group_name_H-M "I M M A"
_symmetry_group_IT_number 74
_symmetry_cell_setting 'orthorhombic'
loop_
_space_group_symop_operation_xyz
x,y,z
-x,1/2-y,z
x,-y,-z
-x,1/2+y,-z
-x,-y,-z
x,1/2+y,-z
-x,y,z
x,1/2-y,z
1/2+x,1/2+y,1/2+z
1/2-x,-y,1/2+z
1/2+x,1/2-y,1/2-z
1/2-x,y,1/2-z
1/2-x,1/2-y,1/2-z
1/2+x,y,1/2-z
1/2-x,1/2+y,1/2+z
1/2+x,-y,1/2+z
loop_
_atom_site_type_symbol
_atom_site_label
_atom_site_fract_x
_atom_site_fract_y
_atom_site_fract_z
Si Si1 0.674909 0.367385 0.819366
Si Si2 0.673636 0.149352 0.321558
Si Si3 0.664730 0.033176 0.438702
Si Si4 0.823910 0.122328 0.449388
Si Si5 0.832394 0.250000 0.181719
Si Si6 0.322684 0.696406 0.057804
Si Si7 0.177020 0.975585 0.321365
O O1 0.500000 0.361585 0.810118
O O2 0.750000 0.352036 0.750000
O O3 0.734574 0.331723 0.876672
O O4 0.714702 0.421095 0.838676
O O5 0.500000 0.137527 0.314306
O O6 0.750000 0.143431 0.250000
O O7 0.755713 0.117007 0.374471
O O8 0.702950 0.201250 0.355552
O O9 0.500000 0.050036 0.412792
O O10 0.761030 0.073583 0.477057
O O11 0.635708 0.000000 0.500000
O O12 0.753800 0.008915 0.377870
O O13 0.766809 0.166999 0.492679
O O14 0.000000 0.122561 0.446479
O O15 0.750000 0.250000 0.250000
O O16 0.000000 0.250000 0.206007
O O17 0.500000 0.698009 0.057982
O O18 0.258806 0.750000 0.055907
O O19 0.250000 0.989076 0.250000
O O20 0.000000 0.983813 0.317618
#
# Coordination Sequence:
#
# PCOD8300286 Si02
#       7
#    16  16  16  16   8  16  16
#     4   9  18  34  58  87 119 153 189 232 281 337
#     4  10  20  36  56  81 112 147 188 235 284 335
#     4  11  24  41  61  85 115 151 191 239 294 353
#     4  11  23  38  59  85 113 151 195 241 291 344
#     4   8  16  30  50  74 102 138 177 220 269 320
#     4   9  19  36  57  83 116 154 195 238 284 337
#     4  10  20  36  60  90 122 156 194 239 290 350
#
# _framework density 20.453589000000001
#
# number of rings (size 3 to 8) (size 9 to 14) (size 15 to 20)
#    0.000    2.154    0.000    2.769    1.077    4.615 
#    0.000    4.615    0.000    1.846    0.000    0.000 
#    0.000    0.000    0.000    0.000    0.000    0.000 
#
# Total GULP energy -644241.302131 kJ/mol
# GULP energy per Si atom -12389.255810 kJ/mol
# Density = 2.040704 g / cm^3
# Si number density = 20.453589 Si / 1000 Ang^3
#
#
#
# Elastic Constant Matrix: (Units=GPa)
#
#
# Indices 1 2 3 4 5 6 
#
# 1 88.2508 38.3926 48.5176 0.0000 0.0000 0.0001
# 2 38.3926 108.7867 56.3141 0.0001 0.0000 0.0001
# 3 48.5176 56.3141 119.5882 0.0001 0.0000 0.0004
# 4 0.0000 0.0001 0.0001 29.3601 0.0000 0.0001
# 5 0.0000 0.0000 0.0000 0.0000 28.0796 0.0000
# 6 0.0001 0.0001 0.0004 0.0001 0.0000 33.3334
#
#
#
# Elastic Compliance Matrix: (Units=1/GPa)
#
#
# Indices 1 2 3 4 5 6 
#
# 1 0.015237 -0.002879 -0.004826 0.000000 0.000000 0.000000
# 2 -0.002879 0.012699 -0.004812 0.000000 0.000000 0.000000
# 3 -0.004826 -0.004812 0.012586 0.000000 0.000000 0.000000
# 4 0.000000 0.000000 0.000000 0.034060 0.000000 0.000000
# 5 0.000000 0.000000 0.000000 0.000000 0.035613 0.000000
# 6 0.000000 0.000000 0.000000 0.000000 0.000000 0.030000
#
#
# Mechanical properties :
#
#
# Convention : Reuss Voigt Hill
#
# Bulk Modulus (GPa) = 64.56614 67.00829 65.78721
# Shear Modulus (GPa) = 29.34404 29.71470 29.52937
#
# Velocity S-wave (km/s) = 3.79181 3.81568 3.80376
# Velocity P-wave (km/s) = 7.12784 7.22806 7.17812
#
# Compressibility (1/GPa) = 0.01548800
#
# Stress axis : x y z
#
# Youngs Moduli (GPa) = 65.62937 78.74383 79.45386
#
# Poissons Ratio (x) = 0.22672 0.38344
# Poissons Ratio (y) = 0.18896 0.38233
# Poissons Ratio (z) = 0.31672 0.37892
#
# Static dielectric constant tensor:
#      x y z
#    x 3.637390 0.000000 0.000000 
#    y 0.000000 4.432140 0.000000 
#    z 0.000000 0.000000 3.662450 
# 
# 
# High freq. dielectric constant tensor:
#      x y z
#    x 1.790880 0.000000 0.000000 
#    y 0.000000 1.810670 0.000000 
#    z 0.000000 0.000000 1.796920 
# 
# From -- ./inp_files/49347.got.cif
#   From: 2010.03.12/outbox.cif.g09.slc.cpg/sg74_25_cif.got.tgz:49347.got - 2010.04.16 15:46:19.
