data_PCOD8300111
_publ_section_title
;
Structure prediction by ZEFSAII (Michael W. Deem and Ramdas Pophale) SiO2 
 PCOD8300111
Probable space group: I M M A
;
_chemical_formula_sum "Si O2"
_cell_formula_units_Z 88
_cell_length_a 21.020682
_cell_length_b 26.317411
_cell_length_c 8.643601
_cell_angle_alpha 90.000000
_cell_angle_beta 90.000000
_cell_angle_gamma 90.000000
_cell_volume 4781.725884
_symmetry_space_group_name_H-M "I M M A"
_symmetry_group_IT_number 74
_symmetry_cell_setting 'orthorhombic'
loop_
_space_group_symop_operation_xyz
x,y,z
-x,1/2-y,z
x,-y,-z
-x,1/2+y,-z
-x,-y,-z
x,1/2+y,-z
-x,y,z
x,1/2-y,z
1/2+x,1/2+y,1/2+z
1/2-x,-y,1/2+z
1/2+x,1/2-y,1/2-z
1/2-x,y,1/2-z
1/2-x,1/2-y,1/2-z
1/2+x,y,1/2-z
1/2-x,1/2+y,1/2+z
1/2+x,-y,1/2+z
loop_
_atom_site_type_symbol
_atom_site_label
_atom_site_fract_x
_atom_site_fract_y
_atom_site_fract_z
Si Si1 0.500000 0.501339 0.315670
Si Si2 0.000000 0.401490 0.376919
Si Si3 0.882013 0.807437 0.072135
Si Si4 0.318151 0.134289 0.827429
Si Si5 0.500000 0.189308 0.357848
Si Si6 0.098101 0.950831 0.403816
Si Si7 0.245502 0.807929 0.581428
O O1 0.500000 0.500000 0.500000
O O2 0.500000 0.443330 0.258570
O O3 0.560603 0.531682 0.249421
O O4 0.939566 0.410467 0.488546
O O5 0.000000 0.345213 0.298563
O O6 0.896178 0.750000 0.123850
O O7 0.875553 0.840814 0.227466
O O8 0.938265 0.826024 0.959205
O O9 0.815154 0.812314 0.988178
O O10 0.250000 0.137135 0.750000
O O11 0.336697 0.075871 0.853222
O O12 0.310092 0.163601 0.988829
O O13 0.500000 0.250000 0.315316
O O14 0.116755 0.000000 0.500000
O O15 0.222531 0.750000 0.591417
O O16 0.250000 0.833010 0.750000
#
# Coordination Sequence:
#
# PCOD8300111 Si02
#       7
#     8   8  16  16   8  16  16
#     4   9  19  36  61  85 100 139 194 230 271 337
#     4   9  20  36  58  77 109 149 176 224 278 333
#     4   9  19  34  52  77 113 146 180 226 271 326
#     4  10  20  35  56  78 107 145 187 228 285 336
#     4  10  21  34  54  88 122 146 181 230 282 336
#     4   9  20  39  55  78 111 140 181 239 287 329
#     4   9  18  33  54  79 107 145 191 226 263 334
#
# _framework density 18.403396999999998
#
# number of rings (size 3 to 8) (size 9 to 14) (size 15 to 20)
#    0.000    2.727    0.000    1.636    5.091    2.909 
#    0.000    2.727    0.000    0.000    0.000    0.000 
#    0.000    0.000    0.000    0.000    0.000    0.000 
#
# Total GULP energy -545335.695570 kJ/mol
# GULP energy per Si atom -12393.993081 kJ/mol
# Density = 1.836151 g / cm^3
# Si number density = 18.403397 Si / 1000 Ang^3
#
#
#
# Elastic Constant Matrix: (Units=GPa)
#
#
# Indices 1 2 3 4 5 6 
#
# 1 33.6963 35.3639 17.3305 0.0000 0.0000 0.0000
# 2 35.3639 96.1735 55.6861 0.0000 0.0000 0.0000
# 3 17.3305 55.6861 128.5341 0.0000 0.0000 0.0000
# 4 0.0000 0.0000 0.0000 25.4458 0.0000 0.0000
# 5 0.0000 0.0000 0.0000 0.0000 9.9118 0.0000
# 6 0.0000 0.0000 0.0000 0.0000 0.0000 31.3766
#
#
#
# Elastic Compliance Matrix: (Units=1/GPa)
#
#
# Indices 1 2 3 4 5 6 
#
# 1 0.048568 -0.018777 0.001587 0.000000 0.000000 0.000000
# 2 -0.018777 0.021139 -0.006627 0.000000 0.000000 0.000000
# 3 0.001587 -0.006627 0.010437 0.000000 0.000000 0.000000
# 4 0.000000 0.000000 0.000000 0.039299 0.000000 0.000000
# 5 0.000000 0.000000 0.000000 0.000000 0.100890 0.000000
# 6 0.000000 0.000000 0.000000 0.000000 0.000000 0.031871
#
#
# Mechanical properties :
#
#
# Convention : Reuss Voigt Hill
#
# Bulk Modulus (GPa) = 30.76055 52.79614 41.77834
# Shear Modulus (GPa) = 16.09398 23.34840 19.72119
#
# Velocity S-wave (km/s) = 2.96042 3.56575 3.27709
# Velocity P-wave (km/s) = 5.33257 6.76042 6.08850
#
# Compressibility (1/GPa) = 0.03250918
#
# Stress axis : x y z
#
# Youngs Moduli (GPa) = 20.58986 47.30483 95.81267
#
# Poissons Ratio (x) = 0.88827 -0.15202
# Poissons Ratio (y) = 0.38663 0.63492
# Poissons Ratio (z) = -0.03267 0.31347
#
# Static dielectric constant tensor:
#      x y z
#    x 3.251850 0.000000 0.000000 
#    y 0.000000 3.311480 0.000000 
#    z 0.000000 0.000000 3.539300 
# 
# 
# High freq. dielectric constant tensor:
#      x y z
#    x 1.702890 0.000000 0.000000 
#    y 0.000000 1.705210 0.000000 
#    z 0.000000 0.000000 1.718490 
# 
# From -- ./inp_files/12489.got.cif
#   From: 2010.03.12/outbox.cif.g09.slc.cpg/sg74_7_cif.got.tgz:12489.got - 2010.04.16 15:46:19.
