data_PCOD8300926
_publ_section_title
;
Structure prediction by ZEFSAII (Michael W. Deem and Ramdas Pophale) SiO2 
 PCOD8300926
Probable space group: I M M A
;
_chemical_formula_sum "Si O2"
_cell_formula_units_Z 64
_cell_length_a 10.504677
_cell_length_b 14.121656
_cell_length_c 20.896217
_cell_angle_alpha 90.000000
_cell_angle_beta 90.000000
_cell_angle_gamma 90.000000
_cell_volume 3099.816608
_symmetry_space_group_name_H-M "I M M A"
_symmetry_group_IT_number 74
_symmetry_cell_setting 'orthorhombic'
loop_
_space_group_symop_operation_xyz
x,y,z
-x,1/2-y,z
x,-y,-z
-x,1/2+y,-z
-x,-y,-z
x,1/2+y,-z
-x,y,z
x,1/2-y,z
1/2+x,1/2+y,1/2+z
1/2-x,-y,1/2+z
1/2+x,1/2-y,1/2-z
1/2-x,y,1/2-z
1/2-x,1/2-y,1/2-z
1/2+x,y,1/2-z
1/2-x,1/2+y,1/2+z
1/2+x,-y,1/2+z
loop_
_atom_site_type_symbol
_atom_site_label
_atom_site_fract_x
_atom_site_fract_y
_atom_site_fract_z
Si Si1 0.638908 0.250000 0.700529
Si Si2 0.851467 0.750000 0.659459
Si Si3 0.250000 0.588401 0.750000
Si Si4 0.860328 0.568089 0.442687
Si Si5 0.640557 0.043619 0.649473
Si Si6 0.848242 0.250000 0.484665
O O1 0.500000 0.250000 0.734651
O O2 0.750000 0.250000 0.750000
O O3 0.653193 0.155882 0.659043
O O4 0.814698 0.845004 0.697119
O O5 0.789932 0.750000 0.587774
O O6 0.000000 0.750000 0.651038
O O7 0.349078 0.518608 0.714286
O O8 0.889892 0.500000 0.500000
O O9 0.758189 0.517457 0.396425
O O10 0.799662 0.661905 0.473635
O O11 0.000000 0.585978 0.408783
O O12 0.500000 0.021672 0.620194
O O13 0.000000 0.250000 0.479762
#
# Coordination Sequence:
#
# PCOD8300926 Si02
#       6
#     8   8   8  16  16   8
#     4  10  21  38  56  82 118 153 191 234 288 351
#     4  10  21  38  61  87 115 153 200 250 296 348
#     4  11  22  37  60  86 122 161 196 241 298 364
#     4  10  21  37  59  85 113 152 199 246 297 350
#     4  11  23  38  59  88 123 159 196 242 298 359
#     4   9  18  36  59  83 111 144 195 252 296 345
#
# _framework density 20.646383
#
# number of rings (size 3 to 8) (size 9 to 14) (size 15 to 20)
#    0.000    1.750    1.250    3.000    0.000    5.500 
#    0.000    0.000    0.000    3.000    0.000    0.000 
#    0.000    0.000    0.000    0.000    0.000    0.000 
#
# Total GULP energy -396490.031202 kJ/mol
# GULP energy per Si atom -12390.313475 kJ/mol
# Density = 2.059939 g / cm^3
# Si number density = 20.646383 Si / 1000 Ang^3
#
#
#
# Elastic Constant Matrix: (Units=GPa)
#
#
# Indices 1 2 3 4 5 6 
#
# 1 133.2782 13.8152 56.9305 0.0000 0.0000 0.0000
# 2 13.8152 105.3951 17.9367 0.0000 0.0000 0.0000
# 3 56.9305 17.9367 83.9701 0.0000 0.0000 0.0000
# 4 0.0000 0.0000 0.0000 36.4935 0.0000 0.0000
# 5 0.0000 0.0000 0.0000 0.0000 31.0856 0.0000
# 6 0.0000 0.0000 0.0000 0.0000 0.0000 12.5883
#
#
#
# Elastic Compliance Matrix: (Units=1/GPa)
#
#
# Indices 1 2 3 4 5 6 
#
# 1 0.010565 -0.000172 -0.007126 0.000000 0.000000 0.000000
# 2 -0.000172 0.009849 -0.001987 0.000000 0.000000 0.000000
# 3 -0.007126 -0.001987 0.017165 0.000000 0.000000 0.000000
# 4 0.000000 0.000000 0.000000 0.027402 0.000000 0.000000
# 5 0.000000 0.000000 0.000000 0.000000 0.032169 0.000000
# 6 0.000000 0.000000 0.000000 0.000000 0.000000 0.079439
#
#
# Mechanical properties :
#
#
# Convention : Reuss Voigt Hill
#
# Bulk Modulus (GPa) = 52.60945 55.55647 54.08296
# Shear Modulus (GPa) = 24.81444 31.63087 28.22265
#
# Velocity S-wave (km/s) = 3.47057 3.91836 3.70124
# Velocity P-wave (km/s) = 6.44952 6.88755 6.67213
#
# Compressibility (1/GPa) = 0.01900799
#
# Stress axis : x y z
#
# Youngs Moduli (GPa) = 94.65321 101.53473 58.25863
#
# Poissons Ratio (x) = 0.01747 0.41516
# Poissons Ratio (y) = 0.01629 0.11577
# Poissons Ratio (z) = 0.67451 0.20176
#
# Static dielectric constant tensor:
#      x y z
#    x 3.677680 0.000000 0.000000 
#    y 0.000000 3.647790 0.000000 
#    z 0.000000 0.000000 3.571880 
# 
# 
# High freq. dielectric constant tensor:
#      x y z
#    x 1.796930 0.000000 0.000000 
#    y 0.000000 1.827060 0.000000 
#    z 0.000000 0.000000 1.790120 
# 
# From -- ./inp_files/40778.got.cif
#   From: 2010.03.12/outbox.cif.g09.slc.cpg/sg74_21_cif.got.tgz:40778.got - 2010.04.16 15:46:19.
