data_PCOD8300970
_publ_section_title
;
Structure prediction by ZEFSAII (Michael W. Deem and Ramdas Pophale) SiO2 
 PCOD8300970
Probable space group: I M M A
;
_chemical_formula_sum "Si O2"
_cell_formula_units_Z 64
_cell_length_a 18.131145
_cell_length_b 25.377188
_cell_length_c 7.481274
_cell_angle_alpha 90.000000
_cell_angle_beta 90.000000
_cell_angle_gamma 90.000000
_cell_volume 3442.264905
_symmetry_space_group_name_H-M "I M M A"
_symmetry_group_IT_number 74
_symmetry_cell_setting 'orthorhombic'
loop_
_space_group_symop_operation_xyz
x,y,z
-x,1/2-y,z
x,-y,-z
-x,1/2+y,-z
-x,-y,-z
x,1/2+y,-z
-x,y,z
x,1/2-y,z
1/2+x,1/2+y,1/2+z
1/2-x,-y,1/2+z
1/2+x,1/2-y,1/2-z
1/2-x,y,1/2-z
1/2-x,1/2-y,1/2-z
1/2+x,y,1/2-z
1/2-x,1/2+y,1/2+z
1/2+x,-y,1/2+z
loop_
_atom_site_type_symbol
_atom_site_label
_atom_site_fract_x
_atom_site_fract_y
_atom_site_fract_z
Si Si1 0.345977 0.690264 0.420887
Si Si2 0.812456 0.656387 0.466683
Si Si3 0.585810 0.867910 0.736727
Si Si4 0.815728 0.951402 0.619835
O O1 0.375355 0.750000 0.423126
O O2 0.261555 0.690433 0.490823
O O3 0.350579 0.666805 0.222403
O O4 0.399043 0.653862 0.539307
O O5 0.871524 0.670426 0.622096
O O6 0.788195 0.594964 0.485972
O O7 0.500000 0.867480 0.779321
O O8 0.616642 0.927839 0.760951
O O9 0.750000 0.969700 0.750000
O O10 0.843427 0.000000 0.500000
#
# Coordination Sequence:
#
# PCOD8300970 Si02
#       4
#    16  16  16  16
#     4  11  21  37  63  88 115 157 210 258 298 351
#     4   9  20  39  58  89 116 155 203 255 301 349
#     4  10  22  40  57  86 129 161 193 243 301 367
#     4  10  21  37  64  90 116 155 201 252 299 354
#
# _framework density 18.592410000000001
#
# number of rings (size 3 to 8) (size 9 to 14) (size 15 to 20)
#    1.500    0.500    2.500    2.250    3.500    5.000 
#    0.000    0.000    0.000    2.250    0.000    0.000 
#    0.000    0.000    0.000    0.000    0.000    0.000 
#
# Total GULP energy -396556.271409 kJ/mol
# GULP energy per Si atom -12392.383482 kJ/mol
# Density = 1.855009 g / cm^3
# Si number density = 18.592410 Si / 1000 Ang^3
#
#
#
# Elastic Constant Matrix: (Units=GPa)
#
#
# Indices 1 2 3 4 5 6 
#
# 1 80.0779 -2.0845 29.2573 0.0000 0.0000 0.0000
# 2 -2.0845 95.6626 35.0681 0.0000 0.0000 0.0000
# 3 29.2573 35.0681 86.2106 0.0000 0.0000 0.0000
# 4 0.0000 0.0000 0.0000 2.6575 0.0000 0.0000
# 5 0.0000 0.0000 0.0000 0.0000 21.2774 0.0000
# 6 0.0000 0.0000 0.0000 0.0000 0.0000 7.8195
#
#
#
# Elastic Compliance Matrix: (Units=1/GPa)
#
#
# Indices 1 2 3 4 5 6 
#
# 1 0.014761 0.002536 -0.006041 0.000000 0.000000 0.000000
# 2 0.002536 0.012721 -0.006035 0.000000 0.000000 0.000000
# 3 -0.006041 -0.006035 0.016105 0.000000 0.000000 0.000000
# 4 0.000000 0.000000 0.000000 0.376300 0.000000 0.000000
# 5 0.000000 0.000000 0.000000 0.000000 0.046998 0.000000
# 6 0.000000 0.000000 0.000000 0.000000 0.000000 0.127886
#
#
# Mechanical properties :
#
#
# Convention : Reuss Voigt Hill
#
# Bulk Modulus (GPa) = 40.80570 42.93700 41.87135
# Shear Modulus (GPa) = 8.03833 19.66486 13.85160
#
# Velocity S-wave (km/s) = 2.08155 3.25573 2.73245
# Velocity P-wave (km/s) = 5.26994 6.10549 5.70304
#
# Compressibility (1/GPa) = 0.02450638
#
# Stress axis : x y z
#
# Youngs Moduli (GPa) = 67.74585 78.60955 62.09377
#
# Poissons Ratio (x) = -0.19937 0.37512
# Poissons Ratio (y) = -0.17182 0.37476
# Poissons Ratio (z) = 0.40926 0.47443
#
# Static dielectric constant tensor:
#      x y z
#    x 3.068520 0.000000 0.000000 
#    y 0.000000 3.220420 0.000000 
#    z 0.000000 0.000000 3.440440 
# 
# 
# High freq. dielectric constant tensor:
#      x y z
#    x 1.694480 0.000000 0.000000 
#    y 0.000000 1.707120 0.000000 
#    z 0.000000 0.000000 1.727610 
# 
# From -- ./inp_files/10584.got.cif
#   From: 2010.03.12/outbox.cif.g09.slc.cpg/sg74_6_cif.got.tgz:10584.got - 2010.04.16 15:46:19.
