data_PCOD8300701
_publ_section_title
;
Structure prediction by ZEFSAII (Michael W. Deem and Ramdas Pophale) SiO2 
 PCOD8300701
Probable space group: I M M A
;
_chemical_formula_sum "Si O2"
_cell_formula_units_Z 80
_cell_length_a 13.815430
_cell_length_b 26.348091
_cell_length_c 10.944549
_cell_angle_alpha 90.000000
_cell_angle_beta 90.000000
_cell_angle_gamma 90.000000
_cell_volume 3983.927545
_symmetry_space_group_name_H-M "I M M A"
_symmetry_group_IT_number 74
_symmetry_cell_setting 'orthorhombic'
loop_
_space_group_symop_operation_xyz
x,y,z
-x,1/2-y,z
x,-y,-z
-x,1/2+y,-z
-x,-y,-z
x,1/2+y,-z
-x,y,z
x,1/2-y,z
1/2+x,1/2+y,1/2+z
1/2-x,-y,1/2+z
1/2+x,1/2-y,1/2-z
1/2-x,y,1/2-z
1/2-x,1/2-y,1/2-z
1/2+x,y,1/2-z
1/2-x,1/2+y,1/2+z
1/2+x,-y,1/2+z
loop_
_atom_site_type_symbol
_atom_site_label
_atom_site_fract_x
_atom_site_fract_y
_atom_site_fract_z
Si Si1 0.268827 0.305645 0.953881
Si Si2 0.282694 0.589012 0.935265
Si Si3 0.388047 0.452138 0.288428
Si Si4 0.889461 0.440929 0.675064
Si Si5 0.609720 0.667344 0.267675
O O1 0.271927 0.250000 0.017515
O O2 0.359752 0.309805 0.862638
O O3 0.170331 0.309503 0.877271
O O4 0.272420 0.350150 0.053376
O O5 0.361595 0.581507 0.829232
O O6 0.178787 0.564472 0.901973
O O7 0.319298 0.562145 0.058529
O O8 0.500000 0.444070 0.324505
O O9 0.364237 0.510289 0.255657
O O10 0.873013 0.393274 0.764289
O O11 0.000000 0.442773 0.626859
O O12 0.500000 0.682283 0.292562
#
# Coordination Sequence:
#
# PCOD8300701 Si02
#       5
#    16  16  16  16  16
#     4  10  21  35  52  77 106 138 178 221 263 305
#     4  10  21  35  56  78 103 139 177 216 258 308
#     4  10  21  37  56  80 109 140 174 212 254 307
#     4   9  18  34  57  82 108 137 169 207 256 316
#     4   9  18  33  54  82 111 135 165 211 266 322
#
# _framework density 20.080687000000001
#
# number of rings (size 3 to 8) (size 9 to 14) (size 15 to 20)
#    0.000    2.400    0.000    2.400    0.000   12.800 
#    0.000    2.000    0.000   15.600    0.000    0.000 
#    0.000    0.000    0.000    0.000    0.000    0.000 
#
# Total GULP energy -496021.460610 kJ/mol
# GULP energy per Si atom -12400.536515 kJ/mol
# Density = 2.003498 g / cm^3
# Si number density = 20.080687 Si / 1000 Ang^3
#
#
#
# Elastic Constant Matrix: (Units=GPa)
#
#
# Indices 1 2 3 4 5 6 
#
# 1 90.2699 45.7860 8.5019 -0.0005 -0.0004 0.0000
# 2 45.7860 173.3761 38.8322 -0.0005 -0.0002 0.0000
# 3 8.5019 38.8322 25.1826 -0.0022 -0.0010 0.0000
# 4 -0.0005 -0.0005 -0.0022 19.2058 -0.0009 0.0000
# 5 -0.0004 -0.0002 -0.0010 -0.0009 18.9139 0.0000
# 6 0.0000 0.0000 0.0000 0.0000 0.0000 18.8518
#
#
#
# Elastic Compliance Matrix: (Units=1/GPa)
#
#
# Indices 1 2 3 4 5 6 
#
# 1 0.012822 -0.003691 0.001363 0.000000 0.000000 0.000000
# 2 -0.003691 0.009874 -0.013979 -0.000001 -0.000001 0.000000
# 3 0.001363 -0.013979 0.060806 0.000007 0.000003 0.000000
# 4 0.000000 -0.000001 0.000007 0.052068 0.000002 0.000000
# 5 0.000000 -0.000001 0.000003 0.000002 0.052871 0.000000
# 6 0.000000 0.000000 0.000000 0.000000 0.000000 0.053045
#
#
# Mechanical properties :
#
#
# Convention : Reuss Voigt Hill
#
# Bulk Modulus (GPa) = 19.65133 52.78543 36.21838
# Shear Modulus (GPa) = 17.17846 24.44153 20.81000
#
# Velocity S-wave (km/s) = 2.92802 3.49258 3.22268
# Velocity P-wave (km/s) = 4.60852 6.52747 5.65006
#
# Compressibility (1/GPa) = 0.05088714
#
# Stress axis : x y z
#
# Youngs Moduli (GPa) = 77.99204 101.27949 16.44578
#
# Poissons Ratio (x) = 0.37387 -0.02242
# Poissons Ratio (y) = 0.28790 0.22990
# Poissons Ratio (z) = -0.10634 1.41580
#
# Static dielectric constant tensor:
#      x y z
#    x 3.787870 0.000000 0.000000 
#    y 0.000000 3.912190 0.000000 
#    z 0.000000 0.000000 3.266440 
# 
# 
# High freq. dielectric constant tensor:
#      x y z
#    x 1.796710 0.000000 0.000000 
#    y 0.000000 1.791170 0.000000 
#    z 0.000000 0.000000 1.745360 
# 
# From -- ./inp_files/20793.got.cif
#   From: 2010.03.12/outbox.cif.g09.slc.cpg/sg74_11_cif.got.tgz:20793.got - 2010.04.16 15:46:19.
