data_PCOD8300546
_publ_section_title
;
Structure prediction by ZEFSAII (Michael W. Deem and Ramdas Pophale) SiO2 
 PCOD8300546
Probable space group: I M M A
;
_chemical_formula_sum "Si O2"
_cell_formula_units_Z 40
_cell_length_a 22.335938
_cell_length_b 16.670066
_cell_length_c 4.910680
_cell_angle_alpha 90.000000
_cell_angle_beta 90.000000
_cell_angle_gamma 90.000000
_cell_volume 1828.450255
_symmetry_space_group_name_H-M "I M M A"
_symmetry_group_IT_number 74
_symmetry_cell_setting 'orthorhombic'
loop_
_space_group_symop_operation_xyz
x,y,z
-x,1/2-y,z
x,-y,-z
-x,1/2+y,-z
-x,-y,-z
x,1/2+y,-z
-x,y,z
x,1/2-y,z
1/2+x,1/2+y,1/2+z
1/2-x,-y,1/2+z
1/2+x,1/2-y,1/2-z
1/2-x,y,1/2-z
1/2-x,1/2-y,1/2-z
1/2+x,y,1/2-z
1/2-x,1/2+y,1/2+z
1/2+x,-y,1/2+z
loop_
_atom_site_type_symbol
_atom_site_label
_atom_site_fract_x
_atom_site_fract_y
_atom_site_fract_z
Si Si1 0.000000 0.941845 0.248064
Si Si2 0.687712 0.842204 0.879003
Si Si3 0.126711 0.590126 0.110446
O O1 0.060732 0.889407 0.233174
O O2 0.000000 0.000000 0.500000
O O3 0.000000 0.000000 0.000000
O O4 0.691558 0.750000 0.971941
O O5 0.750000 0.872686 0.750000
O O6 0.637518 0.851536 0.645178
O O7 0.673797 0.894846 0.146250
O O8 0.133231 0.500000 0.000000
#
# Coordination Sequence:
#
# PCOD8300546 Si02
#       3
#     8  16  16
#     4  10  20  38  61  88 123 158 193 250 315 352
#     4  11  24  42  62  88 128 167 198 247 314 365
#     4  11  22  40  65  92 120 159 210 254 296 361
#
# _framework density 21.876448
#
# number of rings (size 3 to 8) (size 9 to 14) (size 15 to 20)
#    0.000    1.200    0.000    8.400    0.000    6.400 
#    0.000    8.000    0.000    0.000    0.000    0.000 
#    0.000    0.000    0.000    0.000    0.000    0.000 
#
# Total GULP energy -247978.873770 kJ/mol
# GULP energy per Si atom -12398.943689 kJ/mol
# Density = 2.182666 g / cm^3
# Si number density = 21.876448 Si / 1000 Ang^3
#
#
#
# Elastic Constant Matrix: (Units=GPa)
#
#
# Indices 1 2 3 4 5 6 
#
# 1 116.7627 56.7843 48.1484 0.0000 0.0000 0.0000
# 2 56.7843 66.7850 39.8442 0.0000 0.0000 0.0000
# 3 48.1484 39.8442 163.4484 0.0000 0.0000 0.0000
# 4 0.0000 0.0000 0.0000 37.5813 0.0000 0.0000
# 5 0.0000 0.0000 0.0000 0.0000 41.6417 0.0000
# 6 0.0000 0.0000 0.0000 0.0000 0.0000 18.8889
#
#
#
# Elastic Compliance Matrix: (Units=1/GPa)
#
#
# Indices 1 2 3 4 5 6 
#
# 1 0.014920 -0.011776 -0.001524 0.000000 0.000000 0.000000
# 2 -0.011776 0.026817 -0.003068 0.000000 0.000000 0.000000
# 3 -0.001524 -0.003068 0.007315 0.000000 0.000000 0.000000
# 4 0.000000 0.000000 0.000000 0.026609 0.000000 0.000000
# 5 0.000000 0.000000 0.000000 0.000000 0.024014 0.000000
# 6 0.000000 0.000000 0.000000 0.000000 0.000000 0.052941
#
#
# Mechanical properties :
#
#
# Convention : Reuss Voigt Hill
#
# Bulk Modulus (GPa) = 61.29633 70.72775 66.01204
# Shear Modulus (GPa) = 26.20647 33.10366 29.65507
#
# Velocity S-wave (km/s) = 3.46487 3.89422 3.68580
# Velocity P-wave (km/s) = 6.63982 7.25401 6.95370
#
# Compressibility (1/GPa) = 0.01631419
#
# Stress axis : x y z
#
# Youngs Moduli (GPa) = 67.02359 37.29000 136.70338
#
# Poissons Ratio (x) = 0.43914 0.20839
# Poissons Ratio (y) = 0.78930 0.41942
# Poissons Ratio (z) = 0.10217 0.11441
#
# Static dielectric constant tensor:
#      x y z
#    x 4.088400 0.000000 0.000000 
#    y 0.000000 3.601070 0.000000 
#    z 0.000000 0.000000 4.097950 
# 
# 
# High freq. dielectric constant tensor:
#      x y z
#    x 1.870140 0.000000 0.000000 
#    y 0.000000 1.826010 0.000000 
#    z 0.000000 0.000000 1.887880 
# 
# From -- ./inp_files/4045.got.cif
#   From: 2010.03.12/outbox.cif.g09.slc.cpg/sg74_3_cif.got.tgz:4045.got - 2010.04.16 15:46:19.
