data_PCOD8300974
_publ_section_title
;
Structure prediction by ZEFSAII (Michael W. Deem and Ramdas Pophale) SiO2 
 PCOD8300974
Probable space group: I M M A
;
_chemical_formula_sum "Si O2"
_cell_formula_units_Z 104
_cell_length_a 8.823374
_cell_length_b 23.156732
_cell_length_c 26.956148
_cell_angle_alpha 90.000000
_cell_angle_beta 90.000000
_cell_angle_gamma 90.000000
_cell_volume 5507.693828
_symmetry_space_group_name_H-M "I M M A"
_symmetry_group_IT_number 74
_symmetry_cell_setting 'orthorhombic'
loop_
_space_group_symop_operation_xyz
x,y,z
-x,1/2-y,z
x,-y,-z
-x,1/2+y,-z
-x,-y,-z
x,1/2+y,-z
-x,y,z
x,1/2-y,z
1/2+x,1/2+y,1/2+z
1/2-x,-y,1/2+z
1/2+x,1/2-y,1/2-z
1/2-x,y,1/2-z
1/2-x,1/2-y,1/2-z
1/2+x,y,1/2-z
1/2-x,1/2+y,1/2+z
1/2+x,-y,1/2+z
loop_
_atom_site_type_symbol
_atom_site_label
_atom_site_fract_x
_atom_site_fract_y
_atom_site_fract_z
Si Si1 0.671829 0.975148 0.446271
Si Si2 0.674768 0.250000 0.302221
Si Si3 0.177557 0.250000 0.567624
Si Si4 0.676304 0.038522 0.137733
Si Si5 0.819545 0.250000 0.454930
Si Si6 0.679222 0.557580 0.301835
Si Si7 0.321153 0.339434 0.382753
Si Si8 0.828440 0.137571 0.894339
O O1 0.500000 0.992468 0.429283
O O2 0.687077 0.905655 0.441834
O O3 0.706139 0.000000 0.500000
O O4 0.800250 0.000759 0.411219
O O5 0.500000 0.250000 0.291598
O O6 0.750000 0.250000 0.250000
O O7 0.723507 0.193868 0.332789
O O8 0.241442 0.250000 0.511509
O O9 0.226524 0.306671 0.597591
O O10 0.000000 0.250000 0.565271
O O11 0.500000 0.049478 0.148056
O O12 0.762060 0.097130 0.126070
O O13 0.749459 0.004837 0.184319
O O14 0.757195 0.191788 0.429423
O O15 0.000000 0.250000 0.451774
O O16 0.500000 0.550272 0.296851
O O17 0.750000 0.578907 0.250000
O O18 0.721563 0.604428 0.344013
O O19 0.500000 0.339010 0.392882
O O20 0.000000 0.159241 0.888972
#
# Coordination Sequence:
#
# PCOD8300974 Si02
#       8
#    16   8   8  16   8  16  16  16
#     4   9  19  36  57  83 113 150 192 235 283 340
#     4   9  20  36  55  76 100 137 184 233 287 332
#     4  11  24  38  57  85 120 152 191 243 290 343
#     4  11  22  35  55  85 117 150 187 235 286 339
#     4  10  22  38  54  81 114 151 195 246 300 347
#     4  10  21  40  64  89 116 150 190 238 292 353
#     4  10  21  38  56  78 110 151 197 240 283 347
#     4   9  20  38  59  85 116 151 193 236 285 348
#
# _framework density 18.882677000000001
#
# number of rings (size 3 to 8) (size 9 to 14) (size 15 to 20)
#    0.000    2.154    0.000    4.154    2.154    7.077 
#    0.000    1.923    0.000    0.000    0.000    0.000 
#    0.000    0.000    0.000    0.000    0.000    0.000 
#
# Total GULP energy -644694.575238 kJ/mol
# GULP energy per Si atom -12397.972601 kJ/mol
# Density = 1.883970 g / cm^3
# Si number density = 18.882677 Si / 1000 Ang^3
#
#
#
# Elastic Constant Matrix: (Units=GPa)
#
#
# Indices 1 2 3 4 5 6 
#
# 1 71.8362 32.7239 37.4466 0.0000 0.0000 0.0000
# 2 32.7239 115.6212 46.8968 0.0000 0.0000 0.0000
# 3 37.4466 46.8968 111.6859 0.0000 0.0000 0.0000
# 4 0.0000 0.0000 0.0000 17.2476 0.0000 0.0000
# 5 0.0000 0.0000 0.0000 0.0000 32.9236 0.0000
# 6 0.0000 0.0000 0.0000 0.0000 0.0000 23.0333
#
#
#
# Elastic Compliance Matrix: (Units=1/GPa)
#
#
# Indices 1 2 3 4 5 6 
#
# 1 0.017772 -0.003149 -0.004636 0.000000 0.000000 0.000000
# 2 -0.003149 0.010982 -0.003556 0.000000 0.000000 0.000000
# 3 -0.004636 -0.003556 0.012001 0.000000 0.000000 0.000000
# 4 0.000000 0.000000 0.000000 0.057979 0.000000 0.000000
# 5 0.000000 0.000000 0.000000 0.000000 0.030373 0.000000
# 6 0.000000 0.000000 0.000000 0.000000 0.000000 0.043415
#
#
# Mechanical properties :
#
#
# Convention : Reuss Voigt Hill
#
# Bulk Modulus (GPa) = 55.33090 59.25311 57.29200
# Shear Modulus (GPa) = 24.84712 26.77928 25.81320
#
# Velocity S-wave (km/s) = 3.63143 3.76998 3.70135
# Velocity P-wave (km/s) = 6.85194 7.09916 6.97664
#
# Compressibility (1/GPa) = 0.01807309
#
# Stress axis : x y z
#
# Youngs Moduli (GPa) = 56.26826 91.05414 83.32561
#
# Poissons Ratio (x) = 0.28677 0.38632
# Poissons Ratio (y) = 0.17722 0.29627
# Poissons Ratio (z) = 0.26087 0.32375
#
# Static dielectric constant tensor:
#      x y z
#    x 3.446730 0.000000 0.000000 
#    y 0.000000 5.205600 0.000000 
#    z 0.000000 0.000000 3.492460 
# 
# 
# High freq. dielectric constant tensor:
#      x y z
#    x 1.737650 0.000000 0.000000 
#    y 0.000000 1.733460 0.000000 
#    z 0.000000 0.000000 1.730220 
# 
# From -- ./inp_files/64551.got.cif
#   From: 2010.03.12/outbox.cif.g09.slc.cpg/sg74_33_cif.got.tgz:64551.got - 2010.04.16 15:46:19.
