data_PCOD8300639
_publ_section_title
;
Structure prediction by ZEFSAII (Michael W. Deem and Ramdas Pophale) SiO2 
 PCOD8300639
Probable space group: I M M A
;
_chemical_formula_sum "Si O2"
_cell_formula_units_Z 72
_cell_length_a 7.485208
_cell_length_b 21.849980
_cell_length_c 22.894590
_cell_angle_alpha 90.000000
_cell_angle_beta 90.000000
_cell_angle_gamma 90.000000
_cell_volume 3744.447858
_symmetry_space_group_name_H-M "I M M A"
_symmetry_group_IT_number 74
_symmetry_cell_setting 'orthorhombic'
loop_
_space_group_symop_operation_xyz
x,y,z
-x,1/2-y,z
x,-y,-z
-x,1/2+y,-z
-x,-y,-z
x,1/2+y,-z
-x,y,z
x,1/2-y,z
1/2+x,1/2+y,1/2+z
1/2-x,-y,1/2+z
1/2+x,1/2-y,1/2-z
1/2-x,y,1/2-z
1/2-x,1/2-y,1/2-z
1/2+x,y,1/2-z
1/2-x,1/2+y,1/2+z
1/2+x,-y,1/2+z
loop_
_atom_site_type_symbol
_atom_site_label
_atom_site_fract_x
_atom_site_fract_y
_atom_site_fract_z
Si Si1 0.791825 0.471964 0.314666
Si Si2 0.296614 0.863859 0.893233
Si Si3 0.208941 0.250000 0.182052
Si Si4 0.000000 0.177984 0.887300
Si Si5 0.500000 0.177834 0.477886
Si Si6 0.790083 0.390431 0.684269
O O1 0.750000 0.447372 0.250000
O O2 0.714390 0.424400 0.361971
O O3 0.714960 0.540287 0.323687
O O4 0.000000 0.474931 0.323708
O O5 0.500000 0.874059 0.914494
O O6 0.295938 0.809614 0.846287
O O7 0.178116 0.849953 0.949587
O O8 0.250000 0.250000 0.250000
O O9 0.000000 0.250000 0.168433
O O10 0.000000 0.159434 0.954851
O O11 0.180887 0.152204 0.859312
O O12 0.000000 0.250000 0.878390
O O13 0.500000 0.250000 0.467598
O O14 0.750000 0.368582 0.750000
O O15 0.000000 0.384412 0.670123
#
# Coordination Sequence:
#
# PCOD8300639 Si02
#       6
#    16  16   8   8   8  16
#     4   9  20  33  57  90 121 158 202 241 302 371
#     4  11  21  37  57  84 118 165 207 256 300 346
#     4  12  22  34  52  85 123 158 211 266 306 350
#     4  11  26  43  65  95 117 155 210 244 300 381
#     4  11  24  43  59  81 121 168 212 255 296 356
#     4  10  20  41  65  93 128 156 182 243 312 368
#
# _framework density 19.228470000000002
#
# number of rings (size 3 to 8) (size 9 to 14) (size 15 to 20)
#    0.000    1.556    3.333    1.667    3.111    3.556 
#    0.000    4.444    0.000    4.000    0.000    0.000 
#    0.000    0.000    0.000    0.000    0.000    0.000 
#
# Total GULP energy -446451.155205 kJ/mol
# GULP energy per Si atom -12401.420978 kJ/mol
# Density = 1.918471 g / cm^3
# Si number density = 19.228470 Si / 1000 Ang^3
#
#
#
# Elastic Constant Matrix: (Units=GPa)
#
#
# Indices 1 2 3 4 5 6 
#
# 1 111.0634 38.3488 58.9429 0.0000 0.0000 0.0000
# 2 38.3488 100.2839 78.2870 0.0000 0.0000 0.0000
# 3 58.9429 78.2870 154.0392 0.0000 0.0000 0.0000
# 4 0.0000 0.0000 0.0000 31.2687 0.0000 0.0000
# 5 0.0000 0.0000 0.0000 0.0000 29.5278 0.0000
# 6 0.0000 0.0000 0.0000 0.0000 0.0000 27.2684
#
#
#
# Elastic Compliance Matrix: (Units=1/GPa)
#
#
# Indices 1 2 3 4 5 6 
#
# 1 0.011449 -0.001588 -0.003574 0.000000 0.000000 0.000000
# 2 -0.001588 0.016750 -0.007905 0.000000 0.000000 0.000000
# 3 -0.003574 -0.007905 0.011877 0.000000 0.000000 0.000000
# 4 0.000000 0.000000 0.000000 0.031981 0.000000 0.000000
# 5 0.000000 0.000000 0.000000 0.000000 0.033866 0.000000
# 6 0.000000 0.000000 0.000000 0.000000 0.000000 0.036672
#
#
# Mechanical properties :
#
#
# Convention : Reuss Voigt Hill
#
# Bulk Modulus (GPa) = 71.72682 79.61601 75.67142
# Shear Modulus (GPa) = 28.83881 30.26683 29.55282
#
# Velocity S-wave (km/s) = 3.87692 3.97175 3.92462
# Velocity P-wave (km/s) = 7.57787 7.90748 7.74443
#
# Compressibility (1/GPa) = 0.01394179
#
# Stress axis : x y z
#
# Youngs Moduli (GPa) = 87.34473 59.70054 84.19649
#
# Poissons Ratio (x) = 0.09482 0.30089
# Poissons Ratio (y) = 0.13873 0.66559
# Poissons Ratio (z) = 0.31214 0.47195
#
# Static dielectric constant tensor:
#      x y z
#    x 3.547150 0.000000 0.000000 
#    y 0.000000 3.834490 0.000000 
#    z 0.000000 0.000000 3.435200 
# 
# 
# High freq. dielectric constant tensor:
#      x y z
#    x 1.760250 0.000000 0.000000 
#    y 0.000000 1.750460 0.000000 
#    z 0.000000 0.000000 1.729880 
# 
# From -- ./inp_files/48435.got.cif
#   From: 2010.03.12/outbox.cif.g09.slc.cpg/sg74_25_cif.got.tgz:48435.got - 2010.04.16 15:46:19.
