data_PCOD8300046
_publ_section_title
;
Structure prediction by ZEFSAII (Michael W. Deem and Ramdas Pophale) SiO2 
 PCOD8300046
Probable space group: I M M A
;
_chemical_formula_sum "Si O2"
_cell_formula_units_Z 96
_cell_length_a 25.250615
_cell_length_b 9.245509
_cell_length_c 23.381716
_cell_angle_alpha 90.000000
_cell_angle_beta 90.000000
_cell_angle_gamma 90.000000
_cell_volume 5458.573557
_symmetry_space_group_name_H-M "I M M A"
_symmetry_group_IT_number 74
_symmetry_cell_setting 'orthorhombic'
loop_
_space_group_symop_operation_xyz
x,y,z
-x,1/2-y,z
x,-y,-z
-x,1/2+y,-z
-x,-y,-z
x,1/2+y,-z
-x,y,z
x,1/2-y,z
1/2+x,1/2+y,1/2+z
1/2-x,-y,1/2+z
1/2+x,1/2-y,1/2-z
1/2-x,y,1/2-z
1/2-x,1/2-y,1/2-z
1/2+x,y,1/2-z
1/2-x,1/2+y,1/2+z
1/2+x,-y,1/2+z
loop_
_atom_site_type_symbol
_atom_site_label
_atom_site_fract_x
_atom_site_fract_y
_atom_site_fract_z
Si Si1 0.652843 0.581521 0.360563
Si Si2 0.939792 0.918634 0.057405
Si Si3 0.059106 0.916845 0.555754
Si Si4 0.251424 0.420691 0.940443
Si Si5 0.310032 0.581400 0.747392
Si Si6 0.658959 0.416793 0.126120
O O1 0.652331 0.750000 0.346238
O O2 0.598531 0.532482 0.391284
O O3 0.701777 0.540628 0.400869
O O4 0.656586 0.497806 0.301155
O O5 0.932612 0.750000 0.044546
O O6 0.000000 0.957016 0.075046
O O7 0.922760 0.000000 0.000000
O O8 0.059185 0.750000 0.538856
O O9 0.098493 0.947566 0.608151
O O10 0.000000 0.968238 0.573612
O O11 0.079686 0.000000 0.500000
O O12 0.257246 0.250000 0.950913
O O13 0.303859 0.479185 0.910278
O O14 0.242353 0.500000 0.000000
O O15 0.309861 0.750000 0.732576
O O16 0.250000 0.522032 0.750000
O O17 0.337963 0.545992 0.807201
O O18 0.675508 0.250000 0.114800
#
# Coordination Sequence:
#
# PCOD8300046 Si02
#       6
#    16  16  16  16  16  16
#     4  10  21  35  52  76 104 136 173 212 256 306
#     4   9  18  34  55  78 105 137 173 214 261 311
#     4   9  18  33  53  75 100 130 164 204 250 299
#     4  11  22  33  49  75 105 133 165 207 256 306
#     4  10  20  35  54  75 102 138 175 212 254 301
#     4  10  20  35  53  74 101 133 170 209 254 301
#
# _framework density 17.587012000000001
#
# number of rings (size 3 to 8) (size 9 to 14) (size 15 to 20)
#    0.000    2.167    1.667    1.500    0.000    4.333 
#    0.000    0.833    0.000    1.000    0.000    0.000 
#    0.000    0.000    0.000    0.000    0.000    0.000 
#
# Total GULP energy -595329.027019 kJ/mol
# GULP energy per Si atom -12402.688063 kJ/mol
# Density = 1.754698 g / cm^3
# Si number density = 17.587012 Si / 1000 Ang^3
#
#
#
# Elastic Constant Matrix: (Units=GPa)
#
#
# Indices 1 2 3 4 5 6 
#
# 1 107.4259 32.0303 66.6517 0.0000 0.0000 0.0000
# 2 32.0303 44.6111 43.1990 0.0000 0.0000 0.0000
# 3 66.6517 43.1990 130.3874 0.0000 0.0000 0.0000
# 4 0.0000 0.0000 0.0000 35.1878 0.0000 0.0000
# 5 0.0000 0.0000 0.0000 0.0000 29.7728 0.0000
# 6 0.0000 0.0000 0.0000 0.0000 0.0000 22.4874
#
#
#
# Elastic Compliance Matrix: (Units=1/GPa)
#
#
# Indices 1 2 3 4 5 6 
#
# 1 0.014268 -0.004684 -0.005741 0.000000 0.000000 0.000000
# 2 -0.004684 0.034543 -0.009050 0.000000 0.000000 0.000000
# 3 -0.005741 -0.009050 0.013603 0.000000 0.000000 0.000000
# 4 0.000000 0.000000 0.000000 0.028419 0.000000 0.000000
# 5 0.000000 0.000000 0.000000 0.000000 0.033588 0.000000
# 6 0.000000 0.000000 0.000000 0.000000 0.000000 0.044469
#
#
# Mechanical properties :
#
#
# Convention : Reuss Voigt Hill
#
# Bulk Modulus (GPa) = 42.62254 62.90960 52.76607
# Shear Modulus (GPa) = 23.18458 26.85917 25.02188
#
# Velocity S-wave (km/s) = 3.63475 3.91220 3.77602
# Velocity P-wave (km/s) = 6.47326 7.50035 7.00565
#
# Compressibility (1/GPa) = 0.02346176
#
# Stress axis : x y z
#
# Youngs Moduli (GPa) = 70.08871 28.94975 73.51496
#
# Poissons Ratio (x) = 0.13561 0.42208
# Poissons Ratio (y) = 0.32832 0.66530
# Poissons Ratio (z) = 0.40241 0.26199
#
# Static dielectric constant tensor:
#      x y z
#    x 3.434300 0.000000 0.000000 
#    y 0.000000 3.249790 0.000000 
#    z 0.000000 0.000000 3.235660 
# 
# 
# High freq. dielectric constant tensor:
#      x y z
#    x 1.683490 0.000000 0.000000 
#    y 0.000000 1.678190 0.000000 
#    z 0.000000 0.000000 1.677030 
# 
# From -- ./inp_files/49060.got.cif
#   From: 2010.03.12/outbox.cif.g09.slc.cpg/sg74_25_cif.got.tgz:49060.got - 2010.04.16 15:46:19.
