data_PCOD8300211
_publ_section_title
;
Structure prediction by ZEFSAII (Michael W. Deem and Ramdas Pophale) SiO2 
 PCOD8300211
Probable space group: I M M A
;
_chemical_formula_sum "Si O2"
_cell_formula_units_Z 96
_cell_length_a 23.057972
_cell_length_b 25.625953
_cell_length_c 8.875958
_cell_angle_alpha 90.000000
_cell_angle_beta 90.000000
_cell_angle_gamma 90.000000
_cell_volume 5244.648313
_symmetry_space_group_name_H-M "I M M A"
_symmetry_group_IT_number 74
_symmetry_cell_setting 'orthorhombic'
loop_
_space_group_symop_operation_xyz
x,y,z
-x,1/2-y,z
x,-y,-z
-x,1/2+y,-z
-x,-y,-z
x,1/2+y,-z
-x,y,z
x,1/2-y,z
1/2+x,1/2+y,1/2+z
1/2-x,-y,1/2+z
1/2+x,1/2-y,1/2-z
1/2-x,y,1/2-z
1/2-x,1/2-y,1/2-z
1/2+x,y,1/2-z
1/2-x,1/2+y,1/2+z
1/2+x,-y,1/2+z
loop_
_atom_site_type_symbol
_atom_site_label
_atom_site_fract_x
_atom_site_fract_y
_atom_site_fract_z
Si Si1 0.250000 0.336472 0.750000
Si Si2 0.730214 0.750000 0.483919
Si Si3 0.641573 0.250000 0.054181
Si Si4 0.066843 0.442794 0.433995
Si Si5 0.069047 0.450706 0.093139
Si Si6 0.890179 0.250000 0.117101
Si Si7 0.932296 0.347861 0.935286
Si Si8 0.631062 0.644483 0.126672
O O1 0.277541 0.300720 0.620179
O O2 0.302736 0.369986 0.822493
O O3 0.789193 0.750000 0.579931
O O4 0.678662 0.750000 0.601257
O O5 0.601801 0.250000 0.203195
O O6 0.626462 0.302245 0.965304
O O7 0.072068 0.500000 0.500000
O O8 0.091532 0.447421 0.264573
O O9 0.106034 0.403292 0.530272
O O10 0.000000 0.423254 0.438165
O O11 0.000000 0.453841 0.095722
O O12 0.094271 0.500000 0.000000
O O13 0.093450 0.399793 0.010681
O O14 0.919521 0.300039 0.044468
O O15 0.906323 0.342072 0.771537
O O16 0.000000 0.353931 0.913958
#
# Coordination Sequence:
#
# PCOD8300211 Si02
#       8
#     8   8   8  16  16   8  16  16
#     4   9  18  34  58  82 102 142 188 235 276 318
#     4   9  17  35  55  78 105 141 189 228 263 329
#     4  10  23  34  56  81 109 146 188 237 277 329
#     4  10  20  35  58  86 114 147 185 228 277 339
#     4   9  18  34  54  78 108 143 184 223 264 323
#     4  12  20  35  51  81 114 144 181 223 284 334
#     4  11  22  34  53  79 111 148 182 223 279 341
#     4  11  20  37  57  81 112 147 193 234 285 333
#
# _framework density 18.304372999999998
#
# number of rings (size 3 to 8) (size 9 to 14) (size 15 to 20)
#    0.000    1.833    1.667    4.000    0.000    2.667 
#    0.000    3.750    0.000    3.000    0.000    0.000 
#    0.000    0.000    0.000    0.000    0.000    0.000 
#
# Total GULP energy -595080.797246 kJ/mol
# GULP energy per Si atom -12397.516609 kJ/mol
# Density = 1.826271 g / cm^3
# Si number density = 18.304373 Si / 1000 Ang^3
#
#
#
# Elastic Constant Matrix: (Units=GPa)
#
#
# Indices 1 2 3 4 5 6 
#
# 1 70.2656 41.6081 43.3822 0.0000 0.0000 0.0000
# 2 41.6081 113.6460 46.2312 0.0000 0.0000 0.0000
# 3 43.3822 46.2312 130.4476 0.0000 0.0000 0.0000
# 4 0.0000 0.0000 0.0000 31.1364 0.0000 0.0000
# 5 0.0000 0.0000 0.0000 0.0000 29.5964 0.0000
# 6 0.0000 0.0000 0.0000 0.0000 0.0000 18.1231
#
#
#
# Elastic Compliance Matrix: (Units=1/GPa)
#
#
# Indices 1 2 3 4 5 6 
#
# 1 0.020508 -0.005531 -0.004860 0.000000 0.000000 0.000000
# 2 -0.005531 0.011773 -0.002333 0.000000 0.000000 0.000000
# 3 -0.004860 -0.002333 0.010109 0.000000 0.000000 0.000000
# 4 0.000000 0.000000 0.000000 0.032117 0.000000 0.000000
# 5 0.000000 0.000000 0.000000 0.000000 0.033788 0.000000
# 6 0.000000 0.000000 0.000000 0.000000 0.000000 0.055178
#
#
# Mechanical properties :
#
#
# Convention : Reuss Voigt Hill
#
# Bulk Modulus (GPa) = 59.02582 64.08912 61.55747
# Shear Modulus (GPa) = 25.69791 27.98035 26.83913
#
# Velocity S-wave (km/s) = 3.75096 3.91399 3.83334
# Velocity P-wave (km/s) = 7.14678 7.45083 7.30039
#
# Compressibility (1/GPa) = 0.01694174
#
# Stress axis : x y z
#
# Youngs Moduli (GPa) = 48.76259 84.93682 98.92239
#
# Poissons Ratio (x) = 0.46981 0.48074
# Poissons Ratio (y) = 0.26972 0.23079
# Poissons Ratio (z) = 0.23697 0.19816
#
# Static dielectric constant tensor:
#      x y z
#    x 3.272970 0.000000 0.000000 
#    y 0.000000 3.402050 0.000000 
#    z 0.000000 0.000000 3.529850 
# 
# 
# High freq. dielectric constant tensor:
#      x y z
#    x 1.688280 0.000000 0.000000 
#    y 0.000000 1.707170 0.000000 
#    z 0.000000 0.000000 1.727420 
# 
# From -- ./inp_files/14012.got.cif
#   From: 2010.03.12/outbox.cif.g09.slc.cpg/sg74_8_cif.got.tgz:14012.got - 2010.04.16 15:46:19.
