data_PCOD8300653
_publ_section_title
;
Structure prediction by ZEFSAII (Michael W. Deem and Ramdas Pophale) SiO2 
 PCOD8300653
Probable space group: I M M A
;
_chemical_formula_sum "Si O2"
_cell_formula_units_Z 80
_cell_length_a 15.681832
_cell_length_b 9.664598
_cell_length_c 28.401620
_cell_angle_alpha 90.000000
_cell_angle_beta 90.000000
_cell_angle_gamma 90.000000
_cell_volume 4304.509827
_symmetry_space_group_name_H-M "I M M A"
_symmetry_group_IT_number 74
_symmetry_cell_setting 'orthorhombic'
loop_
_space_group_symop_operation_xyz
x,y,z
-x,1/2-y,z
x,-y,-z
-x,1/2+y,-z
-x,-y,-z
x,1/2+y,-z
-x,y,z
x,1/2-y,z
1/2+x,1/2+y,1/2+z
1/2-x,-y,1/2+z
1/2+x,1/2-y,1/2-z
1/2-x,y,1/2-z
1/2-x,1/2-y,1/2-z
1/2+x,y,1/2-z
1/2-x,1/2+y,1/2+z
1/2+x,-y,1/2+z
loop_
_atom_site_type_symbol
_atom_site_label
_atom_site_fract_x
_atom_site_fract_y
_atom_site_fract_z
Si Si1 0.500000 0.088729 0.287376
Si Si2 0.500000 0.409811 0.619726
Si Si3 0.838080 0.410886 0.275140
Si Si4 0.833556 0.409503 0.543620
Si Si5 0.863108 0.908761 0.043312
Si Si6 0.098103 0.590311 0.356388
O O1 0.500000 0.250000 0.300090
O O2 0.416111 0.047244 0.258390
O O3 0.500000 0.004036 0.334938
O O4 0.500000 0.250000 0.635388
O O5 0.416068 0.446106 0.589730
O O6 0.842010 0.250000 0.288708
O O7 0.750000 0.449516 0.250000
O O8 0.842807 0.497770 0.323074
O O9 0.867093 0.500000 0.500000
O O10 0.848336 0.250000 0.530343
O O11 0.734954 0.441171 0.554557
O O12 0.886562 0.452405 0.589582
O O13 0.877928 0.750000 0.028915
O O14 0.896563 0.000000 0.000000
O O15 0.123650 0.750000 0.348812
O O16 0.000000 0.563107 0.343768
#
# Coordination Sequence:
#
# PCOD8300653 Si02
#       6
#     8   8  16  16  16  16
#     4  10  22  39  55  80 114 141 176 228 274 322
#     4  10  21  33  51  78 108 141 179 220 265 318
#     4  10  22  40  60  82 110 145 185 229 277 329
#     4   9  19  35  53  77 109 140 177 222 267 318
#     4   9  18  33  51  74 105 141 179 220 263 314
#     4  10  21  37  58  83 111 144 182 224 272 328
#
# _framework density 18.585158
#
# number of rings (size 3 to 8) (size 9 to 14) (size 15 to 20)
#    0.000    2.400    1.000    0.300    2.800    3.200 
#    0.000    0.000    0.000    0.000    0.000    0.000 
#    0.000    0.000    0.000    0.000    0.000    0.000 
#
# Total GULP energy -496155.389319 kJ/mol
# GULP energy per Si atom -12403.884733 kJ/mol
# Density = 1.854286 g / cm^3
# Si number density = 18.585158 Si / 1000 Ang^3
#
#
#
# Elastic Constant Matrix: (Units=GPa)
#
#
# Indices 1 2 3 4 5 6 
#
# 1 85.4261 37.1174 49.4042 0.0000 0.0000 0.0000
# 2 37.1174 76.4841 80.3653 0.0000 0.0000 0.0000
# 3 49.4042 80.3653 142.3246 0.0000 0.0000 0.0000
# 4 0.0000 0.0000 0.0000 44.8402 0.0000 0.0000
# 5 0.0000 0.0000 0.0000 0.0000 22.4344 0.0000
# 6 0.0000 0.0000 0.0000 0.0000 0.0000 -0.3580
#
#
#
# Elastic Compliance Matrix: (Units=1/GPa)
#
#
# Indices 1 2 3 4 5 6 
#
# 1 0.015257 -0.004523 -0.002742 0.000000 0.000000 0.000000
# 2 -0.004523 0.033490 -0.017341 0.000000 0.000000 0.000000
# 3 -0.002742 -0.017341 0.017770 0.000000 0.000000 0.000000
# 4 0.000000 0.000000 0.000000 0.022301 0.000000 0.000000
# 5 0.000000 0.000000 0.000000 0.000000 0.044574 0.000000
# 6 0.000000 0.000000 0.000000 0.000000 0.000000 -2.792991
#
#
# Mechanical properties :
#
#
# Convention : Reuss Voigt Hill
#
# Bulk Modulus (GPa) = 57.78498 70.88983 64.33740
# Shear Modulus (GPa) = -1.91967 22.53984 10.31009
#
# Velocity S-wave (km/s) = -1.01742 3.48629 2.35787
# Velocity P-wave (km/s) = 5.45704 7.37778 6.48887
#
# Compressibility (1/GPa) = 0.01730553
#
# Stress axis : x y z
#
# Youngs Moduli (GPa) = 65.54336 29.85969 56.27580
#
# Poissons Ratio (x) = 0.13505 0.15432
# Poissons Ratio (y) = 0.29644 0.97585
# Poissons Ratio (z) = 0.17974 0.51778
#
# Static dielectric constant tensor:
#      x y z
#    x 3.541230 0.000000 0.000000 
#    y 0.000000 3.411220 0.000000 
#    z 0.000000 0.000000 3.306850 
# 
# 
# High freq. dielectric constant tensor:
#      x y z
#    x 1.728410 0.000000 0.000000 
#    y 0.000000 1.716870 0.000000 
#    z 0.000000 0.000000 1.720080 
# 
# From -- ./inp_files/64019.got.cif
#   From: 2010.03.12/outbox.cif.g09.slc.cpg/sg74_33_cif.got.tgz:64019.got - 2010.04.16 15:46:19.
