data_PCOD8300500
_publ_section_title
;
Structure prediction by ZEFSAII (Michael W. Deem and Ramdas Pophale) SiO2 
 PCOD8300500
Probable space group: I M M A
;
_chemical_formula_sum "Si O2"
_cell_formula_units_Z 80
_cell_length_a 18.328380
_cell_length_b 24.238537
_cell_length_c 9.144860
_cell_angle_alpha 90.000000
_cell_angle_beta 90.000000
_cell_angle_gamma 90.000000
_cell_volume 4062.632558
_symmetry_space_group_name_H-M "I M M A"
_symmetry_group_IT_number 74
_symmetry_cell_setting 'orthorhombic'
loop_
_space_group_symop_operation_xyz
x,y,z
-x,1/2-y,z
x,-y,-z
-x,1/2+y,-z
-x,-y,-z
x,1/2+y,-z
-x,y,z
x,1/2-y,z
1/2+x,1/2+y,1/2+z
1/2-x,-y,1/2+z
1/2+x,1/2-y,1/2-z
1/2-x,y,1/2-z
1/2-x,1/2-y,1/2-z
1/2+x,y,1/2-z
1/2-x,1/2+y,1/2+z
1/2+x,-y,1/2+z
loop_
_atom_site_type_symbol
_atom_site_label
_atom_site_fract_x
_atom_site_fract_y
_atom_site_fract_z
Si Si1 0.416058 0.529680 0.640060
Si Si2 0.584985 0.351562 0.467893
Si Si3 0.087907 0.750000 0.441241
Si Si4 0.166273 0.848341 0.274107
Si Si5 0.181570 0.529548 0.351819
Si Si6 0.413647 0.750000 0.723311
O O1 0.379321 0.500000 0.500000
O O2 0.500000 0.514115 0.643883
O O3 0.402274 0.594640 0.630090
O O4 0.385206 0.505495 0.789187
O O5 0.500000 0.343525 0.509060
O O6 0.630354 0.355884 0.615851
O O7 0.615296 0.302631 0.366241
O O8 0.120975 0.803721 0.364628
O O9 0.114517 0.750000 0.609920
O O10 0.000000 0.750000 0.425704
O O11 0.250000 0.829513 0.250000
O O12 0.161424 0.905653 0.364650
O O13 0.203505 0.500000 0.500000
O O14 0.250000 0.522646 0.250000
O O15 0.500000 0.750000 0.727824
#
# Coordination Sequence:
#
# PCOD8300500 Si02
#       6
#    16  16   8  16  16   8
#     4  10  20  37  62  92 124 158 207 265 314 375
#     4  10  20  39  65  88 119 165 209 254 315 378
#     4  11  24  43  65  92 129 163 208 267 324 368
#     4  11  24  41  63  93 126 165 212 260 305 378
#     4  11  25  41  63  91 129 172 212 257 319 385
#     4   9  21  39  62  90 116 155 208 259 312 374
#
# _framework density 19.691665
#
# number of rings (size 3 to 8) (size 9 to 14) (size 15 to 20)
#    0.000    1.600    2.000    2.100    5.600    2.000 
#    0.000    2.000    0.000    0.000    0.000    0.000 
#    0.000    0.000    0.000    0.000    0.000    0.000 
#
# Total GULP energy -496016.112796 kJ/mol
# GULP energy per Si atom -12400.402820 kJ/mol
# Density = 1.964685 g / cm^3
# Si number density = 19.691665 Si / 1000 Ang^3
#
#
#
# Elastic Constant Matrix: (Units=GPa)
#
#
# Indices 1 2 3 4 5 6 
#
# 1 80.6414 57.1865 41.4332 0.0000 0.0000 0.0000
# 2 57.1865 144.5049 61.0678 0.0000 0.0000 0.0000
# 3 41.4332 61.0678 99.3491 0.0000 0.0000 0.0000
# 4 0.0000 0.0000 0.0000 26.6619 0.0000 0.0000
# 5 0.0000 0.0000 0.0000 0.0000 24.7265 0.0000
# 6 0.0000 0.0000 0.0000 0.0000 0.0000 0.8974
#
#
#
# Elastic Compliance Matrix: (Units=1/GPa)
#
#
# Indices 1 2 3 4 5 6 
#
# 1 0.018533 -0.005496 -0.004351 0.000000 0.000000 0.000000
# 2 -0.005496 0.010978 -0.004456 0.000000 0.000000 0.000000
# 3 -0.004351 -0.004456 0.014619 0.000000 0.000000 0.000000
# 4 0.000000 0.000000 0.000000 0.037507 0.000000 0.000000
# 5 0.000000 0.000000 0.000000 0.000000 0.040442 0.000000
# 6 0.000000 0.000000 0.000000 0.000000 0.000000 1.114311
#
#
# Mechanical properties :
#
#
# Convention : Reuss Voigt Hill
#
# Bulk Modulus (GPa) = 64.41272 71.54117 67.97695
# Shear Modulus (GPa) = 3.93647 21.44434 12.69041
#
# Velocity S-wave (km/s) = 1.41541 3.30359 2.54137
# Velocity P-wave (km/s) = 5.95423 7.13871 6.57320
#
# Compressibility (1/GPa) = 0.01552488
#
# Stress axis : x y z
#
# Youngs Moduli (GPa) = 53.95661 91.08978 68.40268
#
# Poissons Ratio (x) = 0.50059 0.29764
# Poissons Ratio (y) = 0.29652 0.30481
# Poissons Ratio (z) = 0.23478 0.40591
#
# Static dielectric constant tensor:
#      x y z
#    x 3.585400 0.000000 0.000000 
#    y 0.000000 3.955790 0.000000 
#    z 0.000000 0.000000 12.006310 
# 
# 
# High freq. dielectric constant tensor:
#      x y z
#    x 1.762500 0.000000 0.000000 
#    y 0.000000 1.784850 0.000000 
#    z 0.000000 0.000000 1.765490 
# 
# From -- ./inp_files/12345.got.cif
#   From: 2010.03.12/outbox.cif.g09.slc.cpg/sg74_7_cif.got.tgz:12345.got - 2010.04.16 15:46:19.
