data_PCOD8300014
_publ_section_title
;
Structure prediction by ZEFSAII (Michael W. Deem and Ramdas Pophale) SiO2 
 PCOD8300014
Probable space group: I M M A
;
_chemical_formula_sum "Si O2"
_cell_formula_units_Z 96
_cell_length_a 23.195533
_cell_length_b 14.426368
_cell_length_c 14.429002
_cell_angle_alpha 90.000000
_cell_angle_beta 90.000000
_cell_angle_gamma 90.000000
_cell_volume 4828.337909
_symmetry_space_group_name_H-M "I M M A"
_symmetry_group_IT_number 74
_symmetry_cell_setting 'orthorhombic'
loop_
_space_group_symop_operation_xyz
x,y,z
-x,1/2-y,z
x,-y,-z
-x,1/2+y,-z
-x,-y,-z
x,1/2+y,-z
-x,y,z
x,1/2-y,z
1/2+x,1/2+y,1/2+z
1/2-x,-y,1/2+z
1/2+x,1/2-y,1/2-z
1/2-x,y,1/2-z
1/2-x,1/2-y,1/2-z
1/2+x,y,1/2-z
1/2-x,1/2+y,1/2+z
1/2+x,-y,1/2+z
loop_
_atom_site_type_symbol
_atom_site_label
_atom_site_fract_x
_atom_site_fract_y
_atom_site_fract_z
Si Si1 0.000000 0.646141 0.280613
Si Si2 0.701902 0.359303 0.875088
Si Si3 0.714636 0.148399 0.086329
Si Si4 0.000000 0.391303 0.502825
Si Si5 0.392076 0.532023 0.244336
Si Si6 0.588546 0.850307 0.851613
Si Si7 0.200381 0.007927 0.891210
O O1 0.942908 0.603215 0.235401
O O2 0.000000 0.750000 0.246053
O O3 0.000000 0.643017 0.392220
O O4 0.698153 0.250000 0.848402
O O5 0.652569 0.420795 0.827314
O O6 0.766339 0.399152 0.854739
O O7 0.694531 0.379432 0.983605
O O8 0.743740 0.250000 0.085602
O O9 0.657234 0.147412 0.145595
O O10 0.759321 0.079104 0.134437
O O11 0.000000 0.500000 0.500000
O O12 0.057454 0.354809 0.451573
O O13 0.426622 0.441000 0.207611
O O14 0.360179 0.504293 0.338894
O O15 0.570635 0.750000 0.806981
O O16 0.186915 0.000000 0.000000
#
# Coordination Sequence:
#
# PCOD8300014 Si02
#       7
#     8  16  16   8  16  16  16
#     4  12  26  41  61  89 124 158 197 244 294 355
#     4  10  20  34  57  86 118 154 195 242 297 356
#     4   9  19  35  56  85 121 158 193 238 297 356
#     4  12  22  39  61  88 126 163 194 232 287 355
#     4  12  23  38  59  87 116 160 202 250 293 350
#     4  11  22  35  56  86 122 161 197 235 284 349
#     4  10  22  39  59  83 117 154 199 253 305 354
#
# _framework density 19.882618000000001
#
# number of rings (size 3 to 8) (size 9 to 14) (size 15 to 20)
#    0.000    1.333    3.333    2.750    0.000    4.000 
#    0.000    2.083    0.000    0.000    0.000    0.000 
#    0.000    0.000    0.000    0.000    0.000    0.000 
#
# Total GULP energy -594905.189390 kJ/mol
# GULP energy per Si atom -12393.858112 kJ/mol
# Density = 1.983736 g / cm^3
# Si number density = 19.882618 Si / 1000 Ang^3
#
#
#
# Elastic Constant Matrix: (Units=GPa)
#
#
# Indices 1 2 3 4 5 6 
#
# 1 112.7382 46.0622 41.4401 0.0000 0.0000 0.0000
# 2 46.0622 152.8650 31.4667 0.0000 0.0000 0.0000
# 3 41.4401 31.4667 43.7681 0.0000 0.0000 0.0000
# 4 0.0000 0.0000 0.0000 14.0844 0.0000 0.0000
# 5 0.0000 0.0000 0.0000 0.0000 35.9049 0.0000
# 6 0.0000 0.0000 0.0000 0.0000 0.0000 19.4903
#
#
#
# Elastic Compliance Matrix: (Units=1/GPa)
#
#
# Indices 1 2 3 4 5 6 
#
# 1 0.013992 -0.001748 -0.011991 0.000000 0.000000 0.000000
# 2 -0.001748 0.007896 -0.004022 0.000000 0.000000 0.000000
# 3 -0.011991 -0.004022 0.037093 0.000000 0.000000 0.000000
# 4 0.000000 0.000000 0.000000 0.071001 0.000000 0.000000
# 5 0.000000 0.000000 0.000000 0.000000 0.027851 0.000000
# 6 0.000000 0.000000 0.000000 0.000000 0.000000 0.051308
#
#
# Mechanical properties :
#
#
# Convention : Reuss Voigt Hill
#
# Bulk Modulus (GPa) = 42.62793 60.81213 51.72003
# Shear Modulus (GPa) = 19.80338 26.58940 23.19639
#
# Velocity S-wave (km/s) = 3.15939 3.66090 3.41936
# Velocity P-wave (km/s) = 5.89876 6.96574 6.45434
#
# Compressibility (1/GPa) = 0.02345880
#
# Stress axis : x y z
#
# Youngs Moduli (GPa) = 71.47004 126.64122 26.95946
#
# Poissons Ratio (x) = 0.22134 0.32327
# Poissons Ratio (y) = 0.12491 0.10844
# Poissons Ratio (z) = 0.85700 0.50937
#
# Static dielectric constant tensor:
#      x y z
#    x 3.595350 0.000000 0.000000 
#    y 0.000000 4.169480 0.000000 
#    z 0.000000 0.000000 3.339020 
# 
# 
# High freq. dielectric constant tensor:
#      x y z
#    x 1.764840 0.000000 0.000000 
#    y 0.000000 1.802630 0.000000 
#    z 0.000000 0.000000 1.733210 
# 
# From -- ./inp_files/35321.got.cif
#   From: 2010.03.12/outbox.cif.g09.slc.cpg/sg74_18_cif.got.tgz:35321.got - 2010.04.16 15:46:19.
