data_PCOD8300725
_publ_section_title
;
Structure prediction by ZEFSAII (Michael W. Deem and Ramdas Pophale) SiO2 
 PCOD8300725
Probable space group: I M M A
;
_chemical_formula_sum "Si O2"
_cell_formula_units_Z 64
_cell_length_a 14.904352
_cell_length_b 19.145378
_cell_length_c 10.455871
_cell_angle_alpha 90.000000
_cell_angle_beta 90.000000
_cell_angle_gamma 90.000000
_cell_volume 2983.577069
_symmetry_space_group_name_H-M "I M M A"
_symmetry_group_IT_number 74
_symmetry_cell_setting 'orthorhombic'
loop_
_space_group_symop_operation_xyz
x,y,z
-x,1/2-y,z
x,-y,-z
-x,1/2+y,-z
-x,-y,-z
x,1/2+y,-z
-x,y,z
x,1/2-y,z
1/2+x,1/2+y,1/2+z
1/2-x,-y,1/2+z
1/2+x,1/2-y,1/2-z
1/2-x,y,1/2-z
1/2-x,1/2-y,1/2-z
1/2+x,y,1/2-z
1/2-x,1/2+y,1/2+z
1/2+x,-y,1/2+z
loop_
_atom_site_type_symbol
_atom_site_label
_atom_site_fract_x
_atom_site_fract_y
_atom_site_fract_z
Si Si1 0.102153 0.672756 0.924165
Si Si2 0.398500 0.445166 0.887406
Si Si3 0.895531 0.976998 0.861484
Si Si4 0.264896 0.673788 0.101919
O O1 0.118929 0.750000 0.859599
O O2 0.166937 0.660445 0.043416
O O3 0.000000 0.668986 0.975822
O O4 0.120081 0.606187 0.831508
O O5 0.500000 0.419006 0.862117
O O6 0.355374 0.479107 0.757614
O O7 0.338881 0.381835 0.939724
O O8 0.398049 0.500000 0.000000
O O9 0.000000 0.993924 0.865921
O O10 0.853074 0.000000 0.000000
O O11 0.300766 0.750000 0.059223
O O12 0.250000 0.670024 0.250000
#
# Coordination Sequence:
#
# PCOD8300725 Si02
#       4
#    16  16  16  16
#     4   9  18  34  56  82 111 141 179 232 284 326
#     4  10  22  39  57  81 115 151 185 224 274 332
#     4   9  17  32  56  82 106 140 188 233 272 317
#     4  10  21  35  54  83 114 146 186 228 275 331
#
# _framework density 21.450762000000001
#
# number of rings (size 3 to 8) (size 9 to 14) (size 15 to 20)
#    0.000    2.500    0.000    1.500    0.000    6.500 
#    0.000    3.750    0.000    7.500    0.000    0.000 
#    0.000    0.000    0.000    0.000    0.000    0.000 
#
# Total GULP energy -396442.838081 kJ/mol
# GULP energy per Si atom -12388.838690 kJ/mol
# Density = 2.140194 g / cm^3
# Si number density = 21.450762 Si / 1000 Ang^3
#
#
#
# Elastic Constant Matrix: (Units=GPa)
#
#
# Indices 1 2 3 4 5 6 
#
# 1 86.3290 62.9264 13.2667 0.0000 0.0000 0.0000
# 2 62.9264 154.7458 18.5016 0.0000 0.0000 0.0000
# 3 13.2667 18.5016 64.8792 0.0000 0.0000 0.0000
# 4 0.0000 0.0000 0.0000 19.7432 0.0000 0.0000
# 5 0.0000 0.0000 0.0000 0.0000 11.9694 0.0000
# 6 0.0000 0.0000 0.0000 0.0000 0.0000 -65.9626
#
#
#
# Elastic Compliance Matrix: (Units=1/GPa)
#
#
# Indices 1 2 3 4 5 6 
#
# 1 0.016607 -0.006571 -0.001522 0.000000 0.000000 0.000000
# 2 -0.006571 0.009291 -0.001306 0.000000 0.000000 0.000000
# 3 -0.001522 -0.001306 0.016097 0.000000 0.000000 0.000000
# 4 0.000000 0.000000 0.000000 0.050650 0.000000 0.000000
# 5 0.000000 0.000000 0.000000 0.000000 0.083546 0.000000
# 6 0.000000 0.000000 0.000000 0.000000 0.000000 -0.015160
#
#
# Mechanical properties :
#
#
# Convention : Reuss Voigt Hill
#
# Bulk Modulus (GPa) = 43.10941 55.03817 49.07379
# Shear Modulus (GPa) = 26.65792 7.23395 16.94593
#
# Velocity S-wave (km/s) = 3.52909 1.83839 2.81373
# Velocity P-wave (km/s) = 6.06189 5.49726 5.78646
#
# Compressibility (1/GPa) = 0.02319679
#
# Stress axis : x y z
#
# Youngs Moduli (GPa) = 60.21407 107.63675 62.12412
#
# Poissons Ratio (x) = 0.70732 0.09455
# Poissons Ratio (y) = 0.39569 0.08111
# Poissons Ratio (z) = 0.09164 0.14054
#
# Static dielectric constant tensor:
#      x y z
#    x 4.053020 0.000000 0.000000 
#    y 0.000000 4.530740 0.000000 
#    z 0.000000 0.000000 3.698570 
# 
# 
# High freq. dielectric constant tensor:
#      x y z
#    x 1.829750 0.000000 0.000000 
#    y 0.000000 1.865260 0.000000 
#    z 0.000000 0.000000 1.805900 
# 
# From -- ./inp_files/19933.got.cif
#   From: 2010.03.12/outbox.cif.g09.slc.cpg/sg74_10_cif.got.tgz:19933.got - 2010.04.16 15:46:19.
