data_PCOD8300167
_publ_section_title
;
Structure prediction by ZEFSAII (Michael W. Deem and Ramdas Pophale) SiO2 
 PCOD8300167
Probable space group: I M M A
;
_chemical_formula_sum "Si O2"
_cell_formula_units_Z 88
_cell_length_a 29.680567
_cell_length_b 8.961524
_cell_length_c 17.761801
_cell_angle_alpha 90.000000
_cell_angle_beta 90.000000
_cell_angle_gamma 90.000000
_cell_volume 4724.339131
_symmetry_space_group_name_H-M "I M M A"
_symmetry_group_IT_number 74
_symmetry_cell_setting 'orthorhombic'
loop_
_space_group_symop_operation_xyz
x,y,z
-x,1/2-y,z
x,-y,-z
-x,1/2+y,-z
-x,-y,-z
x,1/2+y,-z
-x,y,z
x,1/2-y,z
1/2+x,1/2+y,1/2+z
1/2-x,-y,1/2+z
1/2+x,1/2-y,1/2-z
1/2-x,y,1/2-z
1/2-x,1/2-y,1/2-z
1/2+x,y,1/2-z
1/2-x,1/2+y,1/2+z
1/2+x,-y,1/2+z
loop_
_atom_site_type_symbol
_atom_site_label
_atom_site_fract_x
_atom_site_fract_y
_atom_site_fract_z
Si Si1 0.948487 0.425958 0.419691
Si Si2 0.198409 0.579089 0.771394
Si Si3 0.880525 0.921378 0.304056
Si Si4 0.674160 0.078571 0.576337
Si Si5 0.000000 0.080066 0.078338
Si Si6 0.920457 0.586449 0.139956
O O1 0.939694 0.500000 0.500000
O O2 0.940380 0.250000 0.426267
O O3 0.912179 0.493943 0.362846
O O4 0.000000 0.459841 0.392919
O O5 0.182168 0.750000 0.777860
O O6 0.250000 0.567125 0.750000
O O7 0.168262 0.499174 0.706611
O O8 0.195418 0.501970 0.852210
O O9 0.873618 0.750000 0.329805
O O10 0.904268 0.931133 0.224306
O O11 0.690186 0.250000 0.575984
O O12 0.620223 0.067027 0.581430
O O13 0.690908 0.000000 0.500000
O O14 0.000000 0.250000 0.058852
O O15 0.956342 0.041629 0.126573
O O16 0.000000 0.000000 0.000000
O O17 0.942409 0.750000 0.128309
#
# Coordination Sequence:
#
# PCOD8300167 Si02
#       6
#    16  16  16  16   8  16
#     4  10  21  37  58  85 117 153 193 238 289 346
#     4  10  21  38  60  85 114 147 185 233 286 341
#     4  10  21  37  59  84 111 147 186 230 281 336
#     4  10  20  35  57  82 108 142 181 224 274 328
#     4  12  24  34  48  70 101 140 179 220 264 306
#     4   9  20  36  52  74 104 140 179 219 264 314
#
# _framework density 18.626944000000002
#
# number of rings (size 3 to 8) (size 9 to 14) (size 15 to 20)
#    0.000    2.000    0.000    4.636    1.273    8.364 
#    0.000    0.909    0.000    4.364    0.000    0.000 
#    0.000    0.000    0.000    0.000    0.000    0.000 
#
# Total GULP energy -545570.148543 kJ/mol
# GULP energy per Si atom -12399.321558 kJ/mol
# Density = 1.858455 g / cm^3
# Si number density = 18.626944 Si / 1000 Ang^3
#
#
#
# Elastic Constant Matrix: (Units=GPa)
#
#
# Indices 1 2 3 4 5 6 
#
# 1 86.9991 60.7205 41.7881 0.0000 0.0000 0.0000
# 2 60.7205 162.3075 54.8395 0.0000 0.0000 0.0000
# 3 41.7881 54.8395 87.4513 0.0000 0.0000 0.0000
# 4 0.0000 0.0000 0.0000 37.2681 0.0000 0.0000
# 5 0.0000 0.0000 0.0000 0.0000 20.9918 0.0000
# 6 0.0000 0.0000 0.0000 0.0000 0.0000 23.7660
#
#
#
# Elastic Compliance Matrix: (Units=1/GPa)
#
#
# Indices 1 2 3 4 5 6 
#
# 1 0.017326 -0.004675 -0.005347 0.000000 0.000000 0.000000
# 2 -0.004675 0.009079 -0.003459 0.000000 0.000000 0.000000
# 3 -0.005347 -0.003459 0.016159 0.000000 0.000000 0.000000
# 4 0.000000 0.000000 0.000000 0.026833 0.000000 0.000000
# 5 0.000000 0.000000 0.000000 0.000000 0.047638 0.000000
# 6 0.000000 0.000000 0.000000 0.000000 0.000000 0.042077
#
#
# Mechanical properties :
#
#
# Convention : Reuss Voigt Hill
#
# Bulk Modulus (GPa) = 64.09971 72.38378 68.24175
# Shear Modulus (GPa) = 26.14038 28.36583 27.25311
#
# Velocity S-wave (km/s) = 3.75021 3.90659 3.82920
# Velocity P-wave (km/s) = 7.29652 7.70017 7.50106
#
# Compressibility (1/GPa) = 0.01560069
#
# Stress axis : x y z
#
# Youngs Moduli (GPa) = 57.71757 110.14540 61.88316
#
# Poissons Ratio (x) = 0.51492 0.33092
# Poissons Ratio (y) = 0.26983 0.21408
# Poissons Ratio (z) = 0.30864 0.38103
#
# Static dielectric constant tensor:
#      x y z
#    x 3.346530 0.000000 0.000000 
#    y 0.000000 3.812610 0.000000 
#    z 0.000000 0.000000 3.374200 
# 
# 
# High freq. dielectric constant tensor:
#      x y z
#    x 1.712860 0.000000 0.000000 
#    y 0.000000 1.742460 0.000000 
#    z 0.000000 0.000000 1.720580 
# 
# From -- ./inp_files/47004.got.cif
#   From: 2010.03.12/outbox.cif.g09.slc.cpg/sg74_24_cif.got.tgz:47004.got - 2010.04.16 15:46:19.
