data_PCOD8300875
_publ_section_title
;
Structure prediction by ZEFSAII (Michael W. Deem and Ramdas Pophale) SiO2 
 PCOD8300875
Probable space group: I M M A
;
_chemical_formula_sum "Si O2"
_cell_formula_units_Z 88
_cell_length_a 8.666774
_cell_length_b 17.919932
_cell_length_c 28.732997
_cell_angle_alpha 90.000000
_cell_angle_beta 90.000000
_cell_angle_gamma 90.000000
_cell_volume 4462.464319
_symmetry_space_group_name_H-M "I M M A"
_symmetry_group_IT_number 74
_symmetry_cell_setting 'orthorhombic'
loop_
_space_group_symop_operation_xyz
x,y,z
-x,1/2-y,z
x,-y,-z
-x,1/2+y,-z
-x,-y,-z
x,1/2+y,-z
-x,y,z
x,1/2-y,z
1/2+x,1/2+y,1/2+z
1/2-x,-y,1/2+z
1/2+x,1/2-y,1/2-z
1/2-x,y,1/2-z
1/2-x,1/2-y,1/2-z
1/2+x,y,1/2-z
1/2-x,1/2+y,1/2+z
1/2+x,-y,1/2+z
loop_
_atom_site_type_symbol
_atom_site_label
_atom_site_fract_x
_atom_site_fract_y
_atom_site_fract_z
Si Si1 0.318380 0.066201 0.531337
Si Si2 0.682490 0.542707 0.365107
Si Si3 0.821438 0.335795 0.699939
Si Si4 0.683103 0.250000 0.301616
Si Si5 0.323141 0.835844 0.959468
Si Si6 0.317270 0.613276 0.859310
O O1 0.500000 0.060955 0.534030
O O2 0.251551 0.059794 0.583263
O O3 0.271190 0.142451 0.505664
O O4 0.247621 0.000000 0.500000
O O5 0.500000 0.530434 0.364677
O O6 0.726164 0.614451 0.335521
O O7 0.762366 0.468886 0.343623
O O8 0.801105 0.250000 0.684689
O O9 0.750000 0.350027 0.750000
O O10 0.000000 0.359338 0.700365
O O11 0.500000 0.250000 0.299205
O O12 0.750000 0.250000 0.250000
O O13 0.737964 0.175650 0.327782
O O14 0.500000 0.854348 0.969551
O O15 0.294799 0.750000 0.949129
O O16 0.264872 0.878197 0.913145
O O17 0.500000 0.622471 0.853799
#
# Coordination Sequence:
#
# PCOD8300875 Si02
#       6
#    16  16  16   8  16  16
#     4  10  21  37  56  84 121 159 202 247 295 350
#     4  11  23  39  62  93 128 164 208 256 307 366
#     4  10  22  42  67  93 122 158 200 249 310 374
#     4  12  26  44  66  92 124 162 206 260 317 370
#     4  10  21  37  58  85 117 157 204 249 298 358
#     4  11  22  40  63  89 122 160 207 256 309 367
#
# _framework density 19.720044999999999
#
# number of rings (size 3 to 8) (size 9 to 14) (size 15 to 20)
#    0.000    1.455    2.727    2.455    0.000    5.455 
#    0.000    7.273    0.000    0.000    0.000    0.000 
#    0.000    0.000    0.000    0.000    0.000    0.000 
#
# Total GULP energy -545726.752502 kJ/mol
# GULP energy per Si atom -12402.880739 kJ/mol
# Density = 1.967516 g / cm^3
# Si number density = 19.720045 Si / 1000 Ang^3
#
#
#
# Elastic Constant Matrix: (Units=GPa)
#
#
# Indices 1 2 3 4 5 6 
#
# 1 81.2063 38.1786 41.2464 0.0000 0.0000 0.0000
# 2 38.1786 97.4913 68.6318 0.0000 0.0000 0.0000
# 3 41.2464 68.6318 112.0554 0.0000 0.0000 0.0000
# 4 0.0000 0.0000 0.0000 55.2964 0.0000 0.0000
# 5 0.0000 0.0000 0.0000 0.0000 32.0082 0.0000
# 6 0.0000 0.0000 0.0000 0.0000 0.0000 36.9353
#
#
#
# Elastic Compliance Matrix: (Units=1/GPa)
#
#
# Indices 1 2 3 4 5 6 
#
# 1 0.015869 -0.003696 -0.003578 0.000000 0.000000 0.000000
# 2 -0.003696 0.018893 -0.010211 0.000000 0.000000 0.000000
# 3 -0.003578 -0.010211 0.016495 0.000000 0.000000 0.000000
# 4 0.000000 0.000000 0.000000 0.018084 0.000000 0.000000
# 5 0.000000 0.000000 0.000000 0.000000 0.031242 0.000000
# 6 0.000000 0.000000 0.000000 0.000000 0.000000 0.027074
#
#
# Mechanical properties :
#
#
# Convention : Reuss Voigt Hill
#
# Bulk Modulus (GPa) = 61.39513 65.20738 63.30126
# Shear Modulus (GPa) = 29.75177 34.36106 32.05642
#
# Velocity S-wave (km/s) = 3.88842 4.17879 4.03622
# Velocity P-wave (km/s) = 7.16664 7.51141 7.34105
#
# Compressibility (1/GPa) = 0.01628794
#
# Stress axis : x y z
#
# Youngs Moduli (GPa) = 63.01573 52.92895 60.62359
#
# Poissons Ratio (x) = 0.19562 0.21688
# Poissons Ratio (y) = 0.23291 0.61905
# Poissons Ratio (z) = 0.22544 0.54047
#
# Static dielectric constant tensor:
#      x y z
#    x 3.547880 0.000000 0.000000 
#    y 0.000000 3.621330 0.000000 
#    z 0.000000 0.000000 3.724740 
# 
# 
# High freq. dielectric constant tensor:
#      x y z
#    x 1.771090 0.000000 0.000000 
#    y 0.000000 1.776780 0.000000 
#    z 0.000000 0.000000 1.770330 
# 
# From -- ./inp_files/70293.got.cif
#   From: 2010.03.12/outbox.cif.g09.slc.cpg/sg74_36_cif.got.tgz:70293.got - 2010.04.16 15:46:19.
