data_PCOD8300264
_publ_section_title
;
Structure prediction by ZEFSAII (Michael W. Deem and Ramdas Pophale) SiO2 
 PCOD8300264
Probable space group: I M M A
;
_chemical_formula_sum "Si O2"
_cell_formula_units_Z 112
_cell_length_a 15.187049
_cell_length_b 27.500238
_cell_length_c 13.807870
_cell_angle_alpha 90.000000
_cell_angle_beta 90.000000
_cell_angle_gamma 90.000000
_cell_volume 5766.821861
_symmetry_space_group_name_H-M "I M M A"
_symmetry_group_IT_number 74
_symmetry_cell_setting 'orthorhombic'
loop_
_space_group_symop_operation_xyz
x,y,z
-x,1/2-y,z
x,-y,-z
-x,1/2+y,-z
-x,-y,-z
x,1/2+y,-z
-x,y,z
x,1/2-y,z
1/2+x,1/2+y,1/2+z
1/2-x,-y,1/2+z
1/2+x,1/2-y,1/2-z
1/2-x,y,1/2-z
1/2-x,1/2-y,1/2-z
1/2+x,y,1/2-z
1/2-x,1/2+y,1/2+z
1/2+x,-y,1/2+z
loop_
_atom_site_type_symbol
_atom_site_label
_atom_site_fract_x
_atom_site_fract_y
_atom_site_fract_z
Si Si1 0.773954 0.693789 0.981106
Si Si2 0.902193 0.442039 0.088263
Si Si3 0.657288 0.145513 0.295450
Si Si4 0.901307 0.044453 0.572226
Si Si5 0.778941 0.596319 0.074410
Si Si6 0.657688 0.524148 0.278943
Si Si7 0.595512 0.305190 0.111700
O O1 0.788630 0.750000 0.014864
O O2 0.829331 0.684075 0.883281
O O3 0.671779 0.680397 0.962740
O O4 0.799953 0.654321 0.063924
O O5 0.893811 0.401913 0.171097
O O6 0.890897 0.494504 0.137273
O O7 0.000000 0.439621 0.042148
O O8 0.828127 0.433856 0.008672
O O9 0.750000 0.130102 0.250000
O O10 0.596284 0.167236 0.213008
O O11 0.825563 0.085269 0.560956
O O12 0.902997 0.027350 0.684275
O O13 0.000000 0.064888 0.548772
O O14 0.879822 0.000000 0.500000
O O15 0.816418 0.577606 0.177187
O O16 0.750000 0.498157 0.250000
O O17 0.500000 0.313824 0.062227
O O18 0.611456 0.250000 0.141235
#
# Coordination Sequence:
#
# PCOD8300264 Si02
#       7
#    16  16  16  16  16  16  16
#     4   9  18  32  49  70  97 134 181 228 274 321
#     4  11  21  32  51  80 111 144 179 213 255 312
#     4   9  17  29  45  67 101 143 183 224 267 316
#     4  10  21  37  58  83 109 140 176 213 261 321
#     4  10  21  36  55  79 109 143 178 220 265 311
#     4  10  20  36  55  75 107 142 173 213 261 315
#     4   9  16  26  43  69 102 140 180 222 268 317
#
# _framework density 19.421441999999999
#
# number of rings (size 3 to 8) (size 9 to 14) (size 15 to 20)
#    0.000    2.286    0.000    3.857    0.000    6.286 
#    0.000    1.429    0.000    7.714    0.000    0.000 
#    0.000    0.000    0.000    0.000    0.000    0.000 
#
# Total GULP energy -693970.457601 kJ/mol
# GULP energy per Si atom -12392.329600 kJ/mol
# Density = 1.937724 g / cm^3
# Si number density = 19.421442 Si / 1000 Ang^3
#
#
#
# Elastic Constant Matrix: (Units=GPa)
#
#
# Indices 1 2 3 4 5 6 
#
# 1 82.1419 19.5361 15.2397 0.0000 0.0000 0.0000
# 2 19.5361 105.7025 40.6009 -0.0001 0.0000 0.0000
# 3 15.2397 40.6009 71.4464 -0.0006 0.0000 0.0000
# 4 0.0000 -0.0001 -0.0006 24.5332 0.0000 0.0000
# 5 0.0000 0.0000 0.0000 0.0000 17.1599 0.0000
# 6 0.0000 0.0000 0.0000 0.0000 0.0000 12.5530
#
#
#
# Elastic Compliance Matrix: (Units=1/GPa)
#
#
# Indices 1 2 3 4 5 6 
#
# 1 0.012910 -0.001699 -0.001788 0.000000 0.000000 0.000000
# 2 -0.001699 0.012326 -0.006642 0.000000 0.000000 0.000000
# 3 -0.001788 -0.006642 0.018152 0.000000 0.000000 0.000000
# 4 0.000000 0.000000 0.000000 0.040761 0.000000 0.000000
# 5 0.000000 0.000000 0.000000 0.000000 0.058276 0.000000
# 6 0.000000 0.000000 0.000000 0.000000 0.000000 0.079662
#
#
# Mechanical properties :
#
#
# Convention : Reuss Voigt Hill
#
# Bulk Modulus (GPa) = 43.23477 45.56046 44.39762
# Shear Modulus (GPa) = 19.99557 23.11015 21.55286
#
# Velocity S-wave (km/s) = 3.21216 3.45328 3.33490
# Velocity P-wave (km/s) = 6.00558 6.27773 6.14316
#
# Compressibility (1/GPa) = 0.02312953
#
# Stress axis : x y z
#
# Youngs Moduli (GPa) = 77.45979 81.13090 55.08933
#
# Poissons Ratio (x) = 0.13786 0.09851
# Poissons Ratio (y) = 0.13162 0.36590
# Poissons Ratio (z) = 0.13851 0.53887
#
# Static dielectric constant tensor:
#      x y z
#    x 3.712950 0.000000 0.000000 
#    y 0.000000 3.455420 0.000000 
#    z 0.000000 0.000000 3.423210 
# 
# 
# High freq. dielectric constant tensor:
#      x y z
#    x 1.762110 0.000000 0.000000 
#    y 0.000000 1.739970 0.000000 
#    z 0.000000 0.000000 1.733680 
# 
# From -- ./inp_files/33168.got.cif
#   From: 2010.03.12/outbox.cif.g09.slc.cpg/sg74_17_cif.got.tgz:33168.got - 2010.04.16 15:46:19.
