data_PCOD8300002
_publ_section_title
;
Structure prediction by ZEFSAII (Michael W. Deem and Ramdas Pophale) SiO2 
 PCOD8300002
Probable space group: I M M A
;
_chemical_formula_sum "Si O2"
_cell_formula_units_Z 88
_cell_length_a 19.579576
_cell_length_b 15.618634
_cell_length_c 14.535996
_cell_angle_alpha 90.000000
_cell_angle_beta 90.000000
_cell_angle_gamma 90.000000
_cell_volume 4445.198157
_symmetry_space_group_name_H-M "I M M A"
_symmetry_group_IT_number 74
_symmetry_cell_setting 'orthorhombic'
loop_
_space_group_symop_operation_xyz
x,y,z
-x,1/2-y,z
x,-y,-z
-x,1/2+y,-z
-x,-y,-z
x,1/2+y,-z
-x,y,z
x,1/2-y,z
1/2+x,1/2+y,1/2+z
1/2-x,-y,1/2+z
1/2+x,1/2-y,1/2-z
1/2-x,y,1/2-z
1/2-x,1/2-y,1/2-z
1/2+x,y,1/2-z
1/2-x,1/2+y,1/2+z
1/2+x,-y,1/2+z
loop_
_atom_site_type_symbol
_atom_site_label
_atom_site_fract_x
_atom_site_fract_y
_atom_site_fract_z
Si Si1 0.580591 0.909516 0.034008
Si Si2 0.578947 0.844518 0.423057
Si Si3 0.917985 0.250000 0.413732
Si Si4 0.840870 0.500000 0.000000
Si Si5 0.683635 0.433961 0.312278
Si Si6 0.170491 0.750000 0.770489
Si Si7 0.421365 0.065579 0.761876
O O1 0.500000 0.910900 0.023664
O O2 0.601765 0.894909 0.140328
O O3 0.608089 0.832425 0.971121
O O4 0.611677 0.000000 0.000000
O O5 0.500000 0.846723 0.448783
O O6 0.609445 0.750000 0.443721
O O7 0.613376 0.916297 0.485206
O O8 0.590002 0.861931 0.314611
O O9 0.877553 0.250000 0.318800
O O10 0.000000 0.250000 0.397466
O O11 0.796483 0.521226 0.909517
O O12 0.750000 0.438087 0.250000
O O13 0.656692 0.336736 0.328058
O O14 0.622044 0.482000 0.262040
O O15 0.250000 0.750000 0.750000
O O16 0.500000 0.035057 0.766233
#
# Coordination Sequence:
#
# PCOD8300002 Si02
#       7
#    16  16   8   8  16   8  16
#     4   9  17  29  49  81 116 148 186 233 281 336
#     4   9  18  32  56  87 119 151 187 235 293 345
#     4  10  20  34  56  87 119 155 199 237 287 351
#     4  10  21  38  62  82 113 152 196 244 284 348
#     4  10  22  41  60  85 116 154 199 238 293 351
#     4  10  22  40  56  77 117 154 193 243 288 346
#     4   9  18  34  57  85 120 153 188 238 290 342
#
# _framework density 19.796641999999999
#
# number of rings (size 3 to 8) (size 9 to 14) (size 15 to 20)
#    0.000    2.545    0.000    1.364    2.545    2.909 
#    8.182    0.000    0.000    8.727    0.000    0.000 
#    0.000    0.000    0.000    0.000    0.000    0.000 
#
# Total GULP energy -545357.706099 kJ/mol
# GULP energy per Si atom -12394.493320 kJ/mol
# Density = 1.975158 g / cm^3
# Si number density = 19.796642 Si / 1000 Ang^3
#
#
#
# Elastic Constant Matrix: (Units=GPa)
#
#
# Indices 1 2 3 4 5 6 
#
# 1 51.8065 36.2175 31.6077 0.0000 0.0000 0.0000
# 2 36.2175 164.5268 46.3119 0.0000 0.0000 0.0000
# 3 31.6077 46.3119 112.0392 0.0000 0.0000 0.0000
# 4 0.0000 0.0000 0.0000 30.1338 0.0000 0.0000
# 5 0.0000 0.0000 0.0000 0.0000 24.1835 0.0000
# 6 0.0000 0.0000 0.0000 0.0000 0.0000 21.5934
#
#
#
# Elastic Compliance Matrix: (Units=1/GPa)
#
#
# Indices 1 2 3 4 5 6 
#
# 1 0.025509 -0.004062 -0.005517 0.000000 0.000000 0.000000
# 2 -0.004062 0.007525 -0.001965 0.000000 0.000000 0.000000
# 3 -0.005517 -0.001965 0.011294 0.000000 0.000000 0.000000
# 4 0.000000 0.000000 0.000000 0.033185 0.000000 0.000000
# 5 0.000000 0.000000 0.000000 0.000000 0.041351 0.000000
# 6 0.000000 0.000000 0.000000 0.000000 0.000000 0.046311
#
#
# Mechanical properties :
#
#
# Convention : Reuss Voigt Hill
#
# Bulk Modulus (GPa) = 47.08135 61.84964 54.46550
# Shear Modulus (GPa) = 25.59613 29.46449 27.53031
#
# Velocity S-wave (km/s) = 3.59967 3.86211 3.73320
# Velocity P-wave (km/s) = 6.41178 7.15529 6.79371
#
# Compressibility (1/GPa) = 0.02123983
#
# Stress axis : x y z
#
# Youngs Moduli (GPa) = 39.20259 132.88568 88.54277
#
# Poissons Ratio (x) = 0.53981 0.48850
# Poissons Ratio (y) = 0.15925 0.17395
# Poissons Ratio (z) = 0.21629 0.26107
#
# Static dielectric constant tensor:
#      x y z
#    x 3.211880 0.000000 0.000000 
#    y 0.000000 4.061550 0.000000 
#    z 0.000000 0.000000 3.723500 
# 
# 
# High freq. dielectric constant tensor:
#      x y z
#    x 1.734620 0.000000 0.000000 
#    y 0.000000 1.785210 0.000000 
#    z 0.000000 0.000000 1.779750 
# 
# From -- ./inp_files/32248.got.cif
#   From: 2010.03.12/outbox.cif.g09.slc.cpg/sg74_17_cif.got.tgz:32248.got - 2010.04.16 15:46:19.
