data_PCOD8300454
_publ_section_title
;
Structure prediction by ZEFSAII (Michael W. Deem and Ramdas Pophale) SiO2 
 PCOD8300454
Probable space group: I M M A
;
_chemical_formula_sum "Si O2"
_cell_formula_units_Z 80
_cell_length_a 23.197202
_cell_length_b 15.079960
_cell_length_c 10.162682
_cell_angle_alpha 90.000000
_cell_angle_beta 90.000000
_cell_angle_gamma 90.000000
_cell_volume 3555.037041
_symmetry_space_group_name_H-M "I M M A"
_symmetry_group_IT_number 74
_symmetry_cell_setting 'orthorhombic'
loop_
_space_group_symop_operation_xyz
x,y,z
-x,1/2-y,z
x,-y,-z
-x,1/2+y,-z
-x,-y,-z
x,1/2+y,-z
-x,y,z
x,1/2-y,z
1/2+x,1/2+y,1/2+z
1/2-x,-y,1/2+z
1/2+x,1/2-y,1/2-z
1/2-x,y,1/2-z
1/2-x,1/2-y,1/2-z
1/2+x,y,1/2-z
1/2-x,1/2+y,1/2+z
1/2+x,-y,1/2+z
loop_
_atom_site_type_symbol
_atom_site_label
_atom_site_fract_x
_atom_site_fract_y
_atom_site_fract_z
Si Si1 0.846006 0.652086 0.218818
Si Si2 0.562930 0.150705 0.151548
Si Si3 0.395268 0.477365 0.356055
Si Si4 0.797127 0.151000 0.063610
Si Si5 0.823048 0.395807 0.500403
O O1 0.875565 0.750000 0.209176
O O2 0.891172 0.570768 0.221038
O O3 0.811657 0.646025 0.355837
O O4 0.804946 0.637612 0.093325
O O5 0.500000 0.139837 0.081825
O O6 0.569868 0.250000 0.206588
O O7 0.561777 0.084854 0.276131
O O8 0.614123 0.132269 0.049962
O O9 0.420108 0.500000 0.500000
O O10 0.334150 0.424057 0.361830
O O11 0.816367 0.250000 0.108099
O O12 0.728826 0.139198 0.093200
O O13 0.819350 0.500000 0.500000
#
# Coordination Sequence:
#
# PCOD8300454 Si02
#       5
#    16  16  16  16  16
#     4  10  20  37  59  90 127 163 198 243 306 372
#     4  11  25  44  65  89 121 164 213 263 314 369
#     4  10  21  41  63  92 123 160 204 258 312 376
#     4  10  21  36  62  96 130 162 199 248 309 378
#     4  12  22  38  62  91 127 167 203 251 311 375
#
# _framework density 22.503281000000001
#
# number of rings (size 3 to 8) (size 9 to 14) (size 15 to 20)
#    0.000    1.400    2.000    4.800    0.000    4.000 
#    0.000    2.000    0.000    0.600    0.000    5.600 
#    0.000    0.000    0.000    0.000    0.000    0.000 
#
# Total GULP energy -495737.153504 kJ/mol
# GULP energy per Si atom -12393.428838 kJ/mol
# Density = 2.245206 g / cm^3
# Si number density = 22.503281 Si / 1000 Ang^3
#
#
#
# Elastic Constant Matrix: (Units=GPa)
#
#
# Indices 1 2 3 4 5 6 
#
# 1 94.0713 28.8061 11.1869 0.0000 0.0000 0.0000
# 2 28.8061 189.8406 17.4873 0.0000 0.0000 0.0000
# 3 11.1869 17.4873 29.4701 0.0000 0.0000 0.0000
# 4 0.0000 0.0000 0.0000 19.2462 0.0000 0.0000
# 5 0.0000 0.0000 0.0000 0.0000 16.5800 0.0000
# 6 0.0000 0.0000 0.0000 0.0000 0.0000 24.6202
#
#
#
# Elastic Compliance Matrix: (Units=1/GPa)
#
#
# Indices 1 2 3 4 5 6 
#
# 1 0.011483 -0.001418 -0.003517 0.000000 0.000000 0.000000
# 2 -0.001418 0.005747 -0.002872 0.000000 0.000000 0.000000
# 3 -0.003517 -0.002872 0.036972 0.000000 0.000000 0.000000
# 4 0.000000 0.000000 0.000000 0.051958 0.000000 0.000000
# 5 0.000000 0.000000 0.000000 0.000000 0.060314 0.000000
# 6 0.000000 0.000000 0.000000 0.000000 0.000000 0.040617
#
#
# Mechanical properties :
#
#
# Convention : Reuss Voigt Hill
#
# Bulk Modulus (GPa) = 25.91545 47.59361 36.75453
# Shear Modulus (GPa) = 21.22520 29.14938 25.18729
#
# Velocity S-wave (km/s) = 3.07450 3.60299 3.34918
# Velocity P-wave (km/s) = 4.91372 6.20518 5.59682
#
# Compressibility (1/GPa) = 0.03858702
#
# Stress axis : x y z
#
# Youngs Moduli (GPa) = 87.08645 173.99299 27.04743
#
# Poissons Ratio (x) = 0.24679 0.09513
# Poissons Ratio (y) = 0.12352 0.07768
# Poissons Ratio (z) = 0.30630 0.49971
#
# Static dielectric constant tensor:
#      x y z
#    x 3.966060 0.000000 0.000000 
#    y 0.000000 4.506860 0.000000 
#    z 0.000000 0.000000 4.036600 
# 
# 
# High freq. dielectric constant tensor:
#      x y z
#    x 1.847460 0.000000 0.000000 
#    y 0.000000 1.917640 0.000000 
#    z 0.000000 0.000000 1.878360 
# 
# From -- ./inp_files/24879.got.cif
#   From: 2010.03.12/outbox.cif.g09.slc.cpg/sg74_13_cif.got.tgz:24879.got - 2010.04.16 15:46:19.
