data_PCOD8300710
_publ_section_title
;
Structure prediction by ZEFSAII (Michael W. Deem and Ramdas Pophale) SiO2 
 PCOD8300710
Probable space group: I M M A
;
_chemical_formula_sum "Si O2"
_cell_formula_units_Z 96
_cell_length_a 25.602653
_cell_length_b 14.295124
_cell_length_c 14.301031
_cell_angle_alpha 90.000000
_cell_angle_beta 90.000000
_cell_angle_gamma 90.000000
_cell_volume 5234.078660
_symmetry_space_group_name_H-M "I M M A"
_symmetry_group_IT_number 74
_symmetry_cell_setting 'orthorhombic'
loop_
_space_group_symop_operation_xyz
x,y,z
-x,1/2-y,z
x,-y,-z
-x,1/2+y,-z
-x,-y,-z
x,1/2+y,-z
-x,y,z
x,1/2-y,z
1/2+x,1/2+y,1/2+z
1/2-x,-y,1/2+z
1/2+x,1/2-y,1/2-z
1/2-x,y,1/2-z
1/2-x,1/2-y,1/2-z
1/2+x,y,1/2-z
1/2-x,1/2+y,1/2+z
1/2+x,-y,1/2+z
loop_
_atom_site_type_symbol
_atom_site_label
_atom_site_fract_x
_atom_site_fract_y
_atom_site_fract_z
Si Si1 0.438639 0.592354 0.095939
Si Si2 0.697789 0.750000 0.625623
Si Si3 0.942611 0.355799 0.201312
Si Si4 0.872592 0.097308 0.048893
Si Si5 0.180720 0.750000 0.657059
Si Si6 0.402702 0.389776 0.101754
Si Si7 0.438430 0.250000 0.767394
Si Si8 0.437478 0.750000 0.445142
O O1 0.500000 0.565169 0.104303
O O2 0.401468 0.502096 0.104386
O O3 0.418467 0.658215 0.178833
O O4 0.428704 0.642473 0.996006
O O5 0.679392 0.842318 0.569200
O O6 0.759667 0.750000 0.627147
O O7 0.673620 0.750000 0.730329
O O8 0.935245 0.250000 0.161644
O O9 0.901080 0.422518 0.148721
O O10 0.937327 0.353259 0.312628
O O11 0.000000 0.393475 0.176617
O O12 0.914131 0.155077 0.987575
O O13 0.856974 0.000000 0.000000
O O14 0.154523 0.656465 0.613876
O O15 0.500000 0.250000 0.774601
O O16 0.418656 0.250000 0.662232
O O17 0.500000 0.750000 0.455723
#
# Coordination Sequence:
#
# PCOD8300710 Si02
#       8
#    16   8  16  16   8  16   8   8
#     4  10  21  35  52  82 124 155 186 224 267 347
#     4  10  22  44  58  86 110 137 195 250 305 332
#     4  11  20  32  53  84 120 148 184 231 281 343
#     4  11  22  38  58  81 112 151 193 237 288 337
#     4  11  21  38  68  81 109 144 182 254 302 343
#     4  11  19  35  54  85 111 147 187 228 291 337
#     4   9  20  34  49  72 113 166 193 210 258 321
#     4  10  21  36  51  80 118 154 194 227 264 341
#
# _framework density 18.341336999999999
#
# number of rings (size 3 to 8) (size 9 to 14) (size 15 to 20)
#    0.000    1.500    4.167    3.000    2.333    1.333 
#    3.000    0.000    0.000    0.000    0.000    2.333 
#    0.000    0.000    0.000    0.000    0.000    0.000 
#
# Total GULP energy -595006.898296 kJ/mol
# GULP energy per Si atom -12395.977048 kJ/mol
# Density = 1.829959 g / cm^3
# Si number density = 18.341337 Si / 1000 Ang^3
#
#
#
# Elastic Constant Matrix: (Units=GPa)
#
#
# Indices 1 2 3 4 5 6 
#
# 1 97.9109 50.7874 36.1484 0.0000 0.0000 0.0000
# 2 50.7874 111.1971 46.2090 0.0000 0.0000 0.0000
# 3 36.1484 46.2090 101.6897 0.0000 0.0000 0.0000
# 4 0.0000 0.0000 0.0000 29.7215 0.0000 0.0000
# 5 0.0000 0.0000 0.0000 0.0000 23.8460 0.0000
# 6 0.0000 0.0000 0.0000 0.0000 0.0000 17.3813
#
#
#
# Elastic Compliance Matrix: (Units=1/GPa)
#
#
# Indices 1 2 3 4 5 6 
#
# 1 0.013894 -0.005293 -0.002534 0.000000 0.000000 0.000000
# 2 -0.005293 0.013103 -0.004073 0.000000 0.000000 0.000000
# 3 -0.002534 -0.004073 0.012585 0.000000 0.000000 0.000000
# 4 0.000000 0.000000 0.000000 0.033646 0.000000 0.000000
# 5 0.000000 0.000000 0.000000 0.000000 0.041936 0.000000
# 6 0.000000 0.000000 0.000000 0.000000 0.000000 0.057533
#
#
# Mechanical properties :
#
#
# Convention : Reuss Voigt Hill
#
# Bulk Modulus (GPa) = 63.35734 64.12081 63.73908
# Shear Modulus (GPa) = 24.78223 26.03328 25.40775
#
# Velocity S-wave (km/s) = 3.67981 3.77155 3.72596
# Velocity P-wave (km/s) = 7.25763 7.34859 7.30325
#
# Compressibility (1/GPa) = 0.01578349
#
# Stress axis : x y z
#
# Youngs Moduli (GPa) = 71.97113 76.31869 79.45824
#
# Poissons Ratio (x) = 0.40396 0.20134
# Poissons Ratio (y) = 0.38095 0.32360
# Poissons Ratio (z) = 0.18237 0.31081
#
# Static dielectric constant tensor:
#      x y z
#    x 3.061990 0.000000 0.000000 
#    y 0.000000 3.371480 0.000000 
#    z 0.000000 0.000000 3.791250 
# 
# 
# High freq. dielectric constant tensor:
#      x y z
#    x 1.674690 0.000000 0.000000 
#    y 0.000000 1.704110 0.000000 
#    z 0.000000 0.000000 1.728500 
# 
# From -- ./inp_files/37356.got.cif
#   From: 2010.03.12/outbox.cif.g09.slc.cpg/sg74_19_cif.got.tgz:37356.got - 2010.04.16 15:46:19.
