data_PCOD8300155
_publ_section_title
;
Structure prediction by ZEFSAII (Michael W. Deem and Ramdas Pophale) SiO2 
 PCOD8300155
Probable space group: I M M A
;
_chemical_formula_sum "Si O2"
_cell_formula_units_Z 104
_cell_length_a 8.880604
_cell_length_b 20.552081
_cell_length_c 28.307628
_cell_angle_alpha 90.000000
_cell_angle_beta 90.000000
_cell_angle_gamma 90.000000
_cell_volume 5166.563688
_symmetry_space_group_name_H-M "I M M A"
_symmetry_group_IT_number 74
_symmetry_cell_setting 'orthorhombic'
loop_
_space_group_symop_operation_xyz
x,y,z
-x,1/2-y,z
x,-y,-z
-x,1/2+y,-z
-x,-y,-z
x,1/2+y,-z
-x,y,z
x,1/2-y,z
1/2+x,1/2+y,1/2+z
1/2-x,-y,1/2+z
1/2+x,1/2-y,1/2-z
1/2-x,y,1/2-z
1/2-x,1/2-y,1/2-z
1/2+x,y,1/2-z
1/2-x,1/2+y,1/2+z
1/2+x,-y,1/2+z
loop_
_atom_site_type_symbol
_atom_site_label
_atom_site_fract_x
_atom_site_fract_y
_atom_site_fract_z
Si Si1 0.824862 0.382908 0.879563
Si Si2 0.178671 0.016350 0.799706
Si Si3 0.670300 0.750000 0.510986
Si Si4 0.822487 0.750000 0.699348
Si Si5 0.669005 0.862390 0.944876
Si Si6 0.674219 0.389080 0.159878
Si Si7 0.161899 0.430460 0.981123
Si Si8 0.321093 0.750000 0.091319
O O1 0.766828 0.428610 0.836823
O O2 0.792686 0.425324 0.926436
O O3 0.736978 0.314369 0.881574
O O4 0.000000 0.366584 0.873032
O O5 0.250000 0.036463 0.750000
O O6 0.230815 0.943662 0.813400
O O7 0.000000 0.014886 0.795919
O O8 0.500000 0.750000 0.494034
O O9 0.706076 0.808607 0.545875
O O10 0.768670 0.750000 0.463255
O O11 0.750000 0.750000 0.750000
O O12 0.770462 0.684209 0.672476
O O13 0.000000 0.750000 0.704421
O O14 0.500000 0.833482 0.945175
O O15 0.701025 0.898834 0.895895
O O16 0.692536 0.909958 0.988880
O O17 0.500000 0.398398 0.173837
O O18 0.000000 0.391291 0.987583
O O19 0.121689 0.500000 0.000000
O O20 0.500000 0.750000 0.092186
#
# Coordination Sequence:
#
# PCOD8300155 Si02
#       8
#    16  16   8   8  16  16  16   8
#     4  10  22  41  64  90 125 167 209 258 321 390
#     4  11  24  43  68  95 124 163 210 262 322 387
#     4  12  23  37  57  83 122 169 209 247 301 369
#     4  10  21  38  58  82 115 159 208 259 315 367
#     4  11  22  36  56  85 119 157 203 251 299 353
#     4  10  22  40  61  88 127 169 209 261 319 374
#     4  10  20  35  56  83 118 161 202 243 298 367
#     4  12  24  39  64  95 125 160 207 264 318 380
#
# _framework density 20.129432999999999
#
# number of rings (size 3 to 8) (size 9 to 14) (size 15 to 20)
#    0.000    1.385    1.538    4.154    0.000    7.077 
#    0.000    1.154    0.000    0.000    0.000    0.000 
#    0.000    0.000    0.000    0.000    0.000    0.000 
#
# Total GULP energy -644398.984666 kJ/mol
# GULP energy per Si atom -12392.288167 kJ/mol
# Density = 2.008362 g / cm^3
# Si number density = 20.129433 Si / 1000 Ang^3
#
#
#
# Elastic Constant Matrix: (Units=GPa)
#
#
# Indices 1 2 3 4 5 6 
#
# 1 84.1387 47.0361 52.2229 0.0000 0.0000 0.0000
# 2 47.0361 118.1632 57.3979 0.0000 0.0000 0.0000
# 3 52.2229 57.3979 147.8325 0.0000 0.0000 0.0000
# 4 0.0000 0.0000 0.0000 35.5226 0.0000 0.0000
# 5 0.0000 0.0000 0.0000 0.0000 34.6664 0.0000
# 6 0.0000 0.0000 0.0000 0.0000 0.0000 28.4321
#
#
#
# Elastic Compliance Matrix: (Units=1/GPa)
#
#
# Indices 1 2 3 4 5 6 
#
# 1 0.017176 -0.004794 -0.004206 0.000000 0.000000 0.000000
# 2 -0.004794 0.011768 -0.002876 0.000000 0.000000 0.000000
# 3 -0.004206 -0.002876 0.009367 0.000000 0.000000 0.000000
# 4 0.000000 0.000000 0.000000 0.028151 0.000000 0.000000
# 5 0.000000 0.000000 0.000000 0.000000 0.028846 0.000000
# 6 0.000000 0.000000 0.000000 0.000000 0.000000 0.035172
#
#
# Mechanical properties :
#
#
# Convention : Reuss Voigt Hill
#
# Bulk Modulus (GPa) = 68.68505 73.71645 71.20075
# Shear Modulus (GPa) = 31.43002 32.62272 32.02637
#
# Velocity S-wave (km/s) = 3.95574 4.03009 3.99309
# Velocity P-wave (km/s) = 7.42021 7.63913 7.53047
#
# Compressibility (1/GPa) = 0.01455921
#
# Stress axis : x y z
#
# Youngs Moduli (GPa) = 58.22184 84.97674 106.76040
#
# Poissons Ratio (x) = 0.40736 0.44905
# Poissons Ratio (y) = 0.27910 0.30700
# Poissons Ratio (z) = 0.24489 0.24436
#
# Static dielectric constant tensor:
#      x y z
#    x 3.720920 0.000000 0.000000 
#    y 0.000000 3.686750 0.000000 
#    z 0.000000 0.000000 3.746560 
# 
# 
# High freq. dielectric constant tensor:
#      x y z
#    x 1.785550 0.000000 0.000000 
#    y 0.000000 1.788890 0.000000 
#    z 0.000000 0.000000 1.783940 
# 
# From -- ./inp_files/64541.got.cif
#   From: 2010.03.12/outbox.cif.g09.slc.cpg/sg74_33_cif.got.tgz:64541.got - 2010.04.16 15:46:19.
