data_PCOD8300050
_publ_section_title
;
Structure prediction by ZEFSAII (Michael W. Deem and Ramdas Pophale) SiO2 
 PCOD8300050
Probable space group: I M M A
;
_chemical_formula_sum "Si O2"
_cell_formula_units_Z 64
_cell_length_a 19.003932
_cell_length_b 8.518335
_cell_length_c 23.117835
_cell_angle_alpha 90.000000
_cell_angle_beta 90.000000
_cell_angle_gamma 90.000000
_cell_volume 3742.358108
_symmetry_space_group_name_H-M "I M M A"
_symmetry_group_IT_number 74
_symmetry_cell_setting 'orthorhombic'
loop_
_space_group_symop_operation_xyz
x,y,z
-x,1/2-y,z
x,-y,-z
-x,1/2+y,-z
-x,-y,-z
x,1/2+y,-z
-x,y,z
x,1/2-y,z
1/2+x,1/2+y,1/2+z
1/2-x,-y,1/2+z
1/2+x,1/2-y,1/2-z
1/2-x,y,1/2-z
1/2-x,1/2-y,1/2-z
1/2+x,y,1/2-z
1/2-x,1/2+y,1/2+z
1/2+x,-y,1/2+z
loop_
_atom_site_type_symbol
_atom_site_label
_atom_site_fract_x
_atom_site_fract_y
_atom_site_fract_z
Si Si1 0.000000 0.433999 0.751237
Si Si2 0.853661 0.933193 0.724639
Si Si3 0.275431 0.069425 0.669243
Si Si4 0.500000 0.932491 0.621982
Si Si5 0.365804 0.567689 0.438629
O O1 0.067270 0.505789 0.719210
O O2 0.000000 0.468477 0.819394
O O3 0.000000 0.250000 0.742374
O O4 0.851568 0.750000 0.712468
O O5 0.805670 0.018535 0.676328
O O6 0.824537 0.966989 0.788771
O O7 0.285017 0.250000 0.687547
O O8 0.299461 0.041372 0.603624
O O9 0.500000 0.750000 0.638751
O O10 0.567587 0.971949 0.583941
O O11 0.342033 0.500000 0.500000
O O12 0.386433 0.750000 0.443216
#
# Coordination Sequence:
#
# PCOD8300050 Si02
#       5
#     8  16  16   8  16
#     4  12  22  35  53  76 107 141 175 211 262 319
#     4  11  21  33  53  78 104 134 172 217 262 309
#     4  10  20  35  53  74 103 139 174 214 262 310
#     4  12  23  35  52  74 105 139 181 221 258 305
#     4  11  23  37  54  74 104 142 182 219 259 305
#
# _framework density 17.101516
#
# number of rings (size 3 to 8) (size 9 to 14) (size 15 to 20)
#    0.000    1.000    2.500    7.875    0.000    3.000 
#    0.000    0.000    0.000    0.000    0.000    0.875 
#    0.000    0.000    0.000    0.000    0.000    0.000 
#
# Total GULP energy -396961.574240 kJ/mol
# GULP energy per Si atom -12405.049195 kJ/mol
# Density = 1.706259 g / cm^3
# Si number density = 17.101516 Si / 1000 Ang^3
#
#
#
# Elastic Constant Matrix: (Units=GPa)
#
#
# Indices 1 2 3 4 5 6 
#
# 1 129.1501 28.2521 49.3504 0.0000 0.0000 0.0000
# 2 28.2521 86.1263 23.6559 0.0000 0.0000 0.0000
# 3 49.3504 23.6559 80.3575 0.0000 0.0000 0.0000
# 4 0.0000 0.0000 0.0000 25.3053 0.0000 0.0000
# 5 0.0000 0.0000 0.0000 0.0000 15.6612 0.0000
# 6 0.0000 0.0000 0.0000 0.0000 0.0000 26.7240
#
#
#
# Elastic Compliance Matrix: (Units=1/GPa)
#
#
# Indices 1 2 3 4 5 6 
#
# 1 0.010367 -0.001797 -0.005837 0.000000 0.000000 0.000000
# 2 -0.001797 0.012944 -0.002707 0.000000 0.000000 0.000000
# 3 -0.005837 -0.002707 0.016826 0.000000 0.000000 0.000000
# 4 0.000000 0.000000 0.000000 0.039517 0.000000 0.000000
# 5 0.000000 0.000000 0.000000 0.000000 0.063852 0.000000
# 6 0.000000 0.000000 0.000000 0.000000 0.000000 0.037419
#
#
# Mechanical properties :
#
#
# Convention : Reuss Voigt Hill
#
# Bulk Modulus (GPa) = 51.40360 55.35008 53.37684
# Shear Modulus (GPa) = 24.02772 26.49647 25.26210
#
# Velocity S-wave (km/s) = 3.75241 3.94047 3.84759
# Velocity P-wave (km/s) = 6.99266 7.28964 7.14269
#
# Compressibility (1/GPa) = 0.01945389
#
# Stress axis : x y z
#
# Youngs Moduli (GPa) = 96.46293 77.25681 59.43113
#
# Poissons Ratio (x) = 0.13885 0.34693
# Poissons Ratio (y) = 0.17337 0.16086
# Poissons Ratio (z) = 0.56310 0.20911
#
# Static dielectric constant tensor:
#      x y z
#    x 3.346490 0.000000 0.000000 
#    y 0.000000 3.385540 0.000000 
#    z 0.000000 0.000000 3.041120 
# 
# 
# High freq. dielectric constant tensor:
#      x y z
#    x 1.658290 0.000000 0.000000 
#    y 0.000000 1.683760 0.000000 
#    z 0.000000 0.000000 1.628200 
# 
# From -- ./inp_files/52562.got.cif
#   From: 2010.03.12/outbox.cif.g09.slc.cpg/sg74_27_cif.got.tgz:52562.got - 2010.04.16 15:46:19.
