data_PCOD8300230
_publ_section_title
;
Structure prediction by ZEFSAII (Michael W. Deem and Ramdas Pophale) SiO2 
 PCOD8300230
Probable space group: I M M A
;
_chemical_formula_sum "Si O2"
_cell_formula_units_Z 96
_cell_length_a 22.886743
_cell_length_b 17.774954
_cell_length_c 11.482155
_cell_angle_alpha 90.000000
_cell_angle_beta 90.000000
_cell_angle_gamma 90.000000
_cell_volume 4671.064708
_symmetry_space_group_name_H-M "I M M A"
_symmetry_group_IT_number 74
_symmetry_cell_setting 'orthorhombic'
loop_
_space_group_symop_operation_xyz
x,y,z
-x,1/2-y,z
x,-y,-z
-x,1/2+y,-z
-x,-y,-z
x,1/2+y,-z
-x,y,z
x,1/2-y,z
1/2+x,1/2+y,1/2+z
1/2-x,-y,1/2+z
1/2+x,1/2-y,1/2-z
1/2-x,y,1/2-z
1/2-x,1/2-y,1/2-z
1/2+x,y,1/2-z
1/2-x,1/2+y,1/2+z
1/2+x,-y,1/2+z
loop_
_atom_site_type_symbol
_atom_site_label
_atom_site_fract_x
_atom_site_fract_y
_atom_site_fract_z
Si Si1 0.935372 0.664828 0.864578
Si Si2 0.804478 0.514351 0.818531
Si Si3 0.169391 0.888653 0.018795
Si Si4 0.069511 0.250000 0.720547
Si Si5 0.065515 0.598534 0.418911
Si Si6 0.304001 0.750000 0.342548
Si Si7 0.402333 0.440005 0.164503
O O1 0.916006 0.750000 0.832186
O O2 0.939404 0.614930 0.747498
O O3 0.000000 0.664848 0.920469
O O4 0.892876 0.632017 0.963228
O O5 0.750000 0.479168 0.750000
O O6 0.842506 0.447889 0.876760
O O7 0.838476 0.558478 0.718803
O O8 0.788734 0.574524 0.920077
O O9 0.205420 0.820724 0.073856
O O10 0.080462 0.325083 0.647236
O O11 0.126124 0.250000 0.806428
O O12 0.000000 0.250000 0.768057
O O13 0.104822 0.592847 0.534595
O O14 0.072553 0.525312 0.337035
O O15 0.000000 0.600455 0.466896
O O16 0.250000 0.750000 0.250000
#
# Coordination Sequence:
#
# PCOD8300230 Si02
#       7
#    16  16  16   8  16   8  16
#     4  10  20  36  60  88 123 167 203 245 310 368
#     4  10  22  40  61  84 113 157 198 248 308 363
#     4  10  22  40  60  88 121 149 202 257 293 364
#     4  10  24  40  59  87 123 163 204 254 312 373
#     4  10  20  36  56  86 122 155 200 252 302 362
#     4  12  24  40  62  87 118 157 198 248 308 363
#     4  10  20  35  59  87 120 157 204 255 301 369
#
# _framework density 20.552060000000001
#
# number of rings (size 3 to 8) (size 9 to 14) (size 15 to 20)
#    0.000    1.833    0.833    3.500    1.167    4.667 
#    0.000    8.750    0.000    0.000    0.000    0.000 
#    0.000    0.000    0.000    0.000    0.000    0.000 
#
# Total GULP energy -594632.884128 kJ/mol
# GULP energy per Si atom -12388.185086 kJ/mol
# Density = 2.050528 g / cm^3
# Si number density = 20.552060 Si / 1000 Ang^3
#
#
#
# Elastic Constant Matrix: (Units=GPa)
#
#
# Indices 1 2 3 4 5 6 
#
# 1 76.1962 33.5346 47.7269 0.0000 0.0000 0.0000
# 2 33.5346 157.0133 67.8670 0.0000 0.0000 0.0000
# 3 47.7269 67.8670 113.4837 0.0000 0.0000 0.0000
# 4 0.0000 0.0000 0.0000 31.7218 0.0000 0.0000
# 5 0.0000 0.0000 0.0000 0.0000 25.5651 0.0000
# 6 0.0000 0.0000 0.0000 0.0000 0.0000 15.6201
#
#
#
# Elastic Compliance Matrix: (Units=1/GPa)
#
#
# Indices 1 2 3 4 5 6 
#
# 1 0.017886 -0.000767 -0.007063 0.000000 0.000000 0.000000
# 2 -0.000767 0.008622 -0.004834 0.000000 0.000000 0.000000
# 3 -0.007063 -0.004834 0.014673 0.000000 0.000000 0.000000
# 4 0.000000 0.000000 0.000000 0.031524 0.000000 0.000000
# 5 0.000000 0.000000 0.000000 0.000000 0.039116 0.000000
# 6 0.000000 0.000000 0.000000 0.000000 0.000000 0.064020
#
#
# Mechanical properties :
#
#
# Convention : Reuss Voigt Hill
#
# Bulk Modulus (GPa) = 63.08010 71.66113 67.37061
# Shear Modulus (GPa) = 24.21853 27.75238 25.98545
#
# Velocity S-wave (km/s) = 3.43651 3.67869 3.55966
# Velocity P-wave (km/s) = 6.81950 7.27925 7.05312
#
# Compressibility (1/GPa) = 0.01585286
#
# Stress axis : x y z
#
# Youngs Moduli (GPa) = 55.91002 115.98251 68.15168
#
# Poissons Ratio (x) = 0.08895 0.48139
# Poissons Ratio (y) = 0.04288 0.32942
# Poissons Ratio (z) = 0.39492 0.56062
#
# Static dielectric constant tensor:
#      x y z
#    x 3.570850 0.000000 0.000000 
#    y 0.000000 4.018370 0.000000 
#    z 0.000000 0.000000 3.773650 
# 
# 
# High freq. dielectric constant tensor:
#      x y z
#    x 1.783930 0.000000 0.000000 
#    y 0.000000 1.819360 0.000000 
#    z 0.000000 0.000000 1.806180 
# 
# From -- ./inp_files/25234.got.cif
#   From: 2010.03.12/outbox.cif.g09.slc.cpg/sg74_13_cif.got.tgz:25234.got - 2010.04.16 15:46:19.
