data_PCOD8300715
_publ_section_title
;
Structure prediction by ZEFSAII (Michael W. Deem and Ramdas Pophale) SiO2 
 PCOD8300715
Probable space group: I M M A
;
_chemical_formula_sum "Si O2"
_cell_formula_units_Z 112
_cell_length_a 15.387144
_cell_length_b 15.195625
_cell_length_c 24.980549
_cell_angle_alpha 90.000000
_cell_angle_beta 90.000000
_cell_angle_gamma 90.000000
_cell_volume 5840.883771
_symmetry_space_group_name_H-M "I M M A"
_symmetry_group_IT_number 74
_symmetry_cell_setting 'orthorhombic'
loop_
_space_group_symop_operation_xyz
x,y,z
-x,1/2-y,z
x,-y,-z
-x,1/2+y,-z
-x,-y,-z
x,1/2+y,-z
-x,y,z
x,1/2-y,z
1/2+x,1/2+y,1/2+z
1/2-x,-y,1/2+z
1/2+x,1/2-y,1/2-z
1/2-x,y,1/2-z
1/2-x,1/2-y,1/2-z
1/2+x,y,1/2-z
1/2-x,1/2+y,1/2+z
1/2+x,-y,1/2+z
loop_
_atom_site_type_symbol
_atom_site_label
_atom_site_fract_x
_atom_site_fract_y
_atom_site_fract_z
Si Si1 0.596643 0.145187 0.501747
Si Si2 0.241395 0.650394 0.687065
Si Si3 0.903985 0.561193 0.451412
Si Si4 0.403087 0.854505 0.618469
Si Si5 0.237038 0.649504 0.081316
Si Si6 0.595908 0.488958 0.163598
Si Si7 0.798277 0.648245 0.305644
O O1 0.500000 0.112349 0.516992
O O2 0.600093 0.250000 0.502603
O O3 0.620741 0.113360 0.441671
O O4 0.663097 0.101752 0.545174
O O5 0.224137 0.750000 0.666628
O O6 0.250000 0.648799 0.750000
O O7 0.328794 0.610941 0.659297
O O8 0.159429 0.591237 0.673921
O O9 0.875601 0.500000 0.500000
O O10 0.832423 0.636835 0.444281
O O11 0.905496 0.499903 0.399742
O O12 0.000000 0.603332 0.460873
O O13 0.500000 0.889625 0.634551
O O14 0.405459 0.750000 0.620850
O O15 0.212679 0.750000 0.078271
O O16 0.235970 0.620910 0.144040
O O17 0.500000 0.464278 0.184936
O O18 0.621619 0.580645 0.193102
O O19 0.830027 0.750000 0.312002
O O20 0.750000 0.634604 0.250000
#
# Coordination Sequence:
#
# PCOD8300715 Si02
#       7
#    16  16  16  16  16  16  16
#     4   8  14  26  46  73 102 129 163 208 259 319
#     4  10  21  35  53  79 109 142 182 224 265 315
#     4   9  19  34  49  69  99 135 172 213 264 315
#     4   8  15  29  49  72  99 135 177 219 264 313
#     4   9  17  29  51  78  99 130 168 210 268 318
#     4  10  21  36  54  77 108 145 181 220 269 320
#     4   9  18  35  57  79 104 136 180 228 271 325
#
# _framework density 19.175180000000001
#
# number of rings (size 3 to 8) (size 9 to 14) (size 15 to 20)
#    0.000    3.000    0.000    1.286    2.000    1.429 
#    0.000    5.000    0.000    9.000    0.000    0.000 
#    0.000    0.000    0.000    0.000    0.000    0.000 
#
# Total GULP energy -693856.732888 kJ/mol
# GULP energy per Si atom -12390.298802 kJ/mol
# Density = 1.913154 g / cm^3
# Si number density = 19.175180 Si / 1000 Ang^3
#
#
#
# Elastic Constant Matrix: (Units=GPa)
#
#
# Indices 1 2 3 4 5 6 
#
# 1 158.9343 42.4852 72.9180 0.0000 0.0000 0.0000
# 2 42.4852 46.1171 22.3607 0.0000 0.0000 0.0000
# 3 72.9180 22.3607 114.8193 0.0000 0.0000 0.0000
# 4 0.0000 0.0000 0.0000 18.7893 0.0000 0.0000
# 5 0.0000 0.0000 0.0000 0.0000 23.1850 0.0000
# 6 0.0000 0.0000 0.0000 0.0000 0.0000 22.1514
#
#
#
# Elastic Compliance Matrix: (Units=1/GPa)
#
#
# Indices 1 2 3 4 5 6 
#
# 1 0.010699 -0.007246 -0.005383 0.000000 0.000000 0.000000
# 2 -0.007246 0.028852 -0.001017 0.000000 0.000000 0.000000
# 3 -0.005383 -0.001017 0.012326 0.000000 0.000000 0.000000
# 4 0.000000 0.000000 0.000000 0.053222 0.000000 0.000000
# 5 0.000000 0.000000 0.000000 0.000000 0.043131 0.000000
# 6 0.000000 0.000000 0.000000 0.000000 0.000000 0.045144
#
#
# Mechanical properties :
#
#
# Convention : Reuss Voigt Hill
#
# Bulk Modulus (GPa) = 40.67620 66.15538 53.41579
# Shear Modulus (GPa) = 21.84722 24.96558 23.40640
#
# Velocity S-wave (km/s) = 3.37909 3.61220 3.49759
# Velocity P-wave (km/s) = 6.04014 7.20921 6.65042
#
# Compressibility (1/GPa) = 0.02458440
#
# Stress axis : x y z
#
# Youngs Moduli (GPa) = 93.46993 34.65909 81.12824
#
# Poissons Ratio (x) = 0.25114 0.43673
# Poissons Ratio (y) = 0.67728 0.08253
# Poissons Ratio (z) = 0.50317 0.03526
#
# Static dielectric constant tensor:
#      x y z
#    x 3.837400 0.000000 0.000000 
#    y 0.000000 3.230740 0.000000 
#    z 0.000000 0.000000 3.799550 
# 
# 
# High freq. dielectric constant tensor:
#      x y z
#    x 1.744250 0.000000 0.000000 
#    y 0.000000 1.717400 0.000000 
#    z 0.000000 0.000000 1.751340 
# 
# From -- ./inp_files/60175.got.cif
#   From: 2010.03.12/outbox.cif.g09.slc.cpg/sg74_31_cif.got.tgz:60175.got - 2010.04.16 15:46:19.
