data_PCOD8300300
_publ_section_title
;
Structure prediction by ZEFSAII (Michael W. Deem and Ramdas Pophale) SiO2 
 PCOD8300300
Probable space group: I M M A
;
_chemical_formula_sum "Si O2"
_cell_formula_units_Z 80
_cell_length_a 13.577141
_cell_length_b 13.842088
_cell_length_c 21.158607
_cell_angle_alpha 90.000000
_cell_angle_beta 90.000000
_cell_angle_gamma 90.000000
_cell_volume 3976.463553
_symmetry_space_group_name_H-M "I M M A"
_symmetry_group_IT_number 74
_symmetry_cell_setting 'orthorhombic'
loop_
_space_group_symop_operation_xyz
x,y,z
-x,1/2-y,z
x,-y,-z
-x,1/2+y,-z
-x,-y,-z
x,1/2+y,-z
-x,y,z
x,1/2-y,z
1/2+x,1/2+y,1/2+z
1/2-x,-y,1/2+z
1/2+x,1/2-y,1/2-z
1/2-x,y,1/2-z
1/2-x,1/2-y,1/2-z
1/2+x,y,1/2-z
1/2-x,1/2+y,1/2+z
1/2+x,-y,1/2+z
loop_
_atom_site_type_symbol
_atom_site_label
_atom_site_fract_x
_atom_site_fract_y
_atom_site_fract_z
Si Si1 0.611480 0.013640 0.791657
Si Si2 0.111793 0.984288 0.146483
Si Si3 0.714877 0.135290 0.895197
Si Si4 0.610101 0.636105 0.978662
Si Si5 0.266114 0.636802 0.855706
O O1 0.500000 0.991828 0.811840
O O2 0.655187 0.099332 0.834184
O O3 0.617453 0.048010 0.719495
O O4 0.674176 0.914862 0.799119
O O5 0.156747 0.092137 0.138629
O O6 0.000000 0.985321 0.121385
O O7 0.174455 0.907429 0.105926
O O8 0.720790 0.250000 0.894505
O O9 0.660625 0.094855 0.957881
O O10 0.500000 0.592640 0.971614
O O11 0.603500 0.750000 0.984605
O O12 0.675597 0.607776 0.918887
O O13 0.259235 0.750000 0.842397
#
# Coordination Sequence:
#
# PCOD8300300 Si02
#       5
#    16  16  16  16  16
#     4  10  21  35  53  81 112 140 175 218 264 318
#     4  10  23  39  52  75 109 142 184 228 260 302
#     4  10  20  36  57  80 108 141 176 217 266 318
#     4   9  18  33  55  84 111 133 166 214 268 326
#     4  10  20  36  57  80 108 141 176 217 266 318
#
# _framework density 20.118379000000001
#
# number of rings (size 3 to 8) (size 9 to 14) (size 15 to 20)
#    0.000    2.200    0.000    3.600    0.000    9.600 
#    0.000   11.000    0.000    3.600    0.000    0.000 
#    0.000    0.000    0.000    0.000    0.000    0.000 
#
# Total GULP energy -495994.270756 kJ/mol
# GULP energy per Si atom -12399.856769 kJ/mol
# Density = 2.007259 g / cm^3
# Si number density = 20.118379 Si / 1000 Ang^3
#
#
#
# Elastic Constant Matrix: (Units=GPa)
#
#
# Indices 1 2 3 4 5 6 
#
# 1 166.3174 12.6212 37.4219 0.0000 0.0000 0.0000
# 2 12.6212 50.5657 -7.3115 0.0000 0.0000 0.0000
# 3 37.4219 -7.3115 58.3516 0.0000 0.0000 0.0000
# 4 0.0000 0.0000 0.0000 10.5762 0.0000 0.0000
# 5 0.0000 0.0000 0.0000 0.0000 30.5929 0.0000
# 6 0.0000 0.0000 0.0000 0.0000 0.0000 16.3288
#
#
#
# Elastic Compliance Matrix: (Units=1/GPa)
#
#
# Indices 1 2 3 4 5 6 
#
# 1 0.007338 -0.002558 -0.005026 0.000000 0.000000 0.000000
# 2 -0.002558 0.021033 0.004276 0.000000 0.000000 0.000000
# 3 -0.005026 0.004276 0.020897 0.000000 0.000000 0.000000
# 4 0.000000 0.000000 0.000000 0.094552 0.000000 0.000000
# 5 0.000000 0.000000 0.000000 0.000000 0.032687 0.000000
# 6 0.000000 0.000000 0.000000 0.000000 0.000000 0.061241
#
#
# Mechanical properties :
#
#
# Convention : Reuss Voigt Hill
#
# Bulk Modulus (GPa) = 23.44633 40.07754 31.76194
# Shear Modulus (GPa) = 19.33620 26.99978 23.16799
#
# Velocity S-wave (km/s) = 3.10356 3.66737 3.39718
# Velocity P-wave (km/s) = 4.95200 6.15605 5.58655
#
# Compressibility (1/GPa) = 0.04265059
#
# Stress axis : x y z
#
# Youngs Moduli (GPa) = 136.28297 47.54414 47.85430
#
# Poissons Ratio (x) = 0.12163 0.24053
# Poissons Ratio (y) = 0.34865 -0.20463
# Poissons Ratio (z) = 0.68500 -0.20330
#
# Static dielectric constant tensor:
#      x y z
#    x 3.934480 0.000000 0.000000 
#    y 0.000000 3.484670 0.000000 
#    z 0.000000 0.000000 3.725670 
# 
# 
# High freq. dielectric constant tensor:
#      x y z
#    x 1.790960 0.000000 0.000000 
#    y 0.000000 1.781690 0.000000 
#    z 0.000000 0.000000 1.785360 
# 
# From -- ./inp_files/51639.got.cif
#   From: 2010.03.12/outbox.cif.g09.slc.cpg/sg74_26_cif.got.tgz:51639.got - 2010.04.16 15:46:19.
