data_PCOD8300263
_publ_section_title
;
Structure prediction by ZEFSAII (Michael W. Deem and Ramdas Pophale) SiO2 
 PCOD8300263
Probable space group: I M M A
;
_chemical_formula_sum "Si O2"
_cell_formula_units_Z 80
_cell_length_a 30.210457
_cell_length_b 9.681166
_cell_length_c 14.670665
_cell_angle_alpha 90.000000
_cell_angle_beta 90.000000
_cell_angle_gamma 90.000000
_cell_volume 4290.765323
_symmetry_space_group_name_H-M "I M M A"
_symmetry_group_IT_number 74
_symmetry_cell_setting 'orthorhombic'
loop_
_space_group_symop_operation_xyz
x,y,z
-x,1/2-y,z
x,-y,-z
-x,1/2+y,-z
-x,-y,-z
x,1/2+y,-z
-x,y,z
x,1/2-y,z
1/2+x,1/2+y,1/2+z
1/2-x,-y,1/2+z
1/2+x,1/2-y,1/2-z
1/2-x,y,1/2-z
1/2-x,1/2-y,1/2-z
1/2+x,y,1/2-z
1/2-x,1/2+y,1/2+z
1/2+x,-y,1/2+z
loop_
_atom_site_type_symbol
_atom_site_label
_atom_site_fract_x
_atom_site_fract_y
_atom_site_fract_z
Si Si1 0.666551 0.598641 0.925093
Si Si2 0.950554 0.412225 0.220166
Si Si3 0.700903 0.086513 0.263056
Si Si4 0.563740 0.403149 0.077818
Si Si5 0.629508 0.415412 0.407052
O O1 0.689113 0.750000 0.933343
O O2 0.673396 0.536708 0.824664
O O3 0.615096 0.611308 0.943668
O O4 0.689322 0.500000 0.000000
O O5 0.943094 0.250000 0.228604
O O6 0.944560 0.471788 0.322672
O O7 0.913471 0.467318 0.150215
O O8 0.000000 0.449321 0.183894
O O9 0.703756 0.250000 0.266760
O O10 0.750000 0.022191 0.250000
O O11 0.674132 0.038764 0.352880
O O12 0.542072 0.250000 0.073109
O O13 0.541914 0.500000 0.000000
O O14 0.629448 0.500000 0.500000
O O15 0.628071 0.250000 0.424732
#
# Coordination Sequence:
#
# PCOD8300263 Si02
#       5
#    16  16  16  16  16
#     4   9  16  28  47  70  94 122 155 191 233 283
#     4   9  17  31  52  74  98 133 173 207 244 299
#     4   9  17  31  52  74  97 129 166 199 238 296
#     4   9  16  28  47  71  97 126 160 196 238 289
#     4  10  20  36  55  75 100 131 170 212 252 294
#
# _framework density 18.644694000000001
#
# number of rings (size 3 to 8) (size 9 to 14) (size 15 to 20)
#    0.000    2.800    2.000    0.000    0.000    1.600 
#    0.000    2.000    0.000    2.400    0.000    0.000 
#    0.000    0.000    0.000    0.000    0.000    0.000 
#
# Total GULP energy -495574.598595 kJ/mol
# GULP energy per Si atom -12389.364965 kJ/mol
# Density = 1.860226 g / cm^3
# Si number density = 18.644694 Si / 1000 Ang^3
#
#
#
# Elastic Constant Matrix: (Units=GPa)
#
#
# Indices 1 2 3 4 5 6 
#
# 1 105.0714 23.6951 60.8122 0.0000 0.0000 0.0000
# 2 23.6951 46.1227 53.5244 0.0000 0.0000 0.0000
# 3 60.8122 53.5244 171.6017 0.0000 0.0000 0.0000
# 4 0.0000 0.0000 0.0000 35.3275 0.0000 0.0000
# 5 0.0000 0.0000 0.0000 0.0000 6.0514 0.0000
# 6 0.0000 0.0000 0.0000 0.0000 0.0000 11.3566
#
#
#
# Elastic Compliance Matrix: (Units=1/GPa)
#
#
# Indices 1 2 3 4 5 6 
#
# 1 0.012083 -0.001941 -0.003677 0.000000 0.000000 0.000000
# 2 -0.001941 0.034293 -0.010009 0.000000 0.000000 0.000000
# 3 -0.003677 -0.010009 0.010252 0.000000 0.000000 0.000000
# 4 0.000000 0.000000 0.000000 0.028307 0.000000 0.000000
# 5 0.000000 0.000000 0.000000 0.000000 0.165250 0.000000
# 6 0.000000 0.000000 0.000000 0.000000 0.000000 0.088055
#
#
# Mechanical properties :
#
#
# Convention : Reuss Voigt Hill
#
# Bulk Modulus (GPa) = 39.40713 66.53992 52.97352
# Shear Modulus (GPa) = 13.22923 22.86470 18.04697
#
# Velocity S-wave (km/s) = 2.66662 3.50571 3.11455
# Velocity P-wave (km/s) = 5.53740 7.22167 6.43488
#
# Compressibility (1/GPa) = 0.02537612
#
# Stress axis : x y z
#
# Youngs Moduli (GPa) = 82.76143 29.16029 97.54074
#
# Poissons Ratio (x) = 0.05660 0.35861
# Poissons Ratio (y) = 0.16063 0.97625
# Poissons Ratio (z) = 0.30428 0.29185
#
# Static dielectric constant tensor:
#      x y z
#    x 3.565630 0.000000 0.000000 
#    y 0.000000 3.298770 0.000000 
#    z 0.000000 0.000000 3.494660 
# 
# 
# High freq. dielectric constant tensor:
#      x y z
#    x 1.727490 0.000000 0.000000 
#    y 0.000000 1.668430 0.000000 
#    z 0.000000 0.000000 1.726680 
# 
# From -- ./inp_files/18969.got.cif
#   From: 2010.03.12/outbox.cif.g09.slc.cpg/sg74_10_cif.got.tgz:18969.got - 2010.04.16 15:46:19.
