data_PCOD8300599
_publ_section_title
;
Structure prediction by ZEFSAII (Michael W. Deem and Ramdas Pophale) SiO2 
 PCOD8300599
Probable space group: I M M A
;
_chemical_formula_sum "Si O2"
_cell_formula_units_Z 64
_cell_length_a 20.937824
_cell_length_b 16.486410
_cell_length_c 8.735215
_cell_angle_alpha 90.000000
_cell_angle_beta 90.000000
_cell_angle_gamma 90.000000
_cell_volume 3015.304943
_symmetry_space_group_name_H-M "I M M A"
_symmetry_group_IT_number 74
_symmetry_cell_setting 'orthorhombic'
loop_
_space_group_symop_operation_xyz
x,y,z
-x,1/2-y,z
x,-y,-z
-x,1/2+y,-z
-x,-y,-z
x,1/2+y,-z
-x,y,z
x,1/2-y,z
1/2+x,1/2+y,1/2+z
1/2-x,-y,1/2+z
1/2+x,1/2-y,1/2-z
1/2-x,y,1/2-z
1/2-x,1/2-y,1/2-z
1/2+x,y,1/2-z
1/2-x,1/2+y,1/2+z
1/2+x,-y,1/2+z
loop_
_atom_site_type_symbol
_atom_site_label
_atom_site_fract_x
_atom_site_fract_y
_atom_site_fract_z
Si Si1 0.381850 0.845011 0.388556
Si Si2 0.254290 0.660270 0.067633
Si Si3 0.000000 0.408969 0.059912
Si Si4 0.885745 0.911107 0.443848
Si Si5 0.000000 0.658974 0.620399
O O1 0.378312 0.750000 0.339933
O O2 0.316694 0.869911 0.480963
O O3 0.438508 0.860401 0.504431
O O4 0.391549 0.900630 0.238832
O O5 0.267845 0.750000 0.003579
O O6 0.250000 0.660956 0.250000
O O7 0.312304 0.605630 0.004488
O O8 0.000000 0.406861 0.243374
O O9 0.000000 0.500000 0.000000
O O10 0.936417 0.850487 0.518972
O O11 0.904723 0.000000 0.500000
O O12 0.000000 0.750000 0.687285
#
# Coordination Sequence:
#
# PCOD8300599 Si02
#       5
#    16  16   8  16   8
#     4  10  20  39  64  84 111 158 205 232 271 351
#     4   8  16  33  58  84 108 142 191 235 271 330
#     4  12  25  40  57  84 118 150 190 242 297 346
#     4  11  21  36  59  89 118 147 188 243 295 336
#     4  12  24  38  56  82 118 152 188 238 294 344
#
# _framework density 21.225051000000001
#
# number of rings (size 3 to 8) (size 9 to 14) (size 15 to 20)
#    0.000    1.750    0.000    7.500    0.000    1.000 
#    0.000    3.750    0.000    4.500    0.000    0.000 
#    0.000    0.000    0.000    0.000    0.000    0.000 
#
# Total GULP energy -396688.811200 kJ/mol
# GULP energy per Si atom -12396.525350 kJ/mol
# Density = 2.117674 g / cm^3
# Si number density = 21.225051 Si / 1000 Ang^3
#
#
#
# Elastic Constant Matrix: (Units=GPa)
#
#
# Indices 1 2 3 4 5 6 
#
# 1 187.1958 23.2928 39.8376 0.0000 0.0000 0.0000
# 2 23.2928 81.5166 13.0095 0.0000 0.0000 0.0000
# 3 39.8376 13.0095 60.0001 0.0000 0.0000 0.0000
# 4 0.0000 0.0000 0.0000 25.0135 0.0000 0.0000
# 5 0.0000 0.0000 0.0000 0.0000 8.5642 0.0000
# 6 0.0000 0.0000 0.0000 0.0000 0.0000 28.1408
#
#
#
# Elastic Compliance Matrix: (Units=1/GPa)
#
#
# Indices 1 2 3 4 5 6 
#
# 1 0.006328 -0.001179 -0.003946 0.000000 0.000000 0.000000
# 2 -0.001179 0.012927 -0.002020 0.000000 0.000000 0.000000
# 3 -0.003946 -0.002020 0.019725 0.000000 0.000000 0.000000
# 4 0.000000 0.000000 0.000000 0.039978 0.000000 0.000000
# 5 0.000000 0.000000 0.000000 0.000000 0.116765 0.000000
# 6 0.000000 0.000000 0.000000 0.000000 0.000000 0.035536
#
#
# Mechanical properties :
#
#
# Convention : Reuss Voigt Hill
#
# Bulk Modulus (GPa) = 40.50275 53.44360 46.97317
# Shear Modulus (GPa) = 19.70220 29.18189 24.44204
#
# Velocity S-wave (km/s) = 3.05003 3.71196 3.39715
# Velocity P-wave (km/s) = 5.61494 6.60346 6.12916
#
# Compressibility (1/GPa) = 0.02468968
#
# Stress axis : x y z
#
# Youngs Moduli (GPa) = 158.01615 77.35976 50.69735
#
# Poissons Ratio (x) = 0.09117 0.20007
# Poissons Ratio (y) = 0.18622 0.10242
# Poissons Ratio (z) = 0.62358 0.15629
#
# Static dielectric constant tensor:
#      x y z
#    x 4.635220 0.000000 0.000000 
#    y 0.000000 3.631620 0.000000 
#    z 0.000000 0.000000 3.371800 
# 
# 
# High freq. dielectric constant tensor:
#      x y z
#    x 1.865180 0.000000 0.000000 
#    y 0.000000 1.823430 0.000000 
#    z 0.000000 0.000000 1.793870 
# 
# From -- ./inp_files/11832.got.cif
#   From: 2010.03.12/outbox.cif.g09.slc.cpg/sg74_6_cif.got.tgz:11832.got - 2010.04.16 15:46:19.
