data_PCOD8300755
_publ_section_title
;
Structure prediction by ZEFSAII (Michael W. Deem and Ramdas Pophale) SiO2 
 PCOD8300755
Probable space group: I M M A
;
_chemical_formula_sum "Si O2"
_cell_formula_units_Z 64
_cell_length_a 9.395295
_cell_length_b 9.390701
_cell_length_c 41.049650
_cell_angle_alpha 90.000000
_cell_angle_beta 90.000000
_cell_angle_gamma 90.000000
_cell_volume 3621.745193
_symmetry_space_group_name_H-M "I M M A"
_symmetry_group_IT_number 74
_symmetry_cell_setting 'orthorhombic'
loop_
_space_group_symop_operation_xyz
x,y,z
-x,1/2-y,z
x,-y,-z
-x,1/2+y,-z
-x,-y,-z
x,1/2+y,-z
-x,y,z
x,1/2-y,z
1/2+x,1/2+y,1/2+z
1/2-x,-y,1/2+z
1/2+x,1/2-y,1/2-z
1/2-x,y,1/2-z
1/2-x,1/2-y,1/2-z
1/2+x,y,1/2-z
1/2-x,1/2+y,1/2+z
1/2+x,-y,1/2+z
loop_
_atom_site_type_symbol
_atom_site_label
_atom_site_fract_x
_atom_site_fract_y
_atom_site_fract_z
Si Si1 0.835081 0.416923 0.835540
Si Si2 0.334828 0.583234 0.781966
Si Si3 0.657184 0.419038 0.591599
Si Si4 0.165823 0.084682 0.531155
O O1 0.808295 0.250000 0.830547
O O2 0.729753 0.502064 0.812519
O O3 0.794542 0.465789 0.872255
O O4 0.000000 0.454033 0.828151
O O5 0.500000 0.542321 0.777664
O O6 0.314708 0.750000 0.788082
O O7 0.250000 0.533466 0.750000
O O8 0.500000 0.479393 0.584220
O O9 0.654177 0.250000 0.590774
O O10 0.762132 0.477866 0.563821
O O11 0.201876 0.250000 0.525919
O O12 0.000000 0.057165 0.535557
O O13 0.225637 0.000000 0.500000
#
# Coordination Sequence:
#
# PCOD8300755 Si02
#       4
#    16  16  16  16
#     4   9  18  33  53  76 100 126 159 200 244 288
#     4  10  21  36  53  73  98 130 165 198 237 286
#     4   8  15  29  48  69  93 121 153 190 232 278
#     4   9  17  29  45  65  90 121 155 190 230 275
#
# _framework density 17.671039
#
# number of rings (size 3 to 8) (size 9 to 14) (size 15 to 20)
#    0.000    3.000    0.000    2.250    0.000    4.000 
#    0.000    3.750    0.000    4.500    0.000    0.000 
#    0.000    0.000    0.000    0.000    0.000    0.000 
#
# Total GULP energy -396710.967514 kJ/mol
# GULP energy per Si atom -12397.217735 kJ/mol
# Density = 1.763082 g / cm^3
# Si number density = 17.671039 Si / 1000 Ang^3
#
#
#
# Elastic Constant Matrix: (Units=GPa)
#
#
# Indices 1 2 3 4 5 6 
#
# 1 105.5477 40.7833 93.4758 0.0000 0.0000 0.0000
# 2 40.7833 34.1921 49.5782 0.0000 0.0000 0.0000
# 3 93.4758 49.5782 174.2268 0.0000 0.0000 0.0000
# 4 0.0000 0.0000 0.0000 30.9462 0.0000 0.0000
# 5 0.0000 0.0000 0.0000 0.0000 41.3255 0.0000
# 6 0.0000 0.0000 0.0000 0.0000 0.0000 23.5929
#
#
#
# Elastic Compliance Matrix: (Units=1/GPa)
#
#
# Indices 1 2 3 4 5 6 
#
# 1 0.022036 -0.015563 -0.007394 0.000000 0.000000 0.000000
# 2 -0.015563 0.060781 -0.008946 0.000000 0.000000 0.000000
# 3 -0.007394 -0.008946 0.012253 0.000000 0.000000 0.000000
# 4 0.000000 0.000000 0.000000 0.032314 0.000000 0.000000
# 5 0.000000 0.000000 0.000000 0.000000 0.024198 0.000000
# 6 0.000000 0.000000 0.000000 0.000000 0.000000 0.042386
#
#
# Mechanical properties :
#
#
# Convention : Reuss Voigt Hill
#
# Bulk Modulus (GPa) = 31.98607 75.73790 53.86198
# Shear Modulus (GPa) = 18.64307 27.84821 23.24564
#
# Velocity S-wave (km/s) = 3.25161 3.97410 3.63087
# Velocity P-wave (km/s) = 5.67780 8.00068 6.93716
#
# Compressibility (1/GPa) = 0.03126361
#
# Stress axis : x y z
#
# Youngs Moduli (GPa) = 45.37944 16.45245 81.61477
#
# Poissons Ratio (x) = 0.25604 0.60350
# Poissons Ratio (y) = 0.70622 0.73016
# Poissons Ratio (z) = 0.33556 0.14719
#
# Static dielectric constant tensor:
#      x y z
#    x 3.371710 0.000000 0.000000 
#    y 0.000000 2.967150 0.000000 
#    z 0.000000 0.000000 3.567860 
# 
# 
# High freq. dielectric constant tensor:
#      x y z
#    x 1.683440 0.000000 0.000000 
#    y 0.000000 1.649870 0.000000 
#    z 0.000000 0.000000 1.697330 
# 
# From -- ./inp_files/69729.got.cif
#   From: 2010.03.12/outbox.cif.g09.slc.cpg/sg74_35_cif.got.tgz:69729.got - 2010.04.16 15:46:19.
