data_PCOD8300933
_publ_section_title
;
Structure prediction by ZEFSAII (Michael W. Deem and Ramdas Pophale) SiO2 
 PCOD8300933
Probable space group: I M M A
;
_chemical_formula_sum "Si O2"
_cell_formula_units_Z 96
_cell_length_a 19.812901
_cell_length_b 8.919100
_cell_length_c 27.484058
_cell_angle_alpha 90.000000
_cell_angle_beta 90.000000
_cell_angle_gamma 90.000000
_cell_volume 4856.797083
_symmetry_space_group_name_H-M "I M M A"
_symmetry_group_IT_number 74
_symmetry_cell_setting 'orthorhombic'
loop_
_space_group_symop_operation_xyz
x,y,z
-x,1/2-y,z
x,-y,-z
-x,1/2+y,-z
-x,-y,-z
x,1/2+y,-z
-x,y,z
x,1/2-y,z
1/2+x,1/2+y,1/2+z
1/2-x,-y,1/2+z
1/2+x,1/2-y,1/2-z
1/2-x,y,1/2-z
1/2-x,1/2-y,1/2-z
1/2+x,y,1/2-z
1/2-x,1/2+y,1/2+z
1/2+x,-y,1/2+z
loop_
_atom_site_type_symbol
_atom_site_label
_atom_site_fract_x
_atom_site_fract_y
_atom_site_fract_z
Si Si1 0.922018 0.425257 0.766329
Si Si2 0.202757 0.926367 0.391241
Si Si3 0.424791 0.575307 0.049547
Si Si4 0.194036 0.573988 0.710310
Si Si5 0.922687 0.077775 0.134298
Si Si6 0.180717 0.927134 0.949303
O O1 0.908180 0.250000 0.761613
O O2 0.878343 0.509836 0.725948
O O3 0.900314 0.477788 0.820025
O O4 0.000000 0.465706 0.756557
O O5 0.216766 0.750000 0.388681
O O6 0.125714 0.963109 0.406434
O O7 0.218262 0.999184 0.339457
O O8 0.249871 0.999994 0.431809
O O9 0.500000 0.518714 0.064012
O O10 0.424975 0.750000 0.038867
O O11 0.399295 0.500000 0.000000
O O12 0.187785 0.750000 0.702226
O O13 0.250000 0.532286 0.750000
O O14 0.910562 0.250000 0.149328
O O15 0.878162 0.031557 0.088447
O O16 0.000000 0.047561 0.119882
O O17 0.190144 0.750000 0.955228
O O18 0.158862 0.000000 0.000000
#
# Coordination Sequence:
#
# PCOD8300933 Si02
#       6
#    16  16  16  16  16  16
#     4  10  21  37  59  87 116 147 186 232 281 335
#     4  11  23  38  58  83 112 146 184 231 282 332
#     4   9  19  36  57  81 109 141 177 218 265 317
#     4  11  24  40  58  82 113 149 189 233 281 336
#     4   9  19  37  59  82 111 148 187 228 278 334
#     4  11  23  38  57  82 113 148 187 232 280 334
#
# _framework density 19.766113000000001
#
# number of rings (size 3 to 8) (size 9 to 14) (size 15 to 20)
#    0.000    1.833    0.000    3.500    0.000   11.333 
#    0.000    1.667    0.000    0.000    0.000    0.000 
#    0.000    0.000    0.000    0.000    0.000    0.000 
#
# Total GULP energy -595452.286168 kJ/mol
# GULP energy per Si atom -12405.255962 kJ/mol
# Density = 1.972112 g / cm^3
# Si number density = 19.766113 Si / 1000 Ang^3
#
#
#
# Elastic Constant Matrix: (Units=GPa)
#
#
# Indices 1 2 3 4 5 6 
#
# 1 68.0899 28.8940 17.4520 0.0000 0.0000 0.0000
# 2 28.8940 71.2725 26.3491 0.0000 0.0000 0.0000
# 3 17.4520 26.3491 69.3346 0.0000 0.0000 0.0000
# 4 0.0000 0.0000 0.0000 39.9591 0.0000 0.0000
# 5 0.0000 0.0000 0.0000 0.0000 31.6112 0.0000
# 6 0.0000 0.0000 0.0000 0.0000 0.0000 28.2061
#
#
#
# Elastic Compliance Matrix: (Units=1/GPa)
#
#
# Indices 1 2 3 4 5 6 
#
# 1 0.017983 -0.006535 -0.002043 0.000000 0.000000 0.000000
# 2 -0.006535 0.018699 -0.005461 0.000000 0.000000 0.000000
# 3 -0.002043 -0.005461 0.017012 0.000000 0.000000 0.000000
# 4 0.000000 0.000000 0.000000 0.025026 0.000000 0.000000
# 5 0.000000 0.000000 0.000000 0.000000 0.031634 0.000000
# 6 0.000000 0.000000 0.000000 0.000000 0.000000 0.035453
#
#
# Mechanical properties :
#
#
# Convention : Reuss Voigt Hill
#
# Bulk Modulus (GPa) = 39.03800 39.34302 39.19051
# Shear Modulus (GPa) = 27.40845 29.02206 28.21525
#
# Velocity S-wave (km/s) = 3.72780 3.83596 3.78227
# Velocity P-wave (km/s) = 6.19044 6.29023 6.24053
#
# Compressibility (1/GPa) = 0.02561607
#
# Stress axis : x y z
#
# Youngs Moduli (GPa) = 55.60708 53.47879 58.78046
#
# Poissons Ratio (x) = 0.34949 0.12009
# Poissons Ratio (y) = 0.36340 0.32101
# Poissons Ratio (z) = 0.11360 0.29206
#
# Static dielectric constant tensor:
#      x y z
#    x 3.838480 0.000000 0.000000 
#    y 0.000000 3.639260 0.000000 
#    z 0.000000 0.000000 3.574440 
# 
# 
# High freq. dielectric constant tensor:
#      x y z
#    x 1.781350 0.000000 0.000000 
#    y 0.000000 1.776850 0.000000 
#    z 0.000000 0.000000 1.769400 
# 
# From -- ./inp_files/68162.got.cif
#   From: 2010.03.12/outbox.cif.g09.slc.cpg/sg74_35_cif.got.tgz:68162.got - 2010.04.16 15:46:19.
