data_PCOD8300555
_publ_section_title
;
Structure prediction by ZEFSAII (Michael W. Deem and Ramdas Pophale) SiO2 
 PCOD8300555
Probable space group: I M M A
;
_chemical_formula_sum "Si O2"
_cell_formula_units_Z 48
_cell_length_a 15.328959
_cell_length_b 13.001540
_cell_length_c 12.068483
_cell_angle_alpha 90.000000
_cell_angle_beta 90.000000
_cell_angle_gamma 90.000000
_cell_volume 2405.249550
_symmetry_space_group_name_H-M "I M M A"
_symmetry_group_IT_number 74
_symmetry_cell_setting 'orthorhombic'
loop_
_space_group_symop_operation_xyz
x,y,z
-x,1/2-y,z
x,-y,-z
-x,1/2+y,-z
-x,-y,-z
x,1/2+y,-z
-x,y,z
x,1/2-y,z
1/2+x,1/2+y,1/2+z
1/2-x,-y,1/2+z
1/2+x,1/2-y,1/2-z
1/2-x,y,1/2-z
1/2-x,1/2-y,1/2-z
1/2+x,y,1/2-z
1/2-x,1/2+y,1/2+z
1/2+x,-y,1/2+z
loop_
_atom_site_type_symbol
_atom_site_label
_atom_site_fract_x
_atom_site_fract_y
_atom_site_fract_z
Si Si1 0.401525 0.423280 0.205978
Si Si2 0.250000 0.078059 0.750000
Si Si3 0.734526 0.750000 0.414517
Si Si4 0.596209 0.750000 0.973375
Si Si5 0.330646 0.750000 0.664028
O O1 0.500000 0.468950 0.208987
O O2 0.329226 0.511736 0.200441
O O3 0.388073 0.352036 0.098897
O O4 0.387307 0.352532 0.314842
O O5 0.292099 0.148025 0.653016
O O6 0.839581 0.750000 0.422825
O O7 0.695164 0.750000 0.536470
O O8 0.500000 0.750000 0.024109
O O9 0.250000 0.750000 0.750000
#
# Coordination Sequence:
#
# PCOD8300555 Si02
#       5
#    16   8   8   8   8
#     4  10  20  38  62  89 115 145 192 241 287 337
#     4  11  24  39  54  84 124 157 186 227 288 350
#     4  11  23  38  57  81 119 160 189 231 286 339
#     4   9  18  35  62  89 110 139 191 253 290 324
#     4  11  18  38  63  86 111 146 190 238 281 332
#
# _framework density 19.956347999999998
#
# number of rings (size 3 to 8) (size 9 to 14) (size 15 to 20)
#    0.000    1.667    5.000    1.500    0.000    6.667 
#    0.000   10.833    0.000    0.000    0.000    0.000 
#    0.000    0.000    0.000    0.000    0.000    0.000 
#
# Total GULP energy -297524.822320 kJ/mol
# GULP energy per Si atom -12396.867597 kJ/mol
# Density = 1.991093 g / cm^3
# Si number density = 19.956348 Si / 1000 Ang^3
#
#
#
# Elastic Constant Matrix: (Units=GPa)
#
#
# Indices 1 2 3 4 5 6 
#
# 1 88.9231 27.7066 -9.6795 0.0000 0.0000 0.0000
# 2 27.7066 100.4927 8.0773 0.0000 0.0000 0.0000
# 3 -9.6795 8.0773 63.8325 0.0000 0.0000 0.0000
# 4 0.0000 0.0000 0.0000 6.0151 0.0000 0.0000
# 5 0.0000 0.0000 0.0000 0.0000 24.3307 0.0000
# 6 0.0000 0.0000 0.0000 0.0000 0.0000 9.2544
#
#
#
# Elastic Compliance Matrix: (Units=1/GPa)
#
#
# Indices 1 2 3 4 5 6 
#
# 1 0.012652 -0.003680 0.002384 0.000000 0.000000 0.000000
# 2 -0.003680 0.011124 -0.001966 0.000000 0.000000 0.000000
# 3 0.002384 -0.001966 0.016276 0.000000 0.000000 0.000000
# 4 0.000000 0.000000 0.000000 0.166248 0.000000 0.000000
# 5 0.000000 0.000000 0.000000 0.000000 0.041100 0.000000
# 6 0.000000 0.000000 0.000000 0.000000 0.000000 0.108057
#
#
# Mechanical properties :
#
#
# Convention : Reuss Voigt Hill
#
# Bulk Modulus (GPa) = 29.82491 33.93968 31.88230
# Shear Modulus (GPa) = 13.39924 23.06297 18.23110
#
# Velocity S-wave (km/s) = 2.59400 3.40320 3.02578
# Velocity P-wave (km/s) = 4.89380 5.69967 5.31204
#
# Compressibility (1/GPa) = 0.03352902
#
# Stress axis : x y z
#
# Youngs Moduli (GPa) = 79.04054 89.89973 61.43927
#
# Poissons Ratio (x) = 0.33081 -0.14648
# Poissons Ratio (y) = 0.29085 0.12076
# Poissons Ratio (z) = -0.18844 0.17670
#
# Static dielectric constant tensor:
#      x y z
#    x 3.844330 0.000000 0.000000 
#    y 0.000000 3.650900 0.000000 
#    z 0.000000 0.000000 3.419190 
# 
# 
# High freq. dielectric constant tensor:
#      x y z
#    x 1.778100 0.000000 0.000000 
#    y 0.000000 1.778320 0.000000 
#    z 0.000000 0.000000 1.757840 
# 
# From -- ./inp_files/21416.got.cif
#   From: 2010.03.12/outbox.cif.g09.slc.cpg/sg74_11_cif.got.tgz:21416.got - 2010.04.16 15:46:19.
