data_PCOD8300754
_publ_section_title
;
Structure prediction by ZEFSAII (Michael W. Deem and Ramdas Pophale) SiO2 
 PCOD8300754
Probable space group: I M M A
;
_chemical_formula_sum "Si O2"
_cell_formula_units_Z 80
_cell_length_a 9.431680
_cell_length_b 14.899987
_cell_length_c 29.280288
_cell_angle_alpha 90.000000
_cell_angle_beta 90.000000
_cell_angle_gamma 90.000000
_cell_volume 4114.814780
_symmetry_space_group_name_H-M "I M M A"
_symmetry_group_IT_number 74
_symmetry_cell_setting 'orthorhombic'
loop_
_space_group_symop_operation_xyz
x,y,z
-x,1/2-y,z
x,-y,-z
-x,1/2+y,-z
-x,-y,-z
x,1/2+y,-z
-x,y,z
x,1/2-y,z
1/2+x,1/2+y,1/2+z
1/2-x,-y,1/2+z
1/2+x,1/2-y,1/2-z
1/2-x,y,1/2-z
1/2-x,1/2-y,1/2-z
1/2+x,y,1/2-z
1/2-x,1/2+y,1/2+z
1/2+x,-y,1/2+z
loop_
_atom_site_type_symbol
_atom_site_label
_atom_site_fract_x
_atom_site_fract_y
_atom_site_fract_z
Si Si1 0.840241 0.642925 0.536251
Si Si2 0.668732 0.150816 0.647852
Si Si3 0.342262 0.643555 0.452965
Si Si4 0.166298 0.016397 0.204525
Si Si5 0.663312 0.853746 0.622681
O O1 0.838801 0.750000 0.534925
O O2 0.762958 0.603541 0.491218
O O3 0.757041 0.609026 0.580984
O O4 0.000000 0.605607 0.537628
O O5 0.500000 0.154051 0.646164
O O6 0.728778 0.250000 0.660372
O O7 0.719387 0.119823 0.597332
O O8 0.720945 0.079545 0.685320
O O9 0.500000 0.602808 0.460010
O O10 0.351781 0.750000 0.457764
O O11 0.250000 0.040211 0.250000
O O12 0.000000 0.013846 0.215422
O O13 0.203696 0.092794 0.168102
O O14 0.500000 0.869345 0.609088
O O15 0.695341 0.750000 0.632795
#
# Coordination Sequence:
#
# PCOD8300754 Si02
#       5
#    16  16  16  16  16
#     4   9  16  26  44  72 102 129 158 195 239 283
#     4   8  15  30  52  75  98 126 161 198 235 281
#     4   8  13  24  45  70  95 126 160 191 228 278
#     4  10  21  36  53  73  96 123 159 204 249 290
#     4   9  18  33  51  70  95 129 166 199 233 281
#
# _framework density 19.441943999999999
#
# number of rings (size 3 to 8) (size 9 to 14) (size 15 to 20)
#    0.000    3.200    0.000    1.800    0.000    4.000 
#    0.000    2.000    0.000    7.200    0.000    0.000 
#    0.000    0.000    0.000    0.000    0.000    0.000 
#
# Total GULP energy -495882.175978 kJ/mol
# GULP energy per Si atom -12397.054399 kJ/mol
# Density = 1.939769 g / cm^3
# Si number density = 19.441944 Si / 1000 Ang^3
#
#
#
# Elastic Constant Matrix: (Units=GPa)
#
#
# Indices 1 2 3 4 5 6 
#
# 1 64.0041 2.8706 32.6176 0.0000 0.0000 0.0000
# 2 2.8706 27.8629 3.8680 0.0000 0.0000 0.0000
# 3 32.6176 3.8680 90.0390 0.0000 0.0000 0.0000
# 4 0.0000 0.0000 0.0000 12.5906 0.0000 0.0000
# 5 0.0000 0.0000 0.0000 0.0000 31.1722 0.0000
# 6 0.0000 0.0000 0.0000 0.0000 0.0000 12.2754
#
#
#
# Elastic Compliance Matrix: (Units=1/GPa)
#
#
# Indices 1 2 3 4 5 6 
#
# 1 0.019190 -0.001018 -0.006908 0.000000 0.000000 0.000000
# 2 -0.001018 0.036159 -0.001185 0.000000 0.000000 0.000000
# 3 -0.006908 -0.001185 0.013660 0.000000 0.000000 0.000000
# 4 0.000000 0.000000 0.000000 0.079424 0.000000 0.000000
# 5 0.000000 0.000000 0.000000 0.000000 0.032080 0.000000
# 6 0.000000 0.000000 0.000000 0.000000 0.000000 0.081464
#
#
# Mechanical properties :
#
#
# Convention : Reuss Voigt Hill
#
# Bulk Modulus (GPa) = 19.68980 28.95759 24.32370
# Shear Modulus (GPa) = 16.82780 20.71099 18.76939
#
# Velocity S-wave (km/s) = 2.94520 3.26739 3.11047
# Velocity P-wave (km/s) = 4.65994 5.40011 5.04362
#
# Compressibility (1/GPa) = 0.05078771
#
# Stress axis : x y z
#
# Youngs Moduli (GPa) = 52.11014 27.65540 73.20800
#
# Poissons Ratio (x) = 0.02815 0.50573
# Poissons Ratio (y) = 0.05305 0.08672
# Poissons Ratio (z) = 0.35998 0.03276
#
# Static dielectric constant tensor:
#      x y z
#    x 3.418010 0.000000 0.000000 
#    y 0.000000 3.510280 0.000000 
#    z 0.000000 0.000000 3.583900 
# 
# 
# High freq. dielectric constant tensor:
#      x y z
#    x 1.725750 0.000000 0.000000 
#    y 0.000000 1.743870 0.000000 
#    z 0.000000 0.000000 1.756440 
# 
# From -- ./inp_files/63933.got.cif
#   From: 2010.03.12/outbox.cif.g09.slc.cpg/sg74_32_cif.got.tgz:63933.got - 2010.04.16 15:46:19.
