data_PCOD8300992
_publ_section_title
;
Structure prediction by ZEFSAII (Michael W. Deem and Ramdas Pophale) SiO2 
 PCOD8300992
Probable space group: I M M A
;
_chemical_formula_sum "Si O2"
_cell_formula_units_Z 80
_cell_length_a 19.283089
_cell_length_b 11.359903
_cell_length_c 20.261507
_cell_angle_alpha 90.000000
_cell_angle_beta 90.000000
_cell_angle_gamma 90.000000
_cell_volume 4438.364571
_symmetry_space_group_name_H-M "I M M A"
_symmetry_group_IT_number 74
_symmetry_cell_setting 'orthorhombic'
loop_
_space_group_symop_operation_xyz
x,y,z
-x,1/2-y,z
x,-y,-z
-x,1/2+y,-z
-x,-y,-z
x,1/2+y,-z
-x,y,z
x,1/2-y,z
1/2+x,1/2+y,1/2+z
1/2-x,-y,1/2+z
1/2+x,1/2-y,1/2-z
1/2-x,y,1/2-z
1/2-x,1/2-y,1/2-z
1/2+x,y,1/2-z
1/2-x,1/2+y,1/2+z
1/2+x,-y,1/2+z
loop_
_atom_site_type_symbol
_atom_site_label
_atom_site_fract_x
_atom_site_fract_y
_atom_site_fract_z
Si Si1 0.079125 0.612583 0.626398
Si Si2 0.707158 0.505833 0.074717
Si Si3 0.137982 0.250000 0.768382
Si Si4 0.708907 0.112607 0.314053
Si Si5 0.422130 0.500583 0.731386
Si Si6 0.234865 0.750000 0.357225
O O1 0.099609 0.750000 0.625461
O O2 0.127310 0.537874 0.577003
O O3 0.091828 0.563746 0.699333
O O4 0.000000 0.593862 0.603714
O O5 0.750728 0.416003 0.119339
O O6 0.716502 0.637829 0.099218
O O7 0.734114 0.500000 0.000000
O O8 0.087587 0.361195 0.764075
O O9 0.188579 0.250000 0.707006
O O10 0.184242 0.250000 0.835392
O O11 0.698924 0.250000 0.306150
O O12 0.750000 0.060816 0.250000
O O13 0.633404 0.053041 0.319740
O O14 0.500000 0.527525 0.706481
#
# Coordination Sequence:
#
# PCOD8300992 Si02
#       6
#    16  16   8  16  16   8
#     4  10  21  38  58  83 119 158 197 240 283 335
#     4  12  25  39  60  87 119 156 200 239 287 348
#     4  11  19  38  60  86 124 152 190 236 294 352
#     4  11  21  38  62  88 116 150 196 248 293 340
#     4  11  21  35  59  91 119 150 193 241 296 348
#     4  11  22  38  60  88 119 154 188 246 289 335
#
# _framework density 18.024657999999999
#
# number of rings (size 3 to 8) (size 9 to 14) (size 15 to 20)
#    0.000    1.000    6.000    1.500    2.800    1.600 
#    0.000    0.500    0.000    0.600    0.000    0.000 
#    0.000    0.000    0.000    0.000    0.000    0.000 
#
# Total GULP energy -496115.216206 kJ/mol
# GULP energy per Si atom -12402.880405 kJ/mol
# Density = 1.798363 g / cm^3
# Si number density = 18.024658 Si / 1000 Ang^3
#
#
#
# Elastic Constant Matrix: (Units=GPa)
#
#
# Indices 1 2 3 4 5 6 
#
# 1 102.3478 25.9147 38.2968 0.0000 0.0000 0.0000
# 2 25.9147 98.4277 27.0163 0.0000 0.0000 0.0000
# 3 38.2968 27.0163 92.8577 0.0000 0.0000 0.0000
# 4 0.0000 0.0000 0.0000 149.6092 0.0000 0.0000
# 5 0.0000 0.0000 0.0000 0.0000 17.8364 0.0000
# 6 0.0000 0.0000 0.0000 0.0000 0.0000 34.9634
#
#
#
# Elastic Compliance Matrix: (Units=1/GPa)
#
#
# Indices 1 2 3 4 5 6 
#
# 1 0.011884 -0.001938 -0.004337 0.000000 0.000000 0.000000
# 2 -0.001938 0.011358 -0.002505 0.000000 0.000000 0.000000
# 3 -0.004337 -0.002505 0.013287 0.000000 0.000000 0.000000
# 4 0.000000 0.000000 0.000000 0.006684 0.000000 0.000000
# 5 0.000000 0.000000 0.000000 0.000000 0.056065 0.000000
# 6 0.000000 0.000000 0.000000 0.000000 0.000000 0.028601
#
#
# Mechanical properties :
#
#
# Convention : Reuss Voigt Hill
#
# Bulk Modulus (GPa) = 52.72264 52.89874 52.81069
# Shear Modulus (GPa) = 32.94596 53.97550 43.46073
#
# Velocity S-wave (km/s) = 4.27995 5.47817 4.91571
# Velocity P-wave (km/s) = 7.33060 8.33220 7.84740
#
# Compressibility (1/GPa) = 0.01896718
#
# Stress axis : x y z
#
# Youngs Moduli (GPa) = 84.14366 88.04625 75.26244
#
# Poissons Ratio (x) = 0.17068 0.32645
# Poissons Ratio (y) = 0.16311 0.18853
# Poissons Ratio (z) = 0.36497 0.22055
#
# Static dielectric constant tensor:
#      x y z
#    x 3.495640 0.000000 0.000000 
#    y 0.000000 3.435650 0.000000 
#    z 0.000000 0.000000 3.054640 
# 
# 
# High freq. dielectric constant tensor:
#      x y z
#    x 1.703370 0.000000 0.000000 
#    y 0.000000 1.719820 0.000000 
#    z 0.000000 0.000000 1.659290 
# 
# From -- ./inp_files/41209.got.cif
#   From: 2010.03.12/outbox.cif.g09.slc.cpg/sg74_21_cif.got.tgz:41209.got - 2010.04.16 15:46:19.
