data_PCOD8300747
_publ_section_title
;
Structure prediction by ZEFSAII (Michael W. Deem and Ramdas Pophale) SiO2 
 PCOD8300747
Probable space group: I M M A
;
_chemical_formula_sum "Si O2"
_cell_formula_units_Z 80
_cell_length_a 14.355669
_cell_length_b 17.719111
_cell_length_c 16.365582
_cell_angle_alpha 90.000000
_cell_angle_beta 90.000000
_cell_angle_gamma 90.000000
_cell_volume 4162.908061
_symmetry_space_group_name_H-M "I M M A"
_symmetry_group_IT_number 74
_symmetry_cell_setting 'orthorhombic'
loop_
_space_group_symop_operation_xyz
x,y,z
-x,1/2-y,z
x,-y,-z
-x,1/2+y,-z
-x,-y,-z
x,1/2+y,-z
-x,y,z
x,1/2-y,z
1/2+x,1/2+y,1/2+z
1/2-x,-y,1/2+z
1/2+x,1/2-y,1/2-z
1/2-x,y,1/2-z
1/2-x,1/2-y,1/2-z
1/2+x,y,1/2-z
1/2-x,1/2+y,1/2+z
1/2+x,-y,1/2+z
loop_
_atom_site_type_symbol
_atom_site_label
_atom_site_fract_x
_atom_site_fract_y
_atom_site_fract_z
Si Si1 0.602346 0.040065 0.412576
Si Si2 0.892206 0.914981 0.472797
Si Si3 0.109350 0.666928 0.312259
Si Si4 0.781895 0.164360 0.022475
Si Si5 0.110282 0.382899 0.861272
O O1 0.500000 0.072190 0.393677
O O2 0.671104 0.111145 0.408985
O O3 0.605722 0.000000 0.500000
O O4 0.628968 0.972829 0.350651
O O5 0.866753 0.899086 0.377394
O O6 0.827066 0.857943 0.522663
O O7 0.000000 0.896038 0.491379
O O8 0.867627 0.000000 0.500000
O O9 0.142951 0.750000 0.343670
O O10 0.151570 0.651705 0.222366
O O11 0.000000 0.667645 0.298743
O O12 0.791727 0.250000 0.051455
O O13 0.831111 0.153587 0.934670
O O14 0.000000 0.367353 0.876974
#
# Coordination Sequence:
#
# PCOD8300747 Si02
#       5
#    16  16  16  16  16
#     4   8  15  28  45  67  97 130 160 186 218 273
#     4  10  21  36  50  64  88 124 164 202 239 282
#     4   9  17  30  49  74 100 121 147 189 238 284
#     4  11  20  29  46  70  96 127 162 197 233 275
#     4   9  17  30  48  72 104 133 151 178 228 288
#
# _framework density 19.217336
#
# number of rings (size 3 to 8) (size 9 to 14) (size 15 to 20)
#    0.000    2.600    0.000    4.800    0.000    4.400 
#    0.000    2.000    0.000    0.000    0.000    4.200 
#    0.000   16.000    0.000    0.000    0.000    0.000 
#
# Total GULP energy -495621.529194 kJ/mol
# GULP energy per Si atom -12390.538230 kJ/mol
# Density = 1.917360 g / cm^3
# Si number density = 19.217336 Si / 1000 Ang^3
#
#
#
# Elastic Constant Matrix: (Units=GPa)
#
#
# Indices 1 2 3 4 5 6 
#
# 1 70.0980 38.0934 -0.1585 0.0000 0.0000 0.0000
# 2 38.0934 136.8815 30.3478 0.0000 0.0000 0.0000
# 3 -0.1585 30.3478 42.4717 0.0000 0.0000 0.0000
# 4 0.0000 0.0000 0.0000 30.1182 0.0000 0.0000
# 5 0.0000 0.0000 0.0000 0.0000 14.1329 0.0000
# 6 0.0000 0.0000 0.0000 0.0000 0.0000 23.0874
#
#
#
# Elastic Compliance Matrix: (Units=1/GPa)
#
#
# Indices 1 2 3 4 5 6 
#
# 1 0.017414 -0.005776 0.004192 0.000000 0.000000 0.000000
# 2 -0.005776 0.010596 -0.007593 0.000000 0.000000 0.000000
# 3 0.004192 -0.007593 0.028986 0.000000 0.000000 0.000000
# 4 0.000000 0.000000 0.000000 0.033202 0.000000 0.000000
# 5 0.000000 0.000000 0.000000 0.000000 0.070757 0.000000
# 6 0.000000 0.000000 0.000000 0.000000 0.000000 0.043314
#
#
# Mechanical properties :
#
#
# Convention : Reuss Voigt Hill
#
# Bulk Modulus (GPa) = 25.87794 42.89071 34.38432
# Shear Modulus (GPa) = 21.23105 25.54560 23.38833
#
# Velocity S-wave (km/s) = 3.32744 3.64991 3.49240
# Velocity P-wave (km/s) = 5.31579 6.33480 5.84753
#
# Compressibility (1/GPa) = 0.03864296
#
# Stress axis : x y z
#
# Youngs Moduli (GPa) = 57.42559 94.37215 34.49905
#
# Poissons Ratio (x) = 0.54505 -0.14462
# Poissons Ratio (y) = 0.33166 0.26195
# Poissons Ratio (z) = -0.24072 0.71658
#
# Static dielectric constant tensor:
#      x y z
#    x 3.659010 0.000000 0.000000 
#    y 0.000000 3.806290 0.000000 
#    z 0.000000 0.000000 3.330700 
# 
# 
# High freq. dielectric constant tensor:
#      x y z
#    x 1.760110 0.000000 0.000000 
#    y 0.000000 1.745850 0.000000 
#    z 0.000000 0.000000 1.690190 
# 
# From -- ./inp_files/42696.got.cif
#   From: 2010.03.12/outbox.cif.g09.slc.cpg/sg74_22_cif.got.tgz:42696.got - 2010.04.16 15:46:19.
