data_PCOD8300904
_publ_section_title
;
Structure prediction by ZEFSAII (Michael W. Deem and Ramdas Pophale) SiO2 
 PCOD8300904
Probable space group: I M M A
;
_chemical_formula_sum "Si O2"
_cell_formula_units_Z 80
_cell_length_a 30.094162
_cell_length_b 17.470760
_cell_length_c 7.469630
_cell_angle_alpha 90.000000
_cell_angle_beta 90.000000
_cell_angle_gamma 90.000000
_cell_volume 3927.291542
_symmetry_space_group_name_H-M "I M M A"
_symmetry_group_IT_number 74
_symmetry_cell_setting 'orthorhombic'
loop_
_space_group_symop_operation_xyz
x,y,z
-x,1/2-y,z
x,-y,-z
-x,1/2+y,-z
-x,-y,-z
x,1/2+y,-z
-x,y,z
x,1/2-y,z
1/2+x,1/2+y,1/2+z
1/2-x,-y,1/2+z
1/2+x,1/2-y,1/2-z
1/2-x,y,1/2-z
1/2-x,1/2-y,1/2-z
1/2+x,y,1/2-z
1/2-x,1/2+y,1/2+z
1/2+x,-y,1/2+z
loop_
_atom_site_type_symbol
_atom_site_label
_atom_site_fract_x
_atom_site_fract_y
_atom_site_fract_z
Si Si1 0.210793 0.911692 0.533498
Si Si2 0.892153 0.338491 0.098123
Si Si3 0.612481 0.589709 0.982188
Si Si4 0.049956 0.840684 0.227336
Si Si5 0.205592 0.837586 0.913520
O O1 0.162675 0.887919 0.452125
O O2 0.207577 0.893236 0.743299
O O3 0.253722 0.864517 0.455164
O O4 0.220414 0.000000 0.500000
O O5 0.900962 0.250000 0.147835
O O6 0.896175 0.387683 0.277137
O O7 0.843509 0.347382 0.003168
O O8 0.927565 0.370645 0.955805
O O9 0.576843 0.632908 0.100726
O O10 0.605028 0.500000 0.000000
O O11 0.050026 0.750000 0.226380
O O12 0.000000 0.873431 0.237013
O O13 0.213293 0.750000 0.854897
#
# Coordination Sequence:
#
# PCOD8300904 Si02
#       5
#    16  16  16  16  16
#     4   9  17  31  49  81 112 145 184 226 277 333
#     4   9  19  38  60  82 112 152 193 236 286 338
#     4  10  21  37  57  86 118 150 187 228 288 347
#     4  10  22  40  61  85 111 144 194 248 290 338
#     4   9  17  33  55  77 105 152 197 228 272 339
#
# _framework density 20.370270999999999
#
# number of rings (size 3 to 8) (size 9 to 14) (size 15 to 20)
#    0.000    2.600    0.000    1.800    0.000    4.400 
#   18.000    3.000    0.000    3.600    0.000    0.000 
#    0.000    0.000    0.000    0.000    0.000    0.000 
#
# Total GULP energy -495597.808573 kJ/mol
# GULP energy per Si atom -12389.945214 kJ/mol
# Density = 2.032391 g / cm^3
# Si number density = 20.370271 Si / 1000 Ang^3
#
#
#
# Elastic Constant Matrix: (Units=GPa)
#
#
# Indices 1 2 3 4 5 6 
#
# 1 195.5934 44.4726 67.9481 0.0000 0.0000 0.0000
# 2 44.4726 55.8027 27.1095 0.0000 0.0000 0.0000
# 3 67.9481 27.1095 75.5612 0.0000 0.0000 0.0000
# 4 0.0000 0.0000 0.0000 95.9042 0.0000 0.0000
# 5 0.0000 0.0000 0.0000 0.0000 20.2056 0.0000
# 6 0.0000 0.0000 0.0000 0.0000 0.0000 45.4302
#
#
#
# Elastic Compliance Matrix: (Units=1/GPa)
#
#
# Indices 1 2 3 4 5 6 
#
# 1 0.007954 -0.003469 -0.005908 0.000000 0.000000 0.000000
# 2 -0.003469 0.023216 -0.005210 0.000000 0.000000 0.000000
# 3 -0.005908 -0.005210 0.020416 0.000000 0.000000 0.000000
# 4 0.000000 0.000000 0.000000 0.010427 0.000000 0.000000
# 5 0.000000 0.000000 0.000000 0.000000 0.049491 0.000000
# 6 0.000000 0.000000 0.000000 0.000000 0.000000 0.022012
#
#
# Mechanical properties :
#
#
# Convention : Reuss Voigt Hill
#
# Bulk Modulus (GPa) = 44.61806 67.33531 55.97669
# Shear Modulus (GPa) = 29.38419 44.80316 37.09367
#
# Velocity S-wave (km/s) = 3.80215 4.69491 4.27191
# Velocity P-wave (km/s) = 6.42076 7.90677 7.20219
#
# Compressibility (1/GPa) = 0.02241245
#
# Stress axis : x y z
#
# Youngs Moduli (GPa) = 125.72803 43.07415 48.98091
#
# Poissons Ratio (x) = 0.14941 0.28937
# Poissons Ratio (y) = 0.43611 0.25519
# Poissons Ratio (z) = 0.74278 0.22442
#
# Static dielectric constant tensor:
#      x y z
#    x 4.576960 0.000000 0.000000 
#    y 0.000000 3.560630 0.000000 
#    z 0.000000 0.000000 3.360140 
# 
# 
# High freq. dielectric constant tensor:
#      x y z
#    x 1.818130 0.000000 0.000000 
#    y 0.000000 1.786820 0.000000 
#    z 0.000000 0.000000 1.764060 
# 
# From -- ./inp_files/14929.got.cif
#   From: 2010.03.12/outbox.cif.g09.slc.cpg/sg74_8_cif.got.tgz:14929.got - 2010.04.16 15:46:19.
