data_PCOD8300471
_publ_section_title
;
Structure prediction by ZEFSAII (Michael W. Deem and Ramdas Pophale) SiO2 
 PCOD8300471
Probable space group: I M M A
;
_chemical_formula_sum "Si O2"
_cell_formula_units_Z 104
_cell_length_a 22.051252
_cell_length_b 25.866494
_cell_length_c 9.283437
_cell_angle_alpha 90.000000
_cell_angle_beta 90.000000
_cell_angle_gamma 90.000000
_cell_volume 5295.166425
_symmetry_space_group_name_H-M "I M M A"
_symmetry_group_IT_number 74
_symmetry_cell_setting 'orthorhombic'
loop_
_space_group_symop_operation_xyz
x,y,z
-x,1/2-y,z
x,-y,-z
-x,1/2+y,-z
-x,-y,-z
x,1/2+y,-z
-x,y,z
x,1/2-y,z
1/2+x,1/2+y,1/2+z
1/2-x,-y,1/2+z
1/2+x,1/2-y,1/2-z
1/2-x,y,1/2-z
1/2-x,1/2-y,1/2-z
1/2+x,y,1/2-z
1/2-x,1/2+y,1/2+z
1/2+x,-y,1/2+z
loop_
_atom_site_type_symbol
_atom_site_label
_atom_site_fract_x
_atom_site_fract_y
_atom_site_fract_z
Si Si1 0.729637 0.550348 0.412953
Si Si2 0.132781 0.807719 0.944510
Si Si3 0.110182 0.191582 0.386395
Si Si4 0.739593 0.647198 0.912715
Si Si5 0.500000 0.057153 0.783347
Si Si6 0.500000 0.877670 0.941705
Si Si7 0.094788 0.087071 0.936997
Si Si8 0.000000 0.943623 0.831540
O O1 0.749918 0.500000 0.500000
O O2 0.750000 0.543390 0.250000
O O3 0.764125 0.598754 0.481311
O O4 0.658110 0.558232 0.425984
O O5 0.117578 0.750000 0.002481
O O6 0.106320 0.814666 0.785057
O O7 0.205445 0.814235 0.949590
O O8 0.101141 0.851261 0.041332
O O9 0.096508 0.250000 0.433122
O O10 0.177465 0.177390 0.437779
O O11 0.060456 0.156128 0.464941
O O12 0.750000 0.626665 0.750000
O O13 0.440221 0.081203 0.712062
O O14 0.500000 0.995729 0.761858
O O15 0.500000 0.073555 0.950115
O O16 0.500000 0.896750 0.778417
O O17 0.059260 0.059557 0.068054
#
# Coordination Sequence:
#
# PCOD8300471 Si02
#       8
#    16  16  16  16   8   8  16   8
#     4  11  23  39  61  91 125 161 199 246 304 354
#     4   9  17  34  64  92 113 149 203 250 291 352
#     4  10  20  37  60  87 121 156 195 250 307 352
#     4   9  19  36  60  88 120 154 199 246 298 364
#     4  11  25  40  60  83 124 157 202 246 313 347
#     4  12  24  38  59  92 119 153 204 256 298 358
#     4  10  21  42  64  87 119 157 204 248 294 362
#     4  11  21  44  65  87 109 166 208 251 288 351
#
# _framework density 19.640553000000001
#
# number of rings (size 3 to 8) (size 9 to 14) (size 15 to 20)
#    0.000    1.846    1.538    3.231    2.154    1.846 
#    2.769    3.077    0.000    2.308    0.000    0.000 
#    0.000    0.000    0.000    0.000    0.000    0.000 
#
# Total GULP energy -644876.624598 kJ/mol
# GULP energy per Si atom -12401.473550 kJ/mol
# Density = 1.959585 g / cm^3
# Si number density = 19.640553 Si / 1000 Ang^3
#
#
#
# Elastic Constant Matrix: (Units=GPa)
#
#
# Indices 1 2 3 4 5 6 
#
# 1 90.6696 37.7022 20.0815 0.0000 0.0000 0.0000
# 2 37.7022 121.6606 38.2666 0.0000 0.0000 0.0000
# 3 20.0815 38.2666 80.5502 0.0000 0.0000 0.0000
# 4 0.0000 0.0000 0.0000 29.4182 0.0000 0.0000
# 5 0.0000 0.0000 0.0000 0.0000 13.6728 0.0000
# 6 0.0000 0.0000 0.0000 0.0000 0.0000 20.7780
#
#
#
# Elastic Compliance Matrix: (Units=1/GPa)
#
#
# Indices 1 2 3 4 5 6 
#
# 1 0.012821 -0.003489 -0.001539 0.000000 0.000000 0.000000
# 2 -0.003489 0.010613 -0.004172 0.000000 0.000000 0.000000
# 3 -0.001539 -0.004172 0.014780 0.000000 0.000000 0.000000
# 4 0.000000 0.000000 0.000000 0.033993 0.000000 0.000000
# 5 0.000000 0.000000 0.000000 0.000000 0.073138 0.000000
# 6 0.000000 0.000000 0.000000 0.000000 0.000000 0.048128
#
#
# Mechanical properties :
#
#
# Convention : Reuss Voigt Hill
#
# Bulk Modulus (GPa) = 50.46868 53.88679 52.17774
# Shear Modulus (GPa) = 22.88573 25.89582 24.39077
#
# Velocity S-wave (km/s) = 3.41725 3.63504 3.52782
# Velocity P-wave (km/s) = 6.42822 6.71670 6.57404
#
# Compressibility (1/GPa) = 0.01981427
#
# Stress axis : x y z
#
# Youngs Moduli (GPa) = 77.99895 94.22298 67.65794
#
# Poissons Ratio (x) = 0.32875 0.10410
# Poissons Ratio (y) = 0.27215 0.28227
# Poissons Ratio (z) = 0.12002 0.39311
#
# Static dielectric constant tensor:
#      x y z
#    x 3.585250 0.000000 0.000000 
#    y 0.000000 3.620270 0.000000 
#    z 0.000000 0.000000 3.353750 
# 
# 
# High freq. dielectric constant tensor:
#      x y z
#    x 1.771160 0.000000 0.000000 
#    y 0.000000 1.776360 0.000000 
#    z 0.000000 0.000000 1.741830 
# 
# From -- ./inp_files/12825.got.cif
#   From: 2010.03.12/outbox.cif.g09.slc.cpg/sg74_7_cif.got.tgz:12825.got - 2010.04.16 15:46:19.
