data_PCOD8300030
_publ_section_title
;
Structure prediction by ZEFSAII (Michael W. Deem and Ramdas Pophale) SiO2 
 PCOD8300030
Probable space group: I M M A
;
_chemical_formula_sum "Si O2"
_cell_formula_units_Z 116
_cell_length_a 24.170237
_cell_length_b 27.104344
_cell_length_c 9.211522
_cell_angle_alpha 90.000000
_cell_angle_beta 90.000000
_cell_angle_gamma 90.000000
_cell_volume 6034.637722
_symmetry_space_group_name_H-M "I M M A"
_symmetry_group_IT_number 74
_symmetry_cell_setting 'orthorhombic'
loop_
_space_group_symop_operation_xyz
x,y,z
-x,1/2-y,z
x,-y,-z
-x,1/2+y,-z
-x,-y,-z
x,1/2+y,-z
-x,y,z
x,1/2-y,z
1/2+x,1/2+y,1/2+z
1/2-x,-y,1/2+z
1/2+x,1/2-y,1/2-z
1/2-x,y,1/2-z
1/2-x,1/2-y,1/2-z
1/2+x,y,1/2-z
1/2-x,1/2+y,1/2+z
1/2+x,-y,1/2+z
loop_
_atom_site_type_symbol
_atom_site_label
_atom_site_fract_x
_atom_site_fract_y
_atom_site_fract_z
Si Si1 0.062792 0.082677 0.834501
Si Si2 0.135650 0.106889 0.348384
Si Si3 0.935754 0.014105 0.337859
Si Si4 0.690745 0.193452 0.699357
Si Si5 0.658138 0.116111 0.468585
Si Si6 0.759439 0.050101 0.417715
Si Si7 0.000000 0.750000 0.435061
Si Si8 0.409529 0.333710 0.892392
O O1 0.067437 0.123027 0.708676
O O2 0.000000 0.081196 0.891945
O O3 0.080629 0.030178 0.768867
O O4 0.100953 0.093637 0.972163
O O5 0.098525 0.061670 0.292145
O O6 0.153203 0.133617 0.198576
O O7 0.189186 0.087597 0.435987
O O8 0.101340 0.144733 0.446451
O O9 0.000000 0.027229 0.328028
O O10 0.918602 0.000000 0.500000
O O11 0.695368 0.250000 0.652430
O O12 0.750000 0.172850 0.750000
O O13 0.672086 0.165041 0.556352
O O14 0.647797 0.186999 0.830063
O O15 0.705615 0.075067 0.488198
O O16 0.750000 0.037154 0.250000
O O17 0.773915 0.000000 0.500000
O O18 0.953502 0.790938 0.406201
#
# Coordination Sequence:
#
# PCOD8300030 Si02
#       8
#    16  16  16  16  16  16   4  16
#     4  10  21  38  61  87 117 163 209 254 301 358
#     4  11  23  39  60  90 127 161 198 248 313 371
#     4  10  20  34  59  89 116 158 209 250 289 357
#     4  10  21  42  68  92 113 154 212 262 310 368
#     4  10  24  40  60  89 128 160 202 256 317 366
#     4  10  23  38  60  89 126 164 201 247 303 367
#     4  12  24  40  62  96 122 156 212 264 312 362
#     4  11  22  39  66  88 123 155 204 258 308 367
#
# _framework density 19.222363000000001
#
# number of rings (size 3 to 8) (size 9 to 14) (size 15 to 20)
#    0.000    1.655    2.759    1.241    4.828    2.207 
#    1.241    1.379    0.000    6.207    0.000    0.000 
#    0.000    0.000    0.000    0.000    0.000    0.000 
#
# Total GULP energy -718542.936934 kJ/mol
# GULP energy per Si atom -12388.671326 kJ/mol
# Density = 1.917861 g / cm^3
# Si number density = 19.222363 Si / 1000 Ang^3
#
#
#
# Elastic Constant Matrix: (Units=GPa)
#
#
# Indices 1 2 3 4 5 6 
#
# 1 133.2296 60.6388 47.0643 0.0000 0.0000 0.0000
# 2 60.6388 99.1624 49.3617 0.0000 0.0000 0.0000
# 3 47.0643 49.3617 82.5356 0.0000 0.0000 0.0000
# 4 0.0000 0.0000 0.0000 15.2042 0.0000 0.0000
# 5 0.0000 0.0000 0.0000 0.0000 20.0823 0.0000
# 6 0.0000 0.0000 0.0000 0.0000 0.0000 46.2304
#
#
#
# Elastic Compliance Matrix: (Units=1/GPa)
#
#
# Indices 1 2 3 4 5 6 
#
# 1 0.010961 -0.005114 -0.003192 0.000000 0.000000 0.000000
# 2 -0.005114 0.016745 -0.007099 0.000000 0.000000 0.000000
# 3 -0.003192 -0.007099 0.018182 0.000000 0.000000 0.000000
# 4 0.000000 0.000000 0.000000 0.065771 0.000000 0.000000
# 5 0.000000 0.000000 0.000000 0.000000 0.049795 0.000000
# 6 0.000000 0.000000 0.000000 0.000000 0.000000 0.021631
#
#
# Mechanical properties :
#
#
# Convention : Reuss Voigt Hill
#
# Bulk Modulus (GPa) = 66.31748 69.89524 68.10636
# Shear Modulus (GPa) = 22.83938 26.82757 24.83347
#
# Velocity S-wave (km/s) = 3.45072 3.73988 3.59821
# Velocity P-wave (km/s) = 7.10294 7.42222 7.26433
#
# Compressibility (1/GPa) = 0.01507898
#
# Stress axis : x y z
#
# Youngs Moduli (GPa) = 91.23324 59.71834 55.00077
#
# Poissons Ratio (x) = 0.30539 0.17555
# Poissons Ratio (y) = 0.46655 0.39043
# Poissons Ratio (z) = 0.29120 0.42392
#
# Static dielectric constant tensor:
#      x y z
#    x 4.749290 0.000000 0.000000 
#    y 0.000000 4.104590 0.000000 
#    z 0.000000 0.000000 3.354060 
# 
# 
# High freq. dielectric constant tensor:
#      x y z
#    x 1.774450 0.000000 0.000000 
#    y 0.000000 1.748070 0.000000 
#    z 0.000000 0.000000 1.732160 
# 
# From -- ./inp_files/14191.got.cif
#   From: 2010.03.12/outbox.cif.g09.slc.cpg/sg74_8_cif.got.tgz:14191.got - 2010.04.16 15:46:19.
