data_PCOD8300590
_publ_section_title
;
Structure prediction by ZEFSAII (Michael W. Deem and Ramdas Pophale) SiO2 
 PCOD8300590
Probable space group: I M M A
;
_chemical_formula_sum "Si O2"
_cell_formula_units_Z 104
_cell_length_a 27.550352
_cell_length_b 9.046774
_cell_length_c 22.854336
_cell_angle_alpha 90.000000
_cell_angle_beta 90.000000
_cell_angle_gamma 90.000000
_cell_volume 5696.256029
_symmetry_space_group_name_H-M "I M M A"
_symmetry_group_IT_number 74
_symmetry_cell_setting 'orthorhombic'
loop_
_space_group_symop_operation_xyz
x,y,z
-x,1/2-y,z
x,-y,-z
-x,1/2+y,-z
-x,-y,-z
x,1/2+y,-z
-x,y,z
x,1/2-y,z
1/2+x,1/2+y,1/2+z
1/2-x,-y,1/2+z
1/2+x,1/2-y,1/2-z
1/2-x,y,1/2-z
1/2-x,1/2-y,1/2-z
1/2+x,y,1/2-z
1/2-x,1/2+y,1/2+z
1/2+x,-y,1/2+z
loop_
_atom_site_type_symbol
_atom_site_label
_atom_site_fract_x
_atom_site_fract_y
_atom_site_fract_z
Si Si1 0.000000 0.079876 0.060742
Si Si2 0.192379 0.419179 0.745726
Si Si3 0.235226 0.078857 0.560532
Si Si4 0.102960 0.077461 0.061496
Si Si5 0.555843 0.423470 0.061654
Si Si6 0.360028 0.080333 0.874114
Si Si7 0.810280 0.075589 0.139649
O O1 0.050739 0.041361 0.093361
O O2 0.000000 0.250000 0.044171
O O3 0.000000 0.000000 0.000000
O O4 0.177889 0.250000 0.758194
O O5 0.250000 0.437339 0.750000
O O6 0.167482 0.471894 0.685144
O O7 0.173338 0.527747 0.795783
O O8 0.250271 0.250000 0.556289
O O9 0.177947 0.061668 0.572593
O O10 0.249372 0.000000 0.500000
O O11 0.262599 0.006193 0.615589
O O12 0.109675 0.250000 0.050978
O O13 0.145330 0.016651 0.101369
O O14 0.107088 0.000000 0.000000
O O15 0.500000 0.456216 0.080227
O O16 0.564927 0.250000 0.054178
O O17 0.591949 0.484606 0.111949
O O18 0.567850 0.500000 0.000000
O O19 0.376401 0.250000 0.868136
O O20 0.801416 0.250000 0.137261
#
# Coordination Sequence:
#
# PCOD8300590 Si02
#       7
#     8  16  16  16  16  16  16
#     4   8  14  28  48  68  94 128 162 202 247 298
#     4  10  20  39  59  77 103 141 183 224 269 317
#     4  11  22  36  52  77 111 144 177 218 269 325
#     4   9  18  31  49  74 102 132 169 209 258 310
#     4  10  21  37  59  88 120 150 183 227 281 338
#     4  10  21  37  59  82 107 144 186 227 274 327
#     4  11  22  34  51  78 106 139 180 221 266 321
#
# _framework density 18.257607
#
# number of rings (size 3 to 8) (size 9 to 14) (size 15 to 20)
#    0.000    2.000    1.538    2.308    0.000    6.769 
#    0.000    0.000    1.692    0.000    0.000    0.000 
#    0.000    0.000    0.000    0.000    0.000    0.000 
#
# Total GULP energy -644449.776094 kJ/mol
# GULP energy per Si atom -12393.264925 kJ/mol
# Density = 1.821605 g / cm^3
# Si number density = 18.257607 Si / 1000 Ang^3
#
#
#
# Elastic Constant Matrix: (Units=GPa)
#
#
# Indices 1 2 3 4 5 6 
#
# 1 114.5986 50.3417 44.6725 0.0000 0.0000 0.0000
# 2 50.3417 80.1277 46.3173 0.0000 0.0000 0.0000
# 3 44.6725 46.3173 99.0997 0.0000 0.0000 0.0000
# 4 0.0000 0.0000 0.0000 32.4908 0.0000 0.0000
# 5 0.0000 0.0000 0.0000 0.0000 17.3006 0.0000
# 6 0.0000 0.0000 0.0000 0.0000 0.0000 29.3240
#
#
#
# Elastic Compliance Matrix: (Units=1/GPa)
#
#
# Indices 1 2 3 4 5 6 
#
# 1 0.012560 -0.006328 -0.002704 0.000000 0.000000 0.000000
# 2 -0.006328 0.020288 -0.006630 0.000000 0.000000 0.000000
# 3 -0.002704 -0.006630 0.014409 0.000000 0.000000 0.000000
# 4 0.000000 0.000000 0.000000 0.030778 0.000000 0.000000
# 5 0.000000 0.000000 0.000000 0.000000 0.057802 0.000000
# 6 0.000000 0.000000 0.000000 0.000000 0.000000 0.034102
#
#
# Mechanical properties :
#
#
# Convention : Reuss Voigt Hill
#
# Bulk Modulus (GPa) = 62.76402 64.05435 63.40918
# Shear Modulus (GPa) = 24.20459 25.98938 25.09699
#
# Velocity S-wave (km/s) = 3.64500 3.77700 3.71159
# Velocity P-wave (km/s) = 7.22262 7.36076 7.29202
#
# Compressibility (1/GPa) = 0.01593270
#
# Stress axis : x y z
#
# Youngs Moduli (GPa) = 79.61746 49.29042 69.40343
#
# Poissons Ratio (x) = 0.31190 0.18769
# Poissons Ratio (y) = 0.50381 0.46012
# Poissons Ratio (z) = 0.21531 0.32678
#
# Static dielectric constant tensor:
#      x y z
#    x 3.746540 0.000000 0.000000 
#    y 0.000000 3.304070 0.000000 
#    z 0.000000 0.000000 3.293050 
# 
# 
# High freq. dielectric constant tensor:
#      x y z
#    x 1.714430 0.000000 0.000000 
#    y 0.000000 1.711560 0.000000 
#    z 0.000000 0.000000 1.687160 
# 
# From -- ./inp_files/62344.got.cif
#   From: 2010.03.12/outbox.cif.g09.slc.cpg/sg74_32_cif.got.tgz:62344.got - 2010.04.16 15:46:19.
