data_PCOD8300922
_publ_section_title
;
Structure prediction by ZEFSAII (Michael W. Deem and Ramdas Pophale) SiO2 
 PCOD8300922
Probable space group: I M M A
;
_chemical_formula_sum "Si O2"
_cell_formula_units_Z 72
_cell_length_a 25.574470
_cell_length_b 17.042477
_cell_length_c 7.976003
_cell_angle_alpha 90.000000
_cell_angle_beta 90.000000
_cell_angle_gamma 90.000000
_cell_volume 3476.359386
_symmetry_space_group_name_H-M "I M M A"
_symmetry_group_IT_number 74
_symmetry_cell_setting 'orthorhombic'
loop_
_space_group_symop_operation_xyz
x,y,z
-x,1/2-y,z
x,-y,-z
-x,1/2+y,-z
-x,-y,-z
x,1/2+y,-z
-x,y,z
x,1/2-y,z
1/2+x,1/2+y,1/2+z
1/2-x,-y,1/2+z
1/2+x,1/2-y,1/2-z
1/2-x,y,1/2-z
1/2-x,1/2-y,1/2-z
1/2+x,y,1/2-z
1/2-x,1/2+y,1/2+z
1/2+x,-y,1/2+z
loop_
_atom_site_type_symbol
_atom_site_label
_atom_site_fract_x
_atom_site_fract_y
_atom_site_fract_z
Si Si1 0.250000 0.559525 0.250000
Si Si2 0.737328 0.837982 0.936899
Si Si3 0.057795 0.574123 0.380029
Si Si4 0.120956 0.336338 0.371095
Si Si5 0.643627 0.008942 0.308719
O O1 0.263458 0.610637 0.416039
O O2 0.301869 0.507771 0.209635
O O3 0.761081 0.750000 0.948389
O O4 0.750000 0.872010 0.750000
O O5 0.675611 0.836609 0.969664
O O6 0.056384 0.500000 0.500000
O O7 0.076339 0.647997 0.490605
O O8 0.099240 0.555373 0.234431
O O9 0.000000 0.591371 0.305033
O O10 0.110794 0.250000 0.290187
O O11 0.122512 0.403386 0.228829
O O12 0.657007 0.000000 0.500000
#
# Coordination Sequence:
#
# PCOD8300922 Si02
#       5
#     8  16  16  16  16
#     4  12  23  36  61  88 130 170 218 254 311 400
#     4  10  21  37  58  88 125 166 207 260 323 379
#     4   9  19  39  64  87 115 156 210 262 312 373
#     4  10  21  40  60  86 122 161 210 260 314 378
#     4  11  24  37  60  94 124 170 210 262 324 386
#
# _framework density 20.711323
#
# number of rings (size 3 to 8) (size 9 to 14) (size 15 to 20)
#    0.000    1.778    2.222    1.667    4.667    0.889 
#    0.000    2.222    0.000    0.000    0.000    0.000 
#    0.000    0.000    0.000    0.000    0.000    0.000 
#
# Total GULP energy -446266.860820 kJ/mol
# GULP energy per Si atom -12396.301689 kJ/mol
# Density = 2.066418 g / cm^3
# Si number density = 20.711323 Si / 1000 Ang^3
#
#
#
# Elastic Constant Matrix: (Units=GPa)
#
#
# Indices 1 2 3 4 5 6 
#
# 1 138.7995 31.0444 22.2600 0.0000 0.0000 0.0000
# 2 31.0444 118.4077 45.5629 0.0000 0.0000 0.0000
# 3 22.2600 45.5629 95.2866 0.0000 0.0000 0.0000
# 4 0.0000 0.0000 0.0000 19.3850 0.0000 0.0000
# 5 0.0000 0.0000 0.0000 0.0000 26.8760 0.0000
# 6 0.0000 0.0000 0.0000 0.0000 0.0000 17.3970
#
#
#
# Elastic Compliance Matrix: (Units=1/GPa)
#
#
# Indices 1 2 3 4 5 6 
#
# 1 0.007734 -0.001633 -0.001026 0.000000 0.000000 0.000000
# 2 -0.001633 0.010695 -0.004732 0.000000 0.000000 0.000000
# 3 -0.001026 -0.004732 0.012997 0.000000 0.000000 0.000000
# 4 0.000000 0.000000 0.000000 0.051586 0.000000 0.000000
# 5 0.000000 0.000000 0.000000 0.000000 0.037208 0.000000
# 6 0.000000 0.000000 0.000000 0.000000 0.000000 0.057481
#
#
# Mechanical properties :
#
#
# Convention : Reuss Voigt Hill
#
# Bulk Modulus (GPa) = 60.08344 61.13648 60.60996
# Shear Modulus (GPa) = 25.24845 29.64003 27.44424
#
# Velocity S-wave (km/s) = 3.49530 3.78710 3.64412
# Velocity P-wave (km/s) = 6.73516 6.97892 6.85812
#
# Compressibility (1/GPa) = 0.01664352
#
# Stress axis : x y z
#
# Youngs Moduli (GPa) = 129.29203 93.50592 76.93994
#
# Poissons Ratio (x) = 0.15270 0.07894
# Poissons Ratio (y) = 0.21114 0.36410
# Poissons Ratio (z) = 0.13265 0.44249
#
# Static dielectric constant tensor:
#      x y z
#    x 4.071220 0.000000 0.000000 
#    y 0.000000 3.972550 0.000000 
#    z 0.000000 0.000000 3.381370 
# 
# 
# High freq. dielectric constant tensor:
#      x y z
#    x 1.802420 0.000000 0.000000 
#    y 0.000000 1.815780 0.000000 
#    z 0.000000 0.000000 1.779900 
# 
# From -- ./inp_files/13477.got.cif
#   From: 2010.03.12/outbox.cif.g09.slc.cpg/sg74_7_cif.got.tgz:13477.got - 2010.04.16 15:46:19.
