data_PCOD8300339
_publ_section_title
;
Structure prediction by ZEFSAII (Michael W. Deem and Ramdas Pophale) SiO2 
 PCOD8300339
Probable space group: I M M A
;
_chemical_formula_sum "Si O2"
_cell_formula_units_Z 96
_cell_length_a 15.041364
_cell_length_b 14.990130
_cell_length_c 21.633356
_cell_angle_alpha 90.000000
_cell_angle_beta 90.000000
_cell_angle_gamma 90.000000
_cell_volume 4877.716082
_symmetry_space_group_name_H-M "I M M A"
_symmetry_group_IT_number 74
_symmetry_cell_setting 'orthorhombic'
loop_
_space_group_symop_operation_xyz
x,y,z
-x,1/2-y,z
x,-y,-z
-x,1/2+y,-z
-x,-y,-z
x,1/2+y,-z
-x,y,z
x,1/2-y,z
1/2+x,1/2+y,1/2+z
1/2-x,-y,1/2+z
1/2+x,1/2-y,1/2-z
1/2-x,y,1/2-z
1/2-x,1/2-y,1/2-z
1/2+x,y,1/2-z
1/2-x,1/2+y,1/2+z
1/2+x,-y,1/2+z
loop_
_atom_site_type_symbol
_atom_site_label
_atom_site_fract_x
_atom_site_fract_y
_atom_site_fract_z
Si Si1 0.143836 0.973616 0.748802
Si Si2 0.100961 0.518559 0.887343
Si Si3 0.831412 0.154115 0.703694
Si Si4 0.239958 0.146665 0.052362
Si Si5 0.901164 0.853556 0.636619
Si Si6 0.215825 0.148822 0.912043
O O1 0.250000 0.973460 0.750000
O O2 0.105408 0.952873 0.815888
O O3 0.108580 0.899270 0.702839
O O4 0.108238 0.071058 0.725677
O O5 0.155753 0.589086 0.927352
O O6 0.135903 0.418218 0.896833
O O7 0.000000 0.522548 0.910749
O O8 0.883088 0.250000 0.703524
O O9 0.750000 0.163482 0.750000
O O10 0.796438 0.132099 0.635000
O O11 0.220454 0.250000 0.067570
O O12 0.328092 0.111638 0.087702
O O13 0.255785 0.131525 0.979848
O O14 0.886225 0.750000 0.649109
O O15 0.000000 0.872242 0.609869
O O16 0.178778 0.250000 0.905698
#
# Coordination Sequence:
#
# PCOD8300339 Si02
#       6
#    16  16  16  16  16  16
#     4  11  19  35  59  86 113 152 187 237 285 341
#     4  12  24  37  56  84 117 155 195 235 281 335
#     4   9  16  31  59  85 106 142 186 228 284 339
#     4  10  22  39  59  84 115 152 192 235 283 339
#     4  10  21  38  61  87 115 149 190 238 291 344
#     4  10  20  36  58  85 113 147 191 235 279 337
#
# _framework density 19.681341
#
# number of rings (size 3 to 8) (size 9 to 14) (size 15 to 20)
#    0.000    1.667    5.000    1.000    0.000    3.000 
#    0.000    1.667    0.000   10.500    0.000    7.000 
#    0.000    0.000    0.000    0.000    0.000    0.000 
#
# Total GULP energy -595102.746566 kJ/mol
# GULP energy per Si atom -12397.973887 kJ/mol
# Density = 1.963655 g / cm^3
# Si number density = 19.681341 Si / 1000 Ang^3
#
#
#
# Elastic Constant Matrix: (Units=GPa)
#
#
# Indices 1 2 3 4 5 6 
#
# 1 56.8999 14.6142 7.4940 0.0000 0.0000 0.0000
# 2 14.6142 54.1244 23.5348 0.0000 0.0000 0.0000
# 3 7.4940 23.5348 121.6178 0.0000 0.0000 0.0000
# 4 0.0000 0.0000 0.0000 35.3625 0.0000 0.0000
# 5 0.0000 0.0000 0.0000 0.0000 11.3223 0.0000
# 6 0.0000 0.0000 0.0000 0.0000 0.0000 16.7521
#
#
#
# Elastic Compliance Matrix: (Units=1/GPa)
#
#
# Indices 1 2 3 4 5 6 
#
# 1 0.018888 -0.005016 -0.000193 0.000000 0.000000 0.000000
# 2 -0.005016 0.021506 -0.003853 0.000000 0.000000 0.000000
# 3 -0.000193 -0.003853 0.008980 0.000000 0.000000 0.000000
# 4 0.000000 0.000000 0.000000 0.028279 0.000000 0.000000
# 5 0.000000 0.000000 0.000000 0.000000 0.088322 0.000000
# 6 0.000000 0.000000 0.000000 0.000000 0.000000 0.059694
#
#
# Mechanical properties :
#
#
# Convention : Reuss Voigt Hill
#
# Bulk Modulus (GPa) = 31.99975 35.99202 33.99589
# Shear Modulus (GPa) = 19.66889 25.15398 22.41143
#
# Velocity S-wave (km/s) = 3.16471 3.57888 3.37815
# Velocity P-wave (km/s) = 5.44500 5.95020 5.70320
#
# Compressibility (1/GPa) = 0.03125025
#
# Stress axis : x y z
#
# Youngs Moduli (GPa) = 52.94227 46.49962 111.35972
#
# Poissons Ratio (x) = 0.23325 0.02152
# Poissons Ratio (y) = 0.26556 0.42902
# Poissons Ratio (z) = 0.01023 0.17914
#
# Static dielectric constant tensor:
#      x y z
#    x 3.347890 0.000000 0.000000 
#    y 0.000000 4.049080 0.000000 
#    z 0.000000 0.000000 3.754910 
# 
# 
# High freq. dielectric constant tensor:
#      x y z
#    x 1.731170 0.000000 0.000000 
#    y 0.000000 1.783400 0.000000 
#    z 0.000000 0.000000 1.778130 
# 
# From -- ./inp_files/51847.got.cif
#   From: 2010.03.12/outbox.cif.g09.slc.cpg/sg74_26_cif.got.tgz:51847.got - 2010.04.16 15:46:19.
