data_PCOD8300486
_publ_section_title
;
Structure prediction by ZEFSAII (Michael W. Deem and Ramdas Pophale) SiO2 
 PCOD8300486
Probable space group: I M M A
;
_chemical_formula_sum "Si O2"
_cell_formula_units_Z 96
_cell_length_a 20.815711
_cell_length_b 14.944916
_cell_length_c 13.717383
_cell_angle_alpha 90.000000
_cell_angle_beta 90.000000
_cell_angle_gamma 90.000000
_cell_volume 4267.327679
_symmetry_space_group_name_H-M "I M M A"
_symmetry_group_IT_number 74
_symmetry_cell_setting 'orthorhombic'
loop_
_space_group_symop_operation_xyz
x,y,z
-x,1/2-y,z
x,-y,-z
-x,1/2+y,-z
-x,-y,-z
x,1/2+y,-z
-x,y,z
x,1/2-y,z
1/2+x,1/2+y,1/2+z
1/2-x,-y,1/2+z
1/2+x,1/2-y,1/2-z
1/2-x,y,1/2-z
1/2-x,1/2-y,1/2-z
1/2+x,y,1/2-z
1/2-x,1/2+y,1/2+z
1/2+x,-y,1/2+z
loop_
_atom_site_type_symbol
_atom_site_label
_atom_site_fract_x
_atom_site_fract_y
_atom_site_fract_z
Si Si1 0.887418 0.149942 0.794259
Si Si2 0.809558 0.349889 0.183915
Si Si3 0.928306 0.542603 0.757463
Si Si4 0.069423 0.404212 0.458334
Si Si5 0.193215 0.596515 0.025537
Si Si6 0.681341 0.848046 0.096673
O O1 0.920360 0.250000 0.786527
O O2 0.855046 0.145421 0.900516
O O3 0.835562 0.139315 0.709229
O O4 0.933910 0.065032 0.774922
O O5 0.827278 0.250000 0.221372
O O6 0.750000 0.386770 0.250000
O O7 0.871834 0.414532 0.178860
O O8 0.791467 0.344752 0.070253
O O9 0.906572 0.576881 0.651032
O O10 0.000000 0.579506 0.782260
O O11 0.056445 0.500000 0.500000
O O12 0.120916 0.352682 0.523353
O O13 0.000000 0.352915 0.459546
O O14 0.263157 0.580310 0.074711
O O15 0.163910 0.500000 0.000000
O O16 0.711748 0.750000 0.082317
#
# Coordination Sequence:
#
# PCOD8300486 Si02
#       6
#    16  16  16  16  16  16
#     4  11  24  42  64  96 135 172 217 270 328 395
#     4  11  25  45  69  99 133 170 220 275 331 395
#     4  11  24  43  68  98 133 176 222 270 333 393
#     4  10  20  37  61  89 125 166 211 261 318 389
#     4  12  24  40  67  94 126 171 218 272 331 395
#     4  11  23  38  62  96 132 170 213 264 331 401
#
# _framework density 22.496514000000001
#
# number of rings (size 3 to 8) (size 9 to 14) (size 15 to 20)
#    0.000    1.000    3.333    3.500    2.333    4.333 
#    0.000    5.000    0.000    2.000    0.000    0.000 
#    0.000    0.000    0.000    0.000    0.000    0.000 
#
# Total GULP energy -594644.493726 kJ/mol
# GULP energy per Si atom -12388.426953 kJ/mol
# Density = 2.244531 g / cm^3
# Si number density = 22.496514 Si / 1000 Ang^3
#
#
#
# Elastic Constant Matrix: (Units=GPa)
#
#
# Indices 1 2 3 4 5 6 
#
# 1 87.4082 24.2997 24.0670 0.0000 0.0000 0.0000
# 2 24.2997 98.3288 11.3411 0.0000 0.0000 0.0000
# 3 24.0670 11.3411 122.5486 0.0000 0.0000 0.0000
# 4 0.0000 0.0000 0.0000 24.7853 0.0000 0.0000
# 5 0.0000 0.0000 0.0000 0.0000 23.4571 0.0000
# 6 0.0000 0.0000 0.0000 0.0000 0.0000 18.3367
#
#
#
# Elastic Compliance Matrix: (Units=1/GPa)
#
#
# Indices 1 2 3 4 5 6 
#
# 1 0.012874 -0.002921 -0.002258 0.000000 0.000000 0.000000
# 2 -0.002921 0.010942 -0.000439 0.000000 0.000000 0.000000
# 3 -0.002258 -0.000439 0.008644 0.000000 0.000000 0.000000
# 4 0.000000 0.000000 0.000000 0.040347 0.000000 0.000000
# 5 0.000000 0.000000 0.000000 0.000000 0.042631 0.000000
# 6 0.000000 0.000000 0.000000 0.000000 0.000000 0.054536
#
#
# Mechanical properties :
#
#
# Convention : Reuss Voigt Hill
#
# Bulk Modulus (GPa) = 47.11508 47.52235 47.31871
# Shear Modulus (GPa) = 26.55545 29.88767 28.22156
#
# Velocity S-wave (km/s) = 3.43946 3.64888 3.54571
# Velocity P-wave (km/s) = 6.06316 6.23880 6.15161
#
# Compressibility (1/GPa) = 0.02122463
#
# Stress axis : x y z
#
# Youngs Moduli (GPa) = 77.67353 91.38686 115.68586
#
# Poissons Ratio (x) = 0.26696 0.26122
# Poissons Ratio (y) = 0.22690 0.05078
# Poissons Ratio (z) = 0.17539 0.04012
#
# Static dielectric constant tensor:
#      x y z
#    x 3.987390 0.000000 0.000000 
#    y 0.000000 3.945930 0.000000 
#    z 0.000000 0.000000 3.722700 
# 
# 
# High freq. dielectric constant tensor:
#      x y z
#    x 1.867000 0.000000 0.000000 
#    y 0.000000 1.885340 0.000000 
#    z 0.000000 0.000000 1.896860 
# 
# From -- ./inp_files/35277.got.cif
#   From: 2010.03.12/outbox.cif.g09.slc.cpg/sg74_18_cif.got.tgz:35277.got - 2010.04.16 15:46:19.
