data_PCOD8300717
_publ_section_title
;
Structure prediction by ZEFSAII (Michael W. Deem and Ramdas Pophale) SiO2 
 PCOD8300717
Probable space group: I M M A
;
_chemical_formula_sum "Si O2"
_cell_formula_units_Z 96
_cell_length_a 15.508620
_cell_length_b 13.815936
_cell_length_c 22.039132
_cell_angle_alpha 90.000000
_cell_angle_beta 90.000000
_cell_angle_gamma 90.000000
_cell_volume 4722.238891
_symmetry_space_group_name_H-M "I M M A"
_symmetry_group_IT_number 74
_symmetry_cell_setting 'orthorhombic'
loop_
_space_group_symop_operation_xyz
x,y,z
-x,1/2-y,z
x,-y,-z
-x,1/2+y,-z
-x,-y,-z
x,1/2+y,-z
-x,y,z
x,1/2-y,z
1/2+x,1/2+y,1/2+z
1/2-x,-y,1/2+z
1/2+x,1/2-y,1/2-z
1/2-x,y,1/2-z
1/2-x,1/2-y,1/2-z
1/2+x,y,1/2-z
1/2-x,1/2+y,1/2+z
1/2+x,-y,1/2+z
loop_
_atom_site_type_symbol
_atom_site_label
_atom_site_fract_x
_atom_site_fract_y
_atom_site_fract_z
Si Si1 0.402799 0.859778 0.908641
Si Si2 0.740476 0.136548 0.614542
Si Si3 0.401742 0.863468 0.618324
Si Si4 0.405381 0.046192 0.835959
Si Si5 0.663791 0.995994 0.286015
Si Si6 0.734589 0.363166 0.479771
O O1 0.500000 0.870310 0.935684
O O2 0.387671 0.750000 0.884624
O O3 0.388163 0.933736 0.853412
O O4 0.332398 0.886409 0.959504
O O5 0.721110 0.250000 0.617392
O O6 0.839984 0.118261 0.631153
O O7 0.722407 0.092465 0.547177
O O8 0.679296 0.084227 0.662494
O O9 0.500000 0.888305 0.599463
O O10 0.388630 0.750000 0.627486
O O11 0.378707 0.910899 0.682853
O O12 0.336813 0.904754 0.566798
O O13 0.500000 0.080055 0.856536
O O14 0.399981 0.051494 0.763031
O O15 0.750000 0.026675 0.250000
O O16 0.719854 0.250000 0.485254
#
# Coordination Sequence:
#
# PCOD8300717 Si02
#       6
#    16  16  16  16  16  16
#     4   9  18  33  55  85 119 149 175 211 266 332
#     4  10  22  39  57  76 103 143 187 233 281 319
#     4  10  21  37  58  85 116 146 176 218 274 333
#     4  10  21  35  53  81 112 141 180 226 269 324
#     4  10  21  36  56  80 108 142 185 229 268 322
#     4   9  18  35  57  80 109 144 183 225 271 325
#
# _framework density 20.329340999999999
#
# number of rings (size 3 to 8) (size 9 to 14) (size 15 to 20)
#    0.000    2.333    0.000    2.500    0.000    7.667 
#    0.000    7.500    0.000    3.500    0.000    0.000 
#    0.000    0.000    0.000    0.000    0.000    0.000 
#
# Total GULP energy -595073.952841 kJ/mol
# GULP energy per Si atom -12397.374018 kJ/mol
# Density = 2.028307 g / cm^3
# Si number density = 20.329341 Si / 1000 Ang^3
#
#
#
# Elastic Constant Matrix: (Units=GPa)
#
#
# Indices 1 2 3 4 5 6 
#
# 1 88.5909 30.7762 37.9747 0.0000 0.0000 0.0000
# 2 30.7762 42.5602 21.4501 0.0000 0.0000 0.0000
# 3 37.9747 21.4501 125.8054 0.0000 0.0000 0.0000
# 4 0.0000 0.0000 0.0000 32.1573 0.0000 0.0000
# 5 0.0000 0.0000 0.0000 0.0000 17.1589 0.0000
# 6 0.0000 0.0000 0.0000 0.0000 0.0000 20.2257
#
#
#
# Elastic Compliance Matrix: (Units=1/GPa)
#
#
# Indices 1 2 3 4 5 6 
#
# 1 0.016143 -0.010084 -0.003153 0.000000 0.000000 0.000000
# 2 -0.010084 0.032004 -0.002413 0.000000 0.000000 0.000000
# 3 -0.003153 -0.002413 0.009312 0.000000 0.000000 0.000000
# 4 0.000000 0.000000 0.000000 0.031097 0.000000 0.000000
# 5 0.000000 0.000000 0.000000 0.000000 0.058279 0.000000
# 6 0.000000 0.000000 0.000000 0.000000 0.000000 0.049442
#
#
# Mechanical properties :
#
#
# Convention : Reuss Voigt Hill
#
# Bulk Modulus (GPa) = 38.22853 48.59541 43.41197
# Shear Modulus (GPa) = 21.15986 25.02540 23.09263
#
# Velocity S-wave (km/s) = 3.22973 3.51237 3.37401
# Velocity P-wave (km/s) = 5.72308 6.35649 6.04808
#
# Compressibility (1/GPa) = 0.02615848
#
# Stress axis : x y z
#
# Youngs Moduli (GPa) = 61.94787 31.24610 107.38768
#
# Poissons Ratio (x) = 0.31508 0.33864
# Poissons Ratio (y) = 0.62467 0.25912
# Poissons Ratio (z) = 0.19535 0.07540
#
# Static dielectric constant tensor:
#      x y z
#    x 3.820170 0.000000 0.000000 
#    y 0.000000 3.516900 0.000000 
#    z 0.000000 0.000000 3.835750 
# 
# 
# High freq. dielectric constant tensor:
#      x y z
#    x 1.794210 0.000000 0.000000 
#    y 0.000000 1.787650 0.000000 
#    z 0.000000 0.000000 1.792240 
# 
# From -- ./inp_files/51838.got.cif
#   From: 2010.03.12/outbox.cif.g09.slc.cpg/sg74_26_cif.got.tgz:51838.got - 2010.04.16 15:46:19.
