data_PCOD8300566
_publ_section_title
;
Structure prediction by ZEFSAII (Michael W. Deem and Ramdas Pophale) SiO2 
 PCOD8300566
Probable space group: I M M A
;
_chemical_formula_sum "Si O2"
_cell_formula_units_Z 88
_cell_length_a 11.972255
_cell_length_b 15.471577
_cell_length_c 23.513174
_cell_angle_alpha 90.000000
_cell_angle_beta 90.000000
_cell_angle_gamma 90.000000
_cell_volume 4355.337345
_symmetry_space_group_name_H-M "I M M A"
_symmetry_group_IT_number 74
_symmetry_cell_setting 'orthorhombic'
loop_
_space_group_symop_operation_xyz
x,y,z
-x,1/2-y,z
x,-y,-z
-x,1/2+y,-z
-x,-y,-z
x,1/2+y,-z
-x,y,z
x,1/2-y,z
1/2+x,1/2+y,1/2+z
1/2-x,-y,1/2+z
1/2+x,1/2-y,1/2-z
1/2-x,y,1/2-z
1/2-x,1/2-y,1/2-z
1/2+x,y,1/2-z
1/2-x,1/2+y,1/2+z
1/2+x,-y,1/2+z
loop_
_atom_site_type_symbol
_atom_site_label
_atom_site_fract_x
_atom_site_fract_y
_atom_site_fract_z
Si Si1 0.632096 0.750000 0.951365
Si Si2 0.238003 0.348129 0.684144
Si Si3 0.750000 0.393925 0.250000
Si Si4 0.367270 0.991593 0.650709
Si Si5 0.223811 0.431051 0.449013
Si Si6 0.126428 0.250000 0.317268
Si Si7 0.500000 0.999477 0.933563
Si Si8 0.500000 0.153861 0.861748
O O1 0.500000 0.750000 0.969389
O O2 0.700645 0.834534 0.974264
O O3 0.643714 0.750000 0.884001
O O4 0.270034 0.250000 0.666961
O O5 0.250000 0.365406 0.750000
O O6 0.315800 0.411647 0.647094
O O7 0.107913 0.367956 0.675128
O O8 0.668665 0.451356 0.289020
O O9 0.821039 0.336464 0.292576
O O10 0.500000 0.996274 0.647347
O O11 0.325621 0.936383 0.595789
O O12 0.243134 0.500000 0.500000
O O13 0.111841 0.452280 0.411806
O O14 0.000000 0.250000 0.297796
O O15 0.500000 0.099084 0.918419
O O16 0.500000 0.000000 0.000000
O O17 0.500000 0.250000 0.885151
#
# Coordination Sequence:
#
# PCOD8300566 Si02
#       8
#     8  16   8  16  16   8   8   8
#     4  11  21  39  69  99 130 171 213 265 336 390
#     4  10  22  38  59  90 126 167 209 254 310 379
#     4  11  22  40  61  96 132 164 215 264 322 387
#     4  12  25  41  65  93 128 177 218 265 326 390
#     4  11  24  45  64  95 131 167 220 274 322 383
#     4  10  21  37  63  96 132 164 199 258 328 402
#     4  10  20  39  62  90 122 160 200 271 320 371
#     4  10  20  38  63  91 126 163 204 261 325 376
#
# _framework density 20.205093999999999
#
# number of rings (size 3 to 8) (size 9 to 14) (size 15 to 20)
#    0.000    1.273    5.455    0.545    1.273    0.727 
#   11.455    1.364    0.000    0.000    0.000    0.000 
#    0.000    0.000    0.000    0.000    0.000    0.000 
#
# Total GULP energy -545436.007779 kJ/mol
# GULP energy per Si atom -12396.272904 kJ/mol
# Density = 2.015911 g / cm^3
# Si number density = 20.205094 Si / 1000 Ang^3
#
#
#
# Elastic Constant Matrix: (Units=GPa)
#
#
# Indices 1 2 3 4 5 6 
#
# 1 144.6983 56.1202 29.5890 0.0000 0.0000 0.0000
# 2 56.1202 144.1803 36.7485 0.0000 0.0000 0.0000
# 3 29.5890 36.7485 65.4396 0.0000 0.0000 0.0000
# 4 0.0000 0.0000 0.0000 35.2560 0.0000 0.0000
# 5 0.0000 0.0000 0.0000 0.0000 20.4458 0.0000
# 6 0.0000 0.0000 0.0000 0.0000 0.0000 2.2635
#
#
#
# Elastic Compliance Matrix: (Units=1/GPa)
#
#
# Indices 1 2 3 4 5 6 
#
# 1 0.008425 -0.002694 -0.002297 0.000000 0.000000 0.000000
# 2 -0.002694 0.008956 -0.003811 0.000000 0.000000 0.000000
# 3 -0.002297 -0.003811 0.018460 0.000000 0.000000 0.000000
# 4 0.000000 0.000000 0.000000 0.028364 0.000000 0.000000
# 5 0.000000 0.000000 0.000000 0.000000 0.048910 0.000000
# 6 0.000000 0.000000 0.000000 0.000000 0.000000 0.441801
#
#
# Mechanical properties :
#
#
# Convention : Reuss Voigt Hill
#
# Bulk Modulus (GPa) = 54.83260 66.58153 60.70706
# Shear Modulus (GPa) = 8.64157 27.05040 17.84598
#
# Velocity S-wave (km/s) = 2.07032 3.66292 2.97516
# Velocity P-wave (km/s) = 5.73689 7.13538 6.47401
#
# Compressibility (1/GPa) = 0.01823733
#
# Stress axis : x y z
#
# Youngs Moduli (GPa) = 118.68761 111.65986 54.17144
#
# Poissons Ratio (x) = 0.30082 0.12442
# Poissons Ratio (y) = 0.31976 0.20645
# Poissons Ratio (z) = 0.27259 0.42554
#
# Static dielectric constant tensor:
#      x y z
#    x 4.473990 0.000000 0.000000 
#    y 0.000000 4.233640 0.000000 
#    z 0.000000 0.000000 3.412220 
# 
# 
# High freq. dielectric constant tensor:
#      x y z
#    x 1.778470 0.000000 0.000000 
#    y 0.000000 1.807300 0.000000 
#    z 0.000000 0.000000 1.777350 
# 
# From -- ./inp_files/66013.got.cif
#   From: 2010.03.12/outbox.cif.g09.slc.cpg/sg74_34_cif.got.tgz:66013.got - 2010.04.16 15:46:19.
