data_PCOD8300534
_publ_section_title
;
Structure prediction by ZEFSAII (Michael W. Deem and Ramdas Pophale) SiO2 
 PCOD8300534
Probable space group: I M M A
;
_chemical_formula_sum "Si O2"
_cell_formula_units_Z 72
_cell_length_a 17.612600
_cell_length_b 14.818969
_cell_length_c 14.266082
_cell_angle_alpha 90.000000
_cell_angle_beta 90.000000
_cell_angle_gamma 90.000000
_cell_volume 3723.455582
_symmetry_space_group_name_H-M "I M M A"
_symmetry_group_IT_number 74
_symmetry_cell_setting 'orthorhombic'
loop_
_space_group_symop_operation_xyz
x,y,z
-x,1/2-y,z
x,-y,-z
-x,1/2+y,-z
-x,-y,-z
x,1/2+y,-z
-x,y,z
x,1/2-y,z
1/2+x,1/2+y,1/2+z
1/2-x,-y,1/2+z
1/2+x,1/2-y,1/2-z
1/2-x,y,1/2-z
1/2-x,1/2-y,1/2-z
1/2+x,y,1/2-z
1/2-x,1/2+y,1/2+z
1/2+x,-y,1/2+z
loop_
_atom_site_type_symbol
_atom_site_label
_atom_site_fract_x
_atom_site_fract_y
_atom_site_fract_z
Si Si1 0.316519 0.000000 0.500000
Si Si2 0.088134 0.486820 0.181907
Si Si3 0.087693 0.645192 0.653672
Si Si4 0.307314 0.352413 0.982220
Si Si5 0.664979 0.147897 0.773462
O O1 0.367617 0.969417 0.586531
O O2 0.266605 0.086358 0.525442
O O3 0.115476 0.412448 0.257397
O O4 0.104095 0.586604 0.220718
O O5 0.000000 0.476131 0.160041
O O6 0.100712 0.750000 0.677254
O O7 0.136720 0.613988 0.564174
O O8 0.000000 0.625238 0.630077
O O9 0.280381 0.250000 0.000639
O O10 0.351987 0.358640 0.884162
O O11 0.654440 0.250000 0.736707
O O12 0.750000 0.114035 0.750000
#
# Coordination Sequence:
#
# PCOD8300534 Si02
#       5
#     8  16  16  16  16
#     4  12  23  38  57  80 118 154 196 240 279 332
#     4  11  24  39  58  83 115 156 196 235 284 339
#     4   9  20  39  60  86 119 150 187 239 295 347
#     4  10  21  36  61  90 113 147 190 235 291 347
#     4  10  20  38  60  83 115 150 185 232 287 340
#
# _framework density 19.336877000000001
#
# number of rings (size 3 to 8) (size 9 to 14) (size 15 to 20)
#    0.000    1.778    2.222    1.667    0.000    2.222 
#    0.000    7.222    0.000    4.000    0.000    0.000 
#    0.000    0.000    0.000    0.000    0.000    0.000 
#
# Total GULP energy -446559.373347 kJ/mol
# GULP energy per Si atom -12404.427037 kJ/mol
# Density = 1.929287 g / cm^3
# Si number density = 19.336877 Si / 1000 Ang^3
#
#
#
# Elastic Constant Matrix: (Units=GPa)
#
#
# Indices 1 2 3 4 5 6 
#
# 1 46.4197 14.2897 23.0160 0.0000 0.0000 0.0000
# 2 14.2897 56.1638 14.3197 0.0000 0.0000 0.0000
# 3 23.0160 14.3197 100.5111 0.0000 0.0000 0.0000
# 4 0.0000 0.0000 0.0000 29.8774 0.0000 0.0000
# 5 0.0000 0.0000 0.0000 0.0000 39.1154 0.0000
# 6 0.0000 0.0000 0.0000 0.0000 0.0000 23.3059
#
#
#
# Elastic Compliance Matrix: (Units=1/GPa)
#
#
# Indices 1 2 3 4 5 6 
#
# 1 0.025701 -0.005228 -0.005140 0.000000 0.000000 0.000000
# 2 -0.005228 0.019540 -0.001587 0.000000 0.000000 0.000000
# 3 -0.005140 -0.001587 0.011352 0.000000 0.000000 0.000000
# 4 0.000000 0.000000 0.000000 0.033470 0.000000 0.000000
# 5 0.000000 0.000000 0.000000 0.000000 0.025565 0.000000
# 6 0.000000 0.000000 0.000000 0.000000 0.000000 0.042908
#
#
# Mechanical properties :
#
#
# Convention : Reuss Voigt Hill
#
# Bulk Modulus (GPa) = 30.59765 34.03839 32.31802
# Shear Modulus (GPa) = 25.86109 28.55770 27.20939
#
# Velocity S-wave (km/s) = 3.66101 3.84715 3.75524
# Velocity P-wave (km/s) = 5.80762 6.11352 5.96254
#
# Compressibility (1/GPa) = 0.03268225
#
# Stress axis : x y z
#
# Youngs Moduli (GPa) = 38.90929 51.17751 88.08808
#
# Poissons Ratio (x) = 0.26758 0.45280
# Poissons Ratio (y) = 0.20343 0.13976
# Poissons Ratio (z) = 0.20001 0.08120
#
# Static dielectric constant tensor:
#      x y z
#    x 3.379750 0.000000 0.000000 
#    y 0.000000 3.581250 0.000000 
#    z 0.000000 0.000000 3.640260 
# 
# 
# High freq. dielectric constant tensor:
#      x y z
#    x 1.738070 0.000000 0.000000 
#    y 0.000000 1.760590 0.000000 
#    z 0.000000 0.000000 1.762360 
# 
# From -- ./inp_files/33814.got.cif
#   From: 2010.03.12/outbox.cif.g09.slc.cpg/sg74_17_cif.got.tgz:33814.got - 2010.04.16 15:46:19.
