data_PCOD8300379
_publ_section_title
;
Structure prediction by ZEFSAII (Michael W. Deem and Ramdas Pophale) SiO2 
 PCOD8300379
Probable space group: I M M A
;
_chemical_formula_sum "Si O2"
_cell_formula_units_Z 72
_cell_length_a 25.288203
_cell_length_b 9.012344
_cell_length_c 14.933471
_cell_angle_alpha 90.000000
_cell_angle_beta 90.000000
_cell_angle_gamma 90.000000
_cell_volume 3403.427411
_symmetry_space_group_name_H-M "I M M A"
_symmetry_group_IT_number 74
_symmetry_cell_setting 'orthorhombic'
loop_
_space_group_symop_operation_xyz
x,y,z
-x,1/2-y,z
x,-y,-z
-x,1/2+y,-z
-x,-y,-z
x,1/2+y,-z
-x,y,z
x,1/2-y,z
1/2+x,1/2+y,1/2+z
1/2-x,-y,1/2+z
1/2+x,1/2-y,1/2-z
1/2-x,y,1/2-z
1/2-x,1/2-y,1/2-z
1/2+x,y,1/2-z
1/2-x,1/2+y,1/2+z
1/2+x,-y,1/2+z
loop_
_atom_site_type_symbol
_atom_site_label
_atom_site_fract_x
_atom_site_fract_y
_atom_site_fract_z
Si Si1 0.307152 0.000000 0.000000
Si Si2 0.734773 0.923051 0.350777
Si Si3 0.592064 0.090461 0.922624
Si Si4 0.438487 0.420961 0.247568
Si Si5 0.616305 0.424178 0.595117
O O1 0.268108 0.967177 0.916146
O O2 0.348263 0.123321 0.961296
O O3 0.746323 0.750000 0.374061
O O4 0.750000 0.961929 0.250000
O O5 0.673474 0.959080 0.363890
O O6 0.565085 0.250000 0.904657
O O7 0.594849 0.996958 0.831686
O O8 0.559945 0.000000 0.000000
O O9 0.500000 0.436711 0.224447
O O10 0.421187 0.250000 0.255398
O O11 0.427095 0.504588 0.339869
O O12 0.609607 0.500000 0.500000
O O13 0.605561 0.250000 0.586052
#
# Coordination Sequence:
#
# PCOD8300379 Si02
#       5
#     8  16  16  16  16
#     4  10  20  36  63  94 133 170 210 256 308 376
#     4  10  20  36  59  90 128 171 212 255 311 374
#     4  10  22  39  64  95 131 170 210 257 312 377
#     4  11  25  45  68  94 125 164 214 271 328 384
#     4  11  23  41  65  94 130 169 213 265 318 377
#
# _framework density 21.155144
#
# number of rings (size 3 to 8) (size 9 to 14) (size 15 to 20)
#    0.667    0.889    1.111    4.000    0.000    4.444 
#    0.000    0.000    0.000    5.333    0.000    0.000 
#    0.000    0.000    0.000    0.000    0.000    0.000 
#
# Total GULP energy -445979.701953 kJ/mol
# GULP energy per Si atom -12388.325054 kJ/mol
# Density = 2.110699 g / cm^3
# Si number density = 21.155144 Si / 1000 Ang^3
#
#
#
# Elastic Constant Matrix: (Units=GPa)
#
#
# Indices 1 2 3 4 5 6 
#
# 1 60.2257 31.9640 31.9028 0.0000 0.0000 0.0000
# 2 31.9640 140.7911 67.8811 0.0000 0.0000 0.0000
# 3 31.9028 67.8811 180.6744 0.0000 0.0000 0.0000
# 4 0.0000 0.0000 0.0000 30.9376 0.0000 0.0000
# 5 0.0000 0.0000 0.0000 0.0000 24.4016 0.0000
# 6 0.0000 0.0000 0.0000 0.0000 0.0000 9.3888
#
#
#
# Elastic Compliance Matrix: (Units=1/GPa)
#
#
# Indices 1 2 3 4 5 6 
#
# 1 0.019558 -0.003389 -0.002180 0.000000 0.000000 0.000000
# 2 -0.003389 0.009261 -0.002881 0.000000 0.000000 0.000000
# 3 -0.002180 -0.002881 0.007002 0.000000 0.000000 0.000000
# 4 0.000000 0.000000 0.000000 0.032323 0.000000 0.000000
# 5 0.000000 0.000000 0.000000 0.000000 0.040981 0.000000
# 6 0.000000 0.000000 0.000000 0.000000 0.000000 0.106510
#
#
# Mechanical properties :
#
#
# Convention : Reuss Voigt Hill
#
# Bulk Modulus (GPa) = 52.85243 71.68746 62.26994
# Shear Modulus (GPa) = 20.93427 29.60848 25.27138
#
# Velocity S-wave (km/s) = 3.14914 3.74516 3.46001
# Velocity P-wave (km/s) = 6.18549 7.25684 6.74248
#
# Compressibility (1/GPa) = 0.01892061
#
# Stress axis : x y z
#
# Youngs Moduli (GPa) = 51.13052 107.97675 142.81149
#
# Poissons Ratio (x) = 0.36594 0.31135
# Poissons Ratio (y) = 0.17329 0.41146
# Poissons Ratio (z) = 0.11147 0.31109
#
# Static dielectric constant tensor:
#      x y z
#    x 3.698640 0.000000 0.000000 
#    y 0.000000 3.658150 0.000000 
#    z 0.000000 0.000000 3.901360 
# 
# 
# High freq. dielectric constant tensor:
#      x y z
#    x 1.822260 0.000000 0.000000 
#    y 0.000000 1.817060 0.000000 
#    z 0.000000 0.000000 1.843550 
# 
# From -- ./inp_files/29182.got.cif
#   From: 2010.03.12/outbox.cif.g09.slc.cpg/sg74_15_cif.got.tgz:29182.got - 2010.04.16 15:46:19.
