data_PCOD8300330
_publ_section_title
;
Structure prediction by ZEFSAII (Michael W. Deem and Ramdas Pophale) SiO2 
 PCOD8300330
Probable space group: I M M A
;
_chemical_formula_sum "Si O2"
_cell_formula_units_Z 104
_cell_length_a 20.334828
_cell_length_b 9.195867
_cell_length_c 29.737360
_cell_angle_alpha 90.000000
_cell_angle_beta 90.000000
_cell_angle_gamma 90.000000
_cell_volume 5560.778485
_symmetry_space_group_name_H-M "I M M A"
_symmetry_group_IT_number 74
_symmetry_cell_setting 'orthorhombic'
loop_
_space_group_symop_operation_xyz
x,y,z
-x,1/2-y,z
x,-y,-z
-x,1/2+y,-z
-x,-y,-z
x,1/2+y,-z
-x,y,z
x,1/2-y,z
1/2+x,1/2+y,1/2+z
1/2-x,-y,1/2+z
1/2+x,1/2-y,1/2-z
1/2-x,y,1/2-z
1/2-x,1/2-y,1/2-z
1/2+x,y,1/2-z
1/2-x,1/2+y,1/2+z
1/2+x,-y,1/2+z
loop_
_atom_site_type_symbol
_atom_site_label
_atom_site_fract_x
_atom_site_fract_y
_atom_site_fract_z
Si Si1 0.783985 0.916377 0.127015
Si Si2 0.075117 0.580952 0.457495
Si Si3 0.643792 0.421668 0.451526
Si Si4 0.000000 0.584523 0.954899
Si Si5 0.317777 0.919275 0.273315
Si Si6 0.075726 0.580723 0.717281
Si Si7 0.866846 0.918687 0.364777
O O1 0.792258 0.750000 0.111033
O O2 0.822435 0.946757 0.173222
O O3 0.709631 0.949687 0.141315
O O4 0.806655 0.017403 0.085924
O O5 0.106654 0.500000 0.500000
O O6 0.082331 0.750000 0.466573
O O7 0.115349 0.529988 0.414540
O O8 0.000000 0.533546 0.450372
O O9 0.653679 0.500000 0.500000
O O10 0.656910 0.250000 0.458141
O O11 0.569813 0.450938 0.430717
O O12 0.000000 0.750000 0.969504
O O13 0.000000 0.500000 0.000000
O O14 0.326399 0.750000 0.261284
O O15 0.250000 0.974444 0.250000
O O16 0.379309 0.006828 0.254646
O O17 0.092339 0.750000 0.715433
O O18 0.090277 0.513083 0.668882
O O19 0.000000 0.552685 0.730072
O O20 0.884586 0.750000 0.356898
#
# Coordination Sequence:
#
# PCOD8300330 Si02
#       7
#    16  16  16   8  16  16  16
#     4  10  21  37  58  85 114 144 185 234 282 337
#     4   9  18  32  51  75 104 141 182 224 273 323
#     4  10  20  36  58  83 114 150 189 234 285 339
#     4   8  16  32  54  78 104 142 186 228 276 332
#     4  10  20  40  65  86 113 152 194 237 287 345
#     4  11  24  39  58  88 120 149 188 239 289 340
#     4  10  20  37  59  81 109 147 191 235 279 337
#
# _framework density 18.702415999999999
#
# number of rings (size 3 to 8) (size 9 to 14) (size 15 to 20)
#    0.000    2.154    1.538    1.385    0.000    5.231 
#    1.385    3.077    0.000    0.000    0.000    0.000 
#    0.000    0.000    0.000    0.000    0.000    0.000 
#
# Total GULP energy -644600.218040 kJ/mol
# GULP energy per Si atom -12396.158039 kJ/mol
# Density = 1.865985 g / cm^3
# Si number density = 18.702416 Si / 1000 Ang^3
#
#
#
# Elastic Constant Matrix: (Units=GPa)
#
#
# Indices 1 2 3 4 5 6 
#
# 1 77.5507 52.1274 49.2144 0.0000 0.0000 0.0000
# 2 52.1274 84.7297 55.7063 0.0000 0.0000 0.0000
# 3 49.2144 55.7063 110.0324 0.0000 0.0000 0.0000
# 4 0.0000 0.0000 0.0000 34.7099 0.0000 0.0000
# 5 0.0000 0.0000 0.0000 0.0000 28.4318 0.0000
# 6 0.0000 0.0000 0.0000 0.0000 0.0000 28.0246
#
#
#
# Elastic Compliance Matrix: (Units=1/GPa)
#
#
# Indices 1 2 3 4 5 6 
#
# 1 0.023563 -0.011343 -0.004796 0.000000 0.000000 0.000000
# 2 -0.011343 0.023151 -0.006647 0.000000 0.000000 0.000000
# 3 -0.004796 -0.006647 0.014599 0.000000 0.000000 0.000000
# 4 0.000000 0.000000 0.000000 0.028810 0.000000 0.000000
# 5 0.000000 0.000000 0.000000 0.000000 0.035172 0.000000
# 6 0.000000 0.000000 0.000000 0.000000 0.000000 0.035683
#
#
# Mechanical properties :
#
#
# Convention : Reuss Voigt Hill
#
# Bulk Modulus (GPa) = 63.53455 65.15655 64.34555
# Shear Modulus (GPa) = 23.60739 25.91758 24.76248
#
# Velocity S-wave (km/s) = 3.55669 3.72666 3.64266
# Velocity P-wave (km/s) = 7.13525 7.30968 7.22299
#
# Compressibility (1/GPa) = 0.01573947
#
# Stress axis : x y z
#
# Youngs Moduli (GPa) = 42.43924 43.19465 68.49836
#
# Poissons Ratio (x) = 0.48996 0.32855
# Poissons Ratio (y) = 0.48139 0.45533
# Poissons Ratio (z) = 0.20356 0.28713
#
# Static dielectric constant tensor:
#      x y z
#    x 4.198220 0.000000 0.000000 
#    y 0.000000 3.407400 0.000000 
#    z 0.000000 0.000000 3.409270 
# 
# 
# High freq. dielectric constant tensor:
#      x y z
#    x 1.728560 0.000000 0.000000 
#    y 0.000000 1.723260 0.000000 
#    z 0.000000 0.000000 1.724750 
# 
# From -- ./inp_files/73353.got.cif
#   From: 2010.03.12/outbox.cif.g09.slc.cpg/sg74_37_cif.got.tgz:73353.got - 2010.04.16 15:46:19.
