data_PCOD8300107
_publ_section_title
;
Structure prediction by ZEFSAII (Michael W. Deem and Ramdas Pophale) SiO2 
 PCOD8300107
Probable space group: I M M A
;
_chemical_formula_sum "Si O2"
_cell_formula_units_Z 80
_cell_length_a 15.784730
_cell_length_b 9.196961
_cell_length_c 28.850326
_cell_angle_alpha 90.000000
_cell_angle_beta 90.000000
_cell_angle_gamma 90.000000
_cell_volume 4188.246434
_symmetry_space_group_name_H-M "I M M A"
_symmetry_group_IT_number 74
_symmetry_cell_setting 'orthorhombic'
loop_
_space_group_symop_operation_xyz
x,y,z
-x,1/2-y,z
x,-y,-z
-x,1/2+y,-z
-x,-y,-z
x,1/2+y,-z
-x,y,z
x,1/2-y,z
1/2+x,1/2+y,1/2+z
1/2-x,-y,1/2+z
1/2+x,1/2-y,1/2-z
1/2-x,y,1/2-z
1/2-x,1/2-y,1/2-z
1/2+x,y,1/2-z
1/2-x,1/2+y,1/2+z
1/2+x,-y,1/2+z
loop_
_atom_site_type_symbol
_atom_site_label
_atom_site_fract_x
_atom_site_fract_y
_atom_site_fract_z
Si Si1 0.000000 0.576753 0.714730
Si Si2 0.902300 0.085170 0.132060
Si Si3 0.000000 0.919616 0.381594
Si Si4 0.662182 0.077303 0.270258
Si Si5 0.639122 0.418159 0.954662
Si Si6 0.833391 0.579242 0.046542
O O1 0.000000 0.517847 0.663175
O O2 0.083524 0.516041 0.740555
O O3 0.000000 0.750000 0.713423
O O4 0.876711 0.250000 0.118166
O O5 0.847542 0.030434 0.176058
O O6 0.000000 0.079657 0.147161
O O7 0.887768 0.978636 0.089255
O O8 0.916691 0.962307 0.410648
O O9 0.000000 0.750000 0.368193
O O10 0.661983 0.250000 0.266941
O O11 0.750000 0.012664 0.250000
O O12 0.628782 0.250000 0.966175
O O13 0.735762 0.459878 0.943450
O O14 0.605610 0.500000 0.000000
O O15 0.848865 0.750000 0.040707
O O16 0.865010 0.500000 0.000000
#
# Coordination Sequence:
#
# PCOD8300107 Si02
#       6
#     8  16   8  16  16  16
#     4  10  20  35  55  84 110 137 186 230 260 320
#     4  10  20  36  58  81 108 142 178 219 269 322
#     4  10  21  35  51  76 114 149 173 216 277 320
#     4   9  18  34  56  81 110 142 178 225 273 314
#     4   9  19  35  54  76 107 144 181 220 265 318
#     4  10  21  37  56  81 110 140 179 223 268 322
#
# _framework density 19.101073
#
# number of rings (size 3 to 8) (size 9 to 14) (size 15 to 20)
#    0.000    2.400    1.000    0.900    2.800    2.400 
#    0.000    1.000    0.000    1.200    0.000    0.000 
#    0.000    0.000    0.000    0.000    0.000    0.000 
#
# Total GULP energy -496080.067241 kJ/mol
# GULP energy per Si atom -12402.001681 kJ/mol
# Density = 1.905760 g / cm^3
# Si number density = 19.101073 Si / 1000 Ang^3
#
#
#
# Elastic Constant Matrix: (Units=GPa)
#
#
# Indices 1 2 3 4 5 6 
#
# 1 99.1216 25.5495 58.3174 0.0000 0.0000 0.0000
# 2 25.5495 52.2124 45.6072 0.0000 0.0000 0.0000
# 3 58.3174 45.6072 145.5389 0.0000 0.0000 0.0000
# 4 0.0000 0.0000 0.0000 32.5399 0.0000 0.0000
# 5 0.0000 0.0000 0.0000 0.0000 29.2342 0.0000
# 6 0.0000 0.0000 0.0000 0.0000 0.0000 18.4079
#
#
#
# Elastic Compliance Matrix: (Units=1/GPa)
#
#
# Indices 1 2 3 4 5 6 
#
# 1 0.013448 -0.002580 -0.004580 0.000000 0.000000 0.000000
# 2 -0.002580 0.026866 -0.007385 0.000000 0.000000 0.000000
# 3 -0.004580 -0.007385 0.011021 0.000000 0.000000 0.000000
# 4 0.000000 0.000000 0.000000 0.030731 0.000000 0.000000
# 5 0.000000 0.000000 0.000000 0.000000 0.034207 0.000000
# 6 0.000000 0.000000 0.000000 0.000000 0.000000 0.054325
#
#
# Mechanical properties :
#
#
# Convention : Reuss Voigt Hill
#
# Bulk Modulus (GPa) = 44.95566 61.75792 53.35679
# Shear Modulus (GPa) = 24.14259 27.19631 25.66945
#
# Velocity S-wave (km/s) = 3.55905 3.77744 3.66987
# Velocity P-wave (km/s) = 6.36207 7.17131 6.77878
#
# Compressibility (1/GPa) = 0.02224414
#
# Stress axis : x y z
#
# Youngs Moduli (GPa) = 74.35822 37.22198 90.73914
#
# Poissons Ratio (x) = 0.09603 0.41561
# Poissons Ratio (y) = 0.19184 0.67012
# Poissons Ratio (z) = 0.34058 0.27489
#
# Static dielectric constant tensor:
#      x y z
#    x 3.750210 0.000000 0.000000 
#    y 0.000000 3.185650 0.000000 
#    z 0.000000 0.000000 3.452960 
# 
# 
# High freq. dielectric constant tensor:
#      x y z
#    x 1.749500 0.000000 0.000000 
#    y 0.000000 1.714220 0.000000 
#    z 0.000000 0.000000 1.749420 
# 
# From -- ./inp_files/64020.got.cif
#   From: 2010.03.12/outbox.cif.g09.slc.cpg/sg74_33_cif.got.tgz:64020.got - 2010.04.16 15:46:19.
