data_PCOD8300668
_publ_section_title
;
Structure prediction by ZEFSAII (Michael W. Deem and Ramdas Pophale) SiO2 
 PCOD8300668
Probable space group: I M M A
;
_chemical_formula_sum "Si O2"
_cell_formula_units_Z 56
_cell_length_a 8.851886
_cell_length_b 13.187478
_cell_length_c 23.096706
_cell_angle_alpha 90.000000
_cell_angle_beta 90.000000
_cell_angle_gamma 90.000000
_cell_volume 2696.172077
_symmetry_space_group_name_H-M "I M M A"
_symmetry_group_IT_number 74
_symmetry_cell_setting 'orthorhombic'
loop_
_space_group_symop_operation_xyz
x,y,z
-x,1/2-y,z
x,-y,-z
-x,1/2+y,-z
-x,-y,-z
x,1/2+y,-z
-x,y,z
x,1/2-y,z
1/2+x,1/2+y,1/2+z
1/2-x,-y,1/2+z
1/2+x,1/2-y,1/2-z
1/2-x,y,1/2-z
1/2-x,1/2-y,1/2-z
1/2+x,y,1/2-z
1/2-x,1/2+y,1/2+z
1/2+x,-y,1/2+z
loop_
_atom_site_type_symbol
_atom_site_label
_atom_site_fract_x
_atom_site_fract_y
_atom_site_fract_z
Si Si1 0.324666 0.362960 0.385886
Si Si2 0.667177 0.862500 0.002931
Si Si3 0.173623 0.561157 0.373917
Si Si4 0.178587 0.750000 0.187257
O O1 0.500000 0.381029 0.374321
O O2 0.275405 0.250000 0.364339
O O3 0.294379 0.372153 0.454384
O O4 0.231828 0.450716 0.352199
O O5 0.500000 0.882693 0.975559
O O6 0.671403 0.750000 0.030484
O O7 0.695619 0.939173 0.056132
O O8 0.271919 0.649044 0.345901
O O9 0.000000 0.576738 0.355937
O O10 0.250000 0.750000 0.250000
O O11 0.000000 0.750000 0.192501
#
# Coordination Sequence:
#
# PCOD8300668 Si02
#       4
#    16  16  16   8
#     4  10  21  34  50  80 120 159 198 238 282 339
#     4   9  17  31  50  76 113 155 195 235 283 343
#     4  11  21  37  59  83 113 151 195 241 291 346
#     4  12  26  44  66  90 116 146 188 242 299 350
#
# _framework density 20.770188000000001
#
# number of rings (size 3 to 8) (size 9 to 14) (size 15 to 20)
#    0.000    1.714    1.429    3.857    0.000    7.429 
#    0.000    0.000    0.000    0.857    0.000    0.000 
#    0.000    0.000    0.000    0.000    0.000    0.000 
#
# Total GULP energy -347128.325184 kJ/mol
# GULP energy per Si atom -12397.440185 kJ/mol
# Density = 2.072291 g / cm^3
# Si number density = 20.770188 Si / 1000 Ang^3
#
#
#
# Elastic Constant Matrix: (Units=GPa)
#
#
# Indices 1 2 3 4 5 6 
#
# 1 123.5905 59.5365 23.7543 0.0000 0.0000 0.0000
# 2 59.5365 170.0846 8.6035 0.0000 0.0000 0.0000
# 3 23.7543 8.6035 33.3966 0.0000 0.0000 0.0000
# 4 0.0000 0.0000 0.0000 1.7484 0.0000 0.0000
# 5 0.0000 0.0000 0.0000 0.0000 25.3503 0.0000
# 6 0.0000 0.0000 0.0000 0.0000 0.0000 38.3921
#
#
#
# Elastic Compliance Matrix: (Units=1/GPa)
#
#
# Indices 1 2 3 4 5 6 
#
# 1 0.011149 -0.003548 -0.007016 0.000000 0.000000 0.000000
# 2 -0.003548 0.007086 0.000698 0.000000 0.000000 0.000000
# 3 -0.007016 0.000698 0.034754 0.000000 0.000000 0.000000
# 4 0.000000 0.000000 0.000000 0.571944 0.000000 0.000000
# 5 0.000000 0.000000 0.000000 0.000000 0.039447 0.000000
# 6 0.000000 0.000000 0.000000 0.000000 0.000000 0.026047
#
#
# Mechanical properties :
#
#
# Convention : Reuss Voigt Hill
#
# Bulk Modulus (GPa) = 30.06889 56.76228 43.41558
# Shear Modulus (GPa) = 6.93247 28.77666 17.85457
#
# Velocity S-wave (km/s) = 1.82892 3.72624 2.93512
# Velocity P-wave (km/s) = 4.35526 6.77504 5.69515
#
# Compressibility (1/GPa) = 0.03325697
#
# Stress axis : x y z
#
# Youngs Moduli (GPa) = 89.69689 141.12484 28.77399
#
# Poissons Ratio (x) = 0.50065 0.20188
# Poissons Ratio (y) = 0.31821 -0.02008
# Poissons Ratio (z) = 0.62930 -0.09849
#
# Static dielectric constant tensor:
#      x y z
#    x 3.739450 0.000000 0.000000 
#    y 0.000000 4.584530 0.000000 
#    z 0.000000 0.000000 3.227030 
# 
# 
# High freq. dielectric constant tensor:
#      x y z
#    x 1.813190 0.000000 0.000000 
#    y 0.000000 1.852810 0.000000 
#    z 0.000000 0.000000 1.746340 
# 
# From -- ./inp_files/47823.got.cif
#   From: 2010.03.12/outbox.cif.g09.slc.cpg/sg74_24_cif.got.tgz:47823.got - 2010.04.16 15:46:19.
