data_PCOD8300945
_publ_section_title
;
Structure prediction by ZEFSAII (Michael W. Deem and Ramdas Pophale) SiO2 
 PCOD8300945
Probable space group: I M M A
;
_chemical_formula_sum "Si O2"
_cell_formula_units_Z 64
_cell_length_a 15.028938
_cell_length_b 15.397438
_cell_length_c 14.899526
_cell_angle_alpha 90.000000
_cell_angle_beta 90.000000
_cell_angle_gamma 90.000000
_cell_volume 3447.856715
_symmetry_space_group_name_H-M "I M M A"
_symmetry_group_IT_number 74
_symmetry_cell_setting 'orthorhombic'
loop_
_space_group_symop_operation_xyz
x,y,z
-x,1/2-y,z
x,-y,-z
-x,1/2+y,-z
-x,-y,-z
x,1/2+y,-z
-x,y,z
x,1/2-y,z
1/2+x,1/2+y,1/2+z
1/2-x,-y,1/2+z
1/2+x,1/2-y,1/2-z
1/2-x,y,1/2-z
1/2-x,1/2-y,1/2-z
1/2+x,y,1/2-z
1/2-x,1/2+y,1/2+z
1/2+x,-y,1/2+z
loop_
_atom_site_type_symbol
_atom_site_label
_atom_site_fract_x
_atom_site_fract_y
_atom_site_fract_z
Si Si1 0.500000 0.853228 0.211011
Si Si2 0.189172 0.653015 0.563383
Si Si3 0.187779 0.000000 0.000000
Si Si4 0.402870 0.984748 0.316466
Si Si5 0.000000 0.648164 0.495103
Si Si6 0.750000 0.605116 0.750000
O O1 0.500000 0.750000 0.220259
O O2 0.412619 0.893230 0.261575
O O3 0.500000 0.886138 0.107580
O O4 0.198853 0.750000 0.520792
O O5 0.253165 0.584483 0.517044
O O6 0.219005 0.663377 0.666821
O O7 0.088131 0.617688 0.549230
O O8 0.126724 0.030299 0.918248
O O9 0.500000 0.031062 0.317566
O O10 0.334049 0.044933 0.266831
O O11 0.000000 0.750000 0.490537
#
# Coordination Sequence:
#
# PCOD8300945 Si02
#       6
#     8  16   8  16   8   8
#     4   9  20  36  56  83 117 151 193 238 287 351
#     4  10  22  38  59  86 118 150 196 244 289 351
#     4  10  21  37  60  84 112 158 195 236 297 338
#     4   9  21  36  58  81 116 150 195 239 288 350
#     4   9  20  36  55  84 116 149 187 241 298 342
#     4  10  21  38  59  88 108 154 191 236 300 344
#
# _framework density 18.562256000000001
#
# number of rings (size 3 to 8) (size 9 to 14) (size 15 to 20)
#    0.750    1.750    0.000    0.750    8.750    1.500 
#    0.000    0.625    0.000    3.000    0.000    0.000 
#    0.000    0.000    0.000    0.000    0.000    0.000 
#
# Total GULP energy -396432.344703 kJ/mol
# GULP energy per Si atom -12388.510772 kJ/mol
# Density = 1.852001 g / cm^3
# Si number density = 18.562256 Si / 1000 Ang^3
#
#
#
# Elastic Constant Matrix: (Units=GPa)
#
#
# Indices 1 2 3 4 5 6 
#
# 1 145.3749 47.2836 51.7221 0.0000 0.0000 0.0000
# 2 47.2836 84.2019 34.5021 0.0000 0.0000 0.0000
# 3 51.7221 34.5021 86.6245 0.0000 0.0000 0.0000
# 4 0.0000 0.0000 0.0000 26.1810 0.0000 0.0000
# 5 0.0000 0.0000 0.0000 0.0000 18.9289 0.0000
# 6 0.0000 0.0000 0.0000 0.0000 0.0000 23.6486
#
#
#
# Elastic Compliance Matrix: (Units=1/GPa)
#
#
# Indices 1 2 3 4 5 6 
#
# 1 0.009580 -0.003628 -0.004275 0.000000 0.000000 0.000000
# 2 -0.003628 0.015566 -0.004034 0.000000 0.000000 0.000000
# 3 -0.004275 -0.004034 0.015703 0.000000 0.000000 0.000000
# 4 0.000000 0.000000 0.000000 0.038196 0.000000 0.000000
# 5 0.000000 0.000000 0.000000 0.000000 0.052829 0.000000
# 6 0.000000 0.000000 0.000000 0.000000 0.000000 0.042286
#
#
# Mechanical properties :
#
#
# Convention : Reuss Voigt Hill
#
# Bulk Modulus (GPa) = 58.90671 64.80190 61.85431
# Shear Modulus (GPa) = 24.54689 25.93127 25.23908
#
# Velocity S-wave (km/s) = 3.64044 3.74169 3.69141
# Velocity P-wave (km/s) = 7.03377 7.32484 7.18078
#
# Compressibility (1/GPa) = 0.01697599
#
# Stress axis : x y z
#
# Youngs Moduli (GPa) = 104.38774 64.24133 63.68104
#
# Poissons Ratio (x) = 0.23305 0.27223
# Poissons Ratio (y) = 0.37870 0.25688
# Poissons Ratio (z) = 0.44625 0.25914
#
# Static dielectric constant tensor:
#      x y z
#    x 3.356480 0.000000 0.000000 
#    y 0.000000 3.126740 0.000000 
#    z 0.000000 0.000000 3.644330 
# 
# 
# High freq. dielectric constant tensor:
#      x y z
#    x 1.725720 0.000000 0.000000 
#    y 0.000000 1.706610 0.000000 
#    z 0.000000 0.000000 1.729030 
# 
# From -- ./inp_files/31883.got.cif
#   From: 2010.03.12/outbox.cif.g09.slc.cpg/sg74_16_cif.got.tgz:31883.got - 2010.04.16 15:46:19.
