data_PCOD8300797
_publ_section_title
;
Structure prediction by ZEFSAII (Michael W. Deem and Ramdas Pophale) SiO2 
 PCOD8300797
Probable space group: I M M A
;
_chemical_formula_sum "Si O2"
_cell_formula_units_Z 96
_cell_length_a 8.819475
_cell_length_b 19.905008
_cell_length_c 27.913716
_cell_angle_alpha 90.000000
_cell_angle_beta 90.000000
_cell_angle_gamma 90.000000
_cell_volume 4900.300867
_symmetry_space_group_name_H-M "I M M A"
_symmetry_group_IT_number 74
_symmetry_cell_setting 'orthorhombic'
loop_
_space_group_symop_operation_xyz
x,y,z
-x,1/2-y,z
x,-y,-z
-x,1/2+y,-z
-x,-y,-z
x,1/2+y,-z
-x,y,z
x,1/2-y,z
1/2+x,1/2+y,1/2+z
1/2-x,-y,1/2+z
1/2+x,1/2-y,1/2-z
1/2-x,y,1/2-z
1/2-x,1/2-y,1/2-z
1/2+x,y,1/2-z
1/2-x,1/2+y,1/2+z
1/2+x,-y,1/2+z
loop_
_atom_site_type_symbol
_atom_site_label
_atom_site_fract_x
_atom_site_fract_y
_atom_site_fract_z
Si Si1 0.177640 0.175081 0.798825
Si Si2 0.179118 0.441440 0.300966
Si Si3 0.176377 0.827350 0.541691
Si Si4 0.823176 0.431448 0.974109
Si Si5 0.822246 0.445483 0.864484
Si Si6 0.177058 0.827983 0.858847
O O1 0.237979 0.250000 0.811233
O O2 0.250000 0.147707 0.750000
O O3 0.223982 0.125545 0.841341
O O4 0.000000 0.175981 0.790853
O O5 0.250000 0.460894 0.250000
O O6 0.228084 0.495292 0.340474
O O7 0.236495 0.368350 0.317469
O O8 0.000000 0.440570 0.295698
O O9 0.212644 0.750000 0.529788
O O10 0.229476 0.870394 0.496470
O O11 0.266317 0.851066 0.588880
O O12 0.000000 0.838937 0.551674
O O13 0.774205 0.439943 0.919385
O O14 0.000000 0.414546 0.979345
O O15 0.778798 0.500000 0.000000
O O16 0.000000 0.461444 0.858390
O O17 0.213740 0.750000 0.850280
O O18 0.000000 0.843993 0.855502
#
# Coordination Sequence:
#
# PCOD8300797 Si02
#       6
#    16  16  16  16  16  16
#     4   9  18  33  53  77 105 139 179 224 275 329
#     4  12  25  40  60  85 116 152 190 234 283 338
#     4  10  21  37  58  86 119 153 190 233 282 338
#     4  10  21  36  56  82 112 148 190 236 284 335
#     4  10  21  37  57  82 113 147 188 237 284 334
#     4  10  21  39  63  88 115 149 189 233 283 339
#
# _framework density 19.590633
#
# number of rings (size 3 to 8) (size 9 to 14) (size 15 to 20)
#    0.000    1.833    0.000    4.000    0.000    7.333 
#    0.000    1.667    0.000    2.000    0.000    0.000 
#    0.000    0.000    0.000    0.000    0.000    0.000 
#
# Total GULP energy -595471.715293 kJ/mol
# GULP energy per Si atom -12405.660735 kJ/mol
# Density = 1.954604 g / cm^3
# Si number density = 19.590633 Si / 1000 Ang^3
#
#
#
# Elastic Constant Matrix: (Units=GPa)
#
#
# Indices 1 2 3 4 5 6 
#
# 1 86.3768 41.2219 40.6257 0.0000 0.0000 0.0000
# 2 41.2219 93.4888 58.8154 0.0000 0.0000 0.0000
# 3 40.6257 58.8154 129.5068 0.0000 0.0000 0.0000
# 4 0.0000 0.0000 0.0000 55.1342 0.0000 0.0000
# 5 0.0000 0.0000 0.0000 0.0000 34.4492 0.0000
# 6 0.0000 0.0000 0.0000 0.0000 0.0000 31.0288
#
#
#
# Elastic Compliance Matrix: (Units=1/GPa)
#
#
# Indices 1 2 3 4 5 6 
#
# 1 0.015182 -0.005177 -0.002411 0.000000 0.000000 0.000000
# 2 -0.005177 0.016740 -0.005979 0.000000 0.000000 0.000000
# 3 -0.002411 -0.005979 0.011193 0.000000 0.000000 0.000000
# 4 0.000000 0.000000 0.000000 0.018138 0.000000 0.000000
# 5 0.000000 0.000000 0.000000 0.000000 0.029028 0.000000
# 6 0.000000 0.000000 0.000000 0.000000 0.000000 0.032228
#
#
# Mechanical properties :
#
#
# Convention : Reuss Voigt Hill
#
# Bulk Modulus (GPa) = 62.57247 65.63316 64.10281
# Shear Modulus (GPa) = 32.26410 35.36973 33.81691
#
# Velocity S-wave (km/s) = 4.06262 4.25366 4.15924
# Velocity P-wave (km/s) = 7.34955 7.59604 7.47381
#
# Compressibility (1/GPa) = 0.01598147
#
# Stress axis : x y z
#
# Youngs Moduli (GPa) = 65.86739 59.73547 89.33994
#
# Poissons Ratio (x) = 0.30926 0.21543
# Poissons Ratio (y) = 0.34101 0.53413
# Poissons Ratio (z) = 0.15883 0.35713
#
# Static dielectric constant tensor:
#      x y z
#    x 3.514250 0.000000 0.000000 
#    y 0.000000 3.762980 0.000000 
#    z 0.000000 0.000000 3.621990 
# 
# 
# High freq. dielectric constant tensor:
#      x y z
#    x 1.761370 0.000000 0.000000 
#    y 0.000000 1.774190 0.000000 
#    z 0.000000 0.000000 1.765920 
# 
# From -- ./inp_files/64268.got.cif
#   From: 2010.03.12/outbox.cif.g09.slc.cpg/sg74_33_cif.got.tgz:64268.got - 2010.04.16 15:46:19.
