data_PCOD8300283
_publ_section_title
;
Structure prediction by ZEFSAII (Michael W. Deem and Ramdas Pophale) SiO2 
 PCOD8300283
Probable space group: I M M A
;
_chemical_formula_sum "Si O2"
_cell_formula_units_Z 88
_cell_length_a 17.957785
_cell_length_b 9.721820
_cell_length_c 28.080630
_cell_angle_alpha 90.000000
_cell_angle_beta 90.000000
_cell_angle_gamma 90.000000
_cell_volume 4902.382469
_symmetry_space_group_name_H-M "I M M A"
_symmetry_group_IT_number 74
_symmetry_cell_setting 'orthorhombic'
loop_
_space_group_symop_operation_xyz
x,y,z
-x,1/2-y,z
x,-y,-z
-x,1/2+y,-z
-x,-y,-z
x,1/2+y,-z
-x,y,z
x,1/2-y,z
1/2+x,1/2+y,1/2+z
1/2-x,-y,1/2+z
1/2+x,1/2-y,1/2-z
1/2-x,y,1/2-z
1/2-x,1/2-y,1/2-z
1/2+x,y,1/2-z
1/2-x,1/2+y,1/2+z
1/2+x,-y,1/2+z
loop_
_atom_site_type_symbol
_atom_site_label
_atom_site_fract_x
_atom_site_fract_y
_atom_site_fract_z
Si Si1 0.292762 0.911530 0.547461
Si Si2 0.645710 0.408800 0.104812
Si Si3 0.847174 0.592068 0.202315
Si Si4 0.675046 0.592115 0.190776
Si Si5 0.415052 0.092417 0.375845
Si Si6 0.000000 0.906897 0.545338
O O1 0.292660 0.750000 0.534402
O O2 0.217539 0.954691 0.574628
O O3 0.362475 0.952293 0.580583
O O4 0.299470 0.000000 0.500000
O O5 0.652154 0.250000 0.119300
O O6 0.636032 0.495012 0.152756
O O7 0.572905 0.441684 0.074987
O O8 0.864465 0.750000 0.189737
O O9 0.762002 0.556049 0.191470
O O10 0.862508 0.563860 0.258021
O O11 0.900381 0.497106 0.171031
O O12 0.663118 0.750000 0.175984
O O13 0.500000 0.070763 0.392376
O O14 0.398819 0.250000 0.361979
O O15 0.000000 0.750000 0.528315
O O16 0.000000 0.000000 0.500000
#
# Coordination Sequence:
#
# PCOD8300283 Si02
#       6
#    16  16  16  16  16   8
#     4  10  21  36  55  79 105 137 178 222 269 320
#     4  10  20  36  56  80 109 141 179 221 268 324
#     4   9  18  34  55  81 110 140 178 222 266 317
#     4   9  18  33  56  83 109 139 178 222 266 317
#     4  10  21  37  55  78 110 145 183 225 266 315
#     4  10  22  38  56  80 110 142 180 226 273 326
#
# _framework density 17.950455999999999
#
# number of rings (size 3 to 8) (size 9 to 14) (size 15 to 20)
#    0.000    2.364    1.818    1.636    0.000    3.636 
#    1.636    1.818    0.000    0.000    0.000    0.000 
#    0.000    0.000    0.000    0.000    0.000    0.000 
#
# Total GULP energy -545703.877968 kJ/mol
# GULP energy per Si atom -12402.360863 kJ/mol
# Density = 1.790960 g / cm^3
# Si number density = 17.950456 Si / 1000 Ang^3
#
#
#
# Elastic Constant Matrix: (Units=GPa)
#
#
# Indices 1 2 3 4 5 6 
#
# 1 116.3278 46.2002 62.5537 0.0000 0.0000 0.0000
# 2 46.2002 77.9790 78.6265 0.0000 0.0000 0.0000
# 3 62.5537 78.6265 134.6612 0.0000 0.0000 0.0000
# 4 0.0000 0.0000 0.0000 44.5879 0.0000 0.0000
# 5 0.0000 0.0000 0.0000 0.0000 -0.5747 0.0000
# 6 0.0000 0.0000 0.0000 0.0000 0.0000 18.6905
#
#
#
# Elastic Compliance Matrix: (Units=1/GPa)
#
#
# Indices 1 2 3 4 5 6 
#
# 1 0.011855 -0.003577 -0.003419 0.000000 0.000000 0.000000
# 2 -0.003577 0.032261 -0.017175 0.000000 0.000000 0.000000
# 3 -0.003419 -0.017175 0.019042 0.000000 0.000000 0.000000
# 4 0.000000 0.000000 0.000000 0.022428 0.000000 0.000000
# 5 0.000000 0.000000 0.000000 0.000000 -1.740074 0.000000
# 6 0.000000 0.000000 0.000000 0.000000 0.000000 0.053503
#
#
# Mechanical properties :
#
#
# Convention : Reuss Voigt Hill
#
# Bulk Modulus (GPa) = 67.48846 78.19211 72.84028
# Shear Modulus (GPa) = -3.23059 21.97991 9.37466
#
# Velocity S-wave (km/s) = -1.34299 3.50305 2.28776
# Velocity P-wave (km/s) = 5.93918 7.74702 6.90254
#
# Compressibility (1/GPa) = 0.01481735
#
# Stress axis : x y z
#
# Youngs Moduli (GPa) = 84.35056 30.99735 52.51477
#
# Poissons Ratio (x) = 0.11088 0.17953
# Poissons Ratio (y) = 0.30172 0.90194
# Poissons Ratio (z) = 0.28836 0.53238
#
# Static dielectric constant tensor:
#      x y z
#    x 3.309750 0.000000 0.000000 
#    y 0.000000 3.282380 0.000000 
#    z 0.000000 0.000000 3.256500 
# 
# 
# High freq. dielectric constant tensor:
#      x y z
#    x 1.692840 0.000000 0.000000 
#    y 0.000000 1.694160 0.000000 
#    z 0.000000 0.000000 1.695770 
# 
# From -- ./inp_files/70200.got.cif
#   From: 2010.03.12/outbox.cif.g09.slc.cpg/sg74_36_cif.got.tgz:70200.got - 2010.04.16 15:46:19.
