data_PCOD8300757
_publ_section_title
;
Structure prediction by ZEFSAII (Michael W. Deem and Ramdas Pophale) SiO2 
 PCOD8300757
Probable space group: I M M A
;
_chemical_formula_sum "Si O2"
_cell_formula_units_Z 64
_cell_length_a 20.745416
_cell_length_b 8.736637
_cell_length_c 18.629018
_cell_angle_alpha 90.000000
_cell_angle_beta 90.000000
_cell_angle_gamma 90.000000
_cell_volume 3376.419516
_symmetry_space_group_name_H-M "I M M A"
_symmetry_group_IT_number 74
_symmetry_cell_setting 'orthorhombic'
loop_
_space_group_symop_operation_xyz
x,y,z
-x,1/2-y,z
x,-y,-z
-x,1/2+y,-z
-x,-y,-z
x,1/2+y,-z
-x,y,z
x,1/2-y,z
1/2+x,1/2+y,1/2+z
1/2-x,-y,1/2+z
1/2+x,1/2-y,1/2-z
1/2-x,y,1/2-z
1/2-x,1/2-y,1/2-z
1/2+x,y,1/2-z
1/2-x,1/2+y,1/2+z
1/2+x,-y,1/2+z
loop_
_atom_site_type_symbol
_atom_site_label
_atom_site_fract_x
_atom_site_fract_y
_atom_site_fract_z
Si Si1 0.386084 0.428900 0.830827
Si Si2 0.500000 0.069070 0.078694
Si Si3 0.500000 0.069879 0.422325
Si Si4 0.243355 0.919089 0.664968
Si Si5 0.383233 0.568835 0.675284
O O1 0.398769 0.250000 0.837799
O O2 0.436349 0.516851 0.880007
O O3 0.313480 0.466405 0.858536
O O4 0.395206 0.480263 0.749086
O O5 0.500000 0.250000 0.073094
O O6 0.500000 0.000000 0.000000
O O7 0.500000 0.250000 0.429642
O O8 0.562885 0.013066 0.380004
O O9 0.500000 0.000000 0.500000
O O10 0.226703 0.750000 0.634800
O O11 0.250000 0.911530 0.750000
O O12 0.314207 0.973854 0.638546
O O13 0.386791 0.750000 0.691873
#
# Coordination Sequence:
#
# PCOD8300757 Si02
#       5
#    16   8   8  16  16
#     4  11  21  34  56  86 112 137 175 221 269 320
#     4  12  25  42  59  77 107 143 179 220 267 322
#     4  10  21  36  53  75 105 141 181 224 269 314
#     4   8  15  30  52  78 108 142 179 220 266 314
#     4   9  18  34  56  80 108 146 186 222 266 319
#
# _framework density 18.954989999999999
#
# number of rings (size 3 to 8) (size 9 to 14) (size 15 to 20)
#    0.000    2.250    0.000    5.625    0.000    6.500 
#    0.000    1.250    0.000    3.000    0.000    0.000 
#    0.000    0.000    0.000    0.000    0.000    0.000 
#
# Total GULP energy -396703.941366 kJ/mol
# GULP energy per Si atom -12396.998168 kJ/mol
# Density = 1.891185 g / cm^3
# Si number density = 18.954990 Si / 1000 Ang^3
#
#
#
# Elastic Constant Matrix: (Units=GPa)
#
#
# Indices 1 2 3 4 5 6 
#
# 1 183.4990 55.6530 72.2186 0.0000 0.0000 0.0000
# 2 55.6530 112.0529 45.3486 0.0000 0.0000 0.0000
# 3 72.2186 45.3486 86.3128 0.0000 0.0000 0.0000
# 4 0.0000 0.0000 0.0000 28.6836 0.0000 0.0000
# 5 0.0000 0.0000 0.0000 0.0000 -3.0608 0.0000
# 6 0.0000 0.0000 0.0000 0.0000 0.0000 21.9617
#
#
#
# Elastic Compliance Matrix: (Units=1/GPa)
#
#
# Indices 1 2 3 4 5 6 
#
# 1 0.008367 -0.001679 -0.006118 0.000000 0.000000 0.000000
# 2 -0.001679 0.011672 -0.004727 0.000000 0.000000 0.000000
# 3 -0.006118 -0.004727 0.019189 0.000000 0.000000 0.000000
# 4 0.000000 0.000000 0.000000 0.034863 0.000000 0.000000
# 5 0.000000 0.000000 0.000000 0.000000 -0.326709 0.000000
# 6 0.000000 0.000000 0.000000 0.000000 0.000000 0.045534
#
#
# Mechanical properties :
#
#
# Convention : Reuss Voigt Hill
#
# Bulk Modulus (GPa) = 70.53417 80.92278 75.72848
# Shear Modulus (GPa) = -28.19921 23.42654 -2.38634
#
# Velocity S-wave (km/s) = -3.86125 3.51936 -1.12325
# Velocity P-wave (km/s) = 4.17291 7.70060 6.19324
#
# Compressibility (1/GPa) = 0.01417753
#
# Stress axis : x y z
#
# Youngs Moduli (GPa) = 119.51850 85.67852 52.11451
#
# Poissons Ratio (x) = 0.14389 0.31885
# Poissons Ratio (y) = 0.20073 0.24634
# Poissons Ratio (z) = 0.73125 0.40500
#
# Static dielectric constant tensor:
#      x y z
#    x 4.254990 0.000000 0.000000 
#    y 0.000000 3.394350 0.000000 
#    z 0.000000 0.000000 2.964230 
# 
# 
# High freq. dielectric constant tensor:
#      x y z
#    x 1.764460 0.000000 0.000000 
#    y 0.000000 1.730580 0.000000 
#    z 0.000000 0.000000 1.697700 
# 
# From -- ./inp_files/44789.got.cif
#   From: 2010.03.12/outbox.cif.g09.slc.cpg/sg74_23_cif.got.tgz:44789.got - 2010.04.16 15:46:19.
