data_PCOD8300119
_publ_section_title
;
Structure prediction by ZEFSAII (Michael W. Deem and Ramdas Pophale) SiO2 
 PCOD8300119
Probable space group: I M M A
;
_chemical_formula_sum "Si O2"
_cell_formula_units_Z 96
_cell_length_a 23.244205
_cell_length_b 8.869402
_cell_length_c 25.513513
_cell_angle_alpha 90.000000
_cell_angle_beta 90.000000
_cell_angle_gamma 90.000000
_cell_volume 5259.921927
_symmetry_space_group_name_H-M "I M M A"
_symmetry_group_IT_number 74
_symmetry_cell_setting 'orthorhombic'
loop_
_space_group_symop_operation_xyz
x,y,z
-x,1/2-y,z
x,-y,-z
-x,1/2+y,-z
-x,-y,-z
x,1/2+y,-z
-x,y,z
x,1/2-y,z
1/2+x,1/2+y,1/2+z
1/2-x,-y,1/2+z
1/2+x,1/2-y,1/2-z
1/2-x,y,1/2-z
1/2-x,1/2-y,1/2-z
1/2+x,y,1/2-z
1/2-x,1/2+y,1/2+z
1/2+x,-y,1/2+z
loop_
_atom_site_type_symbol
_atom_site_label
_atom_site_fract_x
_atom_site_fract_y
_atom_site_fract_z
Si Si1 0.681225 0.426420 0.947088
Si Si2 0.877639 0.424582 0.658753
Si Si3 0.317060 0.575946 0.747195
Si Si4 0.383295 0.571822 0.346260
Si Si5 0.000000 0.921479 0.297226
Si Si6 0.688313 0.572077 0.446351
Si Si7 0.000000 0.571864 0.814130
O O1 0.680891 0.250000 0.955931
O O2 0.639561 0.474046 0.899748
O O3 0.746330 0.482437 0.935300
O O4 0.656864 0.500000 0.000000
O O5 0.861034 0.250000 0.669117
O O6 0.842999 0.532109 0.697191
O O7 0.945275 0.452875 0.666249
O O8 0.330835 0.750000 0.734784
O O9 0.250000 0.543190 0.750000
O O10 0.344589 0.471657 0.703100
O O11 0.392522 0.750000 0.345477
O O12 0.351534 0.516003 0.398797
O O13 0.444663 0.491984 0.343792
O O14 0.000000 0.750000 0.275997
O O15 0.000000 0.028400 0.246945
O O16 0.664744 0.500000 0.500000
O O17 0.685174 0.750000 0.451898
O O18 0.000000 0.750000 0.818270
#
# Coordination Sequence:
#
# PCOD8300119 Si02
#       7
#    16  16  16  16   8  16   8
#     4   9  18  34  55  81 110 145 184 228 280 332
#     4  10  20  35  56  79 108 145 190 232 275 333
#     4  11  23  35  51  81 116 145 178 228 287 336
#     4  11  22  38  59  82 110 147 190 229 274 336
#     4  10  20  36  57  80 106 148 192 230 274 327
#     4   9  19  35  57  82 109 142 183 228 278 333
#     4  12  24  38  57  82 113 148 186 232 281 333
#
# _framework density 18.251221000000001
#
# number of rings (size 3 to 8) (size 9 to 14) (size 15 to 20)
#    0.000    1.833    1.667    2.750    0.000    4.667 
#    0.000    4.167    0.000    0.000    0.000    0.000 
#    0.000    0.000    0.000    0.000    0.000    0.000 
#
# Total GULP energy -595372.519477 kJ/mol
# GULP energy per Si atom -12403.594156 kJ/mol
# Density = 1.820968 g / cm^3
# Si number density = 18.251221 Si / 1000 Ang^3
#
#
#
# Elastic Constant Matrix: (Units=GPa)
#
#
# Indices 1 2 3 4 5 6 
#
# 1 120.8332 41.2278 66.1462 0.0000 0.0000 0.0000
# 2 41.2278 55.5593 32.6710 0.0000 0.0000 0.0000
# 3 66.1462 32.6710 135.9704 0.0000 0.0000 0.0000
# 4 0.0000 0.0000 0.0000 32.4176 0.0000 0.0000
# 5 0.0000 0.0000 0.0000 0.0000 -179.9288 0.0000
# 6 0.0000 0.0000 0.0000 0.0000 0.0000 29.1978
#
#
#
# Elastic Compliance Matrix: (Units=1/GPa)
#
#
# Indices 1 2 3 4 5 6 
#
# 1 0.013298 -0.007061 -0.004772 0.000000 0.000000 0.000000
# 2 -0.007061 0.024710 -0.002502 0.000000 0.000000 0.000000
# 3 -0.004772 -0.002502 0.010277 0.000000 0.000000 0.000000
# 4 0.000000 0.000000 0.000000 0.030847 0.000000 0.000000
# 5 0.000000 0.000000 0.000000 0.000000 -0.005558 0.000000
# 6 0.000000 0.000000 0.000000 0.000000 0.000000 0.034249
#
#
# Mechanical properties :
#
#
# Convention : Reuss Voigt Hill
#
# Bulk Modulus (GPa) = 50.98525 65.82813 58.40669
# Shear Modulus (GPa) = 34.95702 -12.17480 11.39111
#
# Velocity S-wave (km/s) = 4.38119 -2.58557 2.50097
# Velocity P-wave (km/s) = 7.32045 5.21848 6.35695
#
# Compressibility (1/GPa) = 0.01961352
#
# Stress axis : x y z
#
# Youngs Moduli (GPa) = 75.20197 40.46953 97.30128
#
# Poissons Ratio (x) = 0.28576 0.46435
# Poissons Ratio (y) = 0.53101 0.24347
# Poissons Ratio (z) = 0.35888 0.10126
#
# Static dielectric constant tensor:
#      x y z
#    x 3.516740 0.000000 0.000000 
#    y 0.000000 3.342020 0.000000 
#    z 0.000000 0.000000 3.417010 
# 
# 
# High freq. dielectric constant tensor:
#      x y z
#    x 1.709410 0.000000 0.000000 
#    y 0.000000 1.707120 0.000000 
#    z 0.000000 0.000000 1.707750 
# 
# From -- ./inp_files/57371.got.cif
#   From: 2010.03.12/outbox.cif.g09.slc.cpg/sg74_29_cif.got.tgz:57371.got - 2010.04.16 15:46:19.
