data_PCOD8300521
_publ_section_title
;
Structure prediction by ZEFSAII (Michael W. Deem and Ramdas Pophale) SiO2 
 PCOD8300521
Probable space group: I M M A
;
_chemical_formula_sum "Si O2"
_cell_formula_units_Z 88
_cell_length_a 32.244351
_cell_length_b 27.158386
_cell_length_c 5.023399
_cell_angle_alpha 90.000000
_cell_angle_beta 90.000000
_cell_angle_gamma 90.000000
_cell_volume 4399.013264
_symmetry_space_group_name_H-M "I M M A"
_symmetry_group_IT_number 74
_symmetry_cell_setting 'orthorhombic'
loop_
_space_group_symop_operation_xyz
x,y,z
-x,1/2-y,z
x,-y,-z
-x,1/2+y,-z
-x,-y,-z
x,1/2+y,-z
-x,y,z
x,1/2-y,z
1/2+x,1/2+y,1/2+z
1/2-x,-y,1/2+z
1/2+x,1/2-y,1/2-z
1/2-x,y,1/2-z
1/2-x,1/2-y,1/2-z
1/2+x,y,1/2-z
1/2-x,1/2+y,1/2+z
1/2+x,-y,1/2+z
loop_
_atom_site_type_symbol
_atom_site_label
_atom_site_fract_x
_atom_site_fract_y
_atom_site_fract_z
Si Si1 0.000000 0.464025 0.739282
Si Si2 0.633460 0.098158 0.429767
Si Si3 0.088396 0.556324 0.416944
Si Si4 0.095831 0.806083 0.078184
Si Si5 0.222410 0.443041 0.005300
Si Si6 0.455047 0.306306 0.063583
O O1 0.000000 0.500000 0.500000
O O2 0.958317 0.430879 0.694307
O O3 0.000000 0.500000 0.000000
O O4 0.617716 0.064079 0.667302
O O5 0.631696 0.156658 0.490943
O O6 0.681953 0.088217 0.424112
O O7 0.605447 0.088273 0.166192
O O8 0.091429 0.500000 0.500000
O O9 0.113188 0.750000 0.100803
O O10 0.078174 0.828667 0.356045
O O11 0.058755 0.809577 0.867233
O O12 0.250000 0.429761 0.250000
O O13 0.209443 0.500000 0.000000
O O14 0.250000 0.427654 0.750000
O O15 0.500000 0.332441 0.041285
O O16 0.459230 0.250000 0.970972
#
# Coordination Sequence:
#
# PCOD8300521 Si02
#       6
#     8  16  16  16  16  16
#     4  10  20  38  56  76 115 162 199 236 286 334
#     4  12  23  38  59  90 115 151 198 237 295 359
#     4  11  22  38  59  83 116 155 196 244 288 347
#     4  10  21  37  55  80 115 153 194 241 293 340
#     4  10  21  38  61  87 115 144 178 235 304 363
#     4   9  17  33  54  75 105 149 196 247 295 330
#
# _framework density 20.004487999999998
#
# number of rings (size 3 to 8) (size 9 to 14) (size 15 to 20)
#    0.000    1.636    0.000    6.545    0.000    3.636 
#    9.818    0.000    0.000    1.091    0.000    0.000 
#    0.000    0.000    0.000    0.000    0.000    0.000 
#
# Total GULP energy -545104.582961 kJ/mol
# GULP energy per Si atom -12388.740522 kJ/mol
# Density = 1.995896 g / cm^3
# Si number density = 20.004488 Si / 1000 Ang^3
#
#
#
# Elastic Constant Matrix: (Units=GPa)
#
#
# Indices 1 2 3 4 5 6 
#
# 1 122.2735 56.7364 37.4084 0.0000 0.0000 0.0000
# 2 56.7364 70.5023 21.9863 0.0000 0.0000 0.0000
# 3 37.4084 21.9863 135.1319 0.0000 0.0000 0.0000
# 4 0.0000 0.0000 0.0000 22.9330 0.0000 0.0000
# 5 0.0000 0.0000 0.0000 0.0000 33.1206 0.0000
# 6 0.0000 0.0000 0.0000 0.0000 0.0000 20.5490
#
#
#
# Elastic Compliance Matrix: (Units=1/GPa)
#
#
# Indices 1 2 3 4 5 6 
#
# 1 0.013590 -0.010285 -0.002089 0.000000 0.000000 0.000000
# 2 -0.010285 0.022726 -0.000850 0.000000 0.000000 0.000000
# 3 -0.002089 -0.000850 0.008117 0.000000 0.000000 0.000000
# 4 0.000000 0.000000 0.000000 0.043605 0.000000 0.000000
# 5 0.000000 0.000000 0.000000 0.000000 0.030193 0.000000
# 6 0.000000 0.000000 0.000000 0.000000 0.000000 0.048664
#
#
# Mechanical properties :
#
#
# Convention : Reuss Voigt Hill
#
# Bulk Modulus (GPa) = 55.60368 62.24109 58.92239
# Shear Modulus (GPa) = 25.08313 29.43896 27.26104
#
# Velocity S-wave (km/s) = 3.54485 3.84033 3.69554
# Velocity P-wave (km/s) = 6.67911 7.13059 6.90854
#
# Compressibility (1/GPa) = 0.01798442
#
# Stress axis : x y z
#
# Youngs Moduli (GPa) = 73.58500 44.00266 123.20224
#
# Poissons Ratio (x) = 0.45256 0.25733
# Poissons Ratio (y) = 0.75682 0.10477
# Poissons Ratio (z) = 0.15369 0.03742
#
# Static dielectric constant tensor:
#      x y z
#    x 6.649190 0.000000 0.000000 
#    y 0.000000 3.512690 0.000000 
#    z 0.000000 0.000000 3.888440 
# 
# 
# High freq. dielectric constant tensor:
#      x y z
#    x 1.760400 0.000000 0.000000 
#    y 0.000000 1.768240 0.000000 
#    z 0.000000 0.000000 1.805330 
# 
# From -- ./inp_files/5236.got.cif
#   From: 2010.03.12/outbox.cif.g09.slc.cpg/sg74_3_cif.got.tgz:5236.got - 2010.04.16 15:46:19.
