data_PCOD8300837
_publ_section_title
;
Structure prediction by ZEFSAII (Michael W. Deem and Ramdas Pophale) SiO2 
 PCOD8300837
Probable space group: I M M A
;
_chemical_formula_sum "Si O2"
_cell_formula_units_Z 104
_cell_length_a 27.217381
_cell_length_b 20.624905
_cell_length_c 9.312151
_cell_angle_alpha 90.000000
_cell_angle_beta 90.000000
_cell_angle_gamma 90.000000
_cell_volume 5227.430882
_symmetry_space_group_name_H-M "I M M A"
_symmetry_group_IT_number 74
_symmetry_cell_setting 'orthorhombic'
loop_
_space_group_symop_operation_xyz
x,y,z
-x,1/2-y,z
x,-y,-z
-x,1/2+y,-z
-x,-y,-z
x,1/2+y,-z
-x,y,z
x,1/2-y,z
1/2+x,1/2+y,1/2+z
1/2-x,-y,1/2+z
1/2+x,1/2-y,1/2-z
1/2-x,y,1/2-z
1/2-x,1/2-y,1/2-z
1/2+x,y,1/2-z
1/2-x,1/2+y,1/2+z
1/2+x,-y,1/2+z
loop_
_atom_site_type_symbol
_atom_site_label
_atom_site_fract_x
_atom_site_fract_y
_atom_site_fract_z
Si Si1 0.695003 0.153006 0.224652
Si Si2 0.556883 0.865932 0.317333
Si Si3 0.300571 0.250000 0.992147
Si Si4 0.903322 0.987121 0.333275
Si Si5 0.685225 0.750000 0.544388
Si Si6 0.945334 0.935815 0.905911
Si Si7 0.374599 0.750000 0.263372
Si Si8 0.796004 0.995798 0.663194
O O1 0.750000 0.176381 0.250000
O O2 0.669758 0.185741 0.363339
O O3 0.690442 0.076114 0.216446
O O4 0.679029 0.186058 0.074913
O O5 0.500000 0.844263 0.313080
O O6 0.561459 0.930818 0.221888
O O7 0.573007 0.879491 0.484170
O O8 0.590921 0.812479 0.243438
O O9 0.327661 0.250000 0.840417
O O10 0.241060 0.250000 0.979440
O O11 0.914652 0.000000 0.500000
O O12 0.912202 0.052744 0.237110
O O13 0.846278 0.964308 0.314258
O O14 0.646390 0.750000 0.420329
O O15 0.000000 0.919197 0.851382
O O16 0.945435 0.000000 0.000000
O O17 0.750000 0.025528 0.750000
O O18 0.778501 0.000000 0.500000
#
# Coordination Sequence:
#
# PCOD8300837 Si02
#       8
#    16  16   8  16   8  16   8  16
#     4   8  17  38  60  77 116 163 188 229 282 336
#     4  10  23  42  57  81 117 153 193 242 298 353
#     4   9  19  36  60  84 118 143 193 241 281 334
#     4  10  21  36  62  88 115 147 197 237 288 343
#     4   9  19  38  60  90 110 155 203 230 280 340
#     4   8  16  34  58  80 106 141 184 236 282 336
#     4  12  24  34  60  90 112 152 192 249 299 336
#     4  10  22  37  54  86 126 159 186 228 286 339
#
# _framework density 19.895050000000001
#
# number of rings (size 3 to 8) (size 9 to 14) (size 15 to 20)
#    0.000    2.615    0.000    2.769    6.462    3.077 
#    5.538    0.000    0.000    0.000    0.000    6.462 
#    0.000    0.000    0.000    0.000    0.000    0.000 
#
# Total GULP energy -644206.988020 kJ/mol
# GULP energy per Si atom -12388.595923 kJ/mol
# Density = 1.984977 g / cm^3
# Si number density = 19.895050 Si / 1000 Ang^3
#
#
#
# Elastic Constant Matrix: (Units=GPa)
#
#
# Indices 1 2 3 4 5 6 
#
# 1 67.1510 7.3780 36.7145 0.0000 0.0000 0.0000
# 2 7.3780 52.1779 20.5011 0.0000 0.0000 0.0000
# 3 36.7145 20.5011 117.9911 0.0000 0.0000 0.0000
# 4 0.0000 0.0000 0.0000 19.3062 0.0000 0.0000
# 5 0.0000 0.0000 0.0000 0.0000 25.5182 0.0000
# 6 0.0000 0.0000 0.0000 0.0000 0.0000 32.9823
#
#
#
# Elastic Compliance Matrix: (Units=1/GPa)
#
#
# Indices 1 2 3 4 5 6 
#
# 1 0.017951 -0.000369 -0.005522 0.000000 0.000000 0.000000
# 2 -0.000369 0.020577 -0.003461 0.000000 0.000000 0.000000
# 3 -0.005522 -0.003461 0.010795 0.000000 0.000000 0.000000
# 4 0.000000 0.000000 0.000000 0.051797 0.000000 0.000000
# 5 0.000000 0.000000 0.000000 0.000000 0.039188 0.000000
# 6 0.000000 0.000000 0.000000 0.000000 0.000000 0.030319
#
#
# Mechanical properties :
#
#
# Convention : Reuss Voigt Hill
#
# Bulk Modulus (GPa) = 32.65745 40.72302 36.69023
# Shear Modulus (GPa) = 25.05814 27.07641 26.06728
#
# Velocity S-wave (km/s) = 3.55282 3.69312 3.62365
# Velocity P-wave (km/s) = 5.76893 6.22085 5.99914
#
# Compressibility (1/GPa) = 0.03062088
#
# Stress axis : x y z
#
# Youngs Moduli (GPa) = 55.70629 48.59788 92.63857
#
# Poissons Ratio (x) = 0.01792 0.51152
# Poissons Ratio (y) = 0.02055 0.32058
# Poissons Ratio (z) = 0.30759 0.16817
#
# Static dielectric constant tensor:
#      x y z
#    x 3.544440 0.000000 0.000000 
#    y 0.000000 3.439600 0.000000 
#    z 0.000000 0.000000 3.672380 
# 
# 
# High freq. dielectric constant tensor:
#      x y z
#    x 1.769470 0.000000 0.000000 
#    y 0.000000 1.752030 0.000000 
#    z 0.000000 0.000000 1.777160 
# 
# From -- ./inp_files/15281.got.cif
#   From: 2010.03.12/outbox.cif.g09.slc.cpg/sg74_8_cif.got.tgz:15281.got - 2010.04.16 15:46:19.
