data_PCOD8300796
_publ_section_title
;
Structure prediction by ZEFSAII (Michael W. Deem and Ramdas Pophale) SiO2 
 PCOD8300796
Probable space group: I M M A
;
_chemical_formula_sum "Si O2"
_cell_formula_units_Z 120
_cell_length_a 27.745190
_cell_length_b 9.438509
_cell_length_c 24.382301
_cell_angle_alpha 90.000000
_cell_angle_beta 90.000000
_cell_angle_gamma 90.000000
_cell_volume 6385.071809
_symmetry_space_group_name_H-M "I M M A"
_symmetry_group_IT_number 74
_symmetry_cell_setting 'orthorhombic'
loop_
_space_group_symop_operation_xyz
x,y,z
-x,1/2-y,z
x,-y,-z
-x,1/2+y,-z
-x,-y,-z
x,1/2+y,-z
-x,y,z
x,1/2-y,z
1/2+x,1/2+y,1/2+z
1/2-x,-y,1/2+z
1/2+x,1/2-y,1/2-z
1/2-x,y,1/2-z
1/2-x,1/2-y,1/2-z
1/2+x,y,1/2-z
1/2-x,1/2+y,1/2+z
1/2+x,-y,1/2+z
loop_
_atom_site_type_symbol
_atom_site_label
_atom_site_fract_x
_atom_site_fract_y
_atom_site_fract_z
Si Si1 0.394312 0.083273 0.252423
Si Si2 0.317861 0.594621 0.116815
Si Si3 0.593880 0.914100 0.874757
Si Si4 0.226694 0.585558 0.052756
Si Si5 0.500000 0.082598 0.057326
Si Si6 0.117877 0.084260 0.945600
Si Si7 0.055623 0.911835 0.157515
Si Si8 0.803871 0.591905 0.256168
O O1 0.391252 0.250000 0.263495
O O2 0.410172 0.050745 0.189933
O O3 0.434426 0.012538 0.290773
O O4 0.342811 0.014588 0.270035
O O5 0.327916 0.750000 0.091379
O O6 0.360726 0.492413 0.097260
O O7 0.264927 0.540447 0.099228
O O8 0.318017 0.604283 0.181350
O O9 0.603643 0.750000 0.883518
O O10 0.545933 0.963038 0.906310
O O11 0.229568 0.750000 0.038258
O O12 0.172725 0.545914 0.071578
O O13 0.242677 0.500000 0.000000
O O14 0.500000 0.250000 0.045297
O O15 0.500000 0.000000 0.000000
O O16 0.111269 0.250000 0.958014
O O17 0.084899 0.034248 0.895370
O O18 0.102378 0.000000 0.000000
O O19 0.070004 0.750000 0.172466
O O20 0.000000 0.923273 0.142001
O O21 0.806463 0.750000 0.228783
O O22 0.750000 0.529321 0.250000
#
# Coordination Sequence:
#
# PCOD8300796 Si02
#       8
#    16  16  16  16   8  16  16  16
#     4  10  21  36  56  82 112 147 184 226 276 330
#     4   9  18  32  51  77 105 135 177 219 260 315
#     4   9  20  38  57  76 107 146 178 218 275 327
#     4   9  18  32  51  75 103 139 177 215 261 317
#     4  10  22  40  60  82 106 140 183 224 271 326
#     4   9  19  36  57  78 109 145 182 226 277 331
#     4  10  22  38  57  83 111 143 187 236 283 335
#     4   9  18  32  54  79 107 145 182 218 267 324
#
# _framework density 18.793838000000001
#
# number of rings (size 3 to 8) (size 9 to 14) (size 15 to 20)
#    0.000    2.667    0.000    0.400    2.800    3.467 
#    0.000    2.667    0.000    0.000    0.000    0.000 
#    0.000    0.000    0.000    0.000    0.000    0.000 
#
# Total GULP energy -743878.187411 kJ/mol
# GULP energy per Si atom -12397.969790 kJ/mol
# Density = 1.875106 g / cm^3
# Si number density = 18.793838 Si / 1000 Ang^3
#
#
#
# Elastic Constant Matrix: (Units=GPa)
#
#
# Indices 1 2 3 4 5 6 
#
# 1 126.3630 50.6646 52.5215 0.0000 0.0000 0.0000
# 2 50.6646 66.6330 46.1789 0.0000 0.0000 0.0000
# 3 52.5215 46.1789 76.3256 0.0000 0.0000 0.0000
# 4 0.0000 0.0000 0.0000 29.4442 0.0000 0.0000
# 5 0.0000 0.0000 0.0000 0.0000 34.1081 0.0000
# 6 0.0000 0.0000 0.0000 0.0000 0.0000 21.8630
#
#
#
# Elastic Compliance Matrix: (Units=1/GPa)
#
#
# Indices 1 2 3 4 5 6 
#
# 1 0.012345 -0.006026 -0.004849 0.000000 0.000000 0.000000
# 2 -0.006026 0.028786 -0.013269 0.000000 0.000000 0.000000
# 3 -0.004849 -0.013269 0.024467 0.000000 0.000000 0.000000
# 4 0.000000 0.000000 0.000000 0.033963 0.000000 0.000000
# 5 0.000000 0.000000 0.000000 0.000000 0.029319 0.000000
# 6 0.000000 0.000000 0.000000 0.000000 0.000000 0.045739
#
#
# Mechanical properties :
#
#
# Convention : Reuss Voigt Hill
#
# Bulk Modulus (GPa) = 57.77469 63.11682 60.44575
# Shear Modulus (GPa) = 21.86489 25.08016 23.47253
#
# Velocity S-wave (km/s) = 3.41458 3.65703 3.53788
# Velocity P-wave (km/s) = 6.80836 7.17555 6.99437
#
# Compressibility (1/GPa) = 0.01730862
#
# Stress axis : x y z
#
# Youngs Moduli (GPa) = 81.00188 34.73952 40.87172
#
# Poissons Ratio (x) = 0.20935 0.19819
# Poissons Ratio (y) = 0.48814 0.54234
# Poissons Ratio (z) = 0.39279 0.46097
#
# Static dielectric constant tensor:
#      x y z
#    x 3.601570 0.000000 0.000000 
#    y 0.000000 3.545400 0.000000 
#    z 0.000000 0.000000 3.325950 
# 
# 
# High freq. dielectric constant tensor:
#      x y z
#    x 1.738470 0.000000 0.000000 
#    y 0.000000 1.722370 0.000000 
#    z 0.000000 0.000000 1.717000 
# 
# From -- ./inp_files/69003.got.cif
#   From: 2010.03.12/outbox.cif.g09.slc.cpg/sg74_35_cif.got.tgz:69003.got - 2010.04.16 15:46:19.
