data_PCOD8300628
_publ_section_title
;
Structure prediction by ZEFSAII (Michael W. Deem and Ramdas Pophale) SiO2 
 PCOD8300628
Probable space group: I M M A
;
_chemical_formula_sum "Si O2"
_cell_formula_units_Z 80
_cell_length_a 7.803364
_cell_length_b 17.511331
_cell_length_c 30.570572
_cell_angle_alpha 90.000000
_cell_angle_beta 90.000000
_cell_angle_gamma 90.000000
_cell_volume 4177.385815
_symmetry_space_group_name_H-M "I M M A"
_symmetry_group_IT_number 74
_symmetry_cell_setting 'orthorhombic'
loop_
_space_group_symop_operation_xyz
x,y,z
-x,1/2-y,z
x,-y,-z
-x,1/2+y,-z
-x,-y,-z
x,1/2+y,-z
-x,y,z
x,1/2-y,z
1/2+x,1/2+y,1/2+z
1/2-x,-y,1/2+z
1/2+x,1/2-y,1/2-z
1/2-x,y,1/2-z
1/2-x,1/2-y,1/2-z
1/2+x,y,1/2-z
1/2-x,1/2+y,1/2+z
1/2+x,-y,1/2+z
loop_
_atom_site_type_symbol
_atom_site_label
_atom_site_fract_x
_atom_site_fract_y
_atom_site_fract_z
Si Si1 0.200076 0.835342 0.337855
Si Si2 0.192907 0.014935 0.798365
Si Si3 0.803665 0.591193 0.429292
Si Si4 0.000000 0.839863 0.912656
Si Si5 0.500000 0.089622 0.507182
Si Si6 0.809447 0.064392 0.382072
O O1 0.267887 0.750000 0.328321
O O2 0.294849 0.893787 0.305558
O O3 0.238006 0.855007 0.388245
O O4 0.000000 0.842516 0.328217
O O5 0.250000 0.992539 0.750000
O O6 0.000000 0.987957 0.805826
O O7 0.308463 0.969992 0.833161
O O8 0.672555 0.614006 0.467336
O O9 0.770863 0.503207 0.416388
O O10 0.000000 0.602960 0.445300
O O11 0.830280 0.870205 0.888449
O O12 0.000000 0.750000 0.907957
O O13 0.000000 0.863367 0.962879
O O14 0.500000 0.000000 0.500000
O O15 0.000000 0.097934 0.390048
#
# Coordination Sequence:
#
# PCOD8300628 Si02
#       6
#    16  16  16   8   8  16
#     4   9  19  35  53  79 121 165 203 247 296 347
#     4  11  21  35  59  91 118 150 204 248 292 355
#     4   9  19  35  59  85 114 158 210 248 288 347
#     4  12  26  42  60  92 124 156 196 248 310 365
#     4  12  22  36  60  86 120 154 202 252 290 346
#     4  10  20  40  64  87 117 157 200 245 298 356
#
# _framework density 19.150732000000001
#
# number of rings (size 3 to 8) (size 9 to 14) (size 15 to 20)
#    0.000    1.800    3.000    3.000    4.200    3.200 
#    0.000    0.000    0.000    0.600    0.000    0.000 
#    0.000    0.000    0.000    0.000    0.000    0.000 
#
# Total GULP energy -496069.916854 kJ/mol
# GULP energy per Si atom -12401.747921 kJ/mol
# Density = 1.910714 g / cm^3
# Si number density = 19.150732 Si / 1000 Ang^3
#
#
#
# Elastic Constant Matrix: (Units=GPa)
#
#
# Indices 1 2 3 4 5 6 
#
# 1 116.8087 36.8041 38.4314 0.0000 0.0000 0.0000
# 2 36.8041 89.4485 29.0505 0.0000 0.0000 0.0000
# 3 38.4314 29.0505 90.1976 0.0000 0.0000 0.0000
# 4 0.0000 0.0000 0.0000 11.6192 0.0000 0.0000
# 5 0.0000 0.0000 0.0000 0.0000 32.2564 0.0000
# 6 0.0000 0.0000 0.0000 0.0000 0.0000 22.5217
#
#
#
# Elastic Compliance Matrix: (Units=1/GPa)
#
#
# Indices 1 2 3 4 5 6 
#
# 1 0.010754 -0.003280 -0.003526 0.000000 0.000000 0.000000
# 2 -0.003280 0.013486 -0.002946 0.000000 0.000000 0.000000
# 3 -0.003526 -0.002946 0.013538 0.000000 0.000000 0.000000
# 4 0.000000 0.000000 0.000000 0.086065 0.000000 0.000000
# 5 0.000000 0.000000 0.000000 0.000000 0.031002 0.000000
# 6 0.000000 0.000000 0.000000 0.000000 0.000000 0.044402
#
#
# Mechanical properties :
#
#
# Convention : Reuss Voigt Hill
#
# Bulk Modulus (GPa) = 54.72025 56.11409 55.41717
# Shear Modulus (GPa) = 22.23790 26.09071 24.16430
#
# Velocity S-wave (km/s) = 3.41134 3.69506 3.55603
# Velocity P-wave (km/s) = 6.64468 6.89706 6.77205
#
# Compressibility (1/GPa) = 0.01827477
#
# Stress axis : x y z
#
# Youngs Moduli (GPa) = 92.98436 74.15138 73.86654
#
# Poissons Ratio (x) = 0.24321 0.26045
# Poissons Ratio (y) = 0.30498 0.21761
# Poissons Ratio (z) = 0.32785 0.21845
#
# Static dielectric constant tensor:
#      x y z
#    x 3.635340 0.000000 0.000000 
#    y 0.000000 3.273160 0.000000 
#    z 0.000000 0.000000 3.488980 
# 
# 
# High freq. dielectric constant tensor:
#      x y z
#    x 1.760550 0.000000 0.000000 
#    y 0.000000 1.709100 0.000000 
#    z 0.000000 0.000000 1.738030 
# 
# From -- ./inp_files/63987.got.cif
#   From: 2010.03.12/outbox.cif.g09.slc.cpg/sg74_32_cif.got.tgz:63987.got - 2010.04.16 15:46:19.
