data_PCOD8300410
_publ_section_title
;
Structure prediction by ZEFSAII (Michael W. Deem and Ramdas Pophale) SiO2 
 PCOD8300410
Probable space group: I M M A
;
_chemical_formula_sum "Si O2"
_cell_formula_units_Z 72
_cell_length_a 17.762863
_cell_length_b 9.061983
_cell_length_c 23.437584
_cell_angle_alpha 90.000000
_cell_angle_beta 90.000000
_cell_angle_gamma 90.000000
_cell_volume 3772.672018
_symmetry_space_group_name_H-M "I M M A"
_symmetry_group_IT_number 74
_symmetry_cell_setting 'orthorhombic'
loop_
_space_group_symop_operation_xyz
x,y,z
-x,1/2-y,z
x,-y,-z
-x,1/2+y,-z
-x,-y,-z
x,1/2+y,-z
-x,y,z
x,1/2-y,z
1/2+x,1/2+y,1/2+z
1/2-x,-y,1/2+z
1/2+x,1/2-y,1/2-z
1/2-x,y,1/2-z
1/2-x,1/2-y,1/2-z
1/2+x,y,1/2-z
1/2-x,1/2+y,1/2+z
1/2+x,-y,1/2+z
loop_
_atom_site_type_symbol
_atom_site_label
_atom_site_fract_x
_atom_site_fract_y
_atom_site_fract_z
Si Si1 0.585254 0.922853 0.852939
Si Si2 0.165865 0.919473 0.251103
Si Si3 0.000000 0.923839 0.059684
Si Si4 0.214018 0.924280 0.561294
Si Si5 0.850339 0.419887 0.878524
O O1 0.500000 0.974296 0.866177
O O2 0.589843 0.750000 0.842381
O O3 0.636534 0.968075 0.906934
O O4 0.612963 0.996415 0.794869
O O5 0.169080 0.750000 0.271152
O O6 0.250000 0.986397 0.250000
O O7 0.132519 0.937830 0.188214
O O8 0.925817 0.977480 0.092065
O O9 0.000000 0.750000 0.052197
O O10 0.000000 0.000000 0.000000
O O11 0.221980 0.750000 0.552811
O O12 0.215758 0.000000 0.500000
O O13 0.281810 0.979944 0.600741
O O14 0.831546 0.250000 0.893682
#
# Coordination Sequence:
#
# PCOD8300410 Si02
#       5
#    16  16   8  16  16
#     4  10  23  41  59  85 121 157 194 241 294 348
#     4  10  20  36  61  89 116 148 190 238 289 346
#     4  10  22  38  56  80 116 154 189 234 281 334
#     4  11  23  39  61  85 113 151 196 243 294 349
#     4  10  21  38  59  86 118 151 191 238 289 344
#
# _framework density 19.084616
#
# number of rings (size 3 to 8) (size 9 to 14) (size 15 to 20)
#    0.000    1.778    2.222    1.333    1.556    5.778 
#    0.000    0.000    0.000    0.000    0.000    0.000 
#    0.000    0.000    0.000    0.000    0.000    0.000 
#
# Total GULP energy -446495.997419 kJ/mol
# GULP energy per Si atom -12402.666595 kJ/mol
# Density = 1.904118 g / cm^3
# Si number density = 19.084616 Si / 1000 Ang^3
#
#
#
# Elastic Constant Matrix: (Units=GPa)
#
#
# Indices 1 2 3 4 5 6 
#
# 1 126.5461 37.7433 25.9049 0.0000 0.0000 0.0000
# 2 37.7433 46.6427 28.4826 0.0000 0.0000 0.0000
# 3 25.9049 28.4826 81.1131 0.0000 0.0000 0.0000
# 4 0.0000 0.0000 0.0000 36.2701 0.0000 0.0000
# 5 0.0000 0.0000 0.0000 0.0000 37.1584 0.0000
# 6 0.0000 0.0000 0.0000 0.0000 0.0000 28.5590
#
#
#
# Elastic Compliance Matrix: (Units=1/GPa)
#
#
# Indices 1 2 3 4 5 6 
#
# 1 0.010430 -0.008154 -0.000468 0.000000 0.000000 0.000000
# 2 -0.008154 0.033667 -0.009218 0.000000 0.000000 0.000000
# 3 -0.000468 -0.009218 0.015715 0.000000 0.000000 0.000000
# 4 0.000000 0.000000 0.000000 0.027571 0.000000 0.000000
# 5 0.000000 0.000000 0.000000 0.000000 0.026912 0.000000
# 6 0.000000 0.000000 0.000000 0.000000 0.000000 0.035015
#
#
# Mechanical properties :
#
#
# Convention : Reuss Voigt Hill
#
# Bulk Modulus (GPa) = 41.43881 48.72928 45.08404
# Shear Modulus (GPa) = 25.90221 31.20890 28.55556
#
# Velocity S-wave (km/s) = 3.68806 4.04826 3.87235
# Velocity P-wave (km/s) = 6.31633 6.88766 6.60817
#
# Compressibility (1/GPa) = 0.02413197
#
# Stress axis : x y z
#
# Youngs Moduli (GPa) = 95.87620 29.70259 63.63501
#
# Poissons Ratio (x) = 0.24221 0.02976
# Poissons Ratio (y) = 0.78182 0.58658
# Poissons Ratio (z) = 0.04483 0.27379
#
# Static dielectric constant tensor:
#      x y z
#    x 3.750860 0.000000 0.000000 
#    y 0.000000 3.444500 0.000000 
#    z 0.000000 0.000000 3.522490 
# 
# 
# High freq. dielectric constant tensor:
#      x y z
#    x 1.753190 0.000000 0.000000 
#    y 0.000000 1.734180 0.000000 
#    z 0.000000 0.000000 1.753260 
# 
# From -- ./inp_files/56635.got.cif
#   From: 2010.03.12/outbox.cif.g09.slc.cpg/sg74_29_cif.got.tgz:56635.got - 2010.04.16 15:46:19.
