data_PCOD8300408
_publ_section_title
;
Structure prediction by ZEFSAII (Michael W. Deem and Ramdas Pophale) SiO2 
 PCOD8300408
Probable space group: I M M A
;
_chemical_formula_sum "Si O2"
_cell_formula_units_Z 88
_cell_length_a 7.746561
_cell_length_b 18.202068
_cell_length_c 31.934007
_cell_angle_alpha 90.000000
_cell_angle_beta 90.000000
_cell_angle_gamma 90.000000
_cell_volume 4502.804523
_symmetry_space_group_name_H-M "I M M A"
_symmetry_group_IT_number 74
_symmetry_cell_setting 'orthorhombic'
loop_
_space_group_symop_operation_xyz
x,y,z
-x,1/2-y,z
x,-y,-z
-x,1/2+y,-z
-x,-y,-z
x,1/2+y,-z
-x,y,z
x,1/2-y,z
1/2+x,1/2+y,1/2+z
1/2-x,-y,1/2+z
1/2+x,1/2-y,1/2-z
1/2-x,y,1/2-z
1/2-x,1/2-y,1/2-z
1/2+x,y,1/2-z
1/2-x,1/2+y,1/2+z
1/2+x,-y,1/2+z
loop_
_atom_site_type_symbol
_atom_site_label
_atom_site_fract_x
_atom_site_fract_y
_atom_site_fract_z
Si Si1 0.500000 0.108254 0.485341
Si Si2 0.202530 0.331976 0.703701
Si Si3 0.795492 0.453525 0.638219
Si Si4 0.807497 0.834740 0.561331
Si Si5 0.000000 0.462526 0.929677
Si Si6 0.303294 0.615191 0.852199
Si Si7 0.301821 0.250000 0.297540
O O1 0.676249 0.152590 0.476631
O O2 0.500000 0.100039 0.535240
O O3 0.500000 0.036488 0.456460
O O4 0.281956 0.250000 0.696166
O O5 0.250000 0.360455 0.750000
O O6 0.271760 0.389417 0.669229
O O7 0.000000 0.327882 0.699344
O O8 0.675523 0.452925 0.597203
O O9 0.764279 0.531549 0.662290
O O10 0.000000 0.444790 0.626363
O O11 0.825191 0.750000 0.571544
O O12 0.715848 0.870563 0.602641
O O13 0.000000 0.866550 0.550419
O O14 0.500000 0.626517 0.863454
O O15 0.261372 0.673816 0.816806
O O16 0.500000 0.250000 0.304409
O O17 0.250000 0.250000 0.250000
#
# Coordination Sequence:
#
# PCOD8300408 Si02
#       7
#     8  16  16  16   8  16   8
#     4  11  23  38  58  90 125 152 209 266 296 370
#     4   9  19  37  61  90 120 154 199 250 301 363
#     4  10  22  40  62  90 124 163 203 249 307 370
#     4  10  20  36  61  88 116 157 203 253 302 353
#     4  11  24  38  60  90 122 161 202 255 314 364
#     4  10  20  37  59  83 116 154 205 253 298 363
#     4  12  26  38  56  84 124 168 204 256 312 362
#
# _framework density 19.543375999999999
#
# number of rings (size 3 to 8) (size 9 to 14) (size 15 to 20)
#    0.000    1.818    2.727    1.091    3.818    1.455 
#    0.000    5.455    0.000    2.182    0.000    0.000 
#    0.000    0.000    0.000    0.000    0.000    0.000 
#
# Total GULP energy -545194.531550 kJ/mol
# GULP energy per Si atom -12390.784808 kJ/mol
# Density = 1.949889 g / cm^3
# Si number density = 19.543376 Si / 1000 Ang^3
#
#
#
# Elastic Constant Matrix: (Units=GPa)
#
#
# Indices 1 2 3 4 5 6 
#
# 1 69.6037 34.9166 42.3862 0.0000 0.0000 0.0000
# 2 34.9166 116.9163 67.2300 0.0000 0.0000 0.0000
# 3 42.3862 67.2300 126.0837 0.0000 0.0000 0.0000
# 4 0.0000 0.0000 0.0000 47.1031 0.0000 0.0000
# 5 0.0000 0.0000 0.0000 0.0000 26.0295 0.0000
# 6 0.0000 0.0000 0.0000 0.0000 0.0000 21.7304
#
#
#
# Elastic Compliance Matrix: (Units=1/GPa)
#
#
# Indices 1 2 3 4 5 6 
#
# 1 0.018697 -0.002840 -0.004771 0.000000 0.000000 0.000000
# 2 -0.002840 0.012767 -0.005853 0.000000 0.000000 0.000000
# 3 -0.004771 -0.005853 0.012656 0.000000 0.000000 0.000000
# 4 0.000000 0.000000 0.000000 0.021230 0.000000 0.000000
# 5 0.000000 0.000000 0.000000 0.000000 0.038418 0.000000
# 6 0.000000 0.000000 0.000000 0.000000 0.000000 0.046019
#
#
# Mechanical properties :
#
#
# Convention : Reuss Voigt Hill
#
# Bulk Modulus (GPa) = 58.16691 66.85214 62.50952
# Shear Modulus (GPa) = 27.40548 30.17732 28.79140
#
# Velocity S-wave (km/s) = 3.74878 3.93379 3.84240
# Velocity P-wave (km/s) = 6.96889 7.41042 7.19304
#
# Compressibility (1/GPa) = 0.01719191
#
# Stress axis : x y z
#
# Youngs Moduli (GPa) = 53.48354 78.32805 79.01492
#
# Poissons Ratio (x) = 0.22249 0.37698
# Poissons Ratio (y) = 0.15192 0.46244
# Poissons Ratio (z) = 0.25517 0.45842
#
# Static dielectric constant tensor:
#      x y z
#    x 3.465170 0.000000 0.000000 
#    y 0.000000 3.918790 0.000000 
#    z 0.000000 0.000000 3.451520 
# 
# 
# High freq. dielectric constant tensor:
#      x y z
#    x 1.768190 0.000000 0.000000 
#    y 0.000000 1.765550 0.000000 
#    z 0.000000 0.000000 1.741450 
# 
# From -- ./inp_files/70354.got.cif
#   From: 2010.03.12/outbox.cif.g09.slc.cpg/sg74_36_cif.got.tgz:70354.got - 2010.04.16 15:46:19.
