data_PCOD8300644
_publ_section_title
;
Structure prediction by ZEFSAII (Michael W. Deem and Ramdas Pophale) SiO2 
 PCOD8300644
Probable space group: I M M A
;
_chemical_formula_sum "Si O2"
_cell_formula_units_Z 44
_cell_length_a 9.290363
_cell_length_b 7.066023
_cell_length_c 35.443857
_cell_angle_alpha 90.000000
_cell_angle_beta 90.000000
_cell_angle_gamma 90.000000
_cell_volume 2326.744553
_symmetry_space_group_name_H-M "I M M A"
_symmetry_group_IT_number 74
_symmetry_cell_setting 'orthorhombic'
loop_
_space_group_symop_operation_xyz
x,y,z
-x,1/2-y,z
x,-y,-z
-x,1/2+y,-z
-x,-y,-z
x,1/2+y,-z
-x,y,z
x,1/2-y,z
1/2+x,1/2+y,1/2+z
1/2-x,-y,1/2+z
1/2+x,1/2-y,1/2-z
1/2-x,y,1/2-z
1/2-x,1/2-y,1/2-z
1/2+x,y,1/2-z
1/2-x,1/2+y,1/2+z
1/2+x,-y,1/2+z
loop_
_atom_site_type_symbol
_atom_site_label
_atom_site_fract_x
_atom_site_fract_y
_atom_site_fract_z
Si Si1 0.735206 0.750000 0.324873
Si Si2 0.500000 0.750000 0.230948
Si Si3 0.000000 0.477934 0.201214
Si Si4 0.838016 0.466977 0.042132
Si Si5 0.667110 0.750000 0.090437
O O1 0.857280 0.750000 0.293499
O O2 0.640243 0.559474 0.320279
O O3 0.808847 0.750000 0.365207
O O4 0.500000 0.559960 0.256303
O O5 0.000000 0.250000 0.201169
O O6 0.836926 0.250000 0.053148
O O7 0.736940 0.565162 0.072354
O O8 0.000000 0.550676 0.044464
O O9 0.777333 0.500000 0.000000
O O10 0.500000 0.750000 0.081114
#
# Coordination Sequence:
#
# PCOD8300644 Si02
#       5
#     8   4   8  16   8
#     4  10  23  41  61  91 131 165 203 249 313 366
#     4  10  20  42  66  92 130 162 204 246 310 374
#     4  10  22  40  68  96 118 163 209 259 295 360
#     4  10  21  40  65  89 114 154 210 258 302 361
#     4  12  25  40  61  87 129 170 197 254 318 365
#
# _framework density 18.910540999999998
#
# number of rings (size 3 to 8) (size 9 to 14) (size 15 to 20)
#    0.000    1.818    2.727    2.727    5.091    5.818 
#    0.000    0.000    0.000    0.000    0.000    0.000 
#    0.000    0.000    0.000    0.000    0.000    0.000 
#
# Total GULP energy -272808.591350 kJ/mol
# GULP energy per Si atom -12400.390516 kJ/mol
# Density = 1.886750 g / cm^3
# Si number density = 18.910541 Si / 1000 Ang^3
#
#
#
# Elastic Constant Matrix: (Units=GPa)
#
#
# Indices 1 2 3 4 5 6 
#
# 1 104.3307 40.1897 30.8326 0.0000 0.0000 0.0000
# 2 40.1897 147.4598 28.4279 0.0000 -0.0001 0.0000
# 3 30.8326 28.4279 94.5523 0.0000 0.0000 0.0000
# 4 0.0000 0.0000 0.0000 16.4509 0.0000 0.0000
# 5 0.0000 -0.0001 0.0000 0.0000 1.2524 0.0001
# 6 0.0000 0.0000 0.0000 0.0000 0.0001 59.4327
#
#
#
# Elastic Compliance Matrix: (Units=1/GPa)
#
#
# Indices 1 2 3 4 5 6 
#
# 1 0.011442 -0.002547 -0.002966 0.000000 0.000000 0.000000
# 2 -0.002547 0.007766 -0.001504 0.000000 0.000000 0.000000
# 3 -0.002966 -0.001504 0.011995 0.000000 0.000000 0.000000
# 4 0.000000 0.000000 0.000000 0.060787 0.000001 0.000000
# 5 0.000000 0.000000 0.000000 0.000001 0.798456 -0.000001
# 6 0.000000 0.000000 0.000000 0.000000 -0.000001 0.016826
#
#
# Mechanical properties :
#
#
# Convention : Reuss Voigt Hill
#
# Bulk Modulus (GPa) = 58.24068 60.58258 59.41163
# Shear Modulus (GPa) = 5.39358 31.88672 18.64015
#
# Velocity S-wave (km/s) = 1.69066 4.11078 3.14299
# Velocity P-wave (km/s) = 5.88863 7.39170 6.68256
#
# Compressibility (1/GPa) = 0.01717013
#
# Stress axis : x y z
#
# Youngs Moduli (GPa) = 87.39436 128.77211 83.36492
#
# Poissons Ratio (x) = 0.32797 0.24722
# Poissons Ratio (y) = 0.22258 0.12541
# Poissons Ratio (z) = 0.25917 0.19371
#
# Static dielectric constant tensor:
#      x y z
#    x 3.587040 0.000000 0.000000 
#    y 0.000000 3.363230 0.000000 
#    z 0.000000 0.000000 3.464690 
# 
# 
# High freq. dielectric constant tensor:
#      x y z
#    x 1.737700 0.000000 0.000000 
#    y 0.000000 1.733290 0.000000 
#    z 0.000000 0.000000 1.739770 
# 
# From -- ./inp_files/69495.got.cif
#   From: 2010.03.12/outbox.cif.g09.slc.cpg/sg74_35_cif.got.tgz:69495.got - 2010.04.16 15:46:19.
