data_PCOD8300964
_publ_section_title
;
Structure prediction by ZEFSAII (Michael W. Deem and Ramdas Pophale) SiO2 
 PCOD8300964
Probable space group: I M M A
;
_chemical_formula_sum "Si O2"
_cell_formula_units_Z 96
_cell_length_a 17.253432
_cell_length_b 23.874958
_cell_length_c 11.146524
_cell_angle_alpha 90.000000
_cell_angle_beta 90.000000
_cell_angle_gamma 90.000000
_cell_volume 4591.531501
_symmetry_space_group_name_H-M "I M M A"
_symmetry_group_IT_number 74
_symmetry_cell_setting 'orthorhombic'
loop_
_space_group_symop_operation_xyz
x,y,z
-x,1/2-y,z
x,-y,-z
-x,1/2+y,-z
-x,-y,-z
x,1/2+y,-z
-x,y,z
x,1/2-y,z
1/2+x,1/2+y,1/2+z
1/2-x,-y,1/2+z
1/2+x,1/2-y,1/2-z
1/2-x,y,1/2-z
1/2-x,1/2-y,1/2-z
1/2+x,y,1/2-z
1/2-x,1/2+y,1/2+z
1/2+x,-y,1/2+z
loop_
_atom_site_type_symbol
_atom_site_label
_atom_site_fract_x
_atom_site_fract_y
_atom_site_fract_z
Si Si1 0.587999 0.394488 0.200469
Si Si2 0.157428 0.813208 0.538388
Si Si3 0.667019 0.620255 0.193676
Si Si4 0.324760 0.687195 0.627466
Si Si5 0.413447 0.312311 0.612978
Si Si6 0.810771 0.500456 0.360966
O O1 0.500000 0.406827 0.240058
O O2 0.588151 0.351144 0.089445
O O3 0.634066 0.364194 0.307313
O O4 0.627846 0.451313 0.157673
O O5 0.128446 0.750000 0.530586
O O6 0.179482 0.833821 0.407917
O O7 0.231220 0.819374 0.629440
O O8 0.750000 0.611987 0.250000
O O9 0.602825 0.641769 0.285912
O O10 0.641949 0.558848 0.147601
O O11 0.347621 0.750000 0.676428
O O12 0.350594 0.681881 0.490511
O O13 0.500000 0.322752 0.562061
O O14 0.407294 0.250000 0.669334
O O15 0.775854 0.500000 0.500000
O O16 0.750000 0.494807 0.250000
#
# Coordination Sequence:
#
# PCOD8300964 Si02
#       6
#    16  16  16  16  16  16
#     4  12  26  42  63  92 134 174 215 265 329 402
#     4  11  22  38  65  95 126 165 214 267 319 388
#     4  11  22  39  65  95 123 166 219 270 328 389
#     4  10  21  40  67  96 129 170 220 273 328 393
#     4  10  21  37  61  95 135 173 212 270 338 398
#     4  11  25  46  73  97 125 173 227 283 334 390
#
# _framework density 20.908056999999999
#
# number of rings (size 3 to 8) (size 9 to 14) (size 15 to 20)
#    0.000    1.167    3.333    3.000    0.000    5.667 
#    0.000    0.000    0.000    2.500    0.000    0.000 
#    0.000    0.000    0.000    0.000    0.000    0.000 
#
# Total GULP energy -594944.506500 kJ/mol
# GULP energy per Si atom -12394.677219 kJ/mol
# Density = 2.086047 g / cm^3
# Si number density = 20.908057 Si / 1000 Ang^3
#
#
#
# Elastic Constant Matrix: (Units=GPa)
#
#
# Indices 1 2 3 4 5 6 
#
# 1 68.7780 31.0039 14.7041 0.0000 0.0000 0.0000
# 2 31.0039 136.1107 50.2661 0.0000 0.0000 0.0000
# 3 14.7041 50.2661 84.8460 0.0000 0.0000 0.0000
# 4 0.0000 0.0000 0.0000 33.6361 0.0000 0.0000
# 5 0.0000 0.0000 0.0000 0.0000 20.8092 0.0000
# 6 0.0000 0.0000 0.0000 0.0000 0.0000 14.6567
#
#
#
# Elastic Compliance Matrix: (Units=1/GPa)
#
#
# Indices 1 2 3 4 5 6 
#
# 1 0.016245 -0.003406 -0.000798 0.000000 0.000000 0.000000
# 2 -0.003406 0.010119 -0.005404 0.000000 0.000000 0.000000
# 3 -0.000798 -0.005404 0.015126 0.000000 0.000000 0.000000
# 4 0.000000 0.000000 0.000000 0.029730 0.000000 0.000000
# 5 0.000000 0.000000 0.000000 0.000000 0.048056 0.000000
# 6 0.000000 0.000000 0.000000 0.000000 0.000000 0.068228
#
#
# Mechanical properties :
#
#
# Convention : Reuss Voigt Hill
#
# Bulk Modulus (GPa) = 44.89485 53.52031 49.20758
# Shear Modulus (GPa) = 23.34870 26.73777 25.04323
#
# Velocity S-wave (km/s) = 3.34538 3.57995 3.46465
# Velocity P-wave (km/s) = 6.03666 6.53770 6.29217
#
# Compressibility (1/GPa) = 0.02227427
#
# Stress axis : x y z
#
# Youngs Moduli (GPa) = 61.55601 98.82749 66.11102
#
# Poissons Ratio (x) = 0.33660 0.05273
# Poissons Ratio (y) = 0.20965 0.35729
# Poissons Ratio (z) = 0.04910 0.53411
#
# Static dielectric constant tensor:
#      x y z
#    x 3.498510 0.000000 0.000000 
#    y 0.000000 4.112980 0.000000 
#    z 0.000000 0.000000 3.913480 
# 
# 
# High freq. dielectric constant tensor:
#      x y z
#    x 1.793900 0.000000 0.000000 
#    y 0.000000 1.832440 0.000000 
#    z 0.000000 0.000000 1.829790 
# 
# From -- ./inp_files/22496.got.cif
#   From: 2010.03.12/outbox.cif.g09.slc.cpg/sg74_12_cif.got.tgz:22496.got - 2010.04.16 15:46:19.
