data_PCOD8300172
_publ_section_title
;
Structure prediction by ZEFSAII (Michael W. Deem and Ramdas Pophale) SiO2 
 PCOD8300172
Probable space group: I M M A
;
_chemical_formula_sum "Si O2"
_cell_formula_units_Z 88
_cell_length_a 18.974315
_cell_length_b 9.022642
_cell_length_c 27.135087
_cell_angle_alpha 90.000000
_cell_angle_beta 90.000000
_cell_angle_gamma 90.000000
_cell_volume 4645.484874
_symmetry_space_group_name_H-M "I M M A"
_symmetry_group_IT_number 74
_symmetry_cell_setting 'orthorhombic'
loop_
_space_group_symop_operation_xyz
x,y,z
-x,1/2-y,z
x,-y,-z
-x,1/2+y,-z
-x,-y,-z
x,1/2+y,-z
-x,y,z
x,1/2-y,z
1/2+x,1/2+y,1/2+z
1/2-x,-y,1/2+z
1/2+x,1/2-y,1/2-z
1/2-x,y,1/2-z
1/2-x,1/2-y,1/2-z
1/2+x,y,1/2-z
1/2-x,1/2+y,1/2+z
1/2+x,-y,1/2+z
loop_
_atom_site_type_symbol
_atom_site_label
_atom_site_fract_x
_atom_site_fract_y
_atom_site_fract_z
Si Si1 0.182713 0.584183 0.694545
Si Si2 0.810923 0.079312 0.849471
Si Si3 0.500000 0.579437 0.051127
Si Si4 0.220323 0.575825 0.949754
Si Si5 0.919418 0.919949 0.231301
Si Si6 0.628113 0.087826 0.085724
O O1 0.202371 0.750000 0.712475
O O2 0.254364 0.489423 0.689182
O O3 0.126581 0.514774 0.731312
O O4 0.146666 0.592428 0.642213
O O5 0.789962 0.250000 0.859302
O O6 0.887059 0.065772 0.823621
O O7 0.816224 0.994726 0.901575
O O8 0.500000 0.750000 0.041375
O O9 0.430409 0.536831 0.080640
O O10 0.500000 0.500000 0.000000
O O11 0.202706 0.750000 0.950485
O O12 0.303866 0.546091 0.946650
O O13 0.191863 0.500000 0.000000
O O14 0.916929 0.750000 0.248978
O O15 0.000000 0.978299 0.230098
O O16 0.599796 0.250000 0.069050
#
# Coordination Sequence:
#
# PCOD8300172 Si02
#       6
#    16  16   8  16  16  16
#     4  10  21  36  56  81 109 144 184 228 273 323
#     4  10  20  36  58  82 111 147 183 225 274 325
#     4  12  24  34  48  68  96 138 180 222 269 316
#     4  10  20  35  57  83 108 137 176 224 273 326
#     4  10  22  38  56  81 113 147 184 226 275 331
#     4   9  20  36  51  71 103 137 174 220 265 315
#
# _framework density 18.943125999999999
#
# number of rings (size 3 to 8) (size 9 to 14) (size 15 to 20)
#    0.000    2.000    0.000    4.636    1.273    9.818 
#    0.000    0.000    0.000    0.545    0.000    0.000 
#    0.000    0.000    0.000    0.000    0.000    0.000 
#
# Total GULP energy -545548.584262 kJ/mol
# GULP energy per Si atom -12398.831461 kJ/mol
# Density = 1.890001 g / cm^3
# Si number density = 18.943126 Si / 1000 Ang^3
#
#
#
# Elastic Constant Matrix: (Units=GPa)
#
#
# Indices 1 2 3 4 5 6 
#
# 1 72.8874 40.2998 53.4355 0.0000 0.0000 0.0000
# 2 40.2998 128.0945 48.3679 0.0000 0.0000 0.0000
# 3 53.4355 48.3679 82.5764 0.0000 0.0000 0.0000
# 4 0.0000 0.0000 0.0000 29.4614 0.0000 0.0000
# 5 0.0000 0.0000 0.0000 0.0000 -5.6204 0.0000
# 6 0.0000 0.0000 0.0000 0.0000 0.0000 -8.6190
#
#
#
# Elastic Compliance Matrix: (Units=1/GPa)
#
#
# Indices 1 2 3 4 5 6 
#
# 1 0.026669 -0.002406 -0.015848 0.000000 0.000000 0.000000
# 2 -0.002406 0.010241 -0.004441 0.000000 0.000000 0.000000
# 3 -0.015848 -0.004441 0.024967 0.000000 0.000000 0.000000
# 4 0.000000 0.000000 0.000000 0.033943 0.000000 0.000000
# 5 0.000000 0.000000 0.000000 0.000000 -0.177922 0.000000
# 6 0.000000 0.000000 0.000000 0.000000 0.000000 -0.116023
#
#
# Mechanical properties :
#
#
# Convention : Reuss Voigt Hill
#
# Bulk Modulus (GPa) = 60.66052 63.08496 61.87274
# Shear Modulus (GPa) = -33.95837 12.47473 -10.74182
#
# Velocity S-wave (km/s) = -4.23856 2.56898 -2.38388
# Velocity P-wave (km/s) = 2.85273 6.49416 5.01559
#
# Compressibility (1/GPa) = 0.01648519
#
# Stress axis : x y z
#
# Youngs Moduli (GPa) = 37.49707 97.64904 40.05306
#
# Poissons Ratio (x) = 0.23495 0.63477
# Poissons Ratio (y) = 0.09022 0.17789
# Poissons Ratio (z) = 0.59426 0.43370
#
# Static dielectric constant tensor:
#      x y z
#    x 3.303300 0.000000 0.000000 
#    y 0.000000 6.339680 0.000000 
#    z 0.000000 0.000000 3.519210 
# 
# 
# High freq. dielectric constant tensor:
#      x y z
#    x 1.711770 0.000000 0.000000 
#    y 0.000000 1.749150 0.000000 
#    z 0.000000 0.000000 1.743300 
# 
# From -- ./inp_files/72969.got.cif
#   From: 2010.03.12/outbox.cif.g09.slc.cpg/sg74_37_cif.got.tgz:72969.got - 2010.04.16 15:46:19.
