data_PCOD8300067
_publ_section_title
;
Structure prediction by ZEFSAII (Michael W. Deem and Ramdas Pophale) SiO2 
 PCOD8300067
Probable space group: I M M A
;
_chemical_formula_sum "Si O2"
_cell_formula_units_Z 104
_cell_length_a 20.686411
_cell_length_b 9.258478
_cell_length_c 29.897822
_cell_angle_alpha 90.000000
_cell_angle_beta 90.000000
_cell_angle_gamma 90.000000
_cell_volume 5726.170825
_symmetry_space_group_name_H-M "I M M A"
_symmetry_group_IT_number 74
_symmetry_cell_setting 'orthorhombic'
loop_
_space_group_symop_operation_xyz
x,y,z
-x,1/2-y,z
x,-y,-z
-x,1/2+y,-z
-x,-y,-z
x,1/2+y,-z
-x,y,z
x,1/2-y,z
1/2+x,1/2+y,1/2+z
1/2-x,-y,1/2+z
1/2+x,1/2-y,1/2-z
1/2-x,y,1/2-z
1/2-x,1/2-y,1/2-z
1/2+x,y,1/2-z
1/2-x,1/2+y,1/2+z
1/2+x,-y,1/2+z
loop_
_atom_site_type_symbol
_atom_site_label
_atom_site_fract_x
_atom_site_fract_y
_atom_site_fract_z
Si Si1 0.773505 0.080601 0.130104
Si Si2 0.073145 0.582722 0.457582
Si Si3 0.640833 0.419397 0.452806
Si Si4 0.000000 0.585233 0.955310
Si Si5 0.313711 0.081265 0.273611
Si Si6 0.073491 0.580934 0.711178
Si Si7 0.859813 0.920117 0.366365
O O1 0.756568 0.250000 0.126979
O O2 0.809256 0.026627 0.085046
O O3 0.817942 0.048412 0.173463
O O4 0.709731 0.990212 0.139004
O O5 0.102621 0.500000 0.500000
O O6 0.075276 0.750000 0.469016
O O7 0.117138 0.543323 0.415928
O O8 0.000000 0.531348 0.447759
O O9 0.652866 0.500000 0.500000
O O10 0.650249 0.250000 0.462075
O O11 0.568734 0.450445 0.431467
O O12 0.000000 0.750000 0.969497
O O13 0.000000 0.500000 0.000000
O O14 0.310058 0.250000 0.264759
O O15 0.250000 0.010766 0.250000
O O16 0.379238 0.023297 0.250501
O O17 0.084029 0.750000 0.700932
O O18 0.088801 0.491149 0.666822
O O19 0.000000 0.549923 0.726095
O O20 0.856346 0.750000 0.357108
#
# Coordination Sequence:
#
# PCOD8300067 Si02
#       7
#    16  16  16   8  16  16  16
#     4  10  20  35  54  76 105 140 176 215 262 312
#     4   9  19  35  52  71  98 131 167 209 257 303
#     4   9  18  32  52  76 105 139 175 219 266 317
#     4   8  14  28  48  72  98 130 172 210 256 312
#     4   9  16  32  56  77 104 137 170 214 262 307
#     4  10  20  35  57  83 106 134 175 218 262 315
#     4  11  22  35  53  77 106 139 175 215 260 311
#
# _framework density 18.162223999999998
#
# number of rings (size 3 to 8) (size 9 to 14) (size 15 to 20)
#    0.000    2.462    1.538    0.923    0.000    3.385 
#    1.385    6.154    0.000    0.000    0.000    0.000 
#    0.000    0.000    0.000    0.000    0.000    0.000 
#
# Total GULP energy -644458.844977 kJ/mol
# GULP energy per Si atom -12393.439326 kJ/mol
# Density = 1.812089 g / cm^3
# Si number density = 18.162224 Si / 1000 Ang^3
#
#
#
# Elastic Constant Matrix: (Units=GPa)
#
#
# Indices 1 2 3 4 5 6 
#
# 1 116.2863 33.7299 57.2421 0.0000 0.0000 0.0000
# 2 33.7299 42.1680 39.7109 0.0000 0.0000 0.0000
# 3 57.2421 39.7109 115.3686 0.0000 0.0000 0.0000
# 4 0.0000 0.0000 0.0000 23.7936 0.0000 0.0000
# 5 0.0000 0.0000 0.0000 0.0000 29.0510 0.0000
# 6 0.0000 0.0000 0.0000 0.0000 0.0000 18.3379
#
#
#
# Elastic Compliance Matrix: (Units=1/GPa)
#
#
# Indices 1 2 3 4 5 6 
#
# 1 0.012349 -0.006078 -0.004035 0.000000 0.000000 0.000000
# 2 -0.006078 0.038080 -0.010092 0.000000 0.000000 0.000000
# 3 -0.004035 -0.010092 0.014144 0.000000 0.000000 0.000000
# 4 0.000000 0.000000 0.000000 0.042028 0.000000 0.000000
# 5 0.000000 0.000000 0.000000 0.000000 0.034422 0.000000
# 6 0.000000 0.000000 0.000000 0.000000 0.000000 0.054532
#
#
# Mechanical properties :
#
#
# Convention : Reuss Voigt Hill
#
# Bulk Modulus (GPa) = 41.38544 59.46540 50.42542
# Shear Modulus (GPa) = 20.49028 23.77917 22.13472
#
# Velocity S-wave (km/s) = 3.36248 3.62230 3.49481
# Velocity P-wave (km/s) = 6.15720 7.09275 6.64147
#
# Compressibility (1/GPa) = 0.02416309
#
# Stress axis : x y z
#
# Youngs Moduli (GPa) = 80.98108 26.26039 70.70313
#
# Poissons Ratio (x) = 0.15960 0.28528
# Poissons Ratio (y) = 0.49218 0.71354
# Poissons Ratio (z) = 0.32676 0.26502
#
# Static dielectric constant tensor:
#      x y z
#    x 0.949980 0.000000 0.000000 
#    y 0.000000 3.174340 0.000000 
#    z 0.000000 0.000000 3.363640 
# 
# 
# High freq. dielectric constant tensor:
#      x y z
#    x 1.710420 0.000000 0.000000 
#    y 0.000000 1.682080 0.000000 
#    z 0.000000 0.000000 1.699500 
# 
# From -- ./inp_files/73351.got.cif
#   From: 2010.03.12/outbox.cif.g09.slc.cpg/sg74_37_cif.got.tgz:73351.got - 2010.04.16 15:46:19.
