data_PCOD8300689
_publ_section_title
;
Structure prediction by ZEFSAII (Michael W. Deem and Ramdas Pophale) SiO2 
 PCOD8300689
Probable space group: I M M A
;
_chemical_formula_sum "Si O2"
_cell_formula_units_Z 80
_cell_length_a 18.495079
_cell_length_b 9.425498
_cell_length_c 25.702079
_cell_angle_alpha 90.000000
_cell_angle_beta 90.000000
_cell_angle_gamma 90.000000
_cell_volume 4480.523407
_symmetry_space_group_name_H-M "I M M A"
_symmetry_group_IT_number 74
_symmetry_cell_setting 'orthorhombic'
loop_
_space_group_symop_operation_xyz
x,y,z
-x,1/2-y,z
x,-y,-z
-x,1/2+y,-z
-x,-y,-z
x,1/2+y,-z
-x,y,z
x,1/2-y,z
1/2+x,1/2+y,1/2+z
1/2-x,-y,1/2+z
1/2+x,1/2-y,1/2-z
1/2-x,y,1/2-z
1/2-x,1/2-y,1/2-z
1/2+x,y,1/2-z
1/2-x,1/2+y,1/2+z
1/2+x,-y,1/2+z
loop_
_atom_site_type_symbol
_atom_site_label
_atom_site_fract_x
_atom_site_fract_y
_atom_site_fract_z
Si Si1 0.582189 0.581816 0.838465
Si Si2 0.665328 0.413234 0.752658
Si Si3 0.586012 0.088962 0.451186
Si Si4 0.914229 0.593721 0.546152
Si Si5 0.415934 0.085977 0.648616
O O1 0.500000 0.535629 0.826220
O O2 0.590065 0.750000 0.833620
O O3 0.635478 0.507043 0.799058
O O4 0.604492 0.532137 0.896747
O O5 0.646426 0.250000 0.764157
O O6 0.750000 0.440002 0.750000
O O7 0.629237 0.461625 0.698763
O O8 0.500000 0.091151 0.453811
O O9 0.616331 0.250000 0.452433
O O10 0.617013 0.000000 0.500000
O O11 0.611721 0.011139 0.398706
O O12 0.879891 0.500000 0.500000
O O13 0.880651 0.750000 0.540051
O O14 0.000000 0.602123 0.540403
O O15 0.500000 0.059210 0.660705
O O16 0.401957 0.250000 0.633950
#
# Coordination Sequence:
#
# PCOD8300689 Si02
#       5
#    16  16  16  16  16
#     4   9  18  32  50  73 100 128 161 202 243 285
#     4  10  21  35  50  70  97 129 165 204 245 289
#     4   9  16  26  43  69  98 124 151 187 233 283
#     4   8  14  25  42  67  97 124 151 188 234 281
#     4   9  17  30  48  69  94 124 158 197 238 280
#
# _framework density 17.855056999999999
#
# number of rings (size 3 to 8) (size 9 to 14) (size 15 to 20)
#    0.000    3.000    0.000    2.400    0.000    5.600 
#    0.000    4.000    0.000    1.200    0.000    2.800 
#    0.000    0.000    0.000    0.000    0.000    0.000 
#
# Total GULP energy -495907.399313 kJ/mol
# GULP energy per Si atom -12397.684983 kJ/mol
# Density = 1.781442 g / cm^3
# Si number density = 17.855057 Si / 1000 Ang^3
#
#
#
# Elastic Constant Matrix: (Units=GPa)
#
#
# Indices 1 2 3 4 5 6 
#
# 1 40.6834 26.0146 45.8691 0.0000 0.0000 0.0000
# 2 26.0146 87.1551 78.6184 0.0000 0.0000 0.0000
# 3 45.8691 78.6184 168.3258 0.0000 0.0000 0.0000
# 4 0.0000 0.0000 0.0000 37.5564 0.0000 0.0000
# 5 0.0000 0.0000 0.0000 0.0000 -0.6997 0.0000
# 6 0.0000 0.0000 0.0000 0.0000 0.0000 16.1204
#
#
#
# Elastic Compliance Matrix: (Units=1/GPa)
#
#
# Indices 1 2 3 4 5 6 
#
# 1 0.036015 -0.003278 -0.008283 0.000000 0.000000 0.000000
# 2 -0.003278 0.020126 -0.008507 0.000000 0.000000 0.000000
# 3 -0.008283 -0.008507 0.012171 0.000000 0.000000 0.000000
# 4 0.000000 0.000000 0.000000 0.026627 0.000000 0.000000
# 5 0.000000 0.000000 0.000000 0.000000 -1.429256 0.000000
# 6 0.000000 0.000000 0.000000 0.000000 0.000000 0.062033
#
#
# Mechanical properties :
#
#
# Convention : Reuss Voigt Hill
#
# Bulk Modulus (GPa) = 35.49103 66.35205 50.92154
# Shear Modulus (GPa) = -4.08912 20.30625 8.10856
#
# Velocity S-wave (km/s) = -1.51497 3.37602 2.13335
# Velocity P-wave (km/s) = 4.10612 7.24147 5.88639
#
# Compressibility (1/GPa) = 0.02817613
#
# Stress axis : x y z
#
# Youngs Moduli (GPa) = 27.76607 49.68772 82.16184
#
# Poissons Ratio (x) = 0.16289 0.68055
# Poissons Ratio (y) = 0.09103 0.69892
# Poissons Ratio (z) = 0.22999 0.42267
#
# Static dielectric constant tensor:
#      x y z
#    x 2.828820 0.000000 0.000000 
#    y 0.000000 3.455260 0.000000 
#    z 0.000000 0.000000 3.491060 
# 
# 
# High freq. dielectric constant tensor:
#      x y z
#    x 1.639980 0.000000 0.000000 
#    y 0.000000 1.690690 0.000000 
#    z 0.000000 0.000000 1.706170 
# 
# From -- ./inp_files/67511.got.cif
#   From: 2010.03.12/outbox.cif.g09.slc.cpg/sg74_34_cif.got.tgz:67511.got - 2010.04.16 15:46:19.
