data_PCOD8300200
_publ_section_title
;
Structure prediction by ZEFSAII (Michael W. Deem and Ramdas Pophale) SiO2 
 PCOD8300200
Probable space group: I M M A
;
_chemical_formula_sum "Si O2"
_cell_formula_units_Z 72
_cell_length_a 16.337497
_cell_length_b 14.220024
_cell_length_c 17.249567
_cell_angle_alpha 90.000000
_cell_angle_beta 90.000000
_cell_angle_gamma 90.000000
_cell_volume 4007.412496
_symmetry_space_group_name_H-M "I M M A"
_symmetry_group_IT_number 74
_symmetry_cell_setting 'orthorhombic'
loop_
_space_group_symop_operation_xyz
x,y,z
-x,1/2-y,z
x,-y,-z
-x,1/2+y,-z
-x,-y,-z
x,1/2+y,-z
-x,y,z
x,1/2-y,z
1/2+x,1/2+y,1/2+z
1/2-x,-y,1/2+z
1/2+x,1/2-y,1/2-z
1/2-x,y,1/2-z
1/2-x,1/2-y,1/2-z
1/2+x,y,1/2-z
1/2-x,1/2+y,1/2+z
1/2+x,-y,1/2+z
loop_
_atom_site_type_symbol
_atom_site_label
_atom_site_fract_x
_atom_site_fract_y
_atom_site_fract_z
Si Si1 0.596336 0.250000 0.787783
Si Si2 0.905398 0.569308 0.197542
Si Si3 0.325128 0.571423 0.804112
Si Si4 0.818973 0.250000 0.551509
Si Si5 0.731621 0.556574 0.422593
Si Si6 0.597681 0.250000 0.113146
O O1 0.500000 0.250000 0.783302
O O2 0.631016 0.341744 0.744580
O O3 0.620286 0.250000 0.876688
O O4 0.893154 0.477151 0.250106
O O5 0.856205 0.563091 0.117988
O O6 0.000000 0.580883 0.176158
O O7 0.250000 0.604934 0.750000
O O8 0.296676 0.496171 0.868116
O O9 0.366695 0.659180 0.844719
O O10 0.761863 0.340725 0.553829
O O11 0.875014 0.250000 0.475627
O O12 0.716831 0.500000 0.500000
O O13 0.500000 0.250000 0.117735
#
# Coordination Sequence:
#
# PCOD8300200 Si02
#       6
#     8  16  16   8  16   8
#     4  10  20  35  57  88 118 143 183 234 287 339
#     4  10  21  37  60  87 114 147 190 242 287 328
#     4  10  21  39  61  83 110 151 195 233 279 340
#     4  12  22  37  57  87 117 154 187 228 278 348
#     4  11  22  38  59  84 115 154 193 230 282 342
#     4  12  24  38  57  85 119 153 185 232 287 333
#
# _framework density 17.966705999999999
#
# number of rings (size 3 to 8) (size 9 to 14) (size 15 to 20)
#    0.000    1.333    4.444    2.000    0.000    1.333 
#    0.000    1.111    0.000    0.000    0.000    0.000 
#    0.000    0.000    0.000    0.000    0.000    0.000 
#
# Total GULP energy -446507.752538 kJ/mol
# GULP energy per Si atom -12402.993126 kJ/mol
# Density = 1.792581 g / cm^3
# Si number density = 17.966706 Si / 1000 Ang^3
#
#
#
# Elastic Constant Matrix: (Units=GPa)
#
#
# Indices 1 2 3 4 5 6 
#
# 1 100.5454 59.8232 54.5399 0.0000 0.0000 0.0000
# 2 59.8232 132.9948 60.0512 0.0000 0.0000 0.0000
# 3 54.5399 60.0512 127.9586 0.0000 0.0000 0.0000
# 4 0.0000 0.0000 0.0000 -26.6993 0.0000 0.0000
# 5 0.0000 0.0000 0.0000 0.0000 25.2435 0.0000
# 6 0.0000 0.0000 0.0000 0.0000 0.0000 25.8483
#
#
#
# Elastic Compliance Matrix: (Units=1/GPa)
#
#
# Indices 1 2 3 4 5 6 
#
# 1 0.015124 -0.004939 -0.004128 0.000000 0.000000 0.000000
# 2 -0.004939 0.011154 -0.003129 0.000000 0.000000 0.000000
# 3 -0.004128 -0.003129 0.011043 0.000000 0.000000 0.000000
# 4 0.000000 0.000000 0.000000 -0.037454 0.000000 0.000000
# 5 0.000000 0.000000 0.000000 0.000000 0.039614 0.000000
# 6 0.000000 0.000000 0.000000 0.000000 0.000000 0.038687
#
#
# Mechanical properties :
#
#
# Convention : Reuss Voigt Hill
#
# Bulk Modulus (GPa) = 77.35431 78.92528 78.13980
# Shear Modulus (GPa) = 46.78576 17.35080 32.06828
#
# Velocity S-wave (km/s) = 5.10850 3.11097 4.22936
# Velocity P-wave (km/s) = 8.82856 7.54508 8.21193
#
# Compressibility (1/GPa) = 0.01292753
#
# Stress axis : x y z
#
# Youngs Moduli (GPa) = 66.12148 89.65690 90.55270
#
# Poissons Ratio (x) = 0.44280 0.37384
# Poissons Ratio (y) = 0.32656 0.28337
# Poissons Ratio (z) = 0.27298 0.28057
#
# Static dielectric constant tensor:
#      x y z
#    x 3.169370 0.000000 0.000000 
#    y 0.000000 3.573620 0.000000 
#    z 0.000000 0.000000 3.416060 
# 
# 
# High freq. dielectric constant tensor:
#      x y z
#    x 1.692860 0.000000 0.000000 
#    y 0.000000 1.709190 0.000000 
#    z 0.000000 0.000000 1.705040 
# 
# From -- ./inp_files/31964.got.cif
#   From: 2010.03.12/outbox.cif.g09.slc.cpg/sg74_16_cif.got.tgz:31964.got - 2010.04.16 15:46:19.
