data_PCOD8300847
_publ_section_title
;
Structure prediction by ZEFSAII (Michael W. Deem and Ramdas Pophale) SiO2 
 PCOD8300847
Probable space group: I M M A
;
_chemical_formula_sum "Si O2"
_cell_formula_units_Z 96
_cell_length_a 8.602070
_cell_length_b 20.145910
_cell_length_c 29.177570
_cell_angle_alpha 90.000000
_cell_angle_beta 90.000000
_cell_angle_gamma 90.000000
_cell_volume 5056.371577
_symmetry_space_group_name_H-M "I M M A"
_symmetry_group_IT_number 74
_symmetry_cell_setting 'orthorhombic'
loop_
_space_group_symop_operation_xyz
x,y,z
-x,1/2-y,z
x,-y,-z
-x,1/2+y,-z
-x,-y,-z
x,1/2+y,-z
-x,y,z
x,1/2-y,z
1/2+x,1/2+y,1/2+z
1/2-x,-y,1/2+z
1/2+x,1/2-y,1/2-z
1/2-x,y,1/2-z
1/2-x,1/2-y,1/2-z
1/2+x,y,1/2-z
1/2-x,1/2+y,1/2+z
1/2+x,-y,1/2+z
loop_
_atom_site_type_symbol
_atom_site_label
_atom_site_fract_x
_atom_site_fract_y
_atom_site_fract_z
Si Si1 0.181097 0.555229 0.342685
Si Si2 0.316717 0.598048 0.963199
Si Si3 0.816224 0.424000 0.199827
Si Si4 0.184105 0.449841 0.556583
Si Si5 0.677162 0.178143 0.701393
Si Si6 0.316263 0.174964 0.379528
O O1 0.269227 0.497863 0.315147
O O2 0.249670 0.567327 0.393544
O O3 0.207941 0.625929 0.320815
O O4 0.000000 0.536298 0.343006
O O5 0.500000 0.607790 0.956632
O O6 0.258214 0.524486 0.951505
O O7 0.234702 0.650354 0.929875
O O8 0.264690 0.603645 0.017191
O O9 0.750000 0.406367 0.250000
O O10 0.751488 0.371758 0.161691
O O11 0.000000 0.419780 0.203158
O O12 0.000000 0.450687 0.555614
O O13 0.500000 0.151063 0.703701
O O14 0.680508 0.250000 0.675726
O O15 0.750000 0.190509 0.750000
O O16 0.500000 0.173893 0.378159
O O17 0.253565 0.250000 0.372191
#
# Coordination Sequence:
#
# PCOD8300847 Si02
#       6
#    16  16  16  16  16  16
#     4  11  20  34  57  84 112 143 179 224 274 323
#     4   9  16  33  57  81 106 137 179 220 262 316
#     4  11  23  38  56  79 109 144 186 235 282 332
#     4   8  16  30  54  83 110 136 170 221 267 310
#     4  10  21  37  55  76 105 142 182 221 265 321
#     4  10  22  39  56  78 112 149 184 230 285 334
#
# _framework density 18.985946999999999
#
# number of rings (size 3 to 8) (size 9 to 14) (size 15 to 20)
#    0.000    2.167    1.667    3.000    0.000    2.333 
#    0.000    4.167    0.000    5.000    0.000    0.000 
#    0.000    0.000    0.000    0.000    0.000    0.000 
#
# Total GULP energy -594676.049650 kJ/mol
# GULP energy per Si atom -12389.084368 kJ/mol
# Density = 1.894273 g / cm^3
# Si number density = 18.985947 Si / 1000 Ang^3
#
#
#
# Elastic Constant Matrix: (Units=GPa)
#
#
# Indices 1 2 3 4 5 6 
#
# 1 35.7346 13.7844 16.6183 0.0000 0.0000 0.0000
# 2 13.7844 107.8555 56.4151 0.0000 0.0000 0.0000
# 3 16.6183 56.4151 124.4176 0.0000 0.0000 0.0000
# 4 0.0000 0.0000 0.0000 29.3288 0.0000 0.0000
# 5 0.0000 0.0000 0.0000 0.0000 24.3615 0.0000
# 6 0.0000 0.0000 0.0000 0.0000 0.0000 -123.0342
#
#
#
# Elastic Compliance Matrix: (Units=1/GPa)
#
#
# Indices 1 2 3 4 5 6 
#
# 1 0.030266 -0.002299 -0.003000 0.000000 0.000000 0.000000
# 2 -0.002299 0.012329 -0.005283 0.000000 0.000000 0.000000
# 3 -0.003000 -0.005283 0.010834 0.000000 0.000000 0.000000
# 4 0.000000 0.000000 0.000000 0.034096 0.000000 0.000000
# 5 0.000000 0.000000 0.000000 0.000000 0.041048 0.000000
# 6 0.000000 0.000000 0.000000 0.000000 0.000000 -0.008128
#
#
# Mechanical properties :
#
#
# Convention : Reuss Voigt Hill
#
# Bulk Modulus (GPa) = 30.99421 49.07150 40.03285
# Shear Modulus (GPa) = 32.81592 -1.78947 15.51322
#
# Velocity S-wave (km/s) = 4.16195 -0.97189 2.86158
# Velocity P-wave (km/s) = 6.28140 4.96416 5.66123
#
# Compressibility (1/GPa) = 0.03226409
#
# Stress axis : x y z
#
# Youngs Moduli (GPa) = 33.04030 81.10982 92.30359
#
# Poissons Ratio (x) = 0.18646 0.27693
# Poissons Ratio (y) = 0.07595 0.48767
# Poissons Ratio (z) = 0.09913 0.42853
#
# Static dielectric constant tensor:
#      x y z
#    x 3.262670 0.000000 0.000000 
#    y 0.000000 3.842840 0.000000 
#    z 0.000000 0.000000 2.866290 
# 
# 
# High freq. dielectric constant tensor:
#      x y z
#    x 1.721030 0.000000 0.000000 
#    y 0.000000 1.726110 0.000000 
#    z 0.000000 0.000000 1.749010 
# 
# From -- ./inp_files/64369.got.cif
#   From: 2010.03.12/outbox.cif.g09.slc.cpg/sg74_33_cif.got.tgz:64369.got - 2010.04.16 15:46:19.
