data_PCOD8300752
_publ_section_title
;
Structure prediction by ZEFSAII (Michael W. Deem and Ramdas Pophale) SiO2 
 PCOD8300752
Probable space group: I M M A
;
_chemical_formula_sum "Si O2"
_cell_formula_units_Z 64
_cell_length_a 16.633159
_cell_length_b 14.415134
_cell_length_c 14.316422
_cell_angle_alpha 90.000000
_cell_angle_beta 90.000000
_cell_angle_gamma 90.000000
_cell_volume 3432.637276
_symmetry_space_group_name_H-M "I M M A"
_symmetry_group_IT_number 74
_symmetry_cell_setting 'orthorhombic'
loop_
_space_group_symop_operation_xyz
x,y,z
-x,1/2-y,z
x,-y,-z
-x,1/2+y,-z
-x,-y,-z
x,1/2+y,-z
-x,y,z
x,1/2-y,z
1/2+x,1/2+y,1/2+z
1/2-x,-y,1/2+z
1/2+x,1/2-y,1/2-z
1/2-x,y,1/2-z
1/2-x,1/2-y,1/2-z
1/2+x,y,1/2-z
1/2-x,1/2+y,1/2+z
1/2+x,-y,1/2+z
loop_
_atom_site_type_symbol
_atom_site_label
_atom_site_fract_x
_atom_site_fract_y
_atom_site_fract_z
Si Si1 0.717826 0.143322 0.040342
Si Si2 0.812026 0.855737 0.330580
Si Si3 0.831869 0.147741 0.192072
Si Si4 0.908217 0.967872 0.658415
O O1 0.696032 0.250000 0.066282
O O2 0.803172 0.115368 0.088504
O O3 0.645309 0.079061 0.077427
O O4 0.731463 0.131395 0.930292
O O5 0.841813 0.750000 0.316067
O O6 0.750000 0.885460 0.250000
O O7 0.888236 0.923558 0.328307
O O8 0.871070 0.250000 0.188737
O O9 0.750000 0.148072 0.250000
O O10 0.895398 0.079529 0.240210
O O11 0.000000 0.957714 0.627091
#
# Coordination Sequence:
#
# PCOD8300752 Si02
#       4
#    16  16  16  16
#     4   9  18  33  54  77  98 125 164 206 245 287
#     4  10  21  36  53  71  93 130 177 212 236 273
#     4   8  15  30  51  73  97 125 159 200 243 288
#     4  11  21  31  48  77 108 132 154 191 250 308
#
# _framework density 18.644556000000001
#
# number of rings (size 3 to 8) (size 9 to 14) (size 15 to 20)
#    0.000    2.500    0.000    5.250    0.000    4.500 
#    0.000    2.500    0.000    3.000    0.000    7.000 
#    0.000    0.000    0.000    0.000    0.000    0.000 
#
# Total GULP energy -396620.963072 kJ/mol
# GULP energy per Si atom -12394.405096 kJ/mol
# Density = 1.860212 g / cm^3
# Si number density = 18.644556 Si / 1000 Ang^3
#
#
#
# Elastic Constant Matrix: (Units=GPa)
#
#
# Indices 1 2 3 4 5 6 
#
# 1 45.6597 26.5868 38.2909 0.0000 0.0000 0.0000
# 2 26.5868 91.3208 35.6672 0.0000 0.0000 0.0000
# 3 38.2909 35.6672 119.5434 0.0000 0.0000 0.0000
# 4 0.0000 0.0000 0.0000 19.5973 0.0000 0.0000
# 5 0.0000 0.0000 0.0000 0.0000 10.5519 0.0000
# 6 0.0000 0.0000 0.0000 0.0000 0.0000 14.0408
#
#
#
# Elastic Compliance Matrix: (Units=1/GPa)
#
#
# Indices 1 2 3 4 5 6 
#
# 1 0.032738 -0.006153 -0.008651 0.000000 0.000000 0.000000
# 2 -0.006153 0.013551 -0.002072 0.000000 0.000000 0.000000
# 3 -0.008651 -0.002072 0.011754 0.000000 0.000000 0.000000
# 4 0.000000 0.000000 0.000000 0.051027 0.000000 0.000000
# 5 0.000000 0.000000 0.000000 0.000000 0.094769 0.000000
# 6 0.000000 0.000000 0.000000 0.000000 0.000000 0.071221
#
#
# Mechanical properties :
#
#
# Convention : Reuss Voigt Hill
#
# Bulk Modulus (GPa) = 41.16517 50.84597 46.00557
# Shear Modulus (GPa) = 15.77733 19.23661 17.50697
#
# Velocity S-wave (km/s) = 2.91214 3.21558 3.06761
# Velocity P-wave (km/s) = 5.78223 6.41225 6.10538
#
# Compressibility (1/GPa) = 0.02429238
#
# Stress axis : x y z
#
# Youngs Moduli (GPa) = 30.54530 73.79493 85.07459
#
# Poissons Ratio (x) = 0.45403 0.73595
# Poissons Ratio (y) = 0.18793 0.17631
# Poissons Ratio (z) = 0.26424 0.15293
#
# Static dielectric constant tensor:
#      x y z
#    x 2.972390 0.000000 0.000000 
#    y 0.000000 3.711280 0.000000 
#    z 0.000000 0.000000 3.914220 
# 
# 
# High freq. dielectric constant tensor:
#      x y z
#    x 1.663640 0.000000 0.000000 
#    y 0.000000 1.741260 0.000000 
#    z 0.000000 0.000000 1.730070 
# 
# From -- ./inp_files/19926.got.cif
#   From: 2010.03.12/outbox.cif.g09.slc.cpg/sg74_10_cif.got.tgz:19926.got - 2010.04.16 15:46:19.
