data_PCOD8300935
_publ_section_title
;
Structure prediction by ZEFSAII (Michael W. Deem and Ramdas Pophale) SiO2 
 PCOD8300935
Probable space group: I M M A
;
_chemical_formula_sum "Si O2"
_cell_formula_units_Z 64
_cell_length_a 26.462028
_cell_length_b 16.810883
_cell_length_c 7.363983
_cell_angle_alpha 90.000000
_cell_angle_beta 90.000000
_cell_angle_gamma 90.000000
_cell_volume 3275.868255
_symmetry_space_group_name_H-M "I M M A"
_symmetry_group_IT_number 74
_symmetry_cell_setting 'orthorhombic'
loop_
_space_group_symop_operation_xyz
x,y,z
-x,1/2-y,z
x,-y,-z
-x,1/2+y,-z
-x,-y,-z
x,1/2+y,-z
-x,y,z
x,1/2-y,z
1/2+x,1/2+y,1/2+z
1/2-x,-y,1/2+z
1/2+x,1/2-y,1/2-z
1/2-x,y,1/2-z
1/2-x,1/2-y,1/2-z
1/2+x,y,1/2-z
1/2-x,1/2+y,1/2+z
1/2+x,-y,1/2+z
loop_
_atom_site_type_symbol
_atom_site_label
_atom_site_fract_x
_atom_site_fract_y
_atom_site_fract_z
Si Si1 0.102605 0.574959 0.107753
Si Si2 0.867861 0.840297 0.770576
Si Si3 0.057724 0.341162 0.554436
Si Si4 0.192473 0.988974 0.708084
O O1 0.068355 0.601369 0.275803
O O2 0.158239 0.549192 0.176030
O O3 0.077800 0.500000 0.000000
O O4 0.106899 0.648582 0.968374
O O5 0.849637 0.750000 0.746840
O O6 0.908048 0.865384 0.616522
O O7 0.819337 0.897469 0.758363
O O8 0.068494 0.250000 0.611179
O O9 0.000000 0.352992 0.494164
O O10 0.250000 0.010009 0.750000
O O11 0.179530 0.000000 0.500000
#
# Coordination Sequence:
#
# PCOD8300935 Si02
#       4
#    16  16  16  16
#     4  10  21  37  59  87 118 157 195 245 293 347
#     4  10  21  38  60  86 119 155 198 245 292 348
#     4  10  21  38  60  86 121 161 197 242 298 348
#     4  11  21  39  61  85 117 155 195 242 299 350
#
# _framework density 19.536805000000001
#
# number of rings (size 3 to 8) (size 9 to 14) (size 15 to 20)
#    0.000    1.750    2.500    3.000    0.000    2.000 
#    0.000   11.250    0.000    3.750    0.000    0.000 
#    0.000    0.000    0.000    0.000    0.000    0.000 
#
# Total GULP energy -396795.871087 kJ/mol
# GULP energy per Si atom -12399.870971 kJ/mol
# Density = 1.949234 g / cm^3
# Si number density = 19.536805 Si / 1000 Ang^3
#
#
#
# Elastic Constant Matrix: (Units=GPa)
#
#
# Indices 1 2 3 4 5 6 
#
# 1 72.4366 24.7658 20.3602 0.0000 0.0000 0.0000
# 2 24.7658 71.2164 35.7804 0.0000 0.0000 0.0000
# 3 20.3602 35.7804 126.2640 0.0000 0.0000 0.0000
# 4 0.0000 0.0000 0.0000 37.0715 0.0000 0.0000
# 5 0.0000 0.0000 0.0000 0.0000 20.5940 0.0000
# 6 0.0000 0.0000 0.0000 0.0000 0.0000 24.3976
#
#
#
# Elastic Compliance Matrix: (Units=1/GPa)
#
#
# Indices 1 2 3 4 5 6 
#
# 1 0.015811 -0.004918 -0.001156 0.000000 0.000000 0.000000
# 2 -0.004918 0.017902 -0.004280 0.000000 0.000000 0.000000
# 3 -0.001156 -0.004280 0.009319 0.000000 0.000000 0.000000
# 4 0.000000 0.000000 0.000000 0.026975 0.000000 0.000000
# 5 0.000000 0.000000 0.000000 0.000000 0.048558 0.000000
# 6 0.000000 0.000000 0.000000 0.000000 0.000000 0.040988
#
#
# Mechanical properties :
#
#
# Convention : Reuss Voigt Hill
#
# Bulk Modulus (GPa) = 44.79237 47.96998 46.38117
# Shear Modulus (GPa) = 26.63788 29.01335 27.82562
#
# Velocity S-wave (km/s) = 3.69653 3.85783 3.77804
# Velocity P-wave (km/s) = 6.41841 6.66714 6.54396
#
# Compressibility (1/GPa) = 0.02232523
#
# Stress axis : x y z
#
# Youngs Moduli (GPa) = 63.24538 55.85889 107.30517
#
# Poissons Ratio (x) = 0.27470 0.12405
# Poissons Ratio (y) = 0.31102 0.45928
# Poissons Ratio (z) = 0.07311 0.23908
#
# Static dielectric constant tensor:
#      x y z
#    x 3.274750 0.000000 0.000000 
#    y 0.000000 3.619880 0.000000 
#    z 0.000000 0.000000 3.861500 
# 
# 
# High freq. dielectric constant tensor:
#      x y z
#    x 1.738850 0.000000 0.000000 
#    y 0.000000 1.758930 0.000000 
#    z 0.000000 0.000000 1.785140 
# 
# From -- ./inp_files/13277.got.cif
#   From: 2010.03.12/outbox.cif.g09.slc.cpg/sg74_7_cif.got.tgz:13277.got - 2010.04.16 15:46:19.
