data_PCOD8300140
_publ_section_title
;
Structure prediction by ZEFSAII (Michael W. Deem and Ramdas Pophale) SiO2 
 PCOD8300140
Probable space group: I M M A
;
_chemical_formula_sum "Si O2"
_cell_formula_units_Z 80
_cell_length_a 13.214848
_cell_length_b 15.023934
_cell_length_c 18.771231
_cell_angle_alpha 90.000000
_cell_angle_beta 90.000000
_cell_angle_gamma 90.000000
_cell_volume 3726.821510
_symmetry_space_group_name_H-M "I M M A"
_symmetry_group_IT_number 74
_symmetry_cell_setting 'orthorhombic'
loop_
_space_group_symop_operation_xyz
x,y,z
-x,1/2-y,z
x,-y,-z
-x,1/2+y,-z
-x,-y,-z
x,1/2+y,-z
-x,y,z
x,1/2-y,z
1/2+x,1/2+y,1/2+z
1/2-x,-y,1/2+z
1/2+x,1/2-y,1/2-z
1/2-x,y,1/2-z
1/2-x,1/2-y,1/2-z
1/2+x,y,1/2-z
1/2-x,1/2+y,1/2+z
1/2+x,-y,1/2+z
loop_
_atom_site_type_symbol
_atom_site_label
_atom_site_fract_x
_atom_site_fract_y
_atom_site_fract_z
Si Si1 0.110500 0.972246 0.639222
Si Si2 0.383958 0.386357 0.565249
Si Si3 0.714971 0.151783 0.827782
Si Si4 0.177971 0.914981 0.915085
Si Si5 0.635231 0.846160 0.734294
O O1 0.199697 0.923876 0.595050
O O2 0.093842 0.924945 0.715944
O O3 0.000000 0.966024 0.600573
O O4 0.136777 0.076824 0.646187
O O5 0.500000 0.355143 0.574651
O O6 0.314056 0.338775 0.623093
O O7 0.375819 0.491173 0.575923
O O8 0.343004 0.358658 0.486562
O O9 0.663069 0.250000 0.825759
O O10 0.750000 0.121215 0.750000
O O11 0.122105 0.869862 0.848591
O O12 0.581637 0.750000 0.748574
O O13 0.750000 0.833628 0.750000
#
# Coordination Sequence:
#
# PCOD8300140 Si02
#       5
#    16  16  16  16  16
#     4  10  20  35  56  81 114 156 197 236 282 341
#     4  10  20  36  59  84 111 148 192 236 288 345
#     4  10  22  39  57  80 111 147 192 246 298 347
#     4   9  18  34  54  82 117 153 191 236 284 337
#     4   9  18  33  54  81 114 150 187 229 279 335
#
# _framework density 21.466011999999999
#
# number of rings (size 3 to 8) (size 9 to 14) (size 15 to 20)
#    0.000    2.400    0.000    4.200    0.000    6.000 
#    0.000   10.000    0.000    0.000    0.000    0.000 
#    0.000    0.000    0.000    0.000    0.000    0.000 
#
# Total GULP energy -495542.581589 kJ/mol
# GULP energy per Si atom -12388.564540 kJ/mol
# Density = 2.141715 g / cm^3
# Si number density = 21.466012 Si / 1000 Ang^3
#
#
#
# Elastic Constant Matrix: (Units=GPa)
#
#
# Indices 1 2 3 4 5 6 
#
# 1 147.7793 22.9127 28.2873 0.0000 0.0000 0.0000
# 2 22.9127 91.8577 13.6889 0.0000 0.0000 0.0000
# 3 28.2873 13.6889 117.6159 0.0000 0.0000 0.0000
# 4 0.0000 0.0000 0.0000 -22.2640 0.0000 0.0000
# 5 0.0000 0.0000 0.0000 0.0000 3.7854 0.0000
# 6 0.0000 0.0000 0.0000 0.0000 0.0000 116.7798
#
#
#
# Elastic Compliance Matrix: (Units=1/GPa)
#
#
# Indices 1 2 3 4 5 6 
#
# 1 0.007315 -0.001590 -0.001574 0.000000 0.000000 0.000000
# 2 -0.001590 0.011424 -0.000947 0.000000 0.000000 0.000000
# 3 -0.001574 -0.000947 0.008991 0.000000 0.000000 0.000000
# 4 0.000000 0.000000 0.000000 -0.044916 0.000000 0.000000
# 5 0.000000 0.000000 0.000000 0.000000 0.264174 0.000000
# 6 0.000000 0.000000 0.000000 0.000000 0.000000 0.008563
#
#
# Mechanical properties :
#
#
# Convention : Reuss Voigt Hill
#
# Bulk Modulus (GPa) = 51.26307 54.11452 52.68880
# Shear Modulus (GPa) = 18.49954 39.15116 28.82535
#
# Velocity S-wave (km/s) = 2.93884 4.27531 3.66845
# Velocity P-wave (km/s) = 5.95387 7.04522 6.52241
#
# Compressibility (1/GPa) = 0.01950722
#
# Stress axis : x y z
#
# Youngs Moduli (GPa) = 136.71124 87.53378 111.22115
#
# Poissons Ratio (x) = 0.13918 0.17508
# Poissons Ratio (y) = 0.21737 0.10535
# Poissons Ratio (z) = 0.21521 0.08291
#
# Static dielectric constant tensor:
#      x y z
#    x 3.692140 0.000000 0.000000 
#    y 0.000000 4.123570 0.000000 
#    z 0.000000 0.000000 4.360310 
# 
# 
# High freq. dielectric constant tensor:
#      x y z
#    x 1.839550 0.000000 0.000000 
#    y 0.000000 1.840770 0.000000 
#    z 0.000000 0.000000 1.833480 
# 
# From -- ./inp_files/42665.got.cif
#   From: 2010.03.12/outbox.cif.g09.slc.cpg/sg74_22_cif.got.tgz:42665.got - 2010.04.16 15:46:19.
