data_PCOD8300910
_publ_section_title
;
Structure prediction by ZEFSAII (Michael W. Deem and Ramdas Pophale) SiO2 
 PCOD8300910
Probable space group: I M M A
;
_chemical_formula_sum "Si O2"
_cell_formula_units_Z 112
_cell_length_a 14.726119
_cell_length_b 24.109316
_cell_length_c 16.220924
_cell_angle_alpha 90.000000
_cell_angle_beta 90.000000
_cell_angle_gamma 90.000000
_cell_volume 5759.022621
_symmetry_space_group_name_H-M "I M M A"
_symmetry_group_IT_number 74
_symmetry_cell_setting 'orthorhombic'
loop_
_space_group_symop_operation_xyz
x,y,z
-x,1/2-y,z
x,-y,-z
-x,1/2+y,-z
-x,-y,-z
x,1/2+y,-z
-x,y,z
x,1/2-y,z
1/2+x,1/2+y,1/2+z
1/2-x,-y,1/2+z
1/2+x,1/2-y,1/2-z
1/2-x,y,1/2-z
1/2-x,1/2-y,1/2-z
1/2+x,y,1/2-z
1/2-x,1/2+y,1/2+z
1/2+x,-y,1/2+z
loop_
_atom_site_type_symbol
_atom_site_label
_atom_site_fract_x
_atom_site_fract_y
_atom_site_fract_z
Si Si1 0.100839 0.125959 0.893207
Si Si2 0.898014 0.552994 0.547133
Si Si3 0.855726 0.186877 0.734076
Si Si4 0.261614 0.408385 0.345148
Si Si5 0.600029 0.838172 0.051807
Si Si6 0.720276 0.812217 0.528116
Si Si7 0.394884 0.002195 0.596473
O O1 0.091278 0.156115 0.806186
O O2 0.000000 0.122083 0.933272
O O3 0.137703 0.063729 0.876564
O O4 0.164629 0.160550 0.953729
O O5 0.858023 0.500000 0.500000
O O6 0.834506 0.568521 0.623453
O O7 0.897336 0.599141 0.477486
O O8 0.000000 0.542482 0.581311
O O9 0.888814 0.250000 0.731687
O O10 0.750000 0.181885 0.750000
O O11 0.879994 0.158674 0.648323
O O12 0.250000 0.393000 0.250000
O O13 0.288745 0.351568 0.392220
O O14 0.338133 0.455138 0.356605
O O15 0.500000 0.811895 0.035262
O O16 0.675850 0.804060 0.001882
O O17 0.683560 0.750000 0.548318
O O18 0.500000 0.991607 0.618363
O O19 0.376068 0.000000 0.500000
#
# Coordination Sequence:
#
# PCOD8300910 Si02
#       7
#    16  16  16  16  16  16  16
#     4  11  23  38  60  88 120 158 198 243 298 358
#     4   9  20  38  61  88 119 153 196 245 291 350
#     4  11  22  35  53  84 124 158 192 240 289 346
#     4  11  24  39  62  91 121 158 196 248 307 351
#     4  10  21  37  58  83 115 159 199 237 294 351
#     4  11  23  40  61  84 115 157 208 254 293 350
#     4  10  21  40  64  88 116 153 196 240 292 362
#
# _framework density 19.447744
#
# number of rings (size 3 to 8) (size 9 to 14) (size 15 to 20)
#    0.000    1.571    2.857    1.714    2.000    5.429 
#    0.000    2.857    0.000    0.000    0.000    4.000 
#    0.000    0.000    0.000    0.000    0.000    0.000 
#
# Total GULP energy -694393.274279 kJ/mol
# GULP energy per Si atom -12399.879898 kJ/mol
# Density = 1.940348 g / cm^3
# Si number density = 19.447744 Si / 1000 Ang^3
#
#
#
# Elastic Constant Matrix: (Units=GPa)
#
#
# Indices 1 2 3 4 5 6 
#
# 1 87.0707 51.4618 33.7323 0.0001 0.0000 0.0000
# 2 51.4618 122.3933 54.8969 -0.0004 -0.0002 0.0000
# 3 33.7323 54.8969 126.4333 0.0000 -0.0002 0.0000
# 4 0.0001 -0.0004 0.0000 12.6843 0.0000 -0.0001
# 5 0.0000 -0.0002 -0.0002 0.0000 18.0026 0.0000
# 6 0.0000 0.0000 0.0000 -0.0001 0.0000 17.3348
#
#
#
# Elastic Compliance Matrix: (Units=1/GPa)
#
#
# Indices 1 2 3 4 5 6 
#
# 1 0.015548 -0.005808 -0.001626 0.000000 0.000000 0.000000
# 2 -0.005808 0.012316 -0.003798 0.000000 0.000000 0.000000
# 3 -0.001626 -0.003798 0.009992 0.000000 0.000000 0.000000
# 4 0.000000 0.000000 0.000000 0.078837 0.000000 0.000000
# 5 0.000000 0.000000 0.000000 0.000000 0.055548 0.000000
# 6 0.000000 0.000000 0.000000 0.000000 0.000000 0.057687
#
#
# Mechanical properties :
#
#
# Convention : Reuss Voigt Hill
#
# Bulk Modulus (GPa) = 64.97087 68.45326 66.71206
# Shear Modulus (GPa) = 19.41577 22.65810 21.03694
#
# Velocity S-wave (km/s) = 3.16310 3.41702 3.29251
# Velocity P-wave (km/s) = 6.84257 7.13043 6.98798
#
# Compressibility (1/GPa) = 0.01539151
#
# Stress axis : x y z
#
# Youngs Moduli (GPa) = 64.31882 81.19655 100.07697
#
# Poissons Ratio (x) = 0.47156 0.16277
# Poissons Ratio (y) = 0.37354 0.38009
# Poissons Ratio (z) = 0.10461 0.30838
#
# Static dielectric constant tensor:
#      x y z
#    x 3.919210 0.000000 0.000000 
#    y 0.000000 3.669320 0.000000 
#    z 0.000000 0.000000 3.378050 
# 
# 
# High freq. dielectric constant tensor:
#      x y z
#    x 1.770260 0.000000 0.000000 
#    y 0.000000 1.766820 0.000000 
#    z 0.000000 0.000000 1.736270 
# 
# From -- ./inp_files/32737.got.cif
#   From: 2010.03.12/outbox.cif.g09.slc.cpg/sg74_17_cif.got.tgz:32737.got - 2010.04.16 15:46:19.
