data_PCOD8300321
_publ_section_title
;
Structure prediction by ZEFSAII (Michael W. Deem and Ramdas Pophale) SiO2 
 PCOD8300321
Probable space group: I M M A
;
_chemical_formula_sum "Si O2"
_cell_formula_units_Z 96
_cell_length_a 26.793954
_cell_length_b 16.498256
_cell_length_c 10.204050
_cell_angle_alpha 90.000000
_cell_angle_beta 90.000000
_cell_angle_gamma 90.000000
_cell_volume 4510.736143
_symmetry_space_group_name_H-M "I M M A"
_symmetry_group_IT_number 74
_symmetry_cell_setting 'orthorhombic'
loop_
_space_group_symop_operation_xyz
x,y,z
-x,1/2-y,z
x,-y,-z
-x,1/2+y,-z
-x,-y,-z
x,1/2+y,-z
-x,y,z
x,1/2-y,z
1/2+x,1/2+y,1/2+z
1/2-x,-y,1/2+z
1/2+x,1/2-y,1/2-z
1/2-x,y,1/2-z
1/2-x,1/2-y,1/2-z
1/2+x,y,1/2-z
1/2-x,1/2+y,1/2+z
1/2+x,-y,1/2+z
loop_
_atom_site_type_symbol
_atom_site_label
_atom_site_fract_x
_atom_site_fract_y
_atom_site_fract_z
Si Si1 0.119918 0.953911 0.371079
Si Si2 0.554929 0.345169 0.378718
Si Si3 0.199480 0.659481 0.489155
Si Si4 0.347922 0.387807 0.246065
Si Si5 0.898892 0.345407 0.847249
Si Si6 0.806767 0.406057 0.983263
O O1 0.154519 0.880462 0.413039
O O2 0.082260 0.905646 0.271643
O O3 0.095816 0.000000 0.500000
O O4 0.154498 0.017551 0.292865
O O5 0.500000 0.381905 0.347873
O O6 0.551775 0.250000 0.385235
O O7 0.592783 0.369206 0.262092
O O8 0.572522 0.375323 0.522251
O O9 0.208507 0.750000 0.437437
O O10 0.182136 0.664146 0.640216
O O11 0.248509 0.607100 0.458764
O O12 0.320594 0.363922 0.379593
O O13 0.907938 0.250000 0.815275
O O14 0.839779 0.363696 0.869823
O O15 0.819600 0.500000 0.000000
#
# Coordination Sequence:
#
# PCOD8300321 Si02
#       6
#    16  16  16  16  16  16
#     4  10  21  38  54  76 111 155 196 239 293 343
#     4   9  19  36  62  94 119 144 184 239 304 359
#     4  11  23  35  52  81 114 156 203 240 280 345
#     4  10  20  36  58  81 115 155 189 236 294 351
#     4  10  20  36  59  84 115 152 194 246 295 349
#     4  11  20  34  56  82 117 154 194 240 297 346
#
# _framework density 21.282556
#
# number of rings (size 3 to 8) (size 9 to 14) (size 15 to 20)
#    0.000    1.833    1.667    3.500    0.000    3.333 
#    0.000    3.333    0.000    9.000    0.000    9.333 
#    0.000    0.000    0.000    0.000    0.000    0.000 
#
# Total GULP energy -594787.116117 kJ/mol
# GULP energy per Si atom -12391.398252 kJ/mol
# Density = 2.123412 g / cm^3
# Si number density = 21.282556 Si / 1000 Ang^3
#
#
#
# Elastic Constant Matrix: (Units=GPa)
#
#
# Indices 1 2 3 4 5 6 
#
# 1 72.3225 -4.4265 0.3314 0.0000 0.0000 0.0000
# 2 -4.4265 80.2728 11.6648 0.0000 0.0000 0.0000
# 3 0.3314 11.6648 67.0312 0.0000 0.0000 0.0000
# 4 0.0000 0.0000 0.0000 35.1762 0.0000 0.0000
# 5 0.0000 0.0000 0.0000 0.0000 12.7943 0.0000
# 6 0.0000 0.0000 0.0000 0.0000 0.0000 15.0724
#
#
#
# Elastic Compliance Matrix: (Units=1/GPa)
#
#
# Indices 1 2 3 4 5 6 
#
# 1 0.013877 0.000795 -0.000207 0.000000 0.000000 0.000000
# 2 0.000795 0.012826 -0.002236 0.000000 0.000000 0.000000
# 3 -0.000207 -0.002236 0.015309 0.000000 0.000000 0.000000
# 4 0.000000 0.000000 0.000000 0.028428 0.000000 0.000000
# 5 0.000000 0.000000 0.000000 0.000000 0.078160 0.000000
# 6 0.000000 0.000000 0.000000 0.000000 0.000000 0.066347
#
#
# Mechanical properties :
#
#
# Convention : Reuss Voigt Hill
#
# Bulk Modulus (GPa) = 25.82907 26.08509 25.95708
# Shear Modulus (GPa) = 21.63126 26.74570 24.18848
#
# Velocity S-wave (km/s) = 3.19154 3.54884 3.37492
# Velocity P-wave (km/s) = 5.07384 5.39217 5.23542
#
# Compressibility (1/GPa) = 0.03871606
#
# Stress axis : x y z
#
# Youngs Moduli (GPa) = 72.06389 77.96485 65.32298
#
# Poissons Ratio (x) = -0.06200 0.01352
# Poissons Ratio (y) = -0.05731 0.14606
# Poissons Ratio (z) = 0.01492 0.17433
#
# Static dielectric constant tensor:
#      x y z
#    x 3.744650 0.000000 0.000000 
#    y 0.000000 3.770200 0.000000 
#    z 0.000000 0.000000 4.352060 
# 
# 
# High freq. dielectric constant tensor:
#      x y z
#    x 1.793440 0.000000 0.000000 
#    y 0.000000 1.840140 0.000000 
#    z 0.000000 0.000000 1.840490 
# 
# From -- ./inp_files/22689.got.cif
#   From: 2010.03.12/outbox.cif.g09.slc.cpg/sg74_12_cif.got.tgz:22689.got - 2010.04.16 15:46:19.
