data_PCOD8300696
_publ_section_title
;
Structure prediction by ZEFSAII (Michael W. Deem and Ramdas Pophale) SiO2 
 PCOD8300696
Probable space group: I M M A
;
_chemical_formula_sum "Si O2"
_cell_formula_units_Z 96
_cell_length_a 15.483103
_cell_length_b 26.552679
_cell_length_c 13.102637
_cell_angle_alpha 90.000000
_cell_angle_beta 90.000000
_cell_angle_gamma 90.000000
_cell_volume 5386.728135
_symmetry_space_group_name_H-M "I M M A"
_symmetry_group_IT_number 74
_symmetry_cell_setting 'orthorhombic'
loop_
_space_group_symop_operation_xyz
x,y,z
-x,1/2-y,z
x,-y,-z
-x,1/2+y,-z
-x,-y,-z
x,1/2+y,-z
-x,y,z
x,1/2-y,z
1/2+x,1/2+y,1/2+z
1/2-x,-y,1/2+z
1/2+x,1/2-y,1/2-z
1/2-x,y,1/2-z
1/2-x,1/2-y,1/2-z
1/2+x,y,1/2-z
1/2-x,1/2+y,1/2+z
1/2+x,-y,1/2+z
loop_
_atom_site_type_symbol
_atom_site_label
_atom_site_fract_x
_atom_site_fract_y
_atom_site_fract_z
Si Si1 0.333616 0.622383 0.319116
Si Si2 0.249499 0.692687 0.025791
Si Si3 0.599381 0.440525 0.500600
Si Si4 0.098571 0.942620 0.527843
Si Si5 0.246784 0.607218 0.869031
Si Si6 0.593555 0.146636 0.881466
O O1 0.250000 0.608032 0.250000
O O2 0.318580 0.669003 0.395435
O O3 0.364487 0.575824 0.388296
O O4 0.407146 0.639621 0.240628
O O5 0.224355 0.750000 0.002075
O O6 0.342322 0.689869 0.080732
O O7 0.252991 0.662036 0.920616
O O8 0.604160 0.500000 0.500000
O O9 0.500000 0.422085 0.485055
O O10 0.659193 0.419398 0.409114
O O11 0.168512 0.926787 0.611544
O O12 0.116893 0.907937 0.429184
O O13 0.000000 0.935622 0.568316
O O14 0.116301 0.000000 0.500000
O O15 0.250000 0.616934 0.750000
O O16 0.500000 0.164762 0.917221
#
# Coordination Sequence:
#
# PCOD8300696 Si02
#       6
#    16  16  16  16  16  16
#     4   9  18  32  51  73 100 132 165 205 250 304
#     4   9  19  35  51  69  95 126 163 209 258 303
#     4  10  21  35  51  75 108 142 172 205 249 300
#     4   9  18  33  52  76 106 136 168 206 247 294
#     4  10  21  35  53  75 100 134 174 214 252 294
#     4   9  17  29  48  74 100 126 158 200 251 303
#
# _framework density 17.821579
#
# number of rings (size 3 to 8) (size 9 to 14) (size 15 to 20)
#    0.000    2.667    0.000    2.000    0.000    6.333 
#    0.000    3.333    0.000   12.000    0.000    7.000 
#    0.000    0.000    0.000    0.000    0.000    0.000 
#
# Total GULP energy -594933.478871 kJ/mol
# GULP energy per Si atom -12394.447476 kJ/mol
# Density = 1.778102 g / cm^3
# Si number density = 17.821579 Si / 1000 Ang^3
#
#
#
# Elastic Constant Matrix: (Units=GPa)
#
#
# Indices 1 2 3 4 5 6 
#
# 1 90.2646 41.6468 41.3136 -0.0001 0.0000 0.0000
# 2 41.6468 104.8477 37.4302 -0.0001 0.0000 0.0000
# 3 41.3136 37.4302 126.8202 0.0002 0.0000 0.0000
# 4 -0.0001 -0.0001 0.0002 13.0639 0.0000 0.0000
# 5 0.0000 0.0000 0.0000 0.0000 12.8125 0.0000
# 6 0.0000 0.0000 0.0000 0.0000 0.0000 16.1031
#
#
#
# Elastic Compliance Matrix: (Units=1/GPa)
#
#
# Indices 1 2 3 4 5 6 
#
# 1 0.014802 -0.004648 -0.003450 0.000000 0.000000 0.000000
# 2 -0.004648 0.012120 -0.002063 0.000000 0.000000 0.000000
# 3 -0.003450 -0.002063 0.009618 0.000000 0.000000 0.000000
# 4 0.000000 0.000000 0.000000 0.076547 0.000000 0.000000
# 5 0.000000 0.000000 0.000000 0.000000 0.078049 0.000000
# 6 0.000000 0.000000 0.000000 0.000000 0.000000 0.062100
#
#
# Mechanical properties :
#
#
# Convention : Reuss Voigt Hill
#
# Bulk Modulus (GPa) = 61.65951 62.52374 62.09163
# Shear Modulus (GPa) = 17.92341 21.83202 19.87772
#
# Velocity S-wave (km/s) = 3.17474 3.50384 3.34334
# Velocity P-wave (km/s) = 6.93628 7.17834 7.05835
#
# Compressibility (1/GPa) = 0.01621810
#
# Stress axis : x y z
#
# Youngs Moduli (GPa) = 67.55770 82.50576 103.97103
#
# Poissons Ratio (x) = 0.38348 0.35872
# Poissons Ratio (y) = 0.31400 0.21451
# Poissons Ratio (z) = 0.23309 0.17022
#
# Static dielectric constant tensor:
#      x y z
#    x 3.589020 0.000000 0.000000 
#    y 0.000000 3.066620 0.000000 
#    z 0.000000 0.000000 3.263920 
# 
# 
# High freq. dielectric constant tensor:
#      x y z
#    x 1.700160 0.000000 0.000000 
#    y 0.000000 1.673780 0.000000 
#    z 0.000000 0.000000 1.680050 
# 
# From -- ./inp_files/22445.got.cif
#   From: 2010.03.12/outbox.cif.g09.slc.cpg/sg74_12_cif.got.tgz:22445.got - 2010.04.16 15:46:19.
