data_PCOD8300961
_publ_section_title
;
Structure prediction by ZEFSAII (Michael W. Deem and Ramdas Pophale) SiO2 
 PCOD8300961
Probable space group: I M M A
;
_chemical_formula_sum "Si O2"
_cell_formula_units_Z 112
_cell_length_a 15.571475
_cell_length_b 22.490080
_cell_length_c 15.160078
_cell_angle_alpha 90.000000
_cell_angle_beta 90.000000
_cell_angle_gamma 90.000000
_cell_volume 5309.115688
_symmetry_space_group_name_H-M "I M M A"
_symmetry_group_IT_number 74
_symmetry_cell_setting 'orthorhombic'
loop_
_space_group_symop_operation_xyz
x,y,z
-x,1/2-y,z
x,-y,-z
-x,1/2+y,-z
-x,-y,-z
x,1/2+y,-z
-x,y,z
x,1/2-y,z
1/2+x,1/2+y,1/2+z
1/2-x,-y,1/2+z
1/2+x,1/2-y,1/2-z
1/2-x,y,1/2-z
1/2-x,1/2-y,1/2-z
1/2+x,y,1/2-z
1/2-x,1/2+y,1/2+z
1/2+x,-y,1/2+z
loop_
_atom_site_type_symbol
_atom_site_label
_atom_site_fract_x
_atom_site_fract_y
_atom_site_fract_z
Si Si1 0.254964 0.685392 0.146150
Si Si2 0.858050 0.034007 0.838046
Si Si3 0.597809 0.419271 0.233963
Si Si4 0.601677 0.317560 0.359130
Si Si5 0.178108 0.498071 0.398803
Si Si6 0.095502 0.602527 0.330188
Si Si7 0.401960 0.868947 0.453871
O O1 0.272416 0.750000 0.104647
O O2 0.250000 0.689780 0.250000
O O3 0.336871 0.645268 0.120758
O O4 0.163943 0.663271 0.110805
O O5 0.755788 0.026013 0.842824
O O6 0.879025 0.087301 0.770100
O O7 0.894747 0.059747 0.931764
O O8 0.900051 0.971987 0.807675
O O9 0.500000 0.409957 0.204269
O O10 0.634368 0.358184 0.277131
O O11 0.654371 0.434516 0.146325
O O12 0.500000 0.313608 0.355073
O O13 0.640055 0.250000 0.355524
O O14 0.628752 0.353090 0.447398
O O15 0.205049 0.500000 0.500000
O O16 0.095939 0.540486 0.384564
O O17 0.000000 0.630237 0.333951
O O18 0.500000 0.846691 0.438858
#
# Coordination Sequence:
#
# PCOD8300961 Si02
#       7
#    16  16  16  16  16  16  16
#     4  11  22  35  53  83 120 162 213 257 305 370
#     4  11  21  36  56  88 120 157 200 256 319 379
#     4  10  21  37  61  90 122 162 207 257 319 387
#     4   9  20  38  60  90 127 165 207 258 315 384
#     4  11  23  38  61  90 122 157 203 263 322 384
#     4  11  21  39  60  81 121 166 207 256 313 373
#     4  11  21  36  60  89 127 169 212 262 325 389
#
# _framework density 21.095791999999999
#
# number of rings (size 3 to 8) (size 9 to 14) (size 15 to 20)
#    0.000    1.429    2.857    4.714    2.000    2.286 
#    0.000    3.571    0.000    2.571    0.000    2.000 
#    0.000    0.000    0.000    0.000    0.000    0.000 
#
# Total GULP energy -693831.238241 kJ/mol
# GULP energy per Si atom -12389.843540 kJ/mol
# Density = 2.104778 g / cm^3
# Si number density = 21.095792 Si / 1000 Ang^3
#
#
#
# Elastic Constant Matrix: (Units=GPa)
#
#
# Indices 1 2 3 4 5 6 
#
# 1 121.8846 22.1481 31.3100 0.0000 0.0000 0.0000
# 2 22.1481 94.1842 36.6386 0.0000 0.0000 0.0000
# 3 31.3100 36.6386 90.8523 -0.0002 0.0000 0.0000
# 4 0.0000 0.0000 -0.0002 16.9897 0.0000 0.0000
# 5 0.0000 0.0000 0.0000 0.0000 17.6345 0.0000
# 6 0.0000 0.0000 0.0000 0.0000 0.0000 20.4682
#
#
#
# Elastic Compliance Matrix: (Units=1/GPa)
#
#
# Indices 1 2 3 4 5 6 
#
# 1 0.009095 -0.001091 -0.002695 0.000000 0.000000 0.000000
# 2 -0.001091 0.012724 -0.004755 0.000000 0.000000 0.000000
# 3 -0.002695 -0.004755 0.013853 0.000000 0.000000 0.000000
# 4 0.000000 0.000000 0.000000 0.058859 0.000000 0.000000
# 5 0.000000 0.000000 0.000000 0.000000 0.056707 0.000000
# 6 0.000000 0.000000 0.000000 0.000000 0.000000 0.048856
#
#
# Mechanical properties :
#
#
# Convention : Reuss Voigt Hill
#
# Bulk Modulus (GPa) = 53.78953 54.12385 53.95669
# Shear Modulus (GPa) = 22.38415 25.47343 23.92879
#
# Velocity S-wave (km/s) = 3.26094 3.47870 3.37158
# Velocity P-wave (km/s) = 6.30329 6.46893 6.38665
#
# Compressibility (1/GPa) = 0.01859098
#
# Stress axis : x y z
#
# Youngs Moduli (GPa) = 109.95271 78.59264 72.18531
#
# Poissons Ratio (x) = 0.08571 0.19451
# Poissons Ratio (y) = 0.11991 0.34327
# Poissons Ratio (z) = 0.29627 0.37374
#
# Static dielectric constant tensor:
#      x y z
#    x 3.666700 0.000000 0.000000 
#    y 0.000000 4.211410 0.000000 
#    z 0.000000 0.000000 3.692480 
# 
# 
# High freq. dielectric constant tensor:
#      x y z
#    x 1.819560 0.000000 0.000000 
#    y 0.000000 1.816010 0.000000 
#    z 0.000000 0.000000 1.803130 
# 
# From -- ./inp_files/32730.got.cif
#   From: 2010.03.12/outbox.cif.g09.slc.cpg/sg74_17_cif.got.tgz:32730.got - 2010.04.16 15:46:19.
