data_PCOD8300126
_publ_section_title
;
Structure prediction by ZEFSAII (Michael W. Deem and Ramdas Pophale) SiO2 
 PCOD8300126
Probable space group: I M M A
;
_chemical_formula_sum "Si O2"
_cell_formula_units_Z 96
_cell_length_a 23.871317
_cell_length_b 10.180313
_cell_length_c 19.771215
_cell_angle_alpha 90.000000
_cell_angle_beta 90.000000
_cell_angle_gamma 90.000000
_cell_volume 4804.750822
_symmetry_space_group_name_H-M "I M M A"
_symmetry_group_IT_number 74
_symmetry_cell_setting 'orthorhombic'
loop_
_space_group_symop_operation_xyz
x,y,z
-x,1/2-y,z
x,-y,-z
-x,1/2+y,-z
-x,-y,-z
x,1/2+y,-z
-x,y,z
x,1/2-y,z
1/2+x,1/2+y,1/2+z
1/2-x,-y,1/2+z
1/2+x,1/2-y,1/2-z
1/2-x,y,1/2-z
1/2-x,1/2-y,1/2-z
1/2+x,y,1/2-z
1/2-x,1/2+y,1/2+z
1/2+x,-y,1/2+z
loop_
_atom_site_type_symbol
_atom_site_label
_atom_site_fract_x
_atom_site_fract_y
_atom_site_fract_z
Si Si1 0.318981 0.104235 0.439812
Si Si2 0.063609 0.102898 0.790861
Si Si3 0.760521 0.901475 0.676991
Si Si4 0.387074 0.900681 0.810410
Si Si5 0.935068 0.894270 0.550294
Si Si6 0.560618 0.543315 0.576958
O O1 0.297222 0.250000 0.461829
O O2 0.279786 0.040614 0.381269
O O3 0.316580 0.000000 0.500000
O O4 0.382913 0.127575 0.413428
O O5 0.086045 0.250000 0.776471
O O6 0.066366 0.079310 0.871559
O O7 0.000000 0.088717 0.764682
O O8 0.101617 0.996578 0.752180
O O9 0.743037 0.750000 0.682989
O O10 0.750000 0.969745 0.750000
O O11 0.825296 0.921558 0.658699
O O12 0.395362 0.750000 0.785456
O O13 0.428320 0.936953 0.871820
O O14 0.907228 0.750000 0.539072
O O15 0.000000 0.885123 0.532731
O O16 0.906289 0.000000 0.500000
O O17 0.558407 0.500000 0.500000
O O18 0.500000 0.614996 0.592693
#
# Coordination Sequence:
#
# PCOD8300126 Si02
#       6
#    16  16  16  16  16  16
#     4  10  21  37  57  81 110 143 180 226 277 327
#     4  10  21  36  55  82 115 146 178 224 279 328
#     4   9  18  34  55  77 103 139 181 221 263 314
#     4  10  20  35  56  80 107 143 186 226 267 324
#     4   9  18  32  50  74 104 136 171 213 259 308
#     4   9  19  35  55  78 106 142 180 217 264 325
#
# _framework density 19.980224
#
# number of rings (size 3 to 8) (size 9 to 14) (size 15 to 20)
#    0.000    2.500    0.000    1.500    0.000    7.333 
#    0.000    7.500    0.000    2.000    0.000    0.000 
#    0.000    0.000    0.000    0.000    0.000    0.000 
#
# Total GULP energy -594643.738636 kJ/mol
# GULP energy per Si atom -12388.411222 kJ/mol
# Density = 1.993475 g / cm^3
# Si number density = 19.980224 Si / 1000 Ang^3
#
#
#
# Elastic Constant Matrix: (Units=GPa)
#
#
# Indices 1 2 3 4 5 6 
#
# 1 88.9446 34.0526 46.6997 0.0000 0.0000 0.0000
# 2 34.0526 103.8123 69.2335 0.0000 0.0000 0.0000
# 3 46.6997 69.2335 124.6804 0.0000 0.0000 0.0000
# 4 0.0000 0.0000 0.0000 25.5499 0.0000 0.0000
# 5 0.0000 0.0000 0.0000 0.0000 29.5533 0.0000
# 6 0.0000 0.0000 0.0000 0.0000 0.0000 16.3063
#
#
#
# Elastic Compliance Matrix: (Units=1/GPa)
#
#
# Indices 1 2 3 4 5 6 
#
# 1 0.014196 -0.001764 -0.004338 0.000000 0.000000 0.000000
# 2 -0.001764 0.015517 -0.007956 0.000000 0.000000 0.000000
# 3 -0.004338 -0.007956 0.014063 0.000000 0.000000 0.000000
# 4 0.000000 0.000000 0.000000 0.039139 0.000000 0.000000
# 5 0.000000 0.000000 0.000000 0.000000 0.033837 0.000000
# 6 0.000000 0.000000 0.000000 0.000000 0.000000 0.061326
#
#
# Mechanical properties :
#
#
# Convention : Reuss Voigt Hill
#
# Bulk Modulus (GPa) = 63.85151 68.60100 66.22625
# Shear Modulus (GPa) = 23.65038 25.44532 24.54785
#
# Velocity S-wave (km/s) = 3.44421 3.57252 3.50895
# Velocity P-wave (km/s) = 6.91690 7.17121 7.04520
#
# Compressibility (1/GPa) = 0.01566134
#
# Stress axis : x y z
#
# Youngs Moduli (GPa) = 70.44412 64.44484 71.10827
#
# Poissons Ratio (x) = 0.11365 0.30845
# Poissons Ratio (y) = 0.12423 0.56573
# Poissons Ratio (z) = 0.30557 0.51272
#
# Static dielectric constant tensor:
#      x y z
#    x 3.843160 0.000000 0.000000 
#    y 0.000000 3.459750 0.000000 
#    z 0.000000 0.000000 3.626290 
# 
# 
# High freq. dielectric constant tensor:
#      x y z
#    x 1.778620 0.000000 0.000000 
#    y 0.000000 1.747340 0.000000 
#    z 0.000000 0.000000 1.779580 
# 
# From -- ./inp_files/55033.got.cif
#   From: 2010.03.12/outbox.cif.g09.slc.cpg/sg74_28_cif.got.tgz:55033.got - 2010.04.16 15:46:19.
