data_PCOD8300809
_publ_section_title
;
Structure prediction by ZEFSAII (Michael W. Deem and Ramdas Pophale) SiO2 
 PCOD8300809
Probable space group: I M M A
;
_chemical_formula_sum "Si O2"
_cell_formula_units_Z 96
_cell_length_a 22.322529
_cell_length_b 14.167560
_cell_length_c 15.315988
_cell_angle_alpha 90.000000
_cell_angle_beta 90.000000
_cell_angle_gamma 90.000000
_cell_volume 4843.769562
_symmetry_space_group_name_H-M "I M M A"
_symmetry_group_IT_number 74
_symmetry_cell_setting 'orthorhombic'
loop_
_space_group_symop_operation_xyz
x,y,z
-x,1/2-y,z
x,-y,-z
-x,1/2+y,-z
-x,-y,-z
x,1/2+y,-z
-x,y,z
x,1/2-y,z
1/2+x,1/2+y,1/2+z
1/2-x,-y,1/2+z
1/2+x,1/2-y,1/2-z
1/2-x,y,1/2-z
1/2-x,1/2-y,1/2-z
1/2+x,y,1/2-z
1/2-x,1/2+y,1/2+z
1/2+x,-y,1/2+z
loop_
_atom_site_type_symbol
_atom_site_label
_atom_site_fract_x
_atom_site_fract_y
_atom_site_fract_z
Si Si1 0.500000 0.355095 0.867202
Si Si2 0.381769 0.042051 0.622125
Si Si3 0.500000 0.635579 0.328124
Si Si4 0.187737 0.035630 0.707829
Si Si5 0.835411 0.139230 0.037572
Si Si6 0.124242 0.099476 0.543615
Si Si7 0.204706 0.648391 0.607146
O O1 0.500000 0.250000 0.834250
O O2 0.500000 0.406171 0.772295
O O3 0.558478 0.369913 0.926517
O O4 0.446214 0.089801 0.617315
O O5 0.363623 0.049437 0.722232
O O6 0.338475 0.107788 0.563328
O O7 0.379745 0.931775 0.591091
O O8 0.500000 0.750000 0.335691
O O9 0.250000 0.068701 0.750000
O O10 0.170465 0.099190 0.624757
O O11 0.187844 0.925711 0.681376
O O12 0.852727 0.250000 0.050720
O O13 0.767831 0.117296 0.066347
O O14 0.154668 0.162277 0.468671
O O15 0.115647 0.000000 0.500000
O O16 0.210238 0.750000 0.653754
#
# Coordination Sequence:
#
# PCOD8300809 Si02
#       7
#     8  16   8  16  16  16  16
#     4  11  21  37  58  81 113 154 201 246 297 358
#     4  11  22  40  63  88 120 157 203 249 302 350
#     4  11  24  42  63  89 120 158 204 253 299 357
#     4  11  20  34  59  87 115 155 195 242 302 365
#     4  10  22  39  63  92 123 158 200 249 307 368
#     4  10  21  36  58  83 116 154 199 248 292 360
#     4  10  21  36  56  88 125 157 195 247 300 360
#
# _framework density 19.819274
#
# number of rings (size 3 to 8) (size 9 to 14) (size 15 to 20)
#    0.000    1.500    3.333    2.250    4.667    2.333 
#    0.000    1.250    0.000    4.000    0.000    0.000 
#    0.000    0.000    0.000    0.000    0.000    0.000 
#
# Total GULP energy -594806.796373 kJ/mol
# GULP energy per Si atom -12391.808258 kJ/mol
# Density = 1.977416 g / cm^3
# Si number density = 19.819274 Si / 1000 Ang^3
#
#
#
# Elastic Constant Matrix: (Units=GPa)
#
#
# Indices 1 2 3 4 5 6 
#
# 1 110.3260 31.9545 19.2276 0.0000 0.0000 0.0000
# 2 31.9545 85.4771 10.8485 0.0000 0.0000 0.0000
# 3 19.2276 10.8485 51.5153 0.0000 0.0000 0.0000
# 4 0.0000 0.0000 0.0000 66.2803 0.0000 0.0000
# 5 0.0000 0.0000 0.0000 0.0000 117.3752 0.0000
# 6 0.0000 0.0000 0.0000 0.0000 0.0000 25.5698
#
#
#
# Elastic Compliance Matrix: (Units=1/GPa)
#
#
# Indices 1 2 3 4 5 6 
#
# 1 0.010662 -0.003576 -0.003226 0.000000 0.000000 0.000000
# 2 -0.003576 0.013220 -0.001449 0.000000 0.000000 0.000000
# 3 -0.003226 -0.001449 0.020921 0.000000 0.000000 0.000000
# 4 0.000000 0.000000 0.000000 0.015087 0.000000 0.000000
# 5 0.000000 0.000000 0.000000 0.000000 0.008520 0.000000
# 6 0.000000 0.000000 0.000000 0.000000 0.000000 0.039109
#
#
# Mechanical properties :
#
#
# Convention : Reuss Voigt Hill
#
# Bulk Modulus (GPa) = 35.33646 41.26439 38.30042
# Shear Modulus (GPa) = 37.46550 54.19758 45.83154
#
# Velocity S-wave (km/s) = 4.35254 5.23500 4.81403
# Velocity P-wave (km/s) = 6.56715 7.57667 7.08990
#
# Compressibility (1/GPa) = 0.02829939
#
# Stress axis : x y z
#
# Youngs Moduli (GPa) = 93.78915 75.64320 47.79863
#
# Poissons Ratio (x) = 0.27053 0.15422
# Poissons Ratio (y) = 0.33543 0.06926
# Poissons Ratio (z) = 0.30260 0.10961
#
# Static dielectric constant tensor:
#      x y z
#    x 3.531380 0.000000 0.000000 
#    y 0.000000 3.668230 0.000000 
#    z 0.000000 0.000000 3.758700 
# 
# 
# High freq. dielectric constant tensor:
#      x y z
#    x 1.767080 0.000000 0.000000 
#    y 0.000000 1.769350 0.000000 
#    z 0.000000 0.000000 1.781620 
# 
# From -- ./inp_files/35309.got.cif
#   From: 2010.03.12/outbox.cif.g09.slc.cpg/sg74_18_cif.got.tgz:35309.got - 2010.04.16 15:46:19.
