data_PCOD8300714
_publ_section_title
;
Structure prediction by ZEFSAII (Michael W. Deem and Ramdas Pophale) SiO2 
 PCOD8300714
Probable space group: I M M A
;
_chemical_formula_sum "Si O2"
_cell_formula_units_Z 96
_cell_length_a 23.027020
_cell_length_b 9.228378
_cell_length_c 23.151882
_cell_angle_alpha 90.000000
_cell_angle_beta 90.000000
_cell_angle_gamma 90.000000
_cell_volume 4919.822265
_symmetry_space_group_name_H-M "I M M A"
_symmetry_group_IT_number 74
_symmetry_cell_setting 'orthorhombic'
loop_
_space_group_symop_operation_xyz
x,y,z
-x,1/2-y,z
x,-y,-z
-x,1/2+y,-z
-x,-y,-z
x,1/2+y,-z
-x,y,z
x,1/2-y,z
1/2+x,1/2+y,1/2+z
1/2-x,-y,1/2+z
1/2+x,1/2-y,1/2-z
1/2-x,y,1/2-z
1/2-x,1/2-y,1/2-z
1/2+x,y,1/2-z
1/2-x,1/2+y,1/2+z
1/2+x,-y,1/2+z
loop_
_atom_site_type_symbol
_atom_site_label
_atom_site_fract_x
_atom_site_fract_y
_atom_site_fract_z
Si Si1 0.269652 0.079933 0.440954
Si Si2 0.000000 0.087061 0.881908
Si Si3 0.500000 0.588957 0.244790
Si Si4 0.390171 0.085395 0.247970
Si Si5 0.158931 0.084204 0.369071
Si Si6 0.933348 0.418928 0.559088
Si Si7 0.885719 0.579344 0.878444
O O1 0.270057 0.250000 0.452872
O O2 0.221003 0.036750 0.394130
O O3 0.331528 0.027534 0.416639
O O4 0.254858 0.000000 0.500000
O O5 0.000000 0.090784 0.813503
O O6 0.000000 0.250000 0.907622
O O7 0.057644 0.003054 0.902826
O O8 0.500000 0.750000 0.218344
O O9 0.557035 0.508424 0.222865
O O10 0.412336 0.250000 0.251702
O O11 0.338398 0.068770 0.201054
O O12 0.370878 0.035598 0.312008
O O13 0.144763 0.250000 0.386418
O O14 0.108119 0.981647 0.391897
O O15 0.918476 0.500000 0.500000
O O16 0.920403 0.250000 0.550068
O O17 0.000000 0.445885 0.577805
O O18 0.896816 0.750000 0.884155
#
# Coordination Sequence:
#
# PCOD8300714 Si02
#       7
#    16   8   8  16  16  16  16
#     4  10  22  39  58  80 106 141 183 227 273 324
#     4   9  17  31  54  84 113 140 171 212 263 318
#     4   9  17  29  47  74 111 146 177 214 259 314
#     4   9  18  32  52  79 109 144 180 219 266 321
#     4  10  21  35  53  79 109 142 181 224 271 321
#     4  10  21  36  53  74 102 140 186 233 278 318
#     4   9  18  35  58  82 111 144 179 218 266 323
#
# _framework density 19.512899999999998
#
# number of rings (size 3 to 8) (size 9 to 14) (size 15 to 20)
#    0.000    2.500    0.000    1.500    1.167    7.000 
#    0.000    3.750    0.000    0.000    0.000    7.000 
#    0.000    0.000    0.000    0.000    0.000    0.000 
#
# Total GULP energy -595159.613159 kJ/mol
# GULP energy per Si atom -12399.158607 kJ/mol
# Density = 1.946849 g / cm^3
# Si number density = 19.512900 Si / 1000 Ang^3
#
#
#
# Elastic Constant Matrix: (Units=GPa)
#
#
# Indices 1 2 3 4 5 6 
#
# 1 95.4056 36.2005 25.0918 0.0000 0.0000 0.0000
# 2 36.2005 71.4480 19.5823 0.0000 0.0000 0.0000
# 3 25.0918 19.5823 46.8255 0.0000 0.0000 0.0000
# 4 0.0000 0.0000 0.0000 22.7983 0.0000 0.0000
# 5 0.0000 0.0000 0.0000 0.0000 33.3437 0.0000
# 6 0.0000 0.0000 0.0000 0.0000 0.0000 22.6032
#
#
#
# Elastic Compliance Matrix: (Units=1/GPa)
#
#
# Indices 1 2 3 4 5 6 
#
# 1 0.013983 -0.005683 -0.005117 0.000000 0.000000 0.000000
# 2 -0.005683 0.018117 -0.004532 0.000000 0.000000 0.000000
# 3 -0.005117 -0.004532 0.025993 0.000000 0.000000 0.000000
# 4 0.000000 0.000000 0.000000 0.043863 0.000000 0.000000
# 5 0.000000 0.000000 0.000000 0.000000 0.029991 0.000000
# 6 0.000000 0.000000 0.000000 0.000000 0.000000 0.044242
#
#
# Mechanical properties :
#
#
# Convention : Reuss Voigt Hill
#
# Bulk Modulus (GPa) = 36.45392 41.71427 39.08410
# Shear Modulus (GPa) = 23.14873 24.60267 23.87570
#
# Velocity S-wave (km/s) = 3.44805 3.55468 3.50177
# Velocity P-wave (km/s) = 5.88002 6.18643 6.03517
#
# Compressibility (1/GPa) = 0.02743189
#
# Stress axis : x y z
#
# Youngs Moduli (GPa) = 71.51308 55.19552 38.47218
#
# Poissons Ratio (x) = 0.31365 0.19685
# Poissons Ratio (y) = 0.40638 0.17434
# Poissons Ratio (z) = 0.36591 0.25012
#
# Static dielectric constant tensor:
#      x y z
#    x 3.545120 0.000000 0.000000 
#    y 0.000000 3.578620 0.000000 
#    z 0.000000 0.000000 3.437180 
# 
# 
# High freq. dielectric constant tensor:
#      x y z
#    x 1.752380 0.000000 0.000000 
#    y 0.000000 1.754990 0.000000 
#    z 0.000000 0.000000 1.752320 
# 
# From -- ./inp_files/61938.got.cif
#   From: 2010.03.12/outbox.cif.g09.slc.cpg/sg74_31_cif.got.tgz:61938.got - 2010.04.16 15:46:19.
