data_PCOD8300993
_publ_section_title
;
Structure prediction by ZEFSAII (Michael W. Deem and Ramdas Pophale) SiO2 
 PCOD8300993
Probable space group: I M M A
;
_chemical_formula_sum "Si O2"
_cell_formula_units_Z 88
_cell_length_a 29.196265
_cell_length_b 26.640287
_cell_length_c 5.229683
_cell_angle_alpha 90.000000
_cell_angle_beta 90.000000
_cell_angle_gamma 90.000000
_cell_volume 4067.631115
_symmetry_space_group_name_H-M "I M M A"
_symmetry_group_IT_number 74
_symmetry_cell_setting 'orthorhombic'
loop_
_space_group_symop_operation_xyz
x,y,z
-x,1/2-y,z
x,-y,-z
-x,1/2+y,-z
-x,-y,-z
x,1/2+y,-z
-x,y,z
x,1/2-y,z
1/2+x,1/2+y,1/2+z
1/2-x,-y,1/2+z
1/2+x,1/2-y,1/2-z
1/2-x,y,1/2-z
1/2-x,1/2-y,1/2-z
1/2+x,y,1/2-z
1/2-x,1/2+y,1/2+z
1/2+x,-y,1/2+z
loop_
_atom_site_type_symbol
_atom_site_label
_atom_site_fract_x
_atom_site_fract_y
_atom_site_fract_z
Si Si1 0.896194 0.804571 0.266812
Si Si2 0.948712 0.828071 0.781904
Si Si3 0.448015 0.935433 0.871507
Si Si4 0.275991 0.940543 0.999271
Si Si5 0.366510 0.590018 0.212669
Si Si6 0.605249 0.000000 0.500000
O O1 0.870769 0.750000 0.259931
O O2 0.916807 0.810602 0.549330
O O3 0.862406 0.851583 0.199846
O O4 0.934826 0.802956 0.048403
O O5 0.946331 0.888415 0.823718
O O6 0.000000 0.810909 0.714572
O O7 0.500000 0.946533 0.961291
O O8 0.427262 0.985177 0.738623
O O9 0.417889 0.918998 0.113098
O O10 0.250000 0.919664 0.750000
O O11 0.250000 0.920069 0.250000
O O12 0.327761 0.919513 0.999173
O O13 0.277969 0.000000 0.000000
O O14 0.361313 0.547500 0.435401
#
# Coordination Sequence:
#
# PCOD8300993 Si02
#       6
#    16  16  16  16  16   8
#     4  11  23  40  61  86 119 165 214 265 321 375
#     4  10  21  38  58  85 119 162 218 274 318 362
#     4  10  22  37  56  86 128 171 213 256 308 379
#     4  10  23  40  66  95 126 161 199 253 321 384
#     4  11  25  40  62  91 129 165 215 262 324 378
#     4  12  21  36  62  88 122 176 212 260 309 386
#
# _framework density 21.634214
#
# number of rings (size 3 to 8) (size 9 to 14) (size 15 to 20)
#    0.000    1.455    1.818    3.000    6.364    5.091 
#    0.000    0.000    0.000    1.091    0.000    0.000 
#    0.000    0.000    0.000    0.000    0.000    0.182 
#
# Total GULP energy -545427.019497 kJ/mol
# GULP energy per Si atom -12396.068625 kJ/mol
# Density = 2.158497 g / cm^3
# Si number density = 21.634214 Si / 1000 Ang^3
#
#
#
# Elastic Constant Matrix: (Units=GPa)
#
#
# Indices 1 2 3 4 5 6 
#
# 1 90.8043 37.5015 26.9017 0.0000 0.0000 0.0000
# 2 37.5015 160.0949 33.6222 0.0000 0.0000 0.0000
# 3 26.9017 33.6222 93.0675 0.0000 0.0000 0.0000
# 4 0.0000 0.0000 0.0000 16.5696 0.0000 0.0000
# 5 0.0000 0.0000 0.0000 0.0000 26.6399 0.0000
# 6 0.0000 0.0000 0.0000 0.0000 0.0000 1.6094
#
#
#
# Elastic Compliance Matrix: (Units=1/GPa)
#
#
# Indices 1 2 3 4 5 6 
#
# 1 0.012852 -0.002413 -0.002843 0.000000 0.000000 0.000000
# 2 -0.002413 0.007212 -0.001908 0.000000 0.000000 0.000000
# 3 -0.002843 -0.001908 0.012256 0.000000 0.000000 0.000000
# 4 0.000000 0.000000 0.000000 0.060351 0.000000 0.000000
# 5 0.000000 0.000000 0.000000 0.000000 0.037538 0.000000
# 6 0.000000 0.000000 0.000000 0.000000 0.000000 0.621341
#
#
# Mechanical properties :
#
#
# Convention : Reuss Voigt Hill
#
# Bulk Modulus (GPa) = 55.58244 60.00194 57.79219
# Shear Modulus (GPa) = 6.47772 25.35986 15.91879
#
# Velocity S-wave (km/s) = 1.73225 3.42747 2.71553
# Velocity P-wave (km/s) = 5.45423 6.59230 6.05008
#
# Compressibility (1/GPa) = 0.01799129
#
# Stress axis : x y z
#
# Youngs Moduli (GPa) = 77.81090 138.65162 81.59296
#
# Poissons Ratio (x) = 0.33462 0.23197
# Poissons Ratio (y) = 0.18779 0.15568
# Poissons Ratio (z) = 0.22121 0.26454
#
# Static dielectric constant tensor:
#      x y z
#    x 3.629950 0.000000 0.000000 
#    y 0.000000 4.414480 0.000000 
#    z 0.000000 0.000000 3.788230 
# 
# 
# High freq. dielectric constant tensor:
#      x y z
#    x 1.808570 0.000000 0.000000 
#    y 0.000000 1.851780 0.000000 
#    z 0.000000 0.000000 1.851020 
# 
# From -- ./inp_files/5220.got.cif
#   From: 2010.03.12/outbox.cif.g09.slc.cpg/sg74_3_cif.got.tgz:5220.got - 2010.04.16 15:46:19.
