data_PCOD8300068
_publ_section_title
;
Structure prediction by ZEFSAII (Michael W. Deem and Ramdas Pophale) SiO2 
 PCOD8300068
Probable space group: I M M A
;
_chemical_formula_sum "Si O2"
_cell_formula_units_Z 96
_cell_length_a 9.665732
_cell_length_b 26.420808
_cell_length_c 18.872443
_cell_angle_alpha 90.000000
_cell_angle_beta 90.000000
_cell_angle_gamma 90.000000
_cell_volume 4819.577484
_symmetry_space_group_name_H-M "I M M A"
_symmetry_group_IT_number 74
_symmetry_cell_setting 'orthorhombic'
loop_
_space_group_symop_operation_xyz
x,y,z
-x,1/2-y,z
x,-y,-z
-x,1/2+y,-z
-x,-y,-z
x,1/2+y,-z
-x,y,z
x,1/2-y,z
1/2+x,1/2+y,1/2+z
1/2-x,-y,1/2+z
1/2+x,1/2-y,1/2-z
1/2-x,y,1/2-z
1/2-x,1/2-y,1/2-z
1/2+x,y,1/2-z
1/2-x,1/2+y,1/2+z
1/2+x,-y,1/2+z
loop_
_atom_site_type_symbol
_atom_site_label
_atom_site_fract_x
_atom_site_fract_y
_atom_site_fract_z
Si Si1 0.345004 0.690299 0.037574
Si Si2 0.845910 0.456765 0.689142
Si Si3 0.660110 0.192104 0.407722
Si Si4 0.341398 0.402445 0.317844
Si Si5 0.657324 0.504203 0.583254
Si Si6 0.347045 0.338937 0.810284
O O1 0.500000 0.668344 0.025706
O O2 0.348540 0.750000 0.039408
O O3 0.283052 0.670701 0.112066
O O4 0.246664 0.671861 0.974642
O O5 0.750000 0.482548 0.750000
O O6 0.767666 0.465016 0.615193
O O7 0.860706 0.397997 0.704440
O O8 0.000000 0.481443 0.689206
O O9 0.500000 0.188192 0.429364
O O10 0.699367 0.250000 0.386546
O O11 0.694157 0.154836 0.342630
O O12 0.500000 0.406141 0.293821
O O13 0.250000 0.416551 0.250000
O O14 0.311936 0.440229 0.383939
O O15 0.681896 0.500000 0.500000
O O16 0.500000 0.487835 0.601875
O O17 0.500000 0.313843 0.806012
O O18 0.250000 0.314025 0.750000
#
# Coordination Sequence:
#
# PCOD8300068 Si02
#       6
#    16  16  16  16  16  16
#     4   9  18  33  52  75 106 141 177 222 273 323
#     4  10  20  35  54  76 105 141 180 222 267 317
#     4   9  19  36  57  82 110 140 178 223 271 326
#     4  10  22  39  58  83 113 145 180 222 272 322
#     4  10  22  38  56  81 111 144 181 222 269 320
#     4   9  19  33  49  74 105 139 180 224 270 320
#
# _framework density 19.918759000000001
#
# number of rings (size 3 to 8) (size 9 to 14) (size 15 to 20)
#    0.000    2.500    0.000    1.000    2.333    5.000 
#    0.000    0.000    0.000    0.000    0.000    0.000 
#    0.000    0.000    0.000    0.000    0.000    0.000 
#
# Total GULP energy -595062.607547 kJ/mol
# GULP energy per Si atom -12397.137657 kJ/mol
# Density = 1.987342 g / cm^3
# Si number density = 19.918759 Si / 1000 Ang^3
#
#
#
# Elastic Constant Matrix: (Units=GPa)
#
#
# Indices 1 2 3 4 5 6 
#
# 1 105.7795 17.7150 74.1631 0.0001 0.0000 0.0000
# 2 17.7150 35.8508 34.7707 0.0001 -0.0001 0.0000
# 3 74.1631 34.7707 136.2730 0.0004 -0.0002 0.0000
# 4 0.0001 0.0001 0.0004 29.1426 -0.0001 0.0000
# 5 0.0000 -0.0001 -0.0002 -0.0001 38.1745 0.0000
# 6 0.0000 0.0000 0.0000 0.0000 0.0000 17.7070
#
#
#
# Elastic Compliance Matrix: (Units=1/GPa)
#
#
# Indices 1 2 3 4 5 6 
#
# 1 0.015299 0.000685 -0.008501 0.000000 0.000000 0.000000
# 2 0.000685 0.037097 -0.009838 0.000000 0.000000 0.000000
# 3 -0.008501 -0.009838 0.014475 0.000000 0.000000 0.000000
# 4 0.000000 0.000000 0.000000 0.034314 0.000000 0.000000
# 5 0.000000 0.000000 0.000000 0.000000 0.026196 0.000000
# 6 0.000000 0.000000 0.000000 0.000000 0.000000 0.056475
#
#
# Mechanical properties :
#
#
# Convention : Reuss Voigt Hill
#
# Bulk Modulus (GPa) = 31.68324 59.02232 45.35278
# Shear Modulus (GPa) = 21.76907 27.08845 24.42876
#
# Velocity S-wave (km/s) = 3.30948 3.69175 3.50583
# Velocity P-wave (km/s) = 5.52669 6.91866 6.26148
#
# Compressibility (1/GPa) = 0.03156243
#
# Stress axis : x y z
#
# Youngs Moduli (GPa) = 65.36405 26.95659 69.08538
#
# Poissons Ratio (x) = -0.01847 0.58728
# Poissons Ratio (y) = -0.04478 0.67968
# Poissons Ratio (z) = 0.55565 0.26520
#
# Static dielectric constant tensor:
#      x y z
#    x 3.984010 0.000000 0.000000 
#    y 0.000000 3.478220 0.000000 
#    z 0.000000 0.000000 3.578480 
# 
# 
# High freq. dielectric constant tensor:
#      x y z
#    x 1.778700 0.000000 0.000000 
#    y 0.000000 1.766650 0.000000 
#    z 0.000000 0.000000 1.771340 
# 
# From -- ./inp_files/49140.got.cif
#   From: 2010.03.12/outbox.cif.g09.slc.cpg/sg74_25_cif.got.tgz:49140.got - 2010.04.16 15:46:19.
