data_PCOD8300892
_publ_section_title
;
Structure prediction by ZEFSAII (Michael W. Deem and Ramdas Pophale) SiO2 
 PCOD8300892
Probable space group: I M M A
;
_chemical_formula_sum "Si O2"
_cell_formula_units_Z 80
_cell_length_a 14.476663
_cell_length_b 9.180547
_cell_length_c 29.566128
_cell_angle_alpha 90.000000
_cell_angle_beta 90.000000
_cell_angle_gamma 90.000000
_cell_volume 3929.447365
_symmetry_space_group_name_H-M "I M M A"
_symmetry_group_IT_number 74
_symmetry_cell_setting 'orthorhombic'
loop_
_space_group_symop_operation_xyz
x,y,z
-x,1/2-y,z
x,-y,-z
-x,1/2+y,-z
-x,-y,-z
x,1/2+y,-z
-x,y,z
x,1/2-y,z
1/2+x,1/2+y,1/2+z
1/2-x,-y,1/2+z
1/2+x,1/2-y,1/2-z
1/2-x,y,1/2-z
1/2-x,1/2-y,1/2-z
1/2+x,y,1/2-z
1/2-x,1/2+y,1/2+z
1/2+x,-y,1/2+z
loop_
_atom_site_type_symbol
_atom_site_label
_atom_site_fract_x
_atom_site_fract_y
_atom_site_fract_z
Si Si1 0.890011 0.585130 0.543651
Si Si2 0.895356 0.417257 0.130084
Si Si3 0.889864 0.413660 0.957085
Si Si4 0.737131 0.418706 0.198619
Si Si5 0.891456 0.581357 0.367160
O O1 0.850679 0.500000 0.500000
O O2 0.851674 0.750000 0.543820
O O3 0.854935 0.503501 0.588566
O O4 0.000000 0.585368 0.542113
O O5 0.891339 0.250000 0.114642
O O6 0.854629 0.511047 0.088770
O O7 0.834391 0.447333 0.174082
O O8 0.000000 0.463379 0.142234
O O9 0.851694 0.250000 0.958557
O O10 0.000000 0.417489 0.958397
O O11 0.849005 0.500000 0.000000
O O12 0.707353 0.250000 0.195481
O O13 0.750000 0.469132 0.250000
O O14 0.656987 0.515701 0.176924
O O15 0.865668 0.750000 0.372861
O O16 0.000000 0.559124 0.360632
#
# Coordination Sequence:
#
# PCOD8300892 Si02
#       5
#    16  16  16  16  16
#     4   9  16  28  50  80 113 148 184 223 269 323
#     4   9  18  34  55  79 109 143 178 219 268 322
#     4   9  16  27  47  76 108 142 178 215 259 313
#     4  10  22  39  59  83 109 140 182 232 283 332
#     4  10  21  37  57  82 113 149 187 227 274 328
#
# _framework density 20.359096999999998
#
# number of rings (size 3 to 8) (size 9 to 14) (size 15 to 20)
#    0.000    2.600    0.000    1.800    0.000    8.000 
#    0.000    3.000    0.000    7.200    0.000    0.000 
#    0.000    0.000    0.000    0.000    0.000    0.000 
#
# Total GULP energy -496129.474382 kJ/mol
# GULP energy per Si atom -12403.236860 kJ/mol
# Density = 2.031276 g / cm^3
# Si number density = 20.359097 Si / 1000 Ang^3
#
#
#
# Elastic Constant Matrix: (Units=GPa)
#
#
# Indices 1 2 3 4 5 6 
#
# 1 46.1272 43.4591 44.8984 0.0000 0.0000 0.0000
# 2 43.4591 156.4335 100.1761 0.0000 0.0000 0.0000
# 3 44.8984 100.1761 195.4025 0.0000 0.0000 0.0000
# 4 0.0000 0.0000 0.0000 37.7090 0.0000 0.0000
# 5 0.0000 0.0000 0.0000 0.0000 -29.2618 0.0000
# 6 0.0000 0.0000 0.0000 0.0000 0.0000 22.1911
#
#
#
# Elastic Compliance Matrix: (Units=1/GPa)
#
#
# Indices 1 2 3 4 5 6 
#
# 1 0.031413 -0.006111 -0.004085 0.000000 0.000000 0.000000
# 2 -0.006111 0.010706 -0.004084 0.000000 0.000000 0.000000
# 3 -0.004085 -0.004084 0.008150 0.000000 0.000000 0.000000
# 4 0.000000 0.000000 0.000000 0.026519 0.000000 0.000000
# 5 0.000000 0.000000 0.000000 0.000000 -0.034174 0.000000
# 6 0.000000 0.000000 0.000000 0.000000 0.000000 0.045063
#
#
# Mechanical properties :
#
#
# Convention : Reuss Voigt Hill
#
# Bulk Modulus (GPa) = 46.06555 86.11448 66.09002
# Shear Modulus (GPa) = 40.49470 20.08961 30.29216
#
# Velocity S-wave (km/s) = 4.46468 3.14469 3.86151
# Velocity P-wave (km/s) = 7.01808 7.45487 7.23977
#
# Compressibility (1/GPa) = 0.02170820
#
# Stress axis : x y z
#
# Youngs Moduli (GPa) = 31.83415 93.40851 122.69737
#
# Poissons Ratio (x) = 0.57081 0.50122
# Poissons Ratio (y) = 0.19454 0.50113
# Poissons Ratio (z) = 0.13004 0.38151
#
# Static dielectric constant tensor:
#      x y z
#    x 3.423480 0.000000 0.000000 
#    y 0.000000 3.796150 0.000000 
#    z 0.000000 0.000000 3.677070 
# 
# 
# High freq. dielectric constant tensor:
#      x y z
#    x 1.783670 0.000000 0.000000 
#    y 0.000000 1.798760 0.000000 
#    z 0.000000 0.000000 1.791730 
# 
# From -- ./inp_files/67518.got.cif
#   From: 2010.03.12/outbox.cif.g09.slc.cpg/sg74_34_cif.got.tgz:67518.got - 2010.04.16 15:46:19.
