data_PCOD8300298
_publ_section_title
;
Structure prediction by ZEFSAII (Michael W. Deem and Ramdas Pophale) SiO2 
 PCOD8300298
Probable space group: I M M A
;
_chemical_formula_sum "Si O2"
_cell_formula_units_Z 96
_cell_length_a 18.759061
_cell_length_b 27.951884
_cell_length_c 9.808061
_cell_angle_alpha 90.000000
_cell_angle_beta 90.000000
_cell_angle_gamma 90.000000
_cell_volume 5142.867545
_symmetry_space_group_name_H-M "I M M A"
_symmetry_group_IT_number 74
_symmetry_cell_setting 'orthorhombic'
loop_
_space_group_symop_operation_xyz
x,y,z
-x,1/2-y,z
x,-y,-z
-x,1/2+y,-z
-x,-y,-z
x,1/2+y,-z
-x,y,z
x,1/2-y,z
1/2+x,1/2+y,1/2+z
1/2-x,-y,1/2+z
1/2+x,1/2-y,1/2-z
1/2-x,y,1/2-z
1/2-x,1/2-y,1/2-z
1/2+x,y,1/2-z
1/2-x,1/2+y,1/2+z
1/2+x,-y,1/2+z
loop_
_atom_site_type_symbol
_atom_site_label
_atom_site_fract_x
_atom_site_fract_y
_atom_site_fract_z
Si Si1 0.318126 0.555393 0.346562
Si Si2 0.417464 0.365126 0.271799
Si Si3 0.179298 0.950048 0.837616
Si Si4 0.664609 0.346377 0.755287
Si Si5 0.919346 0.696434 0.024937
Si Si6 0.582767 0.806063 0.995745
O O1 0.250000 0.554118 0.250000
O O2 0.300737 0.563906 0.506600
O O3 0.355727 0.503502 0.331501
O O4 0.363696 0.600769 0.291965
O O5 0.500000 0.378162 0.275691
O O6 0.376080 0.414917 0.265062
O O7 0.392202 0.338482 0.407627
O O8 0.400026 0.329608 0.148847
O O9 0.250000 0.947604 0.750000
O O10 0.750000 0.343549 0.750000
O O11 0.632317 0.307267 0.653768
O O12 0.634837 0.334221 0.903274
O O13 0.915666 0.750000 0.967056
O O14 0.000000 0.683890 0.070097
O O15 0.500000 0.813116 0.037170
O O16 0.602006 0.750000 0.990366
#
# Coordination Sequence:
#
# PCOD8300298 Si02
#       6
#    16  16  16  16  16  16
#     4   9  20  37  56  87 113 147 186 224 276 335
#     4  10  21  37  57  84 112 143 186 235 280 322
#     4  10  20  37  62  84 111 149 189 226 276 336
#     4  11  22  36  56  84 114 143 183 233 282 322
#     4  10  20  36  57  79 108 147 188 226 273 337
#     4  10  22  40  59  79 110 153 191 225 275 337
#
# _framework density 18.666630000000001
#
# number of rings (size 3 to 8) (size 9 to 14) (size 15 to 20)
#    0.000    2.000    1.667    1.500    4.667    4.667 
#    0.000    3.333    0.000    5.000    0.000    0.000 
#    0.000    0.000    0.000    0.000    0.000    0.000 
#
# Total GULP energy -594957.737141 kJ/mol
# GULP energy per Si atom -12394.952857 kJ/mol
# Density = 1.862414 g / cm^3
# Si number density = 18.666630 Si / 1000 Ang^3
#
#
#
# Elastic Constant Matrix: (Units=GPa)
#
#
# Indices 1 2 3 4 5 6 
#
# 1 63.7594 43.0660 40.7324 0.0000 0.0000 0.0000
# 2 43.0660 130.8633 44.5513 0.0000 0.0000 0.0000
# 3 40.7324 44.5513 95.7102 0.0001 0.0000 0.0002
# 4 0.0000 0.0000 0.0001 34.2650 0.0000 0.0000
# 5 0.0000 0.0000 0.0000 0.0000 28.9308 0.0000
# 6 0.0000 0.0000 0.0002 0.0000 0.0000 17.9483
#
#
#
# Elastic Compliance Matrix: (Units=1/GPa)
#
#
# Indices 1 2 3 4 5 6 
#
# 1 0.024303 -0.005320 -0.007867 0.000000 0.000000 0.000000
# 2 -0.005320 0.010245 -0.002505 0.000000 0.000000 0.000000
# 3 -0.007867 -0.002505 0.014962 0.000000 0.000000 0.000000
# 4 0.000000 0.000000 0.000000 0.029184 0.000000 0.000000
# 5 0.000000 0.000000 0.000000 0.000000 0.034565 0.000000
# 6 0.000000 0.000000 0.000000 0.000000 0.000000 0.055715
#
#
# Mechanical properties :
#
#
# Convention : Reuss Voigt Hill
#
# Bulk Modulus (GPa) = 55.16497 60.78136 57.97317
# Shear Modulus (GPa) = 24.22488 27.02770 25.62629
#
# Velocity S-wave (km/s) = 3.60636 3.80928 3.70920
# Velocity P-wave (km/s) = 6.85259 7.20969 7.03341
#
# Compressibility (1/GPa) = 0.01812744
#
# Stress axis : x y z
#
# Youngs Moduli (GPa) = 41.14785 97.60864 66.83587
#
# Poissons Ratio (x) = 0.51925 0.52576
# Poissons Ratio (y) = 0.21889 0.16742
# Poissons Ratio (z) = 0.32369 0.24450
#
# Static dielectric constant tensor:
#      x y z
#    x 3.180220 0.000000 0.000000 
#    y 0.000000 3.925090 0.000000 
#    z 0.000000 0.000000 3.515030 
# 
# 
# High freq. dielectric constant tensor:
#      x y z
#    x 1.693950 0.000000 0.000000 
#    y 0.000000 1.744100 0.000000 
#    z 0.000000 0.000000 1.737060 
# 
# From -- ./inp_files/12701.got.cif
#   From: 2010.03.12/outbox.cif.g09.slc.cpg/sg74_7_cif.got.tgz:12701.got - 2010.04.16 15:46:19.
