data_PCOD8300780
_publ_section_title
;
Structure prediction by ZEFSAII (Michael W. Deem and Ramdas Pophale) SiO2 
 PCOD8300780
Probable space group: I M M A
;
_chemical_formula_sum "Si O2"
_cell_formula_units_Z 104
_cell_length_a 9.308880
_cell_length_b 26.418687
_cell_length_c 21.930995
_cell_angle_alpha 90.000000
_cell_angle_beta 90.000000
_cell_angle_gamma 90.000000
_cell_volume 5393.454227
_symmetry_space_group_name_H-M "I M M A"
_symmetry_group_IT_number 74
_symmetry_cell_setting 'orthorhombic'
loop_
_space_group_symop_operation_xyz
x,y,z
-x,1/2-y,z
x,-y,-z
-x,1/2+y,-z
-x,-y,-z
x,1/2+y,-z
-x,y,z
x,1/2-y,z
1/2+x,1/2+y,1/2+z
1/2-x,-y,1/2+z
1/2+x,1/2-y,1/2-z
1/2-x,y,1/2-z
1/2-x,1/2-y,1/2-z
1/2+x,y,1/2-z
1/2-x,1/2+y,1/2+z
1/2+x,-y,1/2+z
loop_
_atom_site_type_symbol
_atom_site_label
_atom_site_fract_x
_atom_site_fract_y
_atom_site_fract_z
Si Si1 0.166960 0.930124 0.687261
Si Si2 0.746288 0.500000 0.000000
Si Si3 0.839614 0.397846 0.807718
Si Si4 0.840513 0.806225 0.116006
Si Si5 0.668975 0.308586 0.002430
Si Si6 0.652915 0.033652 0.874344
Si Si7 0.333911 0.399420 0.432813
O O1 0.250000 0.917099 0.750000
O O2 0.251384 0.905313 0.631001
O O3 0.000000 0.911165 0.690275
O O4 0.170791 0.989832 0.675575
O O5 0.647138 0.485544 0.943420
O O6 0.832508 0.550290 0.976662
O O7 0.750000 0.414382 0.750000
O O8 0.819323 0.339269 0.823375
O O9 0.784629 0.428117 0.866943
O O10 0.000000 0.414268 0.794037
O O11 0.831073 0.750000 0.141319
O O12 0.000000 0.817346 0.087466
O O13 0.716209 0.816306 0.067364
O O14 0.500000 0.320356 0.008371
O O15 0.701879 0.250000 0.022621
O O16 0.759744 0.349490 0.039549
O O17 0.500000 0.060973 0.862555
O O18 0.500000 0.387171 0.419612
#
# Coordination Sequence:
#
# PCOD8300780 Si02
#       7
#    16   8  16  16  16  16  16
#     4  10  21  37  56  79 108 143 182 222 266 321
#     4  10  22  36  56  86 118 146 182 228 278 330
#     4  11  23  36  52  74 102 139 182 227 273 322
#     4   9  19  36  55  75 101 135 177 225 276 328
#     4  10  21  37  58  85 115 146 183 229 279 330
#     4  10  21  36  55  78 107 142 178 219 268 323
#     4  11  22  36  57  84 115 151 187 226 274 328
#
# _framework density 19.282633000000001
#
# number of rings (size 3 to 8) (size 9 to 14) (size 15 to 20)
#    0.000    1.846    0.000    3.692    0.000   11.692 
#    0.000    0.000    0.000    0.462    0.000    0.000 
#    0.000    0.000    0.000    0.000    0.000    0.000 
#
# Total GULP energy -644293.300378 kJ/mol
# GULP energy per Si atom -12390.255777 kJ/mol
# Density = 1.923875 g / cm^3
# Si number density = 19.282633 Si / 1000 Ang^3
#
#
#
# Elastic Constant Matrix: (Units=GPa)
#
#
# Indices 1 2 3 4 5 6 
#
# 1 161.8499 59.4747 52.7465 0.0000 0.0000 0.0000
# 2 59.4747 86.3541 37.9856 0.0000 0.0000 0.0000
# 3 52.7465 37.9856 92.2630 0.0000 0.0000 0.0000
# 4 0.0000 0.0000 0.0000 24.0422 0.0000 0.0000
# 5 0.0000 0.0000 0.0000 0.0000 24.3533 0.0000
# 6 0.0000 0.0000 0.0000 0.0000 0.0000 26.7864
#
#
#
# Elastic Compliance Matrix: (Units=1/GPa)
#
#
# Indices 1 2 3 4 5 6 
#
# 1 0.008966 -0.004787 -0.003155 0.000000 0.000000 0.000000
# 2 -0.004787 0.016697 -0.004138 0.000000 0.000000 0.000000
# 3 -0.003155 -0.004138 0.014346 0.000000 0.000000 0.000000
# 4 0.000000 0.000000 0.000000 0.041594 0.000000 0.000000
# 5 0.000000 0.000000 0.000000 0.000000 0.041062 0.000000
# 6 0.000000 0.000000 0.000000 0.000000 0.000000 0.037332
#
#
# Mechanical properties :
#
#
# Convention : Reuss Voigt Hill
#
# Bulk Modulus (GPa) = 63.09326 71.20897 67.15111
# Shear Modulus (GPa) = 26.39359 27.72038 27.05699
#
# Velocity S-wave (km/s) = 3.70371 3.79566 3.74997
# Velocity P-wave (km/s) = 7.14711 7.49791 7.32461
#
# Compressibility (1/GPa) = 0.01584955
#
# Stress axis : x y z
#
# Youngs Moduli (GPa) = 111.53367 59.88927 69.70748
#
# Poissons Ratio (x) = 0.28671 0.21991
# Poissons Ratio (y) = 0.53395 0.28842
# Poissons Ratio (z) = 0.35186 0.24780
#
# Static dielectric constant tensor:
#      x y z
#    x 3.683570 0.000000 0.000000 
#    y 0.000000 3.607400 0.000000 
#    z 0.000000 0.000000 3.382720 
# 
# 
# High freq. dielectric constant tensor:
#      x y z
#    x 1.765090 0.000000 0.000000 
#    y 0.000000 1.740990 0.000000 
#    z 0.000000 0.000000 1.740870 
# 
# From -- ./inp_files/49307.got.cif
#   From: 2010.03.12/outbox.cif.g09.slc.cpg/sg74_25_cif.got.tgz:49307.got - 2010.04.16 15:46:19.
