data_PCOD8300510
_publ_section_title
;
Structure prediction by ZEFSAII (Michael W. Deem and Ramdas Pophale) SiO2 
 PCOD8300510
Probable space group: I M M A
;
_chemical_formula_sum "Si O2"
_cell_formula_units_Z 96
_cell_length_a 27.475219
_cell_length_b 18.372209
_cell_length_c 8.688161
_cell_angle_alpha 90.000000
_cell_angle_beta 90.000000
_cell_angle_gamma 90.000000
_cell_volume 4385.613956
_symmetry_space_group_name_H-M "I M M A"
_symmetry_group_IT_number 74
_symmetry_cell_setting 'orthorhombic'
loop_
_space_group_symop_operation_xyz
x,y,z
-x,1/2-y,z
x,-y,-z
-x,1/2+y,-z
-x,-y,-z
x,1/2+y,-z
-x,y,z
x,1/2-y,z
1/2+x,1/2+y,1/2+z
1/2-x,-y,1/2+z
1/2+x,1/2-y,1/2-z
1/2-x,y,1/2-z
1/2-x,1/2-y,1/2-z
1/2+x,y,1/2-z
1/2-x,1/2+y,1/2+z
1/2+x,-y,1/2+z
loop_
_atom_site_type_symbol
_atom_site_label
_atom_site_fract_x
_atom_site_fract_y
_atom_site_fract_z
Si Si1 0.607271 0.167394 0.383234
Si Si2 0.300377 0.165207 0.197355
Si Si3 0.945575 0.067495 0.890159
Si Si4 0.699220 0.833838 0.165282
Si Si5 0.053359 0.667197 0.583292
Si Si6 0.618400 0.565361 0.111820
O O1 0.618973 0.250000 0.432305
O O2 0.654526 0.131807 0.295847
O O3 0.591249 0.126385 0.537585
O O4 0.562208 0.163562 0.265861
O O5 0.300684 0.250000 0.236167
O O6 0.250000 0.128267 0.250000
O O7 0.301407 0.152052 0.016548
O O8 0.922782 0.037952 0.730324
O O9 0.000000 0.099899 0.860384
O O10 0.950226 0.000000 0.000000
O O11 0.684295 0.750000 0.203407
O O12 0.750000 0.851212 0.250000
O O13 0.660523 0.895726 0.215978
O O14 0.055854 0.750000 0.525899
O O15 0.095668 0.626978 0.494897
O O16 0.000000 0.633723 0.550206
O O17 0.636626 0.500000 0.000000
#
# Coordination Sequence:
#
# PCOD8300510 Si02
#       6
#    16  16  16  16  16  16
#     4  10  20  37  63  95 130 163 207 266 324 387
#     4   9  18  34  61  95 124 159 202 250 313 383
#     4  11  26  44  61  87 124 171 222 267 321 391
#     4  10  22  42  68  98 129 164 213 268 324 388
#     4  10  20  37  64  95 127 166 213 266 323 387
#     4  12  25  42  65  93 128 172 217 272 335 399
#
# _framework density 21.889752999999999
#
# number of rings (size 3 to 8) (size 9 to 14) (size 15 to 20)
#    0.000    1.667    1.667    2.500    2.333    5.000 
#    0.000    1.667    0.000    0.000    0.000    0.000 
#    0.000    0.000    0.000    0.000    0.000    0.000 
#
# Total GULP energy -594839.556246 kJ/mol
# GULP energy per Si atom -12392.490755 kJ/mol
# Density = 2.183993 g / cm^3
# Si number density = 21.889753 Si / 1000 Ang^3
#
#
#
# Elastic Constant Matrix: (Units=GPa)
#
#
# Indices 1 2 3 4 5 6 
#
# 1 150.5796 50.9400 42.1659 0.0000 0.0000 0.0000
# 2 50.9400 69.5174 24.7867 0.0000 0.0000 0.0000
# 3 42.1659 24.7867 77.2098 0.0000 0.0000 0.0000
# 4 0.0000 0.0000 0.0000 30.6983 0.0000 0.0000
# 5 0.0000 0.0000 0.0000 0.0000 29.1083 0.0000
# 6 0.0000 0.0000 0.0000 0.0000 0.0000 24.3586
#
#
#
# Elastic Compliance Matrix: (Units=1/GPa)
#
#
# Indices 1 2 3 4 5 6 
#
# 1 0.009540 -0.005796 -0.003349 0.000000 0.000000 0.000000
# 2 -0.005796 0.019766 -0.003180 0.000000 0.000000 0.000000
# 3 -0.003349 -0.003180 0.015802 0.000000 0.000000 0.000000
# 4 0.000000 0.000000 0.000000 0.032575 0.000000 0.000000
# 5 0.000000 0.000000 0.000000 0.000000 0.034355 0.000000
# 6 0.000000 0.000000 0.000000 0.000000 0.000000 0.041053
#
#
# Mechanical properties :
#
#
# Convention : Reuss Voigt Hill
#
# Bulk Modulus (GPa) = 48.88386 59.23244 54.05815
# Shear Modulus (GPa) = 27.09152 28.79398 27.94275
#
# Velocity S-wave (km/s) = 3.52182 3.63079 3.57672
# Velocity P-wave (km/s) = 6.23843 6.68544 6.46579
#
# Compressibility (1/GPa) = 0.02045665
#
# Stress axis : x y z
#
# Youngs Moduli (GPa) = 104.82578 50.59189 63.28471
#
# Poissons Ratio (x) = 0.29324 0.21194
# Poissons Ratio (y) = 0.60759 0.20125
# Poissons Ratio (z) = 0.35107 0.16088
#
# Static dielectric constant tensor:
#      x y z
#    x 4.477760 0.000000 0.000000 
#    y 0.000000 3.702530 0.000000 
#    z 0.000000 0.000000 3.879570 
# 
# 
# High freq. dielectric constant tensor:
#      x y z
#    x 1.873280 0.000000 0.000000 
#    y 0.000000 1.831470 0.000000 
#    z 0.000000 0.000000 1.857600 
# 
# From -- ./inp_files/15138.got.cif
#   From: 2010.03.12/outbox.cif.g09.slc.cpg/sg74_8_cif.got.tgz:15138.got - 2010.04.16 15:46:19.
