data_PCOD8300233
_publ_section_title
;
Structure prediction by ZEFSAII (Michael W. Deem and Ramdas Pophale) SiO2 
 PCOD8300233
Probable space group: I M M A
;
_chemical_formula_sum "Si O2"
_cell_formula_units_Z 104
_cell_length_a 8.786294
_cell_length_b 26.453825
_cell_length_c 23.022325
_cell_angle_alpha 90.000000
_cell_angle_beta 90.000000
_cell_angle_gamma 90.000000
_cell_volume 5351.103953
_symmetry_space_group_name_H-M "I M M A"
_symmetry_group_IT_number 74
_symmetry_cell_setting 'orthorhombic'
loop_
_space_group_symop_operation_xyz
x,y,z
-x,1/2-y,z
x,-y,-z
-x,1/2+y,-z
-x,-y,-z
x,1/2+y,-z
-x,y,z
x,1/2-y,z
1/2+x,1/2+y,1/2+z
1/2-x,-y,1/2+z
1/2+x,1/2-y,1/2-z
1/2-x,y,1/2-z
1/2-x,1/2-y,1/2-z
1/2+x,y,1/2-z
1/2-x,1/2+y,1/2+z
1/2+x,-y,1/2+z
loop_
_atom_site_type_symbol
_atom_site_label
_atom_site_fract_x
_atom_site_fract_y
_atom_site_fract_z
Si Si1 0.178316 0.550051 0.811202
Si Si2 0.178500 0.750000 0.187339
Si Si3 0.326887 0.389566 0.421549
Si Si4 0.824610 0.192518 0.992527
Si Si5 0.676991 0.056155 0.635702
Si Si6 0.337001 0.554387 0.020275
Si Si7 0.677855 0.342150 0.878173
O O1 0.250000 0.564513 0.750000
O O2 0.221173 0.595961 0.855609
O O3 0.237784 0.494945 0.833097
O O4 0.000000 0.546272 0.802770
O O5 0.250000 0.750000 0.250000
O O6 0.228230 0.798578 0.152015
O O7 0.000000 0.750000 0.194532
O O8 0.500000 0.408519 0.430587
O O9 0.311831 0.330629 0.441742
O O10 0.213940 0.417901 0.462996
O O11 0.762751 0.250000 0.993934
O O12 0.000000 0.191339 0.971887
O O13 0.726819 0.158386 0.946795
O O14 0.500000 0.065376 0.648881
O O15 0.702319 0.051540 0.566956
O O16 0.775425 0.105430 0.654054
O O17 0.500000 0.577821 0.044657
O O18 0.380695 0.500000 0.000000
O O19 0.500000 0.331765 0.870686
#
# Coordination Sequence:
#
# PCOD8300233 Si02
#       7
#    16   8  16  16  16  16  16
#     4  10  23  40  59  82 112 156 202 246 294 353
#     4  12  26  46  66  84 112 158 209 252 297 348
#     4  10  20  36  58  84 115 153 195 238 296 362
#     4  10  20  35  59  89 120 154 192 241 300 362
#     4  11  22  37  57  83 116 156 197 240 292 352
#     4  11  21  31  50  84 118 147 182 231 290 347
#     4  12  24  38  59  90 123 156 196 248 300 351
#
# _framework density 19.435243
#
# number of rings (size 3 to 8) (size 9 to 14) (size 15 to 20)
#    0.000    1.231    3.846    3.000    0.000    3.077 
#    0.000    1.538    0.000    0.462    0.000    0.000 
#    0.000    0.000    0.000    0.000    0.000    0.000 
#
# Total GULP energy -644373.759745 kJ/mol
# GULP energy per Si atom -12391.803072 kJ/mol
# Density = 1.939101 g / cm^3
# Si number density = 19.435243 Si / 1000 Ang^3
#
#
#
# Elastic Constant Matrix: (Units=GPa)
#
#
# Indices 1 2 3 4 5 6 
#
# 1 83.1719 22.1183 28.2720 0.0000 0.0000 0.0000
# 2 22.1183 70.5966 32.2623 0.0000 0.0000 0.0000
# 3 28.2720 32.2623 110.4268 -0.0001 0.0000 0.0000
# 4 0.0000 0.0000 -0.0001 19.5724 0.0000 0.0000
# 5 0.0000 0.0000 0.0000 0.0000 30.8333 0.0000
# 6 0.0000 0.0000 0.0000 0.0000 0.0000 19.3255
#
#
#
# Elastic Compliance Matrix: (Units=1/GPa)
#
#
# Indices 1 2 3 4 5 6 
#
# 1 0.013737 -0.003112 -0.002608 0.000000 0.000000 0.000000
# 2 -0.003112 0.017053 -0.004185 0.000000 0.000000 0.000000
# 3 -0.002608 -0.004185 0.010946 0.000000 0.000000 0.000000
# 4 0.000000 0.000000 0.000000 0.051092 0.000000 0.000000
# 5 0.000000 0.000000 0.000000 0.000000 0.032432 0.000000
# 6 0.000000 0.000000 0.000000 0.000000 0.000000 0.051745
#
#
# Mechanical properties :
#
#
# Convention : Reuss Voigt Hill
#
# Bulk Modulus (GPa) = 45.60883 47.72228 46.66556
# Shear Modulus (GPa) = 24.49472 26.04909 25.27190
#
# Velocity S-wave (km/s) = 3.55396 3.66498 3.60990
# Velocity P-wave (km/s) = 6.35286 6.52053 6.43724
#
# Compressibility (1/GPa) = 0.02192558
#
# Stress axis : x y z
#
# Youngs Moduli (GPa) = 72.79395 58.64161 91.35568
#
# Poissons Ratio (x) = 0.18251 0.23824
# Poissons Ratio (y) = 0.22655 0.38235
# Poissons Ratio (z) = 0.18983 0.24543
#
# Static dielectric constant tensor:
#      x y z
#    x 3.517900 0.000000 0.000000 
#    y 0.000000 3.812300 0.000000 
#    z 0.000000 0.000000 3.359470 
# 
# 
# High freq. dielectric constant tensor:
#      x y z
#    x 1.762700 0.000000 0.000000 
#    y 0.000000 1.760710 0.000000 
#    z 0.000000 0.000000 1.733100 
# 
# From -- ./inp_files/49289.got.cif
#   From: 2010.03.12/outbox.cif.g09.slc.cpg/sg74_25_cif.got.tgz:49289.got - 2010.04.16 15:46:19.
