data_PCOD8300692
_publ_section_title
;
Structure prediction by ZEFSAII (Michael W. Deem and Ramdas Pophale) SiO2 
 PCOD8300692
Probable space group: I M M A
;
_chemical_formula_sum "Si O2"
_cell_formula_units_Z 88
_cell_length_a 14.511642
_cell_length_b 29.535370
_cell_length_c 11.746943
_cell_angle_alpha 90.000000
_cell_angle_beta 90.000000
_cell_angle_gamma 90.000000
_cell_volume 5034.818660
_symmetry_space_group_name_H-M "I M M A"
_symmetry_group_IT_number 74
_symmetry_cell_setting 'orthorhombic'
loop_
_space_group_symop_operation_xyz
x,y,z
-x,1/2-y,z
x,-y,-z
-x,1/2+y,-z
-x,-y,-z
x,1/2+y,-z
-x,y,z
x,1/2-y,z
1/2+x,1/2+y,1/2+z
1/2-x,-y,1/2+z
1/2+x,1/2-y,1/2-z
1/2-x,y,1/2-z
1/2-x,1/2-y,1/2-z
1/2+x,y,1/2-z
1/2-x,1/2+y,1/2+z
1/2+x,-y,1/2+z
loop_
_atom_site_type_symbol
_atom_site_label
_atom_site_fract_x
_atom_site_fract_y
_atom_site_fract_z
Si Si1 0.103772 0.371356 0.858507
Si Si2 0.394833 0.869378 0.096882
Si Si3 0.892715 0.453069 0.434218
Si Si4 0.247518 0.699831 0.114845
Si Si5 0.398616 0.529730 0.389425
Si Si6 0.750000 0.978194 0.750000
O O1 0.130087 0.381529 0.727074
O O2 0.161354 0.331662 0.917939
O O3 0.122134 0.418346 0.924728
O O4 0.000000 0.354383 0.868831
O O5 0.500000 0.855430 0.081274
O O6 0.337446 0.824664 0.062866
O O7 0.369768 0.912505 0.020349
O O8 0.876583 0.500000 0.500000
O O9 0.816096 0.448453 0.333373
O O10 0.000000 0.450087 0.390837
O O11 0.238572 0.750000 0.060279
O O12 0.250000 0.704569 0.250000
O O13 0.401905 0.500000 0.500000
O O14 0.500000 0.528150 0.328148
O O15 0.319517 0.511733 0.310449
#
# Coordination Sequence:
#
# PCOD8300692 Si02
#       6
#    16  16  16  16  16   8
#     4   9  18  31  48  68  97 134 165 197 239 289
#     4   9  18  32  50  70  98 132 163 198 242 293
#     4  10  21  35  50  73 102 134 173 208 245 297
#     4   9  18  29  46  72  99 125 159 202 246 295
#     4  10  22  35  47  70 102 134 166 198 239 293
#     4  12  22  30  52  74  98 138 166 210 246 282
#
# _framework density 17.478286000000001
#
# number of rings (size 3 to 8) (size 9 to 14) (size 15 to 20)
#    0.000    2.364    0.000    2.182    8.909    3.636 
#    0.000    3.636    0.000    0.000    0.000    0.636 
#    0.000    0.000    0.000    0.000    0.000    0.000 
#
# Total GULP energy -545268.946504 kJ/mol
# GULP energy per Si atom -12392.476057 kJ/mol
# Density = 1.743850 g / cm^3
# Si number density = 17.478286 Si / 1000 Ang^3
#
#
#
# Elastic Constant Matrix: (Units=GPa)
#
#
# Indices 1 2 3 4 5 6 
#
# 1 127.8940 76.5801 40.8626 -0.0001 -0.0001 -0.0001
# 2 76.5801 162.4196 37.7125 0.0003 0.0000 0.0000
# 3 40.8626 37.7125 35.7720 0.0001 -0.0041 0.0011
# 4 -0.0001 0.0003 0.0001 17.4182 -0.0006 0.0002
# 5 -0.0001 0.0000 -0.0041 -0.0006 35.4760 0.0007
# 6 -0.0001 0.0000 0.0011 0.0002 0.0007 36.3419
#
#
#
# Elastic Compliance Matrix: (Units=1/GPa)
#
#
# Indices 1 2 3 4 5 6 
#
# 1 0.013876 -0.003790 -0.011855 0.000000 -0.000001 0.000000
# 2 -0.003790 0.009188 -0.005357 0.000000 -0.000001 0.000000
# 3 -0.011855 -0.005357 0.047145 0.000000 0.000005 -0.000001
# 4 0.000000 0.000000 0.000000 0.057411 0.000001 0.000000
# 5 -0.000001 -0.000001 0.000005 0.000001 0.028188 -0.000001
# 6 0.000000 0.000000 -0.000001 0.000000 -0.000001 0.027516
#
#
# Mechanical properties :
#
#
# Convention : Reuss Voigt Hill
#
# Bulk Modulus (GPa) = 35.45555 70.71068 53.08311
# Shear Modulus (GPa) = 21.30113 29.24259 25.27186
#
# Velocity S-wave (km/s) = 3.49480 4.09477 3.80662
# Velocity P-wave (km/s) = 6.05098 7.93097 7.05389
#
# Compressibility (1/GPa) = 0.02820433
#
# Stress axis : x y z
#
# Youngs Moduli (GPa) = 72.06668 108.84266 21.21129
#
# Poissons Ratio (x) = 0.41249 0.25147
# Poissons Ratio (y) = 0.27312 0.11363
# Poissons Ratio (z) = 0.85437 0.58306
#
# Static dielectric constant tensor:
#      x y z
#    x 3.866830 0.000000 0.000000 
#    y 0.000000 3.372310 0.000000 
#    z 0.000000 0.000000 2.921370 
# 
# 
# High freq. dielectric constant tensor:
#      x y z
#    x 1.702430 0.000000 0.000000 
#    y 0.000000 1.667170 0.000000 
#    z 0.000000 0.000000 1.619510 
# 
# From -- ./inp_files/20992.got.cif
#   From: 2010.03.12/outbox.cif.g09.slc.cpg/sg74_11_cif.got.tgz:20992.got - 2010.04.16 15:46:19.
