data_PCOD8300288
_publ_section_title
;
Structure prediction by ZEFSAII (Michael W. Deem and Ramdas Pophale) SiO2 
 PCOD8300288
Probable space group: I M M A
;
_chemical_formula_sum "Si O2"
_cell_formula_units_Z 104
_cell_length_a 20.697447
_cell_length_b 13.089411
_cell_length_c 19.700881
_cell_angle_alpha 90.000000
_cell_angle_beta 90.000000
_cell_angle_gamma 90.000000
_cell_volume 5337.311270
_symmetry_space_group_name_H-M "I M M A"
_symmetry_group_IT_number 74
_symmetry_cell_setting 'orthorhombic'
loop_
_space_group_symop_operation_xyz
x,y,z
-x,1/2-y,z
x,-y,-z
-x,1/2+y,-z
-x,-y,-z
x,1/2+y,-z
-x,y,z
x,1/2-y,z
1/2+x,1/2+y,1/2+z
1/2-x,-y,1/2+z
1/2+x,1/2-y,1/2-z
1/2-x,y,1/2-z
1/2-x,1/2-y,1/2-z
1/2+x,y,1/2-z
1/2-x,1/2+y,1/2+z
1/2+x,-y,1/2+z
loop_
_atom_site_type_symbol
_atom_site_label
_atom_site_fract_x
_atom_site_fract_y
_atom_site_fract_z
Si Si1 0.226379 0.369752 0.932421
Si Si2 0.368628 0.133272 0.966950
Si Si3 0.424858 0.636565 0.616325
Si Si4 0.924106 0.978875 0.749490
Si Si5 0.184519 0.370266 0.787407
Si Si6 0.073419 0.446437 0.403044
Si Si7 0.128259 0.500000 0.000000
O O1 0.230934 0.250000 0.930534
O O2 0.297522 0.411003 0.950031
O O3 0.198014 0.412757 0.862337
O O4 0.174185 0.403549 0.986938
O O5 0.376921 0.250000 0.944348
O O6 0.418376 0.065886 0.923104
O O7 0.381367 0.121788 0.047860
O O8 0.500000 0.653709 0.616077
O O9 0.393527 0.750000 0.601240
O O10 0.403519 0.600301 0.691611
O O11 0.412792 0.544847 0.562375
O O12 0.879149 0.078634 0.755784
O O13 0.000000 0.010534 0.755032
O O14 0.909674 0.928092 0.676064
O O15 0.171346 0.250000 0.784651
O O16 0.250000 0.400679 0.750000
O O17 0.000000 0.413909 0.416801
#
# Coordination Sequence:
#
# PCOD8300288 Si02
#       7
#    16  16  16  16  16  16   8
#     4  10  21  34  53  83 111 145 191 236 285 346
#     4  10  20  36  56  81 116 152 189 236 291 342
#     4  10  22  39  59  84 113 149 192 235 287 351
#     4  10  21  39  59  83 118 158 197 243 301 354
#     4  10  20  36  57  83 115 153 197 241 296 357
#     4  10  21  35  55  84 113 148 197 242 288 350
#     4  12  19  36  62  80 109 148 184 236 290 336
#
# _framework density 19.485465999999999
#
# number of rings (size 3 to 8) (size 9 to 14) (size 15 to 20)
#    0.000    1.846    1.538    3.462    0.000    4.000 
#    0.000    3.077    0.000    0.462    0.000    0.000 
#    0.000    0.000    0.000    0.000    0.000    0.000 
#
# Total GULP energy -644391.631780 kJ/mol
# GULP energy per Si atom -12392.146765 kJ/mol
# Density = 1.944112 g / cm^3
# Si number density = 19.485466 Si / 1000 Ang^3
#
#
#
# Elastic Constant Matrix: (Units=GPa)
#
#
# Indices 1 2 3 4 5 6 
#
# 1 62.7569 14.4863 18.2813 0.0000 0.0000 0.0000
# 2 14.4863 59.1590 17.2495 0.0000 0.0000 0.0000
# 3 18.2813 17.2495 110.4478 0.0000 0.0000 0.0000
# 4 0.0000 0.0000 0.0000 23.9333 0.0000 0.0000
# 5 0.0000 0.0000 0.0000 0.0000 33.3311 0.0000
# 6 0.0000 0.0000 0.0000 0.0000 0.0000 37.4720
#
#
#
# Elastic Compliance Matrix: (Units=1/GPa)
#
#
# Indices 1 2 3 4 5 6 
#
# 1 0.017441 -0.003593 -0.002326 0.000000 0.000000 0.000000
# 2 -0.003593 0.018450 -0.002287 0.000000 0.000000 0.000000
# 3 -0.002326 -0.002287 0.009796 0.000000 0.000000 0.000000
# 4 0.000000 0.000000 0.000000 0.041783 0.000000 0.000000
# 5 0.000000 0.000000 0.000000 0.000000 0.030002 0.000000
# 6 0.000000 0.000000 0.000000 0.000000 0.000000 0.026687
#
#
# Mechanical properties :
#
#
# Convention : Reuss Voigt Hill
#
# Bulk Modulus (GPa) = 34.15654 36.93309 35.54481
# Shear Modulus (GPa) = 29.35501 31.10372 30.22936
#
# Velocity S-wave (km/s) = 3.88559 3.99965 3.94303
# Velocity P-wave (km/s) = 6.13984 6.35019 6.24590
#
# Compressibility (1/GPa) = 0.02927697
#
# Stress axis : x y z
#
# Youngs Moduli (GPa) = 57.33506 54.20008 102.08073
#
# Poissons Ratio (x) = 0.19473 0.23742
# Poissons Ratio (y) = 0.20599 0.23344
# Poissons Ratio (z) = 0.13335 0.12395
#
# Static dielectric constant tensor:
#      x y z
#    x 3.568770 0.000000 0.000000 
#    y 0.000000 3.585500 0.000000 
#    z 0.000000 0.000000 3.709040 
# 
# 
# High freq. dielectric constant tensor:
#      x y z
#    x 1.756300 0.000000 0.000000 
#    y 0.000000 1.746170 0.000000 
#    z 0.000000 0.000000 1.769820 
# 
# From -- ./inp_files/45288.got.cif
#   From: 2010.03.12/outbox.cif.g09.slc.cpg/sg74_23_cif.got.tgz:45288.got - 2010.04.16 15:46:19.
