data_PCOD8300679
_publ_section_title
;
Structure prediction by ZEFSAII (Michael W. Deem and Ramdas Pophale) SiO2 
 PCOD8300679
Probable space group: I M M A
;
_chemical_formula_sum "Si O2"
_cell_formula_units_Z 96
_cell_length_a 18.106017
_cell_length_b 25.922598
_cell_length_c 11.443016
_cell_angle_alpha 90.000000
_cell_angle_beta 90.000000
_cell_angle_gamma 90.000000
_cell_volume 5370.836776
_symmetry_space_group_name_H-M "I M M A"
_symmetry_group_IT_number 74
_symmetry_cell_setting 'orthorhombic'
loop_
_space_group_symop_operation_xyz
x,y,z
-x,1/2-y,z
x,-y,-z
-x,1/2+y,-z
-x,-y,-z
x,1/2+y,-z
-x,y,z
x,1/2-y,z
1/2+x,1/2+y,1/2+z
1/2-x,-y,1/2+z
1/2+x,1/2-y,1/2-z
1/2-x,y,1/2-z
1/2-x,1/2-y,1/2-z
1/2+x,y,1/2-z
1/2-x,1/2+y,1/2+z
1/2+x,-y,1/2+z
loop_
_atom_site_type_symbol
_atom_site_label
_atom_site_fract_x
_atom_site_fract_y
_atom_site_fract_z
Si Si1 0.213736 0.442267 0.029031
Si Si2 0.416613 0.896777 0.655745
Si Si3 0.677325 0.125158 0.688604
Si Si4 0.085542 0.191552 0.981087
Si Si5 0.414831 0.448218 0.855697
Si Si6 0.631039 0.437340 0.114010
O O1 0.138109 0.439310 0.101585
O O2 0.282927 0.421450 0.104028
O O3 0.234457 0.500000 0.000000
O O4 0.208030 0.413274 0.907850
O O5 0.500000 0.912928 0.623792
O O6 0.397645 0.841229 0.598746
O O7 0.405349 0.896633 0.795426
O O8 0.750000 0.149076 0.750000
O O9 0.631209 0.171146 0.629823
O O10 0.625797 0.094048 0.777465
O O11 0.109402 0.250000 0.008208
O O12 0.000000 0.187785 0.946664
O O13 0.500000 0.450844 0.817251
O O14 0.378382 0.504373 0.837369
O O15 0.409945 0.431127 0.990693
#
# Coordination Sequence:
#
# PCOD8300679 Si02
#       6
#    16  16  16  16  16  16
#     4  11  20  33  52  75 111 149 180 212 256 304
#     4  10  21  34  54  79 103 136 180 224 266 312
#     4  11  20  34  53  80 109 139 178 217 264 312
#     4   9  20  39  60  79  99 130 175 227 279 320
#     4  11  21  33  52  79 112 149 183 209 247 307
#     4  11  19  34  50  77 113 149 178 211 250 308
#
# _framework density 17.874309
#
# number of rings (size 3 to 8) (size 9 to 14) (size 15 to 20)
#    0.000    1.500    3.333    4.000    0.000    1.333 
#    0.000    0.000    0.000    9.000    0.000    2.333 
#    0.000    0.000    0.000    0.000    0.000    0.000 
#
# Total GULP energy -595190.393079 kJ/mol
# GULP energy per Si atom -12399.799856 kJ/mol
# Density = 1.783363 g / cm^3
# Si number density = 17.874309 Si / 1000 Ang^3
#
#
#
# Elastic Constant Matrix: (Units=GPa)
#
#
# Indices 1 2 3 4 5 6 
#
# 1 116.0423 32.1619 41.7909 0.0000 0.0000 0.0000
# 2 32.1619 76.3860 48.5163 0.0000 0.0000 0.0000
# 3 41.7909 48.5163 105.9454 0.0000 0.0000 0.0000
# 4 0.0000 0.0000 0.0000 20.0731 0.0000 0.0000
# 5 0.0000 0.0000 0.0000 0.0000 31.7041 0.0000
# 6 0.0000 0.0000 0.0000 0.0000 0.0000 17.7603
#
#
#
# Elastic Compliance Matrix: (Units=1/GPa)
#
#
# Indices 1 2 3 4 5 6 
#
# 1 0.010371 -0.002494 -0.002949 0.000000 0.000000 0.000000
# 2 -0.002494 0.019060 -0.007745 0.000000 0.000000 0.000000
# 3 -0.002949 -0.007745 0.014149 0.000000 0.000000 0.000000
# 4 0.000000 0.000000 0.000000 0.049818 0.000000 0.000000
# 5 0.000000 0.000000 0.000000 0.000000 0.031542 0.000000
# 6 0.000000 0.000000 0.000000 0.000000 0.000000 0.056305
#
#
# Mechanical properties :
#
#
# Convention : Reuss Voigt Hill
#
# Bulk Modulus (GPa) = 58.12208 60.36801 59.24504
# Shear Modulus (GPa) = 23.43519 25.63448 24.53484
#
# Velocity S-wave (km/s) = 3.62485 3.79113 3.70892
# Velocity P-wave (km/s) = 7.07864 7.28083 7.18045
#
# Compressibility (1/GPa) = 0.01720516
#
# Stress axis : x y z
#
# Youngs Moduli (GPa) = 96.42607 52.46474 70.67779
#
# Poissons Ratio (x) = 0.13082 0.20842
# Poissons Ratio (y) = 0.24044 0.54739
# Poissons Ratio (z) = 0.28435 0.40633
#
# Static dielectric constant tensor:
#      x y z
#    x 3.519070 0.000000 0.000000 
#    y 0.000000 3.052260 0.000000 
#    z 0.000000 0.000000 3.468750 
# 
# 
# High freq. dielectric constant tensor:
#      x y z
#    x 1.713320 0.000000 0.000000 
#    y 0.000000 1.648910 0.000000 
#    z 0.000000 0.000000 1.699690 
# 
# From -- ./inp_files/22429.got.cif
#   From: 2010.03.12/outbox.cif.g09.slc.cpg/sg74_12_cif.got.tgz:22429.got - 2010.04.16 15:46:19.
