data_PCOD8300661
_publ_section_title
;
Structure prediction by ZEFSAII (Michael W. Deem and Ramdas Pophale) SiO2 
 PCOD8300661
Probable space group: I M M A
;
_chemical_formula_sum "Si O2"
_cell_formula_units_Z 64
_cell_length_a 13.265480
_cell_length_b 13.580705
_cell_length_c 21.030077
_cell_angle_alpha 90.000000
_cell_angle_beta 90.000000
_cell_angle_gamma 90.000000
_cell_volume 3788.664491
_symmetry_space_group_name_H-M "I M M A"
_symmetry_group_IT_number 74
_symmetry_cell_setting 'orthorhombic'
loop_
_space_group_symop_operation_xyz
x,y,z
-x,1/2-y,z
x,-y,-z
-x,1/2+y,-z
-x,-y,-z
x,1/2+y,-z
-x,y,z
x,1/2-y,z
1/2+x,1/2+y,1/2+z
1/2-x,-y,1/2+z
1/2+x,1/2-y,1/2-z
1/2-x,y,1/2-z
1/2-x,1/2-y,1/2-z
1/2+x,y,1/2-z
1/2-x,1/2+y,1/2+z
1/2+x,-y,1/2+z
loop_
_atom_site_type_symbol
_atom_site_label
_atom_site_fract_x
_atom_site_fract_y
_atom_site_fract_z
Si Si1 0.882797 0.137866 0.470652
Si Si2 0.385926 0.635066 0.356857
Si Si3 0.302995 0.544891 0.094164
Si Si4 0.381166 0.358467 0.785156
O O1 0.853147 0.250000 0.456214
O O2 0.861693 0.113451 0.544141
O O3 0.000000 0.118080 0.456654
O O4 0.815217 0.069276 0.424935
O O5 0.500000 0.594963 0.363377
O O6 0.382636 0.750000 0.374273
O O7 0.315310 0.573715 0.405064
O O8 0.339404 0.617907 0.285791
O O9 0.350402 0.560313 0.163624
O O10 0.500000 0.356114 0.776528
O O11 0.342991 0.250000 0.807522
#
# Coordination Sequence:
#
# PCOD8300661 Si02
#       4
#    16  16  16  16
#     4  10  21  34  47  68  95 118 148 192 233 272
#     4   9  18  30  45  70 100 124 150 189 231 268
#     4  11  18  29  50  69  90 124 157 182 224 279
#     4   9  16  26  44  72  99 119 145 185 232 279
#
# _framework density 16.892495
#
# number of rings (size 3 to 8) (size 9 to 14) (size 15 to 20)
#    0.000    2.250    0.000    7.500    0.000    4.000 
#    0.000    2.500    0.000    5.250    0.000    3.500 
#    0.000    0.000    0.000    0.000    0.000    0.000 
#
# Total GULP energy -396761.246633 kJ/mol
# GULP energy per Si atom -12398.788957 kJ/mol
# Density = 1.685405 g / cm^3
# Si number density = 16.892495 Si / 1000 Ang^3
#
#
#
# Elastic Constant Matrix: (Units=GPa)
#
#
# Indices 1 2 3 4 5 6 
#
# 1 57.2372 50.6962 31.1270 0.0000 0.0000 0.0000
# 2 50.6962 114.8155 49.6919 0.0000 0.0000 0.0000
# 3 31.1270 49.6919 59.0224 0.0000 0.0000 0.0000
# 4 0.0000 0.0000 0.0000 26.3032 0.0000 0.0000
# 5 0.0000 0.0000 0.0000 0.0000 30.4363 0.0000
# 6 0.0000 0.0000 0.0000 0.0000 0.0000 27.5199
#
#
#
# Elastic Compliance Matrix: (Units=1/GPa)
#
#
# Indices 1 2 3 4 5 6 
#
# 1 0.030672 -0.010293 -0.007510 0.000000 0.000000 0.000000
# 2 -0.010293 0.017156 -0.009016 0.000000 0.000000 0.000000
# 3 -0.007510 -0.009016 0.028494 0.000000 0.000000 0.000000
# 4 0.000000 0.000000 0.000000 0.038018 0.000000 0.000000
# 5 0.000000 0.000000 0.000000 0.000000 0.032855 0.000000
# 6 0.000000 0.000000 0.000000 0.000000 0.000000 0.036337
#
#
# Mechanical properties :
#
#
# Convention : Reuss Voigt Hill
#
# Bulk Modulus (GPa) = 44.08263 54.90058 49.49161
# Shear Modulus (GPa) = 20.43047 23.48922 21.95985
#
# Velocity S-wave (km/s) = 3.48147 3.73300 3.60943
# Velocity P-wave (km/s) = 6.50488 7.15199 6.83610
#
# Compressibility (1/GPa) = 0.02268467
#
# Stress axis : x y z
#
# Youngs Moduli (GPa) = 32.60345 58.28714 35.09486
#
# Poissons Ratio (x) = 0.59992 0.26356
# Poissons Ratio (y) = 0.33557 0.31642
# Poissons Ratio (z) = 0.24485 0.52553
#
# Static dielectric constant tensor:
#      x y z
#    x 3.311800 0.000000 0.000000 
#    y 0.000000 2.938680 0.000000 
#    z 0.000000 0.000000 3.033150 
# 
# 
# High freq. dielectric constant tensor:
#      x y z
#    x 1.668010 0.000000 0.000000 
#    y 0.000000 1.617030 0.000000 
#    z 0.000000 0.000000 1.637750 
# 
# From -- ./inp_files/42404.got.cif
#   From: 2010.03.12/outbox.cif.g09.slc.cpg/sg74_22_cif.got.tgz:42404.got - 2010.04.16 15:46:19.
