data_PCOD8300574
_publ_section_title
;
Structure prediction by ZEFSAII (Michael W. Deem and Ramdas Pophale) SiO2 
 PCOD8300574
Probable space group: I M M A
;
_chemical_formula_sum "Si O2"
_cell_formula_units_Z 72
_cell_length_a 22.468982
_cell_length_b 8.753543
_cell_length_c 19.045994
_cell_angle_alpha 90.000000
_cell_angle_beta 90.000000
_cell_angle_gamma 90.000000
_cell_volume 3746.027049
_symmetry_space_group_name_H-M "I M M A"
_symmetry_group_IT_number 74
_symmetry_cell_setting 'orthorhombic'
loop_
_space_group_symop_operation_xyz
x,y,z
-x,1/2-y,z
x,-y,-z
-x,1/2+y,-z
-x,-y,-z
x,1/2+y,-z
-x,y,z
x,1/2-y,z
1/2+x,1/2+y,1/2+z
1/2-x,-y,1/2+z
1/2+x,1/2-y,1/2-z
1/2-x,y,1/2-z
1/2-x,1/2-y,1/2-z
1/2+x,y,1/2-z
1/2-x,1/2+y,1/2+z
1/2+x,-y,1/2+z
loop_
_atom_site_type_symbol
_atom_site_label
_atom_site_fract_x
_atom_site_fract_y
_atom_site_fract_z
Si Si1 0.099286 0.928842 0.671684
Si Si2 0.500000 0.430468 0.923434
Si Si3 0.166698 0.929181 0.076033
Si Si4 0.274736 0.928697 0.173567
Si Si5 0.067890 0.925808 0.182899
O O1 0.090374 0.750000 0.660222
O O2 0.058949 0.017537 0.616568
O O3 0.167161 0.973431 0.657341
O O4 0.079699 0.971279 0.749843
O O5 0.500000 0.250000 0.928669
O O6 0.500000 0.500000 0.000000
O O7 0.164391 0.750000 0.067190
O O8 0.226254 0.979374 0.116361
O O9 0.109387 0.985519 0.119936
O O10 0.165268 0.000000 0.000000
O O11 0.290280 0.750000 0.169089
O O12 0.250000 0.970517 0.250000
O O13 0.083496 0.750000 0.202252
O O14 0.000000 0.942470 0.157964
#
# Coordination Sequence:
#
# PCOD8300574 Si02
#       5
#    16   8  16  16  16
#     4  12  24  38  62  97 128 158 204 257 312 369
#     4  12  26  46  68  92 127 166 205 254 312 372
#     4  10  22  39  60  89 123 161 206 255 310 368
#     4  10  20  39  64  87 118 165 216 255 304 370
#     4  10  20  38  64  89 118 165 212 249 300 371
#
# _framework density 19.220362999999999
#
# number of rings (size 3 to 8) (size 9 to 14) (size 15 to 20)
#    0.000    1.333    3.333    3.000    0.000    3.556 
#    0.000    2.222    0.000    0.000    0.000    0.000 
#    0.000    0.000    0.000    0.000    0.000    0.000 
#
# Total GULP energy -446579.055121 kJ/mol
# GULP energy per Si atom -12404.973753 kJ/mol
# Density = 1.917662 g / cm^3
# Si number density = 19.220363 Si / 1000 Ang^3
#
#
#
# Elastic Constant Matrix: (Units=GPa)
#
#
# Indices 1 2 3 4 5 6 
#
# 1 147.6320 56.0579 79.0631 0.0000 0.0000 0.0000
# 2 56.0579 102.5016 56.3144 0.0000 0.0000 0.0000
# 3 79.0631 56.3144 170.8726 0.0000 0.0000 0.0000
# 4 0.0000 0.0000 0.0000 36.1847 0.0000 0.0000
# 5 0.0000 0.0000 0.0000 0.0000 36.9536 0.0000
# 6 0.0000 0.0000 0.0000 0.0000 0.0000 21.1680
#
#
#
# Elastic Compliance Matrix: (Units=1/GPa)
#
#
# Indices 1 2 3 4 5 6 
#
# 1 0.009967 -0.003562 -0.003438 0.000000 0.000000 0.000000
# 2 -0.003562 0.013186 -0.002697 0.000000 0.000000 0.000000
# 3 -0.003438 -0.002697 0.008332 0.000000 0.000000 0.000000
# 4 0.000000 0.000000 0.000000 0.027636 0.000000 0.000000
# 5 0.000000 0.000000 0.000000 0.000000 0.027061 0.000000
# 6 0.000000 0.000000 0.000000 0.000000 0.000000 0.047241
#
#
# Mechanical properties :
#
#
# Convention : Reuss Voigt Hill
#
# Bulk Modulus (GPa) = 82.71165 89.31967 86.01566
# Shear Modulus (GPa) = 31.87774 34.16597 33.02186
#
# Velocity S-wave (km/s) = 4.07694 4.22072 4.14945
# Velocity P-wave (km/s) = 8.08014 8.38600 8.23449
#
# Compressibility (1/GPa) = 0.01209020
#
# Stress axis : x y z
#
# Youngs Moduli (GPa) = 100.32686 75.83698 120.01870
#
# Poissons Ratio (x) = 0.27016 0.41261
# Poissons Ratio (y) = 0.35740 0.32374
# Poissons Ratio (z) = 0.34491 0.20457
#
# Static dielectric constant tensor:
#      x y z
#    x 3.546950 0.000000 0.000000 
#    y 0.000000 3.469080 0.000000 
#    z 0.000000 0.000000 3.990750 
# 
# 
# High freq. dielectric constant tensor:
#      x y z
#    x 1.768280 0.000000 0.000000 
#    y 0.000000 1.741100 0.000000 
#    z 0.000000 0.000000 1.747300 
# 
# From -- ./inp_files/39477.got.cif
#   From: 2010.03.12/outbox.cif.g09.slc.cpg/sg74_20_cif.got.tgz:39477.got - 2010.04.16 15:46:19.
