data_PCOD8300673
_publ_section_title
;
Structure prediction by ZEFSAII (Michael W. Deem and Ramdas Pophale) SiO2 
 PCOD8300673
Probable space group: I M M A
;
_chemical_formula_sum "Si O2"
_cell_formula_units_Z 80
_cell_length_a 22.331762
_cell_length_b 17.155266
_cell_length_c 10.893970
_cell_angle_alpha 90.000000
_cell_angle_beta 90.000000
_cell_angle_gamma 90.000000
_cell_volume 4173.559622
_symmetry_space_group_name_H-M "I M M A"
_symmetry_group_IT_number 74
_symmetry_cell_setting 'orthorhombic'
loop_
_space_group_symop_operation_xyz
x,y,z
-x,1/2-y,z
x,-y,-z
-x,1/2+y,-z
-x,-y,-z
x,1/2+y,-z
-x,y,z
x,1/2-y,z
1/2+x,1/2+y,1/2+z
1/2-x,-y,1/2+z
1/2+x,1/2-y,1/2-z
1/2-x,y,1/2-z
1/2-x,1/2-y,1/2-z
1/2+x,y,1/2-z
1/2-x,1/2+y,1/2+z
1/2+x,-y,1/2+z
loop_
_atom_site_type_symbol
_atom_site_label
_atom_site_fract_x
_atom_site_fract_y
_atom_site_fract_z
Si Si1 0.162132 0.161642 0.007884
Si Si2 0.798840 0.336552 0.498920
Si Si3 0.316158 0.580141 0.756362
Si Si4 0.933294 0.839515 0.193123
Si Si5 0.889159 0.046802 0.615002
O O1 0.144520 0.250000 0.040510
O O2 0.115986 0.130216 0.904603
O O3 0.229899 0.156302 0.958894
O O4 0.156892 0.110882 0.129613
O O5 0.822648 0.250000 0.531248
O O6 0.808427 0.349076 0.353310
O O7 0.833105 0.403038 0.570520
O O8 0.250000 0.541244 0.750000
O O9 0.364843 0.517042 0.792295
O O10 0.919182 0.750000 0.231684
O O11 0.933442 0.894751 0.314047
O O12 0.000000 0.845109 0.135759
O O13 0.919736 0.000000 0.500000
#
# Coordination Sequence:
#
# PCOD8300673 Si02
#       5
#    16  16  16  16  16
#     4   9  18  33  54  78 105 140 178 219 267 321
#     4   9  17  31  53  80 107 137 176 216 263 326
#     4   9  18  31  50  78 112 140 164 208 271 326
#     4  10  22  39  57  76 102 141 187 230 267 308
#     4  10  21  34  51  79 108 139 174 218 273 325
#
# _framework density 19.168291
#
# number of rings (size 3 to 8) (size 9 to 14) (size 15 to 20)
#    0.000    2.600    0.000    1.200    2.800    3.600 
#    0.000    5.000    0.000    1.200    0.000   11.200 
#    0.000    0.000    0.000    0.000    0.000    0.000 
#
# Total GULP energy -495757.734639 kJ/mol
# GULP energy per Si atom -12393.943366 kJ/mol
# Density = 1.912466 g / cm^3
# Si number density = 19.168291 Si / 1000 Ang^3
#
#
#
# Elastic Constant Matrix: (Units=GPa)
#
#
# Indices 1 2 3 4 5 6 
#
# 1 68.9913 24.0225 39.8341 0.0000 0.0000 0.0000
# 2 24.0225 78.6800 41.8040 0.0000 0.0000 0.0000
# 3 39.8341 41.8040 98.4486 0.0000 0.0000 0.0000
# 4 0.0000 0.0000 0.0000 27.5105 0.0000 0.0000
# 5 0.0000 0.0000 0.0000 0.0000 19.5607 0.0000
# 6 0.0000 0.0000 0.0000 0.0000 0.0000 0.1628
#
#
#
# Elastic Compliance Matrix: (Units=1/GPa)
#
#
# Indices 1 2 3 4 5 6 
#
# 1 0.019214 -0.002241 -0.006823 0.000000 0.000000 0.000000
# 2 -0.002241 0.016674 -0.006173 0.000000 0.000000 0.000000
# 3 -0.006823 -0.006173 0.015540 0.000000 0.000000 0.000000
# 4 0.000000 0.000000 0.000000 0.036350 0.000000 0.000000
# 5 0.000000 0.000000 0.000000 0.000000 0.051123 0.000000
# 6 0.000000 0.000000 0.000000 0.000000 0.000000 6.144345
#
#
# Mechanical properties :
#
#
# Convention : Reuss Voigt Hill
#
# Bulk Modulus (GPa) = 47.72598 50.82678 49.27638
# Shear Modulus (GPa) = 0.79105 18.81074 9.80089
#
# Velocity S-wave (km/s) = 0.64310 3.13604 2.26366
# Velocity P-wave (km/s) = 5.05014 6.29974 5.70923
#
# Compressibility (1/GPa) = 0.02095295
#
# Stress axis : x y z
#
# Youngs Moduli (GPa) = 52.04455 59.97332 64.35204
#
# Poissons Ratio (x) = 0.13443 0.43905
# Poissons Ratio (y) = 0.11666 0.39727
# Poissons Ratio (z) = 0.35508 0.37023
#
# Static dielectric constant tensor:
#      x y z
#    x 3.232250 0.000000 0.000000 
#    y 0.000000 3.570200 0.000000 
#    z 0.000000 0.000000 3.510510 
# 
# 
# High freq. dielectric constant tensor:
#      x y z
#    x 1.718060 0.000000 0.000000 
#    y 0.000000 1.752930 0.000000 
#    z 0.000000 0.000000 1.740720 
# 
# From -- ./inp_files/20505.got.cif
#   From: 2010.03.12/outbox.cif.g09.slc.cpg/sg74_11_cif.got.tgz:20505.got - 2010.04.16 15:46:19.
