data_PCOD8300763
_publ_section_title
;
Structure prediction by ZEFSAII (Michael W. Deem and Ramdas Pophale) SiO2 
 PCOD8300763
Probable space group: I M M A
;
_chemical_formula_sum "Si O2"
_cell_formula_units_Z 96
_cell_length_a 9.002856
_cell_length_b 23.718973
_cell_length_c 23.779586
_cell_angle_alpha 90.000000
_cell_angle_beta 90.000000
_cell_angle_gamma 90.000000
_cell_volume 5077.857087
_symmetry_space_group_name_H-M "I M M A"
_symmetry_group_IT_number 74
_symmetry_cell_setting 'orthorhombic'
loop_
_space_group_symop_operation_xyz
x,y,z
-x,1/2-y,z
x,-y,-z
-x,1/2+y,-z
-x,-y,-z
x,1/2+y,-z
-x,y,z
x,1/2-y,z
1/2+x,1/2+y,1/2+z
1/2-x,-y,1/2+z
1/2+x,1/2-y,1/2-z
1/2-x,y,1/2-z
1/2-x,1/2-y,1/2-z
1/2+x,y,1/2-z
1/2-x,1/2+y,1/2+z
1/2+x,-y,1/2+z
loop_
_atom_site_type_symbol
_atom_site_label
_atom_site_fract_x
_atom_site_fract_y
_atom_site_fract_z
Si Si1 0.174045 0.184312 0.308439
Si Si2 0.672419 0.905856 0.477089
Si Si3 0.329844 0.514031 0.102385
Si Si4 0.174982 0.100278 0.106308
Si Si5 0.831075 0.110440 0.693566
Si Si6 0.672831 0.313576 0.611919
O O1 0.203621 0.250000 0.320830
O O2 0.250000 0.166037 0.250000
O O3 0.245807 0.149543 0.359147
O O4 0.000000 0.170754 0.304248
O O5 0.500000 0.921099 0.470406
O O6 0.762361 0.960340 0.455168
O O7 0.713943 0.891246 0.540829
O O8 0.717690 0.850723 0.441864
O O9 0.500000 0.497234 0.091235
O O10 0.238629 0.460238 0.124151
O O11 0.312839 0.559045 0.151310
O O12 0.000000 0.102568 0.118140
O O13 0.750000 0.092374 0.750000
O O14 0.759482 0.166445 0.667201
O O15 0.000000 0.124255 0.707528
O O16 0.500000 0.319086 0.625526
O O17 0.719406 0.250000 0.597685
#
# Coordination Sequence:
#
# PCOD8300763 Si02
#       6
#    16  16  16  16  16  16
#     4  10  22  41  62  83 110 143 179 222 271 321
#     4   9  19  35  54  79 111 145 182 223 269 320
#     4  10  21  36  54  78 110 145 182 227 275 321
#     4  11  22  35  57  86 113 144 181 220 264 322
#     4  10  21  36  54  76 103 138 178 222 270 317
#     4   9  18  34  55  77 104 140 179 220 265 312
#
# _framework density 18.905612999999999
#
# number of rings (size 3 to 8) (size 9 to 14) (size 15 to 20)
#    0.000    2.167    0.000    2.500    0.000    8.333 
#    0.000    3.333    0.000    0.000    0.000    0.000 
#    0.000    0.000    0.000    0.000    0.000    0.000 
#
# Total GULP energy -595375.646875 kJ/mol
# GULP energy per Si atom -12403.659310 kJ/mol
# Density = 1.886258 g / cm^3
# Si number density = 18.905613 Si / 1000 Ang^3
#
#
#
# Elastic Constant Matrix: (Units=GPa)
#
#
# Indices 1 2 3 4 5 6 
#
# 1 106.6781 53.7018 55.2315 0.0000 0.0000 0.0000
# 2 53.7018 97.8112 39.5027 0.0000 0.0000 0.0000
# 3 55.2315 39.5027 100.5461 0.0000 0.0000 0.0000
# 4 0.0000 0.0000 0.0000 24.6753 0.0000 0.0000
# 5 0.0000 0.0000 0.0000 0.0000 34.3647 0.0000
# 6 0.0000 0.0000 0.0000 0.0000 0.0000 33.3500
#
#
#
# Elastic Compliance Matrix: (Units=1/GPa)
#
#
# Indices 1 2 3 4 5 6 
#
# 1 0.015651 -0.006087 -0.006206 0.000000 0.000000 0.000000
# 2 -0.006087 0.014519 -0.002361 0.000000 0.000000 0.000000
# 3 -0.006206 -0.002361 0.014282 0.000000 0.000000 0.000000
# 4 0.000000 0.000000 0.000000 0.040526 0.000000 0.000000
# 5 0.000000 0.000000 0.000000 0.000000 0.029100 0.000000
# 6 0.000000 0.000000 0.000000 0.000000 0.000000 0.029985
#
#
# Mechanical properties :
#
#
# Convention : Reuss Voigt Hill
#
# Bulk Modulus (GPa) = 66.02637 66.87862 66.45249
# Shear Modulus (GPa) = 28.02396 28.91796 28.47096
#
# Velocity S-wave (km/s) = 3.85425 3.91525 3.88487
# Velocity P-wave (km/s) = 7.40318 7.47601 7.43968
#
# Compressibility (1/GPa) = 0.01514546
#
# Stress axis : x y z
#
# Youngs Moduli (GPa) = 63.89322 68.87544 70.01679
#
# Poissons Ratio (x) = 0.41922 0.43453
# Poissons Ratio (y) = 0.38889 0.16529
# Poissons Ratio (z) = 0.39653 0.16260
#
# Static dielectric constant tensor:
#      x y z
#    x 3.607630 0.000000 0.000000 
#    y 0.000000 3.497950 0.000000 
#    z 0.000000 0.000000 3.520820 
# 
# 
# High freq. dielectric constant tensor:
#      x y z
#    x 1.743590 0.000000 0.000000 
#    y 0.000000 1.735250 0.000000 
#    z 0.000000 0.000000 1.736320 
# 
# From -- ./inp_files/49124.got.cif
#   From: 2010.03.12/outbox.cif.g09.slc.cpg/sg74_25_cif.got.tgz:49124.got - 2010.04.16 15:46:19.
