data_PCOD8300513
_publ_section_title
;
Structure prediction by ZEFSAII (Michael W. Deem and Ramdas Pophale) SiO2 
 PCOD8300513
Probable space group: I M M A
;
_chemical_formula_sum "Si O2"
_cell_formula_units_Z 112
_cell_length_a 22.929749
_cell_length_b 19.786722
_cell_length_c 11.556690
_cell_angle_alpha 90.000000
_cell_angle_beta 90.000000
_cell_angle_gamma 90.000000
_cell_volume 5243.323055
_symmetry_space_group_name_H-M "I M M A"
_symmetry_group_IT_number 74
_symmetry_cell_setting 'orthorhombic'
loop_
_space_group_symop_operation_xyz
x,y,z
-x,1/2-y,z
x,-y,-z
-x,1/2+y,-z
-x,-y,-z
x,1/2+y,-z
-x,y,z
x,1/2-y,z
1/2+x,1/2+y,1/2+z
1/2-x,-y,1/2+z
1/2+x,1/2-y,1/2-z
1/2-x,y,1/2-z
1/2-x,1/2-y,1/2-z
1/2+x,y,1/2-z
1/2-x,1/2+y,1/2+z
1/2+x,-y,1/2+z
loop_
_atom_site_type_symbol
_atom_site_label
_atom_site_fract_x
_atom_site_fract_y
_atom_site_fract_z
Si Si1 0.651578 0.567436 0.251849
Si Si2 0.436087 0.176934 0.169116
Si Si3 0.725919 0.829825 0.625270
Si Si4 0.097244 0.672722 0.916324
Si Si5 0.749295 0.932068 0.433798
Si Si6 0.930738 0.468350 0.375692
Si Si7 0.434702 0.670989 0.335897
O O1 0.685305 0.559633 0.374502
O O2 0.700338 0.580429 0.157681
O O3 0.608900 0.504293 0.222149
O O4 0.610721 0.633439 0.253488
O O5 0.500000 0.185408 0.114942
O O6 0.402129 0.250000 0.148795
O O7 0.444565 0.163486 0.306477
O O8 0.407767 0.109800 0.113954
O O9 0.734442 0.750000 0.606435
O O10 0.750000 0.852676 0.750000
O O11 0.659695 0.856130 0.621760
O O12 0.756507 0.869021 0.520595
O O13 0.106059 0.750000 0.949357
O O14 0.071003 0.640449 0.033201
O O15 0.764098 0.000000 0.500000
O O16 0.918771 0.500000 0.500000
O O17 0.000000 0.471444 0.342610
O O18 0.500000 0.655895 0.292001
O O19 0.420810 0.750000 0.328603
#
# Coordination Sequence:
#
# PCOD8300513 Si02
#       7
#    16  16  16  16  16  16  16
#     4  11  24  41  62  90 124 175 220 262 328 395
#     4   9  18  34  60  91 118 156 209 262 318 378
#     4  10  22  40  64  91 122 163 214 273 328 381
#     4   9  17  32  55  88 127 159 194 252 320 373
#     4  11  26  42  62  91 126 172 223 274 325 389
#     4  10  22  40  62  89 127 170 212 269 333 395
#     4  10  20  37  64  97 132 168 209 263 324 391
#
# _framework density 21.360498
#
# number of rings (size 3 to 8) (size 9 to 14) (size 15 to 20)
#    0.000    2.000    1.429    1.286    4.000    3.429 
#    0.000    2.143    0.000    6.000    0.000    0.000 
#    0.000    0.000    0.000    0.000    0.000    0.000 
#
# Total GULP energy -693855.070146 kJ/mol
# GULP energy per Si atom -12390.269110 kJ/mol
# Density = 2.131188 g / cm^3
# Si number density = 21.360498 Si / 1000 Ang^3
#
#
#
# Elastic Constant Matrix: (Units=GPa)
#
#
# Indices 1 2 3 4 5 6 
#
# 1 97.9816 50.4235 35.0449 0.0000 0.0000 0.0000
# 2 50.4235 140.3205 65.3746 0.0000 0.0000 0.0000
# 3 35.0449 65.3746 96.1084 0.0000 0.0000 0.0000
# 4 0.0000 0.0000 0.0000 32.9965 0.0000 0.0000
# 5 0.0000 0.0000 0.0000 0.0000 31.6597 0.0000
# 6 0.0000 0.0000 0.0000 0.0000 0.0000 26.2716
#
#
#
# Elastic Compliance Matrix: (Units=1/GPa)
#
#
# Indices 1 2 3 4 5 6 
#
# 1 0.012849 -0.003564 -0.002261 0.000000 0.000000 0.000000
# 2 -0.003564 0.011421 -0.006469 0.000000 0.000000 0.000000
# 3 -0.002261 -0.006469 0.015630 0.000000 0.000000 0.000000
# 4 0.000000 0.000000 0.000000 0.030306 0.000000 0.000000
# 5 0.000000 0.000000 0.000000 0.000000 0.031586 0.000000
# 6 0.000000 0.000000 0.000000 0.000000 0.000000 0.038064
#
#
# Mechanical properties :
#
#
# Convention : Reuss Voigt Hill
#
# Bulk Modulus (GPa) = 65.31029 70.67739 67.99384
# Shear Modulus (GPa) = 29.49015 30.42340 29.95677
#
# Velocity S-wave (km/s) = 3.71966 3.77806 3.74898
# Velocity P-wave (km/s) = 7.00639 7.22436 7.11621
#
# Compressibility (1/GPa) = 0.01531152
#
# Stress axis : x y z
#
# Youngs Moduli (GPa) = 77.82912 87.55624 63.97948
#
# Poissons Ratio (x) = 0.31202 0.14466
# Poissons Ratio (y) = 0.27736 0.41391
# Poissons Ratio (z) = 0.17597 0.56644
#
# Static dielectric constant tensor:
#      x y z
#    x 3.930080 0.000000 0.000000 
#    y 0.000000 3.835490 0.000000 
#    z 0.000000 0.000000 3.812830 
# 
# 
# High freq. dielectric constant tensor:
#      x y z
#    x 1.840580 0.000000 0.000000 
#    y 0.000000 1.829630 0.000000 
#    z 0.000000 0.000000 1.826610 
# 
# From -- ./inp_files/25400.got.cif
#   From: 2010.03.12/outbox.cif.g09.slc.cpg/sg74_13_cif.got.tgz:25400.got - 2010.04.16 15:46:19.
