data_PCOD8300680
_publ_section_title
;
Structure prediction by ZEFSAII (Michael W. Deem and Ramdas Pophale) SiO2 
 PCOD8300680
Probable space group: I M M A
;
_chemical_formula_sum "Si O2"
_cell_formula_units_Z 88
_cell_length_a 21.276735
_cell_length_b 9.081365
_cell_length_c 22.971775
_cell_angle_alpha 90.000000
_cell_angle_beta 90.000000
_cell_angle_gamma 90.000000
_cell_volume 4438.647635
_symmetry_space_group_name_H-M "I M M A"
_symmetry_group_IT_number 74
_symmetry_cell_setting 'orthorhombic'
loop_
_space_group_symop_operation_xyz
x,y,z
-x,1/2-y,z
x,-y,-z
-x,1/2+y,-z
-x,-y,-z
x,1/2+y,-z
-x,y,z
x,1/2-y,z
1/2+x,1/2+y,1/2+z
1/2-x,-y,1/2+z
1/2+x,1/2-y,1/2-z
1/2-x,y,1/2-z
1/2-x,1/2-y,1/2-z
1/2+x,y,1/2-z
1/2-x,1/2+y,1/2+z
1/2+x,-y,1/2+z
loop_
_atom_site_type_symbol
_atom_site_label
_atom_site_fract_x
_atom_site_fract_y
_atom_site_fract_z
Si Si1 0.000000 0.076486 0.062674
Si Si2 0.627901 0.579385 0.625842
Si Si3 0.926814 0.086703 0.554358
Si Si4 0.322255 0.424048 0.739972
Si Si5 0.750637 0.581531 0.558725
Si Si6 0.142713 0.575959 0.646594
O O1 0.060751 0.028692 0.100369
O O2 0.000000 0.250000 0.051107
O O3 0.000000 0.000000 0.000000
O O4 0.626873 0.750000 0.645559
O O5 0.648525 0.480243 0.679892
O O6 0.678158 0.553915 0.574609
O O7 0.896292 0.250000 0.559323
O O8 0.000000 0.104138 0.543786
O O9 0.895639 0.000000 0.500000
O O10 0.916081 0.989968 0.611764
O O11 0.330840 0.250000 0.743078
O O12 0.250000 0.470772 0.750000
O O13 0.361122 0.501850 0.790668
O O14 0.768510 0.500000 0.500000
O O15 0.765323 0.750000 0.546654
O O16 0.793889 0.527418 0.612446
O O17 0.136397 0.750000 0.653596
#
# Coordination Sequence:
#
# PCOD8300680 Si02
#       6
#     8  16  16  16  16  16
#     4  10  22  40  66  94 124 164 207 252 303 362
#     4  10  21  40  61  86 120 159 202 245 298 361
#     4  10  21  38  59  84 117 154 193 239 290 347
#     4  11  23  39  61  88 116 152 196 246 302 360
#     4  10  21  34  54  84 117 150 188 238 293 350
#     4  11  22  37  59  85 115 155 197 242 297 356
#
# _framework density 19.825858
#
# number of rings (size 3 to 8) (size 9 to 14) (size 15 to 20)
#    0.000    1.636    1.818    2.727    0.000    6.182 
#    1.636    0.000    0.000    0.000    0.000    0.000 
#    0.000    0.000    0.000    0.000    0.000    0.000 
#
# Total GULP energy -545674.542450 kJ/mol
# GULP energy per Si atom -12401.694147 kJ/mol
# Density = 1.978073 g / cm^3
# Si number density = 19.825858 Si / 1000 Ang^3
#
#
#
# Elastic Constant Matrix: (Units=GPa)
#
#
# Indices 1 2 3 4 5 6 
#
# 1 71.2077 36.1739 30.1826 0.0000 0.0000 0.0000
# 2 36.1739 95.1032 67.8836 0.0000 0.0000 0.0000
# 3 30.1826 67.8836 130.6466 0.0000 0.0000 0.0000
# 4 0.0000 0.0000 0.0000 44.2720 0.0000 0.0000
# 5 0.0000 0.0000 0.0000 0.0000 25.8019 0.0000
# 6 0.0000 0.0000 0.0000 0.0000 0.0000 22.3138
#
#
#
# Elastic Compliance Matrix: (Units=1/GPa)
#
#
# Indices 1 2 3 4 5 6 
#
# 1 0.017477 -0.005986 -0.000928 0.000000 0.000000 0.000000
# 2 -0.005986 0.018764 -0.008367 0.000000 0.000000 0.000000
# 3 -0.000928 -0.008367 0.012216 0.000000 0.000000 0.000000
# 4 0.000000 0.000000 0.000000 0.022588 0.000000 0.000000
# 5 0.000000 0.000000 0.000000 0.000000 0.038757 0.000000
# 6 0.000000 0.000000 0.000000 0.000000 0.000000 0.044815
#
#
# Mechanical properties :
#
#
# Convention : Reuss Voigt Hill
#
# Bulk Modulus (GPa) = 55.87537 62.82642 59.35090
# Shear Modulus (GPa) = 26.15851 29.32536 27.74193
#
# Velocity S-wave (km/s) = 3.63631 3.85014 3.74475
# Velocity P-wave (km/s) = 6.77308 7.17793 6.97844
#
# Compressibility (1/GPa) = 0.01789697
#
# Stress axis : x y z
#
# Youngs Moduli (GPa) = 57.21690 53.29433 81.86075
#
# Poissons Ratio (x) = 0.31900 0.07593
# Poissons Ratio (y) = 0.34248 0.68491
# Poissons Ratio (z) = 0.05307 0.44590
#
# Static dielectric constant tensor:
#      x y z
#    x 3.592800 0.000000 0.000000 
#    y 0.000000 3.694880 0.000000 
#    z 0.000000 0.000000 3.518780 
# 
# 
# High freq. dielectric constant tensor:
#      x y z
#    x 1.768550 0.000000 0.000000 
#    y 0.000000 1.777920 0.000000 
#    z 0.000000 0.000000 1.776020 
# 
# From -- ./inp_files/48721.got.cif
#   From: 2010.03.12/outbox.cif.g09.slc.cpg/sg74_25_cif.got.tgz:48721.got - 2010.04.16 15:46:19.
