data_PCOD8300799
_publ_section_title
;
Structure prediction by ZEFSAII (Michael W. Deem and Ramdas Pophale) SiO2 
 PCOD8300799
Probable space group: I M M A
;
_chemical_formula_sum "Si O2"
_cell_formula_units_Z 112
_cell_length_a 15.904742
_cell_length_b 12.944581
_cell_length_c 27.073924
_cell_angle_alpha 90.000000
_cell_angle_beta 90.000000
_cell_angle_gamma 90.000000
_cell_volume 5573.985459
_symmetry_space_group_name_H-M "I M M A"
_symmetry_group_IT_number 74
_symmetry_cell_setting 'orthorhombic'
loop_
_space_group_symop_operation_xyz
x,y,z
-x,1/2-y,z
x,-y,-z
-x,1/2+y,-z
-x,-y,-z
x,1/2+y,-z
-x,y,z
x,1/2-y,z
1/2+x,1/2+y,1/2+z
1/2-x,-y,1/2+z
1/2+x,1/2-y,1/2-z
1/2-x,y,1/2-z
1/2-x,1/2-y,1/2-z
1/2+x,y,1/2-z
1/2-x,1/2+y,1/2+z
1/2+x,-y,1/2+z
loop_
_atom_site_type_symbol
_atom_site_label
_atom_site_fract_x
_atom_site_fract_y
_atom_site_fract_z
Si Si1 0.258212 0.495756 0.805050
Si Si2 0.092568 0.365407 0.325125
Si Si3 0.672215 0.872375 0.622342
Si Si4 0.594543 0.475294 0.556663
Si Si5 0.094775 0.626017 0.468272
Si Si6 0.343323 0.131894 0.072120
Si Si7 0.244616 0.129373 0.599727
O O1 0.250000 0.450917 0.750000
O O2 0.346673 0.553368 0.800468
O O3 0.184890 0.576985 0.823079
O O4 0.260122 0.400721 0.842862
O O5 0.124980 0.250000 0.312375
O O6 0.088664 0.377655 0.384502
O O7 0.000000 0.384163 0.303560
O O8 0.662439 0.750000 0.627104
O O9 0.754704 0.914890 0.592218
O O10 0.595824 0.920674 0.590946
O O11 0.614930 0.500000 0.500000
O O12 0.500000 0.428625 0.561237
O O13 0.664647 0.396158 0.576039
O O14 0.098244 0.750000 0.469971
O O15 0.119220 0.579895 0.522633
O O16 0.163543 0.580153 0.429334
O O17 0.000000 0.590730 0.454136
O O18 0.321358 0.250000 0.059475
O O19 0.233586 0.250000 0.595868
#
# Coordination Sequence:
#
# PCOD8300799 Si02
#       7
#    16  16  16  16  16  16  16
#     4  10  21  37  56  76 101 137 184 236 285 332
#     4   9  17  30  51  81 115 147 177 212 260 323
#     4   9  18  33  54  80 111 144 176 218 274 332
#     4  10  21  36  56  83 112 144 185 230 277 332
#     4   9  16  27  48  79 111 141 171 202 243 305
#     4   8  13  24  46  76 111 147 172 190 227 298
#     4  10  22  39  57  78 108 145 185 232 281 328
#
# _framework density 20.093342
#
# number of rings (size 3 to 8) (size 9 to 14) (size 15 to 20)
#    0.000    2.714    0.000    2.571    0.000    6.000 
#    0.000    4.286    0.000    9.000    0.000    4.000 
#    0.000    0.000    0.000    0.000    0.000    0.000 
#
# Total GULP energy -694064.739519 kJ/mol
# GULP energy per Si atom -12394.013206 kJ/mol
# Density = 2.004761 g / cm^3
# Si number density = 20.093342 Si / 1000 Ang^3
#
#
#
# Elastic Constant Matrix: (Units=GPa)
#
#
# Indices 1 2 3 4 5 6 
#
# 1 110.1626 21.9980 48.2471 0.0000 0.0000 0.0000
# 2 21.9980 27.5716 20.7589 0.0000 0.0000 0.0000
# 3 48.2471 20.7589 130.4672 0.0000 0.0000 0.0000
# 4 0.0000 0.0000 0.0000 23.4790 0.0000 0.0000
# 5 0.0000 0.0000 0.0000 0.0000 10.7893 0.0000
# 6 0.0000 0.0000 0.0000 0.0000 0.0000 25.7924
#
#
#
# Elastic Compliance Matrix: (Units=1/GPa)
#
#
# Indices 1 2 3 4 5 6 
#
# 1 0.011923 -0.007036 -0.003290 0.000000 0.000000 0.000000
# 2 -0.007036 0.045358 -0.004615 0.000000 0.000000 0.000000
# 3 -0.003290 -0.004615 0.009616 0.000000 0.000000 0.000000
# 4 0.000000 0.000000 0.000000 0.042591 0.000000 0.000000
# 5 0.000000 0.000000 0.000000 0.000000 0.092685 0.000000
# 6 0.000000 0.000000 0.000000 0.000000 0.000000 0.038771
#
#
# Mechanical properties :
#
#
# Convention : Reuss Voigt Hill
#
# Bulk Modulus (GPa) = 27.01618 50.02326 38.51972
# Shear Modulus (GPa) = 17.65766 23.82532 20.74149
#
# Velocity S-wave (km/s) = 2.96764 3.44718 3.21636
# Velocity P-wave (km/s) = 5.02166 6.38698 5.74503
#
# Compressibility (1/GPa) = 0.03701485
#
# Stress axis : x y z
#
# Youngs Moduli (GPa) = 83.86950 22.04706 103.99762
#
# Poissons Ratio (x) = 0.15513 0.34212
# Poissons Ratio (y) = 0.59011 0.47994
# Poissons Ratio (z) = 0.27591 0.10175
#
# Static dielectric constant tensor:
#      x y z
#    x 3.678850 0.000000 0.000000 
#    y 0.000000 3.540040 0.000000 
#    z 0.000000 0.000000 3.511380 
# 
# 
# High freq. dielectric constant tensor:
#      x y z
#    x 1.775670 0.000000 0.000000 
#    y 0.000000 1.788150 0.000000 
#    z 0.000000 0.000000 1.763930 
# 
# From -- ./inp_files/67212.got.cif
#   From: 2010.03.12/outbox.cif.g09.slc.cpg/sg74_34_cif.got.tgz:67212.got - 2010.04.16 15:46:19.
