data_PCOD8300245
_publ_section_title
;
Structure prediction by ZEFSAII (Michael W. Deem and Ramdas Pophale) SiO2 
 PCOD8300245
Probable space group: I M M A
;
_chemical_formula_sum "Si O2"
_cell_formula_units_Z 96
_cell_length_a 15.243204
_cell_length_b 22.144219
_cell_length_c 14.241991
_cell_angle_alpha 90.000000
_cell_angle_beta 90.000000
_cell_angle_gamma 90.000000
_cell_volume 4807.367650
_symmetry_space_group_name_H-M "I M M A"
_symmetry_group_IT_number 74
_symmetry_cell_setting 'orthorhombic'
loop_
_space_group_symop_operation_xyz
x,y,z
-x,1/2-y,z
x,-y,-z
-x,1/2+y,-z
-x,-y,-z
x,1/2+y,-z
-x,y,z
x,1/2-y,z
1/2+x,1/2+y,1/2+z
1/2-x,-y,1/2+z
1/2+x,1/2-y,1/2-z
1/2-x,y,1/2-z
1/2-x,1/2-y,1/2-z
1/2+x,y,1/2-z
1/2-x,1/2+y,1/2+z
1/2+x,-y,1/2+z
loop_
_atom_site_type_symbol
_atom_site_label
_atom_site_fract_x
_atom_site_fract_y
_atom_site_fract_z
Si Si1 0.601598 0.678922 0.494553
Si Si2 0.246450 0.999007 0.894411
Si Si3 0.595227 0.582276 0.125705
Si Si4 0.833922 0.388098 0.808317
Si Si5 0.600975 0.181368 0.019376
Si Si6 0.245665 0.860519 0.856165
O O1 0.500000 0.658110 0.509923
O O2 0.606125 0.750000 0.480718
O O3 0.640860 0.650645 0.399029
O O4 0.660206 0.660996 0.584882
O O5 0.345096 0.024196 0.889902
O O6 0.183852 0.042463 0.835747
O O7 0.245047 0.932614 0.852665
O O8 0.210980 0.000000 0.000000
O O9 0.500000 0.562353 0.091242
O O10 0.588290 0.606713 0.232751
O O11 0.631397 0.638166 0.064869
O O12 0.750000 0.361772 0.750000
O O13 0.500000 0.170342 0.049708
O O14 0.614753 0.250000 0.985747
O O15 0.664277 0.166261 0.104740
O O16 0.250000 0.835922 0.750000
#
# Coordination Sequence:
#
# PCOD8300245 Si02
#       6
#    16  16  16  16  16  16
#     4  11  25  43  62  89 125 163 206 253 301 359
#     4  11  20  39  62  84 117 155 196 244 298 358
#     4  10  20  35  60  91 121 151 186 237 300 364
#     4  10  20  38  63  91 122 157 192 239 300 366
#     4  10  22  39  60  90 123 155 198 249 299 354
#     4  12  24  41  63  86 117 161 208 253 303 353
#
# _framework density 19.969348
#
# number of rings (size 3 to 8) (size 9 to 14) (size 15 to 20)
#    0.000    1.333    3.333    3.500    0.000    4.000 
#    0.000    7.500    0.000    0.000    0.000    0.000 
#    0.000    0.000    0.000    0.000    0.000    0.000 
#
# Total GULP energy -594919.514204 kJ/mol
# GULP energy per Si atom -12394.156546 kJ/mol
# Density = 1.992390 g / cm^3
# Si number density = 19.969348 Si / 1000 Ang^3
#
#
#
# Elastic Constant Matrix: (Units=GPa)
#
#
# Indices 1 2 3 4 5 6 
#
# 1 109.9592 43.8056 51.2263 -0.0001 0.0000 0.0000
# 2 43.8056 94.0746 20.5150 0.0001 0.0000 0.0000
# 3 51.2263 20.5150 133.4661 0.0005 0.0000 0.0000
# 4 -0.0001 0.0001 0.0005 31.0503 -0.0002 -0.0001
# 5 0.0000 0.0000 0.0000 -0.0002 21.4239 0.0000
# 6 0.0000 0.0000 0.0000 -0.0001 0.0000 27.9149
#
#
#
# Elastic Compliance Matrix: (Units=1/GPa)
#
#
# Indices 1 2 3 4 5 6 
#
# 1 0.013141 -0.005193 -0.004245 0.000000 0.000000 0.000000
# 2 -0.005193 0.013051 -0.000013 0.000000 0.000000 0.000000
# 3 -0.004245 -0.000013 0.009124 0.000000 0.000000 0.000000
# 4 0.000000 0.000000 0.000000 0.032206 0.000000 0.000000
# 5 0.000000 0.000000 0.000000 0.000000 0.046677 0.000000
# 6 0.000000 0.000000 0.000000 0.000000 0.000000 0.035823
#
#
# Mechanical properties :
#
#
# Convention : Reuss Voigt Hill
#
# Bulk Modulus (GPa) = 60.92794 63.17707 62.05251
# Shear Modulus (GPa) = 28.67044 30.87468 29.77256
#
# Velocity S-wave (km/s) = 3.79320 3.93632 3.86542
# Velocity P-wave (km/s) = 7.05418 7.23638 7.14586
#
# Compressibility (1/GPa) = 0.01641283
#
# Stress axis : x y z
#
# Youngs Moduli (GPa) = 76.09773 76.62316 109.60139
#
# Poissons Ratio (x) = 0.39792 0.46531
# Poissons Ratio (y) = 0.39520 0.00140
# Poissons Ratio (z) = 0.32307 0.00098
#
# Static dielectric constant tensor:
#      x y z
#    x 3.789040 0.000000 0.000000 
#    y 0.000000 3.637260 0.000000 
#    z 0.000000 0.000000 3.808200 
# 
# 
# High freq. dielectric constant tensor:
#      x y z
#    x 1.779950 0.000000 0.000000 
#    y 0.000000 1.779440 0.000000 
#    z 0.000000 0.000000 1.790710 
# 
# From -- ./inp_files/32363.got.cif
#   From: 2010.03.12/outbox.cif.g09.slc.cpg/sg74_17_cif.got.tgz:32363.got - 2010.04.16 15:46:19.
