data_PCOD8300252
_publ_section_title
;
Structure prediction by ZEFSAII (Michael W. Deem and Ramdas Pophale) SiO2 
 PCOD8300252
Probable space group: I M M A
;
_chemical_formula_sum "Si O2"
_cell_formula_units_Z 60
_cell_length_a 16.842807
_cell_length_b 9.652277
_cell_length_c 18.871272
_cell_angle_alpha 90.000000
_cell_angle_beta 90.000000
_cell_angle_gamma 90.000000
_cell_volume 3067.929838
_symmetry_space_group_name_H-M "I M M A"
_symmetry_group_IT_number 74
_symmetry_cell_setting 'orthorhombic'
loop_
_space_group_symop_operation_xyz
x,y,z
-x,1/2-y,z
x,-y,-z
-x,1/2+y,-z
-x,-y,-z
x,1/2+y,-z
-x,y,z
x,1/2-y,z
1/2+x,1/2+y,1/2+z
1/2-x,-y,1/2+z
1/2+x,1/2-y,1/2-z
1/2-x,y,1/2-z
1/2-x,1/2-y,1/2-z
1/2+x,y,1/2-z
1/2-x,1/2+y,1/2+z
1/2+x,-y,1/2+z
loop_
_atom_site_type_symbol
_atom_site_label
_atom_site_fract_x
_atom_site_fract_y
_atom_site_fract_z
Si Si1 0.847485 0.250000 0.594831
Si Si2 0.500000 0.094346 0.674916
Si Si3 0.595153 0.250000 0.064618
Si Si4 0.500000 0.750000 0.190050
Si Si5 0.141267 0.406618 0.193583
Si Si6 0.809051 0.466741 0.349536
O O1 0.868727 0.250000 0.513025
O O2 0.796334 0.382908 0.616425
O O3 0.926058 0.250000 0.639985
O O4 0.500000 0.250000 0.639166
O O5 0.500000 0.112992 0.760379
O O6 0.577462 0.004580 0.653604
O O7 0.500000 0.250000 0.063051
O O8 0.626233 0.385582 0.104432
O O9 0.107960 0.250000 0.202426
O O10 0.159605 0.474341 0.269458
O O11 0.222126 0.397191 0.148010
#
# Coordination Sequence:
#
# PCOD8300252 Si02
#       6
#     8   8   8   4  16  16
#     4  12  24  38  58  83 124 166 199 241 280 349
#     4  10  21  35  61  92 119 149 194 251 304 360
#     4  12  26  39  59  85 124 169 204 232 284 359
#     4  10  20  36  48  92 122 148 202 228 288 344
#     4  11  21  38  60  85 120 156 198 248 309 349
#     4  11  23  39  57  85 118 161 203 247 294 351
#
# _framework density 19.557161000000001
#
# number of rings (size 3 to 8) (size 9 to 14) (size 15 to 20)
#    0.400    0.533    6.000    2.000    5.600    2.133 
#    0.000    0.000    0.000    0.000    0.000    5.600 
#    0.000    0.000    0.000    0.000    0.000    0.000 
#
# Total GULP energy -371919.236495 kJ/mol
# GULP energy per Si atom -12397.307883 kJ/mol
# Density = 1.951265 g / cm^3
# Si number density = 19.557161 Si / 1000 Ang^3
#
#
#
# Elastic Constant Matrix: (Units=GPa)
#
#
# Indices 1 2 3 4 5 6 
#
# 1 99.0818 45.3817 15.1494 0.0000 0.0000 0.0000
# 2 45.3817 148.1061 23.9199 0.0000 0.0000 0.0000
# 3 15.1494 23.9199 55.1849 0.0000 0.0000 0.0000
# 4 0.0000 0.0000 0.0000 -119.3092 0.0000 0.0000
# 5 0.0000 0.0000 0.0000 0.0000 26.8686 0.0000
# 6 0.0000 0.0000 0.0000 0.0000 0.0000 35.8689
#
#
#
# Elastic Compliance Matrix: (Units=1/GPa)
#
#
# Indices 1 2 3 4 5 6 
#
# 1 0.011907 -0.003355 -0.001814 0.000000 0.000000 0.000000
# 2 -0.003355 0.008206 -0.002636 0.000000 0.000000 0.000000
# 3 -0.001814 -0.002636 0.019761 0.000000 0.000000 0.000000
# 4 0.000000 0.000000 0.000000 -0.008382 0.000000 0.000000
# 5 0.000000 0.000000 0.000000 0.000000 0.037218 0.000000
# 6 0.000000 0.000000 0.000000 0.000000 0.000000 0.027879
#
#
# Mechanical properties :
#
#
# Convention : Reuss Voigt Hill
#
# Bulk Modulus (GPa) = 41.21446 52.36385 46.78916
# Shear Modulus (GPa) = 41.56678 3.21379 22.39029
#
# Velocity S-wave (km/s) = 4.61521 1.28330 3.38725
# Velocity P-wave (km/s) = 7.03703 5.38783 6.26692
#
# Compressibility (1/GPa) = 0.02426333
#
# Stress axis : x y z
#
# Youngs Moduli (GPa) = 83.98466 121.86596 50.60378
#
# Poissons Ratio (x) = 0.40891 0.09181
# Poissons Ratio (y) = 0.28180 0.13337
# Poissons Ratio (z) = 0.15237 0.32119
#
# Static dielectric constant tensor:
#      x y z
#    x 3.576870 0.000000 0.000000 
#    y 0.000000 4.177430 0.000000 
#    z 0.000000 0.000000 3.259710 
# 
# 
# High freq. dielectric constant tensor:
#      x y z
#    x 1.764010 0.000000 0.000000 
#    y 0.000000 1.778420 0.000000 
#    z 0.000000 0.000000 1.717180 
# 
# From -- ./inp_files/43572.got.cif
#   From: 2010.03.12/outbox.cif.g09.slc.cpg/sg74_22_cif.got.tgz:43572.got - 2010.04.16 15:46:19.
