data_PCOD8300662
_publ_section_title
;
Structure prediction by ZEFSAII (Michael W. Deem and Ramdas Pophale) SiO2 
 PCOD8300662
Probable space group: I M M A
;
_chemical_formula_sum "Si O2"
_cell_formula_units_Z 80
_cell_length_a 17.029948
_cell_length_b 26.733469
_cell_length_c 9.803065
_cell_angle_alpha 90.000000
_cell_angle_beta 90.000000
_cell_angle_gamma 90.000000
_cell_volume 4463.037353
_symmetry_space_group_name_H-M "I M M A"
_symmetry_group_IT_number 74
_symmetry_cell_setting 'orthorhombic'
loop_
_space_group_symop_operation_xyz
x,y,z
-x,1/2-y,z
x,-y,-z
-x,1/2+y,-z
-x,-y,-z
x,1/2+y,-z
-x,y,z
x,1/2-y,z
1/2+x,1/2+y,1/2+z
1/2-x,-y,1/2+z
1/2+x,1/2-y,1/2-z
1/2-x,y,1/2-z
1/2-x,1/2-y,1/2-z
1/2+x,y,1/2-z
1/2-x,1/2+y,1/2+z
1/2+x,-y,1/2+z
loop_
_atom_site_type_symbol
_atom_site_label
_atom_site_fract_x
_atom_site_fract_y
_atom_site_fract_z
Si Si1 0.805279 0.136651 0.534931
Si Si2 0.587897 0.617408 0.285564
Si Si3 0.855336 0.808226 0.014760
Si Si4 0.287840 0.457279 0.608639
Si Si5 0.840461 0.195170 0.284861
O O1 0.865603 0.140472 0.658421
O O2 0.733156 0.174795 0.554208
O O3 0.771679 0.080341 0.531043
O O4 0.853320 0.151960 0.398004
O O5 0.500000 0.601337 0.242827
O O6 0.582403 0.661832 0.395223
O O7 0.631217 0.569815 0.351616
O O8 0.861903 0.750000 0.046404
O O9 0.880218 0.820315 0.858145
O O10 0.307174 0.500000 0.500000
O O11 0.250000 0.477955 0.750000
O O12 0.871393 0.250000 0.335430
O O13 0.750000 0.200952 0.250000
#
# Coordination Sequence:
#
# PCOD8300662 Si02
#       5
#    16  16  16  16  16
#     4   9  17  31  51  73  96 124 161 202 242 286
#     4  10  21  34  47  69 102 135 161 190 237 293
#     4   9  17  30  49  73  99 128 167 210 242 272
#     4   9  19  34  54  76  94 117 155 204 247 286
#     4   8  14  26  47  73  97 122 157 202 243 275
#
# _framework density 17.925013
#
# number of rings (size 3 to 8) (size 9 to 14) (size 15 to 20)
#    0.000    3.000    0.000    3.600    0.000    7.200 
#    0.000    1.000    0.000   10.800    0.000    0.000 
#    0.000    0.000    0.000    0.000    0.000    0.000 
#
# Total GULP energy -495662.172879 kJ/mol
# GULP energy per Si atom -12391.554322 kJ/mol
# Density = 1.788421 g / cm^3
# Si number density = 17.925013 Si / 1000 Ang^3
#
#
#
# Elastic Constant Matrix: (Units=GPa)
#
#
# Indices 1 2 3 4 5 6 
#
# 1 61.9604 23.1653 37.3951 0.0003 0.0000 -0.0002
# 2 23.1653 84.2949 68.1072 0.0000 -0.0001 -0.0001
# 3 37.3951 68.1072 126.3154 0.0017 0.0001 0.0005
# 4 0.0003 0.0000 0.0017 31.0984 -0.0001 -0.0015
# 5 0.0000 -0.0001 0.0001 -0.0001 2.3721 0.0000
# 6 -0.0002 -0.0001 0.0005 -0.0015 0.0000 11.1501
#
#
#
# Elastic Compliance Matrix: (Units=1/GPa)
#
#
# Indices 1 2 3 4 5 6 
#
# 1 0.019724 -0.001245 -0.005168 0.000000 0.000000 0.000001
# 2 -0.001245 0.021099 -0.011008 0.000001 0.000001 0.000001
# 3 -0.005168 -0.011008 0.015382 -0.000001 -0.000001 -0.000001
# 4 0.000000 0.000001 -0.000001 0.032156 0.000001 0.000004
# 5 0.000000 0.000001 -0.000001 0.000001 0.421560 -0.000001
# 6 0.000001 0.000001 -0.000001 0.000004 -0.000001 0.089686
#
#
# Mechanical properties :
#
#
# Convention : Reuss Voigt Hill
#
# Bulk Modulus (GPa) = 46.80850 58.87841 52.84345
# Shear Modulus (GPa) = 7.79339 18.51766 13.15553
#
# Velocity S-wave (km/s) = 2.08739 3.21762 2.71203
# Velocity P-wave (km/s) = 5.65507 6.83538 6.27305
#
# Compressibility (1/GPa) = 0.02136364
#
# Stress axis : x y z
#
# Youngs Moduli (GPa) = 50.70023 47.39550 65.01179
#
# Poissons Ratio (x) = 0.05900 0.33598
# Poissons Ratio (y) = 0.06311 0.71563
# Poissons Ratio (z) = 0.26202 0.52172
#
# Static dielectric constant tensor:
#      x y z
#    x 2.951980 0.000000 0.000000 
#    y 0.000000 3.184930 0.000000 
#    z 0.000000 0.000000 3.883590 
# 
# 
# High freq. dielectric constant tensor:
#      x y z
#    x 1.654870 0.000000 0.000000 
#    y 0.000000 1.679790 0.000000 
#    z 0.000000 0.000000 1.704330 
# 
# From -- ./inp_files/10966.got.cif
#   From: 2010.03.12/outbox.cif.g09.slc.cpg/sg74_6_cif.got.tgz:10966.got - 2010.04.16 15:46:19.
