data_PCOD8300826
_publ_section_title
;
Structure prediction by ZEFSAII (Michael W. Deem and Ramdas Pophale) SiO2 
 PCOD8300826
Probable space group: I M M A
;
_chemical_formula_sum "Si O2"
_cell_formula_units_Z 112
_cell_length_a 24.460410
_cell_length_b 15.038257
_cell_length_c 15.288888
_cell_angle_alpha 90.000000
_cell_angle_beta 90.000000
_cell_angle_gamma 90.000000
_cell_volume 5623.894099
_symmetry_space_group_name_H-M "I M M A"
_symmetry_group_IT_number 74
_symmetry_cell_setting 'orthorhombic'
loop_
_space_group_symop_operation_xyz
x,y,z
-x,1/2-y,z
x,-y,-z
-x,1/2+y,-z
-x,-y,-z
x,1/2+y,-z
-x,y,z
x,1/2-y,z
1/2+x,1/2+y,1/2+z
1/2-x,-y,1/2+z
1/2+x,1/2-y,1/2-z
1/2-x,y,1/2-z
1/2-x,1/2-y,1/2-z
1/2+x,y,1/2-z
1/2-x,1/2+y,1/2+z
1/2+x,-y,1/2+z
loop_
_atom_site_type_symbol
_atom_site_label
_atom_site_fract_x
_atom_site_fract_y
_atom_site_fract_z
Si Si1 0.563203 0.466784 0.358247
Si Si2 0.938484 0.350857 0.307246
Si Si3 0.113991 0.652740 0.175101
Si Si4 0.141325 0.947490 0.580116
Si Si5 0.299860 0.082109 0.806315
Si Si6 0.640949 0.350086 0.475643
Si Si7 0.738541 0.351802 0.990276
O O1 0.500000 0.456549 0.387650
O O2 0.578365 0.407838 0.275667
O O3 0.572882 0.568600 0.327690
O O4 0.601094 0.426517 0.436108
O O5 0.930345 0.250000 0.279147
O O6 0.900585 0.372374 0.389684
O O7 0.000000 0.371593 0.336859
O O8 0.085324 0.750000 0.194030
O O9 0.163246 0.645374 0.244971
O O10 0.137779 0.656275 0.079019
O O11 0.197093 0.908304 0.545781
O O12 0.112518 0.000000 0.500000
O O13 0.157235 0.008294 0.662180
O O14 0.250000 0.040676 0.750000
O O15 0.271201 0.132587 0.887162
O O16 0.629322 0.250000 0.436596
O O17 0.703768 0.380437 0.466041
O O18 0.727907 0.250000 0.009759
#
# Coordination Sequence:
#
# PCOD8300826 Si02
#       7
#    16  16  16  16  16  16  16
#     4  11  24  42  63  87 121 163 208 260 308 364
#     4  10  21  40  65  88 114 156 206 252 303 367
#     4  11  23  38  61  88 119 162 207 251 302 362
#     4  10  22  36  58  92 120 157 195 250 308 365
#     4  11  21  36  60  87 124 163 202 241 300 366
#     4  10  22  38  59  91 125 160 204 251 301 362
#     4  10  21  36  58  89 126 161 200 251 306 369
#
# _framework density 19.915026000000001
#
# number of rings (size 3 to 8) (size 9 to 14) (size 15 to 20)
#    0.000    1.571    2.857    1.714    2.000    4.286 
#    0.000    1.429    0.000    3.429    0.000    0.000 
#    0.000    0.000    0.000    0.000    0.000    0.000 
#
# Total GULP energy -693883.939137 kJ/mol
# GULP energy per Si atom -12390.784627 kJ/mol
# Density = 1.986970 g / cm^3
# Si number density = 19.915026 Si / 1000 Ang^3
#
#
#
# Elastic Constant Matrix: (Units=GPa)
#
#
# Indices 1 2 3 4 5 6 
#
# 1 78.8465 44.5820 52.1994 0.0000 0.0000 0.0000
# 2 44.5820 112.7144 49.9471 0.0000 0.0000 0.0000
# 3 52.1994 49.9471 89.8680 0.0000 0.0000 0.0000
# 4 0.0000 0.0000 0.0000 29.0394 0.0000 0.0000
# 5 0.0000 0.0000 0.0000 0.0000 25.5049 0.0000
# 6 0.0000 0.0000 0.0000 0.0000 0.0000 -50.8765
#
#
#
# Elastic Compliance Matrix: (Units=1/GPa)
#
#
# Indices 1 2 3 4 5 6 
#
# 1 0.021895 -0.004013 -0.010487 0.000000 0.000000 0.000000
# 2 -0.004013 0.012506 -0.004620 0.000000 0.000000 0.000000
# 3 -0.010487 -0.004620 0.019787 0.000000 0.000000 0.000000
# 4 0.000000 0.000000 0.000000 0.034436 0.000000 0.000000
# 5 0.000000 0.000000 0.000000 0.000000 0.039208 0.000000
# 6 0.000000 0.000000 0.000000 0.000000 0.000000 -0.019655
#
#
# Mechanical properties :
#
#
# Convention : Reuss Voigt Hill
#
# Bulk Modulus (GPa) = 62.70511 63.87622 63.29066
# Shear Modulus (GPa) = 32.95269 9.71358 21.33314
#
# Velocity S-wave (km/s) = 4.07217 2.21091 3.27648
# Velocity P-wave (km/s) = 7.32562 6.21784 6.79435
#
# Compressibility (1/GPa) = 0.01594766
#
# Stress axis : x y z
#
# Youngs Moduli (GPa) = 45.67295 79.95864 50.53920
#
# Poissons Ratio (x) = 0.32086 0.53002
# Poissons Ratio (y) = 0.18328 0.23349
# Poissons Ratio (z) = 0.47898 0.36941
#
# Static dielectric constant tensor:
#      x y z
#    x 3.540410 0.000000 0.000000 
#    y 0.000000 4.256800 0.000000 
#    z 0.000000 0.000000 3.194580 
# 
# 
# High freq. dielectric constant tensor:
#      x y z
#    x 1.768360 0.000000 0.000000 
#    y 0.000000 1.788120 0.000000 
#    z 0.000000 0.000000 1.776330 
# 
# From -- ./inp_files/32720.got.cif
#   From: 2010.03.12/outbox.cif.g09.slc.cpg/sg74_17_cif.got.tgz:32720.got - 2010.04.16 15:46:19.
