data_PCOD8300523
_publ_section_title
;
Structure prediction by ZEFSAII (Michael W. Deem and Ramdas Pophale) SiO2 
 PCOD8300523
Probable space group: I M M A
;
_chemical_formula_sum "Si O2"
_cell_formula_units_Z 80
_cell_length_a 18.931897
_cell_length_b 7.569703
_cell_length_c 29.476221
_cell_angle_alpha 90.000000
_cell_angle_beta 90.000000
_cell_angle_gamma 90.000000
_cell_volume 4224.202966
_symmetry_space_group_name_H-M "I M M A"
_symmetry_group_IT_number 74
_symmetry_cell_setting 'orthorhombic'
loop_
_space_group_symop_operation_xyz
x,y,z
-x,1/2-y,z
x,-y,-z
-x,1/2+y,-z
-x,-y,-z
x,1/2+y,-z
-x,y,z
x,1/2-y,z
1/2+x,1/2+y,1/2+z
1/2-x,-y,1/2+z
1/2+x,1/2-y,1/2-z
1/2-x,y,1/2-z
1/2-x,1/2-y,1/2-z
1/2+x,y,1/2-z
1/2-x,1/2+y,1/2+z
1/2+x,-y,1/2+z
loop_
_atom_site_type_symbol
_atom_site_label
_atom_site_fract_x
_atom_site_fract_y
_atom_site_fract_z
Si Si1 0.584082 0.554716 0.225204
Si Si2 0.656754 0.457974 0.550579
Si Si3 0.578594 0.039895 0.875229
Si Si4 0.816660 0.456321 0.549848
Si Si5 0.915784 0.750000 0.789251
Si Si6 0.083699 0.750000 0.891905
O O1 0.500000 0.563008 0.226492
O O2 0.615244 0.750000 0.235138
O O3 0.606313 0.487512 0.174951
O O4 0.613975 0.422549 0.263265
O O5 0.629581 0.500000 0.500000
O O6 0.648614 0.250000 0.561527
O O7 0.737122 0.528968 0.555265
O O8 0.609834 0.569970 0.585033
O O9 0.500000 0.962485 0.883954
O O10 0.575463 0.250000 0.878993
O O11 0.631846 0.957299 0.912548
O O12 0.846627 0.500000 0.500000
O O13 0.814371 0.250000 0.557500
O O14 0.887605 0.750000 0.840411
O O15 0.000000 0.750000 0.787783
O O16 0.000000 0.750000 0.893290
#
# Coordination Sequence:
#
# PCOD8300523 Si02
#       6
#    16  16  16  16   8   8
#     4   8  14  27  48  70  99 139 174 209 254 303
#     4  10  20  38  58  77 104 141 178 205 250 325
#     4   8  14  27  48  75 105 139 181 222 257 293
#     4   9  18  31  50  73 101 141 180 214 255 308
#     4   9  18  32  49  75 105 128 165 213 259 318
#     4  11  24  38  57  85 108 128 163 222 278 314
#
# _framework density 18.938483999999999
#
# number of rings (size 3 to 8) (size 9 to 14) (size 15 to 20)
#    0.000    3.000    1.000    1.200    1.400    2.000 
#    1.800    2.000    0.000    2.400    0.000    5.600 
#    0.000    0.000    0.000    0.000    0.000    0.000 
#
# Total GULP energy -495807.168775 kJ/mol
# GULP energy per Si atom -12395.179219 kJ/mol
# Density = 1.889538 g / cm^3
# Si number density = 18.938484 Si / 1000 Ang^3
#
#
#
# Elastic Constant Matrix: (Units=GPa)
#
#
# Indices 1 2 3 4 5 6 
#
# 1 54.7943 26.0789 58.8630 0.0000 0.0000 0.0000
# 2 26.0789 90.5499 62.1946 0.0000 0.0000 0.0000
# 3 58.8630 62.1946 182.6940 0.0000 0.0000 0.0000
# 4 0.0000 0.0000 0.0000 28.0501 0.0000 0.0000
# 5 0.0000 0.0000 0.0000 0.0000 1.7620 0.0000
# 6 0.0000 0.0000 0.0000 0.0000 0.0000 10.7308
#
#
#
# Elastic Compliance Matrix: (Units=1/GPa)
#
#
# Indices 1 2 3 4 5 6 
#
# 1 0.028326 -0.002466 -0.008287 0.000000 0.000000 0.000000
# 2 -0.002466 0.014629 -0.004185 0.000000 0.000000 0.000000
# 3 -0.008287 -0.004185 0.009569 0.000000 0.000000 0.000000
# 4 0.000000 0.000000 0.000000 0.035651 0.000000 0.000000
# 5 0.000000 0.000000 0.000000 0.000000 0.567527 0.000000
# 6 0.000000 0.000000 0.000000 0.000000 0.000000 0.093190
#
#
# Mechanical properties :
#
#
# Convention : Reuss Voigt Hill
#
# Bulk Modulus (GPa) = 44.15762 69.14569 56.65165
# Shear Modulus (GPa) = 6.35876 20.16871 13.26373
#
# Velocity S-wave (km/s) = 1.83436 3.26691 2.64930
# Velocity P-wave (km/s) = 5.27764 7.12883 6.27191
#
# Compressibility (1/GPa) = 0.02264615
#
# Stress axis : x y z
#
# Youngs Moduli (GPa) = 35.30317 68.35875 104.50954
#
# Poissons Ratio (x) = 0.16858 0.86607
# Poissons Ratio (y) = 0.08706 0.43742
# Poissons Ratio (z) = 0.29256 0.28611
#
# Static dielectric constant tensor:
#      x y z
#    x 3.333230 0.000000 0.000000 
#    y 0.000000 3.462860 0.000000 
#    z 0.000000 0.000000 3.700350 
# 
# 
# High freq. dielectric constant tensor:
#      x y z
#    x 1.692960 0.000000 0.000000 
#    y 0.000000 1.734560 0.000000 
#    z 0.000000 0.000000 1.739130 
# 
# From -- ./inp_files/67594.got.cif
#   From: 2010.03.12/outbox.cif.g09.slc.cpg/sg74_34_cif.got.tgz:67594.got - 2010.04.16 15:46:19.
