data_PCOD8300242
_publ_section_title
;
Structure prediction by ZEFSAII (Michael W. Deem and Ramdas Pophale) SiO2 
 PCOD8300242
Probable space group: I M M A
;
_chemical_formula_sum "Si O2"
_cell_formula_units_Z 96
_cell_length_a 25.502601
_cell_length_b 16.355067
_cell_length_c 11.443716
_cell_angle_alpha 90.000000
_cell_angle_beta 90.000000
_cell_angle_gamma 90.000000
_cell_volume 4773.136729
_symmetry_space_group_name_H-M "I M M A"
_symmetry_group_IT_number 74
_symmetry_cell_setting 'orthorhombic'
loop_
_space_group_symop_operation_xyz
x,y,z
-x,1/2-y,z
x,-y,-z
-x,1/2+y,-z
-x,-y,-z
x,1/2+y,-z
-x,y,z
x,1/2-y,z
1/2+x,1/2+y,1/2+z
1/2-x,-y,1/2+z
1/2+x,1/2-y,1/2-z
1/2-x,y,1/2-z
1/2-x,1/2-y,1/2-z
1/2+x,y,1/2-z
1/2-x,1/2+y,1/2+z
1/2+x,-y,1/2+z
loop_
_atom_site_type_symbol
_atom_site_label
_atom_site_fract_x
_atom_site_fract_y
_atom_site_fract_z
Si Si1 0.842493 0.843339 0.471087
Si Si2 0.745136 0.842599 0.613459
Si Si3 0.059534 0.343649 0.183799
Si Si4 0.809092 0.346531 0.770659
Si Si5 0.855607 0.592165 0.990159
Si Si6 0.559371 0.915728 0.930465
O O1 0.826723 0.750000 0.461830
O O2 0.797941 0.881211 0.556436
O O3 0.840600 0.880849 0.341397
O O4 0.900944 0.850294 0.518082
O O5 0.733652 0.750000 0.567415
O O6 0.750000 0.841059 0.750000
O O7 0.697126 0.901718 0.585115
O O8 0.069123 0.250000 0.228617
O O9 0.097856 0.358908 0.074267
O O10 0.068401 0.410041 0.289487
O O11 0.000000 0.352790 0.137951
O O12 0.807148 0.250000 0.780735
O O13 0.750000 0.380420 0.750000
O O14 0.841526 0.376838 0.881309
O O15 0.875035 0.500000 0.000000
O O16 0.500000 0.889015 0.958738
O O17 0.571937 0.000000 0.000000
#
# Coordination Sequence:
#
# PCOD8300242 Si02
#       6
#    16  16  16  16  16  16
#     4  10  20  35  60  88 115 157 202 246 299 362
#     4  10  20  37  60  86 118 155 203 257 303 362
#     4  10  22  43  68  89 117 163 213 258 308 372
#     4  10  20  39  61  81 118 165 202 240 295 365
#     4  12  25  37  59  91 124 162 203 254 311 365
#     4  10  22  39  62  90 123 158 194 251 318 375
#
# _framework density 20.112562
#
# number of rings (size 3 to 8) (size 9 to 14) (size 15 to 20)
#    0.000    1.667    1.667    3.000    2.333    4.000 
#    0.000    0.833    0.000    1.000    0.000    0.000 
#    0.000    0.000    0.000    0.000    0.000    0.000 
#
# Total GULP energy -594722.068159 kJ/mol
# GULP energy per Si atom -12390.043087 kJ/mol
# Density = 2.006678 g / cm^3
# Si number density = 20.112562 Si / 1000 Ang^3
#
#
#
# Elastic Constant Matrix: (Units=GPa)
#
#
# Indices 1 2 3 4 5 6 
#
# 1 132.8327 28.2761 79.0078 0.0000 0.0000 0.0000
# 2 28.2761 55.6874 34.4976 0.0000 0.0000 0.0000
# 3 79.0078 34.4976 149.7771 0.0000 0.0000 0.0000
# 4 0.0000 0.0000 0.0000 28.7674 0.0000 0.0000
# 5 0.0000 0.0000 0.0000 0.0000 40.2864 0.0000
# 6 0.0000 0.0000 0.0000 0.0000 0.0000 21.8993
#
#
#
# Elastic Compliance Matrix: (Units=1/GPa)
#
#
# Indices 1 2 3 4 5 6 
#
# 1 0.011232 -0.002371 -0.005379 0.000000 0.000000 0.000000
# 2 -0.002371 0.021447 -0.003689 0.000000 0.000000 0.000000
# 3 -0.005379 -0.003689 0.010364 0.000000 0.000000 0.000000
# 4 0.000000 0.000000 0.000000 0.034762 0.000000 0.000000
# 5 0.000000 0.000000 0.000000 0.000000 0.024822 0.000000
# 6 0.000000 0.000000 0.000000 0.000000 0.000000 0.045664
#
#
# Mechanical properties :
#
#
# Convention : Reuss Voigt Hill
#
# Bulk Modulus (GPa) = 49.59209 69.09560 59.34384
# Shear Modulus (GPa) = 28.10730 31.29167 29.69949
#
# Velocity S-wave (km/s) = 3.74237 3.94868 3.84691
# Velocity P-wave (km/s) = 6.58670 7.43091 7.02150
#
# Compressibility (1/GPa) = 0.02016451
#
# Stress axis : x y z
#
# Youngs Moduli (GPa) = 89.02818 46.62742 96.49109
#
# Poissons Ratio (x) = 0.11056 0.51902
# Poissons Ratio (y) = 0.21111 0.35594
# Poissons Ratio (z) = 0.47888 0.17200
#
# Static dielectric constant tensor:
#      x y z
#    x 3.720190 0.000000 0.000000 
#    y 0.000000 3.625920 0.000000 
#    z 0.000000 0.000000 4.019670 
# 
# 
# High freq. dielectric constant tensor:
#      x y z
#    x 1.789970 0.000000 0.000000 
#    y 0.000000 1.760760 0.000000 
#    z 0.000000 0.000000 1.796640 
# 
# From -- ./inp_files/25165.got.cif
#   From: 2010.03.12/outbox.cif.g09.slc.cpg/sg74_13_cif.got.tgz:25165.got - 2010.04.16 15:46:19.
