data_PCOD8300103
_publ_section_title
;
Structure prediction by ZEFSAII (Michael W. Deem and Ramdas Pophale) SiO2 
 PCOD8300103
Probable space group: I M M A
;
_chemical_formula_sum "Si O2"
_cell_formula_units_Z 120
_cell_length_a 8.688411
_cell_length_b 26.928184
_cell_length_c 27.668216
_cell_angle_alpha 90.000000
_cell_angle_beta 90.000000
_cell_angle_gamma 90.000000
_cell_volume 6473.342419
_symmetry_space_group_name_H-M "I M M A"
_symmetry_group_IT_number 74
_symmetry_cell_setting 'orthorhombic'
loop_
_space_group_symop_operation_xyz
x,y,z
-x,1/2-y,z
x,-y,-z
-x,1/2+y,-z
-x,-y,-z
x,1/2+y,-z
-x,y,z
x,1/2-y,z
1/2+x,1/2+y,1/2+z
1/2-x,-y,1/2+z
1/2+x,1/2-y,1/2-z
1/2-x,y,1/2-z
1/2-x,1/2-y,1/2-z
1/2+x,y,1/2-z
1/2-x,1/2+y,1/2+z
1/2+x,-y,1/2+z
loop_
_atom_site_type_symbol
_atom_site_label
_atom_site_fract_x
_atom_site_fract_y
_atom_site_fract_z
Si Si1 0.176712 0.849221 0.529756
Si Si2 0.681942 0.959106 0.198475
Si Si3 0.822243 0.449025 0.523483
Si Si4 0.818622 0.195574 0.938971
Si Si5 0.819029 0.598405 0.113161
Si Si6 0.682176 0.564499 0.698237
Si Si7 0.817797 0.847155 0.639588
Si Si8 0.181502 0.750000 0.697048
O O1 0.203674 0.906663 0.516443
O O2 0.270104 0.813764 0.494097
O O3 0.232978 0.839957 0.584195
O O4 0.000000 0.834119 0.524180
O O5 0.500000 0.964111 0.202372
O O6 0.750000 0.943509 0.250000
O O7 0.727803 0.916250 0.161130
O O8 0.751317 0.011614 0.181201
O O9 0.765804 0.500000 0.500000
O O10 0.718172 0.440109 0.570448
O O11 0.000000 0.451972 0.539988
O O12 0.758294 0.250000 0.922452
O O13 0.755804 0.152888 0.902957
O O14 0.000000 0.193612 0.937459
O O15 0.000000 0.598151 0.123818
O O16 0.500000 0.560514 0.702511
O O17 0.750000 0.580210 0.750000
O O18 0.729013 0.605225 0.659303
O O19 0.762190 0.798730 0.668650
O O20 0.000000 0.856122 0.644127
O O21 0.250000 0.750000 0.750000
O O22 0.000000 0.750000 0.701254
#
# Coordination Sequence:
#
# PCOD8300103 Si02
#       8
#    16  16  16  16  16  16  16   8
#     4   9  19  33  51  77 107 139 179 224 272 320
#     4  11  22  38  60  85 115 147 182 223 269 325
#     4   9  18  32  50  76 108 145 183 218 266 326
#     4   9  19  36  57  80 111 148 183 224 273 326
#     4  10  20  35  55  82 113 146 185 227 274 327
#     4  11  22  37  56  80 107 140 180 224 274 330
#     4  10  21  36  54  77 104 140 183 232 283 333
#     4  10  22  38  54  72  98 134 184 234 287 338
#
# _framework density 18.537565000000001
#
# number of rings (size 3 to 8) (size 9 to 14) (size 15 to 20)
#    0.000    2.133    0.000    4.000    2.800    3.200 
#    0.000    0.000    0.000    0.400    0.000    0.000 
#    0.000    0.000    0.000    0.000    0.000    0.000 
#
# Total GULP energy -744127.928551 kJ/mol
# GULP energy per Si atom -12402.132143 kJ/mol
# Density = 1.849537 g / cm^3
# Si number density = 18.537565 Si / 1000 Ang^3
#
#
#
# Elastic Constant Matrix: (Units=GPa)
#
#
# Indices 1 2 3 4 5 6 
#
# 1 75.9808 38.5571 36.8444 0.0000 0.0000 0.0000
# 2 38.5571 131.5350 75.1570 0.0000 0.0000 0.0000
# 3 36.8444 75.1570 123.7263 0.0000 0.0000 0.0000
# 4 0.0000 0.0000 0.0000 24.0879 0.0000 0.0000
# 5 0.0000 0.0000 0.0000 0.0000 31.8146 0.0000
# 6 0.0000 0.0000 0.0000 0.0000 0.0000 22.6300
#
#
#
# Elastic Compliance Matrix: (Units=1/GPa)
#
#
# Indices 1 2 3 4 5 6 
#
# 1 0.016139 -0.003040 -0.002959 0.000000 0.000000 0.000000
# 2 -0.003040 0.012217 -0.006516 0.000000 0.000000 0.000000
# 3 -0.002959 -0.006516 0.012922 0.000000 0.000000 0.000000
# 4 0.000000 0.000000 0.000000 0.041515 0.000000 0.000000
# 5 0.000000 0.000000 0.000000 0.000000 0.031432 0.000000
# 6 0.000000 0.000000 0.000000 0.000000 0.000000 0.044189
#
#
# Mechanical properties :
#
#
# Convention : Reuss Voigt Hill
#
# Bulk Modulus (GPa) = 61.54945 70.26213 65.90579
# Shear Modulus (GPa) = 26.47484 27.75207 27.11346
#
# Velocity S-wave (km/s) = 3.78322 3.87340 3.82857
# Velocity P-wave (km/s) = 7.23590 7.61506 7.42790
#
# Compressibility (1/GPa) = 0.01624710
#
# Stress axis : x y z
#
# Youngs Moduli (GPa) = 61.96211 81.85609 77.39001
#
# Poissons Ratio (x) = 0.24883 0.22903
# Poissons Ratio (y) = 0.18836 0.50425
# Poissons Ratio (z) = 0.18337 0.53335
#
# Static dielectric constant tensor:
#      x y z
#    x 3.354170 0.000000 0.000000 
#    y 0.000000 3.672220 0.000000 
#    z 0.000000 0.000000 3.376480 
# 
# 
# High freq. dielectric constant tensor:
#      x y z
#    x 1.717060 0.000000 0.000000 
#    y 0.000000 1.720990 0.000000 
#    z 0.000000 0.000000 1.714410 
# 
# From -- ./inp_files/65075.got.cif
#   From: 2010.03.12/outbox.cif.g09.slc.cpg/sg74_33_cif.got.tgz:65075.got - 2010.04.16 15:46:19.
