data_PCOD8300508
_publ_section_title
;
Structure prediction by ZEFSAII (Michael W. Deem and Ramdas Pophale) SiO2 
 PCOD8300508
Probable space group: I M M A
;
_chemical_formula_sum "Si O2"
_cell_formula_units_Z 72
_cell_length_a 8.892960
_cell_length_b 17.408227
_cell_length_c 23.333274
_cell_angle_alpha 90.000000
_cell_angle_beta 90.000000
_cell_angle_gamma 90.000000
_cell_volume 3612.239697
_symmetry_space_group_name_H-M "I M M A"
_symmetry_group_IT_number 74
_symmetry_cell_setting 'orthorhombic'
loop_
_space_group_symop_operation_xyz
x,y,z
-x,1/2-y,z
x,-y,-z
-x,1/2+y,-z
-x,-y,-z
x,1/2+y,-z
-x,y,z
x,1/2-y,z
1/2+x,1/2+y,1/2+z
1/2-x,-y,1/2+z
1/2+x,1/2-y,1/2-z
1/2-x,y,1/2-z
1/2-x,1/2-y,1/2-z
1/2+x,y,1/2-z
1/2-x,1/2+y,1/2+z
1/2+x,-y,1/2+z
loop_
_atom_site_type_symbol
_atom_site_label
_atom_site_fract_x
_atom_site_fract_y
_atom_site_fract_z
Si Si1 0.177060 0.750000 0.188551
Si Si2 0.175275 0.537411 0.689824
Si Si3 0.672466 0.590369 0.494972
Si Si4 0.825293 0.885371 0.378794
Si Si5 0.323921 0.838919 0.614707
O O1 0.250000 0.750000 0.250000
O O2 0.226312 0.674126 0.155871
O O3 0.000000 0.750000 0.195569
O O4 0.250000 0.516379 0.750000
O O5 0.211180 0.469992 0.644848
O O6 0.239182 0.616740 0.665158
O O7 0.000000 0.547412 0.700469
O O8 0.691097 0.500000 0.500000
O O9 0.500000 0.613067 0.481605
O O10 0.779063 0.620867 0.444900
O O11 0.729551 0.630563 0.552926
O O12 0.000000 0.864498 0.372143
O O13 0.500000 0.853960 0.622261
O O14 0.281623 0.750000 0.620265
#
# Coordination Sequence:
#
# PCOD8300508 Si02
#       5
#     8  16  16  16  16
#     4  12  26  44  66  92 128 168 209 258 313 376
#     4  11  24  41  64  90 120 160 208 257 312 373
#     4  10  20  37  63  92 124 165 208 254 308 367
#     4  11  24  41  63  94 127 164 209 258 313 374
#     4  10  22  40  62  91 127 164 207 255 308 369
#
# _framework density 19.932231000000002
#
# number of rings (size 3 to 8) (size 9 to 14) (size 15 to 20)
#    0.000    1.333    2.222    3.000    1.556    6.667 
#    0.000    0.000    0.000    0.000    0.000    0.000 
#    0.000    0.000    0.000    0.000    0.000    0.000 
#
# Total GULP energy -446651.033897 kJ/mol
# GULP energy per Si atom -12406.973164 kJ/mol
# Density = 1.988686 g / cm^3
# Si number density = 19.932231 Si / 1000 Ang^3
#
#
#
# Elastic Constant Matrix: (Units=GPa)
#
#
# Indices 1 2 3 4 5 6 
#
# 1 100.2277 42.5278 42.0735 0.0000 0.0000 0.0000
# 2 42.5278 86.1070 15.1768 0.0000 0.0000 0.0000
# 3 42.0735 15.1768 92.5049 0.0000 0.0000 0.0000
# 4 0.0000 0.0000 0.0000 -0.8398 0.0000 0.0000
# 5 0.0000 0.0000 0.0000 0.0000 42.4829 0.0000
# 6 0.0000 0.0000 0.0000 0.0000 0.0000 41.6368
#
#
#
# Elastic Compliance Matrix: (Units=1/GPa)
#
#
# Indices 1 2 3 4 5 6 
#
# 1 0.015171 -0.006464 -0.005840 0.000000 0.000000 0.000000
# 2 -0.006464 0.014713 0.000526 0.000000 0.000000 0.000000
# 3 -0.005840 0.000526 0.013380 0.000000 0.000000 0.000000
# 4 0.000000 0.000000 0.000000 -1.190800 0.000000 0.000000
# 5 0.000000 0.000000 0.000000 0.000000 0.023539 0.000000
# 6 0.000000 0.000000 0.000000 0.000000 0.000000 0.024017
#
#
# Mechanical properties :
#
#
# Convention : Reuss Voigt Hill
#
# Bulk Modulus (GPa) = 50.73741 53.15510 51.94625
# Shear Modulus (GPa) = -4.67354 28.59342 11.95994
#
# Velocity S-wave (km/s) = -1.53291 3.79163 2.45221
# Velocity P-wave (km/s) = 4.73045 6.77454 5.84258
#
# Compressibility (1/GPa) = 0.01970932
#
# Stress axis : x y z
#
# Youngs Moduli (GPa) = 65.91353 67.96622 74.73816
#
# Poissons Ratio (x) = 0.43932 0.43646
# Poissons Ratio (y) = 0.42605 -0.03931
# Poissons Ratio (z) = 0.38492 -0.03575
#
# Static dielectric constant tensor:
#      x y z
#    x 3.605860 0.000000 0.000000 
#    y 0.000000 3.660790 0.000000 
#    z 0.000000 0.000000 3.243330 
# 
# 
# High freq. dielectric constant tensor:
#      x y z
#    x 1.778450 0.000000 0.000000 
#    y 0.000000 1.785020 0.000000 
#    z 0.000000 0.000000 1.789260 
# 
# From -- ./inp_files/56674.got.cif
#   From: 2010.03.12/outbox.cif.g09.slc.cpg/sg74_29_cif.got.tgz:56674.got - 2010.04.16 15:46:19.
