data_PCOD8300760
_publ_section_title
;
Structure prediction by ZEFSAII (Michael W. Deem and Ramdas Pophale) SiO2 
 PCOD8300760
Probable space group: I M M A
;
_chemical_formula_sum "Si O2"
_cell_formula_units_Z 104
_cell_length_a 31.605205
_cell_length_b 9.110570
_cell_length_c 20.365787
_cell_angle_alpha 90.000000
_cell_angle_beta 90.000000
_cell_angle_gamma 90.000000
_cell_volume 5864.153883
_symmetry_space_group_name_H-M "I M M A"
_symmetry_group_IT_number 74
_symmetry_cell_setting 'orthorhombic'
loop_
_space_group_symop_operation_xyz
x,y,z
-x,1/2-y,z
x,-y,-z
-x,1/2+y,-z
-x,-y,-z
x,1/2+y,-z
-x,y,z
x,1/2-y,z
1/2+x,1/2+y,1/2+z
1/2-x,-y,1/2+z
1/2+x,1/2-y,1/2-z
1/2-x,y,1/2-z
1/2-x,1/2-y,1/2-z
1/2+x,y,1/2-z
1/2-x,1/2+y,1/2+z
1/2+x,-y,1/2+z
loop_
_atom_site_type_symbol
_atom_site_label
_atom_site_fract_x
_atom_site_fract_y
_atom_site_fract_z
Si Si1 0.689118 0.420075 0.934400
Si Si2 0.362063 0.425201 0.178730
Si Si3 0.563852 0.414404 0.350021
Si Si4 0.288496 0.080433 0.566182
Si Si5 0.840627 0.416694 0.173618
Si Si6 0.954334 0.579056 0.700117
Si Si7 0.500000 0.920380 0.432495
O O1 0.676714 0.250000 0.938916
O O2 0.666824 0.493313 0.872824
O O3 0.738777 0.443216 0.925317
O O4 0.672920 0.500000 0.000000
O O5 0.359832 0.250000 0.170119
O O6 0.344507 0.468848 0.250750
O O7 0.410868 0.482163 0.167700
O O8 0.548940 0.250000 0.369034
O O9 0.613766 0.427952 0.359935
O O10 0.549483 0.450042 0.276881
O O11 0.542459 0.534899 0.395142
O O12 0.300696 0.250000 0.558988
O O13 0.304730 0.000000 0.500000
O O14 0.309112 0.018076 0.632473
O O15 0.823635 0.250000 0.170958
O O16 0.955698 0.750000 0.685012
O O17 0.000000 0.510246 0.675703
O O18 0.500000 0.750000 0.444547
O O19 0.500000 0.000000 0.500000
#
# Coordination Sequence:
#
# PCOD8300760 Si02
#       7
#    16  16  16  16  16  16   8
#     4  10  21  37  56  77 103 138 175 214 261 313
#     4   9  18  32  53  83 110 136 172 211 257 310
#     4   9  17  33  53  70  94 129 166 207 253 300
#     4  10  21  36  54  74 100 138 180 219 264 314
#     4   9  19  34  54  80 107 136 172 214 261 311
#     4   8  13  26  53  79 100 130 165 201 245 300
#     4  12  24  34  46  66  92 128 173 216 259 304
#
# _framework density 17.734869
#
# number of rings (size 3 to 8) (size 9 to 14) (size 15 to 20)
#    0.000    2.615    0.769    3.462    0.000    4.308 
#    0.000    5.385    0.000    0.462    0.000    0.000 
#    0.000    0.000    0.000    0.000    0.000    0.000 
#
# Total GULP energy -644455.438405 kJ/mol
# GULP energy per Si atom -12393.373815 kJ/mol
# Density = 1.769450 g / cm^3
# Si number density = 17.734869 Si / 1000 Ang^3
#
#
#
# Elastic Constant Matrix: (Units=GPa)
#
#
# Indices 1 2 3 4 5 6 
#
# 1 67.3333 43.2371 53.9808 0.0000 0.0000 0.0000
# 2 43.2371 94.0721 61.6424 0.0000 0.0000 0.0000
# 3 53.9808 61.6424 97.8809 0.0000 0.0000 0.0000
# 4 0.0000 0.0000 0.0000 31.4651 0.0000 0.0000
# 5 0.0000 0.0000 0.0000 0.0000 20.6906 0.0000
# 6 0.0000 0.0000 0.0000 0.0000 0.0000 25.9755
#
#
#
# Elastic Compliance Matrix: (Units=1/GPa)
#
#
# Indices 1 2 3 4 5 6 
#
# 1 0.027764 -0.004644 -0.012387 0.000000 0.000000 0.000000
# 2 -0.004644 0.018876 -0.009326 0.000000 0.000000 0.000000
# 3 -0.012387 -0.009326 0.022921 0.000000 0.000000 0.000000
# 4 0.000000 0.000000 0.000000 0.031781 0.000000 0.000000
# 5 0.000000 0.000000 0.000000 0.000000 0.048331 0.000000
# 6 0.000000 0.000000 0.000000 0.000000 0.000000 0.038498
#
#
# Mechanical properties :
#
#
# Convention : Reuss Voigt Hill
#
# Bulk Modulus (GPa) = 59.35938 64.11189 61.73563
# Shear Modulus (GPa) = 20.28378 22.32130 21.30254
#
# Velocity S-wave (km/s) = 3.38557 3.55154 3.46955
# Velocity P-wave (km/s) = 6.98755 7.28331 7.13696
#
# Compressibility (1/GPa) = 0.01684654
#
# Stress axis : x y z
#
# Youngs Moduli (GPa) = 36.01736 52.97787 43.62739
#
# Poissons Ratio (x) = 0.24603 0.54042
# Poissons Ratio (y) = 0.16727 0.40688
# Poissons Ratio (z) = 0.44616 0.49408
#
# Static dielectric constant tensor:
#      x y z
#    x 3.699960 0.000000 0.000000 
#    y 0.000000 7.663690 0.000000 
#    z 0.000000 0.000000 3.114240 
# 
# 
# High freq. dielectric constant tensor:
#      x y z
#    x 1.694390 0.000000 0.000000 
#    y 0.000000 1.669730 0.000000 
#    z 0.000000 0.000000 1.669550 
# 
# From -- ./inp_files/55641.got.cif
#   From: 2010.03.12/outbox.cif.g09.slc.cpg/sg74_28_cif.got.tgz:55641.got - 2010.04.16 15:46:19.
