data_PCOD8300991
_publ_section_title
;
Structure prediction by ZEFSAII (Michael W. Deem and Ramdas Pophale) SiO2 
 PCOD8300991
Probable space group: I M M A
;
_chemical_formula_sum "Si O2"
_cell_formula_units_Z 96
_cell_length_a 16.200309
_cell_length_b 21.249125
_cell_length_c 15.411392
_cell_angle_alpha 90.000000
_cell_angle_beta 90.000000
_cell_angle_gamma 90.000000
_cell_volume 5305.254430
_symmetry_space_group_name_H-M "I M M A"
_symmetry_group_IT_number 74
_symmetry_cell_setting 'orthorhombic'
loop_
_space_group_symop_operation_xyz
x,y,z
-x,1/2-y,z
x,-y,-z
-x,1/2+y,-z
-x,-y,-z
x,1/2+y,-z
-x,y,z
x,1/2-y,z
1/2+x,1/2+y,1/2+z
1/2-x,-y,1/2+z
1/2+x,1/2-y,1/2-z
1/2-x,y,1/2-z
1/2-x,1/2-y,1/2-z
1/2+x,y,1/2-z
1/2-x,1/2+y,1/2+z
1/2+x,-y,1/2+z
loop_
_atom_site_type_symbol
_atom_site_label
_atom_site_fract_x
_atom_site_fract_y
_atom_site_fract_z
Si Si1 0.819680 0.322897 0.643224
Si Si2 0.597231 0.409342 0.977636
Si Si3 0.329337 0.477464 0.129388
Si Si4 0.000000 0.441503 0.064950
Si Si5 0.500000 0.179465 0.552362
Si Si6 0.140231 0.134025 0.827401
Si Si7 0.643899 0.489641 0.326869
O O1 0.798103 0.250000 0.638136
O O2 0.875747 0.342003 0.560959
O O3 0.869375 0.338285 0.730919
O O4 0.734568 0.361650 0.640989
O O5 0.500000 0.413000 0.991838
O O6 0.625730 0.460888 0.907435
O O7 0.642010 0.418817 0.070285
O O8 0.354461 0.465462 0.228300
O O9 0.231049 0.484818 0.124272
O O10 0.918697 0.444630 0.123397
O O11 0.000000 0.500000 0.000000
O O12 0.000000 0.373265 0.021444
O O13 0.500000 0.250000 0.511753
O O14 0.418534 0.173370 0.610503
O O15 0.112649 0.061440 0.828909
#
# Coordination Sequence:
#
# PCOD8300991 Si02
#       7
#    16  16  16   8   8  16  16
#     4  11  22  37  57  83 119 163 195 233 285 355
#     4  11  23  34  57  82 114 152 195 240 281 345
#     4  10  21  38  58  83 116 153 188 233 305 343
#     4  12  26  36  62  92 121 150 200 248 293 345
#     4  12  26  40  58  87 122 162 197 237 289 358
#     4  11  20  39  57  85 122 155 192 231 296 355
#     4  11  21  38  62  87 121 152 186 249 295 347
#
# _framework density 18.095267
#
# number of rings (size 3 to 8) (size 9 to 14) (size 15 to 20)
#    0.000    1.000    5.000    4.000    8.167    0.333 
#    0.000    0.000    0.000    1.000    0.000    2.333 
#    0.000    0.000    0.000    0.000    0.000    0.000 
#
# Total GULP energy -595346.809728 kJ/mol
# GULP energy per Si atom -12403.058536 kJ/mol
# Density = 1.805408 g / cm^3
# Si number density = 18.095267 Si / 1000 Ang^3
#
#
#
# Elastic Constant Matrix: (Units=GPa)
#
#
# Indices 1 2 3 4 5 6 
#
# 1 87.9620 28.7942 46.8173 0.0000 0.0000 0.0000
# 2 28.7942 99.7348 48.8903 0.0000 0.0000 0.0000
# 3 46.8173 48.8903 94.6922 0.0002 0.0000 0.0000
# 4 0.0000 0.0000 0.0002 21.7497 0.0000 0.0000
# 5 0.0000 0.0000 0.0000 0.0000 33.3864 0.0000
# 6 0.0000 0.0000 0.0000 0.0000 0.0000 19.3144
#
#
#
# Elastic Compliance Matrix: (Units=1/GPa)
#
#
# Indices 1 2 3 4 5 6 
#
# 1 0.015497 -0.000962 -0.007166 0.000000 0.000000 0.000000
# 2 -0.000962 0.013484 -0.006486 0.000000 0.000000 0.000000
# 3 -0.007166 -0.006486 0.017452 0.000000 0.000000 0.000000
# 4 0.000000 0.000000 0.000000 0.045978 0.000000 0.000000
# 5 0.000000 0.000000 0.000000 0.000000 0.029952 0.000000
# 6 0.000000 0.000000 0.000000 0.000000 0.000000 0.051775
#
#
# Mechanical properties :
#
#
# Convention : Reuss Voigt Hill
#
# Bulk Modulus (GPa) = 58.11853 59.04361 58.58107
# Shear Modulus (GPa) = 23.91192 25.41590 24.66391
#
# Velocity S-wave (km/s) = 3.63911 3.75181 3.69589
# Velocity P-wave (km/s) = 7.06012 7.17414 7.11736
#
# Compressibility (1/GPa) = 0.01720621
#
# Stress axis : x y z
#
# Youngs Moduli (GPa) = 64.52806 74.16273 57.29907
#
# Poissons Ratio (x) = 0.07131 0.41058
# Poissons Ratio (y) = 0.06205 0.37167
# Poissons Ratio (z) = 0.46238 0.48105
#
# Static dielectric constant tensor:
#      x y z
#    x 3.445960 0.000000 0.000000 
#    y 0.000000 3.188680 0.000000 
#    z 0.000000 0.000000 3.449250 
# 
# 
# High freq. dielectric constant tensor:
#      x y z
#    x 1.715230 0.000000 0.000000 
#    y 0.000000 1.674650 0.000000 
#    z 0.000000 0.000000 1.696200 
# 
# From -- ./inp_files/32451.got.cif
#   From: 2010.03.12/outbox.cif.g09.slc.cpg/sg74_17_cif.got.tgz:32451.got - 2010.04.16 15:46:19.
