data_PCOD8300542
_publ_section_title
;
Structure prediction by ZEFSAII (Michael W. Deem and Ramdas Pophale) SiO2 
 PCOD8300542
Probable space group: I M M A
;
_chemical_formula_sum "Si O2"
_cell_formula_units_Z 104
_cell_length_a 8.767440
_cell_length_b 20.988369
_cell_length_c 28.008660
_cell_angle_alpha 90.000000
_cell_angle_beta 90.000000
_cell_angle_gamma 90.000000
_cell_volume 5153.993009
_symmetry_space_group_name_H-M "I M M A"
_symmetry_group_IT_number 74
_symmetry_cell_setting 'orthorhombic'
loop_
_space_group_symop_operation_xyz
x,y,z
-x,1/2-y,z
x,-y,-z
-x,1/2+y,-z
-x,-y,-z
x,1/2+y,-z
-x,y,z
x,1/2-y,z
1/2+x,1/2+y,1/2+z
1/2-x,-y,1/2+z
1/2+x,1/2-y,1/2-z
1/2-x,y,1/2-z
1/2-x,1/2-y,1/2-z
1/2+x,y,1/2-z
1/2-x,1/2+y,1/2+z
1/2+x,-y,1/2+z
loop_
_atom_site_type_symbol
_atom_site_label
_atom_site_fract_x
_atom_site_fract_y
_atom_site_fract_z
Si Si1 0.333179 0.358100 0.060175
Si Si2 0.679972 0.111527 0.620577
Si Si3 0.817797 0.250000 0.904165
Si Si4 0.818488 0.879853 0.846153
Si Si5 0.674052 0.250000 0.489183
Si Si6 0.319770 0.513124 0.300559
Si Si7 0.667516 0.056917 0.971100
Si Si8 0.683147 0.750000 0.802716
O O1 0.500000 0.332819 0.077832
O O2 0.252257 0.398028 0.102305
O O3 0.212542 0.305719 0.046550
O O4 0.362717 0.391780 0.010831
O O5 0.500000 0.111452 0.623531
O O6 0.739783 0.185363 0.622983
O O7 0.746251 0.066304 0.662456
O O8 0.723903 0.081659 0.570059
O O9 0.000000 0.250000 0.905512
O O10 0.746417 0.250000 0.958205
O O11 0.742268 0.814134 0.828401
O O12 0.000000 0.871207 0.848552
O O13 0.773167 0.940617 0.813749
O O14 0.500000 0.250000 0.502336
O O15 0.500000 0.518894 0.298126
O O16 0.250000 0.531002 0.250000
O O17 0.500000 0.036150 0.950238
O O18 0.749672 0.000000 0.000000
O O19 0.500000 0.750000 0.801294
O O20 0.750000 0.750000 0.750000
#
# Coordination Sequence:
#
# PCOD8300542 Si02
#       8
#    16  16   8  16   8  16  16   8
#     4  11  22  35  53  81 117 153 189 235 284 339
#     4  10  20  38  61  88 116 152 202 249 297 357
#     4   9  18  34  59  86 116 153 195 245 297 344
#     4  11  23  40  60  87 119 158 203 248 296 354
#     4  11  20  34  55  80 112 159 200 233 282 341
#     4  10  23  41  64  89 117 152 196 249 306 363
#     4  10  21  35  52  79 115 153 189 231 287 347
#     4  12  25  42  63  88 117 154 198 251 305 356
#
# _framework density 20.178529000000001
#
# number of rings (size 3 to 8) (size 9 to 14) (size 15 to 20)
#    0.000    1.538    1.538    3.692    0.000    4.000 
#    0.000    0.769    0.000    0.000    0.000    0.000 
#    0.000    0.000    0.000    0.000    0.000    0.000 
#
# Total GULP energy -644195.606365 kJ/mol
# GULP energy per Si atom -12388.377045 kJ/mol
# Density = 2.013260 g / cm^3
# Si number density = 20.178529 Si / 1000 Ang^3
#
#
#
# Elastic Constant Matrix: (Units=GPa)
#
#
# Indices 1 2 3 4 5 6 
#
# 1 57.7189 28.9036 30.3046 0.0000 0.0000 0.0000
# 2 28.9036 141.7218 58.6937 0.0000 0.0000 0.0000
# 3 30.3046 58.6937 128.5802 0.0000 0.0000 0.0000
# 4 0.0000 0.0000 0.0000 33.8477 0.0000 0.0000
# 5 0.0000 0.0000 0.0000 0.0000 32.4793 0.0000
# 6 0.0000 0.0000 0.0000 0.0000 0.0000 17.3395
#
#
#
# Elastic Compliance Matrix: (Units=1/GPa)
#
#
# Indices 1 2 3 4 5 6 
#
# 1 0.020576 -0.002698 -0.003618 0.000000 0.000000 0.000000
# 2 -0.002698 0.009055 -0.003497 0.000000 0.000000 0.000000
# 3 -0.003618 -0.003497 0.010226 0.000000 0.000000 0.000000
# 4 0.000000 0.000000 0.000000 0.029544 0.000000 0.000000
# 5 0.000000 0.000000 0.000000 0.000000 0.030789 0.000000
# 6 0.000000 0.000000 0.000000 0.000000 0.000000 0.057672
#
#
# Mechanical properties :
#
#
# Convention : Reuss Voigt Hill
#
# Bulk Modulus (GPa) = 49.43031 62.64720 56.03875
# Shear Modulus (GPa) = 27.13967 30.74121 28.94044
#
# Velocity S-wave (km/s) = 3.67137 3.90739 3.79122
# Velocity P-wave (km/s) = 6.52086 7.17431 6.85538
#
# Compressibility (1/GPa) = 0.02023050
#
# Stress axis : x y z
#
# Youngs Moduli (GPa) = 48.60037 110.43905 97.78607
#
# Poissons Ratio (x) = 0.29797 0.35378
# Poissons Ratio (y) = 0.13113 0.34200
# Poissons Ratio (z) = 0.17583 0.38625
#
# Static dielectric constant tensor:
#      x y z
#    x 4.618560 0.000000 0.000000 
#    y 0.000000 3.907660 0.000000 
#    z 0.000000 0.000000 3.777330 
# 
# 
# High freq. dielectric constant tensor:
#      x y z
#    x 1.777480 0.000000 0.000000 
#    y 0.000000 1.796820 0.000000 
#    z 0.000000 0.000000 1.785100 
# 
# From -- ./inp_files/64543.got.cif
#   From: 2010.03.12/outbox.cif.g09.slc.cpg/sg74_33_cif.got.tgz:64543.got - 2010.04.16 15:46:19.
