data_PCOD8300294
_publ_section_title
;
Structure prediction by ZEFSAII (Michael W. Deem and Ramdas Pophale) SiO2 
 PCOD8300294
Probable space group: I M M A
;
_chemical_formula_sum "Si O2"
_cell_formula_units_Z 112
_cell_length_a 15.423704
_cell_length_b 27.968567
_cell_length_c 13.902787
_cell_angle_alpha 90.000000
_cell_angle_beta 90.000000
_cell_angle_gamma 90.000000
_cell_volume 5997.368945
_symmetry_space_group_name_H-M "I M M A"
_symmetry_group_IT_number 74
_symmetry_cell_setting 'orthorhombic'
loop_
_space_group_symop_operation_xyz
x,y,z
-x,1/2-y,z
x,-y,-z
-x,1/2+y,-z
-x,-y,-z
x,1/2+y,-z
-x,y,z
x,1/2-y,z
1/2+x,1/2+y,1/2+z
1/2-x,-y,1/2+z
1/2+x,1/2-y,1/2-z
1/2-x,y,1/2-z
1/2-x,1/2-y,1/2-z
1/2+x,y,1/2-z
1/2-x,1/2+y,1/2+z
1/2+x,-y,1/2+z
loop_
_atom_site_type_symbol
_atom_site_label
_atom_site_fract_x
_atom_site_fract_y
_atom_site_fract_z
Si Si1 0.845418 0.599832 0.125362
Si Si2 0.228128 0.451212 0.349590
Si Si3 0.166140 0.599145 0.464815
Si Si4 0.898625 0.302970 0.799054
Si Si5 0.101945 0.697617 0.422066
Si Si6 0.902340 0.961609 0.309586
Si Si7 0.908710 0.451627 0.051859
O O1 0.746430 0.586723 0.104612
O O2 0.848465 0.656723 0.142249
O O3 0.880119 0.569946 0.215808
O O4 0.896831 0.589977 0.027015
O O5 0.250000 0.423267 0.250000
O O6 0.177056 0.419916 0.426986
O O7 0.169782 0.497524 0.325951
O O8 0.325076 0.463295 0.384392
O O9 0.149300 0.655427 0.479725
O O10 0.091186 0.571869 0.405453
O O11 0.874813 0.250000 0.838913
O O12 0.870405 0.306479 0.688566
O O13 0.000000 0.312795 0.809056
O O14 0.130225 0.750000 0.461893
O O15 0.000000 0.691370 0.434000
O O16 0.000000 0.982744 0.295764
O O17 0.000000 0.439137 0.108636
O O18 0.928142 0.500000 0.000000
#
# Coordination Sequence:
#
# PCOD8300294 Si02
#       7
#    16  16  16  16  16  16  16
#     4  11  21  34  54  82 114 146 178 218 266 330
#     4  11  24  40  53  74 107 139 186 240 276 315
#     4  11  22  35  54  78 108 142 184 228 271 322
#     4   9  17  30  50  78 112 145 173 204 251 322
#     4   9  18  33  53  79 112 146 180 219 267 332
#     4  12  23  35  54  80 112 148 181 217 271 332
#     4  10  20  36  57  77 101 139 183 225 270 324
#
# _framework density 18.674855999999998
#
# number of rings (size 3 to 8) (size 9 to 14) (size 15 to 20)
#    0.000    1.571    1.429    6.857    0.000    4.000 
#    0.000    1.429    0.000    0.429    0.000    0.000 
#    0.000    9.143    0.000    0.000    0.000    0.000 
#
# Total GULP energy -693748.522415 kJ/mol
# GULP energy per Si atom -12388.366472 kJ/mol
# Density = 1.863235 g / cm^3
# Si number density = 18.674856 Si / 1000 Ang^3
#
#
#
# Elastic Constant Matrix: (Units=GPa)
#
#
# Indices 1 2 3 4 5 6 
#
# 1 94.3038 37.0286 36.0949 -0.0003 0.0000 0.0000
# 2 37.0286 106.8255 46.9203 0.0001 0.0000 0.0000
# 3 36.0949 46.9203 94.4861 -0.0001 0.0001 0.0000
# 4 -0.0003 0.0001 -0.0001 13.4364 0.0001 0.0000
# 5 0.0000 0.0000 0.0001 0.0001 0.6196 0.0000
# 6 0.0000 0.0000 0.0000 0.0000 0.0000 25.6356
#
#
#
# Elastic Compliance Matrix: (Units=1/GPa)
#
#
# Indices 1 2 3 4 5 6 
#
# 1 0.013133 -0.003004 -0.003525 0.000000 0.000000 0.000000
# 2 -0.003004 0.012659 -0.005139 0.000000 0.000000 0.000000
# 3 -0.003525 -0.005139 0.014482 0.000000 -0.000001 0.000000
# 4 0.000000 0.000000 0.000000 0.074425 -0.000007 0.000000
# 5 0.000000 0.000000 -0.000001 -0.000007 1.613941 0.000001
# 6 0.000000 0.000000 0.000000 0.000000 0.000001 0.039008
#
#
# Mechanical properties :
#
#
# Convention : Reuss Voigt Hill
#
# Bulk Modulus (GPa) = 59.03770 59.52257 59.28013
# Shear Modulus (GPa) = 2.78299 19.64309 11.21304
#
# Velocity S-wave (km/s) = 1.22207 3.24674 2.45304
# Velocity P-wave (km/s) = 5.80288 6.78214 6.31153
#
# Compressibility (1/GPa) = 0.01693833
#
# Stress axis : x y z
#
# Youngs Moduli (GPa) = 76.14545 78.99256 69.05029
#
# Poissons Ratio (x) = 0.23728 0.24342
# Poissons Ratio (y) = 0.22873 0.35485
# Poissons Ratio (z) = 0.26843 0.40594
#
# Static dielectric constant tensor:
#      x y z
#    x 4.353440 0.000000 0.000000 
#    y 0.000000 3.482690 0.000000 
#    z 0.000000 0.000000 3.181700 
# 
# 
# High freq. dielectric constant tensor:
#      x y z
#    x 1.743310 0.000000 0.000000 
#    y 0.000000 1.712510 0.000000 
#    z 0.000000 0.000000 1.690630 
# 
# From -- ./inp_files/21098.got.cif
#   From: 2010.03.12/outbox.cif.g09.slc.cpg/sg74_11_cif.got.tgz:21098.got - 2010.04.16 15:46:19.
