data_PCOD8300601
_publ_section_title
;
Structure prediction by ZEFSAII (Michael W. Deem and Ramdas Pophale) SiO2 
 PCOD8300601
Probable space group: I M M A
;
_chemical_formula_sum "Si O2"
_cell_formula_units_Z 88
_cell_length_a 9.667166
_cell_length_b 20.955056
_cell_length_c 22.310914
_cell_angle_alpha 90.000000
_cell_angle_beta 90.000000
_cell_angle_gamma 90.000000
_cell_volume 4519.655824
_symmetry_space_group_name_H-M "I M M A"
_symmetry_group_IT_number 74
_symmetry_cell_setting 'orthorhombic'
loop_
_space_group_symop_operation_xyz
x,y,z
-x,1/2-y,z
x,-y,-z
-x,1/2+y,-z
-x,-y,-z
x,1/2+y,-z
-x,y,z
x,1/2-y,z
1/2+x,1/2+y,1/2+z
1/2-x,-y,1/2+z
1/2+x,1/2-y,1/2-z
1/2-x,y,1/2-z
1/2-x,1/2-y,1/2-z
1/2+x,y,1/2-z
1/2-x,1/2+y,1/2+z
1/2+x,-y,1/2+z
loop_
_atom_site_type_symbol
_atom_site_label
_atom_site_fract_x
_atom_site_fract_y
_atom_site_fract_z
Si Si1 0.334189 0.507950 0.192046
Si Si2 0.839693 0.384187 0.866247
Si Si3 0.745594 0.386355 0.121572
Si Si4 0.000000 0.678329 0.676520
Si Si5 0.500000 0.172560 0.310072
Si Si6 0.342631 0.750000 0.308654
Si Si7 0.161537 0.928086 0.001741
O O1 0.500000 0.515186 0.202965
O O2 0.250000 0.484183 0.250000
O O3 0.266986 0.575174 0.173191
O O4 0.303198 0.456856 0.140545
O O5 0.812508 0.310936 0.850090
O O6 0.000000 0.404357 0.853376
O O7 0.804159 0.393894 0.935898
O O8 0.628554 0.335900 0.135134
O O9 0.769917 0.386473 0.050593
O O10 0.872680 0.359884 0.158166
O O11 0.000000 0.644504 0.741804
O O12 0.000000 0.750000 0.696641
O O13 0.500000 0.250000 0.315879
O O14 0.500000 0.750000 0.285931
O O15 0.250000 0.750000 0.250000
O O16 0.000000 0.930538 0.988137
O O17 0.221335 0.000000 0.000000
#
# Coordination Sequence:
#
# PCOD8300601 Si02
#       7
#    16  16  16   8   8   8  16
#     4  12  25  39  62  96 127 161 212 269 323 385
#     4  10  22  42  66  94 126 170 212 262 326 381
#     4  12  23  40  63  94 123 167 216 261 318 381
#     4  11  24  44  61  86 134 169 204 261 331 379
#     4  11  24  42  65  94 124 167 216 263 317 385
#     4  10  22  42  68  96 130 168 209 263 322 384
#     4  10  20  39  64  92 128 165 208 261 316 379
#
# _framework density 19.470509
#
# number of rings (size 3 to 8) (size 9 to 14) (size 15 to 20)
#    0.000    1.091    3.636    3.273    2.545    3.636 
#    4.909    1.364    0.000    0.000    0.000    0.000 
#    0.000    0.000    0.000    0.000    0.000    0.000 
#
# Total GULP energy -545534.771236 kJ/mol
# GULP energy per Si atom -12398.517528 kJ/mol
# Density = 1.942619 g / cm^3
# Si number density = 19.470509 Si / 1000 Ang^3
#
#
#
# Elastic Constant Matrix: (Units=GPa)
#
#
# Indices 1 2 3 4 5 6 
#
# 1 126.6425 40.0963 48.8964 0.0000 0.0000 0.0000
# 2 40.0963 97.1306 38.8606 0.0000 0.0000 0.0000
# 3 48.8964 38.8606 135.7622 0.0000 0.0000 0.0000
# 4 0.0000 0.0000 0.0000 33.9661 0.0000 0.0000
# 5 0.0000 0.0000 0.0000 0.0000 7.7976 0.0000
# 6 0.0000 0.0000 0.0000 0.0000 0.0000 -495.7911
#
#
#
# Elastic Compliance Matrix: (Units=1/GPa)
#
#
# Indices 1 2 3 4 5 6 
#
# 1 0.009890 -0.003001 -0.002703 0.000000 0.000000 0.000000
# 2 -0.003001 0.012538 -0.002508 0.000000 0.000000 0.000000
# 3 -0.002703 -0.002508 0.009057 0.000000 0.000000 0.000000
# 4 0.000000 0.000000 0.000000 0.029441 0.000000 0.000000
# 5 0.000000 0.000000 0.000000 0.000000 0.128244 0.000000
# 6 0.000000 0.000000 0.000000 0.000000 0.000000 -0.002017
#
#
# Mechanical properties :
#
#
# Convention : Reuss Voigt Hill
#
# Bulk Modulus (GPa) = 66.39750 68.36020 67.37885
# Shear Modulus (GPa) = 23.96960 -75.36000 -25.69520
#
# Velocity S-wave (km/s) = 3.51247 -6.22806 -3.63671
# Velocity P-wave (km/s) = 7.11516 4.06601 4.12875
#
# Compressibility (1/GPa) = 0.01506081
#
# Stress axis : x y z
#
# Youngs Moduli (GPa) = 101.11137 79.75923 110.40986
#
# Poissons Ratio (x) = 0.23938 0.29843
# Poissons Ratio (y) = 0.30347 0.27689
# Poissons Ratio (z) = 0.27330 0.20002
#
# Static dielectric constant tensor:
#      x y z
#    x 3.296530 0.000000 0.000000 
#    y 0.000000 3.612500 0.000000 
#    z 0.000000 0.000000 3.611160 
# 
# 
# High freq. dielectric constant tensor:
#      x y z
#    x 1.758010 0.000000 0.000000 
#    y 0.000000 1.761250 0.000000 
#    z 0.000000 0.000000 1.764120 
# 
# From -- ./inp_files/48832.got.cif
#   From: 2010.03.12/outbox.cif.g09.slc.cpg/sg74_25_cif.got.tgz:48832.got - 2010.04.16 15:46:19.
