data_PCOD8300888
_publ_section_title
;
Structure prediction by ZEFSAII (Michael W. Deem and Ramdas Pophale) SiO2 
 PCOD8300888
Probable space group: I M M A
;
_chemical_formula_sum "Si O2"
_cell_formula_units_Z 104
_cell_length_a 9.193623
_cell_length_b 21.294086
_cell_length_c 27.052423
_cell_angle_alpha 90.000000
_cell_angle_beta 90.000000
_cell_angle_gamma 90.000000
_cell_volume 5296.047408
_symmetry_space_group_name_H-M "I M M A"
_symmetry_group_IT_number 74
_symmetry_cell_setting 'orthorhombic'
loop_
_space_group_symop_operation_xyz
x,y,z
-x,1/2-y,z
x,-y,-z
-x,1/2+y,-z
-x,-y,-z
x,1/2+y,-z
-x,y,z
x,1/2-y,z
1/2+x,1/2+y,1/2+z
1/2-x,-y,1/2+z
1/2+x,1/2-y,1/2-z
1/2-x,y,1/2-z
1/2-x,1/2-y,1/2-z
1/2+x,y,1/2-z
1/2-x,1/2+y,1/2+z
1/2+x,-y,1/2+z
loop_
_atom_site_type_symbol
_atom_site_label
_atom_site_fract_x
_atom_site_fract_y
_atom_site_fract_z
Si Si1 0.169823 0.177273 0.974796
Si Si2 0.836139 0.348255 0.861817
Si Si3 0.666042 0.531683 0.298900
Si Si4 0.166427 0.180377 0.297003
Si Si5 0.827861 0.563599 0.527499
Si Si6 0.829385 0.750000 0.301500
Si Si7 0.166761 0.566273 0.639909
O O1 0.219633 0.250000 0.983833
O O2 0.204558 0.157234 0.918919
O O3 0.000000 0.170572 0.986611
O O4 0.255965 0.127789 0.008252
O O5 0.824080 0.419177 0.843638
O O6 0.716443 0.310898 0.831548
O O7 0.000000 0.321850 0.852807
O O8 0.500000 0.518705 0.283644
O O9 0.750000 0.555539 0.250000
O O10 0.736818 0.469258 0.320054
O O11 0.225680 0.250000 0.309553
O O12 0.250000 0.151354 0.250000
O O13 0.186783 0.139335 0.346382
O O14 0.000000 0.182286 0.280836
O O15 0.774340 0.500000 0.500000
O O16 0.779439 0.555431 0.584241
O O17 0.000000 0.572014 0.521855
O O18 0.750000 0.750000 0.250000
O O19 0.000000 0.750000 0.292283
O O20 0.000000 0.544151 0.645448
#
# Coordination Sequence:
#
# PCOD8300888 Si02
#       7
#    16  16  16  16  16   8  16
#     4  10  21  39  63  88 118 156 199 250 302 356
#     4  10  21  40  60  81 115 155 195 240 290 342
#     4  11  23  37  58  85 115 154 195 239 291 349
#     4   9  18  33  53  77 105 140 180 219 272 337
#     4  10  22  39  59  86 119 153 194 248 303 356
#     4  12  24  36  56  84 114 150 192 238 287 340
#     4  10  21  37  57  81 113 150 188 238 290 344
#
# _framework density 19.637286
#
# number of rings (size 3 to 8) (size 9 to 14) (size 15 to 20)
#    0.000    1.846    0.769    3.000    0.000    6.769 
#    0.000    1.538    0.000    1.846    0.000    0.000 
#    0.000    0.000    0.000    0.000    0.000    0.000 
#
# Total GULP energy -644779.429072 kJ/mol
# GULP energy per Si atom -12399.604405 kJ/mol
# Density = 1.959259 g / cm^3
# Si number density = 19.637286 Si / 1000 Ang^3
#
#
#
# Elastic Constant Matrix: (Units=GPa)
#
#
# Indices 1 2 3 4 5 6 
#
# 1 80.5944 33.7505 33.0954 0.0000 0.0000 0.0000
# 2 33.7505 105.7755 42.6169 0.0000 0.0000 0.0000
# 3 33.0954 42.6169 92.7503 0.0000 0.0000 0.0000
# 4 0.0000 0.0000 0.0000 19.8586 0.0000 0.0000
# 5 0.0000 0.0000 0.0000 0.0000 32.3559 0.0000
# 6 0.0000 0.0000 0.0000 0.0000 0.0000 32.7415
#
#
#
# Elastic Compliance Matrix: (Units=1/GPa)
#
#
# Indices 1 2 3 4 5 6 
#
# 1 0.015433 -0.003320 -0.003981 0.000000 0.000000 0.000000
# 2 -0.003320 0.012316 -0.004474 0.000000 0.000000 0.000000
# 3 -0.003981 -0.004474 0.014258 0.000000 0.000000 0.000000
# 4 0.000000 0.000000 0.000000 0.050356 0.000000 0.000000
# 5 0.000000 0.000000 0.000000 0.000000 0.030906 0.000000
# 6 0.000000 0.000000 0.000000 0.000000 0.000000 0.030542
#
#
# Mechanical properties :
#
#
# Convention : Reuss Voigt Hill
#
# Bulk Modulus (GPa) = 54.18393 55.33842 54.76117
# Shear Modulus (GPa) = 27.24567 28.30169 27.77368
#
# Velocity S-wave (km/s) = 3.72888 3.80046 3.76484
# Velocity P-wave (km/s) = 6.79645 6.89199 6.84438
#
# Compressibility (1/GPa) = 0.01845566
#
# Stress axis : x y z
#
# Youngs Moduli (GPa) = 64.79565 81.19460 70.13570
#
# Poissons Ratio (x) = 0.26959 0.27923
# Poissons Ratio (y) = 0.21514 0.31380
# Poissons Ratio (z) = 0.25797 0.36328
#
# Static dielectric constant tensor:
#      x y z
#    x 3.553450 0.000000 0.000000 
#    y 0.000000 3.677310 0.000000 
#    z 0.000000 0.000000 3.664530 
# 
# 
# High freq. dielectric constant tensor:
#      x y z
#    x 1.759080 0.000000 0.000000 
#    y 0.000000 1.774000 0.000000 
#    z 0.000000 0.000000 1.766450 
# 
# From -- ./inp_files/64458.got.cif
#   From: 2010.03.12/outbox.cif.g09.slc.cpg/sg74_33_cif.got.tgz:64458.got - 2010.04.16 15:46:19.
