data_PCOD8300600
_publ_section_title
;
Structure prediction by ZEFSAII (Michael W. Deem and Ramdas Pophale) SiO2 
 PCOD8300600
Probable space group: I M M A
;
_chemical_formula_sum "Si O2"
_cell_formula_units_Z 116
_cell_length_a 24.383574
_cell_length_b 17.749131
_cell_length_c 13.223205
_cell_angle_alpha 90.000000
_cell_angle_beta 90.000000
_cell_angle_gamma 90.000000
_cell_volume 5722.834517
_symmetry_space_group_name_H-M "I M M A"
_symmetry_group_IT_number 74
_symmetry_cell_setting 'orthorhombic'
loop_
_space_group_symop_operation_xyz
x,y,z
-x,1/2-y,z
x,-y,-z
-x,1/2+y,-z
-x,-y,-z
x,1/2+y,-z
-x,y,z
x,1/2-y,z
1/2+x,1/2+y,1/2+z
1/2-x,-y,1/2+z
1/2+x,1/2-y,1/2-z
1/2-x,y,1/2-z
1/2-x,1/2-y,1/2-z
1/2+x,y,1/2-z
1/2-x,1/2+y,1/2+z
1/2+x,-y,1/2+z
loop_
_atom_site_type_symbol
_atom_site_label
_atom_site_fract_x
_atom_site_fract_y
_atom_site_fract_z
Si Si1 0.439266 0.526255 0.610660
Si Si2 0.654614 0.336042 0.101162
Si Si3 0.562826 0.915326 0.020100
Si Si4 0.333827 0.412593 0.311913
Si Si5 0.419704 0.883423 0.254229
Si Si6 0.801911 0.085094 0.816155
Si Si7 0.500000 0.750000 0.267112
Si Si8 0.229920 0.664205 0.983805
O O1 0.420486 0.500000 0.500000
O O2 0.500000 0.562675 0.607344
O O3 0.396383 0.589087 0.647618
O O4 0.440140 0.456452 0.686613
O O5 0.649351 0.250000 0.137272
O O6 0.666390 0.388198 0.196402
O O7 0.704595 0.346575 0.023077
O O8 0.598607 0.358568 0.046051
O O9 0.500000 0.905428 0.984500
O O10 0.567420 0.893286 0.136087
O O11 0.583651 0.000000 0.000000
O O12 0.308907 0.495724 0.317372
O O13 0.297053 0.355798 0.376293
O O14 0.354616 0.872916 0.269714
O O15 0.452383 0.810874 0.289828
O O16 0.750000 0.109902 0.750000
O O17 0.793828 0.109672 0.931408
O O18 0.215207 0.750000 0.010717
#
# Coordination Sequence:
#
# PCOD8300600 Si02
#       8
#    16  16  16  16  16  16   4  16
#     4  10  20  39  64  92 122 158 210 266 317 365
#     4  11  25  41  64  93 127 168 209 262 323 378
#     4  11  23  41  65  94 126 165 214 261 311 377
#     4  11  22  40  67  90 121 165 214 261 312 385
#     4  11  23  40  63  92 124 169 205 253 314 379
#     4  11  23  40  64  95 124 159 210 266 315 371
#     4  12  24  40  62  88 128 174 210 246 308 416
#     4  11  24  42  61  89 127 164 207 257 321 390
#
# _framework density 20.269677000000001
#
# number of rings (size 3 to 8) (size 9 to 14) (size 15 to 20)
#    0.000    1.103    1.379    6.207    1.931    4.414 
#    0.000    0.000    0.000    1.241    0.000    0.000 
#    0.000    0.000    0.000    0.000    0.000    0.000 
#
# Total GULP energy -718566.274969 kJ/mol
# GULP energy per Si atom -12389.073706 kJ/mol
# Density = 2.022354 g / cm^3
# Si number density = 20.269677 Si / 1000 Ang^3
#
#
#
# Elastic Constant Matrix: (Units=GPa)
#
#
# Indices 1 2 3 4 5 6 
#
# 1 138.2998 44.4741 19.1800 0.0000 0.0000 0.0000
# 2 44.4741 97.9459 29.4459 0.0000 0.0000 0.0000
# 3 19.1800 29.4459 91.4999 0.0000 0.0000 0.0000
# 4 0.0000 0.0000 0.0000 21.3330 0.0000 0.0000
# 5 0.0000 0.0000 0.0000 0.0000 19.8127 0.0000
# 6 0.0000 0.0000 0.0000 0.0000 0.0000 29.8380
#
#
#
# Elastic Compliance Matrix: (Units=1/GPa)
#
#
# Indices 1 2 3 4 5 6 
#
# 1 0.008496 -0.003678 -0.000597 0.000000 0.000000 0.000000
# 2 -0.003678 0.012896 -0.003379 0.000000 0.000000 0.000000
# 3 -0.000597 -0.003379 0.012142 0.000000 0.000000 0.000000
# 4 0.000000 0.000000 0.000000 0.046876 0.000000 0.000000
# 5 0.000000 0.000000 0.000000 0.000000 0.050473 0.000000
# 6 0.000000 0.000000 0.000000 0.000000 0.000000 0.033514
#
#
# Mechanical properties :
#
#
# Convention : Reuss Voigt Hill
#
# Bulk Modulus (GPa) = 54.87111 57.10507 55.98809
# Shear Modulus (GPa) = 26.91350 29.83980 28.37665
#
# Velocity S-wave (km/s) = 3.64781 3.84101 3.74566
# Velocity P-wave (km/s) = 6.69861 6.92134 6.81089
#
# Compressibility (1/GPa) = 0.01822453
#
# Stress axis : x y z
#
# Youngs Moduli (GPa) = 117.69721 77.54468 82.36166
#
# Poissons Ratio (x) = 0.28524 0.04919
# Poissons Ratio (y) = 0.43293 0.27830
# Poissons Ratio (z) = 0.07029 0.26202
#
# Static dielectric constant tensor:
#      x y z
#    x 5.742020 0.000000 0.000000 
#    y 0.000000 4.309840 0.000000 
#    z 0.000000 0.000000 3.533500 
# 
# 
# High freq. dielectric constant tensor:
#      x y z
#    x 1.820520 0.000000 0.000000 
#    y 0.000000 1.787900 0.000000 
#    z 0.000000 0.000000 1.787400 
# 
# From -- ./inp_files/26410.got.cif
#   From: 2010.03.12/outbox.cif.g09.slc.cpg/sg74_14_cif.got.tgz:26410.got - 2010.04.16 15:46:19.
