data_PCOD8300842
_publ_section_title
;
Structure prediction by ZEFSAII (Michael W. Deem and Ramdas Pophale) SiO2 
 PCOD8300842
Probable space group: I M M A
;
_chemical_formula_sum "Si O2"
_cell_formula_units_Z 88
_cell_length_a 8.751297
_cell_length_b 22.194219
_cell_length_c 24.832187
_cell_angle_alpha 90.000000
_cell_angle_beta 90.000000
_cell_angle_gamma 90.000000
_cell_volume 4823.111037
_symmetry_space_group_name_H-M "I M M A"
_symmetry_group_IT_number 74
_symmetry_cell_setting 'orthorhombic'
loop_
_space_group_symop_operation_xyz
x,y,z
-x,1/2-y,z
x,-y,-z
-x,1/2+y,-z
-x,-y,-z
x,1/2+y,-z
-x,y,z
x,1/2-y,z
1/2+x,1/2+y,1/2+z
1/2-x,-y,1/2+z
1/2+x,1/2-y,1/2-z
1/2-x,y,1/2-z
1/2-x,1/2-y,1/2-z
1/2+x,y,1/2-z
1/2-x,1/2+y,1/2+z
1/2+x,-y,1/2+z
loop_
_atom_site_type_symbol
_atom_site_label
_atom_site_fract_x
_atom_site_fract_y
_atom_site_fract_z
Si Si1 0.678015 0.102649 0.805174
Si Si2 0.681995 0.250000 0.190697
Si Si3 0.675336 0.178813 0.602890
Si Si4 0.818815 0.862408 0.872125
Si Si5 0.319553 0.816284 0.515247
Si Si6 0.181045 0.965408 0.693690
O O1 0.500000 0.105111 0.796435
O O2 0.750000 0.127398 0.750000
O O3 0.721933 0.144720 0.854395
O O4 0.731018 0.034252 0.816794
O O5 0.500000 0.250000 0.193736
O O6 0.750000 0.250000 0.250000
O O7 0.738353 0.190729 0.160291
O O8 0.500000 0.159975 0.612023
O O9 0.696330 0.250000 0.610139
O O10 0.734295 0.159013 0.543149
O O11 0.772479 0.859103 0.935327
O O12 0.756981 0.926701 0.853412
O O13 0.000000 0.856980 0.863830
O O14 0.500000 0.809252 0.511886
O O15 0.248533 0.750000 0.525923
O O16 0.250000 0.942296 0.750000
O O17 0.000000 0.956312 0.694164
#
# Coordination Sequence:
#
# PCOD8300842 Si02
#       6
#    16   8  16  16  16  16
#     4  10  21  37  57  79 107 141 176 217 264 319
#     4  12  24  36  50  74 108 142 179 226 273 316
#     4   9  18  34  58  84 109 138 173 216 262 312
#     4  11  20  34  56  79 104 139 181 224 267 314
#     4   8  15  31  54  78 105 138 176 217 260 309
#     4  10  21  37  54  75 104 140 180 221 268 320
#
# _framework density 18.245484999999999
#
# number of rings (size 3 to 8) (size 9 to 14) (size 15 to 20)
#    0.000    2.182    0.909    4.091    0.000    2.909 
#    0.000    2.727    0.000    5.455    0.000    0.000 
#    0.000    0.000    0.000    0.000    0.000    0.000 
#
# Total GULP energy -545540.068623 kJ/mol
# GULP energy per Si atom -12398.637923 kJ/mol
# Density = 1.820396 g / cm^3
# Si number density = 18.245485 Si / 1000 Ang^3
#
#
#
# Elastic Constant Matrix: (Units=GPa)
#
#
# Indices 1 2 3 4 5 6 
#
# 1 71.3089 27.8002 41.3674 0.0000 0.0000 0.0000
# 2 27.8002 64.6544 62.9081 0.0000 0.0000 0.0000
# 3 41.3674 62.9081 163.7286 0.0000 0.0000 0.0000
# 4 0.0000 0.0000 0.0000 23.8393 0.0000 0.0000
# 5 0.0000 0.0000 0.0000 0.0000 27.9685 0.0000
# 6 0.0000 0.0000 0.0000 0.0000 0.0000 30.4180
#
#
#
# Elastic Compliance Matrix: (Units=1/GPa)
#
#
# Indices 1 2 3 4 5 6 
#
# 1 0.017435 -0.005128 -0.002435 0.000000 0.000000 0.000000
# 2 -0.005128 0.026209 -0.008775 0.000000 0.000000 0.000000
# 3 -0.002435 -0.008775 0.010094 0.000000 0.000000 0.000000
# 4 0.000000 0.000000 0.000000 0.041948 0.000000 0.000000
# 5 0.000000 0.000000 0.000000 0.000000 0.035755 0.000000
# 6 0.000000 0.000000 0.000000 0.000000 0.000000 0.032875
#
#
# Mechanical properties :
#
#
# Convention : Reuss Voigt Hill
#
# Bulk Modulus (GPa) = 47.47379 62.64926 55.06152
# Shear Modulus (GPa) = 24.50837 27.61955 26.06396
#
# Velocity S-wave (km/s) = 3.66902 3.89495 3.78367
# Velocity P-wave (km/s) = 6.63513 7.39181 7.02367
#
# Compressibility (1/GPa) = 0.02106426
#
# Stress axis : x y z
#
# Youngs Moduli (GPa) = 57.35559 38.15443 99.06572
#
# Poissons Ratio (x) = 0.19564 0.24123
# Poissons Ratio (y) = 0.29409 0.86927
# Poissons Ratio (z) = 0.13966 0.33479
#
# Static dielectric constant tensor:
#      x y z
#    x 3.261930 0.000000 0.000000 
#    y 0.000000 3.338610 0.000000 
#    z 0.000000 0.000000 3.622050 
# 
# 
# High freq. dielectric constant tensor:
#      x y z
#    x 1.699980 0.000000 0.000000 
#    y 0.000000 1.693790 0.000000 
#    z 0.000000 0.000000 1.718520 
# 
# From -- ./inp_files/48783.got.cif
#   From: 2010.03.12/outbox.cif.g09.slc.cpg/sg74_25_cif.got.tgz:48783.got - 2010.04.16 15:46:19.
