data_PCOD8300070
_publ_section_title
;
Structure prediction by ZEFSAII (Michael W. Deem and Ramdas Pophale) SiO2 
 PCOD8300070
Probable space group: I M M A
;
_chemical_formula_sum "Si O2"
_cell_formula_units_Z 96
_cell_length_a 19.786496
_cell_length_b 8.784577
_cell_length_c 30.575671
_cell_angle_alpha 90.000000
_cell_angle_beta 90.000000
_cell_angle_gamma 90.000000
_cell_volume 5314.540759
_symmetry_space_group_name_H-M "I M M A"
_symmetry_group_IT_number 74
_symmetry_cell_setting 'orthorhombic'
loop_
_space_group_symop_operation_xyz
x,y,z
-x,1/2-y,z
x,-y,-z
-x,1/2+y,-z
-x,-y,-z
x,1/2+y,-z
-x,y,z
x,1/2-y,z
1/2+x,1/2+y,1/2+z
1/2-x,-y,1/2+z
1/2+x,1/2-y,1/2-z
1/2-x,y,1/2-z
1/2-x,1/2-y,1/2-z
1/2+x,y,1/2-z
1/2-x,1/2+y,1/2+z
1/2+x,-y,1/2+z
loop_
_atom_site_type_symbol
_atom_site_label
_atom_site_fract_x
_atom_site_fract_y
_atom_site_fract_z
Si Si1 0.790237 0.570851 0.706355
Si Si2 0.289727 0.069358 0.626904
Si Si3 0.923636 0.071680 0.735083
Si Si4 0.282650 0.569934 0.952108
Si Si5 0.927076 0.930499 0.165790
Si Si6 0.428989 0.428035 0.047038
O O1 0.784880 0.750000 0.699277
O O2 0.750000 0.518938 0.750000
O O3 0.759107 0.488545 0.664703
O O4 0.868850 0.522686 0.707621
O O5 0.285464 0.250000 0.625179
O O6 0.365927 0.009679 0.636056
O O7 0.272031 0.001301 0.579958
O O8 0.906878 0.250000 0.731351
O O9 0.916964 0.012540 0.784728
O O10 0.000000 0.039064 0.717819
O O11 0.272312 0.750000 0.955042
O O12 0.357118 0.525750 0.931463
O O13 0.272714 0.500000 0.000000
O O14 0.927506 0.750000 0.166746
O O15 0.000000 0.989876 0.147868
O O16 0.500000 0.474594 0.072191
O O17 0.427950 0.250000 0.039742
O O18 0.431201 0.500000 0.000000
#
# Coordination Sequence:
#
# PCOD8300070 Si02
#       6
#    16  16  16  16  16  16
#     4  11  22  34  50  76 111 144 175 215 262 314
#     4  11  21  34  56  80 105 139 179 220 268 319
#     4   9  17  32  54  77 103 139 182 223 264 314
#     4  10  20  35  54  77 107 137 174 221 269 321
#     4   8  15  29  51  78 103 130 170 218 265 316
#     4   8  14  26  46  70  94 124 161 202 248 296
#
# _framework density 18.063649000000002
#
# number of rings (size 3 to 8) (size 9 to 14) (size 15 to 20)
#    0.000    2.500    1.667    2.500    0.000    1.667 
#    0.000    0.833    0.000    5.500    0.000    0.000 
#    0.000    0.000    0.000    0.000    0.000    0.000 
#
# Total GULP energy -594653.000591 kJ/mol
# GULP energy per Si atom -12388.604179 kJ/mol
# Density = 1.802254 g / cm^3
# Si number density = 18.063649 Si / 1000 Ang^3
#
#
#
# Elastic Constant Matrix: (Units=GPa)
#
#
# Indices 1 2 3 4 5 6 
#
# 1 162.5090 37.2987 61.2446 0.0000 0.0000 0.0000
# 2 37.2987 52.0683 29.0730 0.0000 0.0000 0.0000
# 3 61.2446 29.0730 81.7021 0.0000 0.0000 0.0000
# 4 0.0000 0.0000 0.0000 25.8761 0.0000 0.0000
# 5 0.0000 0.0000 0.0000 0.0000 24.0326 0.0000
# 6 0.0000 0.0000 0.0000 0.0000 0.0000 20.4529
#
#
#
# Elastic Compliance Matrix: (Units=1/GPa)
#
#
# Indices 1 2 3 4 5 6 
#
# 1 0.009022 -0.003353 -0.005570 0.000000 0.000000 0.000000
# 2 -0.003353 0.025214 -0.006459 0.000000 0.000000 0.000000
# 3 -0.005570 -0.006459 0.018713 0.000000 0.000000 0.000000
# 4 0.000000 0.000000 0.000000 0.038646 0.000000 0.000000
# 5 0.000000 0.000000 0.000000 0.000000 0.041610 0.000000
# 6 0.000000 0.000000 0.000000 0.000000 0.000000 0.048893
#
#
# Mechanical properties :
#
#
# Convention : Reuss Voigt Hill
#
# Bulk Modulus (GPa) = 45.07387 61.27912 53.17649
# Shear Modulus (GPa) = 22.70082 25.31653 24.00867
#
# Velocity S-wave (km/s) = 3.54886 3.74775 3.64966
# Velocity P-wave (km/s) = 6.46525 7.26121 6.87476
#
# Compressibility (1/GPa) = 0.02218580
#
# Stress axis : x y z
#
# Youngs Moduli (GPa) = 110.83746 39.66105 53.43821
#
# Poissons Ratio (x) = 0.13298 0.29765
# Poissons Ratio (y) = 0.37163 0.34514
# Poissons Ratio (z) = 0.61737 0.25616
#
# Static dielectric constant tensor:
#      x y z
#    x 4.150360 0.000000 0.000000 
#    y 0.000000 3.137400 0.000000 
#    z 0.000000 0.000000 2.997200 
# 
# 
# High freq. dielectric constant tensor:
#      x y z
#    x 1.719990 0.000000 0.000000 
#    y 0.000000 1.690030 0.000000 
#    z 0.000000 0.000000 1.658180 
# 
# From -- ./inp_files/64310.got.cif
#   From: 2010.03.12/outbox.cif.g09.slc.cpg/sg74_33_cif.got.tgz:64310.got - 2010.04.16 15:46:19.
