data_PCOD8300614
_publ_section_title
;
Structure prediction by ZEFSAII (Michael W. Deem and Ramdas Pophale) SiO2 
 PCOD8300614
Probable space group: I M M A
;
_chemical_formula_sum "Si O2"
_cell_formula_units_Z 104
_cell_length_a 25.816159
_cell_length_b 22.075203
_cell_length_c 9.514810
_cell_angle_alpha 90.000000
_cell_angle_beta 90.000000
_cell_angle_gamma 90.000000
_cell_volume 5422.461205
_symmetry_space_group_name_H-M "I M M A"
_symmetry_group_IT_number 74
_symmetry_cell_setting 'orthorhombic'
loop_
_space_group_symop_operation_xyz
x,y,z
-x,1/2-y,z
x,-y,-z
-x,1/2+y,-z
-x,-y,-z
x,1/2+y,-z
-x,y,z
x,1/2-y,z
1/2+x,1/2+y,1/2+z
1/2-x,-y,1/2+z
1/2+x,1/2-y,1/2-z
1/2-x,y,1/2-z
1/2-x,1/2-y,1/2-z
1/2+x,y,1/2-z
1/2-x,1/2+y,1/2+z
1/2+x,-y,1/2+z
loop_
_atom_site_type_symbol
_atom_site_label
_atom_site_fract_x
_atom_site_fract_y
_atom_site_fract_z
Si Si1 0.663523 0.878949 0.515913
Si Si2 0.782510 0.620557 0.506147
Si Si3 0.637985 0.250000 0.369149
Si Si4 0.790478 0.250000 0.375950
Si Si5 0.938801 0.124768 0.483843
Si Si6 0.060361 0.750000 0.657179
Si Si7 0.363427 0.441616 0.206513
Si Si8 0.637838 0.084931 0.787355
O O1 0.723044 0.900575 0.506923
O O2 0.658523 0.807606 0.546582
O O3 0.634849 0.917461 0.635033
O O4 0.634348 0.892279 0.371447
O O5 0.784179 0.692263 0.526490
O O6 0.812847 0.585689 0.629653
O O7 0.808450 0.607184 0.356439
O O8 0.655155 0.250000 0.203899
O O9 0.577737 0.250000 0.324286
O O10 0.750000 0.250000 0.250000
O O11 0.922435 0.191227 0.431711
O O12 0.916207 0.077338 0.371051
O O13 0.911837 0.112937 0.633908
O O14 0.000000 0.115207 0.498981
O O15 0.000000 0.750000 0.673443
O O16 0.361655 0.513126 0.204471
#
# Coordination Sequence:
#
# PCOD8300614 Si02
#       8
#    16  16   8   8  16   8  16  16
#     4  12  23  37  59  87 124 160 195 246 302 354
#     4  11  21  37  60  84 117 163 207 247 287 348
#     4  12  20  38  61  89 117 151 195 251 299 354
#     4  12  18  35  59  87 110 150 211 254 290 343
#     4  10  21  42  69  90 111 148 199 253 302 356
#     4  10  20  39  70  93 108 143 199 254 304 353
#     4  11  22  39  61  85 118 162 208 246 284 349
#     4  11  26  38  53  90 127 161 198 239 301 358
#
# _framework density 19.179483000000001
#
# number of rings (size 3 to 8) (size 9 to 14) (size 15 to 20)
#    0.000    0.923    4.615    4.154    0.000    6.154 
#    0.000    3.077    0.000    1.846    0.000    0.000 
#    0.000    0.000    0.000    0.000    0.000    0.000 
#
# Total GULP energy -644867.621599 kJ/mol
# GULP energy per Si atom -12401.300415 kJ/mol
# Density = 1.913583 g / cm^3
# Si number density = 19.179483 Si / 1000 Ang^3
#
#
#
# Elastic Constant Matrix: (Units=GPa)
#
#
# Indices 1 2 3 4 5 6 
#
# 1 99.6513 44.9202 58.6033 0.0000 0.0000 0.0000
# 2 44.9202 135.2504 43.3392 0.0000 0.0000 0.0000
# 3 58.6033 43.3392 144.0796 0.0000 0.0000 0.0000
# 4 0.0000 0.0000 0.0000 12.1345 0.0000 0.0000
# 5 0.0000 0.0000 0.0000 0.0000 20.4652 0.0000
# 6 0.0000 0.0000 0.0000 0.0000 0.0000 16.9867
#
#
#
# Elastic Compliance Matrix: (Units=1/GPa)
#
#
# Indices 1 2 3 4 5 6 
#
# 1 0.014343 -0.003203 -0.004870 0.000000 0.000000 0.000000
# 2 -0.003203 0.008898 -0.001374 0.000000 0.000000 0.000000
# 3 -0.004870 -0.001374 0.009335 0.000000 0.000000 0.000000
# 4 0.000000 0.000000 0.000000 0.082410 0.000000 0.000000
# 5 0.000000 0.000000 0.000000 0.000000 0.048863 0.000000
# 6 0.000000 0.000000 0.000000 0.000000 0.000000 0.058870
#
#
# Mechanical properties :
#
#
# Convention : Reuss Voigt Hill
#
# Bulk Modulus (GPa) = 73.09229 74.74520 73.91874
# Shear Modulus (GPa) = 20.31092 25.39184 22.85138
#
# Velocity S-wave (km/s) = 3.25775 3.64250 3.45548
# Velocity P-wave (km/s) = 7.23484 7.53302 7.38544
#
# Compressibility (1/GPa) = 0.01368133
#
# Stress axis : x y z
#
# Youngs Moduli (GPa) = 69.71997 112.38907 107.12574
#
# Poissons Ratio (x) = 0.35999 0.52175
# Poissons Ratio (y) = 0.22332 0.14715
# Poissons Ratio (z) = 0.33957 0.15438
#
# Static dielectric constant tensor:
#      x y z
#    x 4.065460 0.000000 0.000000 
#    y 0.000000 3.736360 0.000000 
#    z 0.000000 0.000000 3.584840 
# 
# 
# High freq. dielectric constant tensor:
#      x y z
#    x 1.744020 0.000000 0.000000 
#    y 0.000000 1.760760 0.000000 
#    z 0.000000 0.000000 1.740340 
# 
# From -- ./inp_files/15265.got.cif
#   From: 2010.03.12/outbox.cif.g09.slc.cpg/sg74_8_cif.got.tgz:15265.got - 2010.04.16 15:46:19.
