data_PCOD8300957
_publ_section_title
;
Structure prediction by ZEFSAII (Michael W. Deem and Ramdas Pophale) SiO2 
 PCOD8300957
Probable space group: I M M A
;
_chemical_formula_sum "Si O2"
_cell_formula_units_Z 88
_cell_length_a 15.003884
_cell_length_b 13.881737
_cell_length_c 20.228950
_cell_angle_alpha 90.000000
_cell_angle_beta 90.000000
_cell_angle_gamma 90.000000
_cell_volume 4213.285133
_symmetry_space_group_name_H-M "I M M A"
_symmetry_group_IT_number 74
_symmetry_cell_setting 'orthorhombic'
loop_
_space_group_symop_operation_xyz
x,y,z
-x,1/2-y,z
x,-y,-z
-x,1/2+y,-z
-x,-y,-z
x,1/2+y,-z
-x,y,z
x,1/2-y,z
1/2+x,1/2+y,1/2+z
1/2-x,-y,1/2+z
1/2+x,1/2-y,1/2-z
1/2-x,y,1/2-z
1/2-x,1/2-y,1/2-z
1/2+x,y,1/2-z
1/2-x,1/2+y,1/2+z
1/2+x,-y,1/2+z
loop_
_atom_site_type_symbol
_atom_site_label
_atom_site_fract_x
_atom_site_fract_y
_atom_site_fract_z
Si Si1 0.897847 0.860126 0.202581
Si Si2 0.500000 0.636088 0.696084
Si Si3 0.904561 0.641896 0.357608
Si Si4 0.643385 0.500000 0.500000
Si Si5 0.161497 0.355552 0.288136
Si Si6 0.749748 0.019061 0.872433
Si Si7 0.500000 0.363774 0.457312
O O1 0.882103 0.750000 0.177298
O O2 0.882594 0.863334 0.280272
O O3 0.825401 0.934339 0.174102
O O4 0.000000 0.892417 0.184855
O O5 0.500000 0.750000 0.690814
O O6 0.412826 0.601272 0.737194
O O7 0.500000 0.598053 0.619654
O O8 0.911928 0.750000 0.382315
O O9 0.822680 0.596330 0.396631
O O10 0.000000 0.590539 0.372022
O O11 0.703397 0.517628 0.562980
O O12 0.583610 0.403640 0.499227
O O13 0.129547 0.250000 0.317232
O O14 0.250000 0.332290 0.250000
O O15 0.188121 0.434053 0.342470
O O16 0.500000 0.250000 0.461126
#
# Coordination Sequence:
#
# PCOD8300957 Si02
#       7
#    16   8  16   8  16  16   8
#     4   9  19  35  59  92 124 150 187 247 311 370
#     4   9  19  39  69  97 120 154 206 267 332 380
#     4   9  19  36  59  91 122 149 193 250 307 363
#     4  11  28  42  55  92 126 166 225 244 275 388
#     4  10  21  37  60  92 122 155 203 262 325 375
#     4  12  23  38  58  85 122 168 206 248 296 359
#     4  10  23  45  66  87 128 169 201 262 319 363
#
# _framework density 20.886316000000001
#
# number of rings (size 3 to 8) (size 9 to 14) (size 15 to 20)
#    0.000    2.000    0.000    4.364    3.818    5.091 
#    1.636    0.455    0.000    0.000    0.000    0.000 
#    0.000    0.000    0.000    0.000    0.000    0.000 
#
# Total GULP energy -545081.071102 kJ/mol
# GULP energy per Si atom -12388.206161 kJ/mol
# Density = 2.083878 g / cm^3
# Si number density = 20.886316 Si / 1000 Ang^3
#
#
#
# Elastic Constant Matrix: (Units=GPa)
#
#
# Indices 1 2 3 4 5 6 
#
# 1 111.3912 28.0847 6.0587 0.0000 0.0000 0.0000
# 2 28.0847 68.2752 12.9288 0.0000 0.0000 0.0000
# 3 6.0587 12.9288 30.9935 0.0000 0.0000 0.0000
# 4 0.0000 0.0000 0.0000 32.3859 0.0000 0.0000
# 5 0.0000 0.0000 0.0000 0.0000 30.2385 0.0000
# 6 0.0000 0.0000 0.0000 0.0000 0.0000 22.9286
#
#
#
# Elastic Compliance Matrix: (Units=1/GPa)
#
#
# Indices 1 2 3 4 5 6 
#
# 1 0.010018 -0.004072 -0.000260 0.000000 0.000000 0.000000
# 2 -0.004072 0.017558 -0.006528 0.000000 0.000000 0.000000
# 3 -0.000260 -0.006528 0.035039 0.000000 0.000000 0.000000
# 4 0.000000 0.000000 0.000000 0.030878 0.000000 0.000000
# 5 0.000000 0.000000 0.000000 0.000000 0.033070 0.000000
# 6 0.000000 0.000000 0.000000 0.000000 0.000000 0.043614
#
#
# Mechanical properties :
#
#
# Convention : Reuss Voigt Hill
#
# Bulk Modulus (GPa) = 24.45277 33.86715 29.15996
# Shear Modulus (GPa) = 24.32765 28.01645 26.17205
#
# Velocity S-wave (km/s) = 3.41657 3.66646 3.54372
# Velocity P-wave (km/s) = 5.22464 5.84586 5.54396
#
# Compressibility (1/GPa) = 0.04089516
#
# Stress axis : x y z
#
# Youngs Moduli (GPa) = 99.81950 56.95516 28.53974
#
# Poissons Ratio (x) = 0.23190 0.00742
# Poissons Ratio (y) = 0.40643 0.18631
# Poissons Ratio (z) = 0.02594 0.37181
#
# Static dielectric constant tensor:
#      x y z
#    x 4.154840 0.000000 0.000000 
#    y 0.000000 4.103110 0.000000 
#    z 0.000000 0.000000 3.490110 
# 
# 
# High freq. dielectric constant tensor:
#      x y z
#    x 1.839810 0.000000 0.000000 
#    y 0.000000 1.828630 0.000000 
#    z 0.000000 0.000000 1.762360 
# 
# From -- ./inp_files/51773.got.cif
#   From: 2010.03.12/outbox.cif.g09.slc.cpg/sg74_26_cif.got.tgz:51773.got - 2010.04.16 15:46:19.
