data_PCOD8300305
_publ_section_title
;
Structure prediction by ZEFSAII (Michael W. Deem and Ramdas Pophale) SiO2 
 PCOD8300305
Probable space group: I M M A
;
_chemical_formula_sum "Si O2"
_cell_formula_units_Z 104
_cell_length_a 26.502746
_cell_length_b 8.523108
_cell_length_c 23.851876
_cell_angle_alpha 90.000000
_cell_angle_beta 90.000000
_cell_angle_gamma 90.000000
_cell_volume 5387.799292
_symmetry_space_group_name_H-M "I M M A"
_symmetry_group_IT_number 74
_symmetry_cell_setting 'orthorhombic'
loop_
_space_group_symop_operation_xyz
x,y,z
-x,1/2-y,z
x,-y,-z
-x,1/2+y,-z
-x,-y,-z
x,1/2+y,-z
-x,y,z
x,1/2-y,z
1/2+x,1/2+y,1/2+z
1/2-x,-y,1/2+z
1/2+x,1/2-y,1/2-z
1/2-x,y,1/2-z
1/2-x,1/2-y,1/2-z
1/2+x,y,1/2-z
1/2-x,1/2+y,1/2+z
1/2+x,-y,1/2+z
loop_
_atom_site_type_symbol
_atom_site_label
_atom_site_fract_x
_atom_site_fract_y
_atom_site_fract_z
Si Si1 0.291286 0.068299 0.862125
Si Si2 0.182794 0.431213 0.149451
Si Si3 0.000000 0.568795 0.060588
Si Si4 0.127610 0.065633 0.437990
Si Si5 0.108395 0.935608 0.062563
Si Si6 0.640760 0.066095 0.231301
Si Si7 0.557788 0.935619 0.157770
O O1 0.299696 0.250000 0.874849
O O2 0.232580 0.033771 0.856482
O O3 0.317023 0.973923 0.913361
O O4 0.316920 0.023874 0.803720
O O5 0.198639 0.250000 0.151270
O O6 0.149051 0.466264 0.096077
O O7 0.150514 0.477849 0.204210
O O8 0.946939 0.524486 0.090528
O O9 0.000000 0.750000 0.049194
O O10 0.000000 0.500000 0.000000
O O11 0.119605 0.250000 0.438878
O O12 0.121844 0.000000 0.500000
O O13 0.084503 0.989880 0.399296
O O14 0.120100 0.750000 0.064439
O O15 0.110555 0.000000 0.000000
O O16 0.646329 0.250000 0.219708
O O17 0.585251 0.010271 0.212095
O O18 0.500000 0.993201 0.157435
O O19 0.561539 0.750000 0.162378
#
# Coordination Sequence:
#
# PCOD8300305 Si02
#       7
#    16  16   8  16  16  16  16
#     4  11  22  37  59  84 112 147 187 232 283 337
#     4  11  23  38  56  83 114 147 189 232 278 335
#     4   8  16  32  54  76 100 134 172 212 259 316
#     4  11  22  38  60  86 118 154 193 237 284 341
#     4  10  20  36  57  81 110 143 181 225 277 330
#     4  10  21  38  59  82 112 149 189 233 281 336
#     4  10  21  38  60  86 117 153 193 239 289 340
#
# _framework density 19.302872000000001
#
# number of rings (size 3 to 8) (size 9 to 14) (size 15 to 20)
#    0.000    1.692    0.000    6.923    0.000    7.077 
#    1.385    3.077    0.000    0.000    0.000    0.000 
#    0.000    0.000    0.000    0.000    0.000    0.000 
#
# Total GULP energy -644712.177758 kJ/mol
# GULP energy per Si atom -12398.311111 kJ/mol
# Density = 1.925894 g / cm^3
# Si number density = 19.302872 Si / 1000 Ang^3
#
#
#
# Elastic Constant Matrix: (Units=GPa)
#
#
# Indices 1 2 3 4 5 6 
#
# 1 129.9492 26.9567 61.2584 0.0000 0.0000 0.0000
# 2 26.9567 50.4783 8.0756 0.0000 0.0000 0.0000
# 3 61.2584 8.0756 85.4171 0.0000 0.0000 0.0000
# 4 0.0000 0.0000 0.0000 30.7225 0.0000 0.0000
# 5 0.0000 0.0000 0.0000 0.0000 33.5202 0.0000
# 6 0.0000 0.0000 0.0000 0.0000 0.0000 30.0156
#
#
#
# Elastic Compliance Matrix: (Units=1/GPa)
#
#
# Indices 1 2 3 4 5 6 
#
# 1 0.012986 -0.005529 -0.008790 0.000000 0.000000 0.000000
# 2 -0.005529 0.022468 0.001841 0.000000 0.000000 0.000000
# 3 -0.008790 0.001841 0.017837 0.000000 0.000000 0.000000
# 4 0.000000 0.000000 0.000000 0.032549 0.000000 0.000000
# 5 0.000000 0.000000 0.000000 0.000000 0.029833 0.000000
# 6 0.000000 0.000000 0.000000 0.000000 0.000000 0.033316
#
#
# Mechanical properties :
#
#
# Convention : Reuss Voigt Hill
#
# Bulk Modulus (GPa) = 35.29183 50.93624 43.11403
# Shear Modulus (GPa) = 27.26404 30.15526 28.70965
#
# Velocity S-wave (km/s) = 3.76231 3.95678 3.86077
# Velocity P-wave (km/s) = 6.09887 6.87895 6.50062
#
# Compressibility (1/GPa) = 0.02833517
#
# Stress axis : x y z
#
# Youngs Moduli (GPa) = 77.00608 44.50694 56.06184
#
# Poissons Ratio (x) = 0.24606 0.49281
# Poissons Ratio (y) = 0.42573 -0.10319
# Poissons Ratio (z) = 0.67692 -0.08192
#
# Static dielectric constant tensor:
#      x y z
#    x 3.842210 0.000000 0.000000 
#    y 0.000000 3.663840 0.000000 
#    z 0.000000 0.000000 3.402550 
# 
# 
# High freq. dielectric constant tensor:
#      x y z
#    x 1.761320 0.000000 0.000000 
#    y 0.000000 1.767380 0.000000 
#    z 0.000000 0.000000 1.740070 
# 
# From -- ./inp_files/62361.got.cif
#   From: 2010.03.12/outbox.cif.g09.slc.cpg/sg74_32_cif.got.tgz:62361.got - 2010.04.16 15:46:19.
