data_PCOD8300989
_publ_section_title
;
Structure prediction by ZEFSAII (Michael W. Deem and Ramdas Pophale) SiO2 
 PCOD8300989
Probable space group: I M M A
;
_chemical_formula_sum "Si O2"
_cell_formula_units_Z 88
_cell_length_a 21.898575
_cell_length_b 8.603034
_cell_length_c 23.070700
_cell_angle_alpha 90.000000
_cell_angle_beta 90.000000
_cell_angle_gamma 90.000000
_cell_volume 4346.385730
_symmetry_space_group_name_H-M "I M M A"
_symmetry_group_IT_number 74
_symmetry_cell_setting 'orthorhombic'
loop_
_space_group_symop_operation_xyz
x,y,z
-x,1/2-y,z
x,-y,-z
-x,1/2+y,-z
-x,-y,-z
x,1/2+y,-z
-x,y,z
x,1/2-y,z
1/2+x,1/2+y,1/2+z
1/2-x,-y,1/2+z
1/2+x,1/2-y,1/2-z
1/2-x,y,1/2-z
1/2-x,1/2-y,1/2-z
1/2+x,y,1/2-z
1/2-x,1/2+y,1/2+z
1/2+x,-y,1/2+z
loop_
_atom_site_type_symbol
_atom_site_label
_atom_site_fract_x
_atom_site_fract_y
_atom_site_fract_z
Si Si1 0.377048 0.065489 0.118251
Si Si2 0.571929 0.576410 0.441621
Si Si3 0.762174 0.433099 0.560488
Si Si4 0.500000 0.565800 0.065199
Si Si5 0.683927 0.929372 0.764525
Si Si6 0.339890 0.427224 0.362073
O O1 0.386188 0.250000 0.118864
O O2 0.353345 0.999416 0.181046
O O3 0.326680 0.017178 0.071230
O O4 0.441032 0.988478 0.101332
O O5 0.596825 0.500000 0.500000
O O6 0.500000 0.577470 0.439228
O O7 0.598889 0.750000 0.437685
O O8 0.595665 0.472414 0.389411
O O9 0.735794 0.500000 0.500000
O O10 0.772271 0.250000 0.556470
O O11 0.714954 0.469524 0.612313
O O12 0.500000 0.750000 0.060565
O O13 0.500000 0.500000 0.000000
O O14 0.695484 0.750000 0.780694
O O15 0.750000 0.006817 0.750000
O O16 0.646208 0.953637 0.705718
O O17 0.322013 0.250000 0.374897
#
# Coordination Sequence:
#
# PCOD8300989 Si02
#       6
#    16  16  16   8  16  16
#     4  11  22  42  68  93 124 163 209 257 310 370
#     4  10  21  38  58  82 116 155 196 244 300 358
#     4  12  24  38  58  89 124 159 199 249 309 368
#     4  12  26  46  68  96 130 168 215 264 323 382
#     4   9  18  37  64  91 120 156 199 244 295 360
#     4  11  21  37  61  88 118 156 202 249 297 361
#
# _framework density 20.246707000000001
#
# number of rings (size 3 to 8) (size 9 to 14) (size 15 to 20)
#    0.000    1.273    1.818    5.182    0.000    1.091 
#    1.636    4.545    0.000    0.000    0.000    0.000 
#    0.000    0.000    0.000    0.000    0.000    0.000 
#
# Total GULP energy -545553.138603 kJ/mol
# GULP energy per Si atom -12398.934968 kJ/mol
# Density = 2.020062 g / cm^3
# Si number density = 20.246707 Si / 1000 Ang^3
#
#
#
# Elastic Constant Matrix: (Units=GPa)
#
#
# Indices 1 2 3 4 5 6 
#
# 1 77.7725 32.5026 55.5423 0.0000 0.0000 0.0000
# 2 32.5026 96.7541 54.4986 0.0000 0.0000 0.0000
# 3 55.5423 54.4986 137.2526 0.0000 0.0000 0.0000
# 4 0.0000 0.0000 0.0000 25.9984 0.0000 0.0000
# 5 0.0000 0.0000 0.0000 0.0000 22.3660 0.0000
# 6 0.0000 0.0000 0.0000 0.0000 0.0000 33.9177
#
#
#
# Elastic Compliance Matrix: (Units=1/GPa)
#
#
# Indices 1 2 3 4 5 6 
#
# 1 0.018573 -0.002583 -0.006490 0.000000 0.000000 0.000000
# 2 -0.002583 0.013672 -0.004383 0.000000 0.000000 0.000000
# 3 -0.006490 -0.004383 0.011653 0.000000 0.000000 0.000000
# 4 0.000000 0.000000 0.000000 0.038464 0.000000 0.000000
# 5 0.000000 0.000000 0.000000 0.000000 0.044711 0.000000
# 6 0.000000 0.000000 0.000000 0.000000 0.000000 0.029483
#
#
# Mechanical properties :
#
#
# Convention : Reuss Voigt Hill
#
# Bulk Modulus (GPa) = 58.87928 66.31846 62.59887
# Shear Modulus (GPa) = 26.43679 27.73882 27.08780
#
# Velocity S-wave (km/s) = 3.61741 3.70542 3.66168
# Velocity P-wave (km/s) = 6.82580 7.15075 6.99016
#
# Compressibility (1/GPa) = 0.01698390
#
# Stress axis : x y z
#
# Youngs Moduli (GPa) = 53.84268 73.14021 85.81730
#
# Poissons Ratio (x) = 0.18896 0.55695
# Poissons Ratio (y) = 0.13910 0.37617
# Poissons Ratio (z) = 0.34944 0.32060
#
# Static dielectric constant tensor:
#      x y z
#    x 3.608920 0.000000 0.000000 
#    y 0.000000 3.718310 0.000000 
#    z 0.000000 0.000000 3.793710 
# 
# 
# High freq. dielectric constant tensor:
#      x y z
#    x 1.788420 0.000000 0.000000 
#    y 0.000000 1.783860 0.000000 
#    z 0.000000 0.000000 1.801570 
# 
# From -- ./inp_files/61457.got.cif
#   From: 2010.03.12/outbox.cif.g09.slc.cpg/sg74_31_cif.got.tgz:61457.got - 2010.04.16 15:46:19.
