data_PCOD8300949
_publ_section_title
;
Structure prediction by ZEFSAII (Michael W. Deem and Ramdas Pophale) SiO2 
 PCOD8300949
Probable space group: I M M A
;
_chemical_formula_sum "Si O2"
_cell_formula_units_Z 96
_cell_length_a 18.361975
_cell_length_b 15.483869
_cell_length_c 16.001472
_cell_angle_alpha 90.000000
_cell_angle_beta 90.000000
_cell_angle_gamma 90.000000
_cell_volume 4549.449159
_symmetry_space_group_name_H-M "I M M A"
_symmetry_group_IT_number 74
_symmetry_cell_setting 'orthorhombic'
loop_
_space_group_symop_operation_xyz
x,y,z
-x,1/2-y,z
x,-y,-z
-x,1/2+y,-z
-x,-y,-z
x,1/2+y,-z
-x,y,z
x,1/2-y,z
1/2+x,1/2+y,1/2+z
1/2-x,-y,1/2+z
1/2+x,1/2-y,1/2-z
1/2-x,y,1/2-z
1/2-x,1/2-y,1/2-z
1/2+x,y,1/2-z
1/2-x,1/2+y,1/2+z
1/2+x,-y,1/2+z
loop_
_atom_site_type_symbol
_atom_site_label
_atom_site_fract_x
_atom_site_fract_y
_atom_site_fract_z
Si Si1 0.186741 0.019725 0.904112
Si Si2 0.318882 0.149224 0.872618
Si Si3 0.416959 0.422189 0.735235
Si Si4 0.919291 0.892037 0.698703
Si Si5 0.806025 0.658022 0.823492
Si Si6 0.580715 0.649603 0.979795
O O1 0.247362 0.090015 0.879370
O O2 0.114015 0.052700 0.856541
O O3 0.213426 0.924914 0.877296
O O4 0.168246 0.000000 0.000000
O O5 0.296794 0.250000 0.884100
O O6 0.361890 0.142401 0.783843
O O7 0.369715 0.112017 0.946497
O O8 0.500000 0.385010 0.725419
O O9 0.418568 0.505470 0.793651
O O10 0.884313 0.848450 0.779536
O O11 0.881153 0.868594 0.610059
O O12 0.000000 0.853295 0.694618
O O13 0.803652 0.750000 0.874281
O O14 0.750000 0.661140 0.750000
O O15 0.500000 0.606633 0.984316
O O16 0.573495 0.750000 0.996298
#
# Coordination Sequence:
#
# PCOD8300949 Si02
#       6
#    16  16  16  16  16  16
#     4  11  25  42  63  89 126 168 211 267 320 382
#     4  11  24  40  62  92 129 170 214 261 316 380
#     4  10  22  41  64  89 119 164 217 264 317 374
#     4   9  18  34  58  89 124 158 193 240 306 378
#     4  10  21  37  60  87 119 156 201 251 307 371
#     4   9  18  32  54  89 127 159 193 237 299 373
#
# _framework density 21.101455999999999
#
# number of rings (size 3 to 8) (size 9 to 14) (size 15 to 20)
#    0.000    2.000    0.000    3.500    4.667    4.333 
#    0.000    2.500    0.000    0.000    0.000    2.333 
#    0.000    0.000    0.000    0.000    0.000    0.000 
#
# Total GULP energy -594754.375945 kJ/mol
# GULP energy per Si atom -12390.716166 kJ/mol
# Density = 2.105343 g / cm^3
# Si number density = 21.101456 Si / 1000 Ang^3
#
#
#
# Elastic Constant Matrix: (Units=GPa)
#
#
# Indices 1 2 3 4 5 6 
#
# 1 86.8525 27.9388 40.9919 0.0000 0.0000 0.0000
# 2 27.9388 106.6360 34.6320 0.0000 0.0000 0.0000
# 3 40.9919 34.6320 105.0027 0.0000 0.0000 0.0000
# 4 0.0000 0.0000 0.0000 21.6360 0.0000 0.0000
# 5 0.0000 0.0000 0.0000 0.0000 17.6716 0.0000
# 6 0.0000 0.0000 0.0000 0.0000 0.0000 19.0355
#
#
#
# Elastic Compliance Matrix: (Units=1/GPa)
#
#
# Indices 1 2 3 4 5 6 
#
# 1 0.014563 -0.002205 -0.004958 0.000000 0.000000 0.000000
# 2 -0.002205 0.010837 -0.002713 0.000000 0.000000 0.000000
# 3 -0.004958 -0.002713 0.012354 0.000000 0.000000 0.000000
# 4 0.000000 0.000000 0.000000 0.046219 0.000000 0.000000
# 5 0.000000 0.000000 0.000000 0.000000 0.056588 0.000000
# 6 0.000000 0.000000 0.000000 0.000000 0.000000 0.052534
#
#
# Mechanical properties :
#
#
# Convention : Reuss Voigt Hill
#
# Bulk Modulus (GPa) = 55.55311 56.17961 55.86636
# Shear Modulus (GPa) = 22.84694 24.66386 23.75540
#
# Velocity S-wave (km/s) = 3.29404 3.42251 3.35889
# Velocity P-wave (km/s) = 6.39151 6.50381 6.44790
#
# Compressibility (1/GPa) = 0.01800079
#
# Stress axis : x y z
#
# Youngs Moduli (GPa) = 68.66618 92.27925 80.94581
#
# Poissons Ratio (x) = 0.20351 0.40132
# Poissons Ratio (y) = 0.15144 0.21962
# Poissons Ratio (z) = 0.34044 0.25037
#
# Static dielectric constant tensor:
#      x y z
#    x 3.886060 0.000000 0.000000 
#    y 0.000000 2.546560 0.000000 
#    z 0.000000 0.000000 3.615220 
# 
# 
# High freq. dielectric constant tensor:
#      x y z
#    x 1.824540 0.000000 0.000000 
#    y 0.000000 1.827730 0.000000 
#    z 0.000000 0.000000 1.813160 
# 
# From -- ./inp_files/35288.got.cif
#   From: 2010.03.12/outbox.cif.g09.slc.cpg/sg74_18_cif.got.tgz:35288.got - 2010.04.16 15:46:19.
