data_PCOD8300981
_publ_section_title
;
Structure prediction by ZEFSAII (Michael W. Deem and Ramdas Pophale) SiO2 
 PCOD8300981
Probable space group: I M M A
;
_chemical_formula_sum "Si O2"
_cell_formula_units_Z 72
_cell_length_a 28.850155
_cell_length_b 8.783573
_cell_length_c 13.967742
_cell_angle_alpha 90.000000
_cell_angle_beta 90.000000
_cell_angle_gamma 90.000000
_cell_volume 3539.529778
_symmetry_space_group_name_H-M "I M M A"
_symmetry_group_IT_number 74
_symmetry_cell_setting 'orthorhombic'
loop_
_space_group_symop_operation_xyz
x,y,z
-x,1/2-y,z
x,-y,-z
-x,1/2+y,-z
-x,-y,-z
x,1/2+y,-z
-x,y,z
x,1/2-y,z
1/2+x,1/2+y,1/2+z
1/2-x,-y,1/2+z
1/2+x,1/2-y,1/2-z
1/2-x,y,1/2-z
1/2-x,1/2-y,1/2-z
1/2+x,y,1/2-z
1/2-x,1/2+y,1/2+z
1/2+x,-y,1/2+z
loop_
_atom_site_type_symbol
_atom_site_label
_atom_site_fract_x
_atom_site_fract_y
_atom_site_fract_z
Si Si1 0.089206 0.069585 0.277030
Si Si2 0.175735 0.572849 0.603176
Si Si3 0.369379 0.070165 0.604758
Si Si4 0.000000 0.429644 0.395342
Si Si5 0.776911 0.071654 0.103816
O O1 0.089157 0.250000 0.261835
O O2 0.134861 0.007986 0.331317
O O3 0.044778 0.014655 0.336653
O O4 0.089220 0.988464 0.173232
O O5 0.172409 0.500000 0.500000
O O6 0.167753 0.750000 0.587342
O O7 0.226445 0.545215 0.653737
O O8 0.369883 0.250000 0.596798
O O9 0.376454 0.000000 0.500000
O O10 0.320640 0.012230 0.652702
O O11 0.000000 0.500000 0.500000
O O12 0.000000 0.250000 0.407664
O O13 0.788783 0.250000 0.097550
O O14 0.771615 0.000000 0.000000
#
# Coordination Sequence:
#
# PCOD8300981 Si02
#       5
#    16  16  16   8  16
#     4  10  21  38  57  82 112 146 186 228 275 329
#     4   9  18  31  51  78 112 149 186 227 273 323
#     4  11  22  37  57  81 109 146 185 229 276 325
#     4  10  22  40  65  90 117 148 179 222 276 326
#     4   9  16  29  49  75 108 148 185 223 270 322
#
# _framework density 20.341685999999999
#
# number of rings (size 3 to 8) (size 9 to 14) (size 15 to 20)
#    0.000    2.222    0.000    4.667    0.000    3.556 
#    0.000    5.000    0.000    0.000    0.000    0.000 
#    0.000    0.000    0.000    0.000    0.000    0.000 
#
# Total GULP energy -446194.747283 kJ/mol
# GULP energy per Si atom -12394.298536 kJ/mol
# Density = 2.029539 g / cm^3
# Si number density = 20.341686 Si / 1000 Ang^3
#
#
#
# Elastic Constant Matrix: (Units=GPa)
#
#
# Indices 1 2 3 4 5 6 
#
# 1 140.0681 49.9921 85.1310 0.0000 0.0000 0.0000
# 2 49.9921 92.1418 44.4535 0.0000 0.0000 0.0000
# 3 85.1310 44.4535 105.1687 0.0000 0.0000 0.0000
# 4 0.0000 0.0000 0.0000 30.0945 0.0000 0.0000
# 5 0.0000 0.0000 0.0000 0.0000 33.4070 0.0000
# 6 0.0000 0.0000 0.0000 0.0000 0.0000 21.6771
#
#
#
# Elastic Compliance Matrix: (Units=1/GPa)
#
#
# Indices 1 2 3 4 5 6 
#
# 1 0.014602 -0.002789 -0.010641 0.000000 0.000000 0.000000
# 2 -0.002789 0.014165 -0.003730 0.000000 0.000000 0.000000
# 3 -0.010641 -0.003730 0.019699 0.000000 0.000000 0.000000
# 4 0.000000 0.000000 0.000000 0.033229 0.000000 0.000000
# 5 0.000000 0.000000 0.000000 0.000000 0.029934 0.000000
# 6 0.000000 0.000000 0.000000 0.000000 0.000000 0.046132
#
#
# Mechanical properties :
#
#
# Convention : Reuss Voigt Hill
#
# Bulk Modulus (GPa) = 70.68961 77.39241 74.04101
# Shear Modulus (GPa) = 25.40683 27.55586 26.48134
#
# Velocity S-wave (km/s) = 3.53796 3.68455 3.61200
# Velocity P-wave (km/s) = 7.17747 7.49867 7.33983
#
# Compressibility (1/GPa) = 0.01414635
#
# Stress axis : x y z
#
# Youngs Moduli (GPa) = 68.48181 70.59417 50.76345
#
# Poissons Ratio (x) = 0.19686 0.54020
# Poissons Ratio (y) = 0.19097 0.18936
# Poissons Ratio (z) = 0.72875 0.26333
#
# Static dielectric constant tensor:
#      x y z
#    x 4.153250 0.000000 0.000000 
#    y 0.000000 3.585540 0.000000 
#    z 0.000000 0.000000 3.601320 
# 
# 
# High freq. dielectric constant tensor:
#      x y z
#    x 1.792010 0.000000 0.000000 
#    y 0.000000 1.786190 0.000000 
#    z 0.000000 0.000000 1.791960 
# 
# From -- ./inp_files/37072.got.cif
#   From: 2010.03.12/outbox.cif.g09.slc.cpg/sg74_19_cif.got.tgz:37072.got - 2010.04.16 15:46:19.
