data_PCOD8300817
_publ_section_title
;
Structure prediction by ZEFSAII (Michael W. Deem and Ramdas Pophale) SiO2 
 PCOD8300817
Probable space group: I M M A
;
_chemical_formula_sum "Si O2"
_cell_formula_units_Z 112
_cell_length_a 15.124024
_cell_length_b 14.495493
_cell_length_c 25.031129
_cell_angle_alpha 90.000000
_cell_angle_beta 90.000000
_cell_angle_gamma 90.000000
_cell_volume 5487.579017
_symmetry_space_group_name_H-M "I M M A"
_symmetry_group_IT_number 74
_symmetry_cell_setting 'orthorhombic'
loop_
_space_group_symop_operation_xyz
x,y,z
-x,1/2-y,z
x,-y,-z
-x,1/2+y,-z
-x,-y,-z
x,1/2+y,-z
-x,y,z
x,1/2-y,z
1/2+x,1/2+y,1/2+z
1/2-x,-y,1/2+z
1/2+x,1/2-y,1/2-z
1/2-x,y,1/2-z
1/2-x,1/2-y,1/2-z
1/2+x,y,1/2-z
1/2-x,1/2+y,1/2+z
1/2+x,-y,1/2+z
loop_
_atom_site_type_symbol
_atom_site_label
_atom_site_fract_x
_atom_site_fract_y
_atom_site_fract_z
Si Si1 0.783425 0.606973 0.513638
Si Si2 0.604510 0.355202 0.119257
Si Si3 0.169016 0.533536 0.336701
Si Si4 0.599855 0.353294 0.745331
Si Si5 0.595729 0.394374 0.514535
Si Si6 0.593838 0.150979 0.921336
Si Si7 0.163574 0.356190 0.869693
O O1 0.781691 0.500000 0.500000
O O2 0.841781 0.629909 0.564674
O O3 0.681751 0.645642 0.517433
O O4 0.826471 0.654431 0.462727
O O5 0.500000 0.376009 0.111491
O O6 0.617530 0.250000 0.138933
O O7 0.651448 0.422960 0.162785
O O8 0.161217 0.573284 0.276685
O O9 0.094488 0.573789 0.375798
O O10 0.259233 0.567972 0.364052
O O11 0.500000 0.367192 0.764712
O O12 0.633845 0.250000 0.758805
O O13 0.602243 0.370123 0.682023
O O14 0.587949 0.500000 0.500000
O O15 0.500000 0.347783 0.499320
O O16 0.608194 0.380721 0.577919
O O17 0.500000 0.137290 0.952185
O O18 0.595761 0.250000 0.891745
O O19 0.198793 0.250000 0.872263
#
# Coordination Sequence:
#
# PCOD8300817 Si02
#       7
#    16  16  16  16  16  16  16
#     4  11  20  35  55  80 114 155 198 243 292 348
#     4  11  24  40  59  84 117 157 200 246 298 356
#     4  12  21  36  58  84 118 155 196 242 289 349
#     4  10  21  36  57  89 124 158 197 240 290 351
#     4  10  21  38  58  83 116 157 203 245 285 338
#     4  11  21  31  49  78 113 151 187 228 283 347
#     4  11  22  38  60  88 123 161 196 237 296 361
#
# _framework density 20.409728999999999
#
# number of rings (size 3 to 8) (size 9 to 14) (size 15 to 20)
#    0.000    1.143    2.857    5.143    0.000    5.429 
#    0.000    0.000    0.000    1.714    0.000    0.000 
#    0.000    2.286    0.000    0.000    0.000    0.000 
#
# Total GULP energy -693736.405493 kJ/mol
# GULP energy per Si atom -12388.150098 kJ/mol
# Density = 2.036328 g / cm^3
# Si number density = 20.409729 Si / 1000 Ang^3
#
#
#
# Elastic Constant Matrix: (Units=GPa)
#
#
# Indices 1 2 3 4 5 6 
#
# 1 131.0648 32.6506 11.4242 0.0000 0.0000 0.0000
# 2 32.6506 121.4938 33.1847 0.0000 0.0000 0.0000
# 3 11.4242 33.1847 75.8854 0.0000 0.0000 0.0000
# 4 0.0000 0.0000 0.0000 26.9408 0.0000 0.0000
# 5 0.0000 0.0000 0.0000 0.0000 26.0551 0.0000
# 6 0.0000 0.0000 0.0000 0.0000 0.0000 11.2023
#
#
#
# Elastic Compliance Matrix: (Units=1/GPa)
#
#
# Indices 1 2 3 4 5 6 
#
# 1 0.008184 -0.002115 -0.000307 0.000000 0.000000 0.000000
# 2 -0.002115 0.009894 -0.004008 0.000000 0.000000 0.000000
# 3 -0.000307 -0.004008 0.014977 0.000000 0.000000 0.000000
# 4 0.000000 0.000000 0.000000 0.037118 0.000000 0.000000
# 5 0.000000 0.000000 0.000000 0.000000 0.038380 0.000000
# 6 0.000000 0.000000 0.000000 0.000000 0.000000 0.089267
#
#
# Mechanical properties :
#
#
# Convention : Reuss Voigt Hill
#
# Bulk Modulus (GPa) = 49.52137 53.66256 51.59196
# Shear Modulus (GPa) = 22.99771 29.58528 26.29149
#
# Velocity S-wave (km/s) = 3.36043 3.81145 3.59302
# Velocity P-wave (km/s) = 6.27478 6.76160 6.52274
#
# Compressibility (1/GPa) = 0.02019330
#
# Stress axis : x y z
#
# Youngs Moduli (GPa) = 122.19624 101.06939 66.76999
#
# Poissons Ratio (x) = 0.21381 0.02049
# Poissons Ratio (y) = 0.25850 0.26763
# Poissons Ratio (z) = 0.03750 0.40511
#
# Static dielectric constant tensor:
#      x y z
#    x 4.229160 0.000000 0.000000 
#    y 0.000000 3.858270 0.000000 
#    z 0.000000 0.000000 3.585070 
# 
# 
# High freq. dielectric constant tensor:
#      x y z
#    x 1.815970 0.000000 0.000000 
#    y 0.000000 1.785600 0.000000 
#    z 0.000000 0.000000 1.768800 
# 
# From -- ./inp_files/60111.got.cif
#   From: 2010.03.12/outbox.cif.g09.slc.cpg/sg74_31_cif.got.tgz:60111.got - 2010.04.16 15:46:19.
