data_PCOD8300466
_publ_section_title
;
Structure prediction by ZEFSAII (Michael W. Deem and Ramdas Pophale) SiO2 
 PCOD8300466
Probable space group: I M M A
;
_chemical_formula_sum "Si O2"
_cell_formula_units_Z 96
_cell_length_a 14.503002
_cell_length_b 23.975045
_cell_length_c 14.129810
_cell_angle_alpha 90.000000
_cell_angle_beta 90.000000
_cell_angle_gamma 90.000000
_cell_volume 4913.078010
_symmetry_space_group_name_H-M "I M M A"
_symmetry_group_IT_number 74
_symmetry_cell_setting 'orthorhombic'
loop_
_space_group_symop_operation_xyz
x,y,z
-x,1/2-y,z
x,-y,-z
-x,1/2+y,-z
-x,-y,-z
x,1/2+y,-z
-x,y,z
x,1/2-y,z
1/2+x,1/2+y,1/2+z
1/2-x,-y,1/2+z
1/2+x,1/2-y,1/2-z
1/2-x,y,1/2-z
1/2-x,1/2-y,1/2-z
1/2+x,y,1/2-z
1/2-x,1/2+y,1/2+z
1/2+x,-y,1/2+z
loop_
_atom_site_type_symbol
_atom_site_label
_atom_site_fract_x
_atom_site_fract_y
_atom_site_fract_z
Si Si1 0.761713 0.390600 0.645078
Si Si2 0.108057 0.886968 0.674104
Si Si3 0.892763 0.992077 0.390226
Si Si4 0.218578 0.812735 0.527650
Si Si5 0.602749 0.151343 0.381974
Si Si6 0.602820 0.058237 0.532465
O O1 0.750000 0.365562 0.750000
O O2 0.837416 0.439284 0.648646
O O3 0.789013 0.340063 0.575962
O O4 0.663516 0.415086 0.614162
O O5 0.157975 0.849689 0.596828
O O6 0.135560 0.863174 0.776228
O O7 0.000000 0.881973 0.654447
O O8 0.138431 0.951597 0.664497
O O9 0.000000 0.979485 0.373296
O O10 0.870197 0.000000 0.500000
O O11 0.179540 0.750000 0.521408
O O12 0.323422 0.808640 0.567348
O O13 0.500000 0.178964 0.382186
O O14 0.600234 0.093807 0.437563
O O15 0.500000 0.049922 0.574354
O O16 0.647115 0.000000 0.500000
#
# Coordination Sequence:
#
# PCOD8300466 Si02
#       6
#    16  16  16  16  16  16
#     4  11  24  37  58  85 113 154 196 238 280 334
#     4  10  21  37  59  89 120 148 181 228 289 352
#     4  10  20  37  60  86 120 154 183 224 284 350
#     4  11  24  41  59  80 111 152 198 245 284 326
#     4   9  20  37  58  85 115 147 182 228 287 347
#     4   9  19  35  54  82 119 151 182 224 277 338
#
# _framework density 19.539687000000001
#
# number of rings (size 3 to 8) (size 9 to 14) (size 15 to 20)
#    0.000    2.000    1.667    1.000    4.667    3.000 
#    0.000    1.667    0.000    0.000    0.000    4.667 
#    0.000    0.000    0.000    0.000    0.000    0.000 
#
# Total GULP energy -595205.483885 kJ/mol
# GULP energy per Si atom -12400.114248 kJ/mol
# Density = 1.949521 g / cm^3
# Si number density = 19.539687 Si / 1000 Ang^3
#
#
#
# Elastic Constant Matrix: (Units=GPa)
#
#
# Indices 1 2 3 4 5 6 
#
# 1 58.7846 33.5803 34.9984 0.0000 0.0000 0.0000
# 2 33.5803 91.2643 35.8149 0.0002 0.0000 0.0000
# 3 34.9984 35.8149 136.9193 0.0002 0.0000 0.0000
# 4 0.0000 0.0002 0.0002 8.9741 0.0000 0.0000
# 5 0.0000 0.0000 0.0000 0.0000 13.7645 0.0000
# 6 0.0000 0.0000 0.0000 0.0000 0.0000 13.6215
#
#
#
# Elastic Compliance Matrix: (Units=1/GPa)
#
#
# Indices 1 2 3 4 5 6 
#
# 1 0.023500 -0.007009 -0.004174 0.000000 0.000000 0.000000
# 2 -0.007009 0.014301 -0.001949 0.000000 0.000000 0.000000
# 3 -0.004174 -0.001949 0.008880 0.000000 0.000000 0.000000
# 4 0.000000 0.000000 0.000000 0.111432 0.000000 0.000000
# 5 0.000000 0.000000 0.000000 0.000000 0.072651 0.000000
# 6 0.000000 0.000000 0.000000 0.000000 0.000000 0.073413
#
#
# Mechanical properties :
#
#
# Convention : Reuss Voigt Hill
#
# Bulk Modulus (GPa) = 48.97676 55.08393 52.03034
# Shear Modulus (GPa) = 14.82595 19.44365 17.13480
#
# Velocity S-wave (km/s) = 2.75755 3.15792 2.96450
# Velocity P-wave (km/s) = 5.93788 6.44582 6.19706
#
# Compressibility (1/GPa) = 0.02041785
#
# Stress axis : x y z
#
# Youngs Moduli (GPa) = 42.55358 69.92517 112.60941
#
# Poissons Ratio (x) = 0.49009 0.46998
# Poissons Ratio (y) = 0.29825 0.21950
# Poissons Ratio (z) = 0.17760 0.13630
#
# Static dielectric constant tensor:
#      x y z
#    x 3.920150 0.000000 0.000000 
#    y 0.000000 3.345800 0.000000 
#    z 0.000000 0.000000 3.578570 
# 
# 
# High freq. dielectric constant tensor:
#      x y z
#    x 1.770780 0.000000 0.000000 
#    y 0.000000 1.743350 0.000000 
#    z 0.000000 0.000000 1.759160 
# 
# From -- ./inp_files/32395.got.cif
#   From: 2010.03.12/outbox.cif.g09.slc.cpg/sg74_17_cif.got.tgz:32395.got - 2010.04.16 15:46:19.
