data_PCOD8300526
_publ_section_title
;
Structure prediction by ZEFSAII (Michael W. Deem and Ramdas Pophale) SiO2 
 PCOD8300526
Probable space group: I M M A
;
_chemical_formula_sum "Si O2"
_cell_formula_units_Z 96
_cell_length_a 26.101043
_cell_length_b 25.560570
_cell_length_c 7.768066
_cell_angle_alpha 90.000000
_cell_angle_beta 90.000000
_cell_angle_gamma 90.000000
_cell_volume 5182.523777
_symmetry_space_group_name_H-M "I M M A"
_symmetry_group_IT_number 74
_symmetry_cell_setting 'orthorhombic'
loop_
_space_group_symop_operation_xyz
x,y,z
-x,1/2-y,z
x,-y,-z
-x,1/2+y,-z
-x,-y,-z
x,1/2+y,-z
-x,y,z
x,1/2-y,z
1/2+x,1/2+y,1/2+z
1/2-x,-y,1/2+z
1/2+x,1/2-y,1/2-z
1/2-x,y,1/2-z
1/2-x,1/2-y,1/2-z
1/2+x,y,1/2-z
1/2-x,1/2+y,1/2+z
1/2+x,-y,1/2+z
loop_
_atom_site_type_symbol
_atom_site_label
_atom_site_fract_x
_atom_site_fract_y
_atom_site_fract_z
Si Si1 0.940182 0.058274 0.063297
Si Si2 0.620047 0.891764 0.263352
Si Si3 0.707837 0.037635 0.639540
Si Si4 0.781218 0.604499 0.582721
Si Si5 0.612062 0.557389 0.928511
Si Si6 0.194385 0.190643 0.664830
O O1 0.919591 0.067869 0.254784
O O2 0.000000 0.069753 0.063081
O O3 0.915328 0.099796 0.929416
O O4 0.927539 0.000000 0.000000
O O5 0.663181 0.937784 0.247509
O O6 0.649330 0.836206 0.281475
O O7 0.592867 0.901047 0.077113
O O8 0.750000 0.004027 0.750000
O O9 0.741557 0.083722 0.558585
O O10 0.681689 0.000000 0.500000
O O11 0.750000 0.618911 0.750000
O O12 0.827887 0.564354 0.620835
O O13 0.804747 0.658960 0.513935
O O14 0.600125 0.500000 0.000000
O O15 0.177404 0.250000 0.629532
O O16 0.250000 0.188750 0.750000
#
# Coordination Sequence:
#
# PCOD8300526 Si02
#       6
#    16  16  16  16  16  16
#     4  11  24  39  58  83 113 150 191 238 292 349
#     4  11  21  38  57  81 114 151 192 233 284 342
#     4  12  21  31  48  79 116 155 188 220 271 341
#     4  11  21  32  51  80 115 155 192 229 278 340
#     4  11  22  35  52  80 114 156 190 230 276 344
#     4  10  20  38  58  81 114 151 193 236 278 333
#
# _framework density 18.523793000000001
#
# number of rings (size 3 to 8) (size 9 to 14) (size 15 to 20)
#    0.000    1.000    6.667    2.500    2.333    1.333 
#    0.000    0.000    0.000    0.500    0.000    0.000 
#    0.000    0.000    0.000    0.000    0.000    0.000 
#
# Total GULP energy -594995.574661 kJ/mol
# GULP energy per Si atom -12395.741139 kJ/mol
# Density = 1.848163 g / cm^3
# Si number density = 18.523793 Si / 1000 Ang^3
#
#
#
# Elastic Constant Matrix: (Units=GPa)
#
#
# Indices 1 2 3 4 5 6 
#
# 1 84.0460 25.9064 45.8911 0.0000 0.0000 0.0000
# 2 25.9064 72.2413 22.5161 0.0000 0.0000 0.0000
# 3 45.8911 22.5161 118.7787 0.0000 0.0000 0.0000
# 4 0.0000 0.0000 0.0000 15.5328 0.0000 0.0000
# 5 0.0000 0.0000 0.0000 0.0000 26.6427 0.0000
# 6 0.0000 0.0000 0.0000 0.0000 0.0000 12.6975
#
#
#
# Elastic Compliance Matrix: (Units=1/GPa)
#
#
# Indices 1 2 3 4 5 6 
#
# 1 0.016140 -0.004086 -0.005461 0.000000 0.000000 0.000000
# 2 -0.004086 0.015746 -0.001406 0.000000 0.000000 0.000000
# 3 -0.005461 -0.001406 0.010796 0.000000 0.000000 0.000000
# 4 0.000000 0.000000 0.000000 0.064380 0.000000 0.000000
# 5 0.000000 0.000000 0.000000 0.000000 0.037534 0.000000
# 6 0.000000 0.000000 0.000000 0.000000 0.000000 0.078756
#
#
# Mechanical properties :
#
#
# Convention : Reuss Voigt Hill
#
# Bulk Modulus (GPa) = 48.13526 51.52147 49.82836
# Shear Modulus (GPa) = 19.82700 23.02477 21.42588
#
# Velocity S-wave (km/s) = 3.27517 3.52942 3.40467
# Velocity P-wave (km/s) = 6.35172 6.66957 6.51259
#
# Compressibility (1/GPa) = 0.02077479
#
# Stress axis : x y z
#
# Youngs Moduli (GPa) = 61.95972 63.50830 92.63063
#
# Poissons Ratio (x) = 0.25947 0.50587
# Poissons Ratio (y) = 0.25315 0.13027
# Poissons Ratio (z) = 0.33837 0.08931
#
# Static dielectric constant tensor:
#      x y z
#    x 3.288040 0.000000 0.000000 
#    y 0.000000 3.257050 0.000000 
#    z 0.000000 0.000000 4.054520 
# 
# 
# High freq. dielectric constant tensor:
#      x y z
#    x 1.699690 0.000000 0.000000 
#    y 0.000000 1.679650 0.000000 
#    z 0.000000 0.000000 1.736840 
# 
# From -- ./inp_files/13914.got.cif
#   From: 2010.03.12/outbox.cif.g09.slc.cpg/sg74_7_cif.got.tgz:13914.got - 2010.04.16 15:46:19.
