data_PCOD8300212
_publ_section_title
;
Structure prediction by ZEFSAII (Michael W. Deem and Ramdas Pophale) SiO2 
 PCOD8300212
Probable space group: I M M A
;
_chemical_formula_sum "Si O2"
_cell_formula_units_Z 104
_cell_length_a 8.390848
_cell_length_b 21.812527
_cell_length_c 27.394959
_cell_angle_alpha 90.000000
_cell_angle_beta 90.000000
_cell_angle_gamma 90.000000
_cell_volume 5013.978768
_symmetry_space_group_name_H-M "I M M A"
_symmetry_group_IT_number 74
_symmetry_cell_setting 'orthorhombic'
loop_
_space_group_symop_operation_xyz
x,y,z
-x,1/2-y,z
x,-y,-z
-x,1/2+y,-z
-x,-y,-z
x,1/2+y,-z
-x,y,z
x,1/2-y,z
1/2+x,1/2+y,1/2+z
1/2-x,-y,1/2+z
1/2+x,1/2-y,1/2-z
1/2-x,y,1/2-z
1/2-x,1/2-y,1/2-z
1/2+x,y,1/2-z
1/2-x,1/2+y,1/2+z
1/2+x,-y,1/2+z
loop_
_atom_site_type_symbol
_atom_site_label
_atom_site_fract_x
_atom_site_fract_y
_atom_site_fract_z
Si Si1 0.313913 0.180828 0.971794
Si Si2 0.815347 0.354898 0.868920
Si Si3 0.814348 0.542428 0.304341
Si Si4 0.189199 0.181913 0.301715
Si Si5 0.809493 0.560904 0.527751
Si Si6 0.810655 0.750000 0.303856
Si Si7 0.186011 0.574167 0.635640
O O1 0.500000 0.185559 0.981455
O O2 0.241038 0.250000 0.981831
O O3 0.286554 0.160635 0.916377
O O4 0.243361 0.125478 0.005207
O O5 0.776775 0.420903 0.846671
O O6 0.765044 0.309447 0.826876
O O7 0.000000 0.349123 0.882523
O O8 0.750000 0.554419 0.250000
O O9 0.780543 0.473186 0.320697
O O10 0.000000 0.559875 0.305177
O O11 0.255858 0.250000 0.311683
O O12 0.250000 0.156960 0.250000
O O13 0.255595 0.138711 0.344945
O O14 0.000000 0.180805 0.300879
O O15 0.743995 0.500000 0.500000
O O16 0.740385 0.556832 0.583000
O O17 0.000000 0.560629 0.524784
O O18 0.750000 0.750000 0.250000
O O19 0.000000 0.750000 0.308388
O O20 0.000000 0.580277 0.625992
#
# Coordination Sequence:
#
# PCOD8300212 Si02
#       7
#    16  16  16  16  16   8  16
#     4  10  20  35  58  86 114 148 192 243 292 342
#     4  12  24  39  58  82 113 151 190 231 283 340
#     4  11  22  37  57  82 114 152 194 241 289 344
#     4   9  17  30  50  77 109 144 181 224 275 335
#     4   9  17  31  53  81 110 142 185 236 288 337
#     4  12  24  40  60  84 114 146 186 230 275 330
#     4   9  18  32  53  81 112 147 188 236 288 338
#
# _framework density 20.742008999999999
#
# number of rings (size 3 to 8) (size 9 to 14) (size 15 to 20)
#    0.000    1.846    0.769    4.385    0.000    3.077 
#    0.000    3.846    0.000    6.000    0.000    2.154 
#    0.000    0.000    0.000    0.000    0.000    0.000 
#
# Total GULP energy -644505.332572 kJ/mol
# GULP energy per Si atom -12394.333319 kJ/mol
# Density = 2.069480 g / cm^3
# Si number density = 20.742009 Si / 1000 Ang^3
#
#
#
# Elastic Constant Matrix: (Units=GPa)
#
#
# Indices 1 2 3 4 5 6 
#
# 1 29.2940 14.2356 0.4512 0.0000 0.0000 0.0000
# 2 14.2356 135.0889 61.2717 0.0000 0.0000 0.0000
# 3 0.4512 61.2717 111.3153 0.0000 0.0000 0.0000
# 4 0.0000 0.0000 0.0000 47.0207 0.0000 0.0000
# 5 0.0000 0.0000 0.0000 0.0000 22.0833 0.0000
# 6 0.0000 0.0000 0.0000 0.0000 0.0000 18.0794
#
#
#
# Elastic Compliance Matrix: (Units=1/GPa)
#
#
# Indices 1 2 3 4 5 6 
#
# 1 0.036547 -0.005043 0.002628 0.000000 0.000000 0.000000
# 2 -0.005043 0.010561 -0.005793 0.000000 0.000000 0.000000
# 3 0.002628 -0.005793 0.012161 0.000000 0.000000 0.000000
# 4 0.000000 0.000000 0.000000 0.021267 0.000000 0.000000
# 5 0.000000 0.000000 0.000000 0.000000 0.045283 0.000000
# 6 0.000000 0.000000 0.000000 0.000000 0.000000 0.055312
#
#
# Mechanical properties :
#
#
# Convention : Reuss Voigt Hill
#
# Bulk Modulus (GPa) = 23.33545 47.51280 35.42412
# Shear Modulus (GPa) = 23.60352 30.75267 27.17810
#
# Velocity S-wave (km/s) = 3.37702 3.85467 3.62372
# Velocity P-wave (km/s) = 5.14592 6.53969 5.88422
#
# Compressibility (1/GPa) = 0.04285326
#
# Stress axis : x y z
#
# Youngs Moduli (GPa) = 27.36207 94.68392 82.22692
#
# Poissons Ratio (x) = 0.47751 -0.21608
# Poissons Ratio (y) = 0.13799 0.47634
# Poissons Ratio (z) = -0.07190 0.54850
#
# Static dielectric constant tensor:
#      x y z
#    x 3.387810 0.000000 0.000000 
#    y 0.000000 4.203300 0.000000 
#    z 0.000000 0.000000 3.913680 
# 
# 
# High freq. dielectric constant tensor:
#      x y z
#    x 1.770100 0.000000 0.000000 
#    y 0.000000 1.831320 0.000000 
#    z 0.000000 0.000000 1.816610 
# 
# From -- ./inp_files/64459.got.cif
#   From: 2010.03.12/outbox.cif.g09.slc.cpg/sg74_33_cif.got.tgz:64459.got - 2010.04.16 15:46:19.
