data_PCOD8300431
_publ_section_title
;
Structure prediction by ZEFSAII (Michael W. Deem and Ramdas Pophale) SiO2 
 PCOD8300431
Probable space group: I M M A
;
_chemical_formula_sum "Si O2"
_cell_formula_units_Z 96
_cell_length_a 29.292904
_cell_length_b 9.455045
_cell_length_c 18.928712
_cell_angle_alpha 90.000000
_cell_angle_beta 90.000000
_cell_angle_gamma 90.000000
_cell_volume 5242.604452
_symmetry_space_group_name_H-M "I M M A"
_symmetry_group_IT_number 74
_symmetry_cell_setting 'orthorhombic'
loop_
_space_group_symop_operation_xyz
x,y,z
-x,1/2-y,z
x,-y,-z
-x,1/2+y,-z
-x,-y,-z
x,1/2+y,-z
-x,y,z
x,1/2-y,z
1/2+x,1/2+y,1/2+z
1/2-x,-y,1/2+z
1/2+x,1/2-y,1/2-z
1/2-x,y,1/2-z
1/2-x,1/2-y,1/2-z
1/2+x,y,1/2-z
1/2-x,1/2+y,1/2+z
1/2+x,-y,1/2+z
loop_
_atom_site_type_symbol
_atom_site_label
_atom_site_fract_x
_atom_site_fract_y
_atom_site_fract_z
Si Si1 0.268716 0.087844 0.327573
Si Si2 0.125207 0.088593 0.186408
Si Si3 0.551145 0.410010 0.937920
Si Si4 0.552124 0.085003 0.429029
Si Si5 0.706274 0.418633 0.926674
Si Si6 0.123789 0.090328 0.674872
O O1 0.253645 0.250000 0.342616
O O2 0.250000 0.043244 0.250000
O O3 0.322739 0.071026 0.337733
O O4 0.249797 0.980288 0.385764
O O5 0.113423 0.250000 0.202894
O O6 0.088943 0.031161 0.128730
O O7 0.119471 0.006181 0.258114
O O8 0.500000 0.464983 0.925020
O O9 0.552748 0.250000 0.964637
O O10 0.575982 0.427219 0.864051
O O11 0.575018 0.500000 0.000000
O O12 0.500000 0.056383 0.402805
O O13 0.559503 0.250000 0.445393
O O14 0.562400 0.000000 0.500000
O O15 0.711399 0.250000 0.939122
O O16 0.663074 0.457747 0.878672
O O17 0.700595 0.500000 0.000000
O O18 0.132920 0.250000 0.700028
#
# Coordination Sequence:
#
# PCOD8300431 Si02
#       6
#    16  16  16  16  16  16
#     4  10  20  37  58  79 108 146 184 226 277 329
#     4  10  21  36  57  83 110 142 180 221 269 326
#     4   9  18  33  51  72 101 137 177 221 266 312
#     4   9  19  37  59  83 112 144 180 225 277 332
#     4  11  23  37  56  81 110 144 185 228 272 325
#     4  10  21  35  52  78 109 142 179 221 268 320
#
# _framework density 18.311509999999998
#
# number of rings (size 3 to 8) (size 9 to 14) (size 15 to 20)
#    0.000    2.167    1.667    1.000    0.000    4.333 
#    0.000    1.667    0.000    0.000    0.000    0.000 
#    0.000    0.000    0.000    0.000    0.000    0.000 
#
# Total GULP energy -595136.699137 kJ/mol
# GULP energy per Si atom -12398.681232 kJ/mol
# Density = 1.826983 g / cm^3
# Si number density = 18.311510 Si / 1000 Ang^3
#
#
#
# Elastic Constant Matrix: (Units=GPa)
#
#
# Indices 1 2 3 4 5 6 
#
# 1 106.0961 48.2124 68.5195 0.0000 0.0000 0.0000
# 2 48.2124 81.1286 75.2057 0.0000 0.0000 0.0000
# 3 68.5195 75.2057 140.9293 0.0000 0.0000 0.0000
# 4 0.0000 0.0000 0.0000 41.3536 0.0000 0.0000
# 5 0.0000 0.0000 0.0000 0.0000 21.0618 0.0000
# 6 0.0000 0.0000 0.0000 0.0000 0.0000 9.1315
#
#
#
# Elastic Compliance Matrix: (Units=1/GPa)
#
#
# Indices 1 2 3 4 5 6 
#
# 1 0.014394 -0.004090 -0.004816 0.000000 0.000000 0.000000
# 2 -0.004090 0.025555 -0.011649 0.000000 0.000000 0.000000
# 3 -0.004816 -0.011649 0.015653 0.000000 0.000000 0.000000
# 4 0.000000 0.000000 0.000000 0.024182 0.000000 0.000000
# 5 0.000000 0.000000 0.000000 0.000000 0.047479 0.000000
# 6 0.000000 0.000000 0.000000 0.000000 0.000000 0.109512
#
#
# Mechanical properties :
#
#
# Convention : Reuss Voigt Hill
#
# Bulk Modulus (GPa) = 68.99537 79.11437 74.05487
# Shear Modulus (GPa) = 17.68568 23.39046 20.53807
#
# Velocity S-wave (km/s) = 3.11114 3.57790 3.35265
# Velocity P-wave (km/s) = 7.11801 7.76962 7.45094
#
# Compressibility (1/GPa) = 0.01449373
#
# Stress axis : x y z
#
# Youngs Moduli (GPa) = 69.47277 39.13177 63.88348
#
# Poissons Ratio (x) = 0.16003 0.30766
# Poissons Ratio (y) = 0.28412 0.74416
# Poissons Ratio (z) = 0.33458 0.45583
#
# Static dielectric constant tensor:
#      x y z
#    x 3.887730 0.000000 0.000000 
#    y 0.000000 3.417970 0.000000 
#    z 0.000000 0.000000 3.279660 
# 
# 
# High freq. dielectric constant tensor:
#      x y z
#    x 1.719200 0.000000 0.000000 
#    y 0.000000 1.711190 0.000000 
#    z 0.000000 0.000000 1.704600 
# 
# From -- ./inp_files/49152.got.cif
#   From: 2010.03.12/outbox.cif.g09.slc.cpg/sg74_25_cif.got.tgz:49152.got - 2010.04.16 15:46:19.
