data_PCOD8300219
_publ_section_title
;
Structure prediction by ZEFSAII (Michael W. Deem and Ramdas Pophale) SiO2 
 PCOD8300219
Probable space group: I M M A
;
_chemical_formula_sum "Si O2"
_cell_formula_units_Z 112
_cell_length_a 13.974330
_cell_length_b 23.795616
_cell_length_c 15.908625
_cell_angle_alpha 90.000000
_cell_angle_beta 90.000000
_cell_angle_gamma 90.000000
_cell_volume 5290.059922
_symmetry_space_group_name_H-M "I M M A"
_symmetry_group_IT_number 74
_symmetry_cell_setting 'orthorhombic'
loop_
_space_group_symop_operation_xyz
x,y,z
-x,1/2-y,z
x,-y,-z
-x,1/2+y,-z
-x,-y,-z
x,1/2+y,-z
-x,y,z
x,1/2-y,z
1/2+x,1/2+y,1/2+z
1/2-x,-y,1/2+z
1/2+x,1/2-y,1/2-z
1/2-x,y,1/2-z
1/2-x,1/2-y,1/2-z
1/2+x,y,1/2-z
1/2-x,1/2+y,1/2+z
1/2+x,-y,1/2+z
loop_
_atom_site_type_symbol
_atom_site_label
_atom_site_fract_x
_atom_site_fract_y
_atom_site_fract_z
Si Si1 0.743299 0.186793 0.625942
Si Si2 0.104797 0.449610 0.940792
Si Si3 0.736086 0.365896 0.457060
Si Si4 0.110020 0.685445 0.811306
Si Si5 0.112517 0.595043 0.669866
Si Si6 0.391238 0.514216 0.264391
Si Si7 0.608776 0.861564 0.245519
O O1 0.707817 0.250000 0.640229
O O2 0.768029 0.178401 0.528030
O O3 0.659546 0.145823 0.662620
O O4 0.840600 0.177373 0.677439
O O5 0.155247 0.474562 0.856116
O O6 0.000000 0.421246 0.917454
O O7 0.079372 0.500000 0.000000
O O8 0.175022 0.410398 0.991945
O O9 0.673211 0.334042 0.388766
O O10 0.829021 0.394929 0.415782
O O11 0.133070 0.750000 0.787764
O O12 0.133475 0.647684 0.730441
O O13 0.000000 0.677938 0.838240
O O14 0.154475 0.537854 0.713105
O O15 0.000000 0.589883 0.647426
O O16 0.500000 0.495736 0.279576
O O17 0.382285 0.573394 0.214837
O O18 0.500000 0.842095 0.253139
#
# Coordination Sequence:
#
# PCOD8300219 Si02
#       7
#    16  16  16  16  16  16  16
#     4  11  25  41  60  93 128 160 208 265 312 378
#     4  10  20  35  58  90 124 155 197 258 322 377
#     4  12  23  38  61  94 127 164 208 266 319 384
#     4  10  22  41  63  88 123 169 220 271 321 376
#     4  10  23  42  63  91 129 175 219 260 312 379
#     4   9  18  38  64  87 117 158 206 256 310 374
#     4  10  21  42  67  88 121 169 209 254 317 384
#
# _framework density 21.171783000000001
#
# number of rings (size 3 to 8) (size 9 to 14) (size 15 to 20)
#    0.000    1.714    1.429    3.000    0.000    7.429 
#    5.143    0.000    0.000    3.000    0.000    2.000 
#    0.000    0.000    0.000    0.000    0.000    0.000 
#
# Total GULP energy -694163.104884 kJ/mol
# GULP energy per Si atom -12395.769730 kJ/mol
# Density = 2.112359 g / cm^3
# Si number density = 21.171783 Si / 1000 Ang^3
#
#
#
# Elastic Constant Matrix: (Units=GPa)
#
#
# Indices 1 2 3 4 5 6 
#
# 1 111.2402 43.4170 62.9555 -0.0001 0.0000 0.0000
# 2 43.4170 122.1508 38.4433 -0.0001 0.0001 0.0000
# 3 62.9555 38.4433 112.4416 0.0000 0.0001 0.0001
# 4 -0.0001 -0.0001 0.0000 36.2178 0.0001 0.0000
# 5 0.0000 0.0001 0.0001 0.0001 18.5962 0.0000
# 6 0.0000 0.0000 0.0001 0.0000 0.0000 20.7098
#
#
#
# Elastic Compliance Matrix: (Units=1/GPa)
#
#
# Indices 1 2 3 4 5 6 
#
# 1 0.013968 -0.002805 -0.006861 0.000000 0.000000 0.000000
# 2 -0.002805 0.009737 -0.001758 0.000000 0.000000 0.000000
# 3 -0.006861 -0.001758 0.013336 0.000000 0.000000 0.000000
# 4 0.000000 0.000000 0.000000 0.027611 0.000000 0.000000
# 5 0.000000 0.000000 0.000000 0.000000 0.053774 0.000000
# 6 0.000000 0.000000 0.000000 0.000000 0.000000 0.048286
#
#
# Mechanical properties :
#
#
# Convention : Reuss Voigt Hill
#
# Bulk Modulus (GPa) = 70.46679 70.60713 70.53696
# Shear Modulus (GPa) = 25.73440 28.50588 27.12014
#
# Velocity S-wave (km/s) = 3.49019 3.67333 3.58293
# Velocity P-wave (km/s) = 7.04255 7.17030 7.10671
#
# Compressibility (1/GPa) = 0.01419108
#
# Stress axis : x y z
#
# Youngs Moduli (GPa) = 71.59477 102.70010 74.98337
#
# Poissons Ratio (x) = 0.28809 0.51448
# Poissons Ratio (y) = 0.20084 0.13185
# Poissons Ratio (z) = 0.49123 0.18059
#
# Static dielectric constant tensor:
#      x y z
#    x 3.774790 0.000000 0.000000 
#    y 0.000000 3.968320 0.000000 
#    z 0.000000 0.000000 5.141170 
# 
# 
# High freq. dielectric constant tensor:
#      x y z
#    x 1.827510 0.000000 0.000000 
#    y 0.000000 1.838250 0.000000 
#    z 0.000000 0.000000 1.824060 
# 
# From -- ./inp_files/32707.got.cif
#   From: 2010.03.12/outbox.cif.g09.slc.cpg/sg74_17_cif.got.tgz:32707.got - 2010.04.16 15:46:19.
