data_PCOD8300540
_publ_section_title
;
Structure prediction by ZEFSAII (Michael W. Deem and Ramdas Pophale) SiO2 
 PCOD8300540
Probable space group: I M M A
;
_chemical_formula_sum "Si O2"
_cell_formula_units_Z 104
_cell_length_a 8.601622
_cell_length_b 26.179638
_cell_length_c 21.841625
_cell_angle_alpha 90.000000
_cell_angle_beta 90.000000
_cell_angle_gamma 90.000000
_cell_volume 4918.457657
_symmetry_space_group_name_H-M "I M M A"
_symmetry_group_IT_number 74
_symmetry_cell_setting 'orthorhombic'
loop_
_space_group_symop_operation_xyz
x,y,z
-x,1/2-y,z
x,-y,-z
-x,1/2+y,-z
-x,-y,-z
x,1/2+y,-z
-x,y,z
x,1/2-y,z
1/2+x,1/2+y,1/2+z
1/2-x,-y,1/2+z
1/2+x,1/2-y,1/2-z
1/2-x,y,1/2-z
1/2-x,1/2-y,1/2-z
1/2+x,y,1/2-z
1/2-x,1/2+y,1/2+z
1/2+x,-y,1/2+z
loop_
_atom_site_type_symbol
_atom_site_label
_atom_site_fract_x
_atom_site_fract_y
_atom_site_fract_z
Si Si1 0.823377 0.192629 0.093050
Si Si2 0.816815 0.545508 0.313251
Si Si3 0.183342 0.462090 0.104704
Si Si4 0.678884 0.393072 0.502511
Si Si5 0.679907 0.875196 0.814921
Si Si6 0.314480 0.858968 0.367677
Si Si7 0.315894 0.750000 0.318054
O O1 0.786074 0.250000 0.073663
O O2 0.797492 0.159481 0.033006
O O3 0.703332 0.175893 0.145455
O O4 0.000000 0.186197 0.117445
O O5 0.750000 0.521195 0.250000
O O6 0.761543 0.514917 0.374175
O O7 0.754183 0.603522 0.316186
O O8 0.000000 0.544093 0.309933
O O9 0.246876 0.440708 0.038399
O O10 0.220852 0.420673 0.156126
O O11 0.000000 0.470659 0.101035
O O12 0.500000 0.406148 0.513148
O O13 0.756016 0.381618 0.568389
O O14 0.500000 0.890873 0.811627
O O15 0.750000 0.862459 0.750000
O O16 0.500000 0.860905 0.367371
O O17 0.258346 0.800886 0.354258
O O18 0.500000 0.750000 0.313239
O O19 0.250000 0.750000 0.250000
#
# Coordination Sequence:
#
# PCOD8300540 Si02
#       7
#    16  16  16  16  16  16   8
#     4   9  18  33  54  79 108 146 192 244 293 347
#     4  12  25  41  61  88 119 157 199 246 296 354
#     4  10  20  38  61  87 117 153 192 239 292 351
#     4   8  17  34  59  88 117 150 194 240 289 346
#     4  11  21  34  52  76 109 148 192 241 294 355
#     4  10  21  39  62  92 122 157 198 245 296 352
#     4  10  22  38  62  90 122 158 199 246 297 348
#
# _framework density 21.144839000000001
#
# number of rings (size 3 to 8) (size 9 to 14) (size 15 to 20)
#    0.000    2.000    0.000    5.077    1.077    3.077 
#    0.000    6.923    0.000    0.000    0.000    0.000 
#    0.000    0.000    0.000    0.000    0.000    0.000 
#
# Total GULP energy -644534.942251 kJ/mol
# GULP energy per Si atom -12394.902736 kJ/mol
# Density = 2.109671 g / cm^3
# Si number density = 21.144839 Si / 1000 Ang^3
#
#
#
# Elastic Constant Matrix: (Units=GPa)
#
#
# Indices 1 2 3 4 5 6 
#
# 1 59.1915 31.0197 31.7311 0.0000 0.0000 0.0000
# 2 31.0197 136.9386 47.1629 0.0000 0.0000 0.0000
# 3 31.7311 47.1629 111.9234 0.0001 0.0000 0.0000
# 4 0.0000 0.0000 0.0001 24.2074 0.0000 0.0000
# 5 0.0000 0.0000 0.0000 0.0000 23.7007 0.0000
# 6 0.0000 0.0000 0.0000 0.0000 0.0000 23.0167
#
#
#
# Elastic Compliance Matrix: (Units=1/GPa)
#
#
# Indices 1 2 3 4 5 6 
#
# 1 0.021037 -0.003172 -0.004628 0.000000 0.000000 0.000000
# 2 -0.003172 0.009020 -0.002902 0.000000 0.000000 0.000000
# 3 -0.004628 -0.002902 0.011469 0.000000 0.000000 0.000000
# 4 0.000000 0.000000 0.000000 0.041310 0.000000 0.000000
# 5 0.000000 0.000000 0.000000 0.000000 0.042193 0.000000
# 6 0.000000 0.000000 0.000000 0.000000 0.000000 0.043447
#
#
# Mechanical properties :
#
#
# Convention : Reuss Voigt Hill
#
# Bulk Modulus (GPa) = 49.69020 58.65342 54.17181
# Shear Modulus (GPa) = 25.43403 27.39429 26.41416
#
# Velocity S-wave (km/s) = 3.47197 3.60329 3.53824
# Velocity P-wave (km/s) = 6.29474 6.71645 6.50901
#
# Compressibility (1/GPa) = 0.02012469
#
# Stress axis : x y z
#
# Youngs Moduli (GPa) = 47.53476 110.85961 87.18777
#
# Poissons Ratio (x) = 0.35160 0.40348
# Poissons Ratio (y) = 0.15076 0.25301
# Poissons Ratio (z) = 0.21998 0.32170
#
# Static dielectric constant tensor:
#      x y z
#    x 3.570790 0.000000 0.000000 
#    y 0.000000 4.118780 0.000000 
#    z 0.000000 0.000000 4.049820 
# 
# 
# High freq. dielectric constant tensor:
#      x y z
#    x 1.798120 0.000000 0.000000 
#    y 0.000000 1.837020 0.000000 
#    z 0.000000 0.000000 1.835640 
# 
# From -- ./inp_files/49337.got.cif
#   From: 2010.03.12/outbox.cif.g09.slc.cpg/sg74_25_cif.got.tgz:49337.got - 2010.04.16 15:46:19.
