data_PCOD8300745
_publ_section_title
;
Structure prediction by ZEFSAII (Michael W. Deem and Ramdas Pophale) SiO2 
 PCOD8300745
Probable space group: I M M A
;
_chemical_formula_sum "Si O2"
_cell_formula_units_Z 64
_cell_length_a 20.735758
_cell_length_b 29.483337
_cell_length_c 5.236277
_cell_angle_alpha 90.000000
_cell_angle_beta 90.000000
_cell_angle_gamma 90.000000
_cell_volume 3201.246856
_symmetry_space_group_name_H-M "I M M A"
_symmetry_group_IT_number 74
_symmetry_cell_setting 'orthorhombic'
loop_
_space_group_symop_operation_xyz
x,y,z
-x,1/2-y,z
x,-y,-z
-x,1/2+y,-z
-x,-y,-z
x,1/2+y,-z
-x,y,z
x,1/2-y,z
1/2+x,1/2+y,1/2+z
1/2-x,-y,1/2+z
1/2+x,1/2-y,1/2-z
1/2-x,y,1/2-z
1/2-x,1/2-y,1/2-z
1/2+x,y,1/2-z
1/2-x,1/2+y,1/2+z
1/2+x,-y,1/2+z
loop_
_atom_site_type_symbol
_atom_site_label
_atom_site_fract_x
_atom_site_fract_y
_atom_site_fract_z
Si Si1 0.927473 0.343729 0.792643
Si Si2 0.174783 0.976843 0.749271
Si Si3 0.310676 0.301077 0.919213
Si Si4 0.872204 0.877001 0.695860
O O1 0.917949 0.367456 0.064511
O O2 0.000000 0.324300 0.777952
O O3 0.875617 0.303089 0.756314
O O4 0.915641 0.379999 0.561996
O O5 0.250000 0.987791 0.750000
O O6 0.164941 0.923234 0.746375
O O7 0.142796 0.000000 0.500000
O O8 0.143093 0.000000 0.000000
O O9 0.301348 0.250000 0.023821
O O10 0.250000 0.316705 0.750000
O O11 0.319425 0.336155 0.156136
#
# Coordination Sequence:
#
# PCOD8300745 Si02
#       4
#    16  16  16  16
#     4  10  22  39  61  88 121 165 211 248 299 366
#     4  10  21  35  59  93 123 153 200 254 308 373
#     4   9  22  40  62  94 126 161 206 255 310 369
#     4  10  22  37  65  85 124 162 198 251 313 352
#
# _framework density 19.992211999999999
#
# number of rings (size 3 to 8) (size 9 to 14) (size 15 to 20)
#    1.500    0.750    0.000    2.250    3.500    2.500 
#    0.000    2.500    0.000   15.000    0.000    0.000 
#    0.000    0.000    0.000    0.000    0.000    0.000 
#
# Total GULP energy -396473.748241 kJ/mol
# GULP energy per Si atom -12389.804633 kJ/mol
# Density = 1.994671 g / cm^3
# Si number density = 19.992212 Si / 1000 Ang^3
#
#
#
# Elastic Constant Matrix: (Units=GPa)
#
#
# Indices 1 2 3 4 5 6 
#
# 1 86.3380 17.1908 32.8208 0.0000 0.0000 0.0000
# 2 17.1908 120.2325 47.6272 0.0000 0.0000 0.0000
# 3 32.8208 47.6272 157.6861 0.0000 0.0000 0.0000
# 4 0.0000 0.0000 0.0000 24.5352 0.0000 0.0000
# 5 0.0000 0.0000 0.0000 0.0000 14.7126 0.0000
# 6 0.0000 0.0000 0.0000 0.0000 0.0000 9.0263
#
#
#
# Elastic Compliance Matrix: (Units=1/GPa)
#
#
# Indices 1 2 3 4 5 6 
#
# 1 0.012657 -0.000870 -0.002372 0.000000 0.000000 0.000000
# 2 -0.000870 0.009507 -0.002690 0.000000 0.000000 0.000000
# 3 -0.002372 -0.002690 0.007648 0.000000 0.000000 0.000000
# 4 0.000000 0.000000 0.000000 0.040758 0.000000 0.000000
# 5 0.000000 0.000000 0.000000 0.000000 0.067969 0.000000
# 6 0.000000 0.000000 0.000000 0.000000 0.000000 0.110787
#
#
# Mechanical properties :
#
#
# Convention : Reuss Voigt Hill
#
# Bulk Modulus (GPa) = 55.71685 62.17048 58.94366
# Shear Modulus (GPa) = 18.71440 27.42935 23.07187
#
# Velocity S-wave (km/s) = 3.06287 3.70807 3.40081
# Velocity P-wave (km/s) = 6.35909 7.03548 6.70582
#
# Compressibility (1/GPa) = 0.01794789
#
# Stress axis : x y z
#
# Youngs Moduli (GPa) = 79.00628 105.18109 130.75378
#
# Poissons Ratio (x) = 0.09154 0.31010
# Poissons Ratio (y) = 0.06876 0.35179
# Poissons Ratio (z) = 0.18737 0.28299
#
# Static dielectric constant tensor:
#      x y z
#    x 3.336100 0.000000 0.000000 
#    y 0.000000 3.286110 0.000000 
#    z 0.000000 0.000000 3.847060 
# 
# 
# High freq. dielectric constant tensor:
#      x y z
#    x 1.756570 0.000000 0.000000 
#    y 0.000000 1.757640 0.000000 
#    z 0.000000 0.000000 1.793620 
# 
# From -- ./inp_files/3030.got.cif
#   From: 2010.03.12/outbox.cif.g09.slc.cpg/sg74_2_cif.got.tgz:3030.got - 2010.04.16 15:46:19.
