data_PCOD8300735
_publ_section_title
;
Structure prediction by ZEFSAII (Michael W. Deem and Ramdas Pophale) SiO2 
 PCOD8300735
Probable space group: I M M A
;
_chemical_formula_sum "Si O2"
_cell_formula_units_Z 96
_cell_length_a 13.437435
_cell_length_b 16.796800
_cell_length_c 20.348857
_cell_angle_alpha 90.000000
_cell_angle_beta 90.000000
_cell_angle_gamma 90.000000
_cell_volume 4592.857250
_symmetry_space_group_name_H-M "I M M A"
_symmetry_group_IT_number 74
_symmetry_cell_setting 'orthorhombic'
loop_
_space_group_symop_operation_xyz
x,y,z
-x,1/2-y,z
x,-y,-z
-x,1/2+y,-z
-x,-y,-z
x,1/2+y,-z
-x,y,z
x,1/2-y,z
1/2+x,1/2+y,1/2+z
1/2-x,-y,1/2+z
1/2+x,1/2-y,1/2-z
1/2-x,y,1/2-z
1/2-x,1/2-y,1/2-z
1/2+x,y,1/2-z
1/2-x,1/2+y,1/2+z
1/2+x,-y,1/2+z
loop_
_atom_site_type_symbol
_atom_site_label
_atom_site_fract_x
_atom_site_fract_y
_atom_site_fract_z
Si Si1 0.737732 0.341186 0.588604
Si Si2 0.886961 0.114828 0.298790
Si Si3 0.615299 0.089580 0.476779
Si Si4 0.318174 0.340308 0.342889
Si Si5 0.385959 0.434135 0.838414
Si Si6 0.113485 0.342153 0.785943
O O1 0.773993 0.250000 0.594359
O O2 0.682715 0.351408 0.519553
O O3 0.830480 0.401918 0.596172
O O4 0.661691 0.366133 0.645570
O O5 0.802292 0.165820 0.335785
O O6 0.868396 0.119785 0.220863
O O7 0.000000 0.144611 0.314187
O O8 0.871374 0.026687 0.326181
O O9 0.500000 0.112353 0.485365
O O10 0.648586 0.102574 0.401878
O O11 0.635951 0.000000 0.500000
O O12 0.357650 0.250000 0.352605
O O13 0.500000 0.411095 0.848474
O O14 0.338677 0.387912 0.775918
O O15 0.126193 0.250000 0.769970
O O16 0.000000 0.369003 0.793109
#
# Coordination Sequence:
#
# PCOD8300735 Si02
#       6
#    16  16  16  16  16  16
#     4  11  22  36  57  84 119 163 202 243 297 357
#     4  10  22  39  63  93 122 156 199 250 305 357
#     4  11  25  42  63  90 122 160 200 245 300 361
#     4  11  24  41  64  93 123 157 198 249 303 355
#     4  10  21  35  56  85 120 157 198 249 297 347
#     4   9  18  31  50  80 115 153 197 243 295 351
#
# _framework density 20.902021999999999
#
# number of rings (size 3 to 8) (size 9 to 14) (size 15 to 20)
#    0.000    1.667    0.000    4.500    7.000    6.333 
#    0.000    0.833    0.000    5.000    0.000    0.000 
#    0.000    0.000    0.000    0.000    0.000    0.000 
#
# Total GULP energy -595219.999932 kJ/mol
# GULP energy per Si atom -12400.416665 kJ/mol
# Density = 2.085445 g / cm^3
# Si number density = 20.902022 Si / 1000 Ang^3
#
#
#
# Elastic Constant Matrix: (Units=GPa)
#
#
# Indices 1 2 3 4 5 6 
#
# 1 94.2075 37.8022 32.2554 0.0000 0.0000 0.0000
# 2 37.8022 81.3969 34.0578 0.0000 0.0000 0.0000
# 3 32.2554 34.0578 91.0129 0.0000 0.0000 0.0000
# 4 0.0000 0.0000 0.0000 29.8231 0.0000 0.0000
# 5 0.0000 0.0000 0.0000 0.0000 26.2473 0.0000
# 6 0.0000 0.0000 0.0000 0.0000 0.0000 18.6493
#
#
#
# Elastic Compliance Matrix: (Units=1/GPa)
#
#
# Indices 1 2 3 4 5 6 
#
# 1 0.013674 -0.005125 -0.002928 0.000000 0.000000 0.000000
# 2 -0.005125 0.016487 -0.004353 0.000000 0.000000 0.000000
# 3 -0.002928 -0.004353 0.013654 0.000000 0.000000 0.000000
# 4 0.000000 0.000000 0.000000 0.033531 0.000000 0.000000
# 5 0.000000 0.000000 0.000000 0.000000 0.038099 0.000000
# 6 0.000000 0.000000 0.000000 0.000000 0.000000 0.053621
#
#
# Mechanical properties :
#
#
# Convention : Reuss Voigt Hill
#
# Bulk Modulus (GPa) = 52.62592 52.76093 52.69343
# Shear Modulus (GPa) = 24.97319 25.77738 25.37529
#
# Velocity S-wave (km/s) = 3.46030 3.51557 3.48805
# Velocity P-wave (km/s) = 6.41849 6.46342 6.44099
#
# Compressibility (1/GPa) = 0.01900204
#
# Stress axis : x y z
#
# Youngs Moduli (GPa) = 73.13120 60.65306 73.23724
#
# Poissons Ratio (x) = 0.31086 0.21446
# Poissons Ratio (y) = 0.37482 0.31882
# Poissons Ratio (z) = 0.21415 0.26404
#
# Static dielectric constant tensor:
#      x y z
#    x 4.047630 0.000000 0.000000 
#    y 0.000000 3.686160 0.000000 
#    z 0.000000 0.000000 3.649910 
# 
# 
# High freq. dielectric constant tensor:
#      x y z
#    x 1.829640 0.000000 0.000000 
#    y 0.000000 1.820010 0.000000 
#    z 0.000000 0.000000 1.799500 
# 
# From -- ./inp_files/51913.got.cif
#   From: 2010.03.12/outbox.cif.g09.slc.cpg/sg74_26_cif.got.tgz:51913.got - 2010.04.16 15:46:19.
