data_PCOD8300312
_publ_section_title
;
Structure prediction by ZEFSAII (Michael W. Deem and Ramdas Pophale) SiO2 
 PCOD8300312
Probable space group: I M M A
;
_chemical_formula_sum "Si O2"
_cell_formula_units_Z 88
_cell_length_a 27.378005
_cell_length_b 8.613123
_cell_length_c 19.329570
_cell_angle_alpha 90.000000
_cell_angle_beta 90.000000
_cell_angle_gamma 90.000000
_cell_volume 4558.108309
_symmetry_space_group_name_H-M "I M M A"
_symmetry_group_IT_number 74
_symmetry_cell_setting 'orthorhombic'
loop_
_space_group_symop_operation_xyz
x,y,z
-x,1/2-y,z
x,-y,-z
-x,1/2+y,-z
-x,-y,-z
x,1/2+y,-z
-x,y,z
x,1/2-y,z
1/2+x,1/2+y,1/2+z
1/2-x,-y,1/2+z
1/2+x,1/2-y,1/2-z
1/2-x,y,1/2-z
1/2-x,1/2-y,1/2-z
1/2+x,y,1/2-z
1/2-x,1/2+y,1/2+z
1/2+x,-y,1/2+z
loop_
_atom_site_type_symbol
_atom_site_label
_atom_site_fract_x
_atom_site_fract_y
_atom_site_fract_z
Si Si1 0.000000 0.434250 0.423573
Si Si2 0.690887 0.931257 0.184983
Si Si3 0.409484 0.568386 0.832906
Si Si4 0.557158 0.072339 0.692913
Si Si5 0.119933 0.569650 0.924574
Si Si6 0.291042 0.928889 0.669555
O O1 0.000000 0.500000 0.500000
O O2 0.047976 0.495318 0.383303
O O3 0.000000 0.250000 0.425410
O O4 0.698513 0.750000 0.175083
O O5 0.640982 0.983215 0.147558
O O6 0.688529 0.971663 0.266294
O O7 0.736502 0.018160 0.149214
O O8 0.401619 0.750000 0.842735
O O9 0.423613 0.536592 0.753890
O O10 0.500000 0.049713 0.683907
O O11 0.570892 0.250000 0.710378
O O12 0.581179 0.021490 0.621492
O O13 0.105899 0.750000 0.925602
O O14 0.174546 0.542960 0.896003
O O15 0.117442 0.500000 0.000000
O O16 0.290877 0.750000 0.692791
#
# Coordination Sequence:
#
# PCOD8300312 Si02
#       6
#     8  16  16  16  16  16
#     4  10  24  42  64  90 121 158 195 240 298 362
#     4  11  21  33  57  90 118 151 193 247 296 345
#     4  11  21  38  61  89 121 157 198 243 296 356
#     4  11  23  38  60  90 120 154 200 251 298 352
#     4  11  24  40  61  85 119 163 203 249 303 359
#     4  10  20  36  57  84 117 155 195 243 298 354
#
# _framework density 19.306253999999999
#
# number of rings (size 3 to 8) (size 9 to 14) (size 15 to 20)
#    0.000    1.273    2.727    4.909    0.000    5.091 
#    0.000    0.909    0.000    0.000    0.000    0.000 
#    0.000    0.000    0.000    0.000    0.000    0.000 
#
# Total GULP energy -545811.107827 kJ/mol
# GULP energy per Si atom -12404.797905 kJ/mol
# Density = 1.926231 g / cm^3
# Si number density = 19.306254 Si / 1000 Ang^3
#
#
#
# Elastic Constant Matrix: (Units=GPa)
#
#
# Indices 1 2 3 4 5 6 
#
# 1 120.1486 28.9122 20.0766 0.0000 0.0000 0.0000
# 2 28.9122 64.0765 -0.6317 0.0000 0.0000 0.0000
# 3 20.0766 -0.6317 57.7356 0.0000 0.0000 0.0000
# 4 0.0000 0.0000 0.0000 30.3250 0.0000 0.0000
# 5 0.0000 0.0000 0.0000 0.0000 -20.4055 0.0000
# 6 0.0000 0.0000 0.0000 0.0000 0.0000 29.7048
#
#
#
# Elastic Compliance Matrix: (Units=1/GPa)
#
#
# Indices 1 2 3 4 5 6 
#
# 1 0.010008 -0.004550 -0.003530 0.000000 0.000000 0.000000
# 2 -0.004550 0.017677 0.001776 0.000000 0.000000 0.000000
# 3 -0.003530 0.001776 0.018567 0.000000 0.000000 0.000000
# 4 0.000000 0.000000 0.000000 0.032976 0.000000 0.000000
# 5 0.000000 0.000000 0.000000 0.000000 -0.049006 0.000000
# 6 0.000000 0.000000 0.000000 0.000000 0.000000 0.033665
#
#
# Mechanical properties :
#
#
# Convention : Reuss Voigt Hill
#
# Bulk Modulus (GPa) = 29.72384 37.63054 33.67719
# Shear Modulus (GPa) = 57.00608 20.83177 38.91893
#
# Velocity S-wave (km/s) = 5.43979 3.28840 4.49472
# Velocity P-wave (km/s) = 7.40841 5.82682 6.66470
#
# Compressibility (1/GPa) = 0.03364303
#
# Stress axis : x y z
#
# Youngs Moduli (GPa) = 99.92129 56.57035 53.85839
#
# Poissons Ratio (x) = 0.25742 0.19011
# Poissons Ratio (y) = 0.45469 -0.09564
# Poissons Ratio (z) = 0.35271 -0.10046
#
# Static dielectric constant tensor:
#      x y z
#    x 3.989040 0.000000 0.000000 
#    y 0.000000 3.637460 0.000000 
#    z 0.000000 0.000000 3.317270 
# 
# 
# High freq. dielectric constant tensor:
#      x y z
#    x 1.772730 0.000000 0.000000 
#    y 0.000000 1.764050 0.000000 
#    z 0.000000 0.000000 1.721120 
# 
# From -- ./inp_files/47074.got.cif
#   From: 2010.03.12/outbox.cif.g09.slc.cpg/sg74_24_cif.got.tgz:47074.got - 2010.04.16 15:46:19.
