data_PCOD8300244
_publ_section_title
;
Structure prediction by ZEFSAII (Michael W. Deem and Ramdas Pophale) SiO2 
 PCOD8300244
Probable space group: I M M A
;
_chemical_formula_sum "Si O2"
_cell_formula_units_Z 72
_cell_length_a 14.774371
_cell_length_b 14.136618
_cell_length_c 18.077696
_cell_angle_alpha 90.000000
_cell_angle_beta 90.000000
_cell_angle_gamma 90.000000
_cell_volume 3775.701061
_symmetry_space_group_name_H-M "I M M A"
_symmetry_group_IT_number 74
_symmetry_cell_setting 'orthorhombic'
loop_
_space_group_symop_operation_xyz
x,y,z
-x,1/2-y,z
x,-y,-z
-x,1/2+y,-z
-x,-y,-z
x,1/2+y,-z
-x,y,z
x,1/2-y,z
1/2+x,1/2+y,1/2+z
1/2-x,-y,1/2+z
1/2+x,1/2-y,1/2-z
1/2-x,y,1/2-z
1/2-x,1/2-y,1/2-z
1/2+x,y,1/2-z
1/2-x,1/2+y,1/2+z
1/2+x,-y,1/2+z
loop_
_atom_site_type_symbol
_atom_site_label
_atom_site_fract_x
_atom_site_fract_y
_atom_site_fract_z
Si Si1 0.772270 0.546946 0.575023
Si Si2 0.104232 0.250000 0.917018
Si Si3 0.603530 0.452137 0.640276
Si Si4 0.893184 0.750000 0.781060
Si Si5 0.212854 0.250000 0.067493
Si Si6 0.603861 0.554343 0.790507
O O1 0.808950 0.500000 0.500000
O O2 0.668577 0.515489 0.589221
O O3 0.777937 0.659561 0.567217
O O4 0.836937 0.515553 0.641894
O O5 0.129402 0.157847 0.868835
O O6 0.000000 0.250000 0.937876
O O7 0.155239 0.250000 0.993671
O O8 0.500000 0.473468 0.615566
O O9 0.616922 0.478348 0.725718
O O10 0.851818 0.750000 0.862025
O O11 0.860755 0.657219 0.736531
O O12 0.000000 0.750000 0.792064
O O13 0.500000 0.561475 0.815969
#
# Coordination Sequence:
#
# PCOD8300244 Si02
#       6
#    16   8  16   8   8  16
#     4  12  24  38  59  86 122 156 195 238 292 344
#     4  10  21  37  57  86 124 156 184 234 292 353
#     4  10  21  38  60  87 117 152 193 236 289 348
#     4  10  20  35  60  90 117 153 191 237 298 351
#     4  12  22  34  55  93 124 152 184 237 292 363
#     4  10  22  40  61  86 115 154 202 244 285 338
#
# _framework density 19.069306999999998
#
# number of rings (size 3 to 8) (size 9 to 14) (size 15 to 20)
#    0.000    1.333    4.444    1.667    0.000    2.667 
#    0.000    3.333    0.000    0.000    0.000    0.000 
#    0.000    0.000    0.000    0.000    0.000    0.000 
#
# Total GULP energy -446554.299134 kJ/mol
# GULP energy per Si atom -12404.286087 kJ/mol
# Density = 1.902590 g / cm^3
# Si number density = 19.069307 Si / 1000 Ang^3
#
#
#
# Elastic Constant Matrix: (Units=GPa)
#
#
# Indices 1 2 3 4 5 6 
#
# 1 58.3134 28.2753 47.4662 0.0000 0.0000 0.0000
# 2 28.2753 99.3479 44.6167 0.0000 0.0000 0.0000
# 3 47.4662 44.6167 136.1798 0.0000 0.0000 0.0000
# 4 0.0000 0.0000 0.0000 78.6836 0.0000 0.0000
# 5 0.0000 0.0000 0.0000 0.0000 29.6166 0.0000
# 6 0.0000 0.0000 0.0000 0.0000 0.0000 15.2952
#
#
#
# Elastic Compliance Matrix: (Units=1/GPa)
#
#
# Indices 1 2 3 4 5 6 
#
# 1 0.025089 -0.003768 -0.007511 0.000000 0.000000 0.000000
# 2 -0.003768 0.012368 -0.002739 0.000000 0.000000 0.000000
# 3 -0.007511 -0.002739 0.010858 0.000000 0.000000 0.000000
# 4 0.000000 0.000000 0.000000 0.012709 0.000000 0.000000
# 5 0.000000 0.000000 0.000000 0.000000 0.033765 0.000000
# 6 0.000000 0.000000 0.000000 0.000000 0.000000 0.065380
#
#
# Mechanical properties :
#
#
# Convention : Reuss Voigt Hill
#
# Bulk Modulus (GPa) = 49.30645 59.39527 54.35086
# Shear Modulus (GPa) = 25.64576 36.28460 30.96518
#
# Velocity S-wave (km/s) = 3.67123 4.36681 4.03404
# Velocity P-wave (km/s) = 6.62443 7.52596 7.08954
#
# Compressibility (1/GPa) = 0.02028132
#
# Stress axis : x y z
#
# Youngs Moduli (GPa) = 39.85807 80.85405 92.09441
#
# Poissons Ratio (x) = 0.30463 0.69168
# Poissons Ratio (y) = 0.15017 0.25224
# Poissons Ratio (z) = 0.29936 0.22145
#
# Static dielectric constant tensor:
#      x y z
#    x 3.364630 0.000000 0.000000 
#    y 0.000000 3.764800 0.000000 
#    z 0.000000 0.000000 3.408450 
# 
# 
# High freq. dielectric constant tensor:
#      x y z
#    x 1.729840 0.000000 0.000000 
#    y 0.000000 1.746950 0.000000 
#    z 0.000000 0.000000 1.740300 
# 
# From -- ./inp_files/42527.got.cif
#   From: 2010.03.12/outbox.cif.g09.slc.cpg/sg74_22_cif.got.tgz:42527.got - 2010.04.16 15:46:19.
