data_PCOD8300217
_publ_section_title
;
Structure prediction by ZEFSAII (Michael W. Deem and Ramdas Pophale) SiO2 
 PCOD8300217
Probable space group: I M M A
;
_chemical_formula_sum "Si O2"
_cell_formula_units_Z 112
_cell_length_a 14.869584
_cell_length_b 14.443057
_cell_length_c 24.972218
_cell_angle_alpha 90.000000
_cell_angle_beta 90.000000
_cell_angle_gamma 90.000000
_cell_volume 5363.089707
_symmetry_space_group_name_H-M "I M M A"
_symmetry_group_IT_number 74
_symmetry_cell_setting 'orthorhombic'
loop_
_space_group_symop_operation_xyz
x,y,z
-x,1/2-y,z
x,-y,-z
-x,1/2+y,-z
-x,-y,-z
x,1/2+y,-z
-x,y,z
x,1/2-y,z
1/2+x,1/2+y,1/2+z
1/2-x,-y,1/2+z
1/2+x,1/2-y,1/2-z
1/2-x,y,1/2-z
1/2-x,1/2-y,1/2-z
1/2+x,y,1/2-z
1/2-x,1/2+y,1/2+z
1/2+x,-y,1/2+z
loop_
_atom_site_type_symbol
_atom_site_label
_atom_site_fract_x
_atom_site_fract_y
_atom_site_fract_z
Si Si1 0.598737 0.570167 0.546187
Si Si2 0.738871 0.356973 0.187904
Si Si3 0.327464 0.353835 0.902467
Si Si4 0.305749 0.647472 0.303652
Si Si5 0.597725 0.026176 0.338234
Si Si6 0.897187 0.046627 0.389339
Si Si7 0.717082 0.852977 0.976308
O O1 0.621724 0.500000 0.500000
O O2 0.500000 0.618751 0.538536
O O3 0.595648 0.505751 0.598728
O O4 0.680808 0.642763 0.546033
O O5 0.721603 0.250000 0.174607
O O6 0.750000 0.377856 0.250000
O O7 0.834245 0.388463 0.165426
O O8 0.657062 0.415544 0.162390
O O9 0.371001 0.250000 0.901201
O O10 0.252277 0.361278 0.857170
O O11 0.399286 0.434317 0.889583
O O12 0.284234 0.374918 0.960464
O O13 0.350352 0.750000 0.301186
O O14 0.250000 0.629924 0.250000
O O15 0.379467 0.566994 0.305743
O O16 0.500000 0.059098 0.317195
O O17 0.849474 0.079650 0.443974
O O18 0.000000 0.081966 0.386674
O O19 0.681545 0.750000 0.965151
#
# Coordination Sequence:
#
# PCOD8300217 Si02
#       7
#    16  16  16  16  16  16  16
#     4  10  20  35  58  88 124 166 209 257 312 377
#     4  11  25  46  67  90 126 164 206 262 317 375
#     4  10  22  40  64  93 128 170 212 261 324 382
#     4  10  20  38  63  89 126 172 214 258 309 370
#     4  11  22  37  63  94 125 162 207 254 311 378
#     4  12  25  42  68  95 124 167 216 267 323 384
#     4  11  22  38  62  91 129 170 213 265 320 381
#
# _framework density 20.883483999999999
#
# number of rings (size 3 to 8) (size 9 to 14) (size 15 to 20)
#    0.000    1.286    2.857    3.000    0.000    4.000 
#    0.000    4.286    0.000    7.714    0.000    0.000 
#    0.000    0.000    0.000    0.000    0.000    0.000 
#
# Total GULP energy -694004.058356 kJ/mol
# GULP energy per Si atom -12392.929613 kJ/mol
# Density = 2.083595 g / cm^3
# Si number density = 20.883484 Si / 1000 Ang^3
#
#
#
# Elastic Constant Matrix: (Units=GPa)
#
#
# Indices 1 2 3 4 5 6 
#
# 1 145.8563 49.5028 44.6593 0.0000 0.0000 0.0000
# 2 49.5028 116.8724 42.5291 0.0000 0.0000 0.0000
# 3 44.6593 42.5291 123.7534 0.0000 0.0000 0.0000
# 4 0.0000 0.0000 0.0000 -4.8930 0.0000 0.0000
# 5 0.0000 0.0000 0.0000 0.0000 16.5557 0.0000
# 6 0.0000 0.0000 0.0000 0.0000 0.0000 -10.7866
#
#
#
# Elastic Compliance Matrix: (Units=1/GPa)
#
#
# Indices 1 2 3 4 5 6 
#
# 1 0.008451 -0.002823 -0.002080 0.000000 0.000000 0.000000
# 2 -0.002823 0.010722 -0.002666 0.000000 0.000000 0.000000
# 3 -0.002080 -0.002666 0.009747 0.000000 0.000000 0.000000
# 4 0.000000 0.000000 0.000000 -0.204375 0.000000 0.000000
# 5 0.000000 0.000000 0.000000 0.000000 0.060402 0.000000
# 6 0.000000 0.000000 0.000000 0.000000 0.000000 -0.092708
#
#
# Mechanical properties :
#
#
# Convention : Reuss Voigt Hill
#
# Bulk Modulus (GPa) = 72.55129 73.31826 72.93478
# Shear Modulus (GPa) = -26.59167 16.82796 -4.88185
#
# Velocity S-wave (km/s) = -3.57225 2.84175 -1.53060
# Velocity P-wave (km/s) = 4.21921 6.77878 5.64595
#
# Compressibility (1/GPa) = 0.01378335
#
# Stress axis : x y z
#
# Youngs Moduli (GPa) = 118.33170 93.26522 102.59235
#
# Poissons Ratio (x) = 0.26326 0.21335
# Poissons Ratio (y) = 0.33401 0.27352
# Poissons Ratio (z) = 0.24609 0.24866
#
# Static dielectric constant tensor:
#      x y z
#    x 3.710450 0.000000 0.000000 
#    y 0.000000 3.997450 0.000000 
#    z 0.000000 0.000000 4.183070 
# 
# 
# High freq. dielectric constant tensor:
#      x y z
#    x 1.796400 0.000000 0.000000 
#    y 0.000000 1.819080 0.000000 
#    z 0.000000 0.000000 1.836110 
# 
# From -- ./inp_files/60120.got.cif
#   From: 2010.03.12/outbox.cif.g09.slc.cpg/sg74_31_cif.got.tgz:60120.got - 2010.04.16 15:46:19.
