data_PCOD8300597
_publ_section_title
;
Structure prediction by ZEFSAII (Michael W. Deem and Ramdas Pophale) SiO2 
 PCOD8300597
Probable space group: I M M A
;
_chemical_formula_sum "Si O2"
_cell_formula_units_Z 52
_cell_length_a 14.838563
_cell_length_b 13.997382
_cell_length_c 13.026900
_cell_angle_alpha 90.000000
_cell_angle_beta 90.000000
_cell_angle_gamma 90.000000
_cell_volume 2705.700608
_symmetry_space_group_name_H-M "I M M A"
_symmetry_group_IT_number 74
_symmetry_cell_setting 'orthorhombic'
loop_
_space_group_symop_operation_xyz
x,y,z
-x,1/2-y,z
x,-y,-z
-x,1/2+y,-z
-x,-y,-z
x,1/2+y,-z
-x,y,z
x,1/2-y,z
1/2+x,1/2+y,1/2+z
1/2-x,-y,1/2+z
1/2+x,1/2-y,1/2-z
1/2-x,y,1/2-z
1/2-x,1/2-y,1/2-z
1/2+x,y,1/2-z
1/2-x,1/2+y,1/2+z
1/2+x,-y,1/2+z
loop_
_atom_site_type_symbol
_atom_site_label
_atom_site_fract_x
_atom_site_fract_y
_atom_site_fract_z
Si Si1 0.346621 0.250000 0.865313
Si Si2 0.162982 0.750000 0.682047
Si Si3 0.135267 0.250000 0.874671
Si Si4 0.000000 0.750000 0.834093
Si Si5 0.603254 0.603440 0.977859
Si Si6 0.000000 0.614169 0.017380
O O1 0.241235 0.250000 0.896816
O O2 0.373874 0.250000 0.747426
O O3 0.392284 0.157401 0.914191
O O4 0.250000 0.750000 0.750000
O O5 0.160210 0.843726 0.610256
O O6 0.084678 0.750000 0.762494
O O7 0.088338 0.345519 0.921951
O O8 0.000000 0.844666 0.903011
O O9 0.500000 0.596702 0.940118
O O10 0.645386 0.500000 0.000000
O O11 0.000000 0.500000 0.000000
#
# Coordination Sequence:
#
# PCOD8300597 Si02
#       6
#     8   8   8   4  16   8
#     4  10  20  39  63  84 125 151 193 255 294 359
#     4  11  22  41  63  88 128 166 195 256 313 363
#     4   9  22  40  58  90 113 159 201 235 307 353
#     4  10  22  42  56  90 122 162 214 238 306 382
#     4  10  22  39  63  92 117 155 203 254 301 354
#     4  10  24  40  61  82 122 162 201 248 289 366
#
# _framework density 19.218682000000001
#
# number of rings (size 3 to 8) (size 9 to 14) (size 15 to 20)
#    0.000    2.154    1.538    1.385   12.923    3.692 
#    5.538    0.000    0.000    0.000    0.000    0.000 
#    0.000    0.000    0.000    0.000    0.000    0.000 
#
# Total GULP energy -322277.511901 kJ/mol
# GULP energy per Si atom -12395.288919 kJ/mol
# Density = 1.917494 g / cm^3
# Si number density = 19.218682 Si / 1000 Ang^3
#
#
#
# Elastic Constant Matrix: (Units=GPa)
#
#
# Indices 1 2 3 4 5 6 
#
# 1 96.9451 41.3098 48.7686 0.0000 0.0000 0.0000
# 2 41.3098 199.9111 76.3511 0.0000 0.0000 0.0000
# 3 48.7686 76.3511 145.5242 0.0000 0.0000 0.0000
# 4 0.0000 0.0000 0.0000 -0.1627 0.0000 0.0000
# 5 0.0000 0.0000 0.0000 0.0000 38.3695 0.0000
# 6 0.0000 0.0000 0.0000 0.0000 0.0000 11.0111
#
#
#
# Elastic Compliance Matrix: (Units=1/GPa)
#
#
# Indices 1 2 3 4 5 6 
#
# 1 0.012649 -0.001244 -0.003586 0.000000 0.000000 0.000000
# 2 -0.001244 0.006378 -0.002929 0.000000 0.000000 0.000000
# 3 -0.003586 -0.002929 0.009611 0.000000 0.000000 0.000000
# 4 0.000000 0.000000 0.000000 -6.147747 0.000000 0.000000
# 5 0.000000 0.000000 0.000000 0.000000 0.026062 0.000000
# 6 0.000000 0.000000 0.000000 0.000000 0.000000 0.090817
#
#
# Mechanical properties :
#
#
# Convention : Reuss Voigt Hill
#
# Bulk Modulus (GPa) = 76.22995 86.13773 81.18384
# Shear Modulus (GPa) = -0.83579 28.24031 13.70226
#
# Velocity S-wave (km/s) = -0.66017 3.83746 2.67304
# Velocity P-wave (km/s) = 6.25855 8.03442 7.20144
#
# Compressibility (1/GPa) = 0.01311820
#
# Stress axis : x y z
#
# Youngs Moduli (GPa) = 79.05518 156.78551 104.05243
#
# Poissons Ratio (x) = 0.19507 0.37317
# Poissons Ratio (y) = 0.09836 0.30481
# Poissons Ratio (z) = 0.28352 0.45929
#
# Static dielectric constant tensor:
#      x y z
#    x 3.491790 0.000000 0.000000 
#    y 0.000000 3.439990 0.000000 
#    z 0.000000 0.000000 3.655190 
# 
# 
# High freq. dielectric constant tensor:
#      x y z
#    x 1.750110 0.000000 0.000000 
#    y 0.000000 1.740440 0.000000 
#    z 0.000000 0.000000 1.762920 
# 
# From -- ./inp_files/21496.got.cif
#   From: 2010.03.12/outbox.cif.g09.slc.cpg/sg74_11_cif.got.tgz:21496.got - 2010.04.16 15:46:19.
