data_PCOD8300522
_publ_section_title
;
Structure prediction by ZEFSAII (Michael W. Deem and Ramdas Pophale) SiO2 
 PCOD8300522
Probable space group: I M M A
;
_chemical_formula_sum "Si O2"
_cell_formula_units_Z 72
_cell_length_a 7.525435
_cell_length_b 17.489705
_cell_length_c 26.175810
_cell_angle_alpha 90.000000
_cell_angle_beta 90.000000
_cell_angle_gamma 90.000000
_cell_volume 3445.198289
_symmetry_space_group_name_H-M "I M M A"
_symmetry_group_IT_number 74
_symmetry_cell_setting 'orthorhombic'
loop_
_space_group_symop_operation_xyz
x,y,z
-x,1/2-y,z
x,-y,-z
-x,1/2+y,-z
-x,-y,-z
x,1/2+y,-z
-x,y,z
x,1/2-y,z
1/2+x,1/2+y,1/2+z
1/2-x,-y,1/2+z
1/2+x,1/2-y,1/2-z
1/2-x,y,1/2-z
1/2-x,1/2-y,1/2-z
1/2+x,y,1/2-z
1/2-x,1/2+y,1/2+z
1/2+x,-y,1/2+z
loop_
_atom_site_type_symbol
_atom_site_label
_atom_site_fract_x
_atom_site_fract_y
_atom_site_fract_z
Si Si1 0.710767 0.899174 0.868063
Si Si2 0.698485 0.086983 0.016543
Si Si3 0.500000 0.334701 0.543197
Si Si4 0.208403 0.750000 0.690054
Si Si5 0.791570 0.453794 0.693378
Si Si6 0.000000 0.163086 0.836492
O O1 0.500000 0.897678 0.865800
O O2 0.777222 0.900036 0.926608
O O3 0.789077 0.825640 0.837557
O O4 0.777327 0.977810 0.842770
O O5 0.500000 0.121773 0.013394
O O6 0.820529 0.127448 0.975780
O O7 0.694362 0.000000 0.000000
O O8 0.500000 0.250000 0.521464
O O9 0.500000 0.338394 0.603260
O O10 0.250000 0.750000 0.750000
O O11 0.000000 0.750000 0.681727
O O12 0.750000 0.483076 0.750000
O O13 0.678758 0.377572 0.683152
O O14 0.000000 0.435214 0.685375
O O15 0.000000 0.250000 0.815683
#
# Coordination Sequence:
#
# PCOD8300522 Si02
#       6
#    16  16   8   8  16   8
#     4   9  20  36  62  91 128 168 214 257 318 377
#     4  10  21  40  65  92 123 168 213 264 318 381
#     4  11  25  41  61  93 130 162 212 265 321 382
#     4  10  20  38  56  86 130 170 210 266 306 365
#     4  11  22  42  66  94 125 169 210 261 322 388
#     4  11  26  45  65  94 128 165 210 271 329 382
#
# _framework density 20.898651000000001
#
# number of rings (size 3 to 8) (size 9 to 14) (size 15 to 20)
#    0.000    1.778    1.111    2.333    1.556    4.889 
#    4.000    2.222    0.000    0.000    0.000    0.000 
#    0.000    0.000    0.000    0.000    0.000    0.000 
#
# Total GULP energy -446406.014276 kJ/mol
# GULP energy per Si atom -12400.167063 kJ/mol
# Density = 2.085109 g / cm^3
# Si number density = 20.898651 Si / 1000 Ang^3
#
#
#
# Elastic Constant Matrix: (Units=GPa)
#
#
# Indices 1 2 3 4 5 6 
#
# 1 95.0998 36.6284 9.1619 0.0000 0.0000 0.0000
# 2 36.6284 114.9364 18.5428 0.0000 0.0000 0.0000
# 3 9.1619 18.5428 80.8129 0.0000 0.0000 0.0000
# 4 0.0000 0.0000 0.0000 40.6805 0.0000 0.0000
# 5 0.0000 0.0000 0.0000 0.0000 17.0092 0.0000
# 6 0.0000 0.0000 0.0000 0.0000 0.0000 43.8645
#
#
#
# Elastic Compliance Matrix: (Units=1/GPa)
#
#
# Indices 1 2 3 4 5 6 
#
# 1 0.012006 -0.003745 -0.000502 0.000000 0.000000 0.000000
# 2 -0.003745 0.010203 -0.001917 0.000000 0.000000 0.000000
# 3 -0.000502 -0.001917 0.012871 0.000000 0.000000 0.000000
# 4 0.000000 0.000000 0.000000 0.024582 0.000000 0.000000
# 5 0.000000 0.000000 0.000000 0.000000 0.058792 0.000000
# 6 0.000000 0.000000 0.000000 0.000000 0.000000 0.022798
#
#
# Mechanical properties :
#
#
# Convention : Reuss Voigt Hill
#
# Bulk Modulus (GPa) = 43.95003 46.61277 45.28140
# Shear Modulus (GPa) = 31.02454 35.41190 33.21822
#
# Velocity S-wave (km/s) = 3.85713 4.12085 3.99117
# Velocity P-wave (km/s) = 6.39628 6.70779 6.55388
#
# Compressibility (1/GPa) = 0.02275311
#
# Stress axis : x y z
#
# Youngs Moduli (GPa) = 83.29101 98.00847 77.69455
#
# Poissons Ratio (x) = 0.36706 0.03899
# Poissons Ratio (y) = 0.31194 0.14891
# Poissons Ratio (z) = 0.04180 0.18784
#
# Static dielectric constant tensor:
#      x y z
#    x -1.234010 0.000000 0.000000 
#    y 0.000000 3.822000 0.000000 
#    z 0.000000 0.000000 3.951200 
# 
# 
# High freq. dielectric constant tensor:
#      x y z
#    x 1.815390 0.000000 0.000000 
#    y 0.000000 1.819110 0.000000 
#    z 0.000000 0.000000 1.831420 
# 
# From -- ./inp_files/60624.got.cif
#   From: 2010.03.12/outbox.cif.g09.slc.cpg/sg74_31_cif.got.tgz:60624.got - 2010.04.16 15:46:19.
