data_PCOD8300881
_publ_section_title
;
Structure prediction by ZEFSAII (Michael W. Deem and Ramdas Pophale) SiO2 
 PCOD8300881
Probable space group: I M M A
;
_chemical_formula_sum "Si O2"
_cell_formula_units_Z 96
_cell_length_a 28.790690
_cell_length_b 8.980464
_cell_length_c 19.038593
_cell_angle_alpha 90.000000
_cell_angle_beta 90.000000
_cell_angle_gamma 90.000000
_cell_volume 4922.499712
_symmetry_space_group_name_H-M "I M M A"
_symmetry_group_IT_number 74
_symmetry_cell_setting 'orthorhombic'
loop_
_space_group_symop_operation_xyz
x,y,z
-x,1/2-y,z
x,-y,-z
-x,1/2+y,-z
-x,-y,-z
x,1/2+y,-z
-x,y,z
x,1/2-y,z
1/2+x,1/2+y,1/2+z
1/2-x,-y,1/2+z
1/2+x,1/2-y,1/2-z
1/2-x,y,1/2-z
1/2-x,1/2-y,1/2-z
1/2+x,y,1/2-z
1/2-x,1/2+y,1/2+z
1/2+x,-y,1/2+z
loop_
_atom_site_type_symbol
_atom_site_label
_atom_site_fract_x
_atom_site_fract_y
_atom_site_fract_z
Si Si1 0.382576 0.921234 0.662345
Si Si2 0.723109 0.079691 0.819302
Si Si3 0.054685 0.083492 0.932451
Si Si4 0.053389 0.925240 0.426143
Si Si5 0.303869 0.420201 0.574313
Si Si6 0.872997 0.422175 0.325775
O O1 0.378928 0.750000 0.641032
O O2 0.383502 0.945323 0.744617
O O3 0.430869 0.990981 0.635846
O O4 0.340744 0.007780 0.626427
O O5 0.708200 0.250000 0.804022
O O6 0.750000 0.017142 0.750000
O O7 0.754396 0.066891 0.888222
O O8 0.678350 0.983688 0.839319
O O9 0.075197 0.250000 0.930046
O O10 0.000000 0.087406 0.936858
O O11 0.076319 0.000000 0.000000
O O12 0.061538 0.750000 0.433157
O O13 0.000000 0.961177 0.404922
O O14 0.065894 0.000000 0.500000
O O15 0.087793 0.989235 0.367804
O O16 0.301519 0.500000 0.500000
O O17 0.318026 0.250000 0.561622
O O18 0.874594 0.250000 0.348250
#
# Coordination Sequence:
#
# PCOD8300881 Si02
#       6
#    16  16  16  16  16  16
#     4  11  23  38  57  84 118 156 196 241 294 351
#     4  10  21  40  63  86 117 160 205 253 306 361
#     4  10  21  37  57  80 109 148 193 242 294 347
#     4  10  22  42  68  95 126 164 206 256 312 372
#     4  11  23  39  61  87 117 154 198 247 299 357
#     4  11  24  39  62  93 125 162 201 248 304 365
#
# _framework density 19.502286000000002
#
# number of rings (size 3 to 8) (size 9 to 14) (size 15 to 20)
#    0.000    1.500    1.667    3.000    0.000    7.000 
#    0.000    5.000    0.000    0.000    0.000    0.000 
#    0.000    0.000    0.000    0.000    0.000    0.000 
#
# Total GULP energy -595321.634445 kJ/mol
# GULP energy per Si atom -12402.534051 kJ/mol
# Density = 1.945790 g / cm^3
# Si number density = 19.502286 Si / 1000 Ang^3
#
#
#
# Elastic Constant Matrix: (Units=GPa)
#
#
# Indices 1 2 3 4 5 6 
#
# 1 91.9111 63.1319 57.7941 0.0000 0.0000 0.0000
# 2 63.1319 158.1234 82.0690 0.0000 0.0000 0.0000
# 3 57.7941 82.0690 91.7385 0.0000 0.0000 0.0000
# 4 0.0000 0.0000 0.0000 36.0130 0.0000 0.0000
# 5 0.0000 0.0000 0.0000 0.0000 39.0048 0.0000
# 6 0.0000 0.0000 0.0000 0.0000 0.0000 32.1663
#
#
#
# Elastic Compliance Matrix: (Units=1/GPa)
#
#
# Indices 1 2 3 4 5 6 
#
# 1 0.018532 -0.002501 -0.009438 0.000000 0.000000 0.000000
# 2 -0.002501 0.012143 -0.009288 0.000000 0.000000 0.000000
# 3 -0.009438 -0.009288 0.025155 0.000000 0.000000 0.000000
# 4 0.000000 0.000000 0.000000 0.027768 0.000000 0.000000
# 5 0.000000 0.000000 0.000000 0.000000 0.025638 0.000000
# 6 0.000000 0.000000 0.000000 0.000000 0.000000 0.031088
#
#
# Mechanical properties :
#
#
# Convention : Reuss Voigt Hill
#
# Bulk Modulus (GPa) = 74.75141 83.08477 78.91809
# Shear Modulus (GPa) = 26.70405 30.68868 28.69637
#
# Velocity S-wave (km/s) = 3.70439 3.97116 3.84009
# Velocity P-wave (km/s) = 7.53057 7.98260 7.75987
#
# Compressibility (1/GPa) = 0.01337767
#
# Stress axis : x y z
#
# Youngs Moduli (GPa) = 53.95933 82.35101 39.75299
#
# Poissons Ratio (x) = 0.20593 0.37519
# Poissons Ratio (y) = 0.13493 0.36922
# Poissons Ratio (z) = 0.50928 0.76486
#
# Static dielectric constant tensor:
#      x y z
#    x 3.566100 0.000000 0.000000 
#    y 0.000000 4.018720 0.000000 
#    z 0.000000 0.000000 3.641070 
# 
# 
# High freq. dielectric constant tensor:
#      x y z
#    x 1.764880 0.000000 0.000000 
#    y 0.000000 1.775790 0.000000 
#    z 0.000000 0.000000 1.762920 
# 
# From -- ./inp_files/55061.got.cif
#   From: 2010.03.12/outbox.cif.g09.slc.cpg/sg74_28_cif.got.tgz:55061.got - 2010.04.16 15:46:19.
