data_PCOD8300863
_publ_section_title
;
Structure prediction by ZEFSAII (Michael W. Deem and Ramdas Pophale) SiO2 
 PCOD8300863
Probable space group: I M M A
;
_chemical_formula_sum "Si O2"
_cell_formula_units_Z 96
_cell_length_a 28.033288
_cell_length_b 9.049617
_cell_length_c 20.111551
_cell_angle_alpha 90.000000
_cell_angle_beta 90.000000
_cell_angle_gamma 90.000000
_cell_volume 5102.109824
_symmetry_space_group_name_H-M "I M M A"
_symmetry_group_IT_number 74
_symmetry_cell_setting 'orthorhombic'
loop_
_space_group_symop_operation_xyz
x,y,z
-x,1/2-y,z
x,-y,-z
-x,1/2+y,-z
-x,-y,-z
x,1/2+y,-z
-x,y,z
x,1/2-y,z
1/2+x,1/2+y,1/2+z
1/2-x,-y,1/2+z
1/2+x,1/2-y,1/2-z
1/2-x,y,1/2-z
1/2-x,1/2-y,1/2-z
1/2+x,y,1/2-z
1/2-x,1/2+y,1/2+z
1/2+x,-y,1/2+z
loop_
_atom_site_type_symbol
_atom_site_label
_atom_site_fract_x
_atom_site_fract_y
_atom_site_fract_z
Si Si1 0.132586 0.425486 0.070750
Si Si2 0.446335 0.074677 0.324959
Si Si3 0.290152 0.920247 0.345027
Si Si4 0.408747 0.575468 0.816800
Si Si5 0.445188 0.412002 0.938982
Si Si6 0.186210 0.079733 0.694015
O O1 0.133568 0.250000 0.062858
O O2 0.088445 0.480118 0.116395
O O3 0.182473 0.476324 0.102972
O O4 0.125220 0.500000 0.000000
O O5 0.500000 0.012859 0.336753
O O6 0.447297 0.250000 0.323204
O O7 0.425837 0.015544 0.254981
O O8 0.301348 0.750000 0.361957
O O9 0.233537 0.951346 0.349467
O O10 0.306109 0.959913 0.270872
O O11 0.412921 0.750000 0.821334
O O12 0.442628 0.504031 0.871354
O O13 0.354974 0.525841 0.833133
O O14 0.500000 0.388837 0.956859
O O15 0.420798 0.250000 0.931554
O O16 0.420151 0.500000 0.000000
O O17 0.171044 0.250000 0.686848
#
# Coordination Sequence:
#
# PCOD8300863 Si02
#       6
#    16  16  16  16  16  16
#     4  11  22  37  57  81 111 150 193 239 288 341
#     4   9  19  35  54  79 112 148 189 235 282 333
#     4   9  18  35  57  81 109 143 179 223 276 331
#     4  11  20  33  56  86 116 149 185 229 281 332
#     4  10  21  37  56  79 109 147 188 228 274 332
#     4   9  18  33  56  83 112 142 177 223 275 329
#
# _framework density 18.815746000000001
#
# number of rings (size 3 to 8) (size 9 to 14) (size 15 to 20)
#    0.000    2.167    1.667    3.000    0.000    2.667 
#    0.000    2.500    0.000    8.500    0.000    0.000 
#    0.000    0.000    0.000    0.000    0.000    0.000 
#
# Total GULP energy -595174.549400 kJ/mol
# GULP energy per Si atom -12399.469779 kJ/mol
# Density = 1.877292 g / cm^3
# Si number density = 18.815746 Si / 1000 Ang^3
#
#
#
# Elastic Constant Matrix: (Units=GPa)
#
#
# Indices 1 2 3 4 5 6 
#
# 1 94.0830 34.1618 47.7576 0.0000 0.0000 0.0000
# 2 34.1618 89.0578 55.2939 0.0000 0.0000 0.0000
# 3 47.7576 55.2939 137.2589 0.0000 0.0000 0.0000
# 4 0.0000 0.0000 0.0000 30.0825 0.0000 0.0000
# 5 0.0000 0.0000 0.0000 0.0000 25.8179 0.0000
# 6 0.0000 0.0000 0.0000 0.0000 0.0000 27.5485
#
#
#
# Elastic Compliance Matrix: (Units=1/GPa)
#
#
# Indices 1 2 3 4 5 6 
#
# 1 0.013489 -0.003014 -0.003479 0.000000 0.000000 0.000000
# 2 -0.003014 0.015647 -0.005255 0.000000 0.000000 0.000000
# 3 -0.003479 -0.005255 0.010613 0.000000 0.000000 0.000000
# 4 0.000000 0.000000 0.000000 0.033242 0.000000 0.000000
# 5 0.000000 0.000000 0.000000 0.000000 0.038733 0.000000
# 6 0.000000 0.000000 0.000000 0.000000 0.000000 0.036300
#
#
# Mechanical properties :
#
#
# Convention : Reuss Voigt Hill
#
# Bulk Modulus (GPa) = 61.52552 66.09179 63.80866
# Shear Modulus (GPa) = 28.25843 28.90221 28.58032
#
# Velocity S-wave (km/s) = 3.87958 3.92352 3.90161
# Velocity P-wave (km/s) = 7.26898 7.46508 7.36768
#
# Compressibility (1/GPa) = 0.01625342
#
# Stress axis : x y z
#
# Youngs Moduli (GPa) = 74.13173 63.90829 94.22517
#
# Poissons Ratio (x) = 0.19264 0.32783
# Poissons Ratio (y) = 0.22345 0.49512
# Poissons Ratio (z) = 0.25792 0.33582
#
# Static dielectric constant tensor:
#      x y z
#    x 3.521700 0.000000 0.000000 
#    y 0.000000 3.394120 0.000000 
#    z 0.000000 0.000000 3.362740 
# 
# 
# High freq. dielectric constant tensor:
#      x y z
#    x 1.728650 0.000000 0.000000 
#    y 0.000000 1.722290 0.000000 
#    z 0.000000 0.000000 1.722110 
# 
# From -- ./inp_files/55064.got.cif
#   From: 2010.03.12/outbox.cif.g09.slc.cpg/sg74_28_cif.got.tgz:55064.got - 2010.04.16 15:46:19.
