data_PCOD8300490
_publ_section_title
;
Structure prediction by ZEFSAII (Michael W. Deem and Ramdas Pophale) SiO2 
 PCOD8300490
Probable space group: I M M A
;
_chemical_formula_sum "Si O2"
_cell_formula_units_Z 80
_cell_length_a 9.239488
_cell_length_b 17.882469
_cell_length_c 23.659061
_cell_angle_alpha 90.000000
_cell_angle_beta 90.000000
_cell_angle_gamma 90.000000
_cell_volume 3909.064988
_symmetry_space_group_name_H-M "I M M A"
_symmetry_group_IT_number 74
_symmetry_cell_setting 'orthorhombic'
loop_
_space_group_symop_operation_xyz
x,y,z
-x,1/2-y,z
x,-y,-z
-x,1/2+y,-z
-x,-y,-z
x,1/2+y,-z
-x,y,z
x,1/2-y,z
1/2+x,1/2+y,1/2+z
1/2-x,-y,1/2+z
1/2+x,1/2-y,1/2-z
1/2-x,y,1/2-z
1/2-x,1/2-y,1/2-z
1/2+x,y,1/2-z
1/2-x,1/2+y,1/2+z
1/2+x,-y,1/2+z
loop_
_atom_site_type_symbol
_atom_site_label
_atom_site_fract_x
_atom_site_fract_y
_atom_site_fract_z
Si Si1 0.341426 0.087172 0.503749
Si Si2 0.342981 0.335824 0.700856
Si Si3 0.667637 0.591735 0.113565
Si Si4 0.171513 0.051122 0.309441
Si Si5 0.331173 0.337679 0.386502
O O1 0.500000 0.121992 0.520336
O O2 0.215352 0.097697 0.549064
O O3 0.286201 0.124179 0.445750
O O4 0.365119 0.000000 0.500000
O O5 0.500000 0.375686 0.697593
O O6 0.366016 0.250000 0.716238
O O7 0.250000 0.376246 0.750000
O O8 0.257364 0.342225 0.642727
O O9 0.500000 0.610061 0.117579
O O10 0.706256 0.514397 0.145304
O O11 0.250000 0.034464 0.250000
O O12 0.236271 0.126983 0.336172
O O13 0.000000 0.060075 0.299670
O O14 0.500000 0.352464 0.373747
O O15 0.295878 0.250000 0.389602
#
# Coordination Sequence:
#
# PCOD8300490 Si02
#       5
#    16  16  16  16  16
#     4  10  20  37  62  88 117 156 195 239 296 353
#     4  10  21  37  57  82 116 157 199 245 297 353
#     4  11  23  37  59  90 122 157 200 249 296 354
#     4  11  24  40  61  89 121 159 203 249 300 359
#     4  10  22  41  64  90 120 156 201 250 301 360
#
# _framework density 20.465252
#
# number of rings (size 3 to 8) (size 9 to 14) (size 15 to 20)
#    0.000    1.600    2.000    2.400    0.000    8.000 
#    0.000    2.000    0.000    0.000    0.000    0.000 
#    0.000    0.000    0.000    0.000    0.000    0.000 
#
# Total GULP energy -495880.413968 kJ/mol
# GULP energy per Si atom -12397.010349 kJ/mol
# Density = 2.041867 g / cm^3
# Si number density = 20.465252 Si / 1000 Ang^3
#
#
#
# Elastic Constant Matrix: (Units=GPa)
#
#
# Indices 1 2 3 4 5 6 
#
# 1 147.6069 27.0233 64.8711 0.0000 0.0000 0.0000
# 2 27.0233 52.1089 19.5469 0.0000 0.0000 0.0000
# 3 64.8711 19.5469 105.1235 0.0000 0.0000 0.0000
# 4 0.0000 0.0000 0.0000 31.5097 0.0000 0.0000
# 5 0.0000 0.0000 0.0000 0.0000 69.4609 0.0000
# 6 0.0000 0.0000 0.0000 0.0000 0.0000 21.2823
#
#
#
# Elastic Compliance Matrix: (Units=1/GPa)
#
#
# Indices 1 2 3 4 5 6 
#
# 1 0.009713 -0.002998 -0.005436 0.000000 0.000000 0.000000
# 2 -0.002998 0.021555 -0.002158 0.000000 0.000000 0.000000
# 3 -0.005436 -0.002158 0.013269 0.000000 0.000000 0.000000
# 4 0.000000 0.000000 0.000000 0.031736 0.000000 0.000000
# 5 0.000000 0.000000 0.000000 0.000000 0.014397 0.000000
# 6 0.000000 0.000000 0.000000 0.000000 0.000000 0.046987
#
#
# Mechanical properties :
#
#
# Convention : Reuss Voigt Hill
#
# Bulk Modulus (GPa) = 42.82301 58.63576 50.72939
# Shear Modulus (GPa) = 30.00763 37.34378 33.67570
#
# Velocity S-wave (km/s) = 3.83335 4.27633 4.06088
# Velocity P-wave (km/s) = 6.36890 7.28672 6.84321
#
# Compressibility (1/GPa) = 0.02335193
#
# Stress axis : x y z
#
# Youngs Moduli (GPa) = 102.95777 46.39358 75.36604
#
# Poissons Ratio (x) = 0.13907 0.40971
# Poissons Ratio (y) = 0.30864 0.16264
# Poissons Ratio (z) = 0.55970 0.10012
#
# Static dielectric constant tensor:
#      x y z
#    x 4.605750 0.000000 0.000000 
#    y 0.000000 3.551030 0.000000 
#    z 0.000000 0.000000 3.090320 
# 
# 
# High freq. dielectric constant tensor:
#      x y z
#    x 1.810090 0.000000 0.000000 
#    y 0.000000 1.785990 0.000000 
#    z 0.000000 0.000000 1.801280 
# 
# From -- ./inp_files/63921.got.cif
#   From: 2010.03.12/outbox.cif.g09.slc.cpg/sg74_32_cif.got.tgz:63921.got - 2010.04.16 15:46:19.
