data_PCOD8300114
_publ_section_title
;
Structure prediction by ZEFSAII (Michael W. Deem and Ramdas Pophale) SiO2 
 PCOD8300114
Probable space group: I M M A
;
_chemical_formula_sum "Si O2"
_cell_formula_units_Z 80
_cell_length_a 9.202701
_cell_length_b 18.084067
_cell_length_c 25.562272
_cell_angle_alpha 90.000000
_cell_angle_beta 90.000000
_cell_angle_gamma 90.000000
_cell_volume 4254.131114
_symmetry_space_group_name_H-M "I M M A"
_symmetry_group_IT_number 74
_symmetry_cell_setting 'orthorhombic'
loop_
_space_group_symop_operation_xyz
x,y,z
-x,1/2-y,z
x,-y,-z
-x,1/2+y,-z
-x,-y,-z
x,1/2+y,-z
-x,y,z
x,1/2-y,z
1/2+x,1/2+y,1/2+z
1/2-x,-y,1/2+z
1/2+x,1/2-y,1/2-z
1/2-x,y,1/2-z
1/2-x,1/2-y,1/2-z
1/2+x,y,1/2-z
1/2-x,1/2+y,1/2+z
1/2+x,-y,1/2+z
loop_
_atom_site_type_symbol
_atom_site_label
_atom_site_fract_x
_atom_site_fract_y
_atom_site_fract_z
Si Si1 0.669942 0.085093 0.497937
Si Si2 0.328606 0.664897 0.903973
Si Si3 0.330647 0.078569 0.198020
Si Si4 0.834281 0.336138 0.895749
Si Si5 0.170212 0.091925 0.697577
O O1 0.500000 0.094721 0.486841
O O2 0.754986 0.125231 0.452295
O O3 0.716004 0.121177 0.552573
O O4 0.716734 0.000000 0.500000
O O5 0.500000 0.655641 0.910144
O O6 0.280777 0.750000 0.902604
O O7 0.274293 0.626963 0.850471
O O8 0.500000 0.090308 0.207950
O O9 0.250000 0.106194 0.250000
O O10 0.293382 0.993420 0.185662
O O11 0.817925 0.250000 0.907341
O O12 0.727989 0.358543 0.849389
O O13 0.000000 0.356908 0.880857
O O14 0.250000 0.118447 0.750000
O O15 0.000000 0.105727 0.704573
#
# Coordination Sequence:
#
# PCOD8300114 Si02
#       5
#    16  16  16  16  16
#     4  10  21  37  58  82 107 139 180 223 267 317
#     4  10  21  36  54  79 112 145 177 218 267 317
#     4   9  19  35  54  78 107 139 177 220 263 309
#     4  10  21  36  53  76 108 140 171 214 264 312
#     4  10  20  35  56  79 104 137 177 219 262 311
#
# _framework density 18.805250000000001
#
# number of rings (size 3 to 8) (size 9 to 14) (size 15 to 20)
#    0.000    2.200    0.000    2.400    0.000    5.200 
#    0.000    0.000    0.000    0.000    0.000    0.000 
#    0.000    0.000    0.000    0.000    0.000    0.000 
#
# Total GULP energy -496204.649118 kJ/mol
# GULP energy per Si atom -12405.116228 kJ/mol
# Density = 1.876245 g / cm^3
# Si number density = 18.805250 Si / 1000 Ang^3
#
#
#
# Elastic Constant Matrix: (Units=GPa)
#
#
# Indices 1 2 3 4 5 6 
#
# 1 59.1749 40.5215 59.8271 0.0000 0.0000 0.0000
# 2 40.5215 106.6654 76.7239 0.0000 0.0000 0.0000
# 3 59.8271 76.7239 159.7713 0.0000 0.0000 0.0000
# 4 0.0000 0.0000 0.0000 -59.4002 0.0000 0.0000
# 5 0.0000 0.0000 0.0000 0.0000 39.7963 0.0000
# 6 0.0000 0.0000 0.0000 0.0000 0.0000 -12.9407
#
#
#
# Elastic Compliance Matrix: (Units=1/GPa)
#
#
# Indices 1 2 3 4 5 6 
#
# 1 0.028751 -0.004856 -0.008434 0.000000 0.000000 0.000000
# 2 -0.004856 0.015142 -0.005453 0.000000 0.000000 0.000000
# 3 -0.008434 -0.005453 0.012036 0.000000 0.000000 0.000000
# 4 0.000000 0.000000 0.000000 -0.016835 0.000000 0.000000
# 5 0.000000 0.000000 0.000000 0.000000 0.025128 0.000000
# 6 0.000000 0.000000 0.000000 0.000000 0.000000 -0.077275
#
#
# Mechanical properties :
#
#
# Convention : Reuss Voigt Hill
#
# Bulk Modulus (GPa) = 54.22103 75.52852 64.87477
# Shear Modulus (GPa) = 163.49863 3.39369 83.44616
#
# Velocity S-wave (km/s) = 9.33444 1.34483 6.66860
# Velocity P-wave (km/s) = 12.04455 6.53163 9.68848
#
# Compressibility (1/GPa) = 0.01844303
#
# Stress axis : x y z
#
# Youngs Moduli (GPa) = 34.78093 66.04039 83.08473
#
# Poissons Ratio (x) = 0.32067 0.70076
# Poissons Ratio (y) = 0.16889 0.45308
# Poissons Ratio (z) = 0.29335 0.36013
#
# Static dielectric constant tensor:
#      x y z
#    x 3.339800 0.000000 0.000000 
#    y 0.000000 3.558620 0.000000 
#    z 0.000000 0.000000 3.585760 
# 
# 
# High freq. dielectric constant tensor:
#      x y z
#    x 1.725460 0.000000 0.000000 
#    y 0.000000 1.736230 0.000000 
#    z 0.000000 0.000000 1.742420 
# 
# From -- ./inp_files/63899.got.cif
#   From: 2010.03.12/outbox.cif.g09.slc.cpg/sg74_32_cif.got.tgz:63899.got - 2010.04.16 15:46:19.
