data_PCOD8300695
_publ_section_title
;
Structure prediction by ZEFSAII (Michael W. Deem and Ramdas Pophale) SiO2 
 PCOD8300695
Probable space group: I M M A
;
_chemical_formula_sum "Si O2"
_cell_formula_units_Z 104
_cell_length_a 18.643340
_cell_length_b 14.280054
_cell_length_c 22.369953
_cell_angle_alpha 90.000000
_cell_angle_beta 90.000000
_cell_angle_gamma 90.000000
_cell_volume 5955.505654
_symmetry_space_group_name_H-M "I M M A"
_symmetry_group_IT_number 74
_symmetry_cell_setting 'orthorhombic'
loop_
_space_group_symop_operation_xyz
x,y,z
-x,1/2-y,z
x,-y,-z
-x,1/2+y,-z
-x,-y,-z
x,1/2+y,-z
-x,y,z
x,1/2-y,z
1/2+x,1/2+y,1/2+z
1/2-x,-y,1/2+z
1/2+x,1/2-y,1/2-z
1/2-x,y,1/2-z
1/2-x,1/2-y,1/2-z
1/2+x,y,1/2-z
1/2-x,1/2+y,1/2+z
1/2+x,-y,1/2+z
loop_
_atom_site_type_symbol
_atom_site_label
_atom_site_fract_x
_atom_site_fract_y
_atom_site_fract_z
Si Si1 0.698467 0.644297 0.201564
Si Si2 0.084998 0.852644 0.781966
Si Si3 0.726773 0.354339 0.931291
Si Si4 0.674418 0.500000 0.500000
Si Si5 0.579419 0.944083 0.060424
Si Si6 0.918266 0.999362 0.311810
Si Si7 0.084363 0.140564 0.082748
O O1 0.681827 0.750000 0.220019
O O2 0.750000 0.595832 0.250000
O O3 0.740371 0.636975 0.139097
O O4 0.621622 0.596138 0.202995
O O5 0.118207 0.750000 0.770675
O O6 0.105570 0.886177 0.848958
O O7 0.000000 0.846641 0.777368
O O8 0.115752 0.918127 0.728864
O O9 0.747633 0.250000 0.954303
O O10 0.774245 0.433673 0.961584
O O11 0.641350 0.366454 0.941938
O O12 0.626068 0.568271 0.540304
O O13 0.500000 0.897013 0.066575
O O14 0.590452 0.016375 0.116581
O O15 0.584395 0.000000 0.000000
O O16 0.000000 0.985051 0.292676
O O17 0.104347 0.250000 0.069744
O O18 0.000000 0.126081 0.071777
#
# Coordination Sequence:
#
# PCOD8300695 Si02
#       7
#    16  16  16   8  16  16  16
#     4   9  19  34  51  70  98 132 164 204 255 303
#     4   8  15  30  51  75 103 131 162 202 248 299
#     4  10  21  35  51  75 102 134 171 206 255 310
#     4  12  21  32  55  78 104 138 168 216 253 300
#     4   9  17  33  53  74 101 132 169 211 253 300
#     4   9  17  29  52  77  97 127 169 210 245 291
#     4   9  19  35  54  77 104 137 175 209 249 303
#
# _framework density 17.462833
#
# number of rings (size 3 to 8) (size 9 to 14) (size 15 to 20)
#    0.000    2.769    0.769    1.615    2.154    0.615 
#    0.000    3.846    0.000    3.231    0.000    0.000 
#    0.000    0.000    0.000    0.000    0.000    0.000 
#
# Total GULP energy -644256.906990 kJ/mol
# GULP energy per Si atom -12389.555904 kJ/mol
# Density = 1.742309 g / cm^3
# Si number density = 17.462833 Si / 1000 Ang^3
#
#
#
# Elastic Constant Matrix: (Units=GPa)
#
#
# Indices 1 2 3 4 5 6 
#
# 1 71.0426 50.3787 50.3473 0.0000 0.0000 0.0000
# 2 50.3787 111.9456 67.9696 0.0000 0.0000 0.0000
# 3 50.3473 67.9696 117.4223 0.0000 0.0000 0.0000
# 4 0.0000 0.0000 0.0000 30.1795 0.0000 0.0000
# 5 0.0000 0.0000 0.0000 0.0000 20.6977 0.0000
# 6 0.0000 0.0000 0.0000 0.0000 0.0000 13.5784
#
#
#
# Elastic Compliance Matrix: (Units=1/GPa)
#
#
# Indices 1 2 3 4 5 6 
#
# 1 0.023125 -0.006764 -0.006000 0.000000 0.000000 0.000000
# 2 -0.006764 0.015752 -0.006218 0.000000 0.000000 0.000000
# 3 -0.006000 -0.006218 0.014688 0.000000 0.000000 0.000000
# 4 0.000000 0.000000 0.000000 0.033135 0.000000 0.000000
# 5 0.000000 0.000000 0.000000 0.000000 0.048315 0.000000
# 6 0.000000 0.000000 0.000000 0.000000 0.000000 0.073646
#
#
# Mechanical properties :
#
#
# Convention : Reuss Voigt Hill
#
# Bulk Modulus (GPa) = 64.09654 70.86685 67.48170
# Shear Modulus (GPa) = 19.85507 21.67211 20.76359
#
# Velocity S-wave (km/s) = 3.37559 3.52666 3.45195
# Velocity P-wave (km/s) = 7.20951 7.56656 7.39019
#
# Compressibility (1/GPa) = 0.01560147
#
# Stress axis : x y z
#
# Youngs Moduli (GPa) = 43.24399 63.48355 68.08198
#
# Poissons Ratio (x) = 0.42938 0.40849
# Poissons Ratio (y) = 0.29249 0.42333
# Poissons Ratio (z) = 0.25946 0.39474
#
# Static dielectric constant tensor:
#      x y z
#    x 3.182430 0.000000 0.000000 
#    y 0.000000 3.330090 0.000000 
#    z 0.000000 0.000000 3.495550 
# 
# 
# High freq. dielectric constant tensor:
#      x y z
#    x 1.661380 0.000000 0.000000 
#    y 0.000000 1.662160 0.000000 
#    z 0.000000 0.000000 1.685880 
# 
# From -- ./inp_files/54010.got.cif
#   From: 2010.03.12/outbox.cif.g09.slc.cpg/sg74_28_cif.got.tgz:54010.got - 2010.04.16 15:46:19.
