data_PCOD8300602
_publ_section_title
;
Structure prediction by ZEFSAII (Michael W. Deem and Ramdas Pophale) SiO2 
 PCOD8300602
Probable space group: I M M A
;
_chemical_formula_sum "Si O2"
_cell_formula_units_Z 88
_cell_length_a 14.975226
_cell_length_b 12.124289
_cell_length_c 24.022717
_cell_angle_alpha 90.000000
_cell_angle_beta 90.000000
_cell_angle_gamma 90.000000
_cell_volume 4361.659817
_symmetry_space_group_name_H-M "I M M A"
_symmetry_group_IT_number 74
_symmetry_cell_setting 'orthorhombic'
loop_
_space_group_symop_operation_xyz
x,y,z
-x,1/2-y,z
x,-y,-z
-x,1/2+y,-z
-x,-y,-z
x,1/2+y,-z
-x,y,z
x,1/2-y,z
1/2+x,1/2+y,1/2+z
1/2-x,-y,1/2+z
1/2+x,1/2-y,1/2-z
1/2-x,y,1/2-z
1/2-x,1/2-y,1/2-z
1/2+x,y,1/2-z
1/2-x,1/2+y,1/2+z
1/2+x,-y,1/2+z
loop_
_atom_site_type_symbol
_atom_site_label
_atom_site_fract_x
_atom_site_fract_y
_atom_site_fract_z
Si Si1 0.400483 0.750000 0.641903
Si Si2 0.000000 0.123490 0.845557
Si Si3 0.351915 0.250000 0.234336
Si Si4 0.855897 0.030191 0.334920
Si Si5 0.756903 0.500000 0.500000
Si Si6 0.598135 0.872894 0.948759
Si Si7 0.329559 0.986224 0.616771
Si Si8 0.500000 0.624859 0.214138
O O1 0.500000 0.750000 0.617594
O O2 0.407825 0.750000 0.708818
O O3 0.350234 0.856433 0.618355
O O4 0.000000 0.118468 0.779959
O O5 0.000000 0.250000 0.866989
O O6 0.912449 0.061638 0.867215
O O7 0.250000 0.250000 0.250000
O O8 0.374812 0.359164 0.199830
O O9 0.892034 0.045015 0.397091
O O10 0.751346 0.996071 0.339114
O O11 0.909566 0.931242 0.307147
O O12 0.824145 0.604162 0.506445
O O13 0.695850 0.481337 0.553854
O O14 0.500000 0.888797 0.976106
O O15 0.610555 0.750000 0.925862
O O16 0.500000 0.750000 0.192726
#
# Coordination Sequence:
#
# PCOD8300602 Si02
#       8
#     8   8   8  16   8  16  16   8
#     4  12  24  40  66  99 143 162 216 275 342 399
#     4  11  26  46  64  90 129 174 234 272 315 384
#     4  12  22  34  64 114 136 175 201 270 351 412
#     4  11  22  39  67 101 144 167 217 263 337 408
#     4  10  25  39  66  88 130 172 216 262 344 376
#     4  10  20  39  64  97 132 166 211 271 328 401
#     4  11  24  45  65  97 128 173 219 282 330 394
#     4  11  26  43  64  95 137 191 222 259 319 400
#
# _framework density 20.175805
#
# number of rings (size 3 to 8) (size 9 to 14) (size 15 to 20)
#    0.000    1.091    4.545    1.364    5.091    1.818 
#    0.000    4.545    0.000    0.000    0.000    0.000 
#    0.000    0.000    0.000    0.000    0.000    0.000 
#
# Total GULP energy -545594.226418 kJ/mol
# GULP energy per Si atom -12399.868782 kJ/mol
# Density = 2.012988 g / cm^3
# Si number density = 20.175805 Si / 1000 Ang^3
#
#
#
# Elastic Constant Matrix: (Units=GPa)
#
#
# Indices 1 2 3 4 5 6 
#
# 1 162.0103 77.6724 42.6374 0.0000 0.0000 0.0000
# 2 77.6724 153.6796 53.0580 0.0000 0.0000 0.0000
# 3 42.6374 53.0580 97.7279 0.0000 0.0000 0.0000
# 4 0.0000 0.0000 0.0000 31.5905 0.0000 0.0000
# 5 0.0000 0.0000 0.0000 0.0000 28.5946 0.0000
# 6 0.0000 0.0000 0.0000 0.0000 0.0000 20.9903
#
#
#
# Elastic Compliance Matrix: (Units=1/GPa)
#
#
# Indices 1 2 3 4 5 6 
#
# 1 0.008361 -0.003651 -0.001666 0.000000 0.000000 0.000000
# 2 -0.003651 0.009602 -0.003620 0.000000 0.000000 0.000000
# 3 -0.001666 -0.003620 0.012925 0.000000 0.000000 0.000000
# 4 0.000000 0.000000 0.000000 0.031655 0.000000 0.000000
# 5 0.000000 0.000000 0.000000 0.000000 0.034972 0.000000
# 6 0.000000 0.000000 0.000000 0.000000 0.000000 0.047641
#
#
# Mechanical properties :
#
#
# Convention : Reuss Voigt Hill
#
# Bulk Modulus (GPa) = 76.83899 84.46151 80.65025
# Shear Modulus (GPa) = 29.87432 32.23840 31.05636
#
# Velocity S-wave (km/s) = 3.85216 4.00168 3.92763
# Velocity P-wave (km/s) = 7.61268 7.95644 7.78646
#
# Compressibility (1/GPa) = 0.01301423
#
# Stress axis : x y z
#
# Youngs Moduli (GPa) = 119.60122 104.14353 77.37050
#
# Poissons Ratio (x) = 0.38020 0.12888
# Poissons Ratio (y) = 0.43663 0.28011
# Poissons Ratio (z) = 0.19923 0.37704
#
# Static dielectric constant tensor:
#      x y z
#    x 3.865570 0.000000 0.000000 
#    y 0.000000 3.811270 0.000000 
#    z 0.000000 0.000000 3.782080 
# 
# 
# High freq. dielectric constant tensor:
#      x y z
#    x 1.807840 0.000000 0.000000 
#    y 0.000000 1.781720 0.000000 
#    z 0.000000 0.000000 1.781910 
# 
# From -- ./inp_files/59882.got.cif
#   From: 2010.03.12/outbox.cif.g09.slc.cpg/sg74_30_cif.got.tgz:59882.got - 2010.04.16 15:46:19.
