data_PCOD8300190
_publ_section_title
;
Structure prediction by ZEFSAII (Michael W. Deem and Ramdas Pophale) SiO2 
 PCOD8300190
Probable space group: I M M A
;
_chemical_formula_sum "Si O2"
_cell_formula_units_Z 64
_cell_length_a 8.821566
_cell_length_b 10.170754
_cell_length_c 37.995219
_cell_angle_alpha 90.000000
_cell_angle_beta 90.000000
_cell_angle_gamma 90.000000
_cell_volume 3409.006191
_symmetry_space_group_name_H-M "I M M A"
_symmetry_group_IT_number 74
_symmetry_cell_setting 'orthorhombic'
loop_
_space_group_symop_operation_xyz
x,y,z
-x,1/2-y,z
x,-y,-z
-x,1/2+y,-z
-x,-y,-z
x,1/2+y,-z
-x,y,z
x,1/2-y,z
1/2+x,1/2+y,1/2+z
1/2-x,-y,1/2+z
1/2+x,1/2-y,1/2-z
1/2-x,y,1/2-z
1/2-x,1/2-y,1/2-z
1/2+x,y,1/2-z
1/2-x,1/2+y,1/2+z
1/2+x,-y,1/2+z
loop_
_atom_site_type_symbol
_atom_site_label
_atom_site_fract_x
_atom_site_fract_y
_atom_site_fract_z
Si Si1 0.823724 0.900423 0.530395
Si Si2 0.178399 0.988810 0.671614
Si Si3 0.177091 0.250000 0.711872
Si Si4 0.321344 0.250000 0.288034
Si Si5 0.175984 0.097146 0.103618
O O1 0.789700 0.750000 0.518759
O O2 0.728187 0.939728 0.564543
O O3 0.000000 0.918755 0.539354
O O4 0.771439 0.000000 0.500000
O O5 0.270978 0.877558 0.691242
O O6 0.227630 0.990371 0.630820
O O7 0.000000 0.962353 0.674758
O O8 0.228011 0.124593 0.689404
O O9 0.250000 0.250000 0.750000
O O10 0.000000 0.250000 0.718246
O O11 0.500000 0.250000 0.284256
O O12 0.250000 0.250000 0.250000
O O13 0.208806 0.250000 0.111450
O O14 0.000000 0.063423 0.107774
#
# Coordination Sequence:
#
# PCOD8300190 Si02
#       5
#    16  16   8   8  16
#     4   9  18  34  56  81 110 147 189 231 280 334
#     4  11  22  39  61  85 114 150 192 237 287 341
#     4  10  24  42  60  84 113 150 191 234 288 346
#     4  12  24  38  58  88 117 146 189 236 282 338
#     4  10  20  35  57  85 116 149 189 235 284 337
#
# _framework density 18.773797999999999
#
# number of rings (size 3 to 8) (size 9 to 14) (size 15 to 20)
#    0.000    1.750    1.250    3.375    0.000    5.500 
#    2.250    0.000    0.000    0.000    0.000    0.000 
#    0.000    0.000    0.000    0.000    0.000    0.000 
#
# Total GULP energy -396931.715079 kJ/mol
# GULP energy per Si atom -12404.116096 kJ/mol
# Density = 1.873107 g / cm^3
# Si number density = 18.773798 Si / 1000 Ang^3
#
#
#
# Elastic Constant Matrix: (Units=GPa)
#
#
# Indices 1 2 3 4 5 6 
#
# 1 90.2968 50.4963 55.3219 0.0000 0.0000 0.0000
# 2 50.4963 126.6800 78.4820 0.0000 0.0000 0.0000
# 3 55.3219 78.4820 147.5726 0.0000 0.0000 0.0000
# 4 0.0000 0.0000 0.0000 44.6521 0.0000 0.0000
# 5 0.0000 0.0000 0.0000 0.0000 38.7178 0.0000
# 6 0.0000 0.0000 0.0000 0.0000 0.0000 90.1505
#
#
#
# Elastic Compliance Matrix: (Units=1/GPa)
#
#
# Indices 1 2 3 4 5 6 
#
# 1 0.015545 -0.003857 -0.003776 0.000000 0.000000 0.000000
# 2 -0.003857 0.012730 -0.005324 0.000000 0.000000 0.000000
# 3 -0.003776 -0.005324 0.011023 0.000000 0.000000 0.000000
# 4 0.000000 0.000000 0.000000 0.022395 0.000000 0.000000
# 5 0.000000 0.000000 0.000000 0.000000 0.025828 0.000000
# 6 0.000000 0.000000 0.000000 0.000000 0.000000 0.011093
#
#
# Mechanical properties :
#
#
# Convention : Reuss Voigt Hill
#
# Bulk Modulus (GPa) = 74.71806 81.46108 78.08957
# Shear Modulus (GPa) = 38.76270 46.72069 42.74170
#
# Velocity S-wave (km/s) = 4.54885 4.99401 4.77662
# Velocity P-wave (km/s) = 8.21431 8.76005 8.49157
#
# Compressibility (1/GPa) = 0.01338364
#
# Stress axis : x y z
#
# Youngs Moduli (GPa) = 64.32883 78.55623 90.71587
#
# Poissons Ratio (x) = 0.30299 0.34257
# Poissons Ratio (y) = 0.24811 0.48297
# Poissons Ratio (z) = 0.24293 0.41824
#
# Static dielectric constant tensor:
#      x y z
#    x 3.509050 0.000000 0.000000 
#    y 0.000000 3.490230 0.000000 
#    z 0.000000 0.000000 3.569270 
# 
# 
# High freq. dielectric constant tensor:
#      x y z
#    x 1.735600 0.000000 0.000000 
#    y 0.000000 1.720260 0.000000 
#    z 0.000000 0.000000 1.742010 
# 
# From -- ./inp_files/69757.got.cif
#   From: 2010.03.12/outbox.cif.g09.slc.cpg/sg74_35_cif.got.tgz:69757.got - 2010.04.16 15:46:19.
