data_PCOD8300216
_publ_section_title
;
Structure prediction by ZEFSAII (Michael W. Deem and Ramdas Pophale) SiO2 
 PCOD8300216
Probable space group: I M M A
;
_chemical_formula_sum "Si O2"
_cell_formula_units_Z 88
_cell_length_a 24.192044
_cell_length_b 9.884856
_cell_length_c 18.142092
_cell_angle_alpha 90.000000
_cell_angle_beta 90.000000
_cell_angle_gamma 90.000000
_cell_volume 4338.406835
_symmetry_space_group_name_H-M "I M M A"
_symmetry_group_IT_number 74
_symmetry_cell_setting 'orthorhombic'
loop_
_space_group_symop_operation_xyz
x,y,z
-x,1/2-y,z
x,-y,-z
-x,1/2+y,-z
-x,-y,-z
x,1/2+y,-z
-x,y,z
x,1/2-y,z
1/2+x,1/2+y,1/2+z
1/2-x,-y,1/2+z
1/2+x,1/2-y,1/2-z
1/2-x,y,1/2-z
1/2-x,1/2-y,1/2-z
1/2+x,y,1/2-z
1/2-x,1/2+y,1/2+z
1/2+x,-y,1/2+z
loop_
_atom_site_type_symbol
_atom_site_label
_atom_site_fract_x
_atom_site_fract_y
_atom_site_fract_z
Si Si1 0.562195 0.403421 0.303933
Si Si2 0.269397 0.250000 0.429821
Si Si3 0.359922 0.250000 0.084732
Si Si4 0.935437 0.250000 0.560067
Si Si5 0.201982 0.750000 0.310692
Si Si6 0.701559 0.250000 0.593653
Si Si7 0.153971 0.479781 0.086844
Si Si8 0.613263 0.970909 0.165183
O O1 0.500000 0.434420 0.328812
O O2 0.569011 0.250000 0.275522
O O3 0.598641 0.424056 0.376684
O O4 0.576774 0.503367 0.237269
O O5 0.204035 0.250000 0.438507
O O6 0.301377 0.250000 0.506609
O O7 0.293501 0.384719 0.391587
O O8 0.369724 0.385271 0.131254
O O9 0.398949 0.250000 0.013585
O O10 0.921895 0.115165 0.606330
O O11 0.000000 0.250000 0.538379
O O12 0.250000 0.750000 0.250000
O O13 0.233434 0.750000 0.388385
O O14 0.166181 0.613581 0.307623
O O15 0.669458 0.120910 0.625867
O O16 0.143973 0.500000 0.000000
#
# Coordination Sequence:
#
# PCOD8300216 Si02
#       8
#    16   8   8   8   8   8  16  16
#     4  11  23  42  66  89 122 165 209 262 321 379
#     4  10  20  37  60  89 127 163 202 252 310 376
#     4  12  24  40  66  99 127 169 220 270 318 385
#     4  11  26  45  66  91 130 172 221 279 328 392
#     4  11  22  39  62  91 134 177 210 261 323 392
#     4  10  20  35  58  88 123 165 200 248 314 373
#     4  10  21  39  64  93 126 162 205 253 311 379
#     4  11  24  42  63  95 130 167 219 269 329 385
#
# _framework density 20.283944000000002
#
# number of rings (size 3 to 8) (size 9 to 14) (size 15 to 20)
#    0.000    1.273    1.818    4.364    0.000    6.182 
#    0.000    3.636    0.000    0.000    0.000    0.000 
#    0.000    0.000    0.000    0.000    0.000    0.000 
#
# Total GULP energy -545487.213443 kJ/mol
# GULP energy per Si atom -12397.436669 kJ/mol
# Density = 2.023778 g / cm^3
# Si number density = 20.283944 Si / 1000 Ang^3
#
#
#
# Elastic Constant Matrix: (Units=GPa)
#
#
# Indices 1 2 3 4 5 6 
#
# 1 177.0015 70.2220 56.1054 0.0000 0.0000 0.0000
# 2 70.2220 158.6825 43.6807 0.0000 0.0000 0.0000
# 3 56.1054 43.6807 75.1838 0.0000 0.0000 0.0000
# 4 0.0000 0.0000 0.0000 21.5942 0.0000 0.0000
# 5 0.0000 0.0000 0.0000 0.0000 37.4262 0.0000
# 6 0.0000 0.0000 0.0000 0.0000 0.0000 30.6642
#
#
#
# Elastic Compliance Matrix: (Units=1/GPa)
#
#
# Indices 1 2 3 4 5 6 
#
# 1 0.008031 -0.002267 -0.004676 0.000000 0.000000 0.000000
# 2 -0.002267 0.008141 -0.003038 0.000000 0.000000 0.000000
# 3 -0.004676 -0.003038 0.018556 0.000000 0.000000 0.000000
# 4 0.000000 0.000000 0.000000 0.046309 0.000000 0.000000
# 5 0.000000 0.000000 0.000000 0.000000 0.026719 0.000000
# 6 0.000000 0.000000 0.000000 0.000000 0.000000 0.032611
#
#
# Mechanical properties :
#
#
# Convention : Reuss Voigt Hill
#
# Bulk Modulus (GPa) = 67.72661 83.43159 75.57910
# Shear Modulus (GPa) = 30.25671 33.99423 32.12547
#
# Velocity S-wave (km/s) = 3.86639 4.09824 3.98400
# Velocity P-wave (km/s) = 7.30710 7.97591 7.64882
#
# Compressibility (1/GPa) = 0.01476525
#
# Stress axis : x y z
#
# Youngs Moduli (GPa) = 124.51332 122.82844 53.89189
#
# Poissons Ratio (x) = 0.27843 0.25201
# Poissons Ratio (y) = 0.28225 0.16375
# Poissons Ratio (z) = 0.58226 0.37321
#
# Static dielectric constant tensor:
#      x y z
#    x 3.647210 0.000000 0.000000 
#    y 0.000000 4.149980 0.000000 
#    z 0.000000 0.000000 3.543290 
# 
# 
# High freq. dielectric constant tensor:
#      x y z
#    x 1.792990 0.000000 0.000000 
#    y 0.000000 1.814490 0.000000 
#    z 0.000000 0.000000 1.787540 
# 
# From -- ./inp_files/54592.got.cif
#   From: 2010.03.12/outbox.cif.g09.slc.cpg/sg74_28_cif.got.tgz:54592.got - 2010.04.16 15:46:19.
