data_PCOD8300347
_publ_section_title
;
Structure prediction by ZEFSAII (Michael W. Deem and Ramdas Pophale) SiO2 
 PCOD8300347
Probable space group: I M M A
;
_chemical_formula_sum "Si O2"
_cell_formula_units_Z 64
_cell_length_a 7.730482
_cell_length_b 15.398506
_cell_length_c 27.557740
_cell_angle_alpha 90.000000
_cell_angle_beta 90.000000
_cell_angle_gamma 90.000000
_cell_volume 3280.414767
_symmetry_space_group_name_H-M "I M M A"
_symmetry_group_IT_number 74
_symmetry_cell_setting 'orthorhombic'
loop_
_space_group_symop_operation_xyz
x,y,z
-x,1/2-y,z
x,-y,-z
-x,1/2+y,-z
-x,-y,-z
x,1/2+y,-z
-x,y,z
x,1/2-y,z
1/2+x,1/2+y,1/2+z
1/2-x,-y,1/2+z
1/2+x,1/2-y,1/2-z
1/2-x,y,1/2-z
1/2-x,1/2-y,1/2-z
1/2+x,y,1/2-z
1/2-x,1/2+y,1/2+z
1/2+x,-y,1/2+z
loop_
_atom_site_type_symbol
_atom_site_label
_atom_site_fract_x
_atom_site_fract_y
_atom_site_fract_z
Si Si1 0.795977 0.250000 0.805833
Si Si2 0.808292 0.915022 0.139318
Si Si3 0.000000 0.853172 0.943667
Si Si4 0.000000 0.352678 0.946224
Si Si5 0.201329 0.750000 0.694307
Si Si6 0.696628 0.900117 0.874993
O O1 0.750000 0.250000 0.750000
O O2 0.717595 0.163174 0.830634
O O3 0.000000 0.250000 0.816105
O O4 0.000000 0.934472 0.161171
O O5 0.829298 0.887115 0.082490
O O6 0.694106 0.001385 0.144626
O O7 0.826439 0.892247 0.920189
O O8 0.000000 0.750000 0.939245
O O9 0.000000 0.886541 0.998892
O O10 0.000000 0.250000 0.944855
O O11 0.250000 0.750000 0.750000
O O12 0.269735 0.663708 0.667086
O O13 0.000000 0.750000 0.690403
O O14 0.500000 0.875237 0.890507
#
# Coordination Sequence:
#
# PCOD8300347 Si02
#       6
#     8  16   8   8   8  16
#     4  10  20  36  58  86 117 158 203 257 300 357
#     4   9  18  37  61  81 118 160 199 243 302 356
#     4  11  21  37  69  92 117 169 202 241 313 362
#     4   9  17  37  67  92 115 161 214 239 299 372
#     4  10  24  40  58  82 119 154 201 254 299 356
#     4  11  23  39  59  91 123 155 202 252 298 363
#
# _framework density 19.509729
#
# number of rings (size 3 to 8) (size 9 to 14) (size 15 to 20)
#    0.750    1.250    3.750    0.000    1.750    4.000 
#    0.000    7.500    0.000    1.500    0.000    0.000 
#    0.000    0.000    0.000    0.000    0.000    0.000 
#
# Total GULP energy -396581.904254 kJ/mol
# GULP energy per Si atom -12393.184508 kJ/mol
# Density = 1.946532 g / cm^3
# Si number density = 19.509729 Si / 1000 Ang^3
#
#
#
# Elastic Constant Matrix: (Units=GPa)
#
#
# Indices 1 2 3 4 5 6 
#
# 1 65.4202 23.5301 30.8565 0.0000 0.0000 0.0000
# 2 23.5301 160.0548 75.3139 0.0000 0.0000 0.0000
# 3 30.8565 75.3139 162.5614 0.0000 0.0000 0.0000
# 4 0.0000 0.0000 0.0000 13.7005 0.0000 0.0000
# 5 0.0000 0.0000 0.0000 0.0000 23.7620 0.0000
# 6 0.0000 0.0000 0.0000 0.0000 0.0000 17.2432
#
#
#
# Elastic Compliance Matrix: (Units=1/GPa)
#
#
# Indices 1 2 3 4 5 6 
#
# 1 0.016983 -0.001253 -0.002643 0.000000 0.000000 0.000000
# 2 -0.001253 0.008082 -0.003507 0.000000 0.000000 0.000000
# 3 -0.002643 -0.003507 0.008278 0.000000 0.000000 0.000000
# 4 0.000000 0.000000 0.000000 0.072990 0.000000 0.000000
# 5 0.000000 0.000000 0.000000 0.000000 0.042084 0.000000
# 6 0.000000 0.000000 0.000000 0.000000 0.000000 0.057994
#
#
# Mechanical properties :
#
#
# Convention : Reuss Voigt Hill
#
# Bulk Modulus (GPa) = 53.94430 71.93749 62.94089
# Shear Modulus (GPa) = 21.98811 28.16353 25.07582
#
# Velocity S-wave (km/s) = 3.36077 3.80355 3.58900
# Velocity P-wave (km/s) = 6.53986 7.49946 7.03604
#
# Compressibility (1/GPa) = 0.01853764
#
# Stress axis : x y z
#
# Youngs Moduli (GPa) = 58.88184 123.73056 120.80518
#
# Poissons Ratio (x) = 0.15504 0.31930
# Poissons Ratio (y) = 0.07378 0.42361
# Poissons Ratio (z) = 0.15563 0.43387
#
# Static dielectric constant tensor:
#      x y z
#    x 3.343960 0.000000 0.000000 
#    y 0.000000 3.959040 0.000000 
#    z 0.000000 0.000000 3.445820 
# 
# 
# High freq. dielectric constant tensor:
#      x y z
#    x 1.731980 0.000000 0.000000 
#    y 0.000000 1.780910 0.000000 
#    z 0.000000 0.000000 1.744770 
# 
# From -- ./inp_files/63569.got.cif
#   From: 2010.03.12/outbox.cif.g09.slc.cpg/sg74_32_cif.got.tgz:63569.got - 2010.04.16 15:46:19.
