data_PCOD8300584
_publ_section_title
;
Structure prediction by ZEFSAII (Michael W. Deem and Ramdas Pophale) SiO2 
 PCOD8300584
Probable space group: I M M A
;
_chemical_formula_sum "Si O2"
_cell_formula_units_Z 88
_cell_length_a 11.769679
_cell_length_b 16.256587
_cell_length_c 22.780142
_cell_angle_alpha 90.000000
_cell_angle_beta 90.000000
_cell_angle_gamma 90.000000
_cell_volume 4358.634156
_symmetry_space_group_name_H-M "I M M A"
_symmetry_group_IT_number 74
_symmetry_cell_setting 'orthorhombic'
loop_
_space_group_symop_operation_xyz
x,y,z
-x,1/2-y,z
x,-y,-z
-x,1/2+y,-z
-x,-y,-z
x,1/2+y,-z
-x,y,z
x,1/2-y,z
1/2+x,1/2+y,1/2+z
1/2-x,-y,1/2+z
1/2+x,1/2-y,1/2-z
1/2-x,y,1/2-z
1/2-x,1/2-y,1/2-z
1/2+x,y,1/2-z
1/2-x,1/2+y,1/2+z
1/2+x,-y,1/2+z
loop_
_atom_site_type_symbol
_atom_site_label
_atom_site_fract_x
_atom_site_fract_y
_atom_site_fract_z
Si Si1 0.630402 0.157686 0.589132
Si Si2 0.500000 0.497354 0.067229
Si Si3 0.000000 0.654368 0.361811
Si Si4 0.197060 0.910636 0.632310
Si Si5 0.867882 0.586902 0.970338
Si Si6 0.780769 0.578284 0.314729
Si Si7 0.637932 0.750000 0.795300
O O1 0.500000 0.130294 0.591132
O O2 0.650429 0.250000 0.610818
O O3 0.671715 0.150607 0.521345
O O4 0.691771 0.098126 0.634232
O O5 0.500000 0.593943 0.082832
O O6 0.608016 0.447641 0.087553
O O7 0.500000 0.500000 0.000000
O O8 0.107742 0.632195 0.323097
O O9 0.000000 0.750000 0.381368
O O10 0.307372 0.894408 0.591856
O O11 0.152822 0.829053 0.663801
O O12 0.209892 0.979253 0.683232
O O13 0.000000 0.595415 0.955145
O O14 0.838312 0.500000 0.000000
O O15 0.750000 0.605749 0.250000
O O16 0.500000 0.750000 0.772104
O O17 0.750000 0.750000 0.750000
#
# Coordination Sequence:
#
# PCOD8300584 Si02
#       7
#    16   8   8  16  16  16   8
#     4  10  22  39  61  94 132 171 215 271 332 400
#     4  10  22  41  68  94 133 176 214 272 338 413
#     4  10  24  42  59  93 128 157 216 264 314 396
#     4  11  23  44  68  97 132 170 228 280 348 417
#     4  10  20  38  65  98 134 170 217 273 338 419
#     4  11  24  42  64  89 123 173 218 267 329 400
#     4  12  28  52  74 106 144 186 245 312 367 428
#
# _framework density 20.189810999999999
#
# number of rings (size 3 to 8) (size 9 to 14) (size 15 to 20)
#    0.000    1.455    2.727    1.636    5.091    2.182 
#    1.636    0.000    0.000    0.000    0.000    0.000 
#    0.000    0.000    0.000    0.000    0.000    0.000 
#
# Total GULP energy -545085.168440 kJ/mol
# GULP energy per Si atom -12388.299283 kJ/mol
# Density = 2.014386 g / cm^3
# Si number density = 20.189811 Si / 1000 Ang^3
#
#
#
# Elastic Constant Matrix: (Units=GPa)
#
#
# Indices 1 2 3 4 5 6 
#
# 1 105.8715 44.1359 59.8186 0.0000 0.0000 0.0000
# 2 44.1359 133.1943 42.7736 0.0000 0.0000 0.0000
# 3 59.8186 42.7736 114.3014 0.0000 0.0000 0.0000
# 4 0.0000 0.0000 0.0000 12.8040 0.0000 0.0000
# 5 0.0000 0.0000 0.0000 0.0000 115.6680 0.0000
# 6 0.0000 0.0000 0.0000 0.0000 0.0000 13.4595
#
#
#
# Elastic Compliance Matrix: (Units=1/GPa)
#
#
# Indices 1 2 3 4 5 6 
#
# 1 0.014179 -0.002632 -0.006435 0.000000 0.000000 0.000000
# 2 -0.002632 0.009022 -0.001999 0.000000 0.000000 0.000000
# 3 -0.006435 -0.001999 0.012865 0.000000 0.000000 0.000000
# 4 0.000000 0.000000 0.000000 0.078101 0.000000 0.000000
# 5 0.000000 0.000000 0.000000 0.000000 0.008645 0.000000
# 6 0.000000 0.000000 0.000000 0.000000 0.000000 0.074297
#
#
# Mechanical properties :
#
#
# Convention : Reuss Voigt Hill
#
# Bulk Modulus (GPa) = 71.77086 71.86928 71.82007
# Shear Modulus (GPa) = 22.33297 42.16224 32.24760
#
# Velocity S-wave (km/s) = 3.32949 4.57474 4.00086
# Velocity P-wave (km/s) = 7.09971 7.97361 7.54932
#
# Compressibility (1/GPa) = 0.01393323
#
# Stress axis : x y z
#
# Youngs Moduli (GPa) = 70.52891 110.84302 77.73194
#
# Poissons Ratio (x) = 0.29170 0.50024
# Poissons Ratio (y) = 0.18561 0.15538
# Poissons Ratio (z) = 0.45388 0.22156
#
# Static dielectric constant tensor:
#      x y z
#    x 4.139110 0.000000 0.000000 
#    y 0.000000 3.748760 0.000000 
#    z 0.000000 0.000000 3.467960 
# 
# 
# High freq. dielectric constant tensor:
#      x y z
#    x 1.798990 0.000000 0.000000 
#    y 0.000000 1.795830 0.000000 
#    z 0.000000 0.000000 1.782670 
# 
# From -- ./inp_files/58693.got.cif
#   From: 2010.03.12/outbox.cif.g09.slc.cpg/sg74_30_cif.got.tgz:58693.got - 2010.04.16 15:46:19.
