data_PCOD8300578
_publ_section_title
;
Structure prediction by ZEFSAII (Michael W. Deem and Ramdas Pophale) SiO2 
 PCOD8300578
Probable space group: I M M A
;
_chemical_formula_sum "Si O2"
_cell_formula_units_Z 68
_cell_length_a 22.364371
_cell_length_b 15.325109
_cell_length_c 10.613386
_cell_angle_alpha 90.000000
_cell_angle_beta 90.000000
_cell_angle_gamma 90.000000
_cell_volume 3637.593957
_symmetry_space_group_name_H-M "I M M A"
_symmetry_group_IT_number 74
_symmetry_cell_setting 'orthorhombic'
loop_
_space_group_symop_operation_xyz
x,y,z
-x,1/2-y,z
x,-y,-z
-x,1/2+y,-z
-x,-y,-z
x,1/2+y,-z
-x,y,z
x,1/2-y,z
1/2+x,1/2+y,1/2+z
1/2-x,-y,1/2+z
1/2+x,1/2-y,1/2-z
1/2-x,y,1/2-z
1/2-x,1/2-y,1/2-z
1/2+x,y,1/2-z
1/2-x,1/2+y,1/2+z
1/2+x,-y,1/2+z
loop_
_atom_site_type_symbol
_atom_site_label
_atom_site_fract_x
_atom_site_fract_y
_atom_site_fract_z
Si Si1 0.500000 0.250000 0.811081
Si Si2 0.365932 0.908610 0.553430
Si Si3 0.566640 0.750000 0.431021
Si Si4 0.616904 0.852166 0.829812
Si Si5 0.741472 0.346198 0.101482
Si Si6 0.500000 0.103529 0.017647
O O1 0.559028 0.250000 0.721503
O O2 0.500000 0.160216 0.890271
O O3 0.397251 0.834768 0.471500
O O4 0.385682 0.903426 0.698515
O O5 0.293547 0.904101 0.539010
O O6 0.388615 0.000000 0.500000
O O7 0.500000 0.750000 0.494237
O O8 0.624573 0.750000 0.797459
O O9 0.673723 0.883092 0.916281
O O10 0.557566 0.869636 0.905068
O O11 0.747198 0.250000 0.041062
O O12 0.750000 0.340533 0.250000
O O13 0.500000 0.000000 0.000000
#
# Coordination Sequence:
#
# PCOD8300578 Si02
#       6
#     4  16   8  16  16   8
#     4  10  26  46  54  76 126 168 186 242 312 350
#     4  11  21  35  63  96 121 150 195 252 309 354
#     4  10  24  39  58  82 129 159 182 242 313 372
#     4  10  20  38  65  88 116 159 208 248 289 353
#     4   8  15  33  58  85 115 149 187 237 293 344
#     4  12  26  41  62  84 114 159 211 249 287 362
#
# _framework density 18.693676
#
# number of rings (size 3 to 8) (size 9 to 14) (size 15 to 20)
#    0.353    1.647    3.529    1.412    4.941    1.412 
#    0.000    0.000    0.000    1.412    0.000    0.000 
#    0.000    0.000    0.000    0.000    0.000    0.000 
#
# Total GULP energy -421346.759814 kJ/mol
# GULP energy per Si atom -12392.551759 kJ/mol
# Density = 1.865113 g / cm^3
# Si number density = 18.693676 Si / 1000 Ang^3
#
#
#
# Elastic Constant Matrix: (Units=GPa)
#
#
# Indices 1 2 3 4 5 6 
#
# 1 157.9991 42.6608 55.7260 0.0000 0.0000 0.0000
# 2 42.6608 126.9460 48.8809 0.0000 0.0000 0.0000
# 3 55.7260 48.8809 88.7603 0.0000 0.0000 0.0000
# 4 0.0000 0.0000 0.0000 28.4228 0.0000 0.0000
# 5 0.0000 0.0000 0.0000 0.0000 18.3076 0.0000
# 6 0.0000 0.0000 0.0000 0.0000 0.0000 -16.4524
#
#
#
# Elastic Compliance Matrix: (Units=1/GPa)
#
#
# Indices 1 2 3 4 5 6 
#
# 1 0.008225 -0.000984 -0.004622 0.000000 0.000000 0.000000
# 2 -0.000984 0.010115 -0.004952 0.000000 0.000000 0.000000
# 3 -0.004622 -0.004952 0.016895 0.000000 0.000000 0.000000
# 4 0.000000 0.000000 0.000000 0.035183 0.000000 0.000000
# 5 0.000000 0.000000 0.000000 0.000000 0.054622 0.000000
# 6 0.000000 0.000000 0.000000 0.000000 0.000000 -0.060781
#
#
# Mechanical properties :
#
#
# Convention : Reuss Voigt Hill
#
# Bulk Modulus (GPa) = 70.83038 74.24897 72.53968
# Shear Modulus (GPa) = 55.50461 21.15144 38.32802
#
# Velocity S-wave (km/s) = 5.45492 3.36739 4.53296
# Velocity P-wave (km/s) = 8.81176 7.41108 8.14160
#
# Compressibility (1/GPa) = 0.01411824
#
# Stress axis : x y z
#
# Youngs Moduli (GPa) = 121.57996 98.86178 59.18817
#
# Poissons Ratio (x) = 0.09732 0.27355
# Poissons Ratio (y) = 0.11969 0.29312
# Poissons Ratio (z) = 0.56191 0.48960
#
# Static dielectric constant tensor:
#      x y z
#    x 4.081490 0.000000 0.000000 
#    y 0.000000 3.449550 0.000000 
#    z 0.000000 0.000000 3.138200 
# 
# 
# High freq. dielectric constant tensor:
#      x y z
#    x 1.747250 0.000000 0.000000 
#    y 0.000000 1.716430 0.000000 
#    z 0.000000 0.000000 1.696440 
# 
# From -- ./inp_files/20254.got.cif
#   From: 2010.03.12/outbox.cif.g09.slc.cpg/sg74_11_cif.got.tgz:20254.got - 2010.04.16 15:46:19.
