data_PCOD8300092
_publ_section_title
;
Structure prediction by ZEFSAII (Michael W. Deem and Ramdas Pophale) SiO2 
 PCOD8300092
Probable space group: I M M A
;
_chemical_formula_sum "Si O2"
_cell_formula_units_Z 96
_cell_length_a 23.986341
_cell_length_b 8.942162
_cell_length_c 23.220877
_cell_angle_alpha 90.000000
_cell_angle_beta 90.000000
_cell_angle_gamma 90.000000
_cell_volume 4980.640033
_symmetry_space_group_name_H-M "I M M A"
_symmetry_group_IT_number 74
_symmetry_cell_setting 'orthorhombic'
loop_
_space_group_symop_operation_xyz
x,y,z
-x,1/2-y,z
x,-y,-z
-x,1/2+y,-z
-x,-y,-z
x,1/2+y,-z
-x,y,z
x,1/2-y,z
1/2+x,1/2+y,1/2+z
1/2-x,-y,1/2+z
1/2+x,1/2-y,1/2-z
1/2-x,y,1/2-z
1/2-x,1/2-y,1/2-z
1/2+x,y,1/2-z
1/2-x,1/2+y,1/2+z
1/2+x,-y,1/2+z
loop_
_atom_site_type_symbol
_atom_site_label
_atom_site_fract_x
_atom_site_fract_y
_atom_site_fract_z
Si Si1 0.063137 0.074207 0.440071
Si Si2 0.063931 0.419468 0.169592
Si Si3 0.774673 0.424848 0.874969
Si Si4 0.656279 0.922678 0.264021
Si Si5 0.837884 0.573766 0.642888
Si Si6 0.871267 0.579238 0.942601
O O1 0.066425 0.250000 0.449396
O O2 0.105334 0.023308 0.389496
O O3 0.000000 0.025369 0.422836
O O4 0.081450 0.000000 0.500000
O O5 0.077637 0.250000 0.190326
O O6 0.097818 0.539902 0.206091
O O7 0.078526 0.435790 0.102541
O O8 0.000000 0.458758 0.178867
O O9 0.773788 0.250000 0.887638
O O10 0.793685 0.456550 0.808922
O O11 0.714058 0.492605 0.887080
O O12 0.815812 0.500852 0.919753
O O13 0.657193 0.750000 0.244793
O O14 0.661258 0.027257 0.209141
O O15 0.829276 0.750000 0.638723
O O16 0.856314 0.750000 0.955695
O O17 0.892666 0.500000 0.000000
#
# Coordination Sequence:
#
# PCOD8300092 Si02
#       6
#    16  16  16  16  16  16
#     4   9  20  39  59  79 105 136 170 211 259 309
#     4   9  19  36  56  78 107 144 183 224 272 323
#     4  10  21  37  55  77 109 144 179 224 271 315
#     4  10  21  36  54  79 110 143 180 223 269 315
#     4  11  22  35  56  84 110 140 178 217 263 324
#     4  10  20  35  55  79 108 143 183 225 271 323
#
# _framework density 19.274629999999998
#
# number of rings (size 3 to 8) (size 9 to 14) (size 15 to 20)
#    0.000    2.167    0.000    2.500    0.000    8.000 
#    0.000    3.333    0.000    0.000    0.000    0.000 
#    0.000    0.000    0.000    0.000    0.000    0.000 
#
# Total GULP energy -595299.806953 kJ/mol
# GULP energy per Si atom -12402.079312 kJ/mol
# Density = 1.923076 g / cm^3
# Si number density = 19.274630 Si / 1000 Ang^3
#
#
#
# Elastic Constant Matrix: (Units=GPa)
#
#
# Indices 1 2 3 4 5 6 
#
# 1 85.4530 27.4346 1.3901 0.0000 0.0000 0.0000
# 2 27.4346 75.8088 18.1353 0.0000 0.0000 0.0000
# 3 1.3901 18.1353 33.8426 0.0000 0.0000 0.0000
# 4 0.0000 0.0000 0.0000 37.5159 0.0000 0.0000
# 5 0.0000 0.0000 0.0000 0.0000 20.1148 0.0000
# 6 0.0000 0.0000 0.0000 0.0000 0.0000 28.5816
#
#
#
# Elastic Compliance Matrix: (Units=1/GPa)
#
#
# Indices 1 2 3 4 5 6 
#
# 1 0.013402 -0.005412 0.002350 0.000000 0.000000 0.000000
# 2 -0.005412 0.017316 -0.009057 0.000000 0.000000 0.000000
# 3 0.002350 -0.009057 0.034305 0.000000 0.000000 0.000000
# 4 0.000000 0.000000 0.000000 0.026655 0.000000 0.000000
# 5 0.000000 0.000000 0.000000 0.000000 0.049715 0.000000
# 6 0.000000 0.000000 0.000000 0.000000 0.000000 0.034987
#
#
# Mechanical properties :
#
#
# Convention : Reuss Voigt Hill
#
# Bulk Modulus (GPa) = 24.51903 32.11382 28.31643
# Shear Modulus (GPa) = 23.34108 27.11877 25.22993
#
# Velocity S-wave (km/s) = 3.48368 3.75503 3.62189
# Velocity P-wave (km/s) = 5.37865 5.95799 5.67572
#
# Compressibility (1/GPa) = 0.04078464
#
# Stress axis : x y z
#
# Youngs Moduli (GPa) = 74.61770 57.74895 29.14989
#
# Poissons Ratio (x) = 0.31254 -0.06849
# Poissons Ratio (y) = 0.40384 0.26401
# Poissons Ratio (z) = -0.17533 0.52303
#
# Static dielectric constant tensor:
#      x y z
#    x 3.631990 0.000000 0.000000 
#    y 0.000000 3.552740 0.000000 
#    z 0.000000 0.000000 3.657430 
# 
# 
# High freq. dielectric constant tensor:
#      x y z
#    x 1.753180 0.000000 0.000000 
#    y 0.000000 1.756750 0.000000 
#    z 0.000000 0.000000 1.743920 
# 
# From -- ./inp_files/55098.got.cif
#   From: 2010.03.12/outbox.cif.g09.slc.cpg/sg74_28_cif.got.tgz:55098.got - 2010.04.16 15:46:19.
