data_PCOD8300153
_publ_section_title
;
Structure prediction by ZEFSAII (Michael W. Deem and Ramdas Pophale) SiO2 
 PCOD8300153
Probable space group: I M M A
;
_chemical_formula_sum "Si O2"
_cell_formula_units_Z 104
_cell_length_a 19.221851
_cell_length_b 9.068903
_cell_length_c 28.496135
_cell_angle_alpha 90.000000
_cell_angle_beta 90.000000
_cell_angle_gamma 90.000000
_cell_volume 4967.477662
_symmetry_space_group_name_H-M "I M M A"
_symmetry_group_IT_number 74
_symmetry_cell_setting 'orthorhombic'
loop_
_space_group_symop_operation_xyz
x,y,z
-x,1/2-y,z
x,-y,-z
-x,1/2+y,-z
-x,-y,-z
x,1/2+y,-z
-x,y,z
x,1/2-y,z
1/2+x,1/2+y,1/2+z
1/2-x,-y,1/2+z
1/2+x,1/2-y,1/2-z
1/2-x,y,1/2-z
1/2-x,1/2-y,1/2-z
1/2+x,y,1/2-z
1/2-x,1/2+y,1/2+z
1/2+x,-y,1/2+z
loop_
_atom_site_type_symbol
_atom_site_label
_atom_site_fract_x
_atom_site_fract_y
_atom_site_fract_z
Si Si1 0.500000 0.076531 0.450412
Si Si2 0.818106 0.084824 0.276460
Si Si3 0.606670 0.926173 0.047840
Si Si4 0.421031 0.413572 0.306607
Si Si5 0.077872 0.076764 0.355846
Si Si6 0.236953 0.583926 0.043021
Si Si7 0.385473 0.917637 0.392808
O O1 0.500000 0.250000 0.457951
O O2 0.500000 0.000000 0.500000
O O3 0.432922 0.028662 0.421619
O O4 0.792951 0.250000 0.289193
O O5 0.750000 0.007450 0.250000
O O6 0.883073 0.086057 0.242321
O O7 0.856456 0.015872 0.323228
O O8 0.595145 0.750000 0.045917
O O9 0.686579 0.976951 0.052357
O O10 0.572811 0.990956 0.094727
O O11 0.575646 0.000000 0.000000
O O12 0.500000 0.462180 0.298325
O O13 0.417367 0.250000 0.329486
O O14 0.384193 0.534312 0.339055
O O15 0.090714 0.250000 0.364726
O O16 0.000000 0.054603 0.332998
O O17 0.240851 0.750000 0.025860
O O18 0.193377 0.565497 0.090288
O O19 0.199882 0.500000 0.000000
O O20 0.412498 0.750000 0.398295
#
# Coordination Sequence:
#
# PCOD8300153 Si02
#       7
#     8  16  16  16  16  16  16
#     4  12  24  38  54  78 112 152 200 250 297 352
#     4   9  19  36  60  90 119 154 202 250 297 353
#     4  10  21  39  62  90 123 158 199 247 300 363
#     4  10  20  35  56  83 115 151 194 244 295 352
#     4  10  21  38  61  90 125 163 201 247 302 359
#     4   9  20  36  54  78 109 147 190 240 297 352
#     4  11  22  36  54  79 112 151 194 243 299 357
#
# _framework density 20.936178000000002
#
# number of rings (size 3 to 8) (size 9 to 14) (size 15 to 20)
#    0.000    2.000    0.769    2.538    2.154    5.538 
#    0.000    0.769    0.000    2.769    0.000    0.000 
#    0.000    0.000    0.000    0.000    0.000    0.000 
#
# Total GULP energy -644210.197337 kJ/mol
# GULP energy per Si atom -12388.657641 kJ/mol
# Density = 2.088853 g / cm^3
# Si number density = 20.936178 Si / 1000 Ang^3
#
#
#
# Elastic Constant Matrix: (Units=GPa)
#
#
# Indices 1 2 3 4 5 6 
#
# 1 97.5233 25.1821 40.4437 0.0000 0.0000 0.0000
# 2 25.1821 74.6108 30.2795 0.0000 0.0000 0.0000
# 3 40.4437 30.2795 104.1532 0.0000 0.0000 0.0000
# 4 0.0000 0.0000 0.0000 25.9014 0.0000 0.0000
# 5 0.0000 0.0000 0.0000 0.0000 27.2346 0.0000
# 6 0.0000 0.0000 0.0000 0.0000 0.0000 16.4727
#
#
#
# Elastic Compliance Matrix: (Units=1/GPa)
#
#
# Indices 1 2 3 4 5 6 
#
# 1 0.012645 -0.002580 -0.004160 0.000000 0.000000 0.000000
# 2 -0.002580 0.015722 -0.003569 0.000000 0.000000 0.000000
# 3 -0.004160 -0.003569 0.012254 0.000000 0.000000 0.000000
# 4 0.000000 0.000000 0.000000 0.038608 0.000000 0.000000
# 5 0.000000 0.000000 0.000000 0.000000 0.036718 0.000000
# 6 0.000000 0.000000 0.000000 0.000000 0.000000 0.060706
#
#
# Mechanical properties :
#
#
# Convention : Reuss Voigt Hill
#
# Bulk Modulus (GPa) = 49.99068 52.01087 51.00077
# Shear Modulus (GPa) = 24.51703 25.94722 25.23212
#
# Velocity S-wave (km/s) = 3.42575 3.52426 3.47535
# Velocity P-wave (km/s) = 6.29104 6.43871 6.36531
#
# Compressibility (1/GPa) = 0.02000373
#
# Stress axis : x y z
#
# Youngs Moduli (GPa) = 79.08012 63.60539 81.60355
#
# Poissons Ratio (x) = 0.16407 0.33950
# Poissons Ratio (y) = 0.20399 0.29125
# Poissons Ratio (z) = 0.32901 0.22701
#
# Static dielectric constant tensor:
#      x y z
#    x 3.924690 0.000000 0.000000 
#    y 0.000000 3.691250 0.000000 
#    z 0.000000 0.000000 3.881020 
# 
# 
# High freq. dielectric constant tensor:
#      x y z
#    x 1.831080 0.000000 0.000000 
#    y 0.000000 1.792750 0.000000 
#    z 0.000000 0.000000 1.819650 
# 
# From -- ./inp_files/64501.got.cif
#   From: 2010.03.12/outbox.cif.g09.slc.cpg/sg74_33_cif.got.tgz:64501.got - 2010.04.16 15:46:19.
