data_PCOD8300168
_publ_section_title
;
Structure prediction by ZEFSAII (Michael W. Deem and Ramdas Pophale) SiO2 
 PCOD8300168
Probable space group: I M M A
;
_chemical_formula_sum "Si O2"
_cell_formula_units_Z 96
_cell_length_a 26.700622
_cell_length_b 9.042237
_cell_length_c 20.301717
_cell_angle_alpha 90.000000
_cell_angle_beta 90.000000
_cell_angle_gamma 90.000000
_cell_volume 4901.511590
_symmetry_space_group_name_H-M "I M M A"
_symmetry_group_IT_number 74
_symmetry_cell_setting 'orthorhombic'
loop_
_space_group_symop_operation_xyz
x,y,z
-x,1/2-y,z
x,-y,-z
-x,1/2+y,-z
-x,-y,-z
x,1/2+y,-z
-x,y,z
x,1/2-y,z
1/2+x,1/2+y,1/2+z
1/2-x,-y,1/2+z
1/2+x,1/2-y,1/2-z
1/2-x,y,1/2-z
1/2-x,1/2-y,1/2-z
1/2+x,y,1/2-z
1/2-x,1/2+y,1/2+z
1/2+x,-y,1/2+z
loop_
_atom_site_type_symbol
_atom_site_label
_atom_site_fract_x
_atom_site_fract_y
_atom_site_fract_z
Si Si1 0.283534 0.919753 0.810440
Si Si2 0.558002 0.077521 0.932427
Si Si3 0.375551 0.576891 0.433628
Si Si4 0.442478 0.920024 0.313250
Si Si5 0.398724 0.079900 0.191003
Si Si6 0.239440 0.923597 0.066903
O O1 0.270391 0.750000 0.827341
O O2 0.250000 0.977729 0.750000
O O3 0.340930 0.938370 0.789127
O O4 0.273220 0.019014 0.873799
O O5 0.500000 0.047668 0.915934
O O6 0.569678 0.250000 0.938871
O O7 0.591620 0.009658 0.875362
O O8 0.573845 0.000000 0.000000
O O9 0.394822 0.500000 0.500000
O O10 0.382584 0.750000 0.443764
O O11 0.408815 0.518947 0.373044
O O12 0.318176 0.534011 0.418818
O O13 0.500000 0.936411 0.334319
O O14 0.428908 0.750000 0.297083
O O15 0.432776 0.016528 0.248956
O O16 0.413307 0.250000 0.179352
O O17 0.247054 0.750000 0.059169
O O18 0.258178 0.000000 0.000000
#
# Coordination Sequence:
#
# PCOD8300168 Si02
#       6
#    16  16  16  16  16  16
#     4  10  22  39  57  79 109 143 180 225 274 321
#     4  10  21  38  60  84 111 144 180 220 267 319
#     4   9  19  35  55  81 111 143 181 223 268 319
#     4  10  21  37  56  79 110 146 182 223 270 319
#     4  11  23  37  56  82 110 142 181 225 271 321
#     4  10  20  35  57  82 109 143 181 222 268 320
#
# _framework density 19.585794
#
# number of rings (size 3 to 8) (size 9 to 14) (size 15 to 20)
#    0.000    2.000    0.000    3.000    0.000    7.333 
#    0.000    0.000    0.000    0.000    0.000    0.000 
#    0.000    0.000    0.000    0.000    0.000    0.000 
#
# Total GULP energy -595512.601024 kJ/mol
# GULP energy per Si atom -12406.512521 kJ/mol
# Density = 1.954122 g / cm^3
# Si number density = 19.585794 Si / 1000 Ang^3
#
#
#
# Elastic Constant Matrix: (Units=GPa)
#
#
# Indices 1 2 3 4 5 6 
#
# 1 49.9097 21.7999 21.0291 0.0000 0.0000 0.0000
# 2 21.7999 79.9693 41.7119 0.0000 0.0000 0.0000
# 3 21.0291 41.7119 107.0013 0.0000 0.0000 0.0000
# 4 0.0000 0.0000 0.0000 40.8370 0.0000 0.0000
# 5 0.0000 0.0000 0.0000 0.0000 38.7542 0.0000
# 6 0.0000 0.0000 0.0000 0.0000 0.0000 28.6514
#
#
#
# Elastic Compliance Matrix: (Units=1/GPa)
#
#
# Indices 1 2 3 4 5 6 
#
# 1 0.023325 -0.004980 -0.002643 0.000000 0.000000 0.000000
# 2 -0.004980 0.016760 -0.005555 0.000000 0.000000 0.000000
# 3 -0.002643 -0.005555 0.012030 0.000000 0.000000 0.000000
# 4 0.000000 0.000000 0.000000 0.024488 0.000000 0.000000
# 5 0.000000 0.000000 0.000000 0.000000 0.025804 0.000000
# 6 0.000000 0.000000 0.000000 0.000000 0.000000 0.034902
#
#
# Mechanical properties :
#
#
# Convention : Reuss Voigt Hill
#
# Bulk Modulus (GPa) = 38.81952 45.10688 41.96320
# Shear Modulus (GPa) = 29.02759 31.80448 30.41604
#
# Velocity S-wave (km/s) = 3.85395 4.03408 3.94504
# Velocity P-wave (km/s) = 6.29819 6.69170 6.49792
#
# Compressibility (1/GPa) = 0.02576024
#
# Stress axis : x y z
#
# Youngs Moduli (GPa) = 42.87264 59.66715 83.12281
#
# Poissons Ratio (x) = 0.29714 0.21967
# Poissons Ratio (y) = 0.21351 0.46172
# Poissons Ratio (z) = 0.11330 0.33143
#
# Static dielectric constant tensor:
#      x y z
#    x 3.529390 0.000000 0.000000 
#    y 0.000000 3.571120 0.000000 
#    z 0.000000 0.000000 3.639180 
# 
# 
# High freq. dielectric constant tensor:
#      x y z
#    x 1.761300 0.000000 0.000000 
#    y 0.000000 1.765390 0.000000 
#    z 0.000000 0.000000 1.770520 
# 
# From -- ./inp_files/49045.got.cif
#   From: 2010.03.12/outbox.cif.g09.slc.cpg/sg74_25_cif.got.tgz:49045.got - 2010.04.16 15:46:19.
