data_PCOD8300090
_publ_section_title
;
Structure prediction by ZEFSAII (Michael W. Deem and Ramdas Pophale) SiO2 
 PCOD8300090
Probable space group: I M M A
;
_chemical_formula_sum "Si O2"
_cell_formula_units_Z 104
_cell_length_a 9.190981
_cell_length_b 20.822105
_cell_length_c 27.967541
_cell_angle_alpha 90.000000
_cell_angle_beta 90.000000
_cell_angle_gamma 90.000000
_cell_volume 5352.304141
_symmetry_space_group_name_H-M "I M M A"
_symmetry_group_IT_number 74
_symmetry_cell_setting 'orthorhombic'
loop_
_space_group_symop_operation_xyz
x,y,z
-x,1/2-y,z
x,-y,-z
-x,1/2+y,-z
-x,-y,-z
x,1/2+y,-z
-x,y,z
x,1/2-y,z
1/2+x,1/2+y,1/2+z
1/2-x,-y,1/2+z
1/2+x,1/2-y,1/2-z
1/2-x,y,1/2-z
1/2-x,1/2-y,1/2-z
1/2+x,y,1/2-z
1/2-x,1/2+y,1/2+z
1/2+x,-y,1/2+z
loop_
_atom_site_type_symbol
_atom_site_label
_atom_site_fract_x
_atom_site_fract_y
_atom_site_fract_z
Si Si1 0.832698 0.936632 0.701359
Si Si2 0.834954 0.322424 0.364153
Si Si3 0.828659 0.250000 0.698672
Si Si4 0.330653 0.395981 0.443829
Si Si5 0.833836 0.642375 0.376855
Si Si6 0.664944 0.820754 0.017539
Si Si7 0.670655 0.988043 0.379388
O O1 0.750000 0.945992 0.750000
O O2 0.814658 0.863531 0.683908
O O3 0.000000 0.956029 0.708191
O O4 0.761471 0.984352 0.664056
O O5 0.795791 0.250000 0.350217
O O6 0.727208 0.345938 0.404968
O O7 0.000000 0.329126 0.383453
O O8 0.750000 0.250000 0.750000
O O9 0.785082 0.313246 0.667961
O O10 0.000000 0.250000 0.708117
O O11 0.500000 0.385106 0.449736
O O12 0.259080 0.378495 0.494714
O O13 0.296613 0.469231 0.427094
O O14 0.821551 0.682642 0.425363
O O15 0.723110 0.584254 0.385133
O O16 0.000000 0.618222 0.369186
O O17 0.500000 0.834473 0.002115
O O18 0.713293 0.750000 0.998488
O O19 0.500000 0.990051 0.367480
#
# Coordination Sequence:
#
# PCOD8300090 Si02
#       7
#    16  16   8  16  16  16  16
#     4  10  20  35  55  78 106 142 185 232 283 336
#     4   9  18  33  52  75 106 145 189 233 276 331
#     4  10  22  42  66  92 120 148 184 234 289 348
#     4  10  21  35  52  80 116 152 189 234 283 330
#     4  10  21  40  63  86 114 147 185 230 282 338
#     4  10  20  36  59  84 113 151 192 233 279 337
#     4  10  22  39  57  80 114 151 189 233 283 340
#
# _framework density 19.430883000000001
#
# number of rings (size 3 to 8) (size 9 to 14) (size 15 to 20)
#    0.000    2.154    0.769    1.846    0.000    7.692 
#    0.000    4.615    0.000    0.000    0.000    0.000 
#    0.000    0.000    0.000    0.000    0.000    0.000 
#
# Total GULP energy -644681.276923 kJ/mol
# GULP energy per Si atom -12397.716864 kJ/mol
# Density = 1.938666 g / cm^3
# Si number density = 19.430883 Si / 1000 Ang^3
#
#
#
# Elastic Constant Matrix: (Units=GPa)
#
#
# Indices 1 2 3 4 5 6 
#
# 1 100.6717 54.8339 51.7422 0.0000 0.0000 0.0000
# 2 54.8339 115.2729 37.0811 0.0000 0.0000 0.0000
# 3 51.7422 37.0811 105.8861 0.0000 0.0000 0.0000
# 4 0.0000 0.0000 0.0000 25.6902 0.0000 0.0000
# 5 0.0000 0.0000 0.0000 0.0000 35.3920 0.0000
# 6 0.0000 0.0000 0.0000 0.0000 0.0000 28.1182
#
#
#
# Elastic Compliance Matrix: (Units=1/GPa)
#
#
# Indices 1 2 3 4 5 6 
#
# 1 0.016075 -0.005770 -0.005835 0.000000 0.000000 0.000000
# 2 -0.005770 0.011847 -0.001330 0.000000 0.000000 0.000000
# 3 -0.005835 -0.001330 0.012761 0.000000 0.000000 0.000000
# 4 0.000000 0.000000 0.000000 0.038925 0.000000 0.000000
# 5 0.000000 0.000000 0.000000 0.000000 0.028255 0.000000
# 6 0.000000 0.000000 0.000000 0.000000 0.000000 0.035564
#
#
# Mechanical properties :
#
#
# Convention : Reuss Voigt Hill
#
# Bulk Modulus (GPa) = 67.49735 67.68280 67.59008
# Shear Modulus (GPa) = 28.69718 29.71830 29.20774
#
# Velocity S-wave (km/s) = 3.84720 3.91504 3.88127
# Velocity P-wave (km/s) = 7.38560 7.43942 7.41256
#
# Compressibility (1/GPa) = 0.01481540
#
# Stress axis : x y z
#
# Youngs Moduli (GPa) = 62.20968 84.40741 78.36511
#
# Poissons Ratio (x) = 0.48700 0.45722
# Poissons Ratio (y) = 0.35893 0.10419
# Poissons Ratio (z) = 0.36296 0.11222
#
# Static dielectric constant tensor:
#      x y z
#    x 3.618670 0.000000 0.000000 
#    y 0.000000 3.594360 0.000000 
#    z 0.000000 0.000000 3.350590 
# 
# 
# High freq. dielectric constant tensor:
#      x y z
#    x 1.756320 0.000000 0.000000 
#    y 0.000000 1.758620 0.000000 
#    z 0.000000 0.000000 1.752300 
# 
# From -- ./inp_files/64425.got.cif
#   From: 2010.03.12/outbox.cif.g09.slc.cpg/sg74_33_cif.got.tgz:64425.got - 2010.04.16 15:46:19.
