data_PCOD8300984
_publ_section_title
;
Structure prediction by ZEFSAII (Michael W. Deem and Ramdas Pophale) SiO2 
 PCOD8300984
Probable space group: I M M A
;
_chemical_formula_sum "Si O2"
_cell_formula_units_Z 80
_cell_length_a 25.160929
_cell_length_b 8.898176
_cell_length_c 19.931325
_cell_angle_alpha 90.000000
_cell_angle_beta 90.000000
_cell_angle_gamma 90.000000
_cell_volume 4462.352095
_symmetry_space_group_name_H-M "I M M A"
_symmetry_group_IT_number 74
_symmetry_cell_setting 'orthorhombic'
loop_
_space_group_symop_operation_xyz
x,y,z
-x,1/2-y,z
x,-y,-z
-x,1/2+y,-z
-x,-y,-z
x,1/2+y,-z
-x,y,z
x,1/2-y,z
1/2+x,1/2+y,1/2+z
1/2-x,-y,1/2+z
1/2+x,1/2-y,1/2-z
1/2-x,y,1/2-z
1/2-x,1/2-y,1/2-z
1/2+x,y,1/2-z
1/2-x,1/2+y,1/2+z
1/2+x,-y,1/2+z
loop_
_atom_site_type_symbol
_atom_site_label
_atom_site_fract_x
_atom_site_fract_y
_atom_site_fract_z
Si Si1 0.560331 0.573340 0.432142
Si Si2 0.755337 0.915894 0.329523
Si Si3 0.639250 0.427003 0.174744
Si Si4 0.139950 0.927699 0.181430
Si Si5 0.561751 0.425773 0.930365
O O1 0.582612 0.500000 0.500000
O O2 0.500000 0.521362 0.418725
O O3 0.565016 0.750000 0.440749
O O4 0.594725 0.517544 0.369387
O O5 0.769827 0.750000 0.357335
O O6 0.750000 0.909958 0.250000
O O7 0.696701 0.967130 0.354091
O O8 0.801805 0.028990 0.352219
O O9 0.632775 0.250000 0.170912
O O10 0.630996 0.482262 0.250341
O O11 0.594466 0.502899 0.129918
O O12 0.137029 0.750000 0.197531
O O13 0.500000 0.458874 0.916186
O O14 0.573729 0.250000 0.934567
O O15 0.579977 0.500000 0.000000
#
# Coordination Sequence:
#
# PCOD8300984 Si02
#       5
#    16  16  16  16  16
#     4   9  18  33  52  73  99 131 166 205 252 303
#     4   8  15  30  50  70  98 135 171 209 253 299
#     4  11  21  32  51  79 107 133 166 209 253 301
#     4   9  18  33  52  74 101 136 175 213 254 299
#     4  10  21  38  58  77 101 134 169 206 251 303
#
# _framework density 17.927765000000001
#
# number of rings (size 3 to 8) (size 9 to 14) (size 15 to 20)
#    0.000    2.600    0.000    3.600    0.000    6.400 
#    0.000    3.000    0.000    2.400    0.000    0.000 
#    0.000    0.000    0.000    0.000    0.000    0.000 
#
# Total GULP energy -495905.412066 kJ/mol
# GULP energy per Si atom -12397.635302 kJ/mol
# Density = 1.788696 g / cm^3
# Si number density = 17.927765 Si / 1000 Ang^3
#
#
#
# Elastic Constant Matrix: (Units=GPa)
#
#
# Indices 1 2 3 4 5 6 
#
# 1 109.8428 52.5150 65.3399 0.0000 0.0000 0.0000
# 2 52.5150 92.9580 48.4125 0.0000 0.0000 0.0000
# 3 65.3399 48.4125 85.8976 0.0000 0.0000 0.0000
# 4 0.0000 0.0000 0.0000 29.9616 0.0000 0.0000
# 5 0.0000 0.0000 0.0000 0.0000 4.6092 0.0000
# 6 0.0000 0.0000 0.0000 0.0000 0.0000 23.0899
#
#
#
# Elastic Compliance Matrix: (Units=1/GPa)
#
#
# Indices 1 2 3 4 5 6 
#
# 1 0.017733 -0.004236 -0.011101 0.000000 0.000000 0.000000
# 2 -0.004236 0.016239 -0.005930 0.000000 0.000000 0.000000
# 3 -0.011101 -0.005930 0.023428 0.000000 0.000000 0.000000
# 4 0.000000 0.000000 0.000000 0.033376 0.000000 0.000000
# 5 0.000000 0.000000 0.000000 0.000000 0.216958 0.000000
# 6 0.000000 0.000000 0.000000 0.000000 0.000000 0.043309
#
#
# Mechanical properties :
#
#
# Convention : Reuss Voigt Hill
#
# Bulk Modulus (GPa) = 67.27151 69.02594 68.14872
# Shear Modulus (GPa) = 12.54598 19.69419 16.12008
#
# Velocity S-wave (km/s) = 2.64826 3.31800 3.00187
# Velocity P-wave (km/s) = 6.85245 7.29827 7.07887
#
# Compressibility (1/GPa) = 0.01486513
#
# Stress axis : x y z
#
# Youngs Moduli (GPa) = 56.39243 61.57955 42.68324
#
# Poissons Ratio (x) = 0.26087 0.47384
# Poissons Ratio (y) = 0.23890 0.25311
# Poissons Ratio (z) = 0.62603 0.36517
#
# Static dielectric constant tensor:
#      x y z
#    x 3.822040 0.000000 0.000000 
#    y 0.000000 3.273950 0.000000 
#    z 0.000000 0.000000 3.137930 
# 
# 
# High freq. dielectric constant tensor:
#      x y z
#    x 1.705720 0.000000 0.000000 
#    y 0.000000 1.690940 0.000000 
#    z 0.000000 0.000000 1.670120 
# 
# From -- ./inp_files/46483.got.cif
#   From: 2010.03.12/outbox.cif.g09.slc.cpg/sg74_24_cif.got.tgz:46483.got - 2010.04.16 15:46:19.
