data_PCOD8300201
_publ_section_title
;
Structure prediction by ZEFSAII (Michael W. Deem and Ramdas Pophale) SiO2 
 PCOD8300201
Probable space group: I M M A
;
_chemical_formula_sum "Si O2"
_cell_formula_units_Z 64
_cell_length_a 13.402920
_cell_length_b 8.578889
_cell_length_c 26.601900
_cell_angle_alpha 90.000000
_cell_angle_beta 90.000000
_cell_angle_gamma 90.000000
_cell_volume 3058.744001
_symmetry_space_group_name_H-M "I M M A"
_symmetry_group_IT_number 74
_symmetry_cell_setting 'orthorhombic'
loop_
_space_group_symop_operation_xyz
x,y,z
-x,1/2-y,z
x,-y,-z
-x,1/2+y,-z
-x,-y,-z
x,1/2+y,-z
-x,y,z
x,1/2-y,z
1/2+x,1/2+y,1/2+z
1/2-x,-y,1/2+z
1/2+x,1/2-y,1/2-z
1/2-x,y,1/2-z
1/2-x,1/2-y,1/2-z
1/2+x,y,1/2-z
1/2-x,1/2+y,1/2+z
1/2+x,-y,1/2+z
loop_
_atom_site_type_symbol
_atom_site_label
_atom_site_fract_x
_atom_site_fract_y
_atom_site_fract_z
Si Si1 0.112090 0.931794 0.379407
Si Si2 0.500000 0.070338 0.586229
Si Si3 0.346573 0.928885 0.774319
Si Si4 0.212325 0.433808 0.053244
Si Si5 0.000000 0.920793 0.811650
O O1 0.131141 0.750000 0.387370
O O2 0.000000 0.976809 0.399343
O O3 0.113157 0.970121 0.320272
O O4 0.201952 0.021525 0.406766
O O5 0.500000 0.250000 0.570715
O O6 0.601580 0.995640 0.565161
O O7 0.500000 0.053131 0.646171
O O8 0.334425 0.750000 0.793076
O O9 0.250000 0.004812 0.750000
O O10 0.408660 0.939440 0.724343
O O11 0.205729 0.250000 0.051113
O O12 0.248295 0.500000 0.000000
O O13 0.000000 0.750000 0.838434
#
# Coordination Sequence:
#
# PCOD8300201 Si02
#       5
#    16   8  16  16   8
#     4  11  24  42  65  96 134 174 220 273 329 390
#     4  12  25  43  68 100 137 171 215 272 333 396
#     4  10  20  35  58  88 124 168 215 263 316 381
#     4  12  26  46  71  97 129 170 220 274 334 396
#     4  10  20  35  57  90 129 169 213 254 311 382
#
# _framework density 20.923622000000002
#
# number of rings (size 3 to 8) (size 9 to 14) (size 15 to 20)
#    0.000    1.000    1.250    6.000    0.000    5.500 
#    0.000    0.000    0.000    0.000    0.000    0.000 
#    0.000    0.000    0.000    0.000    0.000    0.000 
#
# Total GULP energy -396539.993806 kJ/mol
# GULP energy per Si atom -12391.874806 kJ/mol
# Density = 2.087600 g / cm^3
# Si number density = 20.923622 Si / 1000 Ang^3
#
#
#
# Elastic Constant Matrix: (Units=GPa)
#
#
# Indices 1 2 3 4 5 6 
#
# 1 148.0548 51.1950 25.8375 0.0000 0.0000 0.0000
# 2 51.1950 132.1663 33.6137 0.0000 0.0000 0.0000
# 3 25.8375 33.6137 89.9401 0.0000 0.0000 0.0000
# 4 0.0000 0.0000 0.0000 38.1460 0.0000 0.0000
# 5 0.0000 0.0000 0.0000 0.0000 55.7073 0.0000
# 6 0.0000 0.0000 0.0000 0.0000 0.0000 -2.9028
#
#
#
# Elastic Compliance Matrix: (Units=1/GPa)
#
#
# Indices 1 2 3 4 5 6 
#
# 1 0.007924 -0.002752 -0.001248 0.000000 0.000000 0.000000
# 2 -0.002752 0.009317 -0.002691 0.000000 0.000000 0.000000
# 3 -0.001248 -0.002691 0.012483 0.000000 0.000000 0.000000
# 4 0.000000 0.000000 0.000000 0.026215 0.000000 0.000000
# 5 0.000000 0.000000 0.000000 0.000000 0.017951 0.000000
# 6 0.000000 0.000000 0.000000 0.000000 0.000000 -0.344496
#
#
# Mechanical properties :
#
#
# Convention : Reuss Voigt Hill
#
# Bulk Modulus (GPa) = 61.19591 65.71706 63.45648
# Shear Modulus (GPa) = -19.85876 35.49109 7.81616
#
# Velocity S-wave (km/s) = -3.08410 4.12299 1.93486
# Velocity P-wave (km/s) = 4.07781 7.35810 5.94854
#
# Compressibility (1/GPa) = 0.01634096
#
# Stress axis : x y z
#
# Youngs Moduli (GPa) = 126.20590 107.33439 80.10994
#
# Poissons Ratio (x) = 0.29537 0.09996
# Poissons Ratio (y) = 0.34730 0.21561
# Poissons Ratio (z) = 0.15748 0.28888
#
# Static dielectric constant tensor:
#      x y z
#    x 4.023230 0.000000 0.000000 
#    y 0.000000 3.879790 0.000000 
#    z 0.000000 0.000000 3.792550 
# 
# 
# High freq. dielectric constant tensor:
#      x y z
#    x 1.846620 0.000000 0.000000 
#    y 0.000000 1.817180 0.000000 
#    z 0.000000 0.000000 1.821660 
# 
# From -- ./inp_files/66638.got.cif
#   From: 2010.03.12/outbox.cif.g09.slc.cpg/sg74_34_cif.got.tgz:66638.got - 2010.04.16 15:46:19.
