data_PCOD8300733
_publ_section_title
;
Structure prediction by ZEFSAII (Michael W. Deem and Ramdas Pophale) SiO2 
 PCOD8300733
Probable space group: I M M A
;
_chemical_formula_sum "Si O2"
_cell_formula_units_Z 96
_cell_length_a 17.977941
_cell_length_b 15.470071
_cell_length_c 16.023664
_cell_angle_alpha 90.000000
_cell_angle_beta 90.000000
_cell_angle_gamma 90.000000
_cell_volume 4456.501812
_symmetry_space_group_name_H-M "I M M A"
_symmetry_group_IT_number 74
_symmetry_cell_setting 'orthorhombic'
loop_
_space_group_symop_operation_xyz
x,y,z
-x,1/2-y,z
x,-y,-z
-x,1/2+y,-z
-x,-y,-z
x,1/2+y,-z
-x,y,z
x,1/2-y,z
1/2+x,1/2+y,1/2+z
1/2-x,-y,1/2+z
1/2+x,1/2-y,1/2-z
1/2-x,y,1/2-z
1/2-x,1/2-y,1/2-z
1/2+x,y,1/2-z
1/2-x,1/2+y,1/2+z
1/2+x,-y,1/2+z
loop_
_atom_site_type_symbol
_atom_site_label
_atom_site_fract_x
_atom_site_fract_y
_atom_site_fract_z
Si Si1 0.179942 0.015893 0.902680
Si Si2 0.335533 0.070913 0.838978
Si Si3 0.412894 0.348818 0.687785
Si Si4 0.913659 0.896607 0.670554
Si Si5 0.679445 0.656114 0.693799
Si Si6 0.585247 0.848155 0.011947
O O1 0.247316 0.060581 0.850941
O O2 0.111881 0.082145 0.883910
O O3 0.163792 0.918811 0.872300
O O4 0.195553 0.000000 0.000000
O O5 0.361884 0.141692 0.771266
O O6 0.366984 0.090160 0.930461
O O7 0.370014 0.982897 0.805417
O O8 0.500000 0.365428 0.709014
O O9 0.401926 0.250000 0.655775
O O10 0.891467 0.831938 0.744463
O O11 0.886147 0.858594 0.582437
O O12 0.000000 0.915241 0.669214
O O13 0.690483 0.750000 0.649177
O O14 0.750000 0.631544 0.750000
O O15 0.500000 0.877172 0.019317
O O16 0.596030 0.750000 0.040837
#
# Coordination Sequence:
#
# PCOD8300733 Si02
#       6
#    16  16  16  16  16  16
#     4  12  26  45  68  98 136 176 229 284 338 399
#     4  12  22  39  64  98 133 176 221 267 333 403
#     4  11  25  46  72 101 136 181 231 283 340 401
#     4  11  21  37  62  93 128 169 214 266 323 395
#     4  11  23  42  65  90 127 173 219 270 332 397
#     4  10  21  35  55  92 137 174 212 259 320 397
#
# _framework density 21.541558999999999
#
# number of rings (size 3 to 8) (size 9 to 14) (size 15 to 20)
#    0.000    0.833    3.333    4.500    0.000    6.667 
#    0.000    0.000    0.000    0.000    0.000    0.000 
#    0.000    0.000    0.000    0.000    0.000    0.000 
#
# Total GULP energy -595081.922243 kJ/mol
# GULP energy per Si atom -12397.540047 kJ/mol
# Density = 2.149253 g / cm^3
# Si number density = 21.541559 Si / 1000 Ang^3
#
#
#
# Elastic Constant Matrix: (Units=GPa)
#
#
# Indices 1 2 3 4 5 6 
#
# 1 77.4927 38.6690 26.9918 0.0000 0.0000 0.0000
# 2 38.6690 132.8413 35.8399 0.0000 0.0000 0.0000
# 3 26.9918 35.8399 85.4296 0.0000 0.0000 0.0000
# 4 0.0000 0.0000 0.0000 17.1876 0.0000 0.0000
# 5 0.0000 0.0000 0.0000 0.0000 30.2835 0.0000
# 6 0.0000 0.0000 0.0000 0.0000 0.0000 35.7725
#
#
#
# Elastic Compliance Matrix: (Units=1/GPa)
#
#
# Indices 1 2 3 4 5 6 
#
# 1 0.015970 -0.003707 -0.003491 0.000000 0.000000 0.000000
# 2 -0.003707 0.009349 -0.002751 0.000000 0.000000 0.000000
# 3 -0.003491 -0.002751 0.013962 0.000000 0.000000 0.000000
# 4 0.000000 0.000000 0.000000 0.058181 0.000000 0.000000
# 5 0.000000 0.000000 0.000000 0.000000 0.033021 0.000000
# 6 0.000000 0.000000 0.000000 0.000000 0.000000 0.027954
#
#
# Mechanical properties :
#
#
# Convention : Reuss Voigt Hill
#
# Bulk Modulus (GPa) = 51.58756 55.41835 53.50295
# Shear Modulus (GPa) = 27.05666 29.59959 28.32813
#
# Velocity S-wave (km/s) = 3.54788 3.71086 3.63029
# Velocity P-wave (km/s) = 6.38617 6.64400 6.51636
#
# Compressibility (1/GPa) = 0.01938452
#
# Stress axis : x y z
#
# Youngs Moduli (GPa) = 62.61711 106.96284 71.62042
#
# Poissons Ratio (x) = 0.39651 0.25000
# Poissons Ratio (y) = 0.23212 0.19702
# Poissons Ratio (z) = 0.21857 0.29425
#
# Static dielectric constant tensor:
#      x y z
#    x 3.913090 0.000000 0.000000 
#    y 0.000000 4.144310 0.000000 
#    z 0.000000 0.000000 3.762620 
# 
# 
# High freq. dielectric constant tensor:
#      x y z
#    x 1.839860 0.000000 0.000000 
#    y 0.000000 1.859030 0.000000 
#    z 0.000000 0.000000 1.833010 
# 
# From -- ./inp_files/35287.got.cif
#   From: 2010.03.12/outbox.cif.g09.slc.cpg/sg74_18_cif.got.tgz:35287.got - 2010.04.16 15:46:19.
