data_PCOD8300807
_publ_section_title
;
Structure prediction by ZEFSAII (Michael W. Deem and Ramdas Pophale) SiO2 
 PCOD8300807
Probable space group: I M M A
;
_chemical_formula_sum "Si O2"
_cell_formula_units_Z 88
_cell_length_a 18.161847
_cell_length_b 8.709277
_cell_length_c 27.142077
_cell_angle_alpha 90.000000
_cell_angle_beta 90.000000
_cell_angle_gamma 90.000000
_cell_volume 4293.240272
_symmetry_space_group_name_H-M "I M M A"
_symmetry_group_IT_number 74
_symmetry_cell_setting 'orthorhombic'
loop_
_space_group_symop_operation_xyz
x,y,z
-x,1/2-y,z
x,-y,-z
-x,1/2+y,-z
-x,-y,-z
x,1/2+y,-z
-x,y,z
x,1/2-y,z
1/2+x,1/2+y,1/2+z
1/2-x,-y,1/2+z
1/2+x,1/2-y,1/2-z
1/2-x,y,1/2-z
1/2-x,1/2-y,1/2-z
1/2+x,y,1/2-z
1/2-x,1/2+y,1/2+z
1/2+x,-y,1/2+z
loop_
_atom_site_type_symbol
_atom_site_label
_atom_site_fract_x
_atom_site_fract_y
_atom_site_fract_z
Si Si1 0.500000 0.433636 0.943583
Si Si2 0.175614 0.930081 0.277768
Si Si3 0.580890 0.429596 0.411419
Si Si4 0.362752 0.568955 0.882581
Si Si5 0.085150 0.582648 0.187126
Si Si6 0.730933 0.069551 0.450731
O O1 0.500000 0.250000 0.947864
O O2 0.428804 0.485695 0.911921
O O3 0.500000 0.500000 0.000000
O O4 0.179690 0.750000 0.290431
O O5 0.250000 0.985525 0.250000
O O6 0.112875 0.976314 0.239337
O O7 0.150419 0.018961 0.326525
O O8 0.500000 0.503735 0.424433
O O9 0.575171 0.250000 0.419182
O O10 0.603859 0.461168 0.355171
O O11 0.647950 0.498970 0.443346
O O12 0.378654 0.750000 0.885064
O O13 0.285577 0.522327 0.907427
O O14 0.121032 0.750000 0.174386
O O15 0.000000 0.604218 0.192807
O O16 0.725815 0.250000 0.455584
O O17 0.764886 0.000000 0.500000
#
# Coordination Sequence:
#
# PCOD8300807 Si02
#       6
#     8  16  16  16  16  16
#     4  12  26  46  70  94 124 160 206 266 329 388
#     4  10  21  36  56  85 120 159 201 246 299 358
#     4   9  18  34  55  81 114 152 193 237 287 342
#     4  11  24  41  62  90 122 158 206 255 310 375
#     4   9  18  32  51  76 108 145 185 228 275 331
#     4  10  22  38  57  82 113 148 190 242 294 350
#
# _framework density 20.497337999999999
#
# number of rings (size 3 to 8) (size 9 to 14) (size 15 to 20)
#    0.000    2.000    0.000    3.000    1.273    5.091 
#    0.000    0.000    0.000    0.000    0.000    0.000 
#    0.000    0.000    0.000    0.000    0.000    0.000 
#
# Total GULP energy -545144.084507 kJ/mol
# GULP energy per Si atom -12389.638284 kJ/mol
# Density = 2.045069 g / cm^3
# Si number density = 20.497338 Si / 1000 Ang^3
#
#
#
# Elastic Constant Matrix: (Units=GPa)
#
#
# Indices 1 2 3 4 5 6 
#
# 1 93.1896 41.9766 45.7528 0.0000 0.0000 0.0000
# 2 41.9766 40.3461 19.4470 0.0000 0.0000 0.0000
# 3 45.7528 19.4470 102.1257 0.0000 0.0000 0.0000
# 4 0.0000 0.0000 0.0000 37.4303 0.0000 0.0000
# 5 0.0000 0.0000 0.0000 0.0000 47.6944 0.0000
# 6 0.0000 0.0000 0.0000 0.0000 0.0000 19.1203
#
#
#
# Elastic Compliance Matrix: (Units=1/GPa)
#
#
# Indices 1 2 3 4 5 6 
#
# 1 0.023532 -0.021362 -0.006475 0.000000 0.000000 0.000000
# 2 -0.021362 0.046683 0.000681 0.000000 0.000000 0.000000
# 3 -0.006475 0.000681 0.012563 0.000000 0.000000 0.000000
# 4 0.000000 0.000000 0.000000 0.026716 0.000000 0.000000
# 5 0.000000 0.000000 0.000000 0.000000 0.020967 0.000000
# 6 0.000000 0.000000 0.000000 0.000000 0.000000 0.052301
#
#
# Mechanical properties :
#
#
# Convention : Reuss Voigt Hill
#
# Bulk Modulus (GPa) = 35.12972 50.00158 42.56565
# Shear Modulus (GPa) = 20.27882 29.41465 24.84674
#
# Velocity S-wave (km/s) = 3.14879 3.79231 3.48543
# Velocity P-wave (km/s) = 5.51323 6.60474 6.08352
#
# Compressibility (1/GPa) = 0.02846593
#
# Stress axis : x y z
#
# Youngs Moduli (GPa) = 42.49498 21.42105 79.59964
#
# Poissons Ratio (x) = 0.45760 0.51538
# Poissons Ratio (y) = 0.90779 -0.05420
# Poissons Ratio (z) = 0.27514 -0.01459
#
# Static dielectric constant tensor:
#      x y z
#    x 4.208810 0.000000 0.000000 
#    y 0.000000 3.662790 0.000000 
#    z 0.000000 0.000000 2.822900 
# 
# 
# High freq. dielectric constant tensor:
#      x y z
#    x 1.818410 0.000000 0.000000 
#    y 0.000000 1.785620 0.000000 
#    z 0.000000 0.000000 1.807310 
# 
# From -- ./inp_files/72948.got.cif
#   From: 2010.03.12/outbox.cif.g09.slc.cpg/sg74_37_cif.got.tgz:72948.got - 2010.04.16 15:46:19.
