data_PCOD8300225
_publ_section_title
;
Structure prediction by ZEFSAII (Michael W. Deem and Ramdas Pophale) SiO2 
 PCOD8300225
Probable space group: I M M A
;
_chemical_formula_sum "Si O2"
_cell_formula_units_Z 64
_cell_length_a 26.317432
_cell_length_b 17.127797
_cell_length_c 7.536062
_cell_angle_alpha 90.000000
_cell_angle_beta 90.000000
_cell_angle_gamma 90.000000
_cell_volume 3396.952540
_symmetry_space_group_name_H-M "I M M A"
_symmetry_group_IT_number 74
_symmetry_cell_setting 'orthorhombic'
loop_
_space_group_symop_operation_xyz
x,y,z
-x,1/2-y,z
x,-y,-z
-x,1/2+y,-z
-x,-y,-z
x,1/2+y,-z
-x,y,z
x,1/2-y,z
1/2+x,1/2+y,1/2+z
1/2-x,-y,1/2+z
1/2+x,1/2-y,1/2-z
1/2-x,y,1/2-z
1/2-x,1/2-y,1/2-z
1/2+x,y,1/2-z
1/2-x,1/2+y,1/2+z
1/2+x,-y,1/2+z
loop_
_atom_site_type_symbol
_atom_site_label
_atom_site_fract_x
_atom_site_fract_y
_atom_site_fract_z
Si Si1 0.607103 0.561593 0.795003
Si Si2 0.305198 0.540848 0.317012
Si Si3 0.882964 0.160870 0.944868
Si Si4 0.442131 0.904891 0.147217
O O1 0.662712 0.519818 0.806040
O O2 0.602425 0.618348 0.627706
O O3 0.565505 0.492545 0.776210
O O4 0.594936 0.608552 0.976333
O O5 0.295897 0.500000 0.500000
O O6 0.250000 0.563495 0.250000
O O7 0.335326 0.621209 0.346869
O O8 0.869979 0.250000 0.989189
O O9 0.929290 0.155764 0.804559
O O10 0.500000 0.892308 0.087640
#
# Coordination Sequence:
#
# PCOD8300225 Si02
#       4
#    16  16  16  16
#     4   9  19  36  56  80 108 142 178 235 274 311
#     4   9  19  33  58  82 102 138 187 229 269 320
#     4  10  22  37  51  78 119 149 173 215 275 336
#     4  10  20  35  59  84 103 139 193 233 266 314
#
# _framework density 18.840418
#
# number of rings (size 3 to 8) (size 9 to 14) (size 15 to 20)
#    0.000    2.500    0.000    3.750    7.000    5.000 
#    0.000    0.000    0.000    3.000    0.000    0.000 
#    0.000    0.000    0.000    0.000    0.000    0.000 
#
# Total GULP energy -396566.662241 kJ/mol
# GULP energy per Si atom -12392.708195 kJ/mol
# Density = 1.879754 g / cm^3
# Si number density = 18.840418 Si / 1000 Ang^3
#
#
#
# Elastic Constant Matrix: (Units=GPa)
#
#
# Indices 1 2 3 4 5 6 
#
# 1 122.7062 30.7884 66.2906 0.0000 0.0000 0.0000
# 2 30.7884 83.0050 56.5742 0.0000 0.0000 0.0000
# 3 66.2906 56.5742 128.3413 0.0000 0.0000 0.0000
# 4 0.0000 0.0000 0.0000 92.6674 0.0000 0.0000
# 5 0.0000 0.0000 0.0000 0.0000 35.4743 0.0000
# 6 0.0000 0.0000 0.0000 0.0000 0.0000 10.0058
#
#
#
# Elastic Compliance Matrix: (Units=1/GPa)
#
#
# Indices 1 2 3 4 5 6 
#
# 1 0.011309 -0.000305 -0.005707 0.000000 0.000000 0.000000
# 2 -0.000305 0.017230 -0.007437 0.000000 0.000000 0.000000
# 3 -0.005707 -0.007437 0.014018 0.000000 0.000000 0.000000
# 4 0.000000 0.000000 0.000000 0.010791 0.000000 0.000000
# 5 0.000000 0.000000 0.000000 0.000000 0.028189 0.000000
# 6 0.000000 0.000000 0.000000 0.000000 0.000000 0.099942
#
#
# Mechanical properties :
#
#
# Convention : Reuss Voigt Hill
#
# Bulk Modulus (GPa) = 63.86529 71.26211 67.56370
# Shear Modulus (GPa) = 23.40843 39.65611 31.53227
#
# Velocity S-wave (km/s) = 3.52868 4.59283 4.09547
# Velocity P-wave (km/s) = 7.11152 8.12599 7.63562
#
# Compressibility (1/GPa) = 0.01565796
#
# Stress axis : x y z
#
# Youngs Moduli (GPa) = 88.42362 58.03875 71.33707
#
# Poissons Ratio (x) = 0.01771 0.40711
# Poissons Ratio (y) = 0.02698 0.53057
# Poissons Ratio (z) = 0.50462 0.43166
#
# Static dielectric constant tensor:
#      x y z
#    x 9.017520 0.000000 0.000000 
#    y 0.000000 3.088530 0.000000 
#    z 0.000000 0.000000 3.664860 
# 
# 
# High freq. dielectric constant tensor:
#      x y z
#    x 1.723640 0.000000 0.000000 
#    y 0.000000 1.698880 0.000000 
#    z 0.000000 0.000000 1.746700 
# 
# From -- ./inp_files/10582.got.cif
#   From: 2010.03.12/outbox.cif.g09.slc.cpg/sg74_6_cif.got.tgz:10582.got - 2010.04.16 15:46:19.
