data_PCOD8300334
_publ_section_title
;
Structure prediction by ZEFSAII (Michael W. Deem and Ramdas Pophale) SiO2 
 PCOD8300334
Probable space group: I M M A
;
_chemical_formula_sum "Si O2"
_cell_formula_units_Z 88
_cell_length_a 17.960071
_cell_length_b 16.497680
_cell_length_c 15.388320
_cell_angle_alpha 90.000000
_cell_angle_beta 90.000000
_cell_angle_gamma 90.000000
_cell_volume 4559.551585
_symmetry_space_group_name_H-M "I M M A"
_symmetry_group_IT_number 74
_symmetry_cell_setting 'orthorhombic'
loop_
_space_group_symop_operation_xyz
x,y,z
-x,1/2-y,z
x,-y,-z
-x,1/2+y,-z
-x,-y,-z
x,1/2+y,-z
-x,y,z
x,1/2-y,z
1/2+x,1/2+y,1/2+z
1/2-x,-y,1/2+z
1/2+x,1/2-y,1/2-z
1/2-x,y,1/2-z
1/2-x,1/2-y,1/2-z
1/2+x,y,1/2-z
1/2-x,1/2+y,1/2+z
1/2+x,-y,1/2+z
loop_
_atom_site_type_symbol
_atom_site_label
_atom_site_fract_x
_atom_site_fract_y
_atom_site_fract_z
Si Si1 0.414037 0.009072 0.166151
Si Si2 0.304679 0.250000 0.170309
Si Si3 0.184943 0.890335 0.541078
Si Si4 0.415688 0.337663 0.889685
Si Si5 0.412567 0.427102 0.353959
Si Si6 0.413782 0.750000 0.686439
Si Si7 0.186438 0.500000 0.000000
O O1 0.500000 0.029345 0.144238
O O2 0.362259 0.037386 0.086320
O O3 0.390109 0.050242 0.255843
O O4 0.400873 0.911996 0.176179
O O5 0.250000 0.250000 0.250000
O O6 0.288618 0.170249 0.115439
O O7 0.386033 0.250000 0.213710
O O8 0.135149 0.841446 0.474265
O O9 0.258607 0.922907 0.491585
O O10 0.500000 0.342421 0.923822
O O11 0.401060 0.250000 0.843577
O O12 0.500000 0.442465 0.371306
O O13 0.390990 0.331742 0.366588
O O14 0.366120 0.486113 0.416701
O O15 0.500000 0.750000 0.701803
#
# Coordination Sequence:
#
# PCOD8300334 Si02
#       7
#    16   8  16  16  16   8   8
#     4  10  20  37  60  86 115 151 194 243 298 359
#     4  12  24  36  54  86 126 155 192 241 299 364
#     4  12  22  35  56  86 123 157 192 236 302 361
#     4  10  20  36  58  84 117 155 196 242 287 350
#     4  10  22  41  65  88 115 153 202 255 304 360
#     4  10  20  38  66  96 117 146 196 256 313 360
#     4  12  25  38  57  84 118 166 202 238 293 360
#
# _framework density 19.300142999999998
#
# number of rings (size 3 to 8) (size 9 to 14) (size 15 to 20)
#    0.000    1.273    4.545    1.909    0.000    2.182 
#    0.000    0.000    4.000    1.091    0.000    0.000 
#    0.000    0.000    0.000    0.000    0.000    0.000 
#
# Total GULP energy -545384.336238 kJ/mol
# GULP energy per Si atom -12395.098551 kJ/mol
# Density = 1.925621 g / cm^3
# Si number density = 19.300143 Si / 1000 Ang^3
#
#
#
# Elastic Constant Matrix: (Units=GPa)
#
#
# Indices 1 2 3 4 5 6 
#
# 1 81.7499 43.9137 40.1349 0.0000 0.0000 0.0000
# 2 43.9137 137.8755 40.0611 0.0000 0.0000 0.0000
# 3 40.1349 40.0611 67.6355 0.0000 0.0000 0.0000
# 4 0.0000 0.0000 0.0000 33.8926 0.0000 0.0000
# 5 0.0000 0.0000 0.0000 0.0000 38.1962 0.0000
# 6 0.0000 0.0000 0.0000 0.0000 0.0000 22.2372
#
#
#
# Elastic Compliance Matrix: (Units=1/GPa)
#
#
# Indices 1 2 3 4 5 6 
#
# 1 0.018389 -0.003245 -0.008990 0.000000 0.000000 0.000000
# 2 -0.003245 0.009333 -0.003603 0.000000 0.000000 0.000000
# 3 -0.008990 -0.003603 0.022254 0.000000 0.000000 0.000000
# 4 0.000000 0.000000 0.000000 0.029505 0.000000 0.000000
# 5 0.000000 0.000000 0.000000 0.000000 0.026181 0.000000
# 6 0.000000 0.000000 0.000000 0.000000 0.000000 0.044970
#
#
# Mechanical properties :
#
#
# Convention : Reuss Voigt Hill
#
# Bulk Modulus (GPa) = 54.64234 59.49779 57.07007
# Shear Modulus (GPa) = 26.53829 29.74194 28.14012
#
# Velocity S-wave (km/s) = 3.71216 3.92984 3.82255
# Velocity P-wave (km/s) = 6.83717 7.17538 7.00832
#
# Compressibility (1/GPa) = 0.01830083
#
# Stress axis : x y z
#
# Youngs Moduli (GPa) = 54.37988 107.14455 44.93618
#
# Poissons Ratio (x) = 0.34766 0.40398
# Poissons Ratio (y) = 0.17645 0.16189
# Poissons Ratio (z) = 0.48889 0.38601
#
# Static dielectric constant tensor:
#      x y z
#    x 3.324220 0.000000 0.000000 
#    y 0.000000 4.038900 0.000000 
#    z 0.000000 0.000000 6.434320 
# 
# 
# High freq. dielectric constant tensor:
#      x y z
#    x 1.758520 0.000000 0.000000 
#    y 0.000000 1.766550 0.000000 
#    z 0.000000 0.000000 1.714970 
# 
# From -- ./inp_files/44000.got.cif
#   From: 2010.03.12/outbox.cif.g09.slc.cpg/sg74_22_cif.got.tgz:44000.got - 2010.04.16 15:46:19.
