data_PCOD8300785
_publ_section_title
;
Structure prediction by ZEFSAII (Michael W. Deem and Ramdas Pophale) SiO2 
 PCOD8300785
Probable space group: I M M A
;
_chemical_formula_sum "Si O2"
_cell_formula_units_Z 88
_cell_length_a 8.845226
_cell_length_b 30.491541
_cell_length_c 17.562471
_cell_angle_alpha 90.000000
_cell_angle_beta 90.000000
_cell_angle_gamma 90.000000
_cell_volume 4736.678711
_symmetry_space_group_name_H-M "I M M A"
_symmetry_group_IT_number 74
_symmetry_cell_setting 'orthorhombic'
loop_
_space_group_symop_operation_xyz
x,y,z
-x,1/2-y,z
x,-y,-z
-x,1/2+y,-z
-x,-y,-z
x,1/2+y,-z
-x,y,z
x,1/2-y,z
1/2+x,1/2+y,1/2+z
1/2-x,-y,1/2+z
1/2+x,1/2-y,1/2-z
1/2-x,y,1/2-z
1/2-x,1/2-y,1/2-z
1/2+x,y,1/2-z
1/2-x,1/2+y,1/2+z
1/2+x,-y,1/2+z
loop_
_atom_site_type_symbol
_atom_site_label
_atom_site_fract_x
_atom_site_fract_y
_atom_site_fract_z
Si Si1 0.179115 0.918060 0.673777
Si Si2 0.177868 0.299749 0.669280
Si Si3 0.829932 0.166417 0.115365
Si Si4 0.176505 0.250000 0.331618
Si Si5 0.668275 0.134248 0.555204
Si Si6 0.675001 0.950723 0.525475
O O1 0.250000 0.939927 0.750000
O O2 0.251647 0.870143 0.666897
O O3 0.223260 0.946347 0.600279
O O4 0.000000 0.915285 0.680758
O O5 0.227120 0.250000 0.644341
O O6 0.250000 0.311842 0.750000
O O7 0.224864 0.336848 0.608766
O O8 0.000000 0.302072 0.678601
O O9 0.728212 0.208885 0.119966
O O10 0.000000 0.174329 0.146209
O O11 0.832829 0.154739 0.027654
O O12 0.250000 0.250000 0.250000
O O13 0.000000 0.250000 0.321529
O O14 0.500000 0.134984 0.591012
O O15 0.723884 0.083535 0.542058
O O16 0.500000 0.940527 0.546438
O O17 0.699342 0.000000 0.500000
#
# Coordination Sequence:
#
# PCOD8300785 Si02
#       6
#    16  16  16   8  16  16
#     4  11  21  35  56  81 109 142 182 226 272 325
#     4  10  21  36  55  80 110 146 186 231 279 332
#     4  10  21  37  54  76 106 143 183 222 269 320
#     4  12  24  36  50  72 105 142 181 224 268 312
#     4   9  19  35  57  82 108 141 178 221 273 329
#     4   9  19  38  61  84 112 145 182 228 282 338
#
# _framework density 18.578419
#
# number of rings (size 3 to 8) (size 9 to 14) (size 15 to 20)
#    0.000    2.000    0.000    5.182    1.273    5.091 
#    0.000    0.909    0.000    0.000    0.000    0.000 
#    0.000    0.000    0.000    0.000    0.000    0.000 
#
# Total GULP energy -545482.176021 kJ/mol
# GULP energy per Si atom -12397.322182 kJ/mol
# Density = 1.853613 g / cm^3
# Si number density = 18.578419 Si / 1000 Ang^3
#
#
#
# Elastic Constant Matrix: (Units=GPa)
#
#
# Indices 1 2 3 4 5 6 
#
# 1 132.6747 45.1847 45.9058 0.0000 0.0000 0.0000
# 2 45.1847 125.3153 45.5588 -0.0001 0.0000 0.0000
# 3 45.9058 45.5588 79.7492 -0.0006 0.0000 -0.0001
# 4 0.0000 -0.0001 -0.0006 15.3980 0.0000 0.0000
# 5 0.0000 0.0000 0.0000 0.0000 34.9685 -0.0001
# 6 0.0000 0.0000 -0.0001 0.0000 -0.0001 23.8526
#
#
#
# Elastic Compliance Matrix: (Units=1/GPa)
#
#
# Indices 1 2 3 4 5 6 
#
# 1 0.009744 -0.001861 -0.004546 0.000000 0.000000 0.000000
# 2 -0.001861 0.010427 -0.004886 0.000000 0.000000 0.000000
# 3 -0.004546 -0.004886 0.017947 0.000001 0.000000 0.000000
# 4 0.000000 0.000000 0.000001 0.064944 0.000000 0.000000
# 5 0.000000 0.000000 0.000000 0.000000 0.028597 0.000000
# 6 0.000000 0.000000 0.000000 0.000000 0.000000 0.041924
#
#
# Mechanical properties :
#
#
# Convention : Reuss Voigt Hill
#
# Bulk Modulus (GPa) = 64.37671 67.89308 66.13490
# Shear Modulus (GPa) = 24.83304 28.24982 26.54143
#
# Velocity S-wave (km/s) = 3.66000 3.90368 3.78380
# Velocity P-wave (km/s) = 7.25172 7.54597 7.40031
#
# Compressibility (1/GPa) = 0.01553357
#
# Stress axis : x y z
#
# Youngs Moduli (GPa) = 102.62955 95.90535 55.71943
#
# Poissons Ratio (x) = 0.17845 0.25329
# Poissons Ratio (y) = 0.19096 0.27222
# Poissons Ratio (z) = 0.46654 0.46856
#
# Static dielectric constant tensor:
#      x y z
#    x 3.423660 0.000020 0.000000 
#    y 0.000020 0.033850 0.000020 
#    z 0.000000 0.000020 3.521210 
# 
# 
# High freq. dielectric constant tensor:
#      x y z
#    x 1.728650 0.000000 0.000000 
#    y 0.000000 1.717700 0.000000 
#    z 0.000000 0.000000 1.714860 
# 
# From -- ./inp_files/40062.got.cif
#   From: 2010.03.12/outbox.cif.g09.slc.cpg/sg74_21_cif.got.tgz:40062.got - 2010.04.16 15:46:19.
