data_PCOD8300721
_publ_section_title
;
Structure prediction by ZEFSAII (Michael W. Deem and Ramdas Pophale) SiO2 
 PCOD8300721
Probable space group: I M M A
;
_chemical_formula_sum "Si O2"
_cell_formula_units_Z 72
_cell_length_a 10.513874
_cell_length_b 13.553123
_cell_length_c 24.454630
_cell_angle_alpha 90.000000
_cell_angle_beta 90.000000
_cell_angle_gamma 90.000000
_cell_volume 3484.682739
_symmetry_space_group_name_H-M "I M M A"
_symmetry_group_IT_number 74
_symmetry_cell_setting 'orthorhombic'
loop_
_space_group_symop_operation_xyz
x,y,z
-x,1/2-y,z
x,-y,-z
-x,1/2+y,-z
-x,-y,-z
x,1/2+y,-z
-x,y,z
x,1/2-y,z
1/2+x,1/2+y,1/2+z
1/2-x,-y,1/2+z
1/2+x,1/2-y,1/2-z
1/2-x,y,1/2-z
1/2-x,1/2-y,1/2-z
1/2+x,y,1/2-z
1/2-x,1/2+y,1/2+z
1/2+x,-y,1/2+z
loop_
_atom_site_type_symbol
_atom_site_label
_atom_site_fract_x
_atom_site_fract_y
_atom_site_fract_z
Si Si1 0.228719 0.500000 0.000000
Si Si2 0.850974 0.639846 0.411276
Si Si3 0.141244 0.640132 0.670364
Si Si4 0.138360 0.360763 0.087004
Si Si5 0.144298 0.934112 0.291346
O O1 0.312143 0.567760 0.039889
O O2 0.137573 0.430434 0.034778
O O3 0.790972 0.750000 0.417949
O O4 0.811970 0.595998 0.352183
O O5 0.000000 0.648928 0.413899
O O6 0.166996 0.750000 0.695520
O O7 0.246663 0.611200 0.626392
O O8 0.145428 0.553879 0.715529
O O9 0.000000 0.638532 0.642741
O O10 0.157625 0.250000 0.065813
O O11 0.000000 0.372461 0.116380
O O12 0.250000 0.889444 0.250000
O O13 0.000000 0.895367 0.278249
#
# Coordination Sequence:
#
# PCOD8300721 Si02
#       5
#     8  16  16  16  16
#     4  12  20  36  60  86 117 158 197 242 299 362
#     4  10  22  39  60  89 123 157 199 251 302 356
#     4   9  18  35  58  83 113 150 195 243 289 348
#     4  10  21  35  53  82 119 156 192 235 291 353
#     4  10  21  39  60  87 119 156 200 248 299 353
#
# _framework density 20.661852
#
# number of rings (size 3 to 8) (size 9 to 14) (size 15 to 20)
#    0.000    2.000    2.222    1.333    0.000    2.667 
#    0.000    2.222    0.000    2.667    0.000    0.000 
#    0.000    0.000    0.000    0.000    0.000    0.000 
#
# Total GULP energy -446019.212264 kJ/mol
# GULP energy per Si atom -12389.422563 kJ/mol
# Density = 2.061482 g / cm^3
# Si number density = 20.661852 Si / 1000 Ang^3
#
#
#
# Elastic Constant Matrix: (Units=GPa)
#
#
# Indices 1 2 3 4 5 6 
#
# 1 112.9394 23.0329 50.8419 0.0000 0.0000 0.0000
# 2 23.0329 96.9176 31.0027 0.0000 0.0000 0.0000
# 3 50.8419 31.0027 82.2204 0.0000 0.0000 0.0000
# 4 0.0000 0.0000 0.0000 13.6916 0.0000 0.0000
# 5 0.0000 0.0000 0.0000 0.0000 23.4010 0.0000
# 6 0.0000 0.0000 0.0000 0.0000 0.0000 14.7628
#
#
#
# Elastic Compliance Matrix: (Units=1/GPa)
#
#
# Indices 1 2 3 4 5 6 
#
# 1 0.012296 -0.000557 -0.007393 0.000000 0.000000 0.000000
# 2 -0.000557 0.011759 -0.004089 0.000000 0.000000 0.000000
# 3 -0.007393 -0.004089 0.018276 0.000000 0.000000 0.000000
# 4 0.000000 0.000000 0.000000 0.073038 0.000000 0.000000
# 5 0.000000 0.000000 0.000000 0.000000 0.042733 0.000000
# 6 0.000000 0.000000 0.000000 0.000000 0.000000 0.067738
#
#
# Mechanical properties :
#
#
# Convention : Reuss Voigt Hill
#
# Bulk Modulus (GPa) = 54.79076 55.75918 55.27497
# Shear Modulus (GPa) = 19.53101 22.85106 21.19104
#
# Velocity S-wave (km/s) = 3.07786 3.32920 3.20599
# Velocity P-wave (km/s) = 6.26150 6.46709 6.36512
#
# Compressibility (1/GPa) = 0.01825125
#
# Stress axis : x y z
#
# Youngs Moduli (GPa) = 81.32573 85.04442 54.71614
#
# Poissons Ratio (x) = 0.04739 0.40454
# Poissons Ratio (y) = 0.04531 0.22375
# Poissons Ratio (z) = 0.60127 0.34777
#
# Static dielectric constant tensor:
#      x y z
#    x 3.790630 0.000000 0.000000 
#    y 0.000000 4.223890 0.000000 
#    z 0.000000 0.000000 3.414310 
# 
# 
# High freq. dielectric constant tensor:
#      x y z
#    x 1.808190 0.000000 0.000000 
#    y 0.000000 1.825360 0.000000 
#    z 0.000000 0.000000 1.772070 
# 
# From -- ./inp_files/58396.got.cif
#   From: 2010.03.12/outbox.cif.g09.slc.cpg/sg74_30_cif.got.tgz:58396.got - 2010.04.16 15:46:19.
