data_PCOD8300835
_publ_section_title
;
Structure prediction by ZEFSAII (Michael W. Deem and Ramdas Pophale) SiO2 
 PCOD8300835
Probable space group: I M M A
;
_chemical_formula_sum "Si O2"
_cell_formula_units_Z 96
_cell_length_a 15.071079
_cell_length_b 14.723974
_cell_length_c 19.823757
_cell_angle_alpha 90.000000
_cell_angle_beta 90.000000
_cell_angle_gamma 90.000000
_cell_volume 4399.014097
_symmetry_space_group_name_H-M "I M M A"
_symmetry_group_IT_number 74
_symmetry_cell_setting 'orthorhombic'
loop_
_space_group_symop_operation_xyz
x,y,z
-x,1/2-y,z
x,-y,-z
-x,1/2+y,-z
-x,-y,-z
x,1/2+y,-z
-x,y,z
x,1/2-y,z
1/2+x,1/2+y,1/2+z
1/2-x,-y,1/2+z
1/2+x,1/2-y,1/2-z
1/2-x,y,1/2-z
1/2-x,1/2-y,1/2-z
1/2+x,y,1/2-z
1/2-x,1/2+y,1/2+z
1/2+x,-y,1/2+z
loop_
_atom_site_type_symbol
_atom_site_label
_atom_site_fract_x
_atom_site_fract_y
_atom_site_fract_z
Si Si1 0.101295 0.040612 0.203048
Si Si2 0.894577 0.852095 0.671383
Si Si3 0.598657 0.102299 0.022808
Si Si4 0.396379 0.142725 0.429031
Si Si5 0.227805 0.350649 0.954358
Si Si6 0.821926 0.852941 0.191821
O O1 0.147059 0.084878 0.269554
O O2 0.140430 0.086772 0.135488
O O3 0.000000 0.069862 0.203971
O O4 0.106286 0.930886 0.207293
O O5 0.857942 0.750000 0.679790
O O6 0.865044 0.891230 0.599013
O O7 0.000000 0.853469 0.675055
O O8 0.500000 0.146914 0.015730
O O9 0.669098 0.151591 0.975177
O O10 0.593839 0.000000 0.000000
O O11 0.500000 0.123259 0.444511
O O12 0.380184 0.250000 0.416034
O O13 0.337712 0.101901 0.491233
O O14 0.190168 0.250000 0.951224
O O15 0.221111 0.387850 0.878405
O O16 0.862781 0.750000 0.187931
O O17 0.750000 0.854660 0.250000
#
# Coordination Sequence:
#
# PCOD8300835 Si02
#       6
#    16  16  16  16  16  16
#     4  10  21  36  61  91 118 158 201 244 302 363
#     4   9  18  35  59  89 126 160 192 238 300 367
#     4  10  22  37  59  90 122 157 197 247 302 360
#     4   9  19  37  61  94 131 160 194 241 299 372
#     4  10  22  39  61  86 115 158 203 250 308 359
#     4  10  24  43  58  78 112 157 206 258 312 359
#
# _framework density 21.823070999999999
#
# number of rings (size 3 to 8) (size 9 to 14) (size 15 to 20)
#    0.000    2.333    0.000    1.000    4.667    4.000 
#    0.000    3.333    0.000    7.000    0.000    0.000 
#    0.000    0.000    0.000    0.000    0.000    0.000 
#
# Total GULP energy -594779.550173 kJ/mol
# GULP energy per Si atom -12391.240629 kJ/mol
# Density = 2.177340 g / cm^3
# Si number density = 21.823071 Si / 1000 Ang^3
#
#
#
# Elastic Constant Matrix: (Units=GPa)
#
#
# Indices 1 2 3 4 5 6 
#
# 1 44.1964 12.5773 22.1385 0.0000 0.0000 0.0000
# 2 12.5773 117.3140 55.8307 0.0000 0.0000 0.0000
# 3 22.1385 55.8307 156.2441 0.0000 0.0000 0.0000
# 4 0.0000 0.0000 0.0000 -10.1932 0.0000 0.0000
# 5 0.0000 0.0000 0.0000 0.0000 26.1667 0.0000
# 6 0.0000 0.0000 0.0000 0.0000 0.0000 31.6968
#
#
#
# Elastic Compliance Matrix: (Units=1/GPa)
#
#
# Indices 1 2 3 4 5 6 
#
# 1 0.024488 -0.001174 -0.003050 0.000000 0.000000 0.000000
# 2 -0.001174 0.010327 -0.003524 0.000000 0.000000 0.000000
# 3 -0.003050 -0.003524 0.008092 0.000000 0.000000 0.000000
# 4 0.000000 0.000000 0.000000 -0.098105 0.000000 0.000000
# 5 0.000000 0.000000 0.000000 0.000000 0.038216 0.000000
# 6 0.000000 0.000000 0.000000 0.000000 0.000000 0.031549
#
#
# Mechanical properties :
#
#
# Convention : Reuss Voigt Hill
#
# Bulk Modulus (GPa) = 36.48166 55.42748 45.95457
# Shear Modulus (GPa) = 127.55048 24.68128 76.11588
#
# Velocity S-wave (km/s) = 7.65339 3.36664 5.91222
# Velocity P-wave (km/s) = 9.73923 6.36915 8.22857
#
# Compressibility (1/GPa) = 0.02741103
#
# Stress axis : x y z
#
# Youngs Moduli (GPa) = 40.83593 96.83369 123.58450
#
# Poissons Ratio (x) = 0.11365 0.37698
# Poissons Ratio (y) = 0.04793 0.43549
# Poissons Ratio (z) = 0.12457 0.34123
#
# Static dielectric constant tensor:
#      x y z
#    x 3.691980 0.000000 0.000000 
#    y 0.000000 4.108430 0.000000 
#    z 0.000000 0.000000 4.361650 
# 
# 
# High freq. dielectric constant tensor:
#      x y z
#    x 1.830260 0.000000 0.000000 
#    y 0.000000 1.857020 0.000000 
#    z 0.000000 0.000000 1.872020 
# 
# From -- ./inp_files/51844.got.cif
#   From: 2010.03.12/outbox.cif.g09.slc.cpg/sg74_26_cif.got.tgz:51844.got - 2010.04.16 15:46:19.
