data_PCOD8300652
_publ_section_title
;
Structure prediction by ZEFSAII (Michael W. Deem and Ramdas Pophale) SiO2 
 PCOD8300652
Probable space group: I M M A
;
_chemical_formula_sum "Si O2"
_cell_formula_units_Z 112
_cell_length_a 14.673585
_cell_length_b 27.236697
_cell_length_c 14.961338
_cell_angle_alpha 90.000000
_cell_angle_beta 90.000000
_cell_angle_gamma 90.000000
_cell_volume 5979.448174
_symmetry_space_group_name_H-M "I M M A"
_symmetry_group_IT_number 74
_symmetry_cell_setting 'orthorhombic'
loop_
_space_group_symop_operation_xyz
x,y,z
-x,1/2-y,z
x,-y,-z
-x,1/2+y,-z
-x,-y,-z
x,1/2+y,-z
-x,y,z
x,1/2-y,z
1/2+x,1/2+y,1/2+z
1/2-x,-y,1/2+z
1/2+x,1/2-y,1/2-z
1/2-x,y,1/2-z
1/2-x,1/2-y,1/2-z
1/2+x,y,1/2-z
1/2-x,1/2+y,1/2+z
1/2+x,-y,1/2+z
loop_
_atom_site_type_symbol
_atom_site_label
_atom_site_fract_x
_atom_site_fract_y
_atom_site_fract_z
Si Si1 0.600971 0.305756 0.941513
Si Si2 0.101465 0.693856 0.054343
Si Si3 0.800657 0.556002 0.157741
Si Si4 0.000000 0.559161 0.900472
Si Si5 0.500000 0.443888 0.603719
Si Si6 0.251218 0.623074 0.999669
Si Si7 0.351155 0.807844 0.251954
Si Si8 0.300949 0.441545 0.341995
O O1 0.500000 0.307842 0.981378
O O2 0.639924 0.250000 0.946813
O O3 0.660741 0.342280 0.000084
O O4 0.597554 0.323876 0.838109
O O5 0.137292 0.750000 0.049419
O O6 0.164234 0.658934 0.995422
O O7 0.100537 0.674227 0.157213
O O8 0.000000 0.690135 0.015674
O O9 0.750000 0.567918 0.250000
O O10 0.908306 0.571516 0.157989
O O11 0.748043 0.587084 0.083936
O O12 0.791923 0.498718 0.133599
O O13 0.000000 0.501362 0.909333
O O14 0.908183 0.574858 0.846259
O O15 0.000000 0.580369 0.003223
O O16 0.255751 0.589776 0.912691
O O17 0.346672 0.750000 0.255643
O O18 0.250000 0.830866 0.250000
O O19 0.250000 0.429678 0.250000
#
# Coordination Sequence:
#
# PCOD8300652 Si02
#       8
#    16  16  16   8   8  16  16  16
#     4  10  21  37  55  76 111 156 195 232 278 342
#     4  10  21  33  49  80 119 149 177 226 290 344
#     4  10  22  37  57  88 123 156 188 236 293 345
#     4   9  16  34  64  85 103 147 198 240 288 349
#     4   9  16  34  60  83 113 151 196 232 278 347
#     4  12  22  34  60  86 111 150 196 242 280 348
#     4   9  15  29  49  69 104 150 185 216 266 331
#     4  10  22  41  61  84 115 151 194 250 301 343
#
# _framework density 18.730824999999999
#
# number of rings (size 3 to 8) (size 9 to 14) (size 15 to 20)
#    0.000    2.000    2.857    1.286    4.000    1.714 
#    2.571    0.000    0.000    2.571    0.000    2.000 
#    0.000    0.000    0.000    0.000    0.000    0.000 
#
# Total GULP energy -694020.731262 kJ/mol
# GULP energy per Si atom -12393.227344 kJ/mol
# Density = 1.868819 g / cm^3
# Si number density = 18.730825 Si / 1000 Ang^3
#
#
#
# Elastic Constant Matrix: (Units=GPa)
#
#
# Indices 1 2 3 4 5 6 
#
# 1 124.3727 34.5741 55.1888 0.0000 0.0000 0.0000
# 2 34.5741 85.3183 46.9645 -0.0005 0.0000 0.0000
# 3 55.1888 46.9645 90.1106 -0.0001 0.0000 0.0000
# 4 0.0000 -0.0005 -0.0001 20.3772 0.0000 0.0000
# 5 0.0000 0.0000 0.0000 0.0000 23.2989 0.0000
# 6 0.0000 0.0000 0.0000 0.0000 0.0000 16.0048
#
#
#
# Elastic Compliance Matrix: (Units=1/GPa)
#
#
# Indices 1 2 3 4 5 6 
#
# 1 0.011109 -0.001061 -0.006251 0.000000 0.000000 0.000000
# 2 -0.001061 0.016538 -0.007969 0.000000 0.000000 0.000000
# 3 -0.006251 -0.007969 0.019079 0.000000 0.000000 0.000000
# 4 0.000000 0.000000 0.000000 0.049074 0.000000 0.000000
# 5 0.000000 0.000000 0.000000 0.000000 0.042920 0.000000
# 6 0.000000 0.000000 0.000000 0.000000 0.000000 0.062481
#
#
# Mechanical properties :
#
#
# Convention : Reuss Voigt Hill
#
# Bulk Modulus (GPa) = 61.86724 63.69516 62.78120
# Shear Modulus (GPa) = 21.08349 22.80780 21.94565
#
# Velocity S-wave (km/s) = 3.35864 3.49329 3.42663
# Velocity P-wave (km/s) = 6.93844 7.09578 7.01755
#
# Compressibility (1/GPa) = 0.01616364
#
# Stress axis : x y z
#
# Youngs Moduli (GPa) = 90.01707 60.46822 52.41249
#
# Poissons Ratio (x) = 0.06415 0.32762
# Poissons Ratio (y) = 0.09550 0.41770
# Poissons Ratio (z) = 0.56268 0.48190
#
# Static dielectric constant tensor:
#      x y z
#    x 3.596080 0.000000 0.000000 
#    y 0.000000 3.506350 0.000000 
#    z 0.000000 0.000000 3.148410 
# 
# 
# High freq. dielectric constant tensor:
#      x y z
#    x 1.730800 0.000000 0.000000 
#    y 0.000000 1.732650 0.000000 
#    z 0.000000 0.000000 1.680660 
# 
# From -- ./inp_files/33001.got.cif
#   From: 2010.03.12/outbox.cif.g09.slc.cpg/sg74_17_cif.got.tgz:33001.got - 2010.04.16 15:46:19.
