data_PCOD8300612
_publ_section_title
;
Structure prediction by ZEFSAII (Michael W. Deem and Ramdas Pophale) SiO2 
 PCOD8300612
Probable space group: I M M A
;
_chemical_formula_sum "Si O2"
_cell_formula_units_Z 104
_cell_length_a 19.704148
_cell_length_b 26.749491
_cell_length_c 9.559650
_cell_angle_alpha 90.000000
_cell_angle_beta 90.000000
_cell_angle_gamma 90.000000
_cell_volume 5038.661410
_symmetry_space_group_name_H-M "I M M A"
_symmetry_group_IT_number 74
_symmetry_cell_setting 'orthorhombic'
loop_
_space_group_symop_operation_xyz
x,y,z
-x,1/2-y,z
x,-y,-z
-x,1/2+y,-z
-x,-y,-z
x,1/2+y,-z
-x,y,z
x,1/2-y,z
1/2+x,1/2+y,1/2+z
1/2-x,-y,1/2+z
1/2+x,1/2-y,1/2-z
1/2-x,y,1/2-z
1/2-x,1/2-y,1/2-z
1/2+x,y,1/2-z
1/2-x,1/2+y,1/2+z
1/2+x,-y,1/2+z
loop_
_atom_site_type_symbol
_atom_site_label
_atom_site_fract_x
_atom_site_fract_y
_atom_site_fract_z
Si Si1 0.643819 0.339197 0.466258
Si Si2 0.578572 0.988158 0.159577
Si Si3 0.331707 0.896009 0.256148
Si Si4 0.611527 0.250000 0.087399
Si Si5 0.423192 0.096495 0.238917
Si Si6 0.925283 0.149356 0.541482
Si Si7 0.241866 0.250000 0.087605
Si Si8 0.572122 0.750000 0.608746
O O1 0.648701 0.378673 0.589446
O O2 0.631904 0.372056 0.326553
O O3 0.708098 0.302176 0.460370
O O4 0.581512 0.299886 0.484512
O O5 0.500000 0.969535 0.168037
O O6 0.630486 0.947776 0.222726
O O7 0.588638 0.037255 0.255866
O O8 0.598327 0.000000 0.000000
O O9 0.250000 0.901057 0.250000
O O10 0.363355 0.854502 0.151401
O O11 0.684934 0.250000 0.014980
O O12 0.622752 0.250000 0.257451
O O13 0.571287 0.201933 0.037088
O O14 0.500000 0.110882 0.285945
O O15 0.413065 0.106941 0.074546
O O16 0.000000 0.141287 0.611618
O O17 0.250000 0.250000 0.250000
O O18 0.500000 0.750000 0.681217
#
# Coordination Sequence:
#
# PCOD8300612 Si02
#       8
#    16  16  16   8  16  16   8   8
#     4  11  24  40  63  95 132 175 212 268 337 397
#     4  10  21  44  73  96 124 172 226 278 337 404
#     4  12  27  46  62  96 139 177 217 275 344 407
#     4  12  21  37  64  98 128 164 227 280 315 384
#     4  10  20  39  69 100 124 163 225 280 328 392
#     4  11  22  40  68  97 129 176 227 277 328 399
#     4  11  20  41  63  88 132 186 220 254 328 418
#     4  11  21  37  62  95 132 161 204 268 329 383
#
# _framework density 20.640402000000002
#
# number of rings (size 3 to 8) (size 9 to 14) (size 15 to 20)
#    0.000    1.077    4.615    2.538    0.000    4.308 
#    2.769    4.231    0.000    0.000    0.000    0.000 
#    0.000    0.000    0.000    0.000    0.000    0.000 
#
# Total GULP energy -644329.358436 kJ/mol
# GULP energy per Si atom -12390.949201 kJ/mol
# Density = 2.059342 g / cm^3
# Si number density = 20.640402 Si / 1000 Ang^3
#
#
#
# Elastic Constant Matrix: (Units=GPa)
#
#
# Indices 1 2 3 4 5 6 
#
# 1 149.2838 49.0544 51.2004 0.0000 0.0000 0.0000
# 2 49.0544 120.9866 30.9662 0.0000 0.0000 0.0000
# 3 51.2004 30.9662 71.0242 0.0000 0.0000 0.0000
# 4 0.0000 0.0000 0.0000 36.3007 0.0000 0.0000
# 5 0.0000 0.0000 0.0000 0.0000 29.1661 0.0000
# 6 0.0000 0.0000 0.0000 0.0000 0.0000 23.7494
#
#
#
# Elastic Compliance Matrix: (Units=1/GPa)
#
#
# Indices 1 2 3 4 5 6 
#
# 1 0.009458 -0.002352 -0.005793 0.000000 0.000000 0.000000
# 2 -0.002352 0.009889 -0.002616 0.000000 0.000000 0.000000
# 3 -0.005793 -0.002616 0.019396 0.000000 0.000000 0.000000
# 4 0.000000 0.000000 0.000000 0.027548 0.000000 0.000000
# 5 0.000000 0.000000 0.000000 0.000000 0.034286 0.000000
# 6 0.000000 0.000000 0.000000 0.000000 0.000000 0.042106
#
#
# Mechanical properties :
#
#
# Convention : Reuss Voigt Hill
#
# Bulk Modulus (GPa) = 58.06687 67.08187 62.57437
# Shear Modulus (GPa) = 29.42121 31.84817 30.63469
#
# Velocity S-wave (km/s) = 3.77957 3.93237 3.85672
# Velocity P-wave (km/s) = 6.87318 7.29307 7.08623
#
# Compressibility (1/GPa) = 0.01722152
#
# Stress axis : x y z
#
# Youngs Moduli (GPa) = 105.72616 101.12674 51.55674
#
# Poissons Ratio (x) = 0.23788 0.29866
# Poissons Ratio (y) = 0.24870 0.13485
# Poissons Ratio (z) = 0.61246 0.26451
#
# Static dielectric constant tensor:
#      x y z
#    x 4.184530 0.000000 0.000000 
#    y 0.000000 3.860600 0.000000 
#    z 0.000000 0.000000 3.433200 
# 
# 
# High freq. dielectric constant tensor:
#      x y z
#    x 1.809830 0.000000 0.000000 
#    y 0.000000 1.825270 0.000000 
#    z 0.000000 0.000000 1.780080 
# 
# From -- ./inp_files/12834.got.cif
#   From: 2010.03.12/outbox.cif.g09.slc.cpg/sg74_7_cif.got.tgz:12834.got - 2010.04.16 15:46:19.
