data_PCOD8300622
_publ_section_title
;
Structure prediction by ZEFSAII (Michael W. Deem and Ramdas Pophale) SiO2 
 PCOD8300622
Probable space group: I M M A
;
_chemical_formula_sum "Si O2"
_cell_formula_units_Z 88
_cell_length_a 21.845760
_cell_length_b 9.121826
_cell_length_c 22.532907
_cell_angle_alpha 90.000000
_cell_angle_beta 90.000000
_cell_angle_gamma 90.000000
_cell_volume 4490.204969
_symmetry_space_group_name_H-M "I M M A"
_symmetry_group_IT_number 74
_symmetry_cell_setting 'orthorhombic'
loop_
_space_group_symop_operation_xyz
x,y,z
-x,1/2-y,z
x,-y,-z
-x,1/2+y,-z
-x,-y,-z
x,1/2+y,-z
-x,y,z
x,1/2-y,z
1/2+x,1/2+y,1/2+z
1/2-x,-y,1/2+z
1/2+x,1/2-y,1/2-z
1/2-x,y,1/2-z
1/2-x,1/2-y,1/2-z
1/2+x,y,1/2-z
1/2-x,1/2+y,1/2+z
1/2+x,-y,1/2+z
loop_
_atom_site_type_symbol
_atom_site_label
_atom_site_fract_x
_atom_site_fract_y
_atom_site_fract_z
Si Si1 0.628912 0.923477 0.620191
Si Si2 0.500000 0.579079 0.563427
Si Si3 0.683588 0.583342 0.268520
Si Si4 0.347808 0.588152 0.137862
Si Si5 0.735088 0.079419 0.557819
Si Si6 0.069624 0.919694 0.556980
O O1 0.640152 0.750000 0.619765
O O2 0.559106 0.963415 0.603147
O O3 0.646719 0.984813 0.684973
O O4 0.670949 0.000950 0.571140
O O5 0.500000 0.750000 0.548680
O O6 0.500000 0.500000 0.500000
O O7 0.690968 0.750000 0.293832
O O8 0.750000 0.519160 0.250000
O O9 0.645036 0.582991 0.208245
O O10 0.366753 0.750000 0.114538
O O11 0.278950 0.555301 0.114784
O O12 0.393750 0.465721 0.114889
O O13 0.724208 0.250000 0.544111
O O14 0.763965 0.000000 0.500000
O O15 0.076831 0.750000 0.545769
O O16 0.000000 0.968426 0.566629
O O17 0.098213 0.000000 0.500000
#
# Coordination Sequence:
#
# PCOD8300622 Si02
#       6
#    16   8  16  16  16  16
#     4  11  23  40  62  89 120 158 200 247 302 360
#     4  10  24  44  64  90 124 160 205 256 307 362
#     4  10  20  40  63  86 118 154 192 239 292 349
#     4  10  21  37  59  84 115 152 192 240 291 348
#     4  11  22  37  57  87 121 152 190 243 297 353
#     4  10  21  37  57  82 114 151 191 237 288 342
#
# _framework density 19.598213999999999
#
# number of rings (size 3 to 8) (size 9 to 14) (size 15 to 20)
#    0.000    1.636    1.818    2.727    0.000    8.000 
#    1.636    0.000    0.000    0.000    0.000    0.000 
#    0.000    0.000    0.000    0.000    0.000    0.000 
#
# Total GULP energy -545661.403049 kJ/mol
# GULP energy per Si atom -12401.395524 kJ/mol
# Density = 1.955361 g / cm^3
# Si number density = 19.598214 Si / 1000 Ang^3
#
#
#
# Elastic Constant Matrix: (Units=GPa)
#
#
# Indices 1 2 3 4 5 6 
#
# 1 99.5187 57.8218 44.7727 0.0000 0.0000 0.0000
# 2 57.8218 94.7284 49.4580 0.0000 0.0000 0.0000
# 3 44.7727 49.4580 109.3661 0.0000 0.0000 0.0000
# 4 0.0000 0.0000 0.0000 38.5161 0.0000 0.0000
# 5 0.0000 0.0000 0.0000 0.0000 30.2600 0.0000
# 6 0.0000 0.0000 0.0000 0.0000 0.0000 32.1998
#
#
#
# Elastic Compliance Matrix: (Units=1/GPa)
#
#
# Indices 1 2 3 4 5 6 
#
# 1 0.016213 -0.008419 -0.002830 0.000000 0.000000 0.000000
# 2 -0.008419 0.018191 -0.004780 0.000000 0.000000 0.000000
# 3 -0.002830 -0.004780 0.012464 0.000000 0.000000 0.000000
# 4 0.000000 0.000000 0.000000 0.025963 0.000000 0.000000
# 5 0.000000 0.000000 0.000000 0.000000 0.033047 0.000000
# 6 0.000000 0.000000 0.000000 0.000000 0.000000 0.031056
#
#
# Mechanical properties :
#
#
# Convention : Reuss Voigt Hill
#
# Bulk Modulus (GPa) = 67.52133 67.52424 67.52278
# Shear Modulus (GPa) = 28.74751 30.29923 29.52337
#
# Velocity S-wave (km/s) = 3.83409 3.93621 3.88549
# Velocity P-wave (km/s) = 7.35717 7.42882 7.39308
#
# Compressibility (1/GPa) = 0.01481013
#
# Stress axis : x y z
#
# Youngs Moduli (GPa) = 61.67868 54.97281 80.23231
#
# Poissons Ratio (x) = 0.46280 0.22708
# Poissons Ratio (y) = 0.51926 0.38350
# Poissons Ratio (z) = 0.17456 0.26276
#
# Static dielectric constant tensor:
#      x y z
#    x 3.534660 0.000000 0.000000 
#    y 0.000000 3.584350 0.000000 
#    z 0.000000 0.000000 3.598840 
# 
# 
# High freq. dielectric constant tensor:
#      x y z
#    x 1.756860 0.000000 0.000000 
#    y 0.000000 1.765540 0.000000 
#    z 0.000000 0.000000 1.770030 
# 
# From -- ./inp_files/54518.got.cif
#   From: 2010.03.12/outbox.cif.g09.slc.cpg/sg74_28_cif.got.tgz:54518.got - 2010.04.16 15:46:19.
