data_PCOD8300895
_publ_section_title
;
Structure prediction by ZEFSAII (Michael W. Deem and Ramdas Pophale) SiO2 
 PCOD8300895
Probable space group: I M M A
;
_chemical_formula_sum "Si O2"
_cell_formula_units_Z 104
_cell_length_a 8.748491
_cell_length_b 29.222568
_cell_length_c 19.688761
_cell_angle_alpha 90.000000
_cell_angle_beta 90.000000
_cell_angle_gamma 90.000000
_cell_volume 5033.498163
_symmetry_space_group_name_H-M "I M M A"
_symmetry_group_IT_number 74
_symmetry_cell_setting 'orthorhombic'
loop_
_space_group_symop_operation_xyz
x,y,z
-x,1/2-y,z
x,-y,-z
-x,1/2+y,-z
-x,-y,-z
x,1/2+y,-z
-x,y,z
x,1/2-y,z
1/2+x,1/2+y,1/2+z
1/2-x,-y,1/2+z
1/2+x,1/2-y,1/2-z
1/2-x,y,1/2-z
1/2-x,1/2-y,1/2-z
1/2+x,y,1/2-z
1/2-x,1/2+y,1/2+z
1/2+x,-y,1/2+z
loop_
_atom_site_type_symbol
_atom_site_label
_atom_site_fract_x
_atom_site_fract_y
_atom_site_fract_z
Si Si1 0.825182 0.163157 0.906419
Si Si2 0.180000 0.541166 0.550598
Si Si3 0.681189 0.197664 0.321966
Si Si4 0.179071 0.091847 0.681676
Si Si5 0.320192 0.993377 0.681830
Si Si6 0.319657 0.250000 0.675877
Si Si7 0.324372 0.863719 0.551876
O O1 0.718413 0.121477 0.883739
O O2 0.761529 0.207020 0.867150
O O3 0.000000 0.152566 0.885692
O O4 0.812490 0.170532 0.987457
O O5 0.232208 0.500000 0.500000
O O6 0.273262 0.538455 0.620170
O O7 0.225524 0.592223 0.527747
O O8 0.000000 0.537357 0.562999
O O9 0.500000 0.195184 0.317086
O O10 0.733765 0.250000 0.337562
O O11 0.750000 0.181077 0.250000
O O12 0.739294 0.163626 0.382055
O O13 0.250000 0.114280 0.750000
O O14 0.000000 0.086410 0.690726
O O15 0.250295 0.042760 0.668494
O O16 0.500000 0.996968 0.689361
O O17 0.250000 0.971440 0.750000
O O18 0.500000 0.250000 0.682820
O O19 0.250000 0.250000 0.750000
O O20 0.500000 0.878660 0.564068
#
# Coordination Sequence:
#
# PCOD8300895 Si02
#       7
#    16  16  16  16  16   8  16
#     4  10  21  37  57  83 114 151 195 243 294 349
#     4  11  24  41  60  85 121 162 202 249 304 361
#     4   9  19  37  62  90 120 155 196 245 303 365
#     4  11  21  35  56  82 114 152 196 242 292 349
#     4  11  22  38  61  87 116 151 195 244 296 352
#     4  10  22  38  58  84 115 152 192 238 291 344
#     4  10  22  38  60  88 117 155 201 247 300 361
#
# _framework density 20.661574000000002
#
# number of rings (size 3 to 8) (size 9 to 14) (size 15 to 20)
#    0.000    1.692    0.000    5.538    1.077    7.385 
#    0.000    1.538    0.000    0.000    0.000    0.000 
#    0.000    0.000    0.000    0.000    0.000    0.000 
#
# Total GULP energy -644745.791328 kJ/mol
# GULP energy per Si atom -12398.957526 kJ/mol
# Density = 2.061455 g / cm^3
# Si number density = 20.661574 Si / 1000 Ang^3
#
#
#
# Elastic Constant Matrix: (Units=GPa)
#
#
# Indices 1 2 3 4 5 6 
#
# 1 96.5729 24.9996 32.3204 0.0000 0.0000 0.0000
# 2 24.9996 85.9652 54.6920 0.0001 0.0000 -0.0001
# 3 32.3204 54.6920 138.5657 0.0005 0.0000 -0.0002
# 4 0.0000 0.0001 0.0005 39.7271 0.0000 -0.0001
# 5 0.0000 0.0000 0.0000 0.0000 33.9640 0.0000
# 6 0.0000 -0.0001 -0.0002 -0.0001 0.0000 22.3128
#
#
#
# Elastic Compliance Matrix: (Units=1/GPa)
#
#
# Indices 1 2 3 4 5 6 
#
# 1 0.011533 -0.002193 -0.001824 0.000000 0.000000 0.000000
# 2 -0.002193 0.015950 -0.005784 0.000000 0.000000 0.000000
# 3 -0.001824 -0.005784 0.009925 0.000000 0.000000 0.000000
# 4 0.000000 0.000000 0.000000 0.025172 0.000000 0.000000
# 5 0.000000 0.000000 0.000000 0.000000 0.029443 0.000000
# 6 0.000000 0.000000 0.000000 0.000000 0.000000 0.044817
#
#
# Mechanical properties :
#
#
# Convention : Reuss Voigt Hill
#
# Bulk Modulus (GPa) = 56.16278 60.56975 58.36627
# Shear Modulus (GPa) = 30.79207 33.14023 31.96615
#
# Velocity S-wave (km/s) = 3.86464 4.00928 3.93763
# Velocity P-wave (km/s) = 6.86696 7.12820 6.99880
#
# Compressibility (1/GPa) = 0.01780539
#
# Stress axis : x y z
#
# Youngs Moduli (GPa) = 86.70604 62.69477 100.75266
#
# Poissons Ratio (x) = 0.13751 0.18382
# Poissons Ratio (y) = 0.19017 0.58275
# Poissons Ratio (z) = 0.15819 0.36263
#
# Static dielectric constant tensor:
#      x y z
#    x 3.600490 0.000000 0.000000 
#    y 0.000000 3.791450 0.000000 
#    z 0.000000 0.000000 3.983940 
# 
# 
# High freq. dielectric constant tensor:
#      x y z
#    x 1.800630 0.000000 0.000000 
#    y 0.000000 1.800560 0.000000 
#    z 0.000000 0.000000 1.823140 
# 
# From -- ./inp_files/49308.got.cif
#   From: 2010.03.12/outbox.cif.g09.slc.cpg/sg74_25_cif.got.tgz:49308.got - 2010.04.16 15:46:19.
