data_PCOD8300942
_publ_section_title
;
Structure prediction by ZEFSAII (Michael W. Deem and Ramdas Pophale) SiO2 
 PCOD8300942
Probable space group: I M M A
;
_chemical_formula_sum "Si O2"
_cell_formula_units_Z 112
_cell_length_a 25.291272
_cell_length_b 14.856209
_cell_length_c 13.604476
_cell_angle_alpha 90.000000
_cell_angle_beta 90.000000
_cell_angle_gamma 90.000000
_cell_volume 5111.642727
_symmetry_space_group_name_H-M "I M M A"
_symmetry_group_IT_number 74
_symmetry_cell_setting 'orthorhombic'
loop_
_space_group_symop_operation_xyz
x,y,z
-x,1/2-y,z
x,-y,-z
-x,1/2+y,-z
-x,-y,-z
x,1/2+y,-z
-x,y,z
x,1/2-y,z
1/2+x,1/2+y,1/2+z
1/2-x,-y,1/2+z
1/2+x,1/2-y,1/2-z
1/2-x,y,1/2-z
1/2-x,1/2-y,1/2-z
1/2+x,y,1/2-z
1/2-x,1/2+y,1/2+z
1/2+x,-y,1/2+z
loop_
_atom_site_type_symbol
_atom_site_label
_atom_site_fract_x
_atom_site_fract_y
_atom_site_fract_z
Si Si1 0.749835 0.855160 0.637182
Si Si2 0.396701 0.852904 0.162566
Si Si3 0.637456 0.148017 0.059434
Si Si4 0.696864 0.646009 0.295719
Si Si5 0.559530 0.650363 0.623064
Si Si6 0.656077 0.400979 0.492795
Si Si7 0.440841 0.462086 0.189367
O O1 0.740634 0.750000 0.621621
O O2 0.750000 0.883175 0.750000
O O3 0.803804 0.886330 0.584838
O O4 0.699564 0.904882 0.592602
O O5 0.416960 0.750000 0.185237
O O6 0.353397 0.891029 0.238047
O O7 0.441629 0.928717 0.178163
O O8 0.370351 0.855253 0.056342
O O9 0.629399 0.250000 0.099361
O O10 0.596104 0.080757 0.107348
O O11 0.701111 0.750000 0.270016
O O12 0.750000 0.599449 0.250000
O O13 0.687025 0.633836 0.411377
O O14 0.500000 0.630305 0.581813
O O15 0.560065 0.750000 0.671977
O O16 0.603255 0.654382 0.535757
O O17 0.576110 0.574882 0.703127
O O18 0.633067 0.500000 0.500000
O O19 0.500000 0.428076 0.168409
#
# Coordination Sequence:
#
# PCOD8300942 Si02
#       7
#    16  16  16  16  16  16  16
#     4  10  21  38  61  89 122 158 198 251 313 374
#     4  10  22  39  58  84 121 162 203 251 308 372
#     4  10  21  37  59  89 124 161 202 253 313 373
#     4  10  21  39  61  83 114 158 203 243 289 355
#     4  10  22  42  67  93 123 160 205 261 319 372
#     4  12  24  37  61  94 126 163 204 249 306 372
#     4  11  23  40  63  89 118 156 206 262 318 380
#
# _framework density 21.910764
#
# number of rings (size 3 to 8) (size 9 to 14) (size 15 to 20)
#    0.000    1.571    0.000    4.714    0.000    8.857 
#    0.000    2.143    0.000    0.857    0.000    0.000 
#    0.000    0.000    0.000    0.000    0.000    0.000 
#
# Total GULP energy -694183.115053 kJ/mol
# GULP energy per Si atom -12396.127055 kJ/mol
# Density = 2.186089 g / cm^3
# Si number density = 21.910764 Si / 1000 Ang^3
#
#
#
# Elastic Constant Matrix: (Units=GPa)
#
#
# Indices 1 2 3 4 5 6 
#
# 1 122.9416 32.6076 50.0330 0.0000 0.0000 0.0000
# 2 32.6076 95.4575 16.9917 0.0000 0.0000 0.0000
# 3 50.0330 16.9917 106.2889 0.0000 0.0000 0.0000
# 4 0.0000 0.0000 0.0000 -3.1891 0.0000 0.0000
# 5 0.0000 0.0000 0.0000 0.0000 26.8697 0.0000
# 6 0.0000 0.0000 0.0000 0.0000 0.0000 27.2918
#
#
#
# Elastic Compliance Matrix: (Units=1/GPa)
#
#
# Indices 1 2 3 4 5 6 
#
# 1 0.010769 -0.002858 -0.004612 0.000000 0.000000 0.000000
# 2 -0.002858 0.011541 -0.000500 0.000000 0.000000 0.000000
# 3 -0.004612 -0.000500 0.011659 0.000000 0.000000 0.000000
# 4 0.000000 0.000000 0.000000 -0.313570 0.000000 0.000000
# 5 0.000000 0.000000 0.000000 0.000000 0.037217 0.000000
# 6 0.000000 0.000000 0.000000 0.000000 0.000000 0.036641
#
#
# Mechanical properties :
#
#
# Convention : Reuss Voigt Hill
#
# Bulk Modulus (GPa) = 55.46413 58.21697 56.84055
# Shear Modulus (GPa) = -27.20443 25.19821 -1.00311
#
# Velocity S-wave (km/s) = -3.52746 3.39490 -0.67736
# Velocity P-wave (km/s) = 2.96277 6.48034 5.03849
#
# Compressibility (1/GPa) = 0.01802967
#
# Stress axis : x y z
#
# Youngs Moduli (GPa) = 92.85965 86.64781 85.76769
#
# Poissons Ratio (x) = 0.24760 0.39559
# Poissons Ratio (y) = 0.26535 0.04287
# Poissons Ratio (z) = 0.42831 0.04331
#
# Static dielectric constant tensor:
#      x y z
#    x 3.983450 0.000000 0.000000 
#    y 0.000000 4.016020 0.000000 
#    z 0.000000 0.000000 3.857710 
# 
# 
# High freq. dielectric constant tensor:
#      x y z
#    x 1.863470 0.000000 0.000000 
#    y 0.000000 1.865700 0.000000 
#    z 0.000000 0.000000 1.855420 
# 
# From -- ./inp_files/32712.got.cif
#   From: 2010.03.12/outbox.cif.g09.slc.cpg/sg74_17_cif.got.tgz:32712.got - 2010.04.16 15:46:19.
