data_PCOD8300480
_publ_section_title
;
Structure prediction by ZEFSAII (Michael W. Deem and Ramdas Pophale) SiO2 
 PCOD8300480
Probable space group: I M M A
;
_chemical_formula_sum "Si O2"
_cell_formula_units_Z 104
_cell_length_a 16.661480
_cell_length_b 19.335954
_cell_length_c 15.190738
_cell_angle_alpha 90.000000
_cell_angle_beta 90.000000
_cell_angle_gamma 90.000000
_cell_volume 4893.933387
_symmetry_space_group_name_H-M "I M M A"
_symmetry_group_IT_number 74
_symmetry_cell_setting 'orthorhombic'
loop_
_space_group_symop_operation_xyz
x,y,z
-x,1/2-y,z
x,-y,-z
-x,1/2+y,-z
-x,-y,-z
x,1/2+y,-z
-x,y,z
x,1/2-y,z
1/2+x,1/2+y,1/2+z
1/2-x,-y,1/2+z
1/2+x,1/2-y,1/2-z
1/2-x,y,1/2-z
1/2-x,1/2-y,1/2-z
1/2+x,y,1/2-z
1/2-x,1/2+y,1/2+z
1/2+x,-y,1/2+z
loop_
_atom_site_type_symbol
_atom_site_label
_atom_site_fract_x
_atom_site_fract_y
_atom_site_fract_z
Si Si1 0.590911 0.101740 0.070453
Si Si2 0.307346 0.121164 0.585813
Si Si3 0.592606 0.424948 0.746291
Si Si4 0.217028 0.500000 0.500000
Si Si5 0.594465 0.170975 0.420728
Si Si6 0.092249 0.418261 0.238460
Si Si7 0.862700 0.173700 0.599316
O O1 0.500000 0.071939 0.060077
O O2 0.602688 0.126427 0.171704
O O3 0.658091 0.043642 0.060922
O O4 0.605618 0.162638 0.000426
O O5 0.356813 0.117742 0.675653
O O6 0.274170 0.045695 0.561245
O O7 0.364510 0.150579 0.511221
O O8 0.233608 0.172996 0.600664
O O9 0.500000 0.423683 0.718353
O O10 0.625996 0.503608 0.750979
O O11 0.601841 0.387133 0.840277
O O12 0.500000 0.159453 0.432440
O O13 0.613924 0.250000 0.396641
O O14 0.632353 0.123183 0.342821
O O15 0.000000 0.425339 0.213369
O O16 0.891325 0.250000 0.629980
#
# Coordination Sequence:
#
# PCOD8300480 Si02
#       7
#    16  16  16   8  16  16  16
#     4  10  20  37  61  86 116 154 196 244 298 354
#     4  11  22  39  60  84 120 160 197 242 303 362
#     4  11  23  39  62  89 117 155 203 252 300 355
#     4  10  21  36  59  88 118 154 194 244 297 354
#     4  10  21  38  61  89 120 156 201 248 293 354
#     4   9  19  36  60  90 119 148 191 248 301 347
#     4  11  25  41  57  85 123 160 201 250 302 358
#
# _framework density 21.250800000000002
#
# number of rings (size 3 to 8) (size 9 to 14) (size 15 to 20)
#    0.000    1.692    0.000    4.846    0.000    4.923 
#    0.000   10.769    0.000    4.615    0.000    0.000 
#    0.000    0.000    0.000    0.000    0.000    0.000 
#
# Total GULP energy -644633.551200 kJ/mol
# GULP energy per Si atom -12396.799062 kJ/mol
# Density = 2.120243 g / cm^3
# Si number density = 21.250800 Si / 1000 Ang^3
#
#
#
# Elastic Constant Matrix: (Units=GPa)
#
#
# Indices 1 2 3 4 5 6 
#
# 1 68.1160 25.4830 31.5976 0.0000 0.0000 0.0000
# 2 25.4830 101.5085 25.2263 0.0000 0.0000 0.0000
# 3 31.5976 25.2263 113.3897 0.0000 0.0000 0.0000
# 4 0.0000 0.0000 0.0000 22.0561 0.0000 0.0000
# 5 0.0000 0.0000 0.0000 0.0000 10.4736 0.0000
# 6 0.0000 0.0000 0.0000 0.0000 0.0000 12.4257
#
#
#
# Elastic Compliance Matrix: (Units=1/GPa)
#
#
# Indices 1 2 3 4 5 6 
#
# 1 0.017934 -0.003451 -0.004230 0.000000 0.000000 0.000000
# 2 -0.003451 0.011092 -0.001506 0.000000 0.000000 0.000000
# 3 -0.004230 -0.001506 0.010333 0.000000 0.000000 0.000000
# 4 0.000000 0.000000 0.000000 0.045339 0.000000 0.000000
# 5 0.000000 0.000000 0.000000 0.000000 0.095478 0.000000
# 6 0.000000 0.000000 0.000000 0.000000 0.000000 0.080479
#
#
# Mechanical properties :
#
#
# Convention : Reuss Voigt Hill
#
# Bulk Modulus (GPa) = 47.65256 49.73644 48.69450
# Shear Modulus (GPa) = 17.48110 22.37156 19.92633
#
# Velocity S-wave (km/s) = 2.87123 3.24812 3.06547
# Velocity P-wave (km/s) = 5.78485 6.12555 5.95763
#
# Compressibility (1/GPa) = 0.02098523
#
# Stress axis : x y z
#
# Youngs Moduli (GPa) = 55.75990 90.15491 96.77835
#
# Poissons Ratio (x) = 0.31113 0.40935
# Poissons Ratio (y) = 0.19243 0.14575
# Poissons Ratio (z) = 0.23585 0.13577
#
# Static dielectric constant tensor:
#      x y z
#    x 3.859280 0.000000 0.000000 
#    y 0.000000 3.812790 0.000000 
#    z 0.000000 0.000000 3.847250 
# 
# 
# High freq. dielectric constant tensor:
#      x y z
#    x 1.831390 0.000000 0.000000 
#    y 0.000000 1.819700 0.000000 
#    z 0.000000 0.000000 1.841990 
# 
# From -- ./inp_files/34309.got.cif
#   From: 2010.03.12/outbox.cif.g09.slc.cpg/sg74_18_cif.got.tgz:34309.got - 2010.04.16 15:46:19.
