data_PCOD8300558
_publ_section_title
;
Structure prediction by ZEFSAII (Michael W. Deem and Ramdas Pophale) SiO2 
 PCOD8300558
Probable space group: I M M A
;
_chemical_formula_sum "Si O2"
_cell_formula_units_Z 128
_cell_length_a 24.203496
_cell_length_b 23.203083
_cell_length_c 10.565951
_cell_angle_alpha 90.000000
_cell_angle_beta 90.000000
_cell_angle_gamma 90.000000
_cell_volume 5933.792929
_symmetry_space_group_name_H-M "I M M A"
_symmetry_group_IT_number 74
_symmetry_cell_setting 'orthorhombic'
loop_
_space_group_symop_operation_xyz
x,y,z
-x,1/2-y,z
x,-y,-z
-x,1/2+y,-z
-x,-y,-z
x,1/2+y,-z
-x,y,z
x,1/2-y,z
1/2+x,1/2+y,1/2+z
1/2-x,-y,1/2+z
1/2+x,1/2-y,1/2-z
1/2-x,y,1/2-z
1/2-x,1/2-y,1/2-z
1/2+x,y,1/2-z
1/2-x,1/2+y,1/2+z
1/2+x,-y,1/2+z
loop_
_atom_site_type_symbol
_atom_site_label
_atom_site_fract_x
_atom_site_fract_y
_atom_site_fract_z
Si Si1 0.063548 0.182583 0.337016
Si Si2 0.937333 0.122311 0.865023
Si Si3 0.667880 0.000426 0.147711
Si Si4 0.938992 0.992957 0.793507
Si Si5 0.230525 0.558546 0.924680
Si Si6 0.602637 0.182932 0.888271
Si Si7 0.613507 0.110574 0.385078
Si Si8 0.211126 0.621215 0.358519
O O1 0.076593 0.250000 0.328939
O O2 0.076096 0.160596 0.479886
O O3 0.102364 0.152090 0.233782
O O4 0.000000 0.168681 0.305357
O O5 0.923579 0.150602 0.730853
O O6 0.000000 0.139097 0.899704
O O7 0.928843 0.054090 0.855408
O O8 0.896382 0.143171 0.979493
O O9 0.609000 0.022989 0.193833
O O10 0.720336 0.042588 0.177857
O O11 0.680583 0.935915 0.198004
O O12 0.662987 0.000000 0.000000
O O13 0.931935 0.941205 0.893939
O O14 0.000000 0.990052 0.730695
O O15 0.174615 0.583644 0.863938
O O16 0.214554 0.500000 0.000000
O O17 0.253038 0.607308 0.018268
O O18 0.591133 0.250000 0.869764
O O19 0.667676 0.170352 0.894835
O O20 0.250000 0.647123 0.250000
#
# Coordination Sequence:
#
# PCOD8300558 Si02
#       8
#    16  16  16  16  16  16  16  16
#     4  10  24  47  70  94 130 175 222 277 338 393
#     4  11  23  40  64  96 132 172 216 271 330 397
#     4   9  21  37  58  93 131 175 219 262 319 395
#     4  11  23  36  59  95 137 174 208 264 332 393
#     4   9  21  37  60  94 130 178 219 265 318 397
#     4  11  24  44  69  94 124 169 226 283 335 390
#     4  12  24  40  66  99 135 174 220 264 328 394
#     4  10  20  38  62  89 126 166 218 272 327 387
#
# _framework density 21.571361
#
# number of rings (size 3 to 8) (size 9 to 14) (size 15 to 20)
#    0.000    1.875    1.250    3.375    7.000    2.750 
#    0.000    0.625    0.000    1.500    0.000    0.000 
#    0.000    0.000    0.000    0.000    0.000    0.000 
#
# Total GULP energy -793191.393990 kJ/mol
# GULP energy per Si atom -12393.615531 kJ/mol
# Density = 2.152226 g / cm^3
# Si number density = 21.571361 Si / 1000 Ang^3
#
#
#
# Elastic Constant Matrix: (Units=GPa)
#
#
# Indices 1 2 3 4 5 6 
#
# 1 161.3589 28.1607 66.7253 0.0000 0.0000 0.0000
# 2 28.1607 61.2053 39.4571 0.0000 0.0000 0.0000
# 3 66.7253 39.4571 114.0621 0.0000 0.0000 0.0000
# 4 0.0000 0.0000 0.0000 22.2303 0.0000 0.0000
# 5 0.0000 0.0000 0.0000 0.0000 32.5468 0.0000
# 6 0.0000 0.0000 0.0000 0.0000 0.0000 27.1409
#
#
#
# Elastic Compliance Matrix: (Units=1/GPa)
#
#
# Indices 1 2 3 4 5 6 
#
# 1 0.008211 -0.000877 -0.004500 0.000000 0.000000 0.000000
# 2 -0.000877 0.021121 -0.006793 0.000000 0.000000 0.000000
# 3 -0.004500 -0.006793 0.013750 0.000000 0.000000 0.000000
# 4 0.000000 0.000000 0.000000 0.044984 0.000000 0.000000
# 5 0.000000 0.000000 0.000000 0.000000 0.030725 0.000000
# 6 0.000000 0.000000 0.000000 0.000000 0.000000 0.036845
#
#
# Mechanical properties :
#
#
# Convention : Reuss Voigt Hill
#
# Bulk Modulus (GPa) = 53.35790 67.25695 60.30743
# Shear Modulus (GPa) = 26.84932 29.86913 28.35923
#
# Velocity S-wave (km/s) = 3.53182 3.72515 3.62977
# Velocity P-wave (km/s) = 6.43591 7.05328 6.75166
#
# Compressibility (1/GPa) = 0.01874137
#
# Stress axis : x y z
#
# Youngs Moduli (GPa) = 121.78280 47.34516 72.72839
#
# Poissons Ratio (x) = 0.04152 0.32729
# Poissons Ratio (y) = 0.10679 0.49408
# Poissons Ratio (z) = 0.54805 0.32164
#
# Static dielectric constant tensor:
#      x y z
#    x 4.292260 0.000000 0.000000 
#    y 0.000000 3.819010 0.000000 
#    z 0.000000 0.000000 3.798280 
# 
# 
# High freq. dielectric constant tensor:
#      x y z
#    x 1.861740 0.000000 0.000000 
#    y 0.000000 1.812130 0.000000 
#    z 0.000000 0.000000 1.860290 
# 
# From -- ./inp_files/25575.got.cif
#   From: 2010.03.12/outbox.cif.g09.slc.cpg/sg74_13_cif.got.tgz:25575.got - 2010.04.16 15:46:19.
