data_PCOD8300716
_publ_section_title
;
Structure prediction by ZEFSAII (Michael W. Deem and Ramdas Pophale) SiO2 
 PCOD8300716
Probable space group: I M M A
;
_chemical_formula_sum "Si O2"
_cell_formula_units_Z 88
_cell_length_a 9.916208
_cell_length_b 17.603770
_cell_length_c 26.188774
_cell_angle_alpha 90.000000
_cell_angle_beta 90.000000
_cell_angle_gamma 90.000000
_cell_volume 4571.581656
_symmetry_space_group_name_H-M "I M M A"
_symmetry_group_IT_number 74
_symmetry_cell_setting 'orthorhombic'
loop_
_space_group_symop_operation_xyz
x,y,z
-x,1/2-y,z
x,-y,-z
-x,1/2+y,-z
-x,-y,-z
x,1/2+y,-z
-x,y,z
x,1/2-y,z
1/2+x,1/2+y,1/2+z
1/2-x,-y,1/2+z
1/2+x,1/2-y,1/2-z
1/2-x,y,1/2-z
1/2-x,1/2-y,1/2-z
1/2+x,y,1/2-z
1/2-x,1/2+y,1/2+z
1/2+x,-y,1/2+z
loop_
_atom_site_type_symbol
_atom_site_label
_atom_site_fract_x
_atom_site_fract_y
_atom_site_fract_z
Si Si1 0.346233 0.892880 0.126643
Si Si2 0.351006 0.517742 0.791719
Si Si3 0.659542 0.750000 0.198229
Si Si4 0.156160 0.924216 0.030901
Si Si5 0.153741 0.664015 0.651502
Si Si6 0.146665 0.838604 0.933331
O O1 0.500000 0.880032 0.107493
O O2 0.303779 0.823672 0.163971
O O3 0.247614 0.902779 0.078902
O O4 0.333451 0.971870 0.156335
O O5 0.500000 0.505585 0.769213
O O6 0.250000 0.485263 0.750000
O O7 0.324244 0.607396 0.801162
O O8 0.500000 0.750000 0.213061
O O9 0.750000 0.750000 0.250000
O O10 0.000000 0.929878 0.048599
O O11 0.182380 0.855861 0.991671
O O12 0.199771 0.000000 0.000000
O O13 0.194577 0.750000 0.667802
O O14 0.242259 0.629833 0.605416
O O15 0.000000 0.661647 0.632447
O O16 0.140158 0.750000 0.926239
O O17 0.000000 0.875148 0.919898
#
# Coordination Sequence:
#
# PCOD8300716 Si02
#       6
#    16  16   8  16  16  16
#     4  10  22  38  56  80 110 142 182 229 277 330
#     4  10  21  36  54  76 103 135 173 218 267 318
#     4  10  22  40  60  84 112 144 190 244 291 342
#     4  10  21  35  53  80 111 142 179 221 265 322
#     4   9  18  33  52  76 105 137 174 214 257 311
#     4   9  18  32  50  73 103 136 170 208 250 301
#
# _framework density 19.249355000000001
#
# number of rings (size 3 to 8) (size 9 to 14) (size 15 to 20)
#    0.000    2.364    0.000    1.636    1.273    3.636 
#    0.000    0.000    0.000    0.000    0.000    0.000 
#    0.000    0.000    0.000    0.000    0.000    0.000 
#
# Total GULP energy -545340.471555 kJ/mol
# GULP energy per Si atom -12394.101626 kJ/mol
# Density = 1.920554 g / cm^3
# Si number density = 19.249355 Si / 1000 Ang^3
#
#
#
# Elastic Constant Matrix: (Units=GPa)
#
#
# Indices 1 2 3 4 5 6 
#
# 1 101.8402 29.0053 70.0567 0.0000 0.0000 0.0000
# 2 29.0053 69.0227 22.1685 0.0000 0.0000 0.0000
# 3 70.0567 22.1685 90.2204 0.0000 0.0000 0.0000
# 4 0.0000 0.0000 0.0000 23.7698 0.0000 0.0000
# 5 0.0000 0.0000 0.0000 0.0000 45.4655 0.0000
# 6 0.0000 0.0000 0.0000 0.0000 0.0000 21.8029
#
#
#
# Elastic Compliance Matrix: (Units=1/GPa)
#
#
# Indices 1 2 3 4 5 6 
#
# 1 0.022098 -0.004098 -0.016152 0.000000 0.000000 0.000000
# 2 -0.004098 0.016489 -0.000869 0.000000 0.000000 0.000000
# 3 -0.016152 -0.000869 0.023840 0.000000 0.000000 0.000000
# 4 0.000000 0.000000 0.000000 0.042070 0.000000 0.000000
# 5 0.000000 0.000000 0.000000 0.000000 0.021995 0.000000
# 6 0.000000 0.000000 0.000000 0.000000 0.000000 0.045865
#
#
# Mechanical properties :
#
#
# Convention : Reuss Voigt Hill
#
# Bulk Modulus (GPa) = 49.53556 55.94937 52.74247
# Shear Modulus (GPa) = 22.59119 27.53116 25.06117
#
# Velocity S-wave (km/s) = 3.42951 3.78595 3.61213
# Velocity P-wave (km/s) = 6.43984 6.94550 6.69744
#
# Compressibility (1/GPa) = 0.02018752
#
# Stress axis : x y z
#
# Youngs Moduli (GPa) = 45.25382 60.64488 41.94705
#
# Poissons Ratio (x) = 0.24855 0.67752
# Poissons Ratio (y) = 0.18547 0.03646
# Poissons Ratio (z) = 0.73093 0.05272
#
# Static dielectric constant tensor:
#      x y z
#    x 3.846500 0.000000 0.000000 
#    y 0.000000 3.704920 0.000000 
#    z 0.000000 0.000000 3.312690 
# 
# 
# High freq. dielectric constant tensor:
#      x y z
#    x 1.751760 0.000000 0.000000 
#    y 0.000000 1.760840 0.000000 
#    z 0.000000 0.000000 1.732160 
# 
# From -- ./inp_files/50541.got.cif
#   From: 2010.03.12/outbox.cif.g09.slc.cpg/sg74_26_cif.got.tgz:50541.got - 2010.04.16 15:46:19.
