data_PCOD8300009
_publ_section_title
;
Structure prediction by ZEFSAII (Michael W. Deem and Ramdas Pophale) SiO2 
 PCOD8300009
Probable space group: I M M A
;
_chemical_formula_sum "Si O2"
_cell_formula_units_Z 72
_cell_length_a 17.601724
_cell_length_b 14.686391
_cell_length_c 14.820379
_cell_angle_alpha 90.000000
_cell_angle_beta 90.000000
_cell_angle_gamma 90.000000
_cell_volume 3831.153944
_symmetry_space_group_name_H-M "I M M A"
_symmetry_group_IT_number 74
_symmetry_cell_setting 'orthorhombic'
loop_
_space_group_symop_operation_xyz
x,y,z
-x,1/2-y,z
x,-y,-z
-x,1/2+y,-z
-x,-y,-z
x,1/2+y,-z
-x,y,z
x,1/2-y,z
1/2+x,1/2+y,1/2+z
1/2-x,-y,1/2+z
1/2+x,1/2-y,1/2-z
1/2-x,y,1/2-z
1/2-x,1/2-y,1/2-z
1/2+x,y,1/2-z
1/2-x,1/2+y,1/2+z
1/2+x,-y,1/2+z
loop_
_atom_site_type_symbol
_atom_site_label
_atom_site_fract_x
_atom_site_fract_y
_atom_site_fract_z
Si Si1 0.346862 0.552332 0.416357
Si Si2 0.229966 0.250000 0.355019
Si Si3 0.798756 0.250000 0.963874
Si Si4 0.911873 0.070469 0.725550
Si Si5 0.707375 0.551989 0.844743
Si Si6 0.679774 0.750000 0.182112
O O1 0.387170 0.500000 0.500000
O O2 0.342820 0.660391 0.431735
O O3 0.398637 0.539195 0.328492
O O4 0.263243 0.505822 0.408964
O O5 0.250000 0.250000 0.250000
O O6 0.299504 0.250000 0.426641
O O7 0.187756 0.154888 0.378033
O O8 0.713726 0.250000 0.919603
O O9 0.871793 0.164216 0.702150
O O10 0.000000 0.077364 0.703380
O O11 0.874386 0.995331 0.660599
O O12 0.750000 0.555589 0.750000
O O13 0.750000 0.750000 0.250000
#
# Coordination Sequence:
#
# PCOD8300009 Si02
#       6
#    16   8   8  16  16   8
#     4  11  20  34  58  86 118 148 197 247 291 346
#     4  10  20  34  57  85 110 144 196 250 290 325
#     4  12  20  32  60  91 113 140 190 258 294 333
#     4  11  22  36  56  85 125 160 184 233 307 369
#     4   9  18  34  55  81 108 148 195 239 279 338
#     4  12  19  36  61  88 117 150 196 246 296 348
#
# _framework density 18.793293999999999
#
# number of rings (size 3 to 8) (size 9 to 14) (size 15 to 20)
#    0.000    1.333    6.667    1.000    0.000    0.444 
#    0.000    0.556    0.000    7.333    0.000    0.000 
#    0.000    0.000    0.000    0.000    0.000    0.000 
#
# Total GULP energy -446056.163544 kJ/mol
# GULP energy per Si atom -12390.448987 kJ/mol
# Density = 1.875052 g / cm^3
# Si number density = 18.793294 Si / 1000 Ang^3
#
#
#
# Elastic Constant Matrix: (Units=GPa)
#
#
# Indices 1 2 3 4 5 6 
#
# 1 88.2885 31.1982 -12.2618 0.0000 0.0000 0.0000
# 2 31.1982 160.7456 -7.3439 0.0000 0.0000 0.0000
# 3 -12.2618 -7.3439 41.7563 0.0000 0.0000 0.0000
# 4 0.0000 0.0000 0.0000 31.5361 0.0000 0.0000
# 5 0.0000 0.0000 0.0000 0.0000 15.5593 0.0000
# 6 0.0000 0.0000 0.0000 0.0000 0.0000 9.3268
#
#
#
# Elastic Compliance Matrix: (Units=1/GPa)
#
#
# Indices 1 2 3 4 5 6 
#
# 1 0.012595 -0.002294 0.003295 0.000000 0.000000 0.000000
# 2 -0.002294 0.006689 0.000503 0.000000 0.000000 0.000000
# 3 0.003295 0.000503 0.025004 0.000000 0.000000 0.000000
# 4 0.000000 0.000000 0.000000 0.031710 0.000000 0.000000
# 5 0.000000 0.000000 0.000000 0.000000 0.064270 0.000000
# 6 0.000000 0.000000 0.000000 0.000000 0.000000 0.107218
#
#
# Mechanical properties :
#
#
# Convention : Reuss Voigt Hill
#
# Bulk Modulus (GPa) = 21.14329 34.88617 28.01473
# Shear Modulus (GPa) = 19.21274 29.89764 24.55519
#
# Velocity S-wave (km/s) = 3.20084 3.99290 3.61860
# Velocity P-wave (km/s) = 4.99353 6.31356 5.69194
#
# Compressibility (1/GPa) = 0.04729634
#
# Stress axis : x y z
#
# Youngs Moduli (GPa) = 79.39842 149.49492 39.99282
#
# Poissons Ratio (x) = 0.34293 -0.13178
# Poissons Ratio (y) = 0.18213 -0.02011
# Poissons Ratio (z) = -0.26162 -0.07517
#
# Static dielectric constant tensor:
#      x y z
#    x 3.011880 0.000000 0.000000 
#    y 0.000000 3.992670 0.000000 
#    z 0.000000 0.000000 3.715750 
# 
# 
# High freq. dielectric constant tensor:
#      x y z
#    x 1.668890 0.000000 0.000000 
#    y 0.000000 1.757950 0.000000 
#    z 0.000000 0.000000 1.736760 
# 
# From -- ./inp_files/31954.got.cif
#   From: 2010.03.12/outbox.cif.g09.slc.cpg/sg74_16_cif.got.tgz:31954.got - 2010.04.16 15:46:19.
