data_PCOD8300259
_publ_section_title
;
Structure prediction by ZEFSAII (Michael W. Deem and Ramdas Pophale) SiO2 
 PCOD8300259
Probable space group: I M M A
;
_chemical_formula_sum "Si O2"
_cell_formula_units_Z 72
_cell_length_a 22.273029
_cell_length_b 26.301793
_cell_length_c 6.174461
_cell_angle_alpha 90.000000
_cell_angle_beta 90.000000
_cell_angle_gamma 90.000000
_cell_volume 3617.126437
_symmetry_space_group_name_H-M "I M M A"
_symmetry_group_IT_number 74
_symmetry_cell_setting 'orthorhombic'
loop_
_space_group_symop_operation_xyz
x,y,z
-x,1/2-y,z
x,-y,-z
-x,1/2+y,-z
-x,-y,-z
x,1/2+y,-z
-x,y,z
x,1/2-y,z
1/2+x,1/2+y,1/2+z
1/2-x,-y,1/2+z
1/2+x,1/2-y,1/2-z
1/2-x,y,1/2-z
1/2-x,1/2-y,1/2-z
1/2+x,y,1/2-z
1/2-x,1/2+y,1/2+z
1/2+x,-y,1/2+z
loop_
_atom_site_type_symbol
_atom_site_label
_atom_site_fract_x
_atom_site_fract_y
_atom_site_fract_z
Si Si1 0.151850 0.627545 0.432881
Si Si2 0.834352 0.942321 0.045128
Si Si3 0.432379 0.191388 0.637042
Si Si4 0.432547 0.894459 0.690231
Si Si5 0.250000 0.377361 0.250000
O O1 0.176827 0.580149 0.286663
O O2 0.120241 0.671698 0.294723
O O3 0.101243 0.602971 0.582817
O O4 0.208089 0.652140 0.571759
O O5 0.904228 0.933692 0.983865
O O6 0.797292 0.910575 0.874917
O O7 0.815357 0.000000 0.000000
O O8 0.500000 0.183837 0.736131
O O9 0.419349 0.250000 0.588771
O O10 0.428422 0.162487 0.408087
O O11 0.500000 0.912124 0.731749
#
# Coordination Sequence:
#
# PCOD8300259 Si02
#       5
#    16  16  16  16   8
#     4  10  20  36  54  81 113 149 185 234 284 328
#     4  10  22  36  56  80 106 143 190 232 278 331
#     4   9  18  34  58  85 112 147 191 233 276 333
#     4   9  19  35  54  80 114 145 180 228 282 338
#     4  10  22  34  55  78 110 146 189 236 280 326
#
# _framework density 19.905304000000001
#
# number of rings (size 3 to 8) (size 9 to 14) (size 15 to 20)
#    0.000    2.444    0.000    1.333    3.111    4.889 
#    0.000    3.889    0.000   17.333    0.000    0.000 
#    0.000    0.000    0.000    0.000    0.000    0.000 
#
# Total GULP energy -446000.911959 kJ/mol
# GULP energy per Si atom -12388.914221 kJ/mol
# Density = 1.986000 g / cm^3
# Si number density = 19.905304 Si / 1000 Ang^3
#
#
#
# Elastic Constant Matrix: (Units=GPa)
#
#
# Indices 1 2 3 4 5 6 
#
# 1 92.5518 6.4900 33.4655 0.0000 0.0000 0.0000
# 2 6.4900 59.6317 16.0034 0.0000 0.0000 0.0000
# 3 33.4655 16.0034 95.9450 0.0000 0.0000 0.0000
# 4 0.0000 0.0000 0.0000 -1.4085 0.0000 0.0000
# 5 0.0000 0.0000 0.0000 0.0000 36.4353 0.0000
# 6 0.0000 0.0000 0.0000 0.0000 0.0000 25.0825
#
#
#
# Elastic Compliance Matrix: (Units=1/GPa)
#
#
# Indices 1 2 3 4 5 6 
#
# 1 0.012366 -0.000197 -0.004280 0.000000 0.000000 0.000000
# 2 -0.000197 0.017559 -0.002860 0.000000 0.000000 0.000000
# 3 -0.004280 -0.002860 0.012393 0.000000 0.000000 0.000000
# 4 0.000000 0.000000 0.000000 -0.709951 0.000000 0.000000
# 5 0.000000 0.000000 0.000000 0.000000 0.027446 0.000000
# 6 0.000000 0.000000 0.000000 0.000000 0.000000 0.039868
#
#
# Mechanical properties :
#
#
# Convention : Reuss Voigt Hill
#
# Bulk Modulus (GPa) = 36.17623 40.00515 38.09069
# Shear Modulus (GPa) = -8.67408 24.83314 8.07953
#
# Velocity S-wave (km/s) = -2.08977 3.53592 2.01688
# Velocity P-wave (km/s) = 3.52005 6.06726 4.95996
#
# Compressibility (1/GPa) = 0.02764246
#
# Stress axis : x y z
#
# Youngs Moduli (GPa) = 80.86458 56.95216 80.69268
#
# Poissons Ratio (x) = 0.01123 0.34540
# Poissons Ratio (y) = 0.01594 0.23078
# Poissons Ratio (z) = 0.34614 0.16288
#
# Static dielectric constant tensor:
#      x y z
#    x 4.217080 0.000000 0.000000 
#    y 0.000000 3.256890 0.000000 
#    z 0.000000 0.000000 3.830380 
# 
# 
# High freq. dielectric constant tensor:
#      x y z
#    x 1.798050 0.000000 0.000000 
#    y 0.000000 1.729770 0.000000 
#    z 0.000000 0.000000 1.784590 
# 
# From -- ./inp_files/3740.got.cif
#   From: 2010.03.12/outbox.cif.g09.slc.cpg/sg74_2_cif.got.tgz:3740.got - 2010.04.16 15:46:19.
