data_PCOD8300806
_publ_section_title
;
Structure prediction by ZEFSAII (Michael W. Deem and Ramdas Pophale) SiO2 
 PCOD8300806
Probable space group: I M M A
;
_chemical_formula_sum "Si O2"
_cell_formula_units_Z 96
_cell_length_a 14.206689
_cell_length_b 30.566734
_cell_length_c 11.665304
_cell_angle_alpha 90.000000
_cell_angle_beta 90.000000
_cell_angle_gamma 90.000000
_cell_volume 5065.682569
_symmetry_space_group_name_H-M "I M M A"
_symmetry_group_IT_number 74
_symmetry_cell_setting 'orthorhombic'
loop_
_space_group_symop_operation_xyz
x,y,z
-x,1/2-y,z
x,-y,-z
-x,1/2+y,-z
-x,-y,-z
x,1/2+y,-z
-x,y,z
x,1/2-y,z
1/2+x,1/2+y,1/2+z
1/2-x,-y,1/2+z
1/2+x,1/2-y,1/2-z
1/2-x,y,1/2-z
1/2-x,1/2-y,1/2-z
1/2+x,y,1/2-z
1/2-x,1/2+y,1/2+z
1/2+x,-y,1/2+z
loop_
_atom_site_type_symbol
_atom_site_label
_atom_site_fract_x
_atom_site_fract_y
_atom_site_fract_z
Si Si1 0.727213 0.955532 0.935646
Si Si2 0.892325 0.750000 0.895795
Si Si3 0.889124 0.750000 0.148726
Si Si4 0.169161 0.158190 0.161574
Si Si5 0.756551 0.871478 0.072449
Si Si6 0.394394 0.933271 0.720422
Si Si7 0.111773 0.340955 0.742549
O O1 0.645002 0.941103 0.848280
O O2 0.827128 0.958517 0.869346
O O3 0.733242 0.920494 0.036581
O O4 0.701523 0.000000 0.000000
O O5 0.871268 0.706872 0.819843
O O6 0.000000 0.750000 0.925700
O O7 0.842121 0.750000 0.021193
O O8 0.857913 0.792361 0.219620
O O9 0.000000 0.750000 0.136268
O O10 0.250000 0.148307 0.250000
O O11 0.097541 0.118358 0.186319
O O12 0.208680 0.157415 0.033431
O O13 0.841283 0.873715 0.165117
O O14 0.660322 0.849860 0.120388
O O15 0.500000 0.952560 0.713286
O O16 0.000000 0.348477 0.735412
#
# Coordination Sequence:
#
# PCOD8300806 Si02
#       7
#    16   8   8  16  16  16  16
#     4  10  22  42  61  85 119 150 191 250 306 361
#     4  11  21  32  57  89 118 156 209 253 282 340
#     4   9  18  33  52  80 115 153 191 234 283 330
#     4  11  20  39  57  86 120 160 201 244 295 352
#     4  10  21  37  59  84 111 155 197 236 303 351
#     4  10  21  39  63  87 118 157 195 240 303 362
#     4  10  21  36  56  84 119 153 195 242 288 349
#
# _framework density 18.951049000000001
#
# number of rings (size 3 to 8) (size 9 to 14) (size 15 to 20)
#    0.000    1.833    5.000    0.750    0.000    8.667 
#    0.000    1.667    0.000    1.000    0.000    0.000 
#    0.000    0.000    0.000    0.000    0.000    0.000 
#
# Total GULP energy -594972.485355 kJ/mol
# GULP energy per Si atom -12395.260112 kJ/mol
# Density = 1.890792 g / cm^3
# Si number density = 18.951049 Si / 1000 Ang^3
#
#
#
# Elastic Constant Matrix: (Units=GPa)
#
#
# Indices 1 2 3 4 5 6 
#
# 1 117.3457 11.1213 37.2374 0.0001 -0.0001 0.0000
# 2 11.1213 100.1586 31.3180 0.0005 0.0000 -0.0001
# 3 37.2374 31.3180 79.1270 0.0030 0.0004 0.0001
# 4 0.0001 0.0005 0.0030 39.1952 0.0000 0.0000
# 5 -0.0001 0.0000 0.0004 0.0000 17.1928 0.0000
# 6 0.0000 -0.0001 0.0001 0.0000 0.0000 15.9944
#
#
#
# Elastic Compliance Matrix: (Units=1/GPa)
#
#
# Indices 1 2 3 4 5 6 
#
# 1 0.010033 0.000413 -0.004885 0.000000 0.000000 0.000000
# 2 0.000413 0.011411 -0.004711 0.000000 0.000000 0.000000
# 3 -0.004885 -0.004711 0.016802 -0.000001 0.000000 0.000000
# 4 0.000000 0.000000 -0.000001 0.025513 0.000000 0.000000
# 5 0.000000 0.000000 0.000000 0.000000 0.058164 0.000000
# 6 0.000000 0.000000 0.000000 0.000000 0.000000 0.062522
#
#
# Mechanical properties :
#
#
# Convention : Reuss Voigt Hill
#
# Bulk Modulus (GPa) = 50.30147 50.66497 50.48322
# Shear Modulus (GPa) = 23.87353 28.94012 26.40683
#
# Velocity S-wave (km/s) = 3.55314 3.91205 3.73691
# Velocity P-wave (km/s) = 6.59041 6.87010 6.73171
#
# Compressibility (1/GPa) = 0.01988013
#
# Stress axis : x y z
#
# Youngs Moduli (GPa) = 99.67265 87.63209 59.51847
#
# Poissons Ratio (x) = -0.03624 0.29076
# Poissons Ratio (y) = -0.04121 0.28040
# Poissons Ratio (z) = 0.48692 0.41285
#
# Static dielectric constant tensor:
#      x y z
#    x 3.306300 0.000000 0.000000 
#    y 0.000000 3.334380 -0.000010 
#    z 0.000000 -0.000010 3.207280 
# 
# 
# High freq. dielectric constant tensor:
#      x y z
#    x 1.726920 0.000000 0.000000 
#    y 0.000000 1.731120 0.000000 
#    z 0.000000 0.000000 1.738420 
# 
# From -- ./inp_files/21075.got.cif
#   From: 2010.03.12/outbox.cif.g09.slc.cpg/sg74_11_cif.got.tgz:21075.got - 2010.04.16 15:46:19.
