data_PCOD8300484
_publ_section_title
;
Structure prediction by ZEFSAII (Michael W. Deem and Ramdas Pophale) SiO2 
 PCOD8300484
Probable space group: I M M A
;
_chemical_formula_sum "Si O2"
_cell_formula_units_Z 80
_cell_length_a 22.323438
_cell_length_b 18.853979
_cell_length_c 9.770503
_cell_angle_alpha 90.000000
_cell_angle_beta 90.000000
_cell_angle_gamma 90.000000
_cell_volume 4112.264323
_symmetry_space_group_name_H-M "I M M A"
_symmetry_group_IT_number 74
_symmetry_cell_setting 'orthorhombic'
loop_
_space_group_symop_operation_xyz
x,y,z
-x,1/2-y,z
x,-y,-z
-x,1/2+y,-z
-x,-y,-z
x,1/2+y,-z
-x,y,z
x,1/2-y,z
1/2+x,1/2+y,1/2+z
1/2-x,-y,1/2+z
1/2+x,1/2-y,1/2-z
1/2-x,y,1/2-z
1/2-x,1/2-y,1/2-z
1/2+x,y,1/2-z
1/2-x,1/2+y,1/2+z
1/2+x,-y,1/2+z
loop_
_atom_site_type_symbol
_atom_site_label
_atom_site_fract_x
_atom_site_fract_y
_atom_site_fract_z
Si Si1 0.388557 0.083101 0.999050
Si Si2 0.566182 0.329799 0.764746
Si Si3 0.352054 0.832789 0.478896
Si Si4 0.070182 0.667605 0.756734
Si Si5 0.256053 0.070465 0.913778
O O1 0.434339 0.120140 0.896152
O O2 0.321697 0.099841 0.947728
O O3 0.400038 0.116226 0.146548
O O4 0.402046 0.000000 0.000000
O O5 0.500000 0.330586 0.699610
O O6 0.583598 0.250000 0.809701
O O7 0.611817 0.359293 0.653106
O O8 0.338007 0.750000 0.473143
O O9 0.393202 0.851461 0.607584
O O10 0.289105 0.872300 0.476128
O O11 0.078475 0.750000 0.715473
O O12 0.000000 0.650253 0.777965
O O13 0.250000 0.057985 0.750000
O O14 0.243408 0.000000 0.000000
#
# Coordination Sequence:
#
# PCOD8300484 Si02
#       5
#    16  16  16  16  16
#     4  11  24  39  59  88 121 160 203 252 296 356
#     4  10  20  37  61  88 119 157 198 245 305 361
#     4  10  22  39  64  92 120 155 202 253 298 356
#     4  10  22  41  63  90 125 161 198 246 304 362
#     4  11  25  43  64  88 123 164 203 250 304 361
#
# _framework density 19.454001999999999
#
# number of rings (size 3 to 8) (size 9 to 14) (size 15 to 20)
#    0.000    1.600    2.000    1.800    5.600    7.600 
#    0.000    2.000    0.000    3.600    0.000    0.000 
#    0.000    0.000    0.000    0.000    0.000    0.000 
#
# Total GULP energy -496022.415189 kJ/mol
# GULP energy per Si atom -12400.560380 kJ/mol
# Density = 1.940972 g / cm^3
# Si number density = 19.454002 Si / 1000 Ang^3
#
#
#
# Elastic Constant Matrix: (Units=GPa)
#
#
# Indices 1 2 3 4 5 6 
#
# 1 97.5175 48.3484 47.1537 0.0000 0.0000 0.0000
# 2 48.3484 83.0324 62.0061 0.0000 0.0000 0.0000
# 3 47.1537 62.0061 124.7804 0.0000 0.0000 0.0000
# 4 0.0000 0.0000 0.0000 27.7789 0.0000 0.0000
# 5 0.0000 0.0000 0.0000 0.0000 34.0322 0.0000
# 6 0.0000 0.0000 0.0000 0.0000 0.0000 10.2504
#
#
#
# Elastic Compliance Matrix: (Units=1/GPa)
#
#
# Indices 1 2 3 4 5 6 
#
# 1 0.014747 -0.007037 -0.002076 0.000000 0.000000 0.000000
# 2 -0.007037 0.022507 -0.008525 0.000000 0.000000 0.000000
# 3 -0.002076 -0.008525 0.013035 0.000000 0.000000 0.000000
# 4 0.000000 0.000000 0.000000 0.035998 0.000000 0.000000
# 5 0.000000 0.000000 0.000000 0.000000 0.029384 0.000000
# 6 0.000000 0.000000 0.000000 0.000000 0.000000 0.097557
#
#
# Mechanical properties :
#
#
# Convention : Reuss Voigt Hill
#
# Bulk Modulus (GPa) = 66.60753 68.92742 67.76747
# Shear Modulus (GPa) = 19.72315 24.26713 21.99514
#
# Velocity S-wave (km/s) = 3.18753 3.53570 3.36612
# Velocity P-wave (km/s) = 6.91809 7.22331 7.07234
#
# Compressibility (1/GPa) = 0.01501332
#
# Stress axis : x y z
#
# Youngs Moduli (GPa) = 67.80952 44.43035 76.71630
#
# Poissons Ratio (x) = 0.31264 0.15928
# Poissons Ratio (y) = 0.47715 0.65402
# Poissons Ratio (z) = 0.14079 0.37878
#
# Static dielectric constant tensor:
#      x y z
#    x 3.626320 0.000000 0.000000 
#    y 0.000000 3.446170 0.000000 
#    z 0.000000 0.000000 3.611900 
# 
# 
# High freq. dielectric constant tensor:
#      x y z
#    x 1.771680 0.000000 0.000000 
#    y 0.000000 1.753340 0.000000 
#    z 0.000000 0.000000 1.767080 
# 
# From -- ./inp_files/14894.got.cif
#   From: 2010.03.12/outbox.cif.g09.slc.cpg/sg74_8_cif.got.tgz:14894.got - 2010.04.16 15:46:19.
