data_PCOD8300105
_publ_section_title
;
Structure prediction by ZEFSAII (Michael W. Deem and Ramdas Pophale) SiO2 
 PCOD8300105
Probable space group: I M M A
;
_chemical_formula_sum "Si O2"
_cell_formula_units_Z 104
_cell_length_a 16.998851
_cell_length_b 15.162875
_cell_length_c 19.803417
_cell_angle_alpha 90.000000
_cell_angle_beta 90.000000
_cell_angle_gamma 90.000000
_cell_volume 5104.359503
_symmetry_space_group_name_H-M "I M M A"
_symmetry_group_IT_number 74
_symmetry_cell_setting 'orthorhombic'
loop_
_space_group_symop_operation_xyz
x,y,z
-x,1/2-y,z
x,-y,-z
-x,1/2+y,-z
-x,-y,-z
x,1/2+y,-z
-x,y,z
x,1/2-y,z
1/2+x,1/2+y,1/2+z
1/2-x,-y,1/2+z
1/2+x,1/2-y,1/2-z
1/2-x,y,1/2-z
1/2-x,1/2-y,1/2-z
1/2+x,y,1/2-z
1/2-x,1/2+y,1/2+z
1/2+x,-y,1/2+z
loop_
_atom_site_type_symbol
_atom_site_label
_atom_site_fract_x
_atom_site_fract_y
_atom_site_fract_z
Si Si1 0.243507 0.919818 0.447433
Si Si2 0.591178 0.155645 0.137664
Si Si3 0.840229 0.887221 0.773414
Si Si4 0.407965 0.750000 0.339433
Si Si5 0.584582 0.520204 0.074992
Si Si6 0.594234 0.250000 0.372599
Si Si7 0.831172 0.750000 0.015838
Si Si8 0.182114 0.419147 0.803029
O O1 0.152005 0.904915 0.423742
O O2 0.274292 0.834133 0.485618
O O3 0.290142 0.938096 0.379013
O O4 0.251059 0.000000 0.500000
O O5 0.500000 0.152569 0.119592
O O6 0.625798 0.250000 0.110416
O O7 0.602874 0.153578 0.217613
O O8 0.628238 0.067826 0.105026
O O9 0.750000 0.872433 0.750000
O O10 0.862730 0.836338 0.841955
O O11 0.860252 0.990793 0.780164
O O12 0.500000 0.750000 0.332886
O O13 0.384272 0.750000 0.417564
O O14 0.376869 0.662981 0.301574
O O15 0.500000 0.545881 0.111085
O O16 0.560402 0.500000 0.000000
O O17 0.500000 0.250000 0.360685
O O18 0.610475 0.250000 0.452461
O O19 0.250000 0.395063 0.750000
#
# Coordination Sequence:
#
# PCOD8300105 Si02
#       8
#    16  16  16   8  16   8   8  16
#     4  10  20  40  59  84 117 159 202 245 304 369
#     4  10  20  35  55  82 120 159 190 233 299 365
#     4  11  22  37  57  91 125 162 199 245 302 366
#     4  10  22  41  63  89 116 154 211 260 319 368
#     4   9  18  34  53  78 112 149 194 241 285 344
#     4  12  24  39  59  91 130 162 205 252 300 367
#     4  10  23  40  63  84 116 164 206 258 309 359
#     4  10  21  38  63  87 119 157 202 257 307 359
#
# _framework density 20.374739999999999
#
# number of rings (size 3 to 8) (size 9 to 14) (size 15 to 20)
#    0.000    1.846    0.769    3.923    0.000    2.462 
#    5.538    1.154    0.000    5.077    0.000    0.000 
#    0.000    0.000    0.000    0.000    0.000    0.000 
#
# Total GULP energy -644279.974947 kJ/mol
# GULP energy per Si atom -12389.999518 kJ/mol
# Density = 2.032837 g / cm^3
# Si number density = 20.374740 Si / 1000 Ang^3
#
#
#
# Elastic Constant Matrix: (Units=GPa)
#
#
# Indices 1 2 3 4 5 6 
#
# 1 109.6940 72.4443 19.4516 0.0000 0.0000 0.0000
# 2 72.4443 137.0090 41.8282 0.0000 0.0000 0.0000
# 3 19.4516 41.8282 74.6375 0.0000 0.0000 0.0000
# 4 0.0000 0.0000 0.0000 39.6788 0.0000 0.0000
# 5 0.0000 0.0000 0.0000 0.0000 28.5056 0.0000
# 6 0.0000 0.0000 0.0000 0.0000 0.0000 26.1902
#
#
#
# Elastic Compliance Matrix: (Units=1/GPa)
#
#
# Indices 1 2 3 4 5 6 
#
# 1 0.014030 -0.007603 0.000604 0.000000 0.000000 0.000000
# 2 -0.007603 0.012926 -0.005262 0.000000 0.000000 0.000000
# 3 0.000604 -0.005262 0.016190 0.000000 0.000000 0.000000
# 4 0.000000 0.000000 0.000000 0.025202 0.000000 0.000000
# 5 0.000000 0.000000 0.000000 0.000000 0.035081 0.000000
# 6 0.000000 0.000000 0.000000 0.000000 0.000000 0.038182
#
#
# Mechanical properties :
#
#
# Convention : Reuss Voigt Hill
#
# Bulk Modulus (GPa) = 53.69519 65.42095 59.55807
# Shear Modulus (GPa) = 29.01229 31.38267 30.19748
#
# Velocity S-wave (km/s) = 3.77760 3.92889 3.85399
# Velocity P-wave (km/s) = 6.74077 7.26362 7.00707
#
# Compressibility (1/GPa) = 0.01862364
#
# Stress axis : x y z
#
# Youngs Moduli (GPa) = 71.27387 77.36621 61.76802
#
# Poissons Ratio (x) = 0.58823 -0.03734
# Poissons Ratio (y) = 0.54191 0.32504
# Poissons Ratio (z) = -0.04308 0.40712
#
# Static dielectric constant tensor:
#      x y z
#    x 3.647450 0.000000 0.000000 
#    y 0.000000 4.009460 0.000000 
#    z 0.000000 0.000000 3.739380 
# 
# 
# High freq. dielectric constant tensor:
#      x y z
#    x 1.790660 0.000000 0.000000 
#    y 0.000000 1.797290 0.000000 
#    z 0.000000 0.000000 1.797640 
# 
# From -- ./inp_files/53137.got.cif
#   From: 2010.03.12/outbox.cif.g09.slc.cpg/sg74_27_cif.got.tgz:53137.got - 2010.04.16 15:46:19.
