data_PCOD8300890
_publ_section_title
;
Structure prediction by ZEFSAII (Michael W. Deem and Ramdas Pophale) SiO2 
 PCOD8300890
Probable space group: I M M A
;
_chemical_formula_sum "Si O2"
_cell_formula_units_Z 56
_cell_length_a 13.595085
_cell_length_b 10.200134
_cell_length_c 19.992766
_cell_angle_alpha 90.000000
_cell_angle_beta 90.000000
_cell_angle_gamma 90.000000
_cell_volume 2772.430624
_symmetry_space_group_name_H-M "I M M A"
_symmetry_group_IT_number 74
_symmetry_cell_setting 'orthorhombic'
loop_
_space_group_symop_operation_xyz
x,y,z
-x,1/2-y,z
x,-y,-z
-x,1/2+y,-z
-x,-y,-z
x,1/2+y,-z
-x,y,z
x,1/2-y,z
1/2+x,1/2+y,1/2+z
1/2-x,-y,1/2+z
1/2+x,1/2-y,1/2-z
1/2-x,y,1/2-z
1/2-x,1/2-y,1/2-z
1/2+x,y,1/2-z
1/2-x,1/2+y,1/2+z
1/2+x,-y,1/2+z
loop_
_atom_site_type_symbol
_atom_site_label
_atom_site_fract_x
_atom_site_fract_y
_atom_site_fract_z
Si Si1 0.605616 0.750000 0.161138
Si Si2 0.890039 0.028717 0.290699
Si Si3 0.884686 0.250000 0.049503
Si Si4 0.300039 0.250000 0.596887
Si Si5 0.688159 0.464379 0.351542
O O1 0.500000 0.750000 0.124809
O O2 0.616700 0.628212 0.211072
O O3 0.681618 0.750000 0.099956
O O4 0.804452 0.072902 0.342526
O O5 0.867884 0.078398 0.216036
O O6 0.000000 0.077674 0.312500
O O7 0.853938 0.380847 0.087915
O O8 0.000000 0.250000 0.036458
O O9 0.830522 0.250000 0.979298
O O10 0.335661 0.382732 0.633842
#
# Coordination Sequence:
#
# PCOD8300890 Si02
#       5
#     8  16   8   8  16
#     4   8  15  31  57  87 111 134 174 228 275 311
#     4   9  17  32  57  85 111 139 175 223 275 320
#     4  12  26  40  53  75 111 149 181 218 267 323
#     4  10  21  38  58  80 108 145 187 222 256 311
#     4  10  21  37  57  82 111 142 179 223 268 317
#
# _framework density 20.198882000000001
#
# number of rings (size 3 to 8) (size 9 to 14) (size 15 to 20)
#    0.000    2.286    0.000    2.571    0.000    9.143 
#    0.000    3.571    0.000    6.857    0.000    0.000 
#    0.000    0.000    0.000    0.000    0.000    0.000 
#
# Total GULP energy -346968.783771 kJ/mol
# GULP energy per Si atom -12391.742278 kJ/mol
# Density = 2.015291 g / cm^3
# Si number density = 20.198882 Si / 1000 Ang^3
#
#
#
# Elastic Constant Matrix: (Units=GPa)
#
#
# Indices 1 2 3 4 5 6 
#
# 1 122.8946 20.0288 45.2242 0.0000 0.0000 0.0000
# 2 20.0288 69.4298 18.7313 0.0000 0.0000 0.0000
# 3 45.2242 18.7313 105.8080 0.0000 0.0000 0.0000
# 4 0.0000 0.0000 0.0000 35.2862 0.0000 0.0000
# 5 0.0000 0.0000 0.0000 0.0000 25.5931 0.0000
# 6 0.0000 0.0000 0.0000 0.0000 0.0000 21.9209
#
#
#
# Elastic Compliance Matrix: (Units=1/GPa)
#
#
# Indices 1 2 3 4 5 6 
#
# 1 0.009864 -0.001794 -0.003898 0.000000 0.000000 0.000000
# 2 -0.001794 0.015452 -0.001969 0.000000 0.000000 0.000000
# 3 -0.003898 -0.001969 0.011466 0.000000 0.000000 0.000000
# 4 0.000000 0.000000 0.000000 0.028340 0.000000 0.000000
# 5 0.000000 0.000000 0.000000 0.000000 0.039073 0.000000
# 6 0.000000 0.000000 0.000000 0.000000 0.000000 0.045619
#
#
# Mechanical properties :
#
#
# Convention : Reuss Voigt Hill
#
# Bulk Modulus (GPa) = 46.59930 51.78900 49.19415
# Shear Modulus (GPa) = 29.02117 30.83657 29.92887
#
# Velocity S-wave (km/s) = 3.79459 3.91147 3.85347
# Velocity P-wave (km/s) = 6.50529 6.78931 6.64882
#
# Compressibility (1/GPa) = 0.02145955
#
# Stress axis : x y z
#
# Youngs Moduli (GPa) = 101.37868 64.71813 87.21515
#
# Poissons Ratio (x) = 0.11609 0.34001
# Poissons Ratio (y) = 0.18185 0.17170
# Poissons Ratio (z) = 0.39522 0.12741
#
# Static dielectric constant tensor:
#      x y z
#    x 4.057150 0.000000 0.000000 
#    y 0.000000 3.640330 0.000000 
#    z 0.000000 0.000000 3.313320 
# 
# 
# High freq. dielectric constant tensor:
#      x y z
#    x 1.802890 0.000000 0.000000 
#    y 0.000000 1.787760 0.000000 
#    z 0.000000 0.000000 1.758560 
# 
# From -- ./inp_files/40602.got.cif
#   From: 2010.03.12/outbox.cif.g09.slc.cpg/sg74_21_cif.got.tgz:40602.got - 2010.04.16 15:46:19.
