data_PCOD8300336
_publ_section_title
;
Structure prediction by ZEFSAII (Michael W. Deem and Ramdas Pophale) SiO2 
 PCOD8300336
Probable space group: I M M A
;
_chemical_formula_sum "Si O2"
_cell_formula_units_Z 72
_cell_length_a 9.077512
_cell_length_b 14.269299
_cell_length_c 29.998679
_cell_angle_alpha 90.000000
_cell_angle_beta 90.000000
_cell_angle_gamma 90.000000
_cell_volume 3885.720878
_symmetry_space_group_name_H-M "I M M A"
_symmetry_group_IT_number 74
_symmetry_cell_setting 'orthorhombic'
loop_
_space_group_symop_operation_xyz
x,y,z
-x,1/2-y,z
x,-y,-z
-x,1/2+y,-z
-x,-y,-z
x,1/2+y,-z
-x,y,z
x,1/2-y,z
1/2+x,1/2+y,1/2+z
1/2-x,-y,1/2+z
1/2+x,1/2-y,1/2-z
1/2-x,y,1/2-z
1/2-x,1/2-y,1/2-z
1/2+x,y,1/2-z
1/2-x,1/2+y,1/2+z
1/2+x,-y,1/2+z
loop_
_atom_site_type_symbol
_atom_site_label
_atom_site_fract_x
_atom_site_fract_y
_atom_site_fract_z
Si Si1 0.170332 0.445331 0.625834
Si Si2 0.828687 0.567429 0.540461
Si Si3 0.672875 0.046806 0.297677
Si Si4 0.328723 0.250000 0.917488
Si Si5 0.825384 0.750000 0.988102
Si Si6 0.168847 0.250000 0.204293
O O1 0.210209 0.515324 0.586014
O O2 0.266079 0.469118 0.668939
O O3 0.210980 0.340213 0.611692
O O4 0.000000 0.453766 0.638798
O O5 0.784558 0.500000 0.500000
O O6 0.730736 0.659950 0.538715
O O7 0.000000 0.595119 0.537221
O O8 0.500000 0.030502 0.291038
O O9 0.750000 0.035578 0.250000
O O10 0.706755 0.150751 0.319703
O O11 0.500000 0.250000 0.931903
O O12 0.233629 0.250000 0.961864
O O13 0.000000 0.750000 0.988878
O O14 0.250000 0.250000 0.250000
O O15 0.000000 0.250000 0.217311
#
# Coordination Sequence:
#
# PCOD8300336 Si02
#       6
#    16  16  16   8   8   8
#     4  10  21  37  61  86 109 145 194 243 287 338
#     4  10  20  38  61  82 110 151 196 236 281 342
#     4  10  20  36  58  84 118 151 188 233 283 343
#     4  10  20  40  62  80 108 151 200 237 284 351
#     4  12  24  35  55  87 123 153 188 239 294 345
#     4   8  16  31  52  77 105 144 178 214 269 328
#
# _framework density 18.529381000000001
#
# number of rings (size 3 to 8) (size 9 to 14) (size 15 to 20)
#    0.000    2.000    2.222    1.667    0.000    4.000 
#    0.000    2.778    0.000    0.000    0.000    0.000 
#    0.000    0.000    0.000    0.000    0.000    0.000 
#
# Total GULP energy -446305.636802 kJ/mol
# GULP energy per Si atom -12397.378800 kJ/mol
# Density = 1.848721 g / cm^3
# Si number density = 18.529381 Si / 1000 Ang^3
#
#
#
# Elastic Constant Matrix: (Units=GPa)
#
#
# Indices 1 2 3 4 5 6 
#
# 1 90.1994 72.1557 53.2655 0.0000 0.0000 0.0000
# 2 72.1557 158.6506 66.6448 0.0000 0.0000 0.0000
# 3 53.2655 66.6448 101.8508 0.0000 0.0000 0.0000
# 4 0.0000 0.0000 0.0000 26.1297 0.0000 0.0000
# 5 0.0000 0.0000 0.0000 0.0000 31.7106 0.0000
# 6 0.0000 0.0000 0.0000 0.0000 0.0000 15.3381
#
#
#
# Elastic Compliance Matrix: (Units=1/GPa)
#
#
# Indices 1 2 3 4 5 6 
#
# 1 0.019901 -0.006453 -0.006186 0.000000 0.000000 0.000000
# 2 -0.006453 0.010785 -0.003682 0.000000 0.000000 0.000000
# 3 -0.006186 -0.003682 0.015463 0.000000 0.000000 0.000000
# 4 0.000000 0.000000 0.000000 0.038271 0.000000 0.000000
# 5 0.000000 0.000000 0.000000 0.000000 0.031535 0.000000
# 6 0.000000 0.000000 0.000000 0.000000 0.000000 0.065197
#
#
# Mechanical properties :
#
#
# Convention : Reuss Voigt Hill
#
# Bulk Modulus (GPa) = 74.03334 81.64810 77.84072
# Shear Modulus (GPa) = 22.90474 25.21134 24.05804
#
# Velocity S-wave (km/s) = 3.51968 3.69265 3.60720
# Velocity P-wave (km/s) = 7.52056 7.89561 7.71037
#
# Compressibility (1/GPa) = 0.01350743
#
# Stress axis : x y z
#
# Youngs Moduli (GPa) = 50.24779 92.72323 64.67238
#
# Poissons Ratio (x) = 0.59834 0.40003
# Poissons Ratio (y) = 0.32425 0.23813
# Poissons Ratio (z) = 0.31081 0.34142
#
# Static dielectric constant tensor:
#      x y z
#    x 3.277170 0.000000 0.000000 
#    y 0.000000 3.785280 0.000000 
#    z 0.000000 0.000000 3.157750 
# 
# 
# High freq. dielectric constant tensor:
#      x y z
#    x 1.715960 0.000000 0.000000 
#    y 0.000000 1.731510 0.000000 
#    z 0.000000 0.000000 1.703760 
# 
# From -- ./inp_files/66780.got.cif
#   From: 2010.03.12/outbox.cif.g09.slc.cpg/sg74_34_cif.got.tgz:66780.got - 2010.04.16 15:46:19.
