data_PCOD8300948
_publ_section_title
;
Structure prediction by ZEFSAII (Michael W. Deem and Ramdas Pophale) SiO2 
 PCOD8300948
Probable space group: I M M A
;
_chemical_formula_sum "Si O2"
_cell_formula_units_Z 104
_cell_length_a 8.658006
_cell_length_b 25.768780
_cell_length_c 22.268367
_cell_angle_alpha 90.000000
_cell_angle_beta 90.000000
_cell_angle_gamma 90.000000
_cell_volume 4968.211896
_symmetry_space_group_name_H-M "I M M A"
_symmetry_group_IT_number 74
_symmetry_cell_setting 'orthorhombic'
loop_
_space_group_symop_operation_xyz
x,y,z
-x,1/2-y,z
x,-y,-z
-x,1/2+y,-z
-x,-y,-z
x,1/2+y,-z
-x,y,z
x,1/2-y,z
1/2+x,1/2+y,1/2+z
1/2-x,-y,1/2+z
1/2+x,1/2-y,1/2-z
1/2-x,y,1/2-z
1/2-x,1/2-y,1/2-z
1/2+x,y,1/2-z
1/2-x,1/2+y,1/2+z
1/2+x,-y,1/2+z
loop_
_atom_site_type_symbol
_atom_site_label
_atom_site_fract_x
_atom_site_fract_y
_atom_site_fract_z
Si Si1 0.682775 0.462887 0.184517
Si Si2 0.181226 0.640409 0.861800
Si Si3 0.818403 0.480868 0.934430
Si Si4 0.820577 0.861545 0.071802
Si Si5 0.820128 0.690896 0.534535
Si Si6 0.817819 0.750000 0.814085
Si Si7 0.179919 0.192576 0.809724
O O1 0.500000 0.469255 0.187816
O O2 0.750000 0.481474 0.250000
O O3 0.727209 0.402614 0.175472
O O4 0.743494 0.492976 0.125071
O O5 0.226252 0.644074 0.931842
O O6 0.243731 0.697298 0.843458
O O7 0.000000 0.630825 0.852225
O O8 0.774870 0.420969 0.935531
O O9 0.000000 0.492006 0.928533
O O10 0.757588 0.500000 0.000000
O O11 0.777190 0.847857 0.139315
O O12 0.000000 0.851241 0.056591
O O13 0.714412 0.822546 0.034030
O O14 0.761885 0.750000 0.548389
O O15 0.000000 0.686291 0.549019
O O16 0.750000 0.750000 0.750000
O O17 0.000000 0.750000 0.814149
O O18 0.250105 0.250000 0.822491
O O19 0.250000 0.167857 0.750000
O O20 0.000000 0.197755 0.801456
#
# Coordination Sequence:
#
# PCOD8300948 Si02
#       7
#    16  16  16  16  16   8  16
#     4  12  26  44  67  95 128 169 214 265 322 381
#     4  11  22  40  62  88 121 162 207 250 304 364
#     4  10  22  42  66  93 124 162 210 266 324 381
#     4  10  21  37  60  87 117 156 202 252 308 370
#     4  11  23  37  57  90 129 167 207 254 307 365
#     4  10  22  36  56  84 114 152 193 236 287 344
#     4   9  18  33  53  79 112 150 190 235 293 359
#
# _framework density 20.933084000000001
#
# number of rings (size 3 to 8) (size 9 to 14) (size 15 to 20)
#    0.000    1.538    0.769    4.154    0.000    7.385 
#    0.000    3.077    0.000    0.000    0.000    0.000 
#    0.000    0.000    0.000    0.000    0.000    0.000 
#
# Total GULP energy -644445.285044 kJ/mol
# GULP energy per Si atom -12393.178559 kJ/mol
# Density = 2.088544 g / cm^3
# Si number density = 20.933084 Si / 1000 Ang^3
#
#
#
# Elastic Constant Matrix: (Units=GPa)
#
#
# Indices 1 2 3 4 5 6 
#
# 1 62.8345 24.5916 41.9079 0.0000 0.0000 0.0000
# 2 24.5916 79.1353 45.8230 0.0000 0.0000 0.0000
# 3 41.9079 45.8230 145.0686 0.0000 0.0000 0.0000
# 4 0.0000 0.0000 0.0000 59.5460 0.0000 0.0000
# 5 0.0000 0.0000 0.0000 0.0000 40.4991 0.0000
# 6 0.0000 0.0000 0.0000 0.0000 0.0000 28.7727
#
#
#
# Elastic Compliance Matrix: (Units=1/GPa)
#
#
# Indices 1 2 3 4 5 6 
#
# 1 0.020519 -0.003603 -0.004790 0.000000 0.000000 0.000000
# 2 -0.003603 0.016098 -0.004044 0.000000 0.000000 0.000000
# 3 -0.004790 -0.004044 0.009554 0.000000 0.000000 0.000000
# 4 0.000000 0.000000 0.000000 0.016794 0.000000 0.000000
# 5 0.000000 0.000000 0.000000 0.000000 0.024692 0.000000
# 6 0.000000 0.000000 0.000000 0.000000 0.000000 0.034755
#
#
# Mechanical properties :
#
#
# Convention : Reuss Voigt Hill
#
# Bulk Modulus (GPa) = 46.95219 56.85371 51.90295
# Shear Modulus (GPa) = 32.38650 37.41128 34.89889
#
# Velocity S-wave (km/s) = 3.93764 4.23210 4.08752
# Velocity P-wave (km/s) = 6.56900 7.14840 6.86481
#
# Compressibility (1/GPa) = 0.02129826
#
# Stress axis : x y z
#
# Youngs Moduli (GPa) = 48.73433 62.11985 104.66488
#
# Poissons Ratio (x) = 0.22382 0.50130
# Poissons Ratio (y) = 0.17559 0.42326
# Poissons Ratio (z) = 0.23342 0.25121
#
# Static dielectric constant tensor:
#      x y z
#    x 3.550170 0.000000 0.000000 
#    y 0.000000 3.842430 0.000000 
#    z 0.000000 0.000000 4.066180 
# 
# 
# High freq. dielectric constant tensor:
#      x y z
#    x 1.806620 0.000000 0.000000 
#    y 0.000000 1.820120 0.000000 
#    z 0.000000 0.000000 1.839090 
# 
# From -- ./inp_files/49336.got.cif
#   From: 2010.03.12/outbox.cif.g09.slc.cpg/sg74_25_cif.got.tgz:49336.got - 2010.04.16 15:46:19.
