data_PCOD8300860
_publ_section_title
;
Structure prediction by ZEFSAII (Michael W. Deem and Ramdas Pophale) SiO2 
 PCOD8300860
Probable space group: I M M A
;
_chemical_formula_sum "Si O2"
_cell_formula_units_Z 104
_cell_length_a 31.811739
_cell_length_b 8.858742
_cell_length_c 20.380232
_cell_angle_alpha 90.000000
_cell_angle_beta 90.000000
_cell_angle_gamma 90.000000
_cell_volume 5743.393703
_symmetry_space_group_name_H-M "I M M A"
_symmetry_group_IT_number 74
_symmetry_cell_setting 'orthorhombic'
loop_
_space_group_symop_operation_xyz
x,y,z
-x,1/2-y,z
x,-y,-z
-x,1/2+y,-z
-x,-y,-z
x,1/2+y,-z
-x,y,z
x,1/2-y,z
1/2+x,1/2+y,1/2+z
1/2-x,-y,1/2+z
1/2+x,1/2-y,1/2-z
1/2-x,y,1/2-z
1/2-x,1/2-y,1/2-z
1/2+x,y,1/2-z
1/2-x,1/2+y,1/2+z
1/2+x,-y,1/2+z
loop_
_atom_site_type_symbol
_atom_site_label
_atom_site_fract_x
_atom_site_fract_y
_atom_site_fract_z
Si Si1 0.187929 0.075057 0.565876
Si Si2 0.154288 0.072427 0.170916
Si Si3 0.500000 0.573664 0.568782
Si Si4 0.862453 0.421546 0.321890
Si Si5 0.931762 0.073784 0.846367
Si Si6 0.453551 0.078105 0.216033
Si Si7 0.215173 0.929195 0.068860
O O1 0.183307 0.250000 0.554862
O O2 0.236083 0.028418 0.577446
O O3 0.169848 0.000000 0.500000
O O4 0.160670 0.030415 0.628368
O O5 0.149983 0.250000 0.157024
O O6 0.155181 0.041604 0.249137
O O7 0.115347 0.980971 0.142082
O O8 0.194289 0.006006 0.132672
O O9 0.500000 0.750000 0.562546
O O10 0.500000 0.500000 0.500000
O O11 0.458122 0.521396 0.603387
O O12 0.851546 0.250000 0.340221
O O13 0.913021 0.449556 0.330278
O O14 0.935638 0.250000 0.860878
O O15 0.949757 0.040195 0.774468
O O16 0.500000 0.055742 0.182063
O O17 0.450083 0.250000 0.243644
O O18 0.207016 0.750000 0.068437
O O19 0.198404 0.000000 0.000000
#
# Coordination Sequence:
#
# PCOD8300860 Si02
#       7
#    16  16   8  16  16  16  16
#     4  10  21  37  58  81 109 144 180 223 274 329
#     4  10  21  37  56  80 110 145 181 224 275 323
#     4  12  24  38  52  70  98 134 179 226 271 322
#     4   9  19  34  54  83 113 143 182 223 270 324
#     4  11  21  34  52  76 103 135 175 220 269 316
#     4   9  17  32  55  79 107 143 177 214 262 318
#     4  10  21  37  56  79 106 142 186 228 274 329
#
# _framework density 18.107761
#
# number of rings (size 3 to 8) (size 9 to 14) (size 15 to 20)
#    0.000    2.000    0.769    4.385    0.000    6.154 
#    0.000    6.154    0.000    0.462    0.000    0.000 
#    0.000    0.000    0.000    0.000    0.000    0.000 
#
# Total GULP energy -644605.304841 kJ/mol
# GULP energy per Si atom -12396.255862 kJ/mol
# Density = 1.806655 g / cm^3
# Si number density = 18.107761 Si / 1000 Ang^3
#
#
#
# Elastic Constant Matrix: (Units=GPa)
#
#
# Indices 1 2 3 4 5 6 
#
# 1 99.0956 40.9117 52.7584 0.0000 0.0000 0.0000
# 2 40.9117 103.3854 38.0875 0.0000 0.0000 0.0000
# 3 52.7584 38.0875 83.5436 0.0000 0.0000 0.0000
# 4 0.0000 0.0000 0.0000 34.1021 0.0000 0.0000
# 5 0.0000 0.0000 0.0000 0.0000 17.3794 0.0000
# 6 0.0000 0.0000 0.0000 0.0000 0.0000 30.7606
#
#
#
# Elastic Compliance Matrix: (Units=1/GPa)
#
#
# Indices 1 2 3 4 5 6 
#
# 1 0.016007 -0.003137 -0.008678 0.000000 0.000000 0.000000
# 2 -0.003137 0.012240 -0.003599 0.000000 0.000000 0.000000
# 3 -0.008678 -0.003599 0.019091 0.000000 0.000000 0.000000
# 4 0.000000 0.000000 0.000000 0.029324 0.000000 0.000000
# 5 0.000000 0.000000 0.000000 0.000000 0.057539 0.000000
# 6 0.000000 0.000000 0.000000 0.000000 0.000000 0.032509
#
#
# Mechanical properties :
#
#
# Convention : Reuss Voigt Hill
#
# Bulk Modulus (GPa) = 60.57348 61.05999 60.81673
# Shear Modulus (GPa) = 24.62558 26.73291 25.67925
#
# Velocity S-wave (km/s) = 3.69175 3.84646 3.76990
# Velocity P-wave (km/s) = 7.19001 7.31578 7.25317
#
# Compressibility (1/GPa) = 0.01650888
#
# Stress axis : x y z
#
# Youngs Moduli (GPa) = 62.47409 81.70031 52.38105
#
# Poissons Ratio (x) = 0.25630 0.45457
# Poissons Ratio (y) = 0.19599 0.18852
# Poissons Ratio (z) = 0.54216 0.29404
#
# Static dielectric constant tensor:
#      x y z
#    x 3.512860 0.000000 0.000000 
#    y 0.000000 3.395220 0.000000 
#    z 0.000000 0.000000 3.141270 
# 
# 
# High freq. dielectric constant tensor:
#      x y z
#    x 1.707870 0.000000 0.000000 
#    y 0.000000 1.714300 0.000000 
#    z 0.000000 0.000000 1.676710 
# 
# From -- ./inp_files/55635.got.cif
#   From: 2010.03.12/outbox.cif.g09.slc.cpg/sg74_28_cif.got.tgz:55635.got - 2010.04.16 15:46:19.
