data_PCOD8300990
_publ_section_title
;
Structure prediction by ZEFSAII (Michael W. Deem and Ramdas Pophale) SiO2 
 PCOD8300990
Probable space group: I M M A
;
_chemical_formula_sum "Si O2"
_cell_formula_units_Z 96
_cell_length_a 19.680642
_cell_length_b 20.757232
_cell_length_c 11.680576
_cell_angle_alpha 90.000000
_cell_angle_beta 90.000000
_cell_angle_gamma 90.000000
_cell_volume 4771.698119
_symmetry_space_group_name_H-M "I M M A"
_symmetry_group_IT_number 74
_symmetry_cell_setting 'orthorhombic'
loop_
_space_group_symop_operation_xyz
x,y,z
-x,1/2-y,z
x,-y,-z
-x,1/2+y,-z
-x,-y,-z
x,1/2+y,-z
-x,y,z
x,1/2-y,z
1/2+x,1/2+y,1/2+z
1/2-x,-y,1/2+z
1/2+x,1/2-y,1/2-z
1/2-x,y,1/2-z
1/2-x,1/2-y,1/2-z
1/2+x,y,1/2-z
1/2-x,1/2+y,1/2+z
1/2+x,-y,1/2+z
loop_
_atom_site_type_symbol
_atom_site_label
_atom_site_fract_x
_atom_site_fract_y
_atom_site_fract_z
Si Si1 0.577517 0.580326 0.789672
Si Si2 0.577512 0.321376 0.022467
Si Si3 0.171870 0.364239 0.668859
Si Si4 0.688080 0.821850 0.408500
Si Si5 0.204459 0.005167 0.367259
Si Si6 0.339040 0.939024 0.577657
O O1 0.500000 0.554383 0.802811
O O2 0.584440 0.649997 0.849630
O O3 0.631178 0.537018 0.857319
O O4 0.597039 0.581538 0.656110
O O5 0.500000 0.318885 0.984226
O O6 0.609528 0.250000 0.025208
O O7 0.613103 0.364669 0.925643
O O8 0.232565 0.319746 0.623058
O O9 0.145722 0.338632 0.792374
O O10 0.200765 0.435642 0.690309
O O11 0.667066 0.750000 0.451811
O O12 0.677027 0.875489 0.505008
O O13 0.276501 0.042331 0.332422
O O14 0.222607 0.000000 0.500000
O O15 0.360735 0.000000 0.500000
#
# Coordination Sequence:
#
# PCOD8300990 Si02
#       6
#    16  16  16  16  16  16
#     4  11  24  38  59  89 120 155 203 251 297 357
#     4  10  21  38  58  82 116 156 195 242 302 359
#     4  11  20  37  59  87 119 150 191 247 307 357
#     4  11  22  35  59  90 118 152 200 251 299 355
#     4  11  20  36  63  87 116 157 194 246 306 364
#     4  11  22  41  61  86 121 166 202 242 304 366
#
# _framework density 20.118625000000002
#
# number of rings (size 3 to 8) (size 9 to 14) (size 15 to 20)
#    0.000    1.167    5.000    3.500    2.333    2.000 
#    0.000    0.833    0.000    5.000    0.000    0.000 
#    0.000    0.000    0.000    0.000    0.000    0.000 
#
# Total GULP energy -594866.830751 kJ/mol
# GULP energy per Si atom -12393.058974 kJ/mol
# Density = 2.007283 g / cm^3
# Si number density = 20.118625 Si / 1000 Ang^3
#
#
#
# Elastic Constant Matrix: (Units=GPa)
#
#
# Indices 1 2 3 4 5 6 
#
# 1 102.9853 32.4444 41.2495 0.0000 0.0000 0.0000
# 2 32.4444 144.1044 43.3925 0.0000 0.0000 0.0000
# 3 41.2495 43.3925 73.3640 0.0000 0.0000 0.0000
# 4 0.0000 0.0000 0.0000 28.0521 0.0000 0.0000
# 5 0.0000 0.0000 0.0000 0.0000 16.6424 0.0000
# 6 0.0000 0.0000 0.0000 0.0000 0.0000 10.5666
#
#
#
# Elastic Compliance Matrix: (Units=1/GPa)
#
#
# Indices 1 2 3 4 5 6 
#
# 1 0.012619 -0.000857 -0.006588 0.000000 0.000000 0.000000
# 2 -0.000857 0.008501 -0.004546 0.000000 0.000000 0.000000
# 3 -0.006588 -0.004546 0.020024 0.000000 0.000000 0.000000
# 4 0.000000 0.000000 0.000000 0.035648 0.000000 0.000000
# 5 0.000000 0.000000 0.000000 0.000000 0.060088 0.000000
# 6 0.000000 0.000000 0.000000 0.000000 0.000000 0.094638
#
#
# Mechanical properties :
#
#
# Convention : Reuss Voigt Hill
#
# Bulk Modulus (GPa) = 58.27192 61.62516 59.94854
# Shear Modulus (GPa) = 19.14085 24.61003 21.87544
#
# Velocity S-wave (km/s) = 3.08782 3.50129 3.30104
# Velocity P-wave (km/s) = 6.46064 6.85877 6.66268
#
# Compressibility (1/GPa) = 0.01716092
#
# Stress axis : x y z
#
# Youngs Moduli (GPa) = 79.24572 117.62768 49.94050
#
# Poissons Ratio (x) = 0.10084 0.32901
# Poissons Ratio (y) = 0.06794 0.22704
# Poissons Ratio (z) = 0.52207 0.53477
#
# Static dielectric constant tensor:
#      x y z
#    x 3.542910 0.000000 0.000000 
#    y 0.000000 3.729870 0.000000 
#    z 0.000000 0.000000 4.053600 
# 
# 
# High freq. dielectric constant tensor:
#      x y z
#    x 1.766350 0.000000 0.000000 
#    y 0.000000 1.784460 0.000000 
#    z 0.000000 0.000000 1.802450 
# 
# From -- ./inp_files/23953.got.cif
#   From: 2010.03.12/outbox.cif.g09.slc.cpg/sg74_12_cif.got.tgz:23953.got - 2010.04.16 15:46:19.
