data_PCOD8300996
_publ_section_title
;
Structure prediction by ZEFSAII (Michael W. Deem and Ramdas Pophale) SiO2 
 PCOD8300996
Probable space group: I M M A
;
_chemical_formula_sum "Si O2"
_cell_formula_units_Z 104
_cell_length_a 8.809777
_cell_length_b 21.936246
_cell_length_c 28.320533
_cell_angle_alpha 90.000000
_cell_angle_beta 90.000000
_cell_angle_gamma 90.000000
_cell_volume 5473.040297
_symmetry_space_group_name_H-M "I M M A"
_symmetry_group_IT_number 74
_symmetry_cell_setting 'orthorhombic'
loop_
_space_group_symop_operation_xyz
x,y,z
-x,1/2-y,z
x,-y,-z
-x,1/2+y,-z
-x,-y,-z
x,1/2+y,-z
-x,y,z
x,1/2-y,z
1/2+x,1/2+y,1/2+z
1/2-x,-y,1/2+z
1/2+x,1/2-y,1/2-z
1/2-x,y,1/2-z
1/2-x,1/2-y,1/2-z
1/2+x,y,1/2-z
1/2-x,1/2+y,1/2+z
1/2+x,-y,1/2+z
loop_
_atom_site_type_symbol
_atom_site_label
_atom_site_fract_x
_atom_site_fract_y
_atom_site_fract_z
Si Si1 0.329993 0.178142 0.296528
Si Si2 0.178181 0.250000 0.697867
Si Si3 0.179701 0.011389 0.800087
Si Si4 0.821036 0.623815 0.350555
Si Si5 0.174716 0.573921 0.057299
Si Si6 0.824551 0.592597 0.638774
Si Si7 0.675179 0.931685 0.548102
O O1 0.500000 0.150804 0.299526
O O2 0.335551 0.250000 0.296636
O O3 0.250000 0.152081 0.250000
O O4 0.225860 0.156579 0.339269
O O5 0.250000 0.250000 0.750000
O O6 0.227562 0.191175 0.666898
O O7 0.000000 0.250000 0.706208
O O8 0.250000 0.992846 0.750000
O O9 0.237864 0.077376 0.815687
O O10 0.000000 0.013171 0.795839
O O11 0.227373 0.962276 0.839160
O O12 0.774129 0.611501 0.405042
O O13 0.000000 0.613996 0.346337
O O14 0.213032 0.502703 0.055323
O O15 0.000000 0.584569 0.071081
O O16 0.209375 0.595732 0.003823
O O17 0.786825 0.602261 0.583846
O O18 0.000000 0.579023 0.647074
O O19 0.500000 0.919773 0.560741
#
# Coordination Sequence:
#
# PCOD8300996 Si02
#       7
#    16   8  16  16  16  16  16
#     4  10  21  38  59  81 109 148 189 229 274 327
#     4  10  24  42  60  84 116 154 196 244 293 350
#     4  12  24  38  55  80 115 149 186 232 284 337
#     4  11  22  38  59  85 115 149 191 237 291 348
#     4   9  18  34  58  85 113 148 184 228 279 336
#     4  12  23  35  55  85 116 148 186 229 281 335
#     4   9  18  34  56  84 117 148 185 227 278 335
#
# _framework density 19.002236
#
# number of rings (size 3 to 8) (size 9 to 14) (size 15 to 20)
#    0.000    1.538    1.538    5.538    0.000    4.000 
#    0.000    1.538    1.692    0.000    0.000    0.000 
#    0.000    0.000    0.000    0.000    0.000    0.000 
#
# Total GULP energy -644736.529553 kJ/mol
# GULP energy per Si atom -12398.779414 kJ/mol
# Density = 1.895899 g / cm^3
# Si number density = 19.002236 Si / 1000 Ang^3
#
#
#
# Elastic Constant Matrix: (Units=GPa)
#
#
# Indices 1 2 3 4 5 6 
#
# 1 118.3332 30.3951 52.5444 0.0000 0.0000 0.0000
# 2 30.3951 44.8082 30.5593 0.0000 0.0000 0.0000
# 3 52.5444 30.5593 125.5459 0.0000 0.0000 0.0000
# 4 0.0000 0.0000 0.0000 24.0191 0.0000 0.0000
# 5 0.0000 0.0000 0.0000 0.0000 39.1262 0.0000
# 6 0.0000 0.0000 0.0000 0.0000 0.0000 24.8180
#
#
#
# Elastic Compliance Matrix: (Units=1/GPa)
#
#
# Indices 1 2 3 4 5 6 
#
# 1 0.011357 -0.005351 -0.003451 0.000000 0.000000 0.000000
# 2 -0.005351 0.029280 -0.004888 0.000000 0.000000 0.000000
# 3 -0.003451 -0.004888 0.010599 0.000000 0.000000 0.000000
# 4 0.000000 0.000000 0.000000 0.041634 0.000000 0.000000
# 5 0.000000 0.000000 0.000000 0.000000 0.025558 0.000000
# 6 0.000000 0.000000 0.000000 0.000000 0.000000 0.040293
#
#
# Mechanical properties :
#
#
# Convention : Reuss Voigt Hill
#
# Bulk Modulus (GPa) = 41.91415 57.29831 49.60623
# Shear Modulus (GPa) = 25.76605 29.27189 27.51897
#
# Velocity S-wave (km/s) = 3.68632 3.92911 3.80965
# Velocity P-wave (km/s) = 6.34223 7.12761 6.74636
#
# Compressibility (1/GPa) = 0.02385829
#
# Stress axis : x y z
#
# Youngs Moduli (GPa) = 88.04800 34.15263 94.34579
#
# Poissons Ratio (x) = 0.18274 0.32559
# Poissons Ratio (y) = 0.47111 0.46114
# Poissons Ratio (z) = 0.30385 0.16693
#
# Static dielectric constant tensor:
#      x y z
#    x 3.552510 0.000000 0.000000 
#    y 0.000000 3.328640 0.000000 
#    z 0.000000 0.000000 76.358080 
# 
# 
# High freq. dielectric constant tensor:
#      x y z
#    x 1.744970 0.000000 0.000000 
#    y 0.000000 1.714850 0.000000 
#    z 0.000000 0.000000 1.751510 
# 
# From -- ./inp_files/64440.got.cif
#   From: 2010.03.12/outbox.cif.g09.slc.cpg/sg74_33_cif.got.tgz:64440.got - 2010.04.16 15:46:19.
