data_PCOD8300965
_publ_section_title
;
Structure prediction by ZEFSAII (Michael W. Deem and Ramdas Pophale) SiO2 
 PCOD8300965
Probable space group: I M M A
;
_chemical_formula_sum "Si O2"
_cell_formula_units_Z 112
_cell_length_a 17.264858
_cell_length_b 28.507775
_cell_length_c 11.238908
_cell_angle_alpha 90.000000
_cell_angle_beta 90.000000
_cell_angle_gamma 90.000000
_cell_volume 5531.595941
_symmetry_space_group_name_H-M "I M M A"
_symmetry_group_IT_number 74
_symmetry_cell_setting 'orthorhombic'
loop_
_space_group_symop_operation_xyz
x,y,z
-x,1/2-y,z
x,-y,-z
-x,1/2+y,-z
-x,-y,-z
x,1/2+y,-z
-x,y,z
x,1/2-y,z
1/2+x,1/2+y,1/2+z
1/2-x,-y,1/2+z
1/2+x,1/2-y,1/2-z
1/2-x,y,1/2-z
1/2-x,1/2-y,1/2-z
1/2+x,y,1/2-z
1/2-x,1/2+y,1/2+z
1/2+x,-y,1/2+z
loop_
_atom_site_type_symbol
_atom_site_label
_atom_site_fract_x
_atom_site_fract_y
_atom_site_fract_z
Si Si1 0.411260 0.302828 0.806625
Si Si2 0.319136 0.561874 0.895753
Si Si3 0.090224 0.356709 0.291986
Si Si4 0.808424 0.303501 0.465605
Si Si5 0.823776 0.542585 0.327117
Si Si6 0.819566 0.621677 0.933328
Si Si7 0.588805 0.893220 0.338862
O O1 0.500000 0.307897 0.848402
O O2 0.394967 0.250000 0.758322
O O3 0.392000 0.340410 0.704780
O O4 0.358795 0.314612 0.918830
O O5 0.390221 0.595011 0.859969
O O6 0.332688 0.513492 0.826930
O O7 0.234877 0.584047 0.863488
O O8 0.318147 0.559289 0.038189
O O9 0.140033 0.314856 0.349709
O O10 0.113152 0.360837 0.154078
O O11 0.000000 0.345315 0.303005
O O12 0.781989 0.250000 0.458585
O O13 0.731567 0.334310 0.473828
O O14 0.750000 0.558262 0.250000
O O15 0.895956 0.567970 0.263392
O O16 0.858841 0.596742 0.046164
O O17 0.500000 0.897802 0.376515
#
# Coordination Sequence:
#
# PCOD8300965 Si02
#       7
#    16  16  16  16  16  16  16
#     4   9  19  36  58  87 124 161 198 248 310 367
#     4  10  22  39  64  86 115 160 201 250 300 359
#     4  11  23  39  59  84 119 160 201 250 307 363
#     4  10  21  37  62  90 115 153 208 262 303 357
#     4  11  21  38  63  91 119 151 200 250 302 357
#     4  11  22  40  59  84 123 161 203 248 306 371
#     4  11  23  38  60  91 126 162 201 250 308 367
#
# _framework density 20.247320999999999
#
# number of rings (size 3 to 8) (size 9 to 14) (size 15 to 20)
#    0.000    1.571    1.429    5.143    0.000    4.857 
#    0.000    2.857    0.000    5.143    0.000    0.000 
#    0.000    0.000    0.000    0.000    0.000    0.000 
#
# Total GULP energy -694532.019652 kJ/mol
# GULP energy per Si atom -12402.357494 kJ/mol
# Density = 2.020124 g / cm^3
# Si number density = 20.247321 Si / 1000 Ang^3
#
#
#
# Elastic Constant Matrix: (Units=GPa)
#
#
# Indices 1 2 3 4 5 6 
#
# 1 86.5341 40.7080 37.0723 -0.0002 -0.0001 0.0000
# 2 40.7080 99.9120 18.3770 0.0007 0.0002 0.0001
# 3 37.0723 18.3770 76.6899 0.0010 0.0004 0.0004
# 4 -0.0002 0.0007 0.0010 23.8777 0.0002 0.0001
# 5 -0.0001 0.0002 0.0004 0.0002 37.4205 0.0001
# 6 0.0000 0.0001 0.0004 0.0001 0.0001 20.5458
#
#
#
# Elastic Compliance Matrix: (Units=1/GPa)
#
#
# Indices 1 2 3 4 5 6 
#
# 1 0.017239 -0.005744 -0.006957 0.000001 0.000000 0.000000
# 2 -0.005744 0.012384 -0.000191 0.000000 0.000000 0.000000
# 3 -0.006957 -0.000191 0.016448 -0.000001 0.000000 0.000000
# 4 0.000001 0.000000 -0.000001 0.041880 0.000000 0.000000
# 5 0.000000 0.000000 0.000000 0.000000 0.026723 0.000000
# 6 0.000000 0.000000 0.000000 0.000000 0.000000 0.048672
#
#
# Mechanical properties :
#
#
# Convention : Reuss Voigt Hill
#
# Bulk Modulus (GPa) = 49.29127 50.60563 49.94845
# Shear Modulus (GPa) = 25.52418 27.50072 26.51245
#
# Velocity S-wave (km/s) = 3.55437 3.68943 3.62253
# Velocity P-wave (km/s) = 6.42201 6.57246 6.49767
#
# Compressibility (1/GPa) = 0.02028757
#
# Stress axis : x y z
#
# Youngs Moduli (GPa) = 58.00889 80.74736 60.79680
#
# Poissons Ratio (x) = 0.46382 0.42295
# Poissons Ratio (y) = 0.33321 0.01160
# Poissons Ratio (z) = 0.40356 0.01541
#
# Static dielectric constant tensor:
#      x y z
#    x 3.538760 0.000000 0.000000 
#    y 0.000000 3.759500 0.000000 
#    z 0.000000 0.000000 3.627850 
# 
# 
# High freq. dielectric constant tensor:
#      x y z
#    x 1.783950 0.000000 0.000000 
#    y 0.000000 1.793140 0.000000 
#    z 0.000000 0.000000 1.797550 
# 
# From -- ./inp_files/21100.got.cif
#   From: 2010.03.12/outbox.cif.g09.slc.cpg/sg74_11_cif.got.tgz:21100.got - 2010.04.16 15:46:19.
