data_PCOD8300711
_publ_section_title
;
Structure prediction by ZEFSAII (Michael W. Deem and Ramdas Pophale) SiO2 
 PCOD8300711
Probable space group: I M M A
;
_chemical_formula_sum "Si O2"
_cell_formula_units_Z 112
_cell_length_a 18.541045
_cell_length_b 27.975626
_cell_length_c 11.187583
_cell_angle_alpha 90.000000
_cell_angle_beta 90.000000
_cell_angle_gamma 90.000000
_cell_volume 5802.969549
_symmetry_space_group_name_H-M "I M M A"
_symmetry_group_IT_number 74
_symmetry_cell_setting 'orthorhombic'
loop_
_space_group_symop_operation_xyz
x,y,z
-x,1/2-y,z
x,-y,-z
-x,1/2+y,-z
-x,-y,-z
x,1/2+y,-z
-x,y,z
x,1/2-y,z
1/2+x,1/2+y,1/2+z
1/2-x,-y,1/2+z
1/2+x,1/2-y,1/2-z
1/2-x,y,1/2-z
1/2-x,1/2-y,1/2-z
1/2+x,y,1/2-z
1/2-x,1/2+y,1/2+z
1/2+x,-y,1/2+z
loop_
_atom_site_type_symbol
_atom_site_label
_atom_site_fract_x
_atom_site_fract_y
_atom_site_fract_z
Si Si1 0.713490 0.523846 0.620564
Si Si2 0.082063 0.694644 0.971169
Si Si3 0.917891 0.987247 0.235858
Si Si4 0.417940 0.581339 0.869669
Si Si5 0.817202 0.872524 0.821039
Si Si6 0.584567 0.801940 0.252660
Si Si7 0.586051 0.894947 0.128047
O O1 0.748899 0.500000 0.500000
O O2 0.750000 0.510515 0.750000
O O3 0.631890 0.503669 0.626027
O O4 0.713070 0.581398 0.605578
O O5 0.088669 0.750000 0.935155
O O6 0.144377 0.665690 0.904768
O O7 0.000000 0.676921 0.942375
O O8 0.099189 0.686794 0.109715
O O9 0.889803 0.936010 0.280532
O O10 0.000000 0.985197 0.188964
O O11 0.910830 0.024717 0.345875
O O12 0.500000 0.598594 0.865153
O O13 0.377153 0.611013 0.771070
O O14 0.382632 0.593249 0.997611
O O15 0.750000 0.848620 0.750000
O O16 0.500000 0.799761 0.229102
O O17 0.618208 0.750000 0.217650
O O18 0.618455 0.844142 0.172053
O O19 0.500000 0.894495 0.123480
#
# Coordination Sequence:
#
# PCOD8300711 Si02
#       7
#    16  16  16  16  16  16  16
#     4  10  23  39  55  77 111 151 188 228 275 329
#     4   9  18  34  57  80 104 138 179 224 274 326
#     4   9  18  31  50  79 107 136 175 222 272 324
#     4   9  17  31  49  74 107 140 169 213 269 322
#     4  10  21  35  53  75 107 140 180 223 272 320
#     4   8  15  28  47  74 104 133 168 217 269 311
#     4   9  16  27  49  77 103 134 173 213 266 330
#
# _framework density 19.300463000000001
#
# number of rings (size 3 to 8) (size 9 to 14) (size 15 to 20)
#    0.000    2.857    0.000    1.714    2.000    6.286 
#    0.000    0.714    0.000    2.571    0.000    2.000 
#    0.000    0.000    0.000    0.000    0.000    0.000 
#
# Total GULP energy -693939.659422 kJ/mol
# GULP energy per Si atom -12391.779633 kJ/mol
# Density = 1.925653 g / cm^3
# Si number density = 19.300463 Si / 1000 Ang^3
#
#
#
# Elastic Constant Matrix: (Units=GPa)
#
#
# Indices 1 2 3 4 5 6 
#
# 1 48.5067 25.7184 25.1410 0.0001 0.0001 0.0000
# 2 25.7184 105.0965 44.7455 0.0001 0.0000 0.0000
# 3 25.1410 44.7455 74.7725 0.0002 -0.0001 0.0001
# 4 0.0001 0.0001 0.0002 22.3453 0.0000 0.0000
# 5 0.0001 0.0000 -0.0001 0.0000 14.1904 0.0000
# 6 0.0000 0.0000 0.0001 0.0000 0.0000 19.8346
#
#
#
# Elastic Compliance Matrix: (Units=1/GPa)
#
#
# Indices 1 2 3 4 5 6 
#
# 1 0.025907 -0.003531 -0.006598 0.000000 0.000000 0.000000
# 2 -0.003531 0.013249 -0.006742 0.000000 0.000000 0.000000
# 3 -0.006598 -0.006742 0.019627 0.000000 0.000000 0.000000
# 4 0.000000 0.000000 0.000000 0.044752 0.000000 0.000000
# 5 0.000000 0.000000 0.000000 0.000000 0.070470 0.000000
# 6 0.000000 0.000000 0.000000 0.000000 0.000000 0.050417
#
#
# Mechanical properties :
#
#
# Convention : Reuss Voigt Hill
#
# Bulk Modulus (GPa) = 39.93162 46.62059 43.27611
# Shear Modulus (GPa) = 18.76094 20.12545 19.44319
#
# Velocity S-wave (km/s) = 3.12115 3.23266 3.17739
# Velocity P-wave (km/s) = 5.80716 6.17584 5.99434
#
# Compressibility (1/GPa) = 0.02504281
#
# Stress axis : x y z
#
# Youngs Moduli (GPa) = 38.59890 75.47556 50.95105
#
# Poissons Ratio (x) = 0.26648 0.33618
# Poissons Ratio (y) = 0.13628 0.34349
# Poissons Ratio (z) = 0.25468 0.50882
#
# Static dielectric constant tensor:
#      x y z
#    x 3.439730 0.000000 0.000000 
#    y 0.000000 3.750910 0.000000 
#    z 0.000000 0.000000 3.431840 
# 
# 
# High freq. dielectric constant tensor:
#      x y z
#    x 1.731230 0.000000 0.000000 
#    y 0.000000 1.743860 0.000000 
#    z 0.000000 0.000000 1.739120 
# 
# From -- ./inp_files/24342.got.cif
#   From: 2010.03.12/outbox.cif.g09.slc.cpg/sg74_13_cif.got.tgz:24342.got - 2010.04.16 15:46:19.
