data_PCOD8300272
_publ_section_title
;
Structure prediction by ZEFSAII (Michael W. Deem and Ramdas Pophale) SiO2 
 PCOD8300272
Probable space group: I M M A
;
_chemical_formula_sum "Si O2"
_cell_formula_units_Z 104
_cell_length_a 8.674711
_cell_length_b 26.840013
_cell_length_c 23.250726
_cell_angle_alpha 90.000000
_cell_angle_beta 90.000000
_cell_angle_gamma 90.000000
_cell_volume 5413.451561
_symmetry_space_group_name_H-M "I M M A"
_symmetry_group_IT_number 74
_symmetry_cell_setting 'orthorhombic'
loop_
_space_group_symop_operation_xyz
x,y,z
-x,1/2-y,z
x,-y,-z
-x,1/2+y,-z
-x,-y,-z
x,1/2+y,-z
-x,y,z
x,1/2-y,z
1/2+x,1/2+y,1/2+z
1/2-x,-y,1/2+z
1/2+x,1/2-y,1/2-z
1/2-x,y,1/2-z
1/2-x,1/2-y,1/2-z
1/2+x,y,1/2-z
1/2-x,1/2+y,1/2+z
1/2+x,-y,1/2+z
loop_
_atom_site_type_symbol
_atom_site_label
_atom_site_fract_x
_atom_site_fract_y
_atom_site_fract_z
Si Si1 0.817980 0.342463 0.384427
Si Si2 0.182821 0.193985 0.506766
Si Si3 0.321367 0.950401 0.869874
Si Si4 0.816641 0.250000 0.312713
Si Si5 0.318635 0.952955 0.312844
Si Si6 0.681378 0.110186 0.909833
Si Si7 0.166861 0.554892 0.988399
O O1 0.753555 0.336685 0.450624
O O2 0.775718 0.393892 0.350630
O O3 0.750967 0.297940 0.346162
O O4 0.000000 0.337935 0.389293
O O5 0.252457 0.250000 0.508374
O O6 0.228828 0.165098 0.565919
O O7 0.000000 0.197222 0.502434
O O8 0.500000 0.962994 0.859203
O O9 0.287275 0.945068 0.936829
O O10 0.223640 0.992868 0.838608
O O11 0.750000 0.250000 0.250000
O O12 0.000000 0.250000 0.310398
O O13 0.500000 0.950028 0.309163
O O14 0.250000 0.947400 0.250000
O O15 0.260573 0.905617 0.349983
O O16 0.500000 0.105593 0.900769
O O17 0.737805 0.071603 0.956681
O O18 0.000000 0.583310 0.978245
O O19 0.113221 0.500000 0.000000
#
# Coordination Sequence:
#
# PCOD8300272 Si02
#       7
#    16  16  16   8  16  16  16
#     4   9  17  31  54  83 112 149 192 239 286 334
#     4   9  16  30  56  90 120 146 186 238 293 349
#     4  11  21  35  57  86 115 150 193 238 287 343
#     4  10  20  36  56  74 106 150 199 242 283 332
#     4  12  26  44  61  82 114 155 195 239 288 349
#     4  11  21  35  60  90 116 150 192 238 291 353
#     4  11  21  32  50  81 118 153 185 228 281 333
#
# _framework density 19.211403000000001
#
# number of rings (size 3 to 8) (size 9 to 14) (size 15 to 20)
#    0.000    1.538    3.846    2.769    0.000    1.231 
#    0.000    3.077    0.000    2.308    0.000    0.000 
#    0.000    0.000    0.000    0.000    0.000    0.000 
#
# Total GULP energy -644188.174063 kJ/mol
# GULP energy per Si atom -12388.234117 kJ/mol
# Density = 1.916768 g / cm^3
# Si number density = 19.211403 Si / 1000 Ang^3
#
#
#
# Elastic Constant Matrix: (Units=GPa)
#
#
# Indices 1 2 3 4 5 6 
#
# 1 78.8366 28.0484 32.5004 0.0000 0.0000 0.0000
# 2 28.0484 102.6922 47.0431 0.0000 0.0000 0.0000
# 3 32.5004 47.0431 125.0064 0.0000 0.0000 0.0000
# 4 0.0000 0.0000 0.0000 19.4691 0.0000 0.0000
# 5 0.0000 0.0000 0.0000 0.0000 33.5943 0.0000
# 6 0.0000 0.0000 0.0000 0.0000 0.0000 15.1963
#
#
#
# Elastic Compliance Matrix: (Units=1/GPa)
#
#
# Indices 1 2 3 4 5 6 
#
# 1 0.014827 -0.002760 -0.002816 0.000000 0.000000 0.000000
# 2 -0.002760 0.012280 -0.003904 0.000000 0.000000 0.000000
# 3 -0.002816 -0.003904 0.010201 0.000000 0.000000 0.000000
# 4 0.000000 0.000000 0.000000 0.051364 0.000000 0.000000
# 5 0.000000 0.000000 0.000000 0.000000 0.029767 0.000000
# 6 0.000000 0.000000 0.000000 0.000000 0.000000 0.065805
#
#
# Mechanical properties :
#
#
# Convention : Reuss Voigt Hill
#
# Bulk Modulus (GPa) = 54.50031 57.96880 56.23455
# Shear Modulus (GPa) = 23.88689 26.91482 25.40086
#
# Velocity S-wave (km/s) = 3.52997 3.74703 3.64012
# Velocity P-wave (km/s) = 6.71153 6.99714 6.85582
#
# Compressibility (1/GPa) = 0.01834852
#
# Stress axis : x y z
#
# Youngs Moduli (GPa) = 67.44292 81.43410 98.03031
#
# Poissons Ratio (x) = 0.22473 0.27610
# Poissons Ratio (y) = 0.18612 0.38269
# Poissons Ratio (z) = 0.18995 0.31790
#
# Static dielectric constant tensor:
#      x y z
#    x 3.324350 0.000000 0.000000 
#    y 0.000000 3.989220 0.000000 
#    z 0.000000 0.000000 3.486660 
# 
# 
# High freq. dielectric constant tensor:
#      x y z
#    x 1.734110 0.000000 0.000000 
#    y 0.000000 1.751570 0.000000 
#    z 0.000000 0.000000 1.729780 
# 
# From -- ./inp_files/57580.got.cif
#   From: 2010.03.12/outbox.cif.g09.slc.cpg/sg74_29_cif.got.tgz:57580.got - 2010.04.16 15:46:19.
