data_PCOD8300563
_publ_section_title
;
Structure prediction by ZEFSAII (Michael W. Deem and Ramdas Pophale) SiO2 
 PCOD8300563
Probable space group: I M M A
;
_chemical_formula_sum "Si O2"
_cell_formula_units_Z 112
_cell_length_a 14.699570
_cell_length_b 13.725186
_cell_length_c 25.873812
_cell_angle_alpha 90.000000
_cell_angle_beta 90.000000
_cell_angle_gamma 90.000000
_cell_volume 5220.153666
_symmetry_space_group_name_H-M "I M M A"
_symmetry_group_IT_number 74
_symmetry_cell_setting 'orthorhombic'
loop_
_space_group_symop_operation_xyz
x,y,z
-x,1/2-y,z
x,-y,-z
-x,1/2+y,-z
-x,-y,-z
x,1/2+y,-z
-x,y,z
x,1/2-y,z
1/2+x,1/2+y,1/2+z
1/2-x,-y,1/2+z
1/2+x,1/2-y,1/2-z
1/2-x,y,1/2-z
1/2-x,1/2-y,1/2-z
1/2+x,y,1/2-z
1/2-x,1/2+y,1/2+z
1/2+x,-y,1/2+z
loop_
_atom_site_type_symbol
_atom_site_label
_atom_site_fract_x
_atom_site_fract_y
_atom_site_fract_z
Si Si1 0.353578 0.137616 0.750779
Si Si2 0.757128 0.141877 0.466821
Si Si3 0.241282 0.135736 0.189865
Si Si4 0.736203 0.941807 0.424027
Si Si5 0.600978 0.518400 0.343630
Si Si6 0.900120 0.138550 0.385128
Si Si7 0.602096 0.139693 0.866619
O O1 0.358818 0.250000 0.735030
O O2 0.250000 0.100043 0.750000
O O3 0.410083 0.077550 0.709171
O O4 0.397962 0.117780 0.805985
O O5 0.719003 0.250000 0.451631
O O6 0.749303 0.131957 0.528412
O O7 0.859598 0.130934 0.443749
O O8 0.704907 0.050795 0.441355
O O9 0.225551 0.250000 0.181245
O O10 0.250000 0.109179 0.250000
O O11 0.329954 0.097454 0.158283
O O12 0.154111 0.082250 0.165880
O O13 0.655697 0.912362 0.384704
O O14 0.834160 0.939034 0.395275
O O15 0.500000 0.495067 0.364725
O O16 0.915543 0.250000 0.370689
O O17 0.000000 0.085906 0.382317
O O18 0.500000 0.128756 0.887988
O O19 0.638585 0.250000 0.876542
#
# Coordination Sequence:
#
# PCOD8300563 Si02
#       7
#    16  16  16  16  16  16  16
#     4  10  20  38  63  89 125 168 205 251 312 369
#     4  10  22  41  64  88 123 161 202 256 316 376
#     4  10  22  41  64  93 132 173 211 254 309 372
#     4  11  23  40  63  91 123 162 207 258 318 374
#     4  12  25  40  62  92 126 165 216 268 312 368
#     4   9  18  36  64  93 122 159 203 253 310 373
#     4  10  21  38  62  93 127 162 202 248 305 378
#
# _framework density 21.455307000000001
#
# number of rings (size 3 to 8) (size 9 to 14) (size 15 to 20)
#    0.000    1.714    2.857    1.286    0.000    3.429 
#    0.000    5.714    0.000    0.857    0.000    0.000 
#    0.000    0.000    0.000    0.000    0.000    0.000 
#
# Total GULP energy -693978.036027 kJ/mol
# GULP energy per Si atom -12392.464929 kJ/mol
# Density = 2.140647 g / cm^3
# Si number density = 21.455307 Si / 1000 Ang^3
#
#
#
# Elastic Constant Matrix: (Units=GPa)
#
#
# Indices 1 2 3 4 5 6 
#
# 1 132.7406 10.6511 49.9456 0.0000 0.0000 0.0000
# 2 10.6511 83.7875 31.8039 0.0000 0.0000 0.0000
# 3 49.9456 31.8039 127.8893 0.0000 0.0000 0.0000
# 4 0.0000 0.0000 0.0000 28.2104 0.0000 0.0000
# 5 0.0000 0.0000 0.0000 0.0000 17.7309 0.0000
# 6 0.0000 0.0000 0.0000 0.0000 0.0000 19.8995
#
#
#
# Elastic Compliance Matrix: (Units=1/GPa)
#
#
# Indices 1 2 3 4 5 6 
#
# 1 0.008834 0.000206 -0.003501 0.000000 0.000000 0.000000
# 2 0.000206 0.013184 -0.003359 0.000000 0.000000 0.000000
# 3 -0.003501 -0.003359 0.010022 0.000000 0.000000 0.000000
# 4 0.000000 0.000000 0.000000 0.035448 0.000000 0.000000
# 5 0.000000 0.000000 0.000000 0.000000 0.056399 0.000000
# 6 0.000000 0.000000 0.000000 0.000000 0.000000 0.050252
#
#
# Mechanical properties :
#
#
# Convention : Reuss Voigt Hill
#
# Bulk Modulus (GPa) = 53.38637 58.80208 56.09422
# Shear Modulus (GPa) = 25.81420 29.96929 27.89174
#
# Velocity S-wave (km/s) = 3.47242 3.74147 3.60945
# Velocity P-wave (km/s) = 6.40419 6.79198 6.60093
#
# Compressibility (1/GPa) = 0.01873137
#
# Stress axis : x y z
#
# Youngs Moduli (GPa) = 113.19374 75.85075 99.78021
#
# Poissons Ratio (x) = -0.01563 0.34937
# Poissons Ratio (y) = -0.02332 0.33517
# Poissons Ratio (z) = 0.39634 0.25479
#
# Static dielectric constant tensor:
#      x y z
#    x 3.810660 0.000000 0.000000 
#    y 0.000000 3.920080 0.000000 
#    z 0.000000 0.000000 4.013290 
# 
# 
# High freq. dielectric constant tensor:
#      x y z
#    x 1.812000 0.000000 0.000000 
#    y 0.000000 1.853390 0.000000 
#    z 0.000000 0.000000 1.843240 
# 
# From -- ./inp_files/60115.got.cif
#   From: 2010.03.12/outbox.cif.g09.slc.cpg/sg74_31_cif.got.tgz:60115.got - 2010.04.16 15:46:19.
