data_PCOD8300640
_publ_section_title
;
Structure prediction by ZEFSAII (Michael W. Deem and Ramdas Pophale) SiO2 
 PCOD8300640
Probable space group: I M M A
;
_chemical_formula_sum "Si O2"
_cell_formula_units_Z 104
_cell_length_a 20.148005
_cell_length_b 20.837351
_cell_length_c 12.107303
_cell_angle_alpha 90.000000
_cell_angle_beta 90.000000
_cell_angle_gamma 90.000000
_cell_volume 5083.021757
_symmetry_space_group_name_H-M "I M M A"
_symmetry_group_IT_number 74
_symmetry_cell_setting 'orthorhombic'
loop_
_space_group_symop_operation_xyz
x,y,z
-x,1/2-y,z
x,-y,-z
-x,1/2+y,-z
-x,-y,-z
x,1/2+y,-z
-x,y,z
x,1/2-y,z
1/2+x,1/2+y,1/2+z
1/2-x,-y,1/2+z
1/2+x,1/2-y,1/2-z
1/2-x,y,1/2-z
1/2-x,1/2-y,1/2-z
1/2+x,y,1/2-z
1/2-x,1/2+y,1/2+z
1/2+x,-y,1/2+z
loop_
_atom_site_type_symbol
_atom_site_label
_atom_site_fract_x
_atom_site_fract_y
_atom_site_fract_z
Si Si1 0.073886 0.491875 0.375323
Si Si2 0.500000 0.603457 0.213704
Si Si3 0.750912 0.674211 0.372706
Si Si4 0.142595 0.174535 0.458277
Si Si5 0.823931 0.400337 0.256923
Si Si6 0.639245 0.676267 0.542413
Si Si7 0.000000 0.175802 0.505360
Si Si8 0.000000 0.322178 0.934947
O O1 0.102331 0.500000 0.500000
O O2 0.065361 0.561125 0.315283
O O3 0.125089 0.453334 0.299858
O O4 0.000000 0.458770 0.382340
O O5 0.500000 0.666951 0.137410
O O6 0.500000 0.625159 0.339465
O O7 0.758633 0.750000 0.362576
O O8 0.750000 0.643340 0.250000
O O9 0.813961 0.646402 0.440452
O O10 0.683258 0.656727 0.436463
O O11 0.136901 0.250000 0.471550
O O12 0.178648 0.158188 0.344071
O O13 0.067938 0.143804 0.457314
O O14 0.750000 0.430104 0.250000
O O15 0.846390 0.372743 0.140225
O O16 0.654563 0.750000 0.577522
O O17 0.562907 0.667189 0.512350
O O18 0.000000 0.250000 0.474380
O O19 0.000000 0.250000 0.884914
#
# Coordination Sequence:
#
# PCOD8300640 Si02
#       8
#    16   8  16  16  16  16   8   8
#     4   9  22  44  68  89 116 168 215 273 322 366
#     4  10  20  41  66  85 118 166 199 255 328 362
#     4   9  18  34  53  81 130 177 207 241 311 388
#     4  10  21  34  56  94 129 164 203 257 320 377
#     4  12  23  39  65  93 123 167 216 265 308 376
#     4  10  22  39  58  92 134 171 203 251 319 378
#     4  10  21  34  60  98 126 150 202 259 309 382
#     4  10  23  39  62  95 128 160 202 246 303 385
#
# _framework density 20.460270000000001
#
# number of rings (size 3 to 8) (size 9 to 14) (size 15 to 20)
#    0.462    1.538    1.538    1.615    4.308    0.615 
#    0.000    5.385    0.000    0.000    0.000    0.000 
#    0.000    0.000    0.000    0.000    0.000    0.000 
#
# Total GULP energy -644548.153456 kJ/mol
# GULP energy per Si atom -12395.156797 kJ/mol
# Density = 2.041370 g / cm^3
# Si number density = 20.460270 Si / 1000 Ang^3
#
#
#
# Elastic Constant Matrix: (Units=GPa)
#
#
# Indices 1 2 3 4 5 6 
#
# 1 154.6687 33.7383 57.1381 0.0000 0.0000 0.0000
# 2 33.7383 44.0562 40.6303 0.0000 0.0000 0.0000
# 3 57.1381 40.6303 145.1670 0.0000 0.0000 0.0000
# 4 0.0000 0.0000 0.0000 29.8636 0.0000 0.0000
# 5 0.0000 0.0000 0.0000 0.0000 29.8321 0.0000
# 6 0.0000 0.0000 0.0000 0.0000 0.0000 14.4382
#
#
#
# Elastic Compliance Matrix: (Units=1/GPa)
#
#
# Indices 1 2 3 4 5 6 
#
# 1 0.008160 -0.004431 -0.001972 0.000000 0.000000 0.000000
# 2 -0.004431 0.033001 -0.007493 0.000000 0.000000 0.000000
# 3 -0.001972 -0.007493 0.009762 0.000000 0.000000 0.000000
# 4 0.000000 0.000000 0.000000 0.033486 0.000000 0.000000
# 5 0.000000 0.000000 0.000000 0.000000 0.033521 0.000000
# 6 0.000000 0.000000 0.000000 0.000000 0.000000 0.069261
#
#
# Mechanical properties :
#
#
# Convention : Reuss Voigt Hill
#
# Bulk Modulus (GPa) = 43.22812 67.43391 55.33101
# Shear Modulus (GPa) = 22.45247 28.98578 25.71913
#
# Velocity S-wave (km/s) = 3.31625 3.76797 3.54931
# Velocity P-wave (km/s) = 5.98641 7.20834 6.62560
#
# Compressibility (1/GPa) = 0.02313309
#
# Stress axis : x y z
#
# Youngs Moduli (GPa) = 122.54367 30.30175 102.43961
#
# Poissons Ratio (x) = 0.13426 0.20199
# Poissons Ratio (y) = 0.54295 0.76755
# Poissons Ratio (z) = 0.24164 0.22704
#
# Static dielectric constant tensor:
#      x y z
#    x 4.018670 0.000000 0.000000 
#    y 0.000000 3.339510 0.000000 
#    z 0.000000 0.000000 3.670220 
# 
# 
# High freq. dielectric constant tensor:
#      x y z
#    x 1.811960 0.000000 0.000000 
#    y 0.000000 1.770140 0.000000 
#    z 0.000000 0.000000 1.796360 
# 
# From -- ./inp_files/22792.got.cif
#   From: 2010.03.12/outbox.cif.g09.slc.cpg/sg74_12_cif.got.tgz:22792.got - 2010.04.16 15:46:19.
