data_PCOD8300080
_publ_section_title
;
Structure prediction by ZEFSAII (Michael W. Deem and Ramdas Pophale) SiO2 
 PCOD8300080
Probable space group: I M M A
;
_chemical_formula_sum "Si O2"
_cell_formula_units_Z 112
_cell_length_a 18.147938
_cell_length_b 27.992388
_cell_length_c 11.486474
_cell_angle_alpha 90.000000
_cell_angle_beta 90.000000
_cell_angle_gamma 90.000000
_cell_volume 5835.176138
_symmetry_space_group_name_H-M "I M M A"
_symmetry_group_IT_number 74
_symmetry_cell_setting 'orthorhombic'
loop_
_space_group_symop_operation_xyz
x,y,z
-x,1/2-y,z
x,-y,-z
-x,1/2+y,-z
-x,-y,-z
x,1/2+y,-z
-x,y,z
x,1/2-y,z
1/2+x,1/2+y,1/2+z
1/2-x,-y,1/2+z
1/2+x,1/2-y,1/2-z
1/2-x,y,1/2-z
1/2-x,1/2-y,1/2-z
1/2+x,y,1/2-z
1/2-x,1/2+y,1/2+z
1/2+x,-y,1/2+z
loop_
_atom_site_type_symbol
_atom_site_label
_atom_site_fract_x
_atom_site_fract_y
_atom_site_fract_z
Si Si1 0.582331 0.947468 0.311968
Si Si2 0.813891 0.803775 0.084389
Si Si3 0.817104 0.955158 0.580341
Si Si4 0.650126 0.304152 0.849136
Si Si5 0.584959 0.398069 0.922185
Si Si6 0.654422 0.458082 0.349991
Si Si7 0.918083 0.376995 0.016621
O O1 0.500000 0.967639 0.295754
O O2 0.613318 0.929999 0.187285
O O3 0.583487 0.900935 0.390817
O O4 0.628635 0.988044 0.380550
O O5 0.817083 0.750000 0.036669
O O6 0.729326 0.819914 0.099119
O O7 0.852162 0.806822 0.209871
O O8 0.856986 0.835261 0.988064
O O9 0.861495 0.910113 0.529538
O O10 0.729693 0.946141 0.582382
O O11 0.842709 0.961825 0.711421
O O12 0.837973 0.000000 0.500000
O O13 0.630526 0.250000 0.888550
O O14 0.590647 0.341448 0.897695
O O15 0.500000 0.409711 0.951740
O O16 0.598243 0.416272 0.384097
O O17 0.000000 0.356117 0.041603
#
# Coordination Sequence:
#
# PCOD8300080 Si02
#       7
#    16  16  16  16  16  16  16
#     4  10  20  35  54  80 114 151 187 230 285 339
#     4   9  18  33  54  83 116 150 190 240 292 343
#     4  11  23  40  57  81 110 148 196 237 280 336
#     4   9  18  34  56  83 114 151 193 238 293 350
#     4  11  22  36  57  85 117 153 191 235 291 345
#     4  11  23  38  57  80 111 150 197 237 278 335
#     4  11  21  34  54  82 115 151 187 232 291 345
#
# _framework density 19.193936999999998
#
# number of rings (size 3 to 8) (size 9 to 14) (size 15 to 20)
#    0.000    1.714    2.857    3.429    0.000    3.143 
#    0.000    1.429    0.000    0.857    0.000    6.000 
#    0.000    0.000    0.000    0.000    0.000    0.000 
#
# Total GULP energy -694253.574810 kJ/mol
# GULP energy per Si atom -12397.385264 kJ/mol
# Density = 1.915025 g / cm^3
# Si number density = 19.193937 Si / 1000 Ang^3
#
#
#
# Elastic Constant Matrix: (Units=GPa)
#
#
# Indices 1 2 3 4 5 6 
#
# 1 80.1003 37.5025 27.2898 0.0003 0.0001 0.0000
# 2 37.5025 94.8810 22.0292 0.0004 0.0001 0.0001
# 3 27.2898 22.0292 48.7235 0.0025 0.0001 0.0001
# 4 0.0003 0.0004 0.0025 26.6085 0.0001 0.0001
# 5 0.0001 0.0001 0.0001 0.0001 26.9242 0.0000
# 6 0.0000 0.0001 0.0001 0.0001 0.0000 33.3849
#
#
#
# Elastic Compliance Matrix: (Units=1/GPa)
#
#
# Indices 1 2 3 4 5 6 
#
# 1 0.017434 -0.005166 -0.007429 0.000001 0.000000 0.000000
# 2 -0.005166 0.013306 -0.003123 0.000000 0.000000 0.000000
# 3 -0.007429 -0.003123 0.026097 -0.000002 0.000000 0.000000
# 4 0.000001 0.000000 -0.000002 0.037582 0.000000 0.000000
# 5 0.000000 0.000000 0.000000 0.000000 0.037141 0.000000
# 6 0.000000 0.000000 0.000000 0.000000 0.000000 0.029954
#
#
# Mechanical properties :
#
#
# Convention : Reuss Voigt Hill
#
# Bulk Modulus (GPa) = 39.36743 44.14977 41.75860
# Shear Modulus (GPa) = 24.82408 26.50909 25.66659
#
# Velocity S-wave (km/s) = 3.60019 3.72037 3.66077
# Velocity P-wave (km/s) = 6.15115 6.44257 6.29855
#
# Compressibility (1/GPa) = 0.02540171
#
# Stress axis : x y z
#
# Youngs Moduli (GPa) = 57.35868 75.15128 38.31885
#
# Poissons Ratio (x) = 0.38824 0.28467
# Poissons Ratio (y) = 0.29632 0.11966
# Poissons Ratio (z) = 0.42612 0.23467
#
# Static dielectric constant tensor:
#      x y z
#    x 3.531840 0.000000 0.000000 
#    y 0.000000 3.401880 0.000000 
#    z 0.000000 0.000000 3.247990 
# 
# 
# High freq. dielectric constant tensor:
#      x y z
#    x 1.746780 0.000000 0.000000 
#    y 0.000000 1.739750 0.000000 
#    z 0.000000 0.000000 1.721380 
# 
# From -- ./inp_files/24179.got.cif
#   From: 2010.03.12/outbox.cif.g09.slc.cpg/sg74_13_cif.got.tgz:24179.got - 2010.04.16 15:46:19.
