data_PCOD8300326
_publ_section_title
;
Structure prediction by ZEFSAII (Michael W. Deem and Ramdas Pophale) SiO2 
 PCOD8300326
Probable space group: I M M A
;
_chemical_formula_sum "Si O2"
_cell_formula_units_Z 80
_cell_length_a 20.241941
_cell_length_b 26.829279
_cell_length_c 7.795213
_cell_angle_alpha 90.000000
_cell_angle_beta 90.000000
_cell_angle_gamma 90.000000
_cell_volume 4233.398416
_symmetry_space_group_name_H-M "I M M A"
_symmetry_group_IT_number 74
_symmetry_cell_setting 'orthorhombic'
loop_
_space_group_symop_operation_xyz
x,y,z
-x,1/2-y,z
x,-y,-z
-x,1/2+y,-z
-x,-y,-z
x,1/2+y,-z
-x,y,z
x,1/2-y,z
1/2+x,1/2+y,1/2+z
1/2-x,-y,1/2+z
1/2+x,1/2-y,1/2-z
1/2-x,y,1/2-z
1/2-x,1/2-y,1/2-z
1/2+x,y,1/2-z
1/2-x,1/2+y,1/2+z
1/2+x,-y,1/2+z
loop_
_atom_site_type_symbol
_atom_site_label
_atom_site_fract_x
_atom_site_fract_y
_atom_site_fract_z
Si Si1 0.323399 0.306428 0.798645
Si Si2 0.814652 0.848882 0.648808
Si Si3 0.924003 0.609907 0.208683
Si Si4 0.925783 0.897936 0.825119
Si Si5 0.136327 0.555364 0.522740
O O1 0.334696 0.250000 0.734927
O O2 0.250000 0.325420 0.750000
O O3 0.379002 0.340752 0.713148
O O4 0.329827 0.307963 0.005033
O O5 0.750000 0.833028 0.750000
O O6 0.876930 0.851841 0.778451
O O7 0.805631 0.903647 0.555282
O O8 0.903926 0.570013 0.352307
O O9 0.000000 0.625860 0.238034
O O10 0.914453 0.584662 0.021317
O O11 0.911596 0.943273 0.691159
O O12 0.000000 0.878443 0.799629
O O13 0.165970 0.500000 0.500000
#
# Coordination Sequence:
#
# PCOD8300326 Si02
#       5
#    16  16  16  16  16
#     4  10  21  36  58  84 108 142 187 232 280 335
#     4   9  19  36  55  76 112 147 180 231 280 324
#     4  10  20  36  58  82 113 150 181 226 281 326
#     4   9  19  34  56  81 110 145 184 222 270 327
#     4   9  20  35  55  84 112 146 187 226 270 323
#
# _framework density 18.897348000000001
#
# number of rings (size 3 to 8) (size 9 to 14) (size 15 to 20)
#    1.200    1.400    0.000    1.800    0.000    3.200 
#    0.000    9.000    0.000    1.200    0.000    0.000 
#    0.000    0.000    0.000    0.000    0.000    0.000 
#
# Total GULP energy -495543.792106 kJ/mol
# GULP energy per Si atom -12388.594803 kJ/mol
# Density = 1.885434 g / cm^3
# Si number density = 18.897348 Si / 1000 Ang^3
#
#
#
# Elastic Constant Matrix: (Units=GPa)
#
#
# Indices 1 2 3 4 5 6 
#
# 1 47.3265 7.1469 7.0915 0.0000 0.0000 0.0000
# 2 7.1469 67.9651 10.3195 0.0000 0.0000 0.0000
# 3 7.0915 10.3195 120.0765 0.0000 0.0000 0.0000
# 4 0.0000 0.0000 0.0000 10.8950 0.0000 0.0000
# 5 0.0000 0.0000 0.0000 0.0000 31.2173 0.0000
# 6 0.0000 0.0000 0.0000 0.0000 0.0000 15.3549
#
#
#
# Elastic Compliance Matrix: (Units=1/GPa)
#
#
# Indices 1 2 3 4 5 6 
#
# 1 0.021612 -0.002106 -0.001095 0.000000 0.000000 0.000000
# 2 -0.002106 0.015113 -0.001174 0.000000 0.000000 0.000000
# 3 -0.001095 -0.001174 0.008494 0.000000 0.000000 0.000000
# 4 0.000000 0.000000 0.000000 0.091785 0.000000 0.000000
# 5 0.000000 0.000000 0.000000 0.000000 0.032033 0.000000
# 6 0.000000 0.000000 0.000000 0.000000 0.000000 0.065126
#
#
# Mechanical properties :
#
#
# Convention : Reuss Voigt Hill
#
# Bulk Modulus (GPa) = 27.42230 31.60933 29.51581
# Shear Modulus (GPa) = 19.60240 25.54748 22.57494
#
# Velocity S-wave (km/s) = 3.22422 3.68082 3.46006
# Velocity P-wave (km/s) = 5.32949 5.90150 5.62278
#
# Compressibility (1/GPa) = 0.03646668
#
# Stress axis : x y z
#
# Youngs Moduli (GPa) = 46.27056 66.16715 117.73504
#
# Poissons Ratio (x) = 0.13937 0.12896
# Poissons Ratio (y) = 0.09746 0.13827
# Poissons Ratio (z) = 0.05068 0.07771
#
# Static dielectric constant tensor:
#      x y z
#    x 3.334060 0.000000 0.000000 
#    y 0.000000 2.973260 0.000000 
#    z 0.000000 0.000000 3.674380 
# 
# 
# High freq. dielectric constant tensor:
#      x y z
#    x 1.724230 0.000000 0.000000 
#    y 0.000000 1.693190 0.000000 
#    z 0.000000 0.000000 1.753790 
# 
# From -- ./inp_files/10959.got.cif
#   From: 2010.03.12/outbox.cif.g09.slc.cpg/sg74_6_cif.got.tgz:10959.got - 2010.04.16 15:46:19.
