data_PCOD8300988
_publ_section_title
;
Structure prediction by ZEFSAII (Michael W. Deem and Ramdas Pophale) SiO2 
 PCOD8300988
Probable space group: I M M A
;
_chemical_formula_sum "Si O2"
_cell_formula_units_Z 88
_cell_length_a 27.407295
_cell_length_b 8.780382
_cell_length_c 19.503615
_cell_angle_alpha 90.000000
_cell_angle_beta 90.000000
_cell_angle_gamma 90.000000
_cell_volume 4693.477071
_symmetry_space_group_name_H-M "I M M A"
_symmetry_group_IT_number 74
_symmetry_cell_setting 'orthorhombic'
loop_
_space_group_symop_operation_xyz
x,y,z
-x,1/2-y,z
x,-y,-z
-x,1/2+y,-z
-x,-y,-z
x,1/2+y,-z
-x,y,z
x,1/2-y,z
1/2+x,1/2+y,1/2+z
1/2-x,-y,1/2+z
1/2+x,1/2-y,1/2-z
1/2-x,y,1/2-z
1/2-x,1/2-y,1/2-z
1/2+x,y,1/2-z
1/2-x,1/2+y,1/2+z
1/2+x,-y,1/2+z
loop_
_atom_site_type_symbol
_atom_site_label
_atom_site_fract_x
_atom_site_fract_y
_atom_site_fract_z
Si Si1 0.500000 0.930616 0.424977
Si Si2 0.289352 0.430016 0.838553
Si Si3 0.183004 0.569470 0.188464
Si Si4 0.916751 0.429481 0.166035
Si Si5 0.624089 0.071567 0.927667
Si Si6 0.443112 0.922877 0.819141
O O1 0.500000 0.750000 0.429566
O O2 0.500000 0.000000 0.500000
O O3 0.451502 0.985012 0.386592
O O4 0.291113 0.250000 0.833006
O O5 0.233196 0.479306 0.850264
O O6 0.311543 0.489782 0.766707
O O7 0.323343 0.489875 0.900453
O O8 0.173744 0.750000 0.184239
O O9 0.138795 0.481254 0.152056
O O10 0.922746 0.250000 0.154943
O O11 0.931694 0.479341 0.242532
O O12 0.625465 0.250000 0.937694
O O13 0.582842 0.032037 0.872934
O O14 0.611009 0.000000 0.000000
O O15 0.500000 0.935566 0.833461
O O16 0.424622 0.750000 0.829165
#
# Coordination Sequence:
#
# PCOD8300988 Si02
#       6
#     8  16  16  16  16  16
#     4  12  26  44  66  90 119 156 193 232 288 352
#     4   8  16  31  54  81 112 147 193 244 287 338
#     4   9  16  32  57  85 112 147 193 241 289 338
#     4  11  21  37  60  91 124 152 188 238 290 344
#     4  11  22  37  56  81 113 154 196 241 294 349
#     4  10  21  38  58  82 114 151 191 240 288 336
#
# _framework density 18.749424999999999
#
# number of rings (size 3 to 8) (size 9 to 14) (size 15 to 20)
#    0.000    2.000    2.727    3.000    0.000    1.455 
#    0.000    4.545    0.000    2.182    0.000    0.000 
#    0.000    0.000    0.000    0.000    0.000    0.000 
#
# Total GULP energy -545575.818340 kJ/mol
# GULP energy per Si atom -12399.450417 kJ/mol
# Density = 1.870675 g / cm^3
# Si number density = 18.749425 Si / 1000 Ang^3
#
#
#
# Elastic Constant Matrix: (Units=GPa)
#
#
# Indices 1 2 3 4 5 6 
#
# 1 135.2534 42.8935 57.4775 0.0000 0.0000 0.0000
# 2 42.8935 73.4717 44.8429 0.0000 0.0000 0.0000
# 3 57.4775 44.8429 115.1188 0.0000 0.0000 0.0000
# 4 0.0000 0.0000 0.0000 22.6819 0.0000 0.0000
# 5 0.0000 0.0000 0.0000 0.0000 22.7466 0.0000
# 6 0.0000 0.0000 0.0000 0.0000 0.0000 27.7029
#
#
#
# Elastic Compliance Matrix: (Units=1/GPa)
#
#
# Indices 1 2 3 4 5 6 
#
# 1 0.010096 -0.003696 -0.003601 0.000000 0.000000 0.000000
# 2 -0.003696 0.019209 -0.005637 0.000000 0.000000 0.000000
# 3 -0.003601 -0.005637 0.012680 0.000000 0.000000 0.000000
# 4 0.000000 0.000000 0.000000 0.044088 0.000000 0.000000
# 5 0.000000 0.000000 0.000000 0.000000 0.043963 0.000000
# 6 0.000000 0.000000 0.000000 0.000000 0.000000 0.036097
#
#
# Mechanical properties :
#
#
# Convention : Reuss Voigt Hill
#
# Bulk Modulus (GPa) = 62.04697 68.25241 65.14969
# Shear Modulus (GPa) = 25.33251 26.53495 25.93373
#
# Velocity S-wave (km/s) = 3.67973 3.76605 3.72314
# Velocity P-wave (km/s) = 7.15671 7.44260 7.30105
#
# Compressibility (1/GPa) = 0.01611682
#
# Stress axis : x y z
#
# Youngs Moduli (GPa) = 99.04869 52.05825 78.86134
#
# Poissons Ratio (x) = 0.19243 0.28398
# Poissons Ratio (y) = 0.36612 0.44455
# Poissons Ratio (z) = 0.35667 0.29346
#
# Static dielectric constant tensor:
#      x y z
#    x 3.706050 0.000000 0.000000 
#    y 0.000000 3.270920 0.000000 
#    z 0.000000 0.000000 3.383010 
# 
# 
# High freq. dielectric constant tensor:
#      x y z
#    x 1.744860 0.000000 0.000000 
#    y 0.000000 1.714550 0.000000 
#    z 0.000000 0.000000 1.707760 
# 
# From -- ./inp_files/55065.got.cif
#   From: 2010.03.12/outbox.cif.g09.slc.cpg/sg74_28_cif.got.tgz:55065.got - 2010.04.16 15:46:19.
