data_PCOD8300389
_publ_section_title
;
Structure prediction by ZEFSAII (Michael W. Deem and Ramdas Pophale) SiO2 
 PCOD8300389
Probable space group: I M M A
;
_chemical_formula_sum "Si O2"
_cell_formula_units_Z 72
_cell_length_a 9.193363
_cell_length_b 16.630547
_cell_length_c 24.665648
_cell_angle_alpha 90.000000
_cell_angle_beta 90.000000
_cell_angle_gamma 90.000000
_cell_volume 3771.147090
_symmetry_space_group_name_H-M "I M M A"
_symmetry_group_IT_number 74
_symmetry_cell_setting 'orthorhombic'
loop_
_space_group_symop_operation_xyz
x,y,z
-x,1/2-y,z
x,-y,-z
-x,1/2+y,-z
-x,-y,-z
x,1/2+y,-z
-x,y,z
x,1/2-y,z
1/2+x,1/2+y,1/2+z
1/2-x,-y,1/2+z
1/2+x,1/2-y,1/2-z
1/2-x,y,1/2-z
1/2-x,1/2-y,1/2-z
1/2+x,y,1/2-z
1/2-x,1/2+y,1/2+z
1/2+x,-y,1/2+z
loop_
_atom_site_type_symbol
_atom_site_label
_atom_site_fract_x
_atom_site_fract_y
_atom_site_fract_z
Si Si1 0.665817 0.660758 0.999757
Si Si2 0.828053 0.882203 0.105249
Si Si3 0.329551 0.750000 0.307627
Si Si4 0.170940 0.450064 0.401200
Si Si5 0.169700 0.841361 0.698063
O O1 0.500000 0.642776 0.017775
O O2 0.675379 0.750000 0.973121
O O3 0.768687 0.660538 0.051662
O O4 0.716263 0.592416 0.957508
O O5 0.785474 0.829146 0.157819
O O6 0.000000 0.889803 0.099945
O O7 0.758400 0.969433 0.109590
O O8 0.500000 0.750000 0.295667
O O9 0.250000 0.750000 0.250000
O O10 0.218126 0.389865 0.354282
O O11 0.000000 0.468896 0.400484
O O12 0.219768 0.750000 0.688620
O O13 0.250000 0.878830 0.750000
O O14 0.000000 0.848031 0.708932
#
# Coordination Sequence:
#
# PCOD8300389 Si02
#       5
#    16  16   8  16  16
#     4  10  20  36  60  86 114 151 192 231 277 338
#     4  11  23  40  58  82 116 148 183 235 293 342
#     4  10  24  44  64  84 110 148 195 242 289 346
#     4  10  21  36  56  85 116 148 191 235 279 336
#     4   9  18  34  55  78 110 149 186 229 278 330
#
# _framework density 19.092334000000001
#
# number of rings (size 3 to 8) (size 9 to 14) (size 15 to 20)
#    0.000    2.000    1.111    2.000    0.000    9.778 
#    0.000    4.444    0.000    4.000    0.000    0.000 
#    0.000    0.000    0.000    0.000    0.000    0.000 
#
# Total GULP energy -446404.760789 kJ/mol
# GULP energy per Si atom -12400.132244 kJ/mol
# Density = 1.904888 g / cm^3
# Si number density = 19.092334 Si / 1000 Ang^3
#
#
#
# Elastic Constant Matrix: (Units=GPa)
#
#
# Indices 1 2 3 4 5 6 
#
# 1 61.5403 55.6319 63.5371 0.0000 0.0000 0.0000
# 2 55.6319 134.3681 75.9103 0.0000 0.0000 0.0000
# 3 63.5371 75.9103 155.1703 0.0000 0.0000 0.0000
# 4 0.0000 0.0000 0.0000 17.1562 0.0000 0.0000
# 5 0.0000 0.0000 0.0000 0.0000 35.4103 0.0000
# 6 0.0000 0.0000 0.0000 0.0000 0.0000 29.2639
#
#
#
# Elastic Compliance Matrix: (Units=1/GPa)
#
#
# Indices 1 2 3 4 5 6 
#
# 1 0.034100 -0.008609 -0.009751 0.000000 0.000000 0.000000
# 2 -0.008609 0.012458 -0.002569 0.000000 0.000000 0.000000
# 3 -0.009751 -0.002569 0.011694 0.000000 0.000000 0.000000
# 4 0.000000 0.000000 0.000000 0.058288 0.000000 0.000000
# 5 0.000000 0.000000 0.000000 0.000000 0.028240 0.000000
# 6 0.000000 0.000000 0.000000 0.000000 0.000000 0.034172
#
#
# Mechanical properties :
#
#
# Convention : Reuss Voigt Hill
#
# Bulk Modulus (GPa) = 61.00287 82.35969 71.68128
# Shear Modulus (GPa) = 22.09691 26.76605 24.43148
#
# Velocity S-wave (km/s) = 3.40571 3.74829 3.58110
# Velocity P-wave (km/s) = 6.89101 7.87173 7.39764
#
# Compressibility (1/GPa) = 0.01639267
#
# Stress axis : x y z
#
# Youngs Moduli (GPa) = 29.32580 80.26737 85.51272
#
# Poissons Ratio (x) = 0.69106 0.83382
# Poissons Ratio (y) = 0.25248 0.21972
# Poissons Ratio (z) = 0.28595 0.20624
#
# Static dielectric constant tensor:
#      x y z
#    x 3.392480 0.000000 0.000000 
#    y 0.000000 3.665510 0.000000 
#    z 0.000000 0.000000 3.573150 
# 
# 
# High freq. dielectric constant tensor:
#      x y z
#    x 1.732840 0.000000 0.000000 
#    y 0.000000 1.755530 0.000000 
#    z 0.000000 0.000000 1.745520 
# 
# From -- ./inp_files/56683.got.cif
#   From: 2010.03.12/outbox.cif.g09.slc.cpg/sg74_29_cif.got.tgz:56683.got - 2010.04.16 15:46:19.
