data_PCOD8300234
_publ_section_title
;
Structure prediction by ZEFSAII (Michael W. Deem and Ramdas Pophale) SiO2 
 PCOD8300234
Probable space group: I M M A
;
_chemical_formula_sum "Si O2"
_cell_formula_units_Z 48
_cell_length_a 14.020648
_cell_length_b 7.944965
_cell_length_c 22.726466
_cell_angle_alpha 90.000000
_cell_angle_beta 90.000000
_cell_angle_gamma 90.000000
_cell_volume 2531.581900
_symmetry_space_group_name_H-M "I M M A"
_symmetry_group_IT_number 74
_symmetry_cell_setting 'orthorhombic'
loop_
_space_group_symop_operation_xyz
x,y,z
-x,1/2-y,z
x,-y,-z
-x,1/2+y,-z
-x,-y,-z
x,1/2+y,-z
-x,y,z
x,1/2-y,z
1/2+x,1/2+y,1/2+z
1/2-x,-y,1/2+z
1/2+x,1/2-y,1/2-z
1/2-x,y,1/2-z
1/2-x,1/2-y,1/2-z
1/2+x,y,1/2-z
1/2-x,1/2+y,1/2+z
1/2+x,-y,1/2+z
loop_
_atom_site_type_symbol
_atom_site_label
_atom_site_fract_x
_atom_site_fract_y
_atom_site_fract_z
Si Si1 0.248419 0.065494 0.063533
Si Si2 0.386664 0.250000 0.136335
Si Si3 0.890167 0.437351 0.846645
Si Si4 0.112594 0.250000 0.230772
O O1 0.200119 0.250000 0.057283
O O2 0.344602 0.083575 0.103564
O O3 0.171657 0.943330 0.093729
O O4 0.279559 0.000000 0.000000
O O5 0.500000 0.250000 0.132958
O O6 0.346456 0.250000 0.203195
O O7 0.878665 0.250000 0.818801
O O8 0.851927 0.580720 0.802068
O O9 0.000000 0.471763 0.863199
O O10 0.000000 0.250000 0.234930
#
# Coordination Sequence:
#
# PCOD8300234 Si02
#       4
#    16   8  16   8
#     4  10  21  36  56  81 117 152 199 241 280 345
#     4   9  21  39  62  82 113 160 197 248 303 331
#     4  10  20  35  59  89 122 156 186 230 294 357
#     4   9  17  37  61  86 119 151 194 241 288 351
#
# _framework density 18.960477000000001
#
# number of rings (size 3 to 8) (size 9 to 14) (size 15 to 20)
#    1.000    1.333    1.667    1.000    0.000    4.000 
#    0.000    5.000    0.000    4.000    0.000    0.000 
#    0.000    0.000    0.000    0.000    0.000    0.000 
#
# Total GULP energy -297411.236888 kJ/mol
# GULP energy per Si atom -12392.134870 kJ/mol
# Density = 1.891732 g / cm^3
# Si number density = 18.960477 Si / 1000 Ang^3
#
#
#
# Elastic Constant Matrix: (Units=GPa)
#
#
# Indices 1 2 3 4 5 6 
#
# 1 75.1076 33.2706 46.1133 0.0000 0.0000 0.0000
# 2 33.2706 125.5578 53.6194 0.0000 0.0000 0.0000
# 3 46.1133 53.6194 156.5592 0.0000 0.0000 0.0000
# 4 0.0000 0.0000 0.0000 32.9001 0.0000 0.0000
# 5 0.0000 0.0000 0.0000 0.0000 22.3726 0.0000
# 6 0.0000 0.0000 0.0000 0.0000 0.0000 14.6736
#
#
#
# Elastic Compliance Matrix: (Units=1/GPa)
#
#
# Indices 1 2 3 4 5 6 
#
# 1 0.017043 -0.002779 -0.004068 0.000000 0.000000 0.000000
# 2 -0.002779 0.009782 -0.002532 0.000000 0.000000 0.000000
# 3 -0.004068 -0.002532 0.008453 0.000000 0.000000 0.000000
# 4 0.000000 0.000000 0.000000 0.030395 0.000000 0.000000
# 5 0.000000 0.000000 0.000000 0.000000 0.044697 0.000000
# 6 0.000000 0.000000 0.000000 0.000000 0.000000 0.068150
#
#
# Mechanical properties :
#
#
# Convention : Reuss Voigt Hill
#
# Bulk Modulus (GPa) = 60.53188 69.24790 64.88989
# Shear Modulus (GPa) = 24.65683 28.93735 26.79709
#
# Velocity S-wave (km/s) = 3.61006 3.91089 3.76348
# Velocity P-wave (km/s) = 7.02648 7.54950 7.29268
#
# Compressibility (1/GPa) = 0.01652022
#
# Stress axis : x y z
#
# Youngs Moduli (GPa) = 58.67565 102.22909 118.30564
#
# Poissons Ratio (x) = 0.28407 0.48129
# Poissons Ratio (y) = 0.16305 0.29952
# Poissons Ratio (z) = 0.23870 0.25882
#
# Static dielectric constant tensor:
#      x y z
#    x 3.187320 0.000000 0.000000 
#    y 0.000000 3.466350 0.000000 
#    z 0.000000 0.000000 3.483790 
# 
# 
# High freq. dielectric constant tensor:
#      x y z
#    x 1.725330 0.000000 0.000000 
#    y 0.000000 1.730660 0.000000 
#    z 0.000000 0.000000 1.732470 
# 
# From -- ./inp_files/33384.got.cif
#   From: 2010.03.12/outbox.cif.g09.slc.cpg/sg74_17_cif.got.tgz:33384.got - 2010.04.16 15:46:19.
