data_PCOD8300346
_publ_section_title
;
Structure prediction by ZEFSAII (Michael W. Deem and Ramdas Pophale) SiO2 
 PCOD8300346
Probable space group: I M M A
;
_chemical_formula_sum "Si O2"
_cell_formula_units_Z 96
_cell_length_a 22.565937
_cell_length_b 15.364255
_cell_length_c 14.769989
_cell_angle_alpha 90.000000
_cell_angle_beta 90.000000
_cell_angle_gamma 90.000000
_cell_volume 5120.885316
_symmetry_space_group_name_H-M "I M M A"
_symmetry_group_IT_number 74
_symmetry_cell_setting 'orthorhombic'
loop_
_space_group_symop_operation_xyz
x,y,z
-x,1/2-y,z
x,-y,-z
-x,1/2+y,-z
-x,-y,-z
x,1/2+y,-z
-x,y,z
x,1/2-y,z
1/2+x,1/2+y,1/2+z
1/2-x,-y,1/2+z
1/2+x,1/2-y,1/2-z
1/2-x,y,1/2-z
1/2-x,1/2-y,1/2-z
1/2+x,y,1/2-z
1/2-x,1/2+y,1/2+z
1/2+x,-y,1/2+z
loop_
_atom_site_type_symbol
_atom_site_label
_atom_site_fract_x
_atom_site_fract_y
_atom_site_fract_z
Si Si1 0.000000 0.348367 0.791013
Si Si2 0.812200 0.510411 0.403749
Si Si3 0.223363 0.346891 0.848517
Si Si4 0.761305 0.848109 0.856465
Si Si5 0.884644 0.557722 0.228351
Si Si6 0.882062 0.428711 0.077294
Si Si7 0.000000 0.396281 0.998429
O O1 0.057552 0.389268 0.744748
O O2 0.000000 0.250000 0.761122
O O3 0.000000 0.357703 0.898723
O O4 0.846191 0.500000 0.500000
O O5 0.762420 0.586889 0.408199
O O6 0.782425 0.416830 0.398917
O O7 0.856063 0.527121 0.321806
O O8 0.221422 0.250000 0.893410
O O9 0.250000 0.339552 0.750000
O O10 0.157498 0.384285 0.836477
O O11 0.745441 0.750000 0.886520
O O12 0.750000 0.859004 0.750000
O O13 0.827148 0.868206 0.894204
O O14 0.903572 0.475441 0.169074
O O15 0.938160 0.368153 0.046625
O O16 0.864902 0.500000 0.000000
O O17 0.000000 0.500000 0.000000
#
# Coordination Sequence:
#
# PCOD8300346 Si02
#       7
#     8  16  16  16  16  16   8
#     4  12  24  38  61  92 120 152 196 248 301 367
#     4  11  22  38  58  84 117 158 202 248 295 349
#     4   9  18  33  56  83 115 151 191 241 300 355
#     4  11  22  37  57  84 118 160 203 245 294 351
#     4  11  20  38  58  82 120 155 193 242 294 355
#     4  11  19  37  59  83 118 157 195 237 300 357
#     4  10  20  36  58  86 117 154 194 234 296 361
#
# _framework density 18.746759000000001
#
# number of rings (size 3 to 8) (size 9 to 14) (size 15 to 20)
#    0.000    1.333    6.667    1.500    0.000    2.000 
#    0.000    0.417    0.000    0.000    0.000    0.583 
#    0.000    0.000    0.000    0.000    0.000    0.000 
#
# Total GULP energy -594760.179510 kJ/mol
# GULP energy per Si atom -12390.837073 kJ/mol
# Density = 1.870409 g / cm^3
# Si number density = 18.746759 Si / 1000 Ang^3
#
#
#
# Elastic Constant Matrix: (Units=GPa)
#
#
# Indices 1 2 3 4 5 6 
#
# 1 118.0776 25.8101 43.0605 0.0000 0.0000 0.0000
# 2 25.8101 92.4639 35.7928 0.0000 0.0000 0.0000
# 3 43.0605 35.7928 102.3024 0.0000 0.0000 0.0000
# 4 0.0000 0.0000 0.0000 -0.6839 0.0000 0.0000
# 5 0.0000 0.0000 0.0000 0.0000 11.8414 0.0000
# 6 0.0000 0.0000 0.0000 0.0000 0.0000 22.1993
#
#
#
# Elastic Compliance Matrix: (Units=1/GPa)
#
#
# Indices 1 2 3 4 5 6 
#
# 1 0.010151 -0.001364 -0.003795 0.000000 0.000000 0.000000
# 2 -0.001364 0.012693 -0.003867 0.000000 0.000000 0.000000
# 3 -0.003795 -0.003867 0.012725 0.000000 0.000000 0.000000
# 4 0.000000 0.000000 0.000000 -1.462196 0.000000 0.000000
# 5 0.000000 0.000000 0.000000 0.000000 0.084450 0.000000
# 6 0.000000 0.000000 0.000000 0.000000 0.000000 0.045046
#
#
# Mechanical properties :
#
#
# Convention : Reuss Voigt Hill
#
# Bulk Modulus (GPa) = 57.08899 58.01897 57.55398
# Shear Modulus (GPa) = -3.92699 20.55006 8.31153
#
# Velocity S-wave (km/s) = -1.44890 3.31447 2.10789
# Velocity P-wave (km/s) = 5.26496 6.75749 6.05737
#
# Compressibility (1/GPa) = 0.01751651
#
# Stress axis : x y z
#
# Youngs Moduli (GPa) = 98.50878 78.78600 78.58356
#
# Poissons Ratio (x) = 0.10749 0.29826
# Poissons Ratio (y) = 0.13440 0.30384
# Poissons Ratio (z) = 0.37389 0.30463
#
# Static dielectric constant tensor:
#      x y z
#    x 3.373730 0.000000 0.000000 
#    y 0.000000 3.726000 0.000000 
#    z 0.000000 0.000000 3.490070 
# 
# 
# High freq. dielectric constant tensor:
#      x y z
#    x 1.714670 0.000000 0.000000 
#    y 0.000000 1.726280 0.000000 
#    z 0.000000 0.000000 1.724150 
# 
# From -- ./inp_files/32433.got.cif
#   From: 2010.03.12/outbox.cif.g09.slc.cpg/sg74_17_cif.got.tgz:32433.got - 2010.04.16 15:46:19.
