data_PCOD8300221
_publ_section_title
;
Structure prediction by ZEFSAII (Michael W. Deem and Ramdas Pophale) SiO2 
 PCOD8300221
Probable space group: I M M A
;
_chemical_formula_sum "Si O2"
_cell_formula_units_Z 64
_cell_length_a 9.875175
_cell_length_b 23.718536
_cell_length_c 13.799155
_cell_angle_alpha 90.000000
_cell_angle_beta 90.000000
_cell_angle_gamma 90.000000
_cell_volume 3232.102854
_symmetry_space_group_name_H-M "I M M A"
_symmetry_group_IT_number 74
_symmetry_cell_setting 'orthorhombic'
loop_
_space_group_symop_operation_xyz
x,y,z
-x,1/2-y,z
x,-y,-z
-x,1/2+y,-z
-x,-y,-z
x,1/2+y,-z
-x,y,z
x,1/2-y,z
1/2+x,1/2+y,1/2+z
1/2-x,-y,1/2+z
1/2+x,1/2-y,1/2-z
1/2-x,y,1/2-z
1/2-x,1/2-y,1/2-z
1/2+x,y,1/2-z
1/2-x,1/2+y,1/2+z
1/2+x,-y,1/2+z
loop_
_atom_site_type_symbol
_atom_site_label
_atom_site_fract_x
_atom_site_fract_y
_atom_site_fract_z
Si Si1 0.273557 0.129611 0.043405
Si Si2 0.658619 0.472027 0.160393
Si Si3 0.500000 0.682589 0.606480
Si Si4 0.846628 0.602642 0.335888
Si Si5 0.000000 0.184001 0.329419
O O1 0.287245 0.063135 0.068241
O O2 0.125313 0.154685 0.052002
O O3 0.366153 0.162752 0.118675
O O4 0.320289 0.138665 0.932658
O O5 0.500000 0.458447 0.180057
O O6 0.750000 0.451886 0.250000
O O7 0.682542 0.537529 0.139393
O O8 0.500000 0.750000 0.594038
O O9 0.500000 0.663930 0.718372
O O10 0.750000 0.624370 0.250000
O O11 0.000000 0.611366 0.300390
O O12 0.000000 0.250000 0.334688
#
# Coordination Sequence:
#
# PCOD8300221 Si02
#       5
#    16  16   8  16   8
#     4  12  22  38  63  89 119 164 198 242 301 357
#     4  10  20  35  58  91 127 159 194 239 293 357
#     4  11  26  42  60  91 125 151 194 254 306 359
#     4  10  22  40  61  90 125 161 200 244 290 347
#     4  11  22  40  64  89 117 151 198 248 306 365
#
# _framework density 19.801348999999998
#
# number of rings (size 3 to 8) (size 9 to 14) (size 15 to 20)
#    0.000    1.250    2.500    3.750    3.500    4.000 
#    0.000    1.250    0.000    4.500    0.000    0.000 
#    0.000    0.000    0.000    0.000    0.000    0.000 
#
# Total GULP energy -396876.754429 kJ/mol
# GULP energy per Si atom -12402.398576 kJ/mol
# Density = 1.975628 g / cm^3
# Si number density = 19.801349 Si / 1000 Ang^3
#
#
#
# Elastic Constant Matrix: (Units=GPa)
#
#
# Indices 1 2 3 4 5 6 
#
# 1 140.3807 25.4184 42.2423 0.0000 0.0000 -0.0003
# 2 25.4184 37.5369 20.6179 0.0001 0.0000 -0.0001
# 3 42.2423 20.6179 112.8502 0.0007 -0.0001 -0.0014
# 4 0.0000 0.0001 0.0007 21.1662 0.0000 -0.0005
# 5 0.0000 0.0000 -0.0001 0.0000 34.9514 0.0001
# 6 -0.0003 -0.0001 -0.0014 -0.0005 0.0001 -172.1991
#
#
#
# Elastic Compliance Matrix: (Units=1/GPa)
#
#
# Indices 1 2 3 4 5 6 
#
# 1 0.008674 -0.004546 -0.002416 0.000000 0.000000 0.000000
# 2 -0.004546 0.031995 -0.004144 0.000000 0.000000 0.000000
# 3 -0.002416 -0.004144 0.010523 0.000000 0.000000 0.000000
# 4 0.000000 0.000000 0.000000 0.047245 0.000000 0.000000
# 5 0.000000 0.000000 0.000000 0.000000 0.028611 0.000000
# 6 0.000000 0.000000 0.000000 0.000000 0.000000 -0.005807
#
#
# Mechanical properties :
#
#
# Convention : Reuss Voigt Hill
#
# Bulk Modulus (GPa) = 34.50764 51.92499 43.21631
# Shear Modulus (GPa) = 32.65567 -9.71702 11.46933
#
# Velocity S-wave (km/s) = 4.06540 -2.21763 2.40931
# Velocity P-wave (km/s) = 6.28501 4.44102 5.44169
#
# Compressibility (1/GPa) = 0.02897909
#
# Stress axis : x y z
#
# Youngs Moduli (GPa) = 115.29062 31.25483 95.03183
#
# Poissons Ratio (x) = 0.14210 0.22961
# Poissons Ratio (y) = 0.52415 0.39379
# Poissons Ratio (z) = 0.27856 0.12951
#
# Static dielectric constant tensor:
#      x y z
#    x 3.808690 0.000000 0.000000 
#    y 0.000000 3.504150 0.000000 
#    z 0.000000 0.000000 3.582940 
# 
# 
# High freq. dielectric constant tensor:
#      x y z
#    x 1.784240 0.000000 0.000000 
#    y 0.000000 1.756800 0.000000 
#    z 0.000000 0.000000 1.769940 
# 
# From -- ./inp_files/24697.got.cif
#   From: 2010.03.12/outbox.cif.g09.slc.cpg/sg74_13_cif.got.tgz:24697.got - 2010.04.16 15:46:19.
