data_PCOD8300909
_publ_section_title
;
Structure prediction by ZEFSAII (Michael W. Deem and Ramdas Pophale) SiO2 
 PCOD8300909
Probable space group: I M M A
;
_chemical_formula_sum "Si O2"
_cell_formula_units_Z 96
_cell_length_a 8.679976
_cell_length_b 27.419718
_cell_length_c 20.241619
_cell_angle_alpha 90.000000
_cell_angle_beta 90.000000
_cell_angle_gamma 90.000000
_cell_volume 4817.555808
_symmetry_space_group_name_H-M "I M M A"
_symmetry_group_IT_number 74
_symmetry_cell_setting 'orthorhombic'
loop_
_space_group_symop_operation_xyz
x,y,z
-x,1/2-y,z
x,-y,-z
-x,1/2+y,-z
-x,-y,-z
x,1/2+y,-z
-x,y,z
x,1/2-y,z
1/2+x,1/2+y,1/2+z
1/2-x,-y,1/2+z
1/2+x,1/2-y,1/2-z
1/2-x,y,1/2-z
1/2-x,1/2-y,1/2-z
1/2+x,y,1/2-z
1/2-x,1/2+y,1/2+z
1/2+x,-y,1/2+z
loop_
_atom_site_type_symbol
_atom_site_label
_atom_site_fract_x
_atom_site_fract_y
_atom_site_fract_z
Si Si1 0.177029 0.806389 0.576289
Si Si2 0.180092 0.033572 0.939457
Si Si3 0.182254 0.305076 0.682094
Si Si4 0.321158 0.863859 0.055459
Si Si5 0.180557 0.124383 0.180149
Si Si6 0.181755 0.978658 0.679322
O O1 0.222911 0.750000 0.577554
O O2 0.206591 0.825682 0.502919
O O3 0.286394 0.833988 0.627232
O O4 0.000000 0.814406 0.597321
O O5 0.219704 0.088719 0.958563
O O6 0.000000 0.027382 0.925850
O O7 0.272112 0.019234 0.873703
O O8 0.234572 0.000000 0.000000
O O9 0.243642 0.250000 0.671010
O O10 0.250000 0.326792 0.750000
O O11 0.239758 0.338701 0.622303
O O12 0.000000 0.305396 0.685873
O O13 0.500000 0.878709 0.060877
O O14 0.250000 0.140923 0.250000
O O15 0.254459 0.073674 0.155867
O O16 0.000000 0.116423 0.188149
O O17 0.250000 0.993863 0.750000
O O18 0.000000 0.975510 0.685539
#
# Coordination Sequence:
#
# PCOD8300909 Si02
#       6
#    16  16  16  16  16  16
#     4  10  21  38  60  85 114 150 193 240 289 341
#     4  11  24  40  58  83 116 152 191 237 286 337
#     4   9  18  34  56  82 112 146 184 226 273 326
#     4  10  21  37  58  83 112 149 191 235 284 338
#     4  11  22  38  60  86 117 151 188 231 282 341
#     4  11  22  39  63  88 116 150 190 235 285 343
#
# _framework density 19.927116999999999
#
# number of rings (size 3 to 8) (size 9 to 14) (size 15 to 20)
#    0.000    1.667    0.000    6.000    0.000    8.667 
#    0.000    1.667    0.000    3.000    0.000    0.000 
#    0.000    0.000    0.000    0.000    0.000    0.000 
#
# Total GULP energy -595496.376478 kJ/mol
# GULP energy per Si atom -12406.174510 kJ/mol
# Density = 1.988176 g / cm^3
# Si number density = 19.927117 Si / 1000 Ang^3
#
#
#
# Elastic Constant Matrix: (Units=GPa)
#
#
# Indices 1 2 3 4 5 6 
#
# 1 97.4494 20.3095 29.4589 0.0001 0.0000 0.0000
# 2 20.3095 65.7662 19.6411 0.0002 0.0000 0.0000
# 3 29.4589 19.6411 84.0639 0.0002 0.0000 -0.0001
# 4 0.0001 0.0002 0.0002 41.4879 0.0000 0.0000
# 5 0.0000 0.0000 0.0000 0.0000 34.0919 0.0000
# 6 0.0000 0.0000 -0.0001 0.0000 0.0000 21.0359
#
#
#
# Elastic Compliance Matrix: (Units=1/GPa)
#
#
# Indices 1 2 3 4 5 6 
#
# 1 0.011879 -0.002607 -0.003554 0.000000 0.000000 0.000000
# 2 -0.002607 0.016918 -0.003039 0.000000 0.000000 0.000000
# 3 -0.003554 -0.003039 0.013851 0.000000 0.000000 0.000000
# 4 0.000000 0.000000 0.000000 0.024103 0.000000 0.000000
# 5 0.000000 0.000000 0.000000 0.000000 0.029332 0.000000
# 6 0.000000 0.000000 0.000000 0.000000 0.000000 0.047538
#
#
# Mechanical properties :
#
#
# Convention : Reuss Voigt Hill
#
# Bulk Modulus (GPa) = 41.23983 42.89983 42.06983
# Shear Modulus (GPa) = 29.39348 31.18113 30.28730
#
# Velocity S-wave (km/s) = 3.84480 3.95999 3.90282
# Velocity P-wave (km/s) = 6.36005 6.51796 6.43949
#
# Compressibility (1/GPa) = 0.02424840
#
# Stress axis : x y z
#
# Youngs Moduli (GPa) = 84.17921 59.10798 72.19598
#
# Poissons Ratio (x) = 0.15411 0.25657
# Poissons Ratio (y) = 0.21947 0.21942
# Poissons Ratio (z) = 0.29916 0.17964
#
# Static dielectric constant tensor:
#      x y z
#    x 3.561140 0.000000 0.000000 
#    y 0.000000 3.574490 0.000000 
#    z 0.000000 0.000000 3.723780 
# 
# 
# High freq. dielectric constant tensor:
#      x y z
#    x 1.775380 0.000000 0.000000 
#    y 0.000000 1.776630 0.000000 
#    z 0.000000 0.000000 1.789660 
# 
# From -- ./inp_files/49121.got.cif
#   From: 2010.03.12/outbox.cif.g09.slc.cpg/sg74_25_cif.got.tgz:49121.got - 2010.04.16 15:46:19.
