data_PCOD8300583
_publ_section_title
;
Structure prediction by ZEFSAII (Michael W. Deem and Ramdas Pophale) SiO2 
 PCOD8300583
Probable space group: I M M A
;
_chemical_formula_sum "Si O2"
_cell_formula_units_Z 112
_cell_length_a 28.292071
_cell_length_b 14.881433
_cell_length_c 12.536296
_cell_angle_alpha 90.000000
_cell_angle_beta 90.000000
_cell_angle_gamma 90.000000
_cell_volume 5278.113568
_symmetry_space_group_name_H-M "I M M A"
_symmetry_group_IT_number 74
_symmetry_cell_setting 'orthorhombic'
loop_
_space_group_symop_operation_xyz
x,y,z
-x,1/2-y,z
x,-y,-z
-x,1/2+y,-z
-x,-y,-z
x,1/2+y,-z
-x,y,z
x,1/2-y,z
1/2+x,1/2+y,1/2+z
1/2-x,-y,1/2+z
1/2+x,1/2-y,1/2-z
1/2-x,y,1/2-z
1/2-x,1/2-y,1/2-z
1/2+x,y,1/2-z
1/2-x,1/2+y,1/2+z
1/2+x,-y,1/2+z
loop_
_atom_site_type_symbol
_atom_site_label
_atom_site_fract_x
_atom_site_fract_y
_atom_site_fract_z
Si Si1 0.787060 0.951511 0.107543
Si Si2 0.605018 0.150024 0.326999
Si Si3 0.885627 0.940329 0.403916
Si Si4 0.444632 0.967198 0.284510
Si Si5 0.879144 0.352875 0.926184
Si Si6 0.702318 0.647539 0.013562
Si Si7 0.315347 0.431150 0.207576
O O1 0.828813 0.879350 0.126798
O O2 0.781844 0.023918 0.202682
O O3 0.735555 0.904478 0.098096
O O4 0.802163 0.000000 0.000000
O O5 0.582370 0.250000 0.313272
O O6 0.620635 0.132432 0.447715
O O7 0.653617 0.148629 0.259070
O O8 0.568681 0.073483 0.286613
O O9 0.929473 0.916362 0.326757
O O10 0.853244 0.860364 0.453706
O O11 0.906006 0.000000 0.500000
O O12 0.851350 0.992910 0.326331
O O13 0.500000 0.957357 0.297716
O O14 0.420554 0.915641 0.381818
O O15 0.889261 0.250000 0.894893
O O16 0.717859 0.750000 0.011527
O O17 0.712621 0.605226 0.896444
#
# Coordination Sequence:
#
# PCOD8300583 Si02
#       7
#    16  16  16  16  16  16  16
#     4  12  21  40  65  91 130 174 215 264 321 390
#     4  10  20  38  65  95 130 172 215 265 324 387
#     4   9  20  41  64  87 121 164 208 262 321 386
#     4  11  23  41  65  94 129 170 213 269 338 395
#     4  11  22  39  61  94 131 170 220 267 318 387
#     4  11  25  41  62  97 132 170 222 274 323 384
#     4  10  20  41  64  89 126 175 214 260 320 384
#
# _framework density 21.219701000000001
#
# number of rings (size 3 to 8) (size 9 to 14) (size 15 to 20)
#    0.000    1.429    4.286    2.571    0.000    4.857 
#    0.000    2.857    0.000    0.000    0.000    2.000 
#    0.000    0.000    0.000    0.000    0.000    0.000 
#
# Total GULP energy -694095.242852 kJ/mol
# GULP energy per Si atom -12394.557908 kJ/mol
# Density = 2.117140 g / cm^3
# Si number density = 21.219701 Si / 1000 Ang^3
#
#
#
# Elastic Constant Matrix: (Units=GPa)
#
#
# Indices 1 2 3 4 5 6 
#
# 1 119.5896 37.9111 30.4621 0.0000 0.0000 0.0000
# 2 37.9111 101.0449 30.9999 0.0000 0.0000 0.0000
# 3 30.4621 30.9999 98.5835 0.0000 0.0000 0.0000
# 4 0.0000 0.0000 0.0000 18.1182 0.0000 0.0000
# 5 0.0000 0.0000 0.0000 0.0000 23.0495 0.0000
# 6 0.0000 0.0000 0.0000 0.0000 0.0000 19.1048
#
#
#
# Elastic Compliance Matrix: (Units=1/GPa)
#
#
# Indices 1 2 3 4 5 6 
#
# 1 0.009863 -0.003061 -0.002085 0.000000 0.000000 0.000000
# 2 -0.003061 0.011903 -0.002797 0.000000 0.000000 0.000000
# 3 -0.002085 -0.002797 0.011668 0.000000 0.000000 0.000000
# 4 0.000000 0.000000 0.000000 0.055193 0.000000 0.000000
# 5 0.000000 0.000000 0.000000 0.000000 0.043385 0.000000
# 6 0.000000 0.000000 0.000000 0.000000 0.000000 0.052343
#
#
# Mechanical properties :
#
#
# Convention : Reuss Voigt Hill
#
# Bulk Modulus (GPa) = 56.98818 57.55157 57.26988
# Shear Modulus (GPa) = 24.26110 26.71081 25.48595
#
# Velocity S-wave (km/s) = 3.38498 3.55177 3.46938
# Velocity P-wave (km/s) = 6.49554 6.63330 6.56478
#
# Compressibility (1/GPa) = 0.01754750
#
# Stress axis : x y z
#
# Youngs Moduli (GPa) = 101.38455 84.01122 85.70733
#
# Poissons Ratio (x) = 0.25715 0.17872
# Poissons Ratio (y) = 0.31033 0.23974
# Poissons Ratio (z) = 0.21141 0.23499
#
# Static dielectric constant tensor:
#      x y z
#    x 3.689410 0.000000 0.000000 
#    y 0.000000 3.779430 0.000000 
#    z 0.000000 0.000000 5.314900 
# 
# 
# High freq. dielectric constant tensor:
#      x y z
#    x 1.808500 0.000000 0.000000 
#    y 0.000000 1.818490 0.000000 
#    z 0.000000 0.000000 1.848870 
# 
# From -- ./inp_files/27239.got.cif
#   From: 2010.03.12/outbox.cif.g09.slc.cpg/sg74_14_cif.got.tgz:27239.got - 2010.04.16 15:46:19.
