data_PCOD8300896
_publ_section_title
;
Structure prediction by ZEFSAII (Michael W. Deem and Ramdas Pophale) SiO2 
 PCOD8300896
Probable space group: I M M A
;
_chemical_formula_sum "Si O2"
_cell_formula_units_Z 96
_cell_length_a 8.681757
_cell_length_b 27.513922
_cell_length_c 20.377283
_cell_angle_alpha 90.000000
_cell_angle_beta 90.000000
_cell_angle_gamma 90.000000
_cell_volume 4867.504981
_symmetry_space_group_name_H-M "I M M A"
_symmetry_group_IT_number 74
_symmetry_cell_setting 'orthorhombic'
loop_
_space_group_symop_operation_xyz
x,y,z
-x,1/2-y,z
x,-y,-z
-x,1/2+y,-z
-x,-y,-z
x,1/2+y,-z
-x,y,z
x,1/2-y,z
1/2+x,1/2+y,1/2+z
1/2-x,-y,1/2+z
1/2+x,1/2-y,1/2-z
1/2-x,y,1/2-z
1/2-x,1/2-y,1/2-z
1/2+x,y,1/2-z
1/2-x,1/2+y,1/2+z
1/2+x,-y,1/2+z
loop_
_atom_site_type_symbol
_atom_site_label
_atom_site_fract_x
_atom_site_fract_y
_atom_site_fract_z
Si Si1 0.318541 0.635386 0.319680
Si Si2 0.821231 0.194058 0.566320
Si Si3 0.320503 0.360030 0.445637
Si Si4 0.181412 0.967663 0.319925
Si Si5 0.318540 0.804985 0.682914
Si Si6 0.321359 0.473237 0.434181
O O1 0.500000 0.629869 0.313312
O O2 0.250000 0.651388 0.250000
O O3 0.277642 0.676556 0.371890
O O4 0.250122 0.583876 0.343055
O O5 0.780250 0.250000 0.552536
O O6 0.779052 0.163052 0.502942
O O7 0.000000 0.186801 0.582706
O O8 0.500000 0.348368 0.457978
O O9 0.261276 0.337495 0.377406
O O10 0.288022 0.416849 0.443898
O O11 0.250000 0.983689 0.250000
O O12 0.000000 0.962451 0.312754
O O13 0.222164 0.008257 0.373151
O O14 0.500000 0.806669 0.688798
O O15 0.258732 0.750000 0.671989
O O16 0.250000 0.826882 0.750000
O O17 0.266539 0.500000 0.500000
O O18 0.500000 0.483886 0.419563
#
# Coordination Sequence:
#
# PCOD8300896 Si02
#       6
#    16  16  16  16  16  16
#     4  11  22  39  63  88 117 152 191 236 286 342
#     4  11  24  40  59  86 119 153 192 238 286 340
#     4  10  21  37  58  83 113 150 191 237 287 339
#     4  11  22  38  61  87 118 154 193 237 286 343
#     4   9  18  33  53  77 106 141 182 227 277 333
#     4  10  21  37  57  83 115 150 190 237 288 340
#
# _framework density 19.722629999999999
#
# number of rings (size 3 to 8) (size 9 to 14) (size 15 to 20)
#    0.000    1.667    0.000    6.000    0.000    6.000 
#    0.000    3.333    0.000    0.000    0.000    0.000 
#    0.000    0.000    0.000    0.000    0.000    0.000 
#
# Total GULP energy -595482.569579 kJ/mol
# GULP energy per Si atom -12405.886866 kJ/mol
# Density = 1.967774 g / cm^3
# Si number density = 19.722630 Si / 1000 Ang^3
#
#
#
# Elastic Constant Matrix: (Units=GPa)
#
#
# Indices 1 2 3 4 5 6 
#
# 1 112.0864 42.6160 49.4172 0.0001 0.0000 0.0000
# 2 42.6160 98.8767 68.8680 0.0000 0.0000 0.0000
# 3 49.4172 68.8680 141.4355 0.0006 0.0001 -0.0002
# 4 0.0001 0.0000 0.0006 41.0495 0.0000 0.0000
# 5 0.0000 0.0000 0.0001 0.0000 38.1176 0.0000
# 6 0.0000 0.0000 -0.0002 0.0000 0.0000 29.1325
#
#
#
# Elastic Compliance Matrix: (Units=1/GPa)
#
#
# Indices 1 2 3 4 5 6 
#
# 1 0.011167 -0.003171 -0.002358 0.000000 0.000000 0.000000
# 2 -0.003171 0.016204 -0.006782 0.000000 0.000000 0.000000
# 3 -0.002358 -0.006782 0.011197 0.000000 0.000000 0.000000
# 4 0.000000 0.000000 0.000000 0.024361 0.000000 0.000000
# 5 0.000000 0.000000 0.000000 0.000000 0.026235 0.000000
# 6 0.000000 0.000000 0.000000 0.000000 0.000000 0.034326
#
#
# Mechanical properties :
#
#
# Convention : Reuss Voigt Hill
#
# Bulk Modulus (GPa) = 71.70548 74.91123 73.30836
# Shear Modulus (GPa) = 32.73136 34.42643 33.57889
#
# Velocity S-wave (km/s) = 4.07822 4.18249 4.13068
# Velocity P-wave (km/s) = 7.65583 7.83512 7.74599
#
# Compressibility (1/GPa) = 0.01394593
#
# Stress axis : x y z
#
# Youngs Moduli (GPa) = 89.55195 61.71290 89.31290
#
# Poissons Ratio (x) = 0.19567 0.21058
# Poissons Ratio (y) = 0.28394 0.60575
# Poissons Ratio (z) = 0.21114 0.41855
#
# Static dielectric constant tensor:
#      x y z
#    x 3.580360 0.000000 0.000000 
#    y 0.000000 3.566900 0.000000 
#    z 0.000000 0.000000 3.722810 
# 
# 
# High freq. dielectric constant tensor:
#      x y z
#    x 1.768910 0.000000 0.000000 
#    y 0.000000 1.768940 0.000000 
#    z 0.000000 0.000000 1.782270 
# 
# From -- ./inp_files/49076.got.cif
#   From: 2010.03.12/outbox.cif.g09.slc.cpg/sg74_25_cif.got.tgz:49076.got - 2010.04.16 15:46:19.
