data_PCOD8300576
_publ_section_title
;
Structure prediction by ZEFSAII (Michael W. Deem and Ramdas Pophale) SiO2 
 PCOD8300576
Probable space group: I M M A
;
_chemical_formula_sum "Si O2"
_cell_formula_units_Z 96
_cell_length_a 14.521756
_cell_length_b 20.849601
_cell_length_c 14.654925
_cell_angle_alpha 90.000000
_cell_angle_beta 90.000000
_cell_angle_gamma 90.000000
_cell_volume 4437.112946
_symmetry_space_group_name_H-M "I M M A"
_symmetry_group_IT_number 74
_symmetry_cell_setting 'orthorhombic'
loop_
_space_group_symop_operation_xyz
x,y,z
-x,1/2-y,z
x,-y,-z
-x,1/2+y,-z
-x,-y,-z
x,1/2+y,-z
-x,y,z
x,1/2-y,z
1/2+x,1/2+y,1/2+z
1/2-x,-y,1/2+z
1/2+x,1/2-y,1/2-z
1/2-x,y,1/2-z
1/2-x,1/2-y,1/2-z
1/2+x,y,1/2-z
1/2-x,1/2+y,1/2+z
1/2+x,-y,1/2+z
loop_
_atom_site_type_symbol
_atom_site_label
_atom_site_fract_x
_atom_site_fract_y
_atom_site_fract_z
Si Si1 0.288734 0.927389 0.498229
Si Si2 0.351638 0.820684 0.788866
Si Si3 0.609113 0.075906 0.679460
Si Si4 0.393857 0.681098 0.182372
Si Si5 0.894568 0.365586 0.484064
Si Si6 0.101005 0.430634 0.165799
O O1 0.334843 0.896736 0.408196
O O2 0.177895 0.923622 0.502550
O O3 0.331942 0.898015 0.590909
O O4 0.321986 0.000000 0.500000
O O5 0.389416 0.750000 0.759873
O O6 0.250000 0.828926 0.750000
O O7 0.361648 0.823728 0.898185
O O8 0.408316 0.880679 0.749237
O O9 0.500000 0.083520 0.663112
O O10 0.646961 0.119644 0.763385
O O11 0.634722 0.001180 0.700691
O O12 0.500000 0.682207 0.208653
O O13 0.349898 0.750000 0.212453
O O14 0.382653 0.677206 0.073674
O O15 0.000000 0.390985 0.473948
O O16 0.000000 0.439104 0.122057
#
# Coordination Sequence:
#
# PCOD8300576 Si02
#       6
#    16  16  16  16  16  16
#     4  10  21  38  60  89 123 163 203 252 301 358
#     4  11  23  41  64  89 118 156 202 252 307 372
#     4   9  19  38  64  92 121 158 204 252 302 358
#     4   9  19  38  62  88 121 161 203 247 299 359
#     4  11  23  39  59  86 122 164 204 246 303 363
#     4  10  20  38  64  91 120 156 199 251 311 365
#
# _framework density 21.63569
#
# number of rings (size 3 to 8) (size 9 to 14) (size 15 to 20)
#    0.000    2.000    1.667    1.500    0.000    6.333 
#    0.000    5.000    0.000    2.000    0.000    0.000 
#    0.000    0.000    0.000    0.000    0.000    0.000 
#
# Total GULP energy -594684.125965 kJ/mol
# GULP energy per Si atom -12389.252624 kJ/mol
# Density = 2.158645 g / cm^3
# Si number density = 21.635690 Si / 1000 Ang^3
#
#
#
# Elastic Constant Matrix: (Units=GPa)
#
#
# Indices 1 2 3 4 5 6 
#
# 1 103.5219 28.3314 42.6034 0.0002 0.0000 0.0000
# 2 28.3314 129.7193 74.2092 0.0001 0.0000 0.0001
# 3 42.6034 74.2092 148.5624 0.0015 0.0001 0.0001
# 4 0.0002 0.0001 0.0015 21.8960 0.0000 0.0001
# 5 0.0000 0.0000 0.0001 0.0000 29.9165 0.0000
# 6 0.0000 0.0001 0.0001 0.0001 0.0000 13.7857
#
#
#
# Elastic Compliance Matrix: (Units=1/GPa)
#
#
# Indices 1 2 3 4 5 6 
#
# 1 0.011017 -0.000838 -0.002741 0.000000 0.000000 0.000000
# 2 -0.000838 0.010857 -0.005183 0.000000 0.000000 0.000000
# 3 -0.002741 -0.005183 0.010106 -0.000001 0.000000 0.000000
# 4 0.000000 0.000000 -0.000001 0.045670 0.000000 0.000000
# 5 0.000000 0.000000 0.000000 0.000000 0.033426 0.000000
# 6 0.000000 0.000000 0.000000 0.000000 0.000000 0.072539
#
#
# Mechanical properties :
#
#
# Convention : Reuss Voigt Hill
#
# Bulk Modulus (GPa) = 69.17291 74.67686 71.92489
# Shear Modulus (GPa) = 24.27675 28.89694 26.58684
#
# Velocity S-wave (km/s) = 3.35336 3.65857 3.50929
# Velocity P-wave (km/s) = 6.85817 7.24137 7.05237
#
# Compressibility (1/GPa) = 0.01445653
#
# Stress axis : x y z
#
# Youngs Moduli (GPa) = 90.76794 92.10630 98.95106
#
# Poissons Ratio (x) = 0.07722 0.27119
# Poissons Ratio (y) = 0.07610 0.51285
# Poissons Ratio (z) = 0.24876 0.47737
#
# Static dielectric constant tensor:
#      x y z
#    x 3.817640 0.000000 0.000000 
#    y 0.000000 3.904250 0.000000 
#    z 0.000000 0.000000 3.986720 
# 
# 
# High freq. dielectric constant tensor:
#      x y z
#    x 1.848460 0.000000 0.000000 
#    y 0.000000 1.833350 0.000000 
#    z 0.000000 0.000000 1.850610 
# 
# From -- ./inp_files/32390.got.cif
#   From: 2010.03.12/outbox.cif.g09.slc.cpg/sg74_17_cif.got.tgz:32390.got - 2010.04.16 15:46:19.
