data_PCOD8300185
_publ_section_title
;
Structure prediction by ZEFSAII (Michael W. Deem and Ramdas Pophale) SiO2 
 PCOD8300185
Probable space group: I M M A
;
_chemical_formula_sum "Si O2"
_cell_formula_units_Z 104
_cell_length_a 21.004929
_cell_length_b 9.060318
_cell_length_c 27.862056
_cell_angle_alpha 90.000000
_cell_angle_beta 90.000000
_cell_angle_gamma 90.000000
_cell_volume 5302.465110
_symmetry_space_group_name_H-M "I M M A"
_symmetry_group_IT_number 74
_symmetry_cell_setting 'orthorhombic'
loop_
_space_group_symop_operation_xyz
x,y,z
-x,1/2-y,z
x,-y,-z
-x,1/2+y,-z
-x,-y,-z
x,1/2+y,-z
-x,y,z
x,1/2-y,z
1/2+x,1/2+y,1/2+z
1/2-x,-y,1/2+z
1/2+x,1/2-y,1/2-z
1/2-x,y,1/2-z
1/2-x,1/2-y,1/2-z
1/2+x,y,1/2-z
1/2-x,1/2+y,1/2+z
1/2+x,-y,1/2+z
loop_
_atom_site_type_symbol
_atom_site_label
_atom_site_fract_x
_atom_site_fract_y
_atom_site_fract_z
Si Si1 0.260395 0.923291 0.871728
Si Si2 0.321428 0.424968 0.548795
Si Si3 0.108479 0.418784 0.625673
Si Si4 0.069194 0.418103 0.732176
Si Si5 0.573044 0.578438 0.601948
Si Si6 0.000000 0.423640 0.551748
Si Si7 0.650967 0.081581 0.304032
O O1 0.253377 0.750000 0.884333
O O2 0.223037 0.956106 0.821481
O O3 0.228737 0.022735 0.912075
O O4 0.333334 0.968622 0.869367
O O5 0.298890 0.500000 0.500000
O O6 0.320627 0.250000 0.543934
O O7 0.392234 0.480404 0.561894
O O8 0.131947 0.250000 0.617756
O O9 0.070328 0.432243 0.674941
O O10 0.062878 0.469240 0.581904
O O11 0.073619 0.250000 0.748322
O O12 0.129788 0.495333 0.756600
O O13 0.000000 0.483180 0.748465
O O14 0.500000 0.532084 0.602103
O O15 0.583283 0.750000 0.589207
O O16 0.601920 0.541897 0.653736
O O17 0.000000 0.500000 0.500000
O O18 0.000000 0.250000 0.543320
O O19 0.646151 0.250000 0.289024
#
# Coordination Sequence:
#
# PCOD8300185 Si02
#       7
#    16  16  16  16  16   8  16
#     4  10  22  40  59  82 115 151 191 238 289 350
#     4  11  22  37  57  80 108 144 188 237 289 343
#     4  10  21  40  62  85 116 152 187 231 290 346
#     4  10  20  35  57  84 116 154 195 237 283 341
#     4   9  18  34  54  77 111 152 192 236 286 339
#     4  10  22  42  66  90 120 152 188 238 295 354
#     4   9  19  35  54  80 115 154 192 235 286 335
#
# _framework density 19.613520000000001
#
# number of rings (size 3 to 8) (size 9 to 14) (size 15 to 20)
#    0.000    2.154    0.769    3.231    0.000    7.077 
#    0.000    4.615    0.000    0.000    0.000    0.000 
#    0.000    0.000    0.000    0.000    0.000    0.000 
#
# Total GULP energy -644690.514338 kJ/mol
# GULP energy per Si atom -12397.894507 kJ/mol
# Density = 1.956888 g / cm^3
# Si number density = 19.613520 Si / 1000 Ang^3
#
#
#
# Elastic Constant Matrix: (Units=GPa)
#
#
# Indices 1 2 3 4 5 6 
#
# 1 124.8896 43.3260 35.6413 0.0000 0.0000 0.0000
# 2 43.3260 89.6379 42.6890 0.0000 0.0000 0.0000
# 3 35.6413 42.6890 96.1679 0.0000 0.0000 0.0000
# 4 0.0000 0.0000 0.0000 33.3219 0.0000 0.0000
# 5 0.0000 0.0000 0.0000 0.0000 19.7832 0.0000
# 6 0.0000 0.0000 0.0000 0.0000 0.0000 33.4479
#
#
#
# Elastic Compliance Matrix: (Units=1/GPa)
#
#
# Indices 1 2 3 4 5 6 
#
# 1 0.009903 -0.003853 -0.001960 0.000000 0.000000 0.000000
# 2 -0.003853 0.015646 -0.005517 0.000000 0.000000 0.000000
# 3 -0.001960 -0.005517 0.013574 0.000000 0.000000 0.000000
# 4 0.000000 0.000000 0.000000 0.030010 0.000000 0.000000
# 5 0.000000 0.000000 0.000000 0.000000 0.050548 0.000000
# 6 0.000000 0.000000 0.000000 0.000000 0.000000 0.029897
#
#
# Mechanical properties :
#
#
# Convention : Reuss Voigt Hill
#
# Bulk Modulus (GPa) = 60.74415 61.55644 61.15029
# Shear Modulus (GPa) = 28.13312 29.91319 29.02316
#
# Velocity S-wave (km/s) = 3.79142 3.90953 3.85093
# Velocity P-wave (km/s) = 7.08550 7.19945 7.14270
#
# Compressibility (1/GPa) = 0.01646249
#
# Stress axis : x y z
#
# Youngs Moduli (GPa) = 100.97824 63.91428 73.67089
#
# Poissons Ratio (x) = 0.24628 0.14438
# Poissons Ratio (y) = 0.38910 0.40645
# Poissons Ratio (z) = 0.19789 0.35263
#
# Static dielectric constant tensor:
#      x y z
#    x 3.625550 0.000000 0.000000 
#    y 0.000000 3.479250 0.000000 
#    z 0.000000 0.000000 3.522630 
# 
# 
# High freq. dielectric constant tensor:
#      x y z
#    x 1.769450 0.000000 0.000000 
#    y 0.000000 1.757360 0.000000 
#    z 0.000000 0.000000 1.760610 
# 
# From -- ./inp_files/64442.got.cif
#   From: 2010.03.12/outbox.cif.g09.slc.cpg/sg74_33_cif.got.tgz:64442.got - 2010.04.16 15:46:19.
