data_PCOD8300553
_publ_section_title
;
Structure prediction by ZEFSAII (Michael W. Deem and Ramdas Pophale) SiO2 
 PCOD8300553
Probable space group: I M M A
;
_chemical_formula_sum "Si O2"
_cell_formula_units_Z 104
_cell_length_a 8.874890
_cell_length_b 23.465510
_cell_length_c 24.974588
_cell_angle_alpha 90.000000
_cell_angle_beta 90.000000
_cell_angle_gamma 90.000000
_cell_volume 5201.053355
_symmetry_space_group_name_H-M "I M M A"
_symmetry_group_IT_number 74
_symmetry_cell_setting 'orthorhombic'
loop_
_space_group_symop_operation_xyz
x,y,z
-x,1/2-y,z
x,-y,-z
-x,1/2+y,-z
-x,-y,-z
x,1/2+y,-z
-x,y,z
x,1/2-y,z
1/2+x,1/2+y,1/2+z
1/2-x,-y,1/2+z
1/2+x,1/2-y,1/2-z
1/2-x,y,1/2-z
1/2-x,1/2-y,1/2-z
1/2+x,y,1/2-z
1/2-x,1/2+y,1/2+z
1/2+x,-y,1/2+z
loop_
_atom_site_type_symbol
_atom_site_label
_atom_site_fract_x
_atom_site_fract_y
_atom_site_fract_z
Si Si1 0.322957 0.626772 0.308047
Si Si2 0.824301 0.439403 0.599473
Si Si3 0.826963 0.750000 0.966757
Si Si4 0.171602 0.128391 0.992391
Si Si5 0.172339 0.557181 0.903057
Si Si6 0.677558 0.362432 0.305706
Si Si7 0.326076 0.250000 0.693681
Si Si8 0.178327 0.750000 0.646332
O O1 0.500000 0.617371 0.302048
O O2 0.250000 0.620245 0.250000
O O3 0.258711 0.578695 0.346437
O O4 0.284917 0.689620 0.334703
O O5 0.782557 0.398711 0.550436
O O6 0.779266 0.503817 0.586012
O O7 0.000000 0.435434 0.609541
O O8 0.795637 0.695616 0.004113
O O9 0.717965 0.750000 0.916118
O O10 0.000000 0.750000 0.945700
O O11 0.202913 0.102809 0.050688
O O12 0.000000 0.116658 0.973981
O O13 0.212284 0.586908 0.847114
O O14 0.000000 0.536007 0.904116
O O15 0.500000 0.351882 0.299845
O O16 0.750000 0.382185 0.250000
O O17 0.754263 0.304728 0.324843
O O18 0.500000 0.250000 0.706589
O O19 0.250000 0.250000 0.750000
O O20 0.000000 0.750000 0.653398
#
# Coordination Sequence:
#
# PCOD8300553 Si02
#       8
#    16  16   8  16  16  16   8   8
#     4  10  20  38  62  88 119 154 196 243 300 362
#     4  12  26  40  58  88 125 162 203 251 302 362
#     4  10  20  40  68  96 124 162 204 255 314 373
#     4  10  21  41  67  91 118 156 203 251 307 366
#     4  10  22  42  66  86 115 160 208 258 308 362
#     4  11  23  41  64  93 126 163 210 259 309 370
#     4   8  16  31  56  85 110 142 184 230 281 341
#     4  12  23  37  61  93 130 168 204 251 310 372
#
# _framework density 19.995949
#
# number of rings (size 3 to 8) (size 9 to 14) (size 15 to 20)
#    0.000    1.538    1.538    3.692    0.000    6.154 
#    0.000    4.615    0.000    0.000    0.000    0.000 
#    0.000    0.000    0.000    0.000    0.000    0.000 
#
# Total GULP energy -644862.953844 kJ/mol
# GULP energy per Si atom -12401.210651 kJ/mol
# Density = 1.995044 g / cm^3
# Si number density = 19.995949 Si / 1000 Ang^3
#
#
#
# Elastic Constant Matrix: (Units=GPa)
#
#
# Indices 1 2 3 4 5 6 
#
# 1 108.1582 48.8028 46.8088 0.0000 0.0000 0.0000
# 2 48.8028 124.2386 41.4852 0.0000 0.0000 0.0000
# 3 46.8088 41.4852 98.4932 0.0000 0.0000 0.0000
# 4 0.0000 0.0000 0.0000 30.6404 0.0000 0.0000
# 5 0.0000 0.0000 0.0000 0.0000 36.5125 0.0000
# 6 0.0000 0.0000 0.0000 0.0000 0.0000 17.2277
#
#
#
# Elastic Compliance Matrix: (Units=1/GPa)
#
#
# Indices 1 2 3 4 5 6 
#
# 1 0.012823 -0.003493 -0.004622 0.000000 0.000000 0.000000
# 2 -0.003493 0.010318 -0.002686 0.000000 0.000000 0.000000
# 3 -0.004622 -0.002686 0.013481 0.000000 0.000000 0.000000
# 4 0.000000 0.000000 0.000000 0.032637 0.000000 0.000000
# 5 0.000000 0.000000 0.000000 0.000000 0.027388 0.000000
# 6 0.000000 0.000000 0.000000 0.000000 0.000000 0.058046
#
#
# Mechanical properties :
#
#
# Convention : Reuss Voigt Hill
#
# Bulk Modulus (GPa) = 66.58472 67.23151 66.90812
# Shear Modulus (GPa) = 27.57837 29.79567 28.68702
#
# Velocity S-wave (km/s) = 3.71778 3.86435 3.79178
# Velocity P-wave (km/s) = 7.19726 7.32165 7.25972
#
# Compressibility (1/GPa) = 0.01501846
#
# Stress axis : x y z
#
# Youngs Moduli (GPa) = 77.98791 96.91723 74.17826
#
# Poissons Ratio (x) = 0.33857 0.34289
# Poissons Ratio (y) = 0.27244 0.19922
# Poissons Ratio (z) = 0.36050 0.26029
#
# Static dielectric constant tensor:
#      x y z
#    x 3.653500 0.000000 0.000000 
#    y 0.000000 3.937830 0.000000 
#    z 0.000000 0.000000 3.565880 
# 
# 
# High freq. dielectric constant tensor:
#      x y z
#    x 1.779080 0.000000 0.000000 
#    y 0.000000 1.794160 0.000000 
#    z 0.000000 0.000000 1.777170 
# 
# From -- ./inp_files/64578.got.cif
#   From: 2010.03.12/outbox.cif.g09.slc.cpg/sg74_33_cif.got.tgz:64578.got - 2010.04.16 15:46:19.
