data_PCOD8300838
_publ_section_title
;
Structure prediction by ZEFSAII (Michael W. Deem and Ramdas Pophale) SiO2 
 PCOD8300838
Probable space group: I M M A
;
_chemical_formula_sum "Si O2"
_cell_formula_units_Z 104
_cell_length_a 20.090244
_cell_length_b 8.787477
_cell_length_c 31.874511
_cell_angle_alpha 90.000000
_cell_angle_beta 90.000000
_cell_angle_gamma 90.000000
_cell_volume 5627.207677
_symmetry_space_group_name_H-M "I M M A"
_symmetry_group_IT_number 74
_symmetry_cell_setting 'orthorhombic'
loop_
_space_group_symop_operation_xyz
x,y,z
-x,1/2-y,z
x,-y,-z
-x,1/2+y,-z
-x,-y,-z
x,1/2+y,-z
-x,y,z
x,1/2-y,z
1/2+x,1/2+y,1/2+z
1/2-x,-y,1/2+z
1/2+x,1/2-y,1/2-z
1/2-x,y,1/2-z
1/2-x,1/2-y,1/2-z
1/2+x,y,1/2-z
1/2-x,1/2+y,1/2+z
1/2+x,-y,1/2+z
loop_
_atom_site_type_symbol
_atom_site_label
_atom_site_fract_x
_atom_site_fract_y
_atom_site_fract_z
Si Si1 0.870020 0.920827 0.926506
Si Si2 0.500000 0.571397 0.454852
Si Si3 0.423258 0.075309 0.821602
Si Si4 0.177587 0.081676 0.166882
Si Si5 0.188891 0.429657 0.373006
Si Si6 0.738012 0.568838 0.043311
Si Si7 0.926491 0.570410 0.226765
O O1 0.877287 0.750000 0.945239
O O2 0.857283 0.911622 0.877612
O O3 0.812737 0.007414 0.951666
O O4 0.936327 0.016947 0.929749
O O5 0.500000 0.750000 0.458454
O O6 0.500000 0.500000 0.500000
O O7 0.500000 0.058206 0.834531
O O8 0.400014 0.250000 0.826327
O O9 0.412082 0.016509 0.774186
O O10 0.381391 0.969161 0.852557
O O11 0.181322 0.250000 0.186865
O O12 0.252173 0.016061 0.158952
O O13 0.134215 0.979395 0.197685
O O14 0.196500 0.250000 0.381186
O O15 0.193306 0.513488 0.417716
O O16 0.737575 0.750000 0.041323
O O17 0.708524 0.500000 0.000000
O O18 0.929970 0.750000 0.225913
O O19 0.000000 0.507470 0.212587
#
# Coordination Sequence:
#
# PCOD8300838 Si02
#       7
#    16   8  16  16  16  16  16
#     4  10  21  37  52  72 104 140 179 227 278 325
#     4  12  24  36  50  70  96 134 182 230 280 332
#     4   9  19  37  58  81 110 143 179 220 271 326
#     4   9  20  35  51  74 106 142 179 224 274 320
#     4  10  21  37  56  82 112 142 181 224 269 323
#     4  11  21  36  58  82 108 140 177 218 267 322
#     4   9  19  34  52  76 107 144 186 230 271 321
#
# _framework density 18.481635000000001
#
# number of rings (size 3 to 8) (size 9 to 14) (size 15 to 20)
#    0.000    2.154    0.000    5.308    1.077    5.538 
#    0.000    4.615    0.000    0.462    0.000    0.000 
#    0.000    0.000    0.000    0.000    0.000    0.000 
#
# Total GULP energy -644723.700849 kJ/mol
# GULP energy per Si atom -12398.532709 kJ/mol
# Density = 1.843957 g / cm^3
# Si number density = 18.481635 Si / 1000 Ang^3
#
#
#
# Elastic Constant Matrix: (Units=GPa)
#
#
# Indices 1 2 3 4 5 6 
#
# 1 88.4154 34.3047 51.2558 0.0000 0.0000 0.0000
# 2 34.3047 106.6513 41.9843 0.0000 0.0000 0.0000
# 3 51.2558 41.9843 89.3322 0.0000 0.0000 0.0000
# 4 0.0000 0.0000 0.0000 30.2804 0.0000 0.0000
# 5 0.0000 0.0000 0.0000 0.0000 14.4256 0.0000
# 6 0.0000 0.0000 0.0000 0.0000 0.0000 30.5892
#
#
#
# Elastic Compliance Matrix: (Units=1/GPa)
#
#
# Indices 1 2 3 4 5 6 
#
# 1 0.017299 -0.002033 -0.008970 0.000000 0.000000 0.000000
# 2 -0.002033 0.011744 -0.004353 0.000000 0.000000 0.000000
# 3 -0.008970 -0.004353 0.018387 0.000000 0.000000 0.000000
# 4 0.000000 0.000000 0.000000 0.033025 0.000000 0.000000
# 5 0.000000 0.000000 0.000000 0.000000 0.069321 0.000000
# 6 0.000000 0.000000 0.000000 0.000000 0.000000 0.032691
#
#
# Mechanical properties :
#
#
# Convention : Reuss Voigt Hill
#
# Bulk Modulus (GPa) = 59.81762 59.94319 59.88040
# Shear Modulus (GPa) = 22.85695 25.51596 24.18646
#
# Velocity S-wave (km/s) = 3.52054 3.71969 3.62149
# Velocity P-wave (km/s) = 6.99728 7.13810 7.06804
#
# Compressibility (1/GPa) = 0.01671748
#
# Stress axis : x y z
#
# Youngs Moduli (GPa) = 57.80589 85.15097 54.38712
#
# Poissons Ratio (x) = 0.17313 0.48786
# Poissons Ratio (y) = 0.11753 0.23674
# Poissons Ratio (z) = 0.51853 0.37065
#
# Static dielectric constant tensor:
#      x y z
#    x 3.286110 0.000000 0.000000 
#    y 0.000000 3.217810 0.000000 
#    z 0.000000 0.000000 3.386300 
# 
# 
# High freq. dielectric constant tensor:
#      x y z
#    x 1.707290 0.000000 0.000000 
#    y 0.000000 1.721010 0.000000 
#    z 0.000000 0.000000 1.714180 
# 
# From -- ./inp_files/68263.got.cif
#   From: 2010.03.12/outbox.cif.g09.slc.cpg/sg74_35_cif.got.tgz:68263.got - 2010.04.16 15:46:19.
