data_PCOD8300658
_publ_section_title
;
Structure prediction by ZEFSAII (Michael W. Deem and Ramdas Pophale) SiO2 
 PCOD8300658
Probable space group: I M M A
;
_chemical_formula_sum "Si O2"
_cell_formula_units_Z 80
_cell_length_a 13.834887
_cell_length_b 8.916551
_cell_length_c 37.890891
_cell_angle_alpha 90.000000
_cell_angle_beta 90.000000
_cell_angle_gamma 90.000000
_cell_volume 4674.200441
_symmetry_space_group_name_H-M "I M M A"
_symmetry_group_IT_number 74
_symmetry_cell_setting 'orthorhombic'
loop_
_space_group_symop_operation_xyz
x,y,z
-x,1/2-y,z
x,-y,-z
-x,1/2+y,-z
-x,-y,-z
x,1/2+y,-z
-x,y,z
x,1/2-y,z
1/2+x,1/2+y,1/2+z
1/2-x,-y,1/2+z
1/2+x,1/2-y,1/2-z
1/2-x,y,1/2-z
1/2-x,1/2-y,1/2-z
1/2+x,y,1/2-z
1/2-x,1/2+y,1/2+z
1/2+x,-y,1/2+z
loop_
_atom_site_type_symbol
_atom_site_label
_atom_site_fract_x
_atom_site_fract_y
_atom_site_fract_z
Si Si1 0.389815 0.571855 0.152844
Si Si2 0.231885 0.924895 0.710586
Si Si3 0.225838 0.418463 0.897828
Si Si4 0.390367 0.081725 0.669773
Si Si5 0.889528 0.071207 0.963370
O O1 0.500000 0.523843 0.145132
O O2 0.377668 0.750000 0.155205
O O3 0.356767 0.507515 0.190800
O O4 0.320708 0.507188 0.121176
O O5 0.207948 0.750000 0.710828
O O6 0.250000 0.986322 0.750000
O O7 0.330559 0.957137 0.690251
O O8 0.256090 0.250000 0.907419
O O9 0.135575 0.422360 0.871348
O O10 0.185115 0.494395 0.933709
O O11 0.500000 0.035194 0.674665
O O12 0.369688 0.250000 0.684429
O O13 0.883117 0.250000 0.965397
O O14 0.000000 0.021942 0.954849
O O15 0.854938 0.000000 0.000000
#
# Coordination Sequence:
#
# PCOD8300658 Si02
#       5
#    16  16  16  16  16
#     4   9  18  33  53  73  89 112 154 202 239 272
#     4  10  21  34  46  64  93 125 152 181 224 279
#     4   8  14  27  47  68  90 116 147 185 227 269
#     4   9  17  30  49  70  89 113 149 190 228 266
#     4   9  16  26  42  65  93 123 151 179 217 268
#
# _framework density 17.115227000000001
#
# number of rings (size 3 to 8) (size 9 to 14) (size 15 to 20)
#    0.000    3.000    0.000    2.400    0.000    5.600 
#    0.000    8.000    0.000    5.400    0.000    0.000 
#    0.000    0.000    0.000    0.000    0.000    0.000 
#
# Total GULP energy -495611.152494 kJ/mol
# GULP energy per Si atom -12390.278812 kJ/mol
# Density = 1.707627 g / cm^3
# Si number density = 17.115227 Si / 1000 Ang^3
#
#
#
# Elastic Constant Matrix: (Units=GPa)
#
#
# Indices 1 2 3 4 5 6 
#
# 1 111.5424 18.0880 59.6169 0.0000 0.0000 0.0000
# 2 18.0880 21.6067 23.1965 0.0000 0.0000 0.0000
# 3 59.6169 23.1965 129.8219 0.0000 0.0000 0.0000
# 4 0.0000 0.0000 0.0000 24.9887 0.0000 0.0000
# 5 0.0000 0.0000 0.0000 0.0000 19.7559 0.0000
# 6 0.0000 0.0000 0.0000 0.0000 0.0000 16.3861
#
#
#
# Elastic Compliance Matrix: (Units=1/GPa)
#
#
# Indices 1 2 3 4 5 6 
#
# 1 0.012346 -0.005257 -0.004730 0.000000 0.000000 0.000000
# 2 -0.005257 0.059506 -0.008218 0.000000 0.000000 0.000000
# 3 -0.004730 -0.008218 0.011343 0.000000 0.000000 0.000000
# 4 0.000000 0.000000 0.000000 0.040018 0.000000 0.000000
# 5 0.000000 0.000000 0.000000 0.000000 0.050618 0.000000
# 6 0.000000 0.000000 0.000000 0.000000 0.000000 0.061027
#
#
# Mechanical properties :
#
#
# Convention : Reuss Voigt Hill
#
# Bulk Modulus (GPa) = 21.37473 51.64154 36.50814
# Shear Modulus (GPa) = 17.42981 23.03075 20.23028
#
# Velocity S-wave (km/s) = 3.19467 3.67226 3.44176
# Velocity P-wave (km/s) = 5.11114 6.94399 6.09683
#
# Compressibility (1/GPa) = 0.04678421
#
# Stress axis : x y z
#
# Youngs Moduli (GPa) = 80.99877 16.80500 88.15634
#
# Poissons Ratio (x) = 0.08835 0.41699
# Poissons Ratio (y) = 0.42582 0.72450
# Poissons Ratio (z) = 0.38314 0.13811
#
# Static dielectric constant tensor:
#      x y z
#    x 3.268840 0.000000 0.000000 
#    y 0.000000 2.901010 0.000000 
#    z 0.000000 0.000000 3.314500 
# 
# 
# High freq. dielectric constant tensor:
#      x y z
#    x 1.654200 0.000000 0.000000 
#    y 0.000000 1.630890 0.000000 
#    z 0.000000 0.000000 1.655840 
# 
# From -- ./inp_files/66882.got.cif
#   From: 2010.03.12/outbox.cif.g09.slc.cpg/sg74_34_cif.got.tgz:66882.got - 2010.04.16 15:46:19.
