data_PCOD8300917
_publ_section_title
;
Structure prediction by ZEFSAII (Michael W. Deem and Ramdas Pophale) SiO2 
 PCOD8300917
Probable space group: I M M A
;
_chemical_formula_sum "Si O2"
_cell_formula_units_Z 96
_cell_length_a 15.229785
_cell_length_b 14.669130
_cell_length_c 21.486829
_cell_angle_alpha 90.000000
_cell_angle_beta 90.000000
_cell_angle_gamma 90.000000
_cell_volume 4800.322962
_symmetry_space_group_name_H-M "I M M A"
_symmetry_group_IT_number 74
_symmetry_cell_setting 'orthorhombic'
loop_
_space_group_symop_operation_xyz
x,y,z
-x,1/2-y,z
x,-y,-z
-x,1/2+y,-z
-x,-y,-z
x,1/2+y,-z
-x,y,z
x,1/2-y,z
1/2+x,1/2+y,1/2+z
1/2-x,-y,1/2+z
1/2+x,1/2-y,1/2-z
1/2-x,y,1/2-z
1/2-x,1/2-y,1/2-z
1/2+x,y,1/2-z
1/2-x,1/2+y,1/2+z
1/2+x,-y,1/2+z
loop_
_atom_site_type_symbol
_atom_site_label
_atom_site_fract_x
_atom_site_fract_y
_atom_site_fract_z
Si Si1 0.400518 0.850937 0.917354
Si Si2 0.741743 0.147289 0.630445
Si Si3 0.399988 0.854043 0.614551
Si Si4 0.403521 0.026677 0.841597
Si Si5 0.661897 0.001858 0.286323
Si Si6 0.736647 0.393499 0.493311
O O1 0.500000 0.867522 0.942312
O O2 0.394151 0.750000 0.886561
O O3 0.373831 0.927093 0.866745
O O4 0.331652 0.854814 0.973849
O O5 0.743724 0.250000 0.657009
O O6 0.838439 0.103627 0.633456
O O7 0.709577 0.149641 0.559202
O O8 0.675082 0.087983 0.671617
O O9 0.500000 0.878808 0.595988
O O10 0.392548 0.750000 0.636820
O O11 0.369650 0.914861 0.672096
O O12 0.339134 0.869133 0.555043
O O13 0.500000 0.052092 0.866454
O O14 0.408556 0.022203 0.766646
O O15 0.750000 0.029981 0.250000
O O16 0.746142 0.500000 0.500000
#
# Coordination Sequence:
#
# PCOD8300917 Si02
#       6
#    16  16  16  16  16  16
#     4  10  21  37  61  94 127 157 192 239 300 369
#     4  11  23  39  59  83 114 155 203 249 295 348
#     4  11  24  41  63  93 124 155 197 247 302 365
#     4  10  21  37  58  86 120 154 194 242 294 355
#     4  10  21  39  61  87 117 155 199 246 298 352
#     4  12  21  40  64  87 118 161 200 245 303 358
#
# _framework density 19.998654999999999
#
# number of rings (size 3 to 8) (size 9 to 14) (size 15 to 20)
#    0.000    1.333    3.333    3.000    0.000    5.667 
#    0.000    1.667    0.000    2.500    0.000    0.000 
#    0.000    0.000    0.000    0.000    0.000    0.000 
#
# Total GULP energy -595175.325023 kJ/mol
# GULP energy per Si atom -12399.485938 kJ/mol
# Density = 1.995314 g / cm^3
# Si number density = 19.998655 Si / 1000 Ang^3
#
#
#
# Elastic Constant Matrix: (Units=GPa)
#
#
# Indices 1 2 3 4 5 6 
#
# 1 95.2475 43.6252 37.1288 0.0000 0.0000 0.0000
# 2 43.6252 148.4972 41.9076 0.0000 0.0000 0.0000
# 3 37.1288 41.9076 113.9036 0.0000 0.0000 0.0000
# 4 0.0000 0.0000 0.0000 13.7285 0.0000 0.0000
# 5 0.0000 0.0000 0.0000 0.0000 15.8189 0.0000
# 6 0.0000 0.0000 0.0000 0.0000 0.0000 18.3311
#
#
#
# Elastic Compliance Matrix: (Units=1/GPa)
#
#
# Indices 1 2 3 4 5 6 
#
# 1 0.013089 -0.002947 -0.003182 0.000000 0.000000 0.000000
# 2 -0.002947 0.008178 -0.002048 0.000000 0.000000 0.000000
# 3 -0.003182 -0.002048 0.010570 0.000000 0.000000 0.000000
# 4 0.000000 0.000000 0.000000 0.072841 0.000000 0.000000
# 5 0.000000 0.000000 0.000000 0.000000 0.063216 0.000000
# 6 0.000000 0.000000 0.000000 0.000000 0.000000 0.054552
#
#
# Mechanical properties :
#
#
# Convention : Reuss Voigt Hill
#
# Bulk Modulus (GPa) = 64.59071 66.99683 65.79377
# Shear Modulus (GPa) = 20.49493 25.24147 22.86820
#
# Velocity S-wave (km/s) = 3.20475 3.55654 3.38522
# Velocity P-wave (km/s) = 6.78686 7.10202 6.94623
#
# Compressibility (1/GPa) = 0.01548210
#
# Stress axis : x y z
#
# Youngs Moduli (GPa) = 76.39768 122.27944 94.60515
#
# Poissons Ratio (x) = 0.36039 0.30107
# Poissons Ratio (y) = 0.22517 0.19376
# Poissons Ratio (z) = 0.24312 0.25045
#
# Static dielectric constant tensor:
#      x y z
#    x 3.814510 0.000000 0.000000 
#    y 0.000000 3.764240 0.000000 
#    z 0.000000 0.000000 3.798580 
# 
# 
# High freq. dielectric constant tensor:
#      x y z
#    x 1.780250 0.000000 0.000000 
#    y 0.000000 1.788920 0.000000 
#    z 0.000000 0.000000 1.777660 
# 
# From -- ./inp_files/51839.got.cif
#   From: 2010.03.12/outbox.cif.g09.slc.cpg/sg74_26_cif.got.tgz:51839.got - 2010.04.16 15:46:19.
