data_PCOD8300732
_publ_section_title
;
Structure prediction by ZEFSAII (Michael W. Deem and Ramdas Pophale) SiO2 
 PCOD8300732
Probable space group: I M M A
;
_chemical_formula_sum "Si O2"
_cell_formula_units_Z 112
_cell_length_a 14.144672
_cell_length_b 31.682480
_cell_length_c 11.521186
_cell_angle_alpha 90.000000
_cell_angle_beta 90.000000
_cell_angle_gamma 90.000000
_cell_volume 5163.084567
_symmetry_space_group_name_H-M "I M M A"
_symmetry_group_IT_number 74
_symmetry_cell_setting 'orthorhombic'
loop_
_space_group_symop_operation_xyz
x,y,z
-x,1/2-y,z
x,-y,-z
-x,1/2+y,-z
-x,-y,-z
x,1/2+y,-z
-x,y,z
x,1/2-y,z
1/2+x,1/2+y,1/2+z
1/2-x,-y,1/2+z
1/2+x,1/2-y,1/2-z
1/2-x,y,1/2-z
1/2-x,1/2-y,1/2-z
1/2+x,y,1/2-z
1/2-x,1/2+y,1/2+z
1/2+x,-y,1/2+z
loop_
_atom_site_type_symbol
_atom_site_label
_atom_site_fract_x
_atom_site_fract_y
_atom_site_fract_z
Si Si1 0.771862 0.200949 0.617056
Si Si2 0.604767 0.798100 0.549984
Si Si3 0.112257 0.439406 0.069386
Si Si4 0.890133 0.634220 0.772166
Si Si5 0.112562 0.540022 0.425505
Si Si6 0.387543 0.368658 0.013780
Si Si7 0.112190 0.028473 0.831191
O O1 0.803821 0.250000 0.598317
O O2 0.750000 0.191573 0.750000
O O3 0.674232 0.190515 0.553425
O O4 0.850174 0.168669 0.569378
O O5 0.500000 0.811341 0.506536
O O6 0.610079 0.750000 0.585634
O O7 0.630208 0.821143 0.669243
O O8 0.156302 0.400752 0.142378
O O9 0.141286 0.481058 0.138337
O O10 0.000000 0.435225 0.060965
O O11 0.151623 0.441302 0.935675
O O12 0.845438 0.636688 0.643955
O O13 0.000000 0.623229 0.757230
O O14 0.151787 0.500000 0.500000
O O15 0.146075 0.584612 0.477445
O O16 0.155720 0.538768 0.295093
O O17 0.000000 0.537110 0.422636
O O18 0.500000 0.364637 0.009602
O O19 0.000000 0.033183 0.825001
#
# Coordination Sequence:
#
# PCOD8300732 Si02
#       7
#    16  16  16  16  16  16  16
#     4  10  23  42  61  85 117 154 197 246 301 362
#     4   9  19  37  61  86 110 142 187 237 291 349
#     4   8  13  22  38  65 103 140 178 228 281 333
#     4   9  17  30  50  79 114 147 183 234 290 345
#     4   9  16  27  46  76 114 155 198 239 281 338
#     4  10  21  35  55  88 123 157 198 240 293 361
#     4   8  13  21  36  62  99 143 187 232 279 327
#
# _framework density 21.692457000000001
#
# number of rings (size 3 to 8) (size 9 to 14) (size 15 to 20)
#    0.000    3.000    0.000    1.714    0.000    6.571 
#    0.000    7.143    0.000    0.000   11.143    0.000 
#    0.000    0.000    0.000    0.000    0.000    0.000 
#
# Total GULP energy -694063.094731 kJ/mol
# GULP energy per Si atom -12393.983834 kJ/mol
# Density = 2.164308 g / cm^3
# Si number density = 21.692457 Si / 1000 Ang^3
#
#
#
# Elastic Constant Matrix: (Units=GPa)
#
#
# Indices 1 2 3 4 5 6 
#
# 1 34.4780 40.3850 35.7591 0.0003 -0.0003 0.0000
# 2 40.3850 126.1729 85.0499 -0.0010 0.0006 0.0001
# 3 35.7591 85.0499 209.8446 -0.0045 0.0020 0.0003
# 4 0.0003 -0.0010 -0.0045 39.6410 -0.0005 0.0003
# 5 -0.0003 0.0006 0.0020 -0.0005 17.3909 0.0001
# 6 0.0000 0.0001 0.0003 0.0003 0.0001 15.3175
#
#
#
# Elastic Compliance Matrix: (Units=1/GPa)
#
#
# Indices 1 2 3 4 5 6 
#
# 1 0.047452 -0.013398 -0.002656 -0.000001 0.000002 0.000000
# 2 -0.013398 0.014688 -0.003670 0.000000 0.000000 0.000000
# 3 -0.002656 -0.003670 0.006705 0.000001 -0.000001 0.000000
# 4 -0.000001 0.000000 0.000001 0.025226 0.000001 -0.000001
# 5 0.000002 0.000000 -0.000001 0.000001 0.057501 0.000000
# 6 0.000000 0.000000 0.000000 -0.000001 0.000000 0.065285
#
#
# Mechanical properties :
#
#
# Convention : Reuss Voigt Hill
#
# Bulk Modulus (GPa) = 34.01628 76.98705 55.50166
# Shear Modulus (GPa) = 18.78961 28.42332 23.60647
#
# Velocity S-wave (km/s) = 2.94629 3.62371 3.30242
# Velocity P-wave (km/s) = 5.22392 7.28531 6.33897
#
# Compressibility (1/GPa) = 0.02939769
#
# Stress axis : x y z
#
# Youngs Moduli (GPa) = 21.07388 68.08402 149.13327
#
# Poissons Ratio (x) = 0.91219 0.39610
# Poissons Ratio (y) = 0.28235 0.54729
# Poissons Ratio (z) = 0.05597 0.24986
#
# Static dielectric constant tensor:
#      x y z
#    x 3.586280 0.000000 0.000000 
#    y 0.000000 3.966670 0.000000 
#    z 0.000000 0.000000 4.381980 
# 
# 
# High freq. dielectric constant tensor:
#      x y z
#    x 1.834340 0.000000 0.000000 
#    y 0.000000 1.847570 0.000000 
#    z 0.000000 0.000000 1.863060 
# 
# From -- ./inp_files/21112.got.cif
#   From: 2010.03.12/outbox.cif.g09.slc.cpg/sg74_11_cif.got.tgz:21112.got - 2010.04.16 15:46:19.
