data_PCOD8300302
_publ_section_title
;
Structure prediction by ZEFSAII (Michael W. Deem and Ramdas Pophale) SiO2 
 PCOD8300302
Probable space group: I M M A
;
_chemical_formula_sum "Si O2"
_cell_formula_units_Z 80
_cell_length_a 28.058929
_cell_length_b 17.750924
_cell_length_c 7.959370
_cell_angle_alpha 90.000000
_cell_angle_beta 90.000000
_cell_angle_gamma 90.000000
_cell_volume 3964.338668
_symmetry_space_group_name_H-M "I M M A"
_symmetry_group_IT_number 74
_symmetry_cell_setting 'orthorhombic'
loop_
_space_group_symop_operation_xyz
x,y,z
-x,1/2-y,z
x,-y,-z
-x,1/2+y,-z
-x,-y,-z
x,1/2+y,-z
-x,y,z
x,1/2-y,z
1/2+x,1/2+y,1/2+z
1/2-x,-y,1/2+z
1/2+x,1/2-y,1/2-z
1/2-x,y,1/2-z
1/2-x,1/2-y,1/2-z
1/2+x,y,1/2-z
1/2-x,1/2+y,1/2+z
1/2+x,-y,1/2+z
loop_
_atom_site_type_symbol
_atom_site_label
_atom_site_fract_x
_atom_site_fract_y
_atom_site_fract_z
Si Si1 0.142359 0.402836 0.362921
Si Si2 0.948098 0.915546 0.440966
Si Si3 0.324150 0.664375 0.531887
Si Si4 0.763517 0.583254 0.443155
Si Si5 0.615976 0.545916 0.338807
O O1 0.091555 0.377050 0.439958
O O2 0.151785 0.344954 0.213356
O O3 0.181780 0.398135 0.510295
O O4 0.141887 0.489226 0.293500
O O5 0.929604 0.915259 0.248439
O O6 0.000000 0.874363 0.450455
O O7 0.955098 0.000000 0.500000
O O8 0.330077 0.750000 0.471895
O O9 0.268813 0.641659 0.548892
O O10 0.347096 0.610148 0.391712
O O11 0.748430 0.500000 0.500000
O O12 0.750000 0.595362 0.250000
O O13 0.597329 0.500000 0.500000
#
# Coordination Sequence:
#
# PCOD8300302 Si02
#       5
#    16  16  16  16  16
#     4  10  20  36  57  80 110 145 179 218 267 322
#     4   9  17  32  58  88 111 135 176 227 271 314
#     4  11  23  37  54  78 109 145 184 225 267 312
#     4  12  22  35  57  82 110 144 179 216 265 327
#     4   9  18  35  57  82 110 141 176 218 270 323
#
# _framework density 20.179911000000001
#
# number of rings (size 3 to 8) (size 9 to 14) (size 15 to 20)
#    0.000    1.800    0.000    7.800    0.000    2.400 
#    0.000    6.000    0.000    3.600    0.000    0.000 
#    0.000    0.000    0.000    0.000    0.000    0.000 
#
# Total GULP energy -495908.182687 kJ/mol
# GULP energy per Si atom -12397.704567 kJ/mol
# Density = 2.013398 g / cm^3
# Si number density = 20.179911 Si / 1000 Ang^3
#
#
#
# Elastic Constant Matrix: (Units=GPa)
#
#
# Indices 1 2 3 4 5 6 
#
# 1 170.7091 34.1600 73.0132 0.0000 0.0000 0.0000
# 2 34.1600 76.0190 15.0392 0.0000 0.0000 0.0000
# 3 73.0132 15.0392 107.8383 0.0000 0.0000 0.0000
# 4 0.0000 0.0000 0.0000 14.4663 0.0000 0.0000
# 5 0.0000 0.0000 0.0000 0.0000 7.4600 0.0000
# 6 0.0000 0.0000 0.0000 0.0000 0.0000 -0.7044
#
#
#
# Elastic Compliance Matrix: (Units=1/GPa)
#
#
# Indices 1 2 3 4 5 6 
#
# 1 0.008811 -0.002858 -0.005567 0.000000 0.000000 0.000000
# 2 -0.002858 0.014455 -0.000081 0.000000 0.000000 0.000000
# 3 -0.005567 -0.000081 0.013054 0.000000 0.000000 0.000000
# 4 0.000000 0.000000 0.000000 0.069126 0.000000 0.000000
# 5 0.000000 0.000000 0.000000 0.000000 0.134048 0.000000
# 6 0.000000 0.000000 0.000000 0.000000 0.000000 -1.419744
#
#
# Mechanical properties :
#
#
# Convention : Reuss Voigt Hill
#
# Bulk Modulus (GPa) = 51.79254 66.55459 59.17356
# Shear Modulus (GPa) = -4.32225 19.73466 7.70621
#
# Velocity S-wave (km/s) = -1.46510 3.13059 1.95628
# Velocity P-wave (km/s) = 4.78112 6.79115 5.87277
#
# Compressibility (1/GPa) = 0.01930780
#
# Stress axis : x y z
#
# Youngs Moduli (GPa) = 113.49713 69.18092 76.60743
#
# Poissons Ratio (x) = 0.19771 0.42647
# Poissons Ratio (y) = 0.32436 0.00620
# Poissons Ratio (z) = 0.63183 0.00560
#
# Static dielectric constant tensor:
#      x y z
#    x 4.075000 0.000000 0.000000 
#    y 0.000000 3.213900 0.000000 
#    z 0.000000 0.000000 3.812060 
# 
# 
# High freq. dielectric constant tensor:
#      x y z
#    x 1.785970 0.000000 0.000000 
#    y 0.000000 1.735220 0.000000 
#    z 0.000000 0.000000 1.804160 
# 
# From -- ./inp_files/14951.got.cif
#   From: 2010.03.12/outbox.cif.g09.slc.cpg/sg74_8_cif.got.tgz:14951.got - 2010.04.16 15:46:19.
