data_PCOD8300055
_publ_section_title
;
Structure prediction by ZEFSAII (Michael W. Deem and Ramdas Pophale) SiO2 
 PCOD8300055
Probable space group: I M M A
;
_chemical_formula_sum "Si O2"
_cell_formula_units_Z 96
_cell_length_a 15.508855
_cell_length_b 15.203407
_cell_length_c 19.732712
_cell_angle_alpha 90.000000
_cell_angle_beta 90.000000
_cell_angle_gamma 90.000000
_cell_volume 4652.725542
_symmetry_space_group_name_H-M "I M M A"
_symmetry_group_IT_number 74
_symmetry_cell_setting 'orthorhombic'
loop_
_space_group_symop_operation_xyz
x,y,z
-x,1/2-y,z
x,-y,-z
-x,1/2+y,-z
-x,-y,-z
x,1/2+y,-z
-x,y,z
x,1/2-y,z
1/2+x,1/2+y,1/2+z
1/2-x,-y,1/2+z
1/2+x,1/2-y,1/2-z
1/2-x,y,1/2-z
1/2-x,1/2-y,1/2-z
1/2+x,y,1/2-z
1/2-x,1/2+y,1/2+z
1/2+x,-y,1/2+z
loop_
_atom_site_type_symbol
_atom_site_label
_atom_site_fract_x
_atom_site_fract_y
_atom_site_fract_z
Si Si1 0.399152 0.973662 0.185211
Si Si2 0.095998 0.911071 0.459550
Si Si3 0.596027 0.644819 0.451046
Si Si4 0.753635 0.849080 0.958835
Si Si5 0.897891 0.847978 0.199704
Si Si6 0.808701 0.349855 0.315568
O O1 0.500000 0.962276 0.185764
O O2 0.365442 0.933159 0.114498
O O3 0.357226 0.916262 0.245984
O O4 0.382308 0.077657 0.195229
O O5 0.164584 0.851216 0.498812
O O6 0.000000 0.866322 0.456376
O O7 0.086580 0.000000 0.500000
O O8 0.500000 0.609655 0.469867
O O9 0.595144 0.750000 0.452296
O O10 0.666711 0.602602 0.502714
O O11 0.623751 0.615877 0.375302
O O12 0.783907 0.750000 0.952936
O O13 0.742999 0.883720 0.882141
O O14 0.859171 0.750000 0.211949
O O15 0.000000 0.842850 0.208247
O O16 0.845886 0.250000 0.327020
O O17 0.750000 0.349587 0.250000
#
# Coordination Sequence:
#
# PCOD8300055 Si02
#       6
#    16  16  16  16  16  16
#     4  10  20  35  57  82 109 146 186 225 277 331
#     4  10  20  35  53  77 108 142 181 225 274 325
#     4   8  15  31  56  84 113 143 176 218 272 338
#     4  10  20  35  57  82 107 142 185 228 280 333
#     4   8  15  30  53  83 118 148 174 213 270 340
#     4  10  22  39  55  75 105 143 189 238 284 327
#
# _framework density 20.633068000000002
#
# number of rings (size 3 to 8) (size 9 to 14) (size 15 to 20)
#    0.000    2.667    1.667    1.000    0.000    2.667 
#    0.000    4.167    0.000    7.000    0.000    0.000 
#    0.000    0.000    0.000    0.000    0.000    0.000 
#
# Total GULP energy -594691.518799 kJ/mol
# GULP energy per Si atom -12389.406642 kJ/mol
# Density = 2.058611 g / cm^3
# Si number density = 20.633068 Si / 1000 Ang^3
#
#
#
# Elastic Constant Matrix: (Units=GPa)
#
#
# Indices 1 2 3 4 5 6 
#
# 1 66.6178 13.1105 44.4163 0.0000 0.0000 0.0000
# 2 13.1105 62.7977 43.5030 0.0000 0.0000 0.0000
# 3 44.4163 43.5030 136.6803 0.0000 0.0000 0.0000
# 4 0.0000 0.0000 0.0000 23.6992 0.0000 0.0000
# 5 0.0000 0.0000 0.0000 0.0000 36.5225 0.0000
# 6 0.0000 0.0000 0.0000 0.0000 0.0000 23.0469
#
#
#
# Elastic Compliance Matrix: (Units=1/GPa)
#
#
# Indices 1 2 3 4 5 6 
#
# 1 0.019171 0.000402 -0.006358 0.000000 0.000000 0.000000
# 2 0.000402 0.020437 -0.006635 0.000000 0.000000 0.000000
# 3 -0.006358 -0.006635 0.011494 0.000000 0.000000 0.000000
# 4 0.000000 0.000000 0.000000 0.042195 0.000000 0.000000
# 5 0.000000 0.000000 0.000000 0.000000 0.027380 0.000000
# 6 0.000000 0.000000 0.000000 0.000000 0.000000 0.043390
#
#
# Mechanical properties :
#
#
# Convention : Reuss Voigt Hill
#
# Bulk Modulus (GPa) = 38.58066 52.01727 45.29896
# Shear Modulus (GPa) = 25.26659 27.65812 26.46236
#
# Velocity S-wave (km/s) = 3.50318 3.66522 3.58512
# Velocity P-wave (km/s) = 5.92470 6.57093 6.25617
#
# Compressibility (1/GPa) = 0.02591972
#
# Stress axis : x y z
#
# Youngs Moduli (GPa) = 52.16254 48.93126 86.99949
#
# Poissons Ratio (x) = -0.01967 0.55313
# Poissons Ratio (y) = -0.02097 0.57727
# Poissons Ratio (z) = 0.33164 0.32467
#
# Static dielectric constant tensor:
#      x y z
#    x 3.742070 0.000000 0.000000 
#    y 0.000000 3.664490 0.000000 
#    z 0.000000 0.000000 4.495280 
# 
# 
# High freq. dielectric constant tensor:
#      x y z
#    x 1.782350 0.000000 0.000000 
#    y 0.000000 1.785630 0.000000 
#    z 0.000000 0.000000 1.821530 
# 
# From -- ./inp_files/51926.got.cif
#   From: 2010.03.12/outbox.cif.g09.slc.cpg/sg74_26_cif.got.tgz:51926.got - 2010.04.16 15:46:19.
