data_PCOD8300585
_publ_section_title
;
Structure prediction by ZEFSAII (Michael W. Deem and Ramdas Pophale) SiO2 
 PCOD8300585
Probable space group: I M M A
;
_chemical_formula_sum "Si O2"
_cell_formula_units_Z 80
_cell_length_a 17.868207
_cell_length_b 23.388479
_cell_length_c 9.660055
_cell_angle_alpha 90.000000
_cell_angle_beta 90.000000
_cell_angle_gamma 90.000000
_cell_volume 4037.035364
_symmetry_space_group_name_H-M "I M M A"
_symmetry_group_IT_number 74
_symmetry_cell_setting 'orthorhombic'
loop_
_space_group_symop_operation_xyz
x,y,z
-x,1/2-y,z
x,-y,-z
-x,1/2+y,-z
-x,-y,-z
x,1/2+y,-z
-x,y,z
x,1/2-y,z
1/2+x,1/2+y,1/2+z
1/2-x,-y,1/2+z
1/2+x,1/2-y,1/2-z
1/2-x,y,1/2-z
1/2-x,1/2-y,1/2-z
1/2+x,y,1/2-z
1/2-x,1/2+y,1/2+z
1/2+x,-y,1/2+z
loop_
_atom_site_type_symbol
_atom_site_label
_atom_site_fract_x
_atom_site_fract_y
_atom_site_fract_z
Si Si1 0.586441 0.639371 0.949629
Si Si2 0.415470 0.750000 0.771741
Si Si3 0.914555 0.517586 0.646440
Si Si4 0.808664 0.531012 0.143222
Si Si5 0.284437 0.250000 0.402225
Si Si6 0.235433 0.847959 0.397452
O O1 0.500000 0.640901 0.007353
O O2 0.605771 0.695741 0.864424
O O3 0.595902 0.586278 0.843001
O O4 0.647643 0.635404 0.075026
O O5 0.500000 0.750000 0.725209
O O6 0.373142 0.750000 0.624925
O O7 0.875490 0.500000 0.500000
O O8 0.886279 0.481442 0.778197
O O9 0.000000 0.499037 0.639004
O O10 0.750000 0.502642 0.250000
O O11 0.789269 0.596775 0.113335
O O12 0.808440 0.500000 0.000000
O O13 0.250000 0.250000 0.250000
O O14 0.262422 0.192700 0.480964
O O15 0.250000 0.816403 0.250000
#
# Coordination Sequence:
#
# PCOD8300585 Si02
#       6
#    16   8  16  16   8  16
#     4  10  20  38  66  91 123 167 216 260 307 380
#     4  10  22  40  62  96 123 154 211 265 311 368
#     4  10  21  39  62  88 121 166 212 256 313 382
#     4  11  23  37  57  86 123 159 205 257 310 371
#     4  12  23  40  65  90 118 164 207 263 318 383
#     4  11  23  39  59  92 127 162 206 258 322 375
#
# _framework density 19.816523
#
# number of rings (size 3 to 8) (size 9 to 14) (size 15 to 20)
#    0.000    1.400    2.000    4.500    2.800    1.200 
#    0.000    2.000    0.000    0.000    0.000    0.000 
#    0.000    0.000    0.000    0.000    0.000    0.000 
#
# Total GULP energy -495615.112472 kJ/mol
# GULP energy per Si atom -12390.377812 kJ/mol
# Density = 1.977142 g / cm^3
# Si number density = 19.816523 Si / 1000 Ang^3
#
#
#
# Elastic Constant Matrix: (Units=GPa)
#
#
# Indices 1 2 3 4 5 6 
#
# 1 115.4324 48.3793 66.6924 0.0000 0.0000 0.0000
# 2 48.3793 130.7937 65.0592 0.0000 0.0000 0.0000
# 3 66.6924 65.0592 160.6347 0.0000 0.0000 0.0000
# 4 0.0000 0.0000 0.0000 31.3791 0.0000 0.0000
# 5 0.0000 0.0000 0.0000 0.0000 39.9835 0.0000
# 6 0.0000 0.0000 0.0000 0.0000 0.0000 26.0148
#
#
#
# Elastic Compliance Matrix: (Units=1/GPa)
#
#
# Indices 1 2 3 4 5 6 
#
# 1 0.011995 -0.002454 -0.003986 0.000000 0.000000 0.000000
# 2 -0.002454 0.010077 -0.003062 0.000000 0.000000 0.000000
# 3 -0.003986 -0.003062 0.009121 0.000000 0.000000 0.000000
# 4 0.000000 0.000000 0.000000 0.031868 0.000000 0.000000
# 5 0.000000 0.000000 0.000000 0.000000 0.025010 0.000000
# 6 0.000000 0.000000 0.000000 0.000000 0.000000 0.038440
#
#
# Mechanical properties :
#
#
# Convention : Reuss Voigt Hill
#
# Bulk Modulus (GPa) = 82.05431 85.23585 83.64508
# Shear Modulus (GPa) = 33.42762 34.59079 34.00921
#
# Velocity S-wave (km/s) = 4.11159 4.18251 4.14720
# Velocity P-wave (km/s) = 8.00232 8.15049 8.07674
#
# Compressibility (1/GPa) = 0.01218705
#
# Stress axis : x y z
#
# Youngs Moduli (GPa) = 83.37134 99.24009 109.64300
#
# Poissons Ratio (x) = 0.24353 0.43704
# Poissons Ratio (y) = 0.20459 0.33576
# Poissons Ratio (z) = 0.33232 0.30391
#
# Static dielectric constant tensor:
#      x y z
#    x 4.032580 0.000000 0.000000 
#    y 0.000000 3.712350 0.000000 
#    z 0.000000 0.000000 4.186430 
# 
# 
# High freq. dielectric constant tensor:
#      x y z
#    x 1.778500 0.000000 0.000000 
#    y 0.000000 1.783810 0.000000 
#    z 0.000000 0.000000 1.759210 
# 
# From -- ./inp_files/10982.got.cif
#   From: 2010.03.12/outbox.cif.g09.slc.cpg/sg74_6_cif.got.tgz:10982.got - 2010.04.16 15:46:19.
