data_PCOD8300437
_publ_section_title
;
Structure prediction by ZEFSAII (Michael W. Deem and Ramdas Pophale) SiO2 
 PCOD8300437
Probable space group: I M M A
;
_chemical_formula_sum "Si O2"
_cell_formula_units_Z 88
_cell_length_a 27.150076
_cell_length_b 9.120098
_cell_length_c 19.065269
_cell_angle_alpha 90.000000
_cell_angle_beta 90.000000
_cell_angle_gamma 90.000000
_cell_volume 4720.777068
_symmetry_space_group_name_H-M "I M M A"
_symmetry_group_IT_number 74
_symmetry_cell_setting 'orthorhombic'
loop_
_space_group_symop_operation_xyz
x,y,z
-x,1/2-y,z
x,-y,-z
-x,1/2+y,-z
-x,-y,-z
x,1/2+y,-z
-x,y,z
x,1/2-y,z
1/2+x,1/2+y,1/2+z
1/2-x,-y,1/2+z
1/2+x,1/2-y,1/2-z
1/2-x,y,1/2-z
1/2-x,1/2-y,1/2-z
1/2+x,y,1/2-z
1/2-x,1/2+y,1/2+z
1/2+x,-y,1/2+z
loop_
_atom_site_type_symbol
_atom_site_label
_atom_site_fract_x
_atom_site_fract_y
_atom_site_fract_z
Si Si1 0.695953 0.423207 0.425781
Si Si2 0.500000 0.922862 0.574565
Si Si3 0.901950 0.422204 0.156217
Si Si4 0.619116 0.077179 0.800550
Si Si5 0.729514 0.582743 0.172668
Si Si6 0.443395 0.578914 0.068232
O O1 0.699673 0.500000 0.500000
O O2 0.699610 0.250000 0.435742
O O3 0.644497 0.470307 0.390636
O O4 0.741241 0.475957 0.378541
O O5 0.500000 0.750000 0.561516
O O6 0.451717 0.972836 0.617363
O O7 0.500000 0.000000 0.500000
O O8 0.901861 0.250000 0.169988
O O9 0.898981 0.500508 0.230433
O O10 0.616715 0.250000 0.787100
O O11 0.673393 0.028917 0.824245
O O12 0.583596 0.023437 0.862331
O O13 0.733984 0.750000 0.145310
O O14 0.750000 0.568090 0.250000
O O15 0.500000 0.535203 0.077639
O O16 0.435378 0.750000 0.057164
O O17 0.420789 0.500000 0.000000
#
# Coordination Sequence:
#
# PCOD8300437 Si02
#       6
#    16   8  16  16  16  16
#     4  11  23  38  59  85 114 150 192 234 280 337
#     4  10  22  40  58  82 115 150 189 236 285 336
#     4  10  22  38  57  84 116 149 188 233 282 337
#     4  10  21  36  58  86 115 147 186 231 279 336
#     4  10  20  37  58  82 114 149 185 229 281 332
#     4   9  19  36  56  80 110 143 181 224 272 327
#
# _framework density 18.640999999999998
#
# number of rings (size 3 to 8) (size 9 to 14) (size 15 to 20)
#    0.000    2.000    1.818    1.091    1.273    4.000 
#    0.000    1.818    0.000    0.000    0.000    0.000 
#    0.000    0.000    0.000    0.000    0.000    0.000 
#
# Total GULP energy -545753.794297 kJ/mol
# GULP energy per Si atom -12403.495325 kJ/mol
# Density = 1.859857 g / cm^3
# Si number density = 18.641000 Si / 1000 Ang^3
#
#
#
# Elastic Constant Matrix: (Units=GPa)
#
#
# Indices 1 2 3 4 5 6 
#
# 1 135.8913 46.2090 93.9626 0.0000 0.0000 0.0000
# 2 46.2090 48.4322 56.6308 0.0000 0.0000 0.0000
# 3 93.9626 56.6308 145.3274 0.0000 0.0000 0.0000
# 4 0.0000 0.0000 0.0000 39.4305 0.0000 0.0000
# 5 0.0000 0.0000 0.0000 0.0000 33.8474 0.0000
# 6 0.0000 0.0000 0.0000 0.0000 0.0000 29.6952
#
#
#
# Elastic Compliance Matrix: (Units=1/GPa)
#
#
# Indices 1 2 3 4 5 6 
#
# 1 0.013957 -0.005079 -0.007045 0.000000 0.000000 0.000000
# 2 -0.005079 0.039778 -0.012217 0.000000 0.000000 0.000000
# 3 -0.007045 -0.012217 0.016197 0.000000 0.000000 0.000000
# 4 0.000000 0.000000 0.000000 0.025361 0.000000 0.000000
# 5 0.000000 0.000000 0.000000 0.000000 0.029544 0.000000
# 6 0.000000 0.000000 0.000000 0.000000 0.000000 0.033675
#
#
# Mechanical properties :
#
#
# Convention : Reuss Voigt Hill
#
# Bulk Modulus (GPa) = 47.05785 80.36177 63.70981
# Shear Modulus (GPa) = 23.33421 29.45118 26.39270
#
# Velocity S-wave (km/s) = 3.54187 3.97913 3.76685
# Velocity P-wave (km/s) = 6.48271 8.01967 7.29180
#
# Compressibility (1/GPa) = 0.02125044
#
# Stress axis : x y z
#
# Youngs Moduli (GPa) = 71.64782 25.13948 61.74133
#
# Poissons Ratio (x) = 0.12768 0.43497
# Poissons Ratio (y) = 0.36389 0.75428
# Poissons Ratio (z) = 0.50476 0.30712
#
# Static dielectric constant tensor:
#      x y z
#    x 3.678150 0.000000 0.000000 
#    y 0.000000 3.347790 0.000000 
#    z 0.000000 0.000000 3.444200 
# 
# 
# High freq. dielectric constant tensor:
#      x y z
#    x 1.735690 0.000000 0.000000 
#    y 0.000000 1.716570 0.000000 
#    z 0.000000 0.000000 1.734200 
# 
# From -- ./inp_files/54508.got.cif
#   From: 2010.03.12/outbox.cif.g09.slc.cpg/sg74_28_cif.got.tgz:54508.got - 2010.04.16 15:46:19.
