data_PCOD8300412
_publ_section_title
;
Structure prediction by ZEFSAII (Michael W. Deem and Ramdas Pophale) SiO2 
 PCOD8300412
Probable space group: I M M A
;
_chemical_formula_sum "Si O2"
_cell_formula_units_Z 80
_cell_length_a 26.155327
_cell_length_b 16.146110
_cell_length_c 8.788730
_cell_angle_alpha 90.000000
_cell_angle_beta 90.000000
_cell_angle_gamma 90.000000
_cell_volume 3711.540327
_symmetry_space_group_name_H-M "I M M A"
_symmetry_group_IT_number 74
_symmetry_cell_setting 'orthorhombic'
loop_
_space_group_symop_operation_xyz
x,y,z
-x,1/2-y,z
x,-y,-z
-x,1/2+y,-z
-x,-y,-z
x,1/2+y,-z
-x,y,z
x,1/2-y,z
1/2+x,1/2+y,1/2+z
1/2-x,-y,1/2+z
1/2+x,1/2-y,1/2-z
1/2-x,y,1/2-z
1/2-x,1/2-y,1/2-z
1/2+x,y,1/2-z
1/2-x,1/2+y,1/2+z
1/2+x,-y,1/2+z
loop_
_atom_site_type_symbol
_atom_site_label
_atom_site_fract_x
_atom_site_fract_y
_atom_site_fract_z
Si Si1 0.154916 0.592912 0.435726
Si Si2 0.555483 0.089541 0.077257
Si Si3 0.244776 0.345759 0.083546
Si Si4 0.557566 0.589683 0.565762
Si Si5 0.849814 0.654573 0.106978
O O1 0.159739 0.500000 0.500000
O O2 0.103606 0.637479 0.503294
O O3 0.204407 0.643573 0.484984
O O4 0.149216 0.595767 0.254342
O O5 0.500000 0.133177 0.047985
O O6 0.566456 0.083994 0.255164
O O7 0.553840 0.000000 0.000000
O O8 0.233090 0.250000 0.108039
O O9 0.250000 0.388764 0.250000
O O10 0.196001 0.382978 0.995648
O O11 0.568058 0.500000 0.500000
O O12 0.500000 0.620194 0.528046
O O13 0.597349 0.651807 0.487098
O O14 0.839801 0.750000 0.154685
#
# Coordination Sequence:
#
# PCOD8300412 Si02
#       5
#    16  16  16  16  16
#     4  11  22  36  59  89 118 155 205 255 303 364
#     4   9  18  34  56  84 118 153 192 241 299 358
#     4  10  22  40  60  83 116 156 196 246 311 374
#     4  10  20  36  61  90 121 158 202 255 309 362
#     4  11  24  41  62  89 125 167 208 254 312 375
#
# _framework density 21.554393999999998
#
# number of rings (size 3 to 8) (size 9 to 14) (size 15 to 20)
#    0.000    1.800    0.000    4.800    0.000    6.800 
#    0.000    1.000    0.000    4.200    0.000    0.000 
#    0.000    0.000    0.000    0.000    0.000    0.000 
#
# Total GULP energy -495842.878929 kJ/mol
# GULP energy per Si atom -12396.071973 kJ/mol
# Density = 2.150534 g / cm^3
# Si number density = 21.554394 Si / 1000 Ang^3
#
#
#
# Elastic Constant Matrix: (Units=GPa)
#
#
# Indices 1 2 3 4 5 6 
#
# 1 195.9855 13.6737 83.6474 0.0000 0.0000 0.0000
# 2 13.6737 38.4033 27.6933 0.0000 0.0000 0.0000
# 3 83.6474 27.6933 171.7976 0.0000 0.0000 0.0000
# 4 0.0000 0.0000 0.0000 26.7536 0.0000 0.0000
# 5 0.0000 0.0000 0.0000 0.0000 46.0763 0.0000
# 6 0.0000 0.0000 0.0000 0.0000 0.0000 46.9093
#
#
#
# Elastic Compliance Matrix: (Units=1/GPa)
#
#
# Indices 1 2 3 4 5 6 
#
# 1 0.006441 -0.000036 -0.003130 0.000000 0.000000 0.000000
# 2 -0.000036 0.029465 -0.004732 0.000000 0.000000 0.000000
# 3 -0.003130 -0.004732 0.008108 0.000000 0.000000 0.000000
# 4 0.000000 0.000000 0.000000 0.037378 0.000000 0.000000
# 5 0.000000 0.000000 0.000000 0.000000 0.021703 0.000000
# 6 0.000000 0.000000 0.000000 0.000000 0.000000 0.021318
#
#
# Mechanical properties :
#
#
# Convention : Reuss Voigt Hill
#
# Bulk Modulus (GPa) = 35.44018 72.91279 54.17648
# Shear Modulus (GPa) = 33.41920 42.69264 38.05592
#
# Velocity S-wave (km/s) = 3.94186 4.45533 4.20643
# Velocity P-wave (km/s) = 6.09882 7.76964 6.98437
#
# Compressibility (1/GPa) = 0.02821656
#
# Stress axis : x y z
#
# Youngs Moduli (GPa) = 155.25689 33.93897 123.33949
#
# Poissons Ratio (x) = 0.00122 0.38608
# Poissons Ratio (y) = 0.00560 0.58365
# Poissons Ratio (z) = 0.48599 0.16060
#
# Static dielectric constant tensor:
#      x y z
#    x 4.661650 0.000000 0.000000 
#    y 0.000000 3.310870 0.000000 
#    z 0.000000 0.000000 4.066030 
# 
# 
# High freq. dielectric constant tensor:
#      x y z
#    x 1.874720 0.000000 0.000000 
#    y 0.000000 1.798050 0.000000 
#    z 0.000000 0.000000 1.862670 
# 
# From -- ./inp_files/14924.got.cif
#   From: 2010.03.12/outbox.cif.g09.slc.cpg/sg74_8_cif.got.tgz:14924.got - 2010.04.16 15:46:19.
