data_PCOD8300442
_publ_section_title
;
Structure prediction by ZEFSAII (Michael W. Deem and Ramdas Pophale) SiO2 
 PCOD8300442
Probable space group: I M M A
;
_chemical_formula_sum "Si O2"
_cell_formula_units_Z 88
_cell_length_a 8.883289
_cell_length_b 18.262596
_cell_length_c 29.898592
_cell_angle_alpha 90.000000
_cell_angle_beta 90.000000
_cell_angle_gamma 90.000000
_cell_volume 4850.505930
_symmetry_space_group_name_H-M "I M M A"
_symmetry_group_IT_number 74
_symmetry_cell_setting 'orthorhombic'
loop_
_space_group_symop_operation_xyz
x,y,z
-x,1/2-y,z
x,-y,-z
-x,1/2+y,-z
-x,-y,-z
x,1/2+y,-z
-x,y,z
x,1/2-y,z
1/2+x,1/2+y,1/2+z
1/2-x,-y,1/2+z
1/2+x,1/2-y,1/2-z
1/2-x,y,1/2-z
1/2-x,1/2-y,1/2-z
1/2+x,y,1/2-z
1/2-x,1/2+y,1/2+z
1/2+x,-y,1/2+z
loop_
_atom_site_type_symbol
_atom_site_label
_atom_site_fract_x
_atom_site_fract_y
_atom_site_fract_z
Si Si1 0.327454 0.044854 0.544980
Si Si2 0.330506 0.666099 0.998151
Si Si3 0.325442 0.750000 0.297224
Si Si4 0.178347 0.670333 0.601986
Si Si5 0.177100 0.016181 0.368383
Si Si6 0.177430 0.590862 0.201431
O O1 0.500000 0.043772 0.561218
O O2 0.276496 0.127164 0.534154
O O3 0.221914 0.013449 0.583343
O O4 0.300933 0.000000 0.500000
O O5 0.500000 0.633537 0.000315
O O6 0.332350 0.750000 0.012339
O O7 0.260829 0.656424 0.948281
O O8 0.500000 0.750000 0.287520
O O9 0.250000 0.750000 0.250000
O O10 0.282813 0.671773 0.320516
O O11 0.238140 0.750000 0.619952
O O12 0.225381 0.602595 0.633968
O O13 0.000000 0.674420 0.597978
O O14 0.261443 0.973042 0.329723
O O15 0.000000 0.006518 0.361576
O O16 0.250000 0.582617 0.250000
O O17 0.000000 0.580674 0.206301
#
# Coordination Sequence:
#
# PCOD8300442 Si02
#       6
#    16  16   8  16  16  16
#     4  11  22  34  49  73 108 144 177 217 266 315
#     4   9  17  32  53  73  96 133 181 225 264 310
#     4   8  16  32  56  80 104 138 170 208 254 304
#     4   8  15  29  51  77 102 132 174 221 265 313
#     4  11  21  34  56  81 106 139 179 220 268 317
#     4  10  20  37  59  83 110 137 174 216 263 316
#
# _framework density 18.142439
#
# number of rings (size 3 to 8) (size 9 to 14) (size 15 to 20)
#    0.000    2.364    1.818    2.727    0.000    1.818 
#    1.636    0.000    0.000    2.727    0.000    0.000 
#    0.000    0.000    0.000    0.000    0.000    0.000 
#
# Total GULP energy -545177.698244 kJ/mol
# GULP energy per Si atom -12390.402233 kJ/mol
# Density = 1.810115 g / cm^3
# Si number density = 18.142439 Si / 1000 Ang^3
#
#
#
# Elastic Constant Matrix: (Units=GPa)
#
#
# Indices 1 2 3 4 5 6 
#
# 1 55.0449 43.5938 28.9074 0.0000 0.0000 0.0000
# 2 43.5938 161.1533 60.9622 0.0000 0.0000 0.0000
# 3 28.9074 60.9622 63.8250 0.0000 0.0000 0.0000
# 4 0.0000 0.0000 0.0000 24.0235 0.0000 0.0000
# 5 0.0000 0.0000 0.0000 0.0000 28.4387 0.0000
# 6 0.0000 0.0000 0.0000 0.0000 0.0000 23.9271
#
#
#
# Elastic Compliance Matrix: (Units=1/GPa)
#
#
# Indices 1 2 3 4 5 6 
#
# 1 0.025336 -0.003934 -0.007717 0.000000 0.000000 0.000000
# 2 -0.003934 0.010327 -0.008082 0.000000 0.000000 0.000000
# 3 -0.007717 -0.008082 0.026882 0.000000 0.000000 0.000000
# 4 0.000000 0.000000 0.000000 0.041626 0.000000 0.000000
# 5 0.000000 0.000000 0.000000 0.000000 0.035163 0.000000
# 6 0.000000 0.000000 0.000000 0.000000 0.000000 0.041794
#
#
# Mechanical properties :
#
#
# Convention : Reuss Voigt Hill
#
# Bulk Modulus (GPa) = 43.33048 60.77224 52.05136
# Shear Modulus (GPa) = 21.90235 25.04852 23.47544
#
# Velocity S-wave (km/s) = 3.47831 3.71975 3.60106
# Velocity P-wave (km/s) = 6.32984 7.21240 6.78549
#
# Compressibility (1/GPa) = 0.02307845
#
# Stress axis : x y z
#
# Youngs Moduli (GPa) = 39.47027 96.83620 37.19940
#
# Poissons Ratio (x) = 0.38098 0.28707
# Poissons Ratio (y) = 0.15529 0.30063
# Poissons Ratio (z) = 0.30459 0.78259
#
# Static dielectric constant tensor:
#      x y z
#    x 3.289330 0.000000 0.000000 
#    y 0.000000 3.988340 0.000000 
#    z 0.000000 0.000000 3.004020 
# 
# 
# High freq. dielectric constant tensor:
#      x y z
#    x 1.693320 0.000000 0.000000 
#    y 0.000000 1.723550 0.000000 
#    z 0.000000 0.000000 1.660000 
# 
# From -- ./inp_files/70227.got.cif
#   From: 2010.03.12/outbox.cif.g09.slc.cpg/sg74_36_cif.got.tgz:70227.got - 2010.04.16 15:46:19.
