data_PCOD8300375
_publ_section_title
;
Structure prediction by ZEFSAII (Michael W. Deem and Ramdas Pophale) SiO2 
 PCOD8300375
Probable space group: I M M A
;
_chemical_formula_sum "Si O2"
_cell_formula_units_Z 88
_cell_length_a 19.709893
_cell_length_b 8.910270
_cell_length_c 24.262614
_cell_angle_alpha 90.000000
_cell_angle_beta 90.000000
_cell_angle_gamma 90.000000
_cell_volume 4261.011633
_symmetry_space_group_name_H-M "I M M A"
_symmetry_group_IT_number 74
_symmetry_cell_setting 'orthorhombic'
loop_
_space_group_symop_operation_xyz
x,y,z
-x,1/2-y,z
x,-y,-z
-x,1/2+y,-z
-x,-y,-z
x,1/2+y,-z
-x,y,z
x,1/2-y,z
1/2+x,1/2+y,1/2+z
1/2-x,-y,1/2+z
1/2+x,1/2-y,1/2-z
1/2-x,y,1/2-z
1/2-x,1/2-y,1/2-z
1/2+x,y,1/2-z
1/2-x,1/2+y,1/2+z
1/2+x,-y,1/2+z
loop_
_atom_site_type_symbol
_atom_site_label
_atom_site_fract_x
_atom_site_fract_y
_atom_site_fract_z
Si Si1 0.574396 0.080545 0.838214
Si Si2 0.380839 0.074781 0.366852
Si Si3 0.763624 0.421428 0.052475
Si Si4 0.172115 0.072674 0.758290
Si Si5 0.388518 0.426326 0.054950
Si Si6 0.500000 0.069447 0.561915
O O1 0.500000 0.071270 0.809706
O O2 0.590716 0.250000 0.856751
O O3 0.632114 0.024871 0.796533
O O4 0.570590 0.976918 0.891765
O O5 0.402019 0.250000 0.364383
O O6 0.307606 0.050805 0.393768
O O7 0.369999 0.009772 0.306144
O O8 0.435179 0.984492 0.403115
O O9 0.759016 0.250000 0.036052
O O10 0.688564 0.485419 0.063270
O O11 0.798482 0.500000 0.000000
O O12 0.169205 0.250000 0.769775
O O13 0.250000 0.018355 0.750000
O O14 0.394307 0.250000 0.048837
O O15 0.419961 0.500000 0.000000
O O16 0.500000 0.250000 0.556974
O O17 0.500000 0.000000 0.500000
#
# Coordination Sequence:
#
# PCOD8300375 Si02
#       6
#    16  16  16  16  16   8
#     4  10  22  39  58  82 116 155 195 243 296 352
#     4  11  23  39  61  90 123 161 208 258 314 376
#     4   9  19  34  55  84 117 150 190 242 297 353
#     4  10  22  40  63  91 122 162 210 258 312 373
#     4  10  20  36  59  87 117 152 193 240 296 355
#     4  12  26  44  64  90 128 170 215 266 323 388
#
# _framework density 20.652372
#
# number of rings (size 3 to 8) (size 9 to 14) (size 15 to 20)
#    0.000    1.818    0.000    3.545    1.273    5.455 
#    0.000    0.000    0.000    0.000    0.000    0.000 
#    0.000    0.000    0.000    0.000    0.000    0.000 
#
# Total GULP energy -545550.821423 kJ/mol
# GULP energy per Si atom -12398.882305 kJ/mol
# Density = 2.060537 g / cm^3
# Si number density = 20.652372 Si / 1000 Ang^3
#
#
#
# Elastic Constant Matrix: (Units=GPa)
#
#
# Indices 1 2 3 4 5 6 
#
# 1 104.5221 37.9991 56.3489 0.0000 0.0000 0.0000
# 2 37.9991 88.4473 56.7966 0.0000 0.0000 0.0000
# 3 56.3489 56.7966 144.8526 0.0000 0.0000 0.0000
# 4 0.0000 0.0000 0.0000 41.0872 0.0000 0.0000
# 5 0.0000 0.0000 0.0000 0.0000 28.8201 0.0000
# 6 0.0000 0.0000 0.0000 0.0000 0.0000 17.0352
#
#
#
# Elastic Compliance Matrix: (Units=1/GPa)
#
#
# Indices 1 2 3 4 5 6 
#
# 1 0.012694 -0.003051 -0.003742 0.000000 0.000000 0.000000
# 2 -0.003051 0.015844 -0.005026 0.000000 0.000000 0.000000
# 3 -0.003742 -0.005026 0.010330 0.000000 0.000000 0.000000
# 4 0.000000 0.000000 0.000000 0.024339 0.000000 0.000000
# 5 0.000000 0.000000 0.000000 0.000000 0.034698 0.000000
# 6 0.000000 0.000000 0.000000 0.000000 0.000000 0.058702
#
#
# Mechanical properties :
#
#
# Convention : Reuss Voigt Hill
#
# Bulk Modulus (GPa) = 65.65510 71.12347 68.38929
# Shear Modulus (GPa) = 26.98048 29.83367 28.40707
#
# Velocity S-wave (km/s) = 3.61835 3.80487 3.71278
# Velocity P-wave (km/s) = 7.02255 7.33593 7.18095
#
# Compressibility (1/GPa) = 0.01523111
#
# Stress axis : x y z
#
# Youngs Moduli (GPa) = 78.77949 63.11504 96.80808
#
# Poissons Ratio (x) = 0.19255 0.36223
# Poissons Ratio (y) = 0.24033 0.48653
# Poissons Ratio (z) = 0.29477 0.31720
#
# Static dielectric constant tensor:
#      x y z
#    x 3.995000 0.000000 0.000000 
#    y 0.000000 3.678360 0.000000 
#    z 0.000000 0.000000 3.690040 
# 
# 
# High freq. dielectric constant tensor:
#      x y z
#    x 1.817580 0.000000 0.000000 
#    y 0.000000 1.804620 0.000000 
#    z 0.000000 0.000000 1.810870 
# 
# From -- ./inp_files/61459.got.cif
#   From: 2010.03.12/outbox.cif.g09.slc.cpg/sg74_31_cif.got.tgz:61459.got - 2010.04.16 15:46:19.
