data_PCOD8300069
_publ_section_title
;
Structure prediction by ZEFSAII (Michael W. Deem and Ramdas Pophale) SiO2 
 PCOD8300069
Probable space group: I M M A
;
_chemical_formula_sum "Si O2"
_cell_formula_units_Z 88
_cell_length_a 17.705435
_cell_length_b 9.494729
_cell_length_c 27.354286
_cell_angle_alpha 90.000000
_cell_angle_beta 90.000000
_cell_angle_gamma 90.000000
_cell_volume 4598.482713
_symmetry_space_group_name_H-M "I M M A"
_symmetry_group_IT_number 74
_symmetry_cell_setting 'orthorhombic'
loop_
_space_group_symop_operation_xyz
x,y,z
-x,1/2-y,z
x,-y,-z
-x,1/2+y,-z
-x,-y,-z
x,1/2+y,-z
-x,y,z
x,1/2-y,z
1/2+x,1/2+y,1/2+z
1/2-x,-y,1/2+z
1/2+x,1/2-y,1/2-z
1/2-x,y,1/2-z
1/2-x,1/2-y,1/2-z
1/2+x,y,1/2-z
1/2-x,1/2+y,1/2+z
1/2+x,-y,1/2+z
loop_
_atom_site_type_symbol
_atom_site_label
_atom_site_fract_x
_atom_site_fract_y
_atom_site_fract_z
Si Si1 0.914093 0.411018 0.606174
Si Si2 0.856197 0.914989 0.116524
Si Si3 0.831560 0.415914 0.773210
Si Si4 0.088694 0.906548 0.696131
Si Si5 0.500000 0.419727 0.552668
Si Si6 0.773920 0.910662 0.454111
O O1 0.906505 0.250000 0.624815
O O2 0.882024 0.511147 0.648451
O O3 0.861560 0.435916 0.559190
O O4 0.000000 0.446281 0.591008
O O5 0.865924 0.750000 0.120751
O O6 0.845020 0.972711 0.171625
O O7 0.778987 0.958919 0.090177
O O8 0.927965 0.970576 0.085186
O O9 0.847628 0.250000 0.768906
O O10 0.750000 0.452299 0.750000
O O11 0.892933 0.502811 0.743460
O O12 0.125202 0.750000 0.698055
O O13 0.000000 0.893223 0.692564
O O14 0.500000 0.250000 0.543506
O O15 0.500000 0.500000 0.500000
O O16 0.758046 0.750000 0.467830
O O17 0.749941 0.000000 0.500000
#
# Coordination Sequence:
#
# PCOD8300069 Si02
#       6
#    16  16  16  16   8  16
#     4   9  18  34  55  77 103 141 184 221 260 315
#     4   9  19  34  54  78 105 138 178 222 267 323
#     4  10  20  35  57  82 107 141 185 227 269 325
#     4  10  21  35  52  78 112 144 175 216 268 324
#     4  10  20  36  56  78 104 138 182 228 275 324
#     4  10  20  35  54  77 105 135 174 222 270 320
#
# _framework density 19.136745999999999
#
# number of rings (size 3 to 8) (size 9 to 14) (size 15 to 20)
#    0.000    2.364    0.000    2.182    1.273    5.455 
#    0.000    1.818    0.000    0.000    0.000    0.000 
#    0.000    0.000    0.000    0.000    0.000    0.000 
#
# Total GULP energy -545387.160449 kJ/mol
# GULP energy per Si atom -12395.162737 kJ/mol
# Density = 1.909319 g / cm^3
# Si number density = 19.136746 Si / 1000 Ang^3
#
#
#
# Elastic Constant Matrix: (Units=GPa)
#
#
# Indices 1 2 3 4 5 6 
#
# 1 74.3003 19.7088 31.0190 0.0000 0.0000 0.0000
# 2 19.7088 59.1683 35.6885 0.0000 0.0000 0.0000
# 3 31.0190 35.6885 102.7114 0.0000 0.0000 0.0000
# 4 0.0000 0.0000 0.0000 28.5457 0.0000 0.0000
# 5 0.0000 0.0000 0.0000 0.0000 64.4123 0.0000
# 6 0.0000 0.0000 0.0000 0.0000 0.0000 18.0665
#
#
#
# Elastic Compliance Matrix: (Units=1/GPa)
#
#
# Indices 1 2 3 4 5 6 
#
# 1 0.015816 -0.003020 -0.003727 0.000000 0.000000 0.000000
# 2 -0.003020 0.021959 -0.006718 0.000000 0.000000 0.000000
# 3 -0.003727 -0.006718 0.013196 0.000000 0.000000 0.000000
# 4 0.000000 0.000000 0.000000 0.035032 0.000000 0.000000
# 5 0.000000 0.000000 0.000000 0.000000 0.015525 0.000000
# 6 0.000000 0.000000 0.000000 0.000000 0.000000 0.055351
#
#
# Mechanical properties :
#
#
# Convention : Reuss Voigt Hill
#
# Bulk Modulus (GPa) = 41.59637 45.44584 43.52110
# Shear Modulus (GPa) = 26.06583 32.18915 29.12749
#
# Velocity S-wave (km/s) = 3.69464 4.10574 3.90561
# Velocity P-wave (km/s) = 6.32330 6.80262 6.56733
#
# Compressibility (1/GPa) = 0.02404056
#
# Stress axis : x y z
#
# Youngs Moduli (GPa) = 63.22705 45.53952 75.78177
#
# Poissons Ratio (x) = 0.13754 0.28244
# Poissons Ratio (y) = 0.19096 0.50909
# Poissons Ratio (z) = 0.23565 0.30593
#
# Static dielectric constant tensor:
#      x y z
#    x 3.563120 0.000000 0.000000 
#    y 0.000000 3.516340 0.000000 
#    z 0.000000 0.000000 3.644160 
# 
# 
# High freq. dielectric constant tensor:
#      x y z
#    x 1.749530 0.000000 0.000000 
#    y 0.000000 1.720870 0.000000 
#    z 0.000000 0.000000 1.746420 
# 
# From -- ./inp_files/72939.got.cif
#   From: 2010.03.12/outbox.cif.g09.slc.cpg/sg74_37_cif.got.tgz:72939.got - 2010.04.16 15:46:19.
