data_PCOD8300765
_publ_section_title
;
Structure prediction by ZEFSAII (Michael W. Deem and Ramdas Pophale) SiO2 
 PCOD8300765
Probable space group: I M M A
;
_chemical_formula_sum "Si O2"
_cell_formula_units_Z 88
_cell_length_a 9.178460
_cell_length_b 30.131836
_cell_length_c 17.806543
_cell_angle_alpha 90.000000
_cell_angle_beta 90.000000
_cell_angle_gamma 90.000000
_cell_volume 4924.646113
_symmetry_space_group_name_H-M "I M M A"
_symmetry_group_IT_number 74
_symmetry_cell_setting 'orthorhombic'
loop_
_space_group_symop_operation_xyz
x,y,z
-x,1/2-y,z
x,-y,-z
-x,1/2+y,-z
-x,-y,-z
x,1/2+y,-z
-x,y,z
x,1/2-y,z
1/2+x,1/2+y,1/2+z
1/2-x,-y,1/2+z
1/2+x,1/2-y,1/2-z
1/2-x,y,1/2-z
1/2-x,1/2-y,1/2-z
1/2+x,y,1/2-z
1/2-x,1/2+y,1/2+z
1/2+x,-y,1/2+z
loop_
_atom_site_type_symbol
_atom_site_label
_atom_site_fract_x
_atom_site_fract_y
_atom_site_fract_z
Si Si1 0.168558 0.750000 0.327829
Si Si2 0.665865 0.363639 0.443616
Si Si3 0.671593 0.199146 0.171630
Si Si4 0.173870 0.548759 0.018891
Si Si5 0.840150 0.826414 0.109439
Si Si6 0.665479 0.419172 0.676668
O O1 0.250000 0.750000 0.250000
O O2 0.210516 0.707376 0.376149
O O3 0.000000 0.750000 0.311245
O O4 0.500000 0.362484 0.412460
O O5 0.769491 0.336243 0.388379
O O6 0.721586 0.414749 0.455739
O O7 0.673493 0.341977 0.524752
O O8 0.500000 0.191689 0.181795
O O9 0.704384 0.250000 0.145622
O O10 0.750000 0.189359 0.250000
O O11 0.236126 0.559615 0.101636
O O12 0.000000 0.550838 0.022967
O O13 0.233608 0.500000 0.000000
O O14 0.824137 0.866276 0.168442
O O15 0.000000 0.804427 0.121287
O O16 0.500000 0.435083 0.686383
O O17 0.750000 0.435696 0.750000
#
# Coordination Sequence:
#
# PCOD8300765 Si02
#       6
#     8  16  16  16  16  16
#     4  12  24  34  46  66  95 130 167 204 246 288
#     4   9  18  33  55  79 102 134 172 211 257 306
#     4  10  21  36  54  77 106 139 177 220 267 319
#     4   8  15  31  54  77 102 134 171 209 253 311
#     4   9  19  34  49  69  97 130 167 203 242 292
#     4   9  17  30  50  73  96 126 165 203 244 294
#
# _framework density 17.869304
#
# number of rings (size 3 to 8) (size 9 to 14) (size 15 to 20)
#    0.000    2.727    0.000    4.091    1.273    4.000 
#    0.000    3.636    0.000    4.364    0.000    0.000 
#    0.000    0.000    0.000    0.000    0.000    0.000 
#
# Total GULP energy -545354.701029 kJ/mol
# GULP energy per Si atom -12394.425023 kJ/mol
# Density = 1.782863 g / cm^3
# Si number density = 17.869304 Si / 1000 Ang^3
#
#
#
# Elastic Constant Matrix: (Units=GPa)
#
#
# Indices 1 2 3 4 5 6 
#
# 1 86.9321 45.8254 41.3086 0.0000 0.0000 0.0000
# 2 45.8254 120.0211 53.1475 -0.0001 0.0000 0.0001
# 3 41.3086 53.1475 88.9260 -0.0004 0.0000 0.0004
# 4 0.0000 -0.0001 -0.0004 20.2160 0.0000 0.0002
# 5 0.0000 0.0000 0.0000 0.0000 32.3565 0.0000
# 6 0.0000 0.0001 0.0004 0.0002 0.0000 10.9389
#
#
#
# Elastic Compliance Matrix: (Units=1/GPa)
#
#
# Indices 1 2 3 4 5 6 
#
# 1 0.015954 -0.003821 -0.005127 0.000000 0.000000 0.000000
# 2 -0.003821 0.012246 -0.005544 0.000000 0.000000 0.000000
# 3 -0.005127 -0.005544 0.016940 0.000000 0.000000 -0.000001
# 4 0.000000 0.000000 0.000000 0.049466 0.000000 -0.000001
# 5 0.000000 0.000000 0.000000 0.000000 0.030906 0.000000
# 6 0.000000 0.000000 -0.000001 -0.000001 0.000000 0.091417
#
#
# Mechanical properties :
#
#
# Convention : Reuss Voigt Hill
#
# Bulk Modulus (GPa) = 61.89763 64.04913 62.97338
# Shear Modulus (GPa) = 19.89674 23.07546 21.48610
#
# Velocity S-wave (km/s) = 3.34047 3.59743 3.47133
# Velocity P-wave (km/s) = 7.04220 7.29220 7.16829
#
# Compressibility (1/GPa) = 0.01615571
#
# Stress axis : x y z
#
# Youngs Moduli (GPa) = 62.68091 81.66188 59.03022
#
# Poissons Ratio (x) = 0.31202 0.30267
# Poissons Ratio (y) = 0.23949 0.32725
# Poissons Ratio (z) = 0.32139 0.45272
#
# Static dielectric constant tensor:
#      x y z
#    x 3.397790 0.000000 0.000000 
#    y 0.000000 3.408800 0.000000 
#    z 0.000000 0.000000 3.241210 
# 
# 
# High freq. dielectric constant tensor:
#      x y z
#    x 1.670260 0.000000 0.000000 
#    y 0.000000 1.685150 0.000000 
#    z 0.000000 0.000000 1.689820 
# 
# From -- ./inp_files/40105.got.cif
#   From: 2010.03.12/outbox.cif.g09.slc.cpg/sg74_21_cif.got.tgz:40105.got - 2010.04.16 15:46:19.
