data_PCOD8300243
_publ_section_title
;
Structure prediction by ZEFSAII (Michael W. Deem and Ramdas Pophale) SiO2 
 PCOD8300243
Probable space group: I M M A
;
_chemical_formula_sum "Si O2"
_cell_formula_units_Z 112
_cell_length_a 15.507299
_cell_length_b 24.245398
_cell_length_c 13.741274
_cell_angle_alpha 90.000000
_cell_angle_beta 90.000000
_cell_angle_gamma 90.000000
_cell_volume 5166.452940
_symmetry_space_group_name_H-M "I M M A"
_symmetry_group_IT_number 74
_symmetry_cell_setting 'orthorhombic'
loop_
_space_group_symop_operation_xyz
x,y,z
-x,1/2-y,z
x,-y,-z
-x,1/2+y,-z
-x,-y,-z
x,1/2+y,-z
-x,y,z
x,1/2-y,z
1/2+x,1/2+y,1/2+z
1/2-x,-y,1/2+z
1/2+x,1/2-y,1/2-z
1/2-x,y,1/2-z
1/2-x,1/2-y,1/2-z
1/2+x,y,1/2-z
1/2-x,1/2+y,1/2+z
1/2+x,-y,1/2+z
loop_
_atom_site_type_symbol
_atom_site_label
_atom_site_fract_x
_atom_site_fract_y
_atom_site_fract_z
Si Si1 0.202552 0.456273 0.932431
Si Si2 0.376065 0.503663 0.888834
Si Si3 0.400489 0.311595 0.870342
Si Si4 0.903013 0.187720 0.121187
Si Si5 0.735387 0.846646 0.974821
Si Si6 0.839056 0.611317 0.709627
Si Si7 0.406885 0.410442 0.741688
O O1 0.273692 0.495627 0.884995
O O2 0.149935 0.428530 0.847928
O O3 0.147813 0.500000 0.000000
O O4 0.252954 0.410148 0.993964
O O5 0.396994 0.562511 0.837897
O O6 0.418844 0.455970 0.825092
O O7 0.412015 0.500000 0.000000
O O8 0.500000 0.325528 0.904308
O O9 0.398154 0.250000 0.826913
O O10 0.369118 0.354312 0.787727
O O11 0.329147 0.314095 0.954874
O O12 0.893669 0.250000 0.162099
O O13 0.831502 0.179545 0.035670
O O14 0.891477 0.143254 0.207075
O O15 0.000000 0.179025 0.078173
O O16 0.686954 0.843930 0.871722
O O17 0.750000 0.585515 0.750000
O O18 0.500000 0.397649 0.696894
#
# Coordination Sequence:
#
# PCOD8300243 Si02
#       7
#    16  16  16  16  16  16  16
#     4  11  22  40  65  90 127 172 214 266 330 395
#     4  11  20  38  63  91 123 166 209 264 328 387
#     4  10  22  41  64  94 130 168 218 275 326 382
#     4  10  24  43  62  91 134 177 220 272 322 379
#     4  11  21  39  67  94 123 172 220 265 324 393
#     4  10  20  35  60  89 120 165 219 263 318 384
#     4  11  24  39  61  93 130 169 215 274 332 393
#
# _framework density 21.678315999999999
#
# number of rings (size 3 to 8) (size 9 to 14) (size 15 to 20)
#    0.000    1.429    4.286    1.714    2.000    5.429 
#    0.000    3.571    0.000    2.143    0.000    0.000 
#    0.000    0.000    0.000    0.000    0.000    0.000 
#
# Total GULP energy -693927.386373 kJ/mol
# GULP energy per Si atom -12391.560471 kJ/mol
# Density = 2.162897 g / cm^3
# Si number density = 21.678316 Si / 1000 Ang^3
#
#
#
# Elastic Constant Matrix: (Units=GPa)
#
#
# Indices 1 2 3 4 5 6 
#
# 1 114.7638 42.2396 52.6249 0.0000 0.0000 0.0000
# 2 42.2396 128.7682 40.3583 0.0000 0.0000 0.0000
# 3 52.6249 40.3583 99.7338 0.0000 -0.0001 0.0000
# 4 0.0000 0.0000 0.0000 28.6970 -0.0001 0.0000
# 5 0.0000 0.0000 -0.0001 -0.0001 -30.3065 0.0000
# 6 0.0000 0.0000 0.0000 0.0000 0.0000 28.6560
#
#
#
# Elastic Compliance Matrix: (Units=1/GPa)
#
#
# Indices 1 2 3 4 5 6 
#
# 1 0.012034 -0.002242 -0.005443 0.000000 0.000000 0.000000
# 2 -0.002242 0.009311 -0.002585 0.000000 0.000000 0.000000
# 3 -0.005443 -0.002585 0.013945 0.000000 0.000000 0.000000
# 4 0.000000 0.000000 0.000000 0.034847 0.000000 0.000000
# 5 0.000000 0.000000 0.000000 0.000000 -0.032996 0.000000
# 6 0.000000 0.000000 0.000000 0.000000 0.000000 0.034897
#
#
# Mechanical properties :
#
#
# Convention : Reuss Voigt Hill
#
# Bulk Modulus (GPa) = 67.79115 68.19016 67.99066
# Shear Modulus (GPa) = 51.28496 19.27885 35.28190
#
# Velocity S-wave (km/s) = 4.86915 2.98537 4.03863
# Velocity P-wave (km/s) = 7.93415 6.58840 7.29239
#
# Compressibility (1/GPa) = 0.01475119
#
# Stress axis : x y z
#
# Youngs Moduli (GPa) = 83.09465 107.39440 71.71165
#
# Poissons Ratio (x) = 0.24075 0.39032
# Poissons Ratio (y) = 0.18628 0.18538
# Poissons Ratio (z) = 0.45227 0.27763
#
# Static dielectric constant tensor:
#      x y z
#    x 3.844500 0.000000 0.000000 
#    y 0.000000 4.033500 0.000000 
#    z 0.000000 0.000000 3.853560 
# 
# 
# High freq. dielectric constant tensor:
#      x y z
#    x 1.844800 0.000000 0.000000 
#    y 0.000000 1.859940 0.000000 
#    z 0.000000 0.000000 1.837510 
# 
# From -- ./inp_files/32695.got.cif
#   From: 2010.03.12/outbox.cif.g09.slc.cpg/sg74_17_cif.got.tgz:32695.got - 2010.04.16 15:46:19.
