data_PCOD8300419
_publ_section_title
;
Structure prediction by ZEFSAII (Michael W. Deem and Ramdas Pophale) SiO2 
 PCOD8300419
Probable space group: I M M A
;
_chemical_formula_sum "Si O2"
_cell_formula_units_Z 88
_cell_length_a 19.946158
_cell_length_b 17.838996
_cell_length_c 11.226009
_cell_angle_alpha 90.000000
_cell_angle_beta 90.000000
_cell_angle_gamma 90.000000
_cell_volume 3994.432155
_symmetry_space_group_name_H-M "I M M A"
_symmetry_group_IT_number 74
_symmetry_cell_setting 'orthorhombic'
loop_
_space_group_symop_operation_xyz
x,y,z
-x,1/2-y,z
x,-y,-z
-x,1/2+y,-z
-x,-y,-z
x,1/2+y,-z
-x,y,z
x,1/2-y,z
1/2+x,1/2+y,1/2+z
1/2-x,-y,1/2+z
1/2+x,1/2-y,1/2-z
1/2-x,y,1/2-z
1/2-x,1/2-y,1/2-z
1/2+x,y,1/2-z
1/2-x,1/2+y,1/2+z
1/2+x,-y,1/2+z
loop_
_atom_site_type_symbol
_atom_site_label
_atom_site_fract_x
_atom_site_fract_y
_atom_site_fract_z
Si Si1 0.000000 0.115662 0.175666
Si Si2 0.778215 0.336430 0.027854
Si Si3 0.865473 0.336038 0.540934
Si Si4 0.861197 0.118701 0.808394
Si Si5 0.633847 0.537579 0.627436
Si Si6 0.500000 0.664615 0.413115
Si Si7 0.000000 0.665234 0.565119
O O1 0.935507 0.063435 0.182875
O O2 0.000000 0.167295 0.292291
O O3 0.000000 0.165849 0.056880
O O4 0.782735 0.250000 0.073214
O O5 0.702150 0.367900 0.019861
O O6 0.810244 0.338868 0.896028
O O7 0.815926 0.391389 0.120379
O O8 0.867635 0.250000 0.504272
O O9 0.860986 0.341644 0.682378
O O10 0.932835 0.375291 0.487910
O O11 0.935171 0.121627 0.865744
O O12 0.839252 0.031214 0.791210
O O13 0.622056 0.500000 0.500000
O O14 0.500000 0.750000 0.367120
O O15 0.000000 0.750000 0.516730
#
# Coordination Sequence:
#
# PCOD8300419 Si02
#       7
#     8  16  16  16  16   8   8
#     4  12  21  39  61  83 124 165 212 252 306 368
#     4  10  20  36  62  93 123 159 204 255 312 369
#     4  10  21  41  64  89 126 162 207 260 305 373
#     4  11  21  36  62  96 127 161 201 256 322 368
#     4  10  21  38  60  90 127 162 200 256 315 367
#     4  12  21  31  62  99 125 156 207 266 311 365
#     4  10  24  43  62  87 120 165 208 251 309 369
#
# _framework density 22.030664999999999
#
# number of rings (size 3 to 8) (size 9 to 14) (size 15 to 20)
#    0.000    1.455    3.636    3.818    0.000    2.909 
#    0.000   11.818    0.000    3.273    0.000    0.000 
#    0.000    0.000    0.000    0.000    0.000    0.000 
#
# Total GULP energy -545443.327684 kJ/mol
# GULP energy per Si atom -12396.439266 kJ/mol
# Density = 2.198052 g / cm^3
# Si number density = 22.030665 Si / 1000 Ang^3
#
#
#
# Elastic Constant Matrix: (Units=GPa)
#
#
# Indices 1 2 3 4 5 6 
#
# 1 173.1598 37.0073 27.4365 0.0000 0.0000 0.0000
# 2 37.0073 95.8025 8.0822 0.0000 0.0000 0.0000
# 3 27.4365 8.0822 43.9563 0.0000 0.0000 0.0000
# 4 0.0000 0.0000 0.0000 22.1366 0.0000 0.0000
# 5 0.0000 0.0000 0.0000 0.0000 -10.1880 0.0000
# 6 0.0000 0.0000 0.0000 0.0000 0.0000 8.7799
#
#
#
# Elastic Compliance Matrix: (Units=1/GPa)
#
#
# Indices 1 2 3 4 5 6 
#
# 1 0.006887 -0.002334 -0.003870 0.000000 0.000000 0.000000
# 2 -0.002334 0.011394 -0.000638 0.000000 0.000000 0.000000
# 3 -0.003870 -0.000638 0.025282 0.000000 0.000000 0.000000
# 4 0.000000 0.000000 0.000000 0.045174 0.000000 0.000000
# 5 0.000000 0.000000 0.000000 0.000000 -0.098155 0.000000
# 6 0.000000 0.000000 0.000000 0.000000 0.000000 0.113896
#
#
# Mechanical properties :
#
#
# Convention : Reuss Voigt Hill
#
# Bulk Modulus (GPa) = 33.46748 50.88565 42.17656
# Shear Modulus (GPa) = 39.02555 20.17188 29.59872
#
# Velocity S-wave (km/s) = 4.21339 3.02922 3.66939
# Velocity P-wave (km/s) = 6.23655 5.94833 6.09414
#
# Compressibility (1/GPa) = 0.02987975
#
# Stress axis : x y z
#
# Youngs Moduli (GPa) = 145.20293 87.76908 39.55312
#
# Poissons Ratio (x) = 0.20484 0.15305
# Poissons Ratio (y) = 0.33889 0.02524
# Poissons Ratio (z) = 0.56187 0.05601
#
# Static dielectric constant tensor:
#      x y z
#    x 4.425950 0.000000 0.000000 
#    y 0.000000 4.107370 0.000000 
#    z 0.000000 0.000000 3.622710 
# 
# 
# High freq. dielectric constant tensor:
#      x y z
#    x 1.882510 0.000000 0.000000 
#    y 0.000000 1.856850 0.000000 
#    z 0.000000 0.000000 1.838980 
# 
# From -- ./inp_files/23723.got.cif
#   From: 2010.03.12/outbox.cif.g09.slc.cpg/sg74_12_cif.got.tgz:23723.got - 2010.04.16 15:46:19.
