data_PCOD8300985
_publ_section_title
;
Structure prediction by ZEFSAII (Michael W. Deem and Ramdas Pophale) SiO2 
 PCOD8300985
Probable space group: I M M A
;
_chemical_formula_sum "Si O2"
_cell_formula_units_Z 80
_cell_length_a 17.835257
_cell_length_b 8.865752
_cell_length_c 27.255193
_cell_angle_alpha 90.000000
_cell_angle_beta 90.000000
_cell_angle_gamma 90.000000
_cell_volume 4309.671940
_symmetry_space_group_name_H-M "I M M A"
_symmetry_group_IT_number 74
_symmetry_cell_setting 'orthorhombic'
loop_
_space_group_symop_operation_xyz
x,y,z
-x,1/2-y,z
x,-y,-z
-x,1/2+y,-z
-x,-y,-z
x,1/2+y,-z
-x,y,z
x,1/2-y,z
1/2+x,1/2+y,1/2+z
1/2-x,-y,1/2+z
1/2+x,1/2-y,1/2-z
1/2-x,y,1/2-z
1/2-x,1/2-y,1/2-z
1/2+x,y,1/2-z
1/2-x,1/2+y,1/2+z
1/2+x,-y,1/2+z
loop_
_atom_site_type_symbol
_atom_site_label
_atom_site_fract_x
_atom_site_fract_y
_atom_site_fract_z
Si Si1 0.915006 0.924122 0.092542
Si Si2 0.274046 0.572309 0.550568
Si Si3 0.648004 0.578539 0.303192
Si Si4 0.299068 0.575470 0.142359
Si Si5 0.586280 0.073934 0.209426
O O1 0.894851 0.750000 0.081779
O O2 0.904177 0.956550 0.150118
O O3 0.000000 0.963019 0.077763
O O4 0.860341 0.026628 0.060345
O O5 0.246000 0.500000 0.500000
O O6 0.268380 0.750000 0.546791
O O7 0.219645 0.514997 0.593252
O O8 0.636071 0.750000 0.284802
O O9 0.734470 0.550878 0.317113
O O10 0.625672 0.464978 0.260608
O O11 0.306475 0.750000 0.128306
O O12 0.376416 0.515171 0.164474
O O13 0.500000 0.024582 0.211712
O O14 0.595854 0.250000 0.199618
#
# Coordination Sequence:
#
# PCOD8300985 Si02
#       5
#    16  16  16  16  16
#     4   9  18  33  52  76 109 146 183 222 262 307
#     4  11  22  37  57  79 104 135 174 220 269 320
#     4   9  18  33  53  77 106 143 183 218 255 305
#     4  10  21  38  58  79 104 137 179 222 264 313
#     4  11  23  35  50  78 113 144 176 216 261 311
#
# _framework density 18.562898000000001
#
# number of rings (size 3 to 8) (size 9 to 14) (size 15 to 20)
#    0.000    2.000    0.000    5.400    0.000    9.600 
#    0.000    0.000    0.000    0.600    0.000    0.000 
#    0.000    0.000    0.000    0.000    0.000    0.000 
#
# Total GULP energy -496181.875594 kJ/mol
# GULP energy per Si atom -12404.546890 kJ/mol
# Density = 1.852065 g / cm^3
# Si number density = 18.562898 Si / 1000 Ang^3
#
#
#
# Elastic Constant Matrix: (Units=GPa)
#
#
# Indices 1 2 3 4 5 6 
#
# 1 65.6468 41.6470 43.0114 0.0000 0.0000 0.0000
# 2 41.6470 118.5707 55.6335 0.0000 0.0000 0.0000
# 3 43.0114 55.6335 101.3114 0.0000 0.0000 0.0000
# 4 0.0000 0.0000 0.0000 35.6326 0.0000 0.0000
# 5 0.0000 0.0000 0.0000 0.0000 10.5907 0.0000
# 6 0.0000 0.0000 0.0000 0.0000 0.0000 28.9917
#
#
#
# Elastic Compliance Matrix: (Units=1/GPa)
#
#
# Indices 1 2 3 4 5 6 
#
# 1 0.022886 -0.004687 -0.007142 0.000000 0.000000 0.000000
# 2 -0.004687 0.012321 -0.004776 0.000000 0.000000 0.000000
# 3 -0.007142 -0.004776 0.015525 0.000000 0.000000 0.000000
# 4 0.000000 0.000000 0.000000 0.028064 0.000000 0.000000
# 5 0.000000 0.000000 0.000000 0.000000 0.094423 0.000000
# 6 0.000000 0.000000 0.000000 0.000000 0.000000 0.034493
#
#
# Mechanical properties :
#
#
# Convention : Reuss Voigt Hill
#
# Bulk Modulus (GPa) = 57.07248 62.90142 59.98695
# Shear Modulus (GPa) = 20.26228 24.72548 22.49388
#
# Velocity S-wave (km/s) = 3.30744 3.65359 3.48482
# Velocity P-wave (km/s) = 6.73779 7.19427 6.96976
#
# Compressibility (1/GPa) = 0.01752158
#
# Stress axis : x y z
#
# Youngs Moduli (GPa) = 43.69406 81.16183 64.41071
#
# Poissons Ratio (x) = 0.38045 0.46004
# Poissons Ratio (y) = 0.20482 0.30762
# Poissons Ratio (z) = 0.31208 0.38762
#
# Static dielectric constant tensor:
#      x y z
#    x 3.390780 0.000000 0.000000 
#    y 0.000000 3.376460 0.000000 
#    z 0.000000 0.000000 3.321580 
# 
# 
# High freq. dielectric constant tensor:
#      x y z
#    x 1.707380 0.000000 0.000000 
#    y 0.000000 1.725080 0.000000 
#    z 0.000000 0.000000 1.715170 
# 
# From -- ./inp_files/63920.got.cif
#   From: 2010.03.12/outbox.cif.g09.slc.cpg/sg74_32_cif.got.tgz:63920.got - 2010.04.16 15:46:19.
