data_PCOD8300081
_publ_section_title
;
Structure prediction by ZEFSAII (Michael W. Deem and Ramdas Pophale) SiO2 
 PCOD8300081
Probable space group: I M M A
;
_chemical_formula_sum "Si O2"
_cell_formula_units_Z 96
_cell_length_a 29.858574
_cell_length_b 18.588919
_cell_length_c 9.532862
_cell_angle_alpha 90.000000
_cell_angle_beta 90.000000
_cell_angle_gamma 90.000000
_cell_volume 5291.106508
_symmetry_space_group_name_H-M "I M M A"
_symmetry_group_IT_number 74
_symmetry_cell_setting 'orthorhombic'
loop_
_space_group_symop_operation_xyz
x,y,z
-x,1/2-y,z
x,-y,-z
-x,1/2+y,-z
-x,-y,-z
x,1/2+y,-z
-x,y,z
x,1/2-y,z
1/2+x,1/2+y,1/2+z
1/2-x,-y,1/2+z
1/2+x,1/2-y,1/2-z
1/2-x,y,1/2-z
1/2-x,1/2-y,1/2-z
1/2+x,y,1/2-z
1/2-x,1/2+y,1/2+z
1/2+x,-y,1/2+z
loop_
_atom_site_type_symbol
_atom_site_label
_atom_site_fract_x
_atom_site_fract_y
_atom_site_fract_z
Si Si1 0.705985 0.833576 0.834295
Si Si2 0.879636 0.090142 0.643012
Si Si3 0.621617 0.923982 0.824795
Si Si4 0.051342 0.929233 0.916178
Si Si5 0.051302 0.831284 0.171956
Si Si6 0.790425 0.334052 0.656740
O O1 0.693030 0.750000 0.817413
O O2 0.750000 0.854202 0.750000
O O3 0.665395 0.880965 0.772026
O O4 0.717257 0.853415 0.994520
O O5 0.889951 0.105916 0.479608
O O6 0.923435 0.115030 0.724514
O O7 0.837535 0.133264 0.704844
O O8 0.867613 0.007794 0.669222
O O9 0.580178 0.911686 0.721168
O O10 0.000000 0.941829 0.868696
O O11 0.056131 0.859425 0.013665
O O12 0.068609 0.000000 0.000000
O O13 0.070304 0.750000 0.179427
O O14 0.000000 0.833293 0.220175
O O15 0.793378 0.250000 0.683996
O O16 0.750000 0.366906 0.750000
#
# Coordination Sequence:
#
# PCOD8300081 Si02
#       6
#    16  16  16  16  16  16
#     4   9  19  36  54  75 107 144 183 229 278 329
#     4  10  20  35  54  81 113 142 179 229 277 330
#     4  10  21  35  56  82 110 146 185 225 280 338
#     4  10  20  37  57  80 112 148 186 233 284 336
#     4  10  21  37  57  81 110 145 184 227 276 331
#     4   9  18  33  52  74 103 141 181 221 270 327
#
# _framework density 18.143653
#
# number of rings (size 3 to 8) (size 9 to 14) (size 15 to 20)
#    0.000    2.333    1.667    0.500    0.000    4.000 
#    0.000    3.333    0.000    2.000    0.000    0.000 
#    0.000    0.000    0.000    0.000    0.000    0.000 
#
# Total GULP energy -595240.404620 kJ/mol
# GULP energy per Si atom -12400.841763 kJ/mol
# Density = 1.810236 g / cm^3
# Si number density = 18.143653 Si / 1000 Ang^3
#
#
#
# Elastic Constant Matrix: (Units=GPa)
#
#
# Indices 1 2 3 4 5 6 
#
# 1 119.1931 43.8163 68.6114 0.0000 0.0000 0.0000
# 2 43.8163 69.8198 28.6747 0.0000 0.0000 0.0000
# 3 68.6114 28.6747 79.2516 0.0000 0.0000 0.0000
# 4 0.0000 0.0000 0.0000 24.0492 0.0000 0.0000
# 5 0.0000 0.0000 0.0000 0.0000 38.2941 0.0000
# 6 0.0000 0.0000 0.0000 0.0000 0.0000 33.5893
#
#
#
# Elastic Compliance Matrix: (Units=1/GPa)
#
#
# Indices 1 2 3 4 5 6 
#
# 1 0.018613 -0.005946 -0.013962 0.000000 0.000000 0.000000
# 2 -0.005946 0.018722 -0.001626 0.000000 0.000000 0.000000
# 3 -0.013962 -0.001626 0.025294 0.000000 0.000000 0.000000
# 4 0.000000 0.000000 0.000000 0.041581 0.000000 0.000000
# 5 0.000000 0.000000 0.000000 0.000000 0.026114 0.000000
# 6 0.000000 0.000000 0.000000 0.000000 0.000000 0.029771
#
#
# Mechanical properties :
#
#
# Convention : Reuss Voigt Hill
#
# Bulk Modulus (GPa) = 51.12578 61.16327 56.14453
# Shear Modulus (GPa) = 23.84526 27.66401 25.75463
#
# Velocity S-wave (km/s) = 3.62919 3.90900 3.77169
# Velocity P-wave (km/s) = 6.76763 7.35918 7.06959
#
# Compressibility (1/GPa) = 0.01955960
#
# Stress axis : x y z
#
# Youngs Moduli (GPa) = 53.72598 53.41279 39.53474
#
# Poissons Ratio (x) = 0.31762 0.55200
# Poissons Ratio (y) = 0.31948 0.06428
# Poissons Ratio (z) = 0.75015 0.08684
#
# Static dielectric constant tensor:
#      x y z
#    x 3.367470 0.000000 0.000000 
#    y 0.000000 3.405760 0.000000 
#    z 0.000000 0.000000 3.326680 
# 
# 
# High freq. dielectric constant tensor:
#      x y z
#    x 1.702640 0.000000 0.000000 
#    y 0.000000 1.706210 0.000000 
#    z 0.000000 0.000000 1.696870 
# 
# From -- ./inp_files/15146.got.cif
#   From: 2010.03.12/outbox.cif.g09.slc.cpg/sg74_8_cif.got.tgz:15146.got - 2010.04.16 15:46:19.
