data_PCOD8300636
_publ_section_title
;
Structure prediction by ZEFSAII (Michael W. Deem and Ramdas Pophale) SiO2 
 PCOD8300636
Probable space group: I M M A
;
_chemical_formula_sum "Si O2"
_cell_formula_units_Z 36
_cell_length_a 7.639248
_cell_length_b 11.704970
_cell_length_c 20.416891
_cell_angle_alpha 90.000000
_cell_angle_beta 90.000000
_cell_angle_gamma 90.000000
_cell_volume 1825.620586
_symmetry_space_group_name_H-M "I M M A"
_symmetry_group_IT_number 74
_symmetry_cell_setting 'orthorhombic'
loop_
_space_group_symop_operation_xyz
x,y,z
-x,1/2-y,z
x,-y,-z
-x,1/2+y,-z
-x,-y,-z
x,1/2+y,-z
-x,y,z
x,1/2-y,z
1/2+x,1/2+y,1/2+z
1/2-x,-y,1/2+z
1/2+x,1/2-y,1/2-z
1/2-x,y,1/2-z
1/2-x,1/2-y,1/2-z
1/2+x,y,1/2-z
1/2-x,1/2+y,1/2+z
1/2+x,-y,1/2+z
loop_
_atom_site_type_symbol
_atom_site_label
_atom_site_fract_x
_atom_site_fract_y
_atom_site_fract_z
Si Si1 0.194405 0.250000 0.355370
Si Si2 0.000000 0.250000 0.481021
Si Si3 0.696526 0.495921 0.322992
Si Si4 0.000000 0.623290 0.393678
O O1 0.172967 0.250000 0.434825
O O2 0.299214 0.359777 0.331203
O O3 0.000000 0.250000 0.322893
O O4 0.000000 0.362920 0.527174
O O5 0.500000 0.539302 0.337007
O O6 0.750000 0.531537 0.250000
O O7 0.827180 0.554636 0.373908
O O8 0.000000 0.750000 0.360720
#
# Coordination Sequence:
#
# PCOD8300636 Si02
#       4
#     8   4  16   8
#     4  10  20  40  69  88 129 165 206 266 321 377
#     4   8  22  44  68  86 132 182 210 244 332 360
#     4  12  23  40  64 100 128 165 213 266 330 375
#     4  10  23  45  64  90 130 179 215 256 306 388
#
# _framework density 19.719321999999998
#
# number of rings (size 3 to 8) (size 9 to 14) (size 15 to 20)
#    1.333    0.000    4.444    1.333    0.000    5.333 
#    0.000    6.667    0.000    0.000    0.000    0.000 
#    0.000    0.000    0.000    0.000    0.000    0.000 
#
# Total GULP energy -223143.973042 kJ/mol
# GULP energy per Si atom -12396.887391 kJ/mol
# Density = 1.967444 g / cm^3
# Si number density = 19.719322 Si / 1000 Ang^3
#
#
#
# Elastic Constant Matrix: (Units=GPa)
#
#
# Indices 1 2 3 4 5 6 
#
# 1 154.8556 16.0602 19.8820 0.0000 0.0000 0.0000
# 2 16.0602 68.3741 -15.9147 0.0000 0.0000 0.0000
# 3 19.8820 -15.9147 80.0188 0.0000 0.0000 0.0000
# 4 0.0000 0.0000 0.0000 38.6940 0.0000 0.0000
# 5 0.0000 0.0000 0.0000 0.0000 8.0774 0.0000
# 6 0.0000 0.0000 0.0000 0.0000 0.0000 21.5838
#
#
#
# Elastic Compliance Matrix: (Units=1/GPa)
#
#
# Indices 1 2 3 4 5 6 
#
# 1 0.006955 -0.002135 -0.002153 0.000000 0.000000 0.000000
# 2 -0.002135 0.015991 0.003711 0.000000 0.000000 0.000000
# 3 -0.002153 0.003711 0.013770 0.000000 0.000000 0.000000
# 4 0.000000 0.000000 0.000000 0.025844 0.000000 0.000000
# 5 0.000000 0.000000 0.000000 0.000000 0.123802 0.000000
# 6 0.000000 0.000000 0.000000 0.000000 0.000000 0.046331
#
#
# Mechanical properties :
#
#
# Convention : Reuss Voigt Hill
#
# Bulk Modulus (GPa) = 28.11970 38.14483 33.13227
# Shear Modulus (GPa) = 20.34997 32.55245 26.45121
#
# Velocity S-wave (km/s) = 3.21593 4.06740 3.66647
# Velocity P-wave (km/s) = 5.29911 6.43772 5.89596
#
# Compressibility (1/GPa) = 0.03556226
#
# Stress axis : x y z
#
# Youngs Moduli (GPa) = 143.77258 62.53690 72.62176
#
# Poissons Ratio (x) = 0.13350 0.15634
# Poissons Ratio (y) = 0.30693 -0.26948
# Poissons Ratio (z) = 0.30951 -0.23206
#
# Static dielectric constant tensor:
#      x y z
#    x 3.461110 0.000000 0.000000 
#    y 0.000000 3.500850 0.000000 
#    z 0.000000 0.000000 3.473750 
# 
# 
# High freq. dielectric constant tensor:
#      x y z
#    x 1.764060 0.000000 0.000000 
#    y 0.000000 1.765390 0.000000 
#    z 0.000000 0.000000 1.762530 
# 
# From -- ./inp_files/40299.got.cif
#   From: 2010.03.12/outbox.cif.g09.slc.cpg/sg74_21_cif.got.tgz:40299.got - 2010.04.16 15:46:19.
