data_PCOD8300973
_publ_section_title
;
Structure prediction by ZEFSAII (Michael W. Deem and Ramdas Pophale) SiO2 
 PCOD8300973
Probable space group: I M M A
;
_chemical_formula_sum "Si O2"
_cell_formula_units_Z 72
_cell_length_a 10.093109
_cell_length_b 13.967419
_cell_length_c 27.541539
_cell_angle_alpha 90.000000
_cell_angle_beta 90.000000
_cell_angle_gamma 90.000000
_cell_volume 3882.659714
_symmetry_space_group_name_H-M "I M M A"
_symmetry_group_IT_number 74
_symmetry_cell_setting 'orthorhombic'
loop_
_space_group_symop_operation_xyz
x,y,z
-x,1/2-y,z
x,-y,-z
-x,1/2+y,-z
-x,-y,-z
x,1/2+y,-z
-x,y,z
x,1/2-y,z
1/2+x,1/2+y,1/2+z
1/2-x,-y,1/2+z
1/2+x,1/2-y,1/2-z
1/2-x,y,1/2-z
1/2-x,1/2-y,1/2-z
1/2+x,y,1/2-z
1/2-x,1/2+y,1/2+z
1/2+x,-y,1/2+z
loop_
_atom_site_type_symbol
_atom_site_label
_atom_site_fract_x
_atom_site_fract_y
_atom_site_fract_z
Si Si1 0.000000 0.359129 0.189179
Si Si2 0.500000 0.750000 0.979454
Si Si3 0.848988 0.970265 0.207833
Si Si4 0.753309 0.049483 0.899202
Si Si5 0.500000 0.541930 0.945079
Si Si6 0.000000 0.572555 0.919187
Si Si7 0.241878 0.250000 0.551502
Si Si8 0.000000 0.250000 0.010530
O O1 0.869132 0.413824 0.209772
O O2 0.000000 0.370840 0.131331
O O3 0.000000 0.250000 0.206008
O O4 0.627444 0.750000 0.012562
O O5 0.500000 0.656759 0.945621
O O6 0.750000 0.934995 0.250000
O O7 0.776932 0.943114 0.158156
O O8 0.000000 0.924412 0.210967
O O9 0.732211 0.157527 0.915271
O O10 0.625081 0.989643 0.913710
O O11 0.874731 0.996878 0.925653
O O12 0.500000 0.500000 0.000000
O O13 0.000000 0.652823 0.959524
O O14 0.376689 0.250000 0.523666
#
# Coordination Sequence:
#
# PCOD8300973 Si02
#       8
#     8   4  16  16   8   8   8   4
#     4   8  16  34  57  83 120 152 189 244 297 362
#     4  12  24  44  56  96 120 176 208 258 296 374
#     4   9  21  40  63  87 121 156 202 256 316 370
#     4  11  23  42  62  87 125 165 201 262 313 361
#     4  12  24  41  63  87 131 166 210 252 300 374
#     4  10  21  38  55  89 122 163 198 246 304 358
#     4  12  24  38  61  88 121 158 218 253 308 358
#     4  12  24  30  64  88 118 164 204 244 296 376
#
# _framework density 18.543987999999999
#
# number of rings (size 3 to 8) (size 9 to 14) (size 15 to 20)
#    0.667    0.889    3.889    2.000    1.556    1.333 
#    2.000    0.556    2.444    0.000    0.000    0.000 
#    0.000    0.000    0.000    0.000    0.000    0.000 
#
# Total GULP energy -446133.544975 kJ/mol
# GULP energy per Si atom -12392.598472 kJ/mol
# Density = 1.850178 g / cm^3
# Si number density = 18.543988 Si / 1000 Ang^3
#
#
#
# Elastic Constant Matrix: (Units=GPa)
#
#
# Indices 1 2 3 4 5 6 
#
# 1 163.0511 48.6054 66.2436 0.0000 0.0000 0.0000
# 2 48.6054 135.5716 41.7943 0.0000 0.0000 0.0000
# 3 66.2436 41.7943 101.5541 0.0000 0.0000 0.0000
# 4 0.0000 0.0000 0.0000 36.8938 0.0000 0.0000
# 5 0.0000 0.0000 0.0000 0.0000 43.5610 0.0000
# 6 0.0000 0.0000 0.0000 0.0000 0.0000 26.1979
#
#
#
# Elastic Compliance Matrix: (Units=1/GPa)
#
#
# Indices 1 2 3 4 5 6 
#
# 1 0.008621 -0.001554 -0.004984 0.000000 0.000000 0.000000
# 2 -0.001554 0.008728 -0.002578 0.000000 0.000000 0.000000
# 3 -0.004984 -0.002578 0.014159 0.000000 0.000000 0.000000
# 4 0.000000 0.000000 0.000000 0.027105 0.000000 0.000000
# 5 0.000000 0.000000 0.000000 0.000000 0.022956 0.000000
# 6 0.000000 0.000000 0.000000 0.000000 0.000000 0.038171
#
#
# Mechanical properties :
#
#
# Convention : Reuss Voigt Hill
#
# Bulk Modulus (GPa) = 75.32648 79.27370 77.30009
# Shear Modulus (GPa) = 35.11264 37.56611 36.33938
#
# Velocity S-wave (km/s) = 4.35613 4.50575 4.43157
# Velocity P-wave (km/s) = 8.12464 8.36127 8.24381
#
# Compressibility (1/GPa) = 0.01327554
#
# Stress axis : x y z
#
# Youngs Moduli (GPa) = 115.99215 114.57019 70.62649
#
# Poissons Ratio (x) = 0.17810 0.35200
# Poissons Ratio (y) = 0.18031 0.18208
# Poissons Ratio (z) = 0.57810 0.29538
#
# Static dielectric constant tensor:
#      x y z
#    x 3.460680 0.000000 0.000000 
#    y 0.000000 3.500470 0.000000 
#    z 0.000000 0.000000 3.271380 
# 
# 
# High freq. dielectric constant tensor:
#      x y z
#    x 1.731840 0.000000 0.000000 
#    y 0.000000 1.716270 0.000000 
#    z 0.000000 0.000000 1.711910 
# 
# From -- ./inp_files/63765.got.cif
#   From: 2010.03.12/outbox.cif.g09.slc.cpg/sg74_32_cif.got.tgz:63765.got - 2010.04.16 15:46:19.
