data_PCOD8300876
_publ_section_title
;
Structure prediction by ZEFSAII (Michael W. Deem and Ramdas Pophale) SiO2 
 PCOD8300876
Probable space group: I M M A
;
_chemical_formula_sum "Si O2"
_cell_formula_units_Z 104
_cell_length_a 22.443009
_cell_length_b 8.618342
_cell_length_c 28.524731
_cell_angle_alpha 90.000000
_cell_angle_beta 90.000000
_cell_angle_gamma 90.000000
_cell_volume 5517.297029
_symmetry_space_group_name_H-M "I M M A"
_symmetry_group_IT_number 74
_symmetry_cell_setting 'orthorhombic'
loop_
_space_group_symop_operation_xyz
x,y,z
-x,1/2-y,z
x,-y,-z
-x,1/2+y,-z
-x,-y,-z
x,1/2+y,-z
-x,y,z
x,1/2-y,z
1/2+x,1/2+y,1/2+z
1/2-x,-y,1/2+z
1/2+x,1/2-y,1/2-z
1/2-x,y,1/2-z
1/2-x,1/2-y,1/2-z
1/2+x,y,1/2-z
1/2-x,1/2+y,1/2+z
1/2+x,-y,1/2+z
loop_
_atom_site_type_symbol
_atom_site_label
_atom_site_fract_x
_atom_site_fract_y
_atom_site_fract_z
Si Si1 0.500000 0.934214 0.553010
Si Si2 0.186846 0.068161 0.704502
Si Si3 0.160167 0.071335 0.386629
Si Si4 0.881743 0.434570 0.900647
Si Si5 0.566978 0.924308 0.050153
Si Si6 0.730511 0.434752 0.450120
Si Si7 0.679894 0.433660 0.693510
O O1 0.500000 0.750000 0.548995
O O2 0.500000 0.000000 0.500000
O O3 0.443053 0.988559 0.582894
O O4 0.193757 0.250000 0.708147
O O5 0.252553 0.999870 0.692101
O O6 0.158047 0.013169 0.754308
O O7 0.145778 0.017611 0.661706
O O8 0.165983 0.250000 0.374943
O O9 0.219917 0.012281 0.412530
O O10 0.103152 0.039571 0.417549
O O11 0.889664 0.250000 0.901201
O O12 0.831523 0.484265 0.937506
O O13 0.861869 0.498479 0.848701
O O14 0.500000 0.918394 0.069309
O O15 0.594132 0.750000 0.049116
O O16 0.569420 0.000000 0.000000
O O17 0.751936 0.500000 0.500000
O O18 0.723274 0.250000 0.452114
O O19 0.679850 0.250000 0.687487
#
# Coordination Sequence:
#
# PCOD8300876 Si02
#       7
#     8  16  16  16  16  16  16
#     4  12  26  44  62  84 114 152 194 242 291 350
#     4   9  16  32  56  84 114 146 183 223 270 326
#     4  11  22  34  52  82 115 148 184 225 276 329
#     4  11  21  38  62  86 111 146 189 235 285 338
#     4  10  21  37  57  79 105 142 186 228 273 326
#     4  11  23  36  51  78 114 148 183 224 276 332
#     4   8  16  31  57  86 111 142 182 224 271 330
#
# _framework density 18.849810999999999
#
# number of rings (size 3 to 8) (size 9 to 14) (size 15 to 20)
#    0.000    1.846    1.538    4.385    0.000    4.000 
#    0.000    3.077    1.692    0.000    0.000    0.000 
#    0.000    0.000    0.000    0.000    0.000    0.000 
#
# Total GULP energy -644500.559874 kJ/mol
# GULP energy per Si atom -12394.241536 kJ/mol
# Density = 1.880691 g / cm^3
# Si number density = 18.849811 Si / 1000 Ang^3
#
#
#
# Elastic Constant Matrix: (Units=GPa)
#
#
# Indices 1 2 3 4 5 6 
#
# 1 71.0734 24.6360 55.5830 0.0000 0.0000 0.0000
# 2 24.6360 57.4307 29.4678 0.0000 0.0000 0.0000
# 3 55.5830 29.4678 127.1602 0.0000 0.0000 0.0000
# 4 0.0000 0.0000 0.0000 -5.0523 0.0000 0.0000
# 5 0.0000 0.0000 0.0000 0.0000 -697.4659 0.0000
# 6 0.0000 0.0000 0.0000 0.0000 0.0000 27.3992
#
#
#
# Elastic Compliance Matrix: (Units=1/GPa)
#
#
# Indices 1 2 3 4 5 6 
#
# 1 0.022703 -0.005274 -0.008702 0.000000 0.000000 0.000000
# 2 -0.005274 0.020987 -0.002558 0.000000 0.000000 0.000000
# 3 -0.008702 -0.002558 0.012260 0.000000 0.000000 0.000000
# 4 0.000000 0.000000 0.000000 -0.197930 0.000000 0.000000
# 5 0.000000 0.000000 0.000000 0.000000 -0.001434 0.000000
# 6 0.000000 0.000000 0.000000 0.000000 0.000000 0.036497
#
#
# Mechanical properties :
#
#
# Convention : Reuss Voigt Hill
#
# Bulk Modulus (GPa) = 43.70023 52.78200 48.24112
# Shear Modulus (GPa) = -75.50636 -125.29196 -100.39916
#
# Velocity S-wave (km/s) = -6.33591 -8.16167 -7.30605
# Velocity P-wave (km/s) = 5.50376 7.79455 6.74709
#
# Compressibility (1/GPa) = 0.02288317
#
# Stress axis : x y z
#
# Youngs Moduli (GPa) = 44.04662 47.64776 81.56297
#
# Poissons Ratio (x) = 0.25130 0.70973
# Poissons Ratio (y) = 0.23231 0.20865
# Poissons Ratio (z) = 0.38327 0.12189
#
# Static dielectric constant tensor:
#      x y z
#    x 3.377600 0.000000 0.000000 
#    y 0.000000 3.364300 0.000000 
#    z 0.000000 0.000000 3.729850 
# 
# 
# High freq. dielectric constant tensor:
#      x y z
#    x 1.708930 0.000000 0.000000 
#    y 0.000000 1.724810 0.000000 
#    z 0.000000 0.000000 1.747700 
# 
# From -- ./inp_files/68265.got.cif
#   From: 2010.03.12/outbox.cif.g09.slc.cpg/sg74_35_cif.got.tgz:68265.got - 2010.04.16 15:46:19.
