data_PCOD8300905
_publ_section_title
;
Structure prediction by ZEFSAII (Michael W. Deem and Ramdas Pophale) SiO2 
 PCOD8300905
Probable space group: I M M A
;
_chemical_formula_sum "Si O2"
_cell_formula_units_Z 80
_cell_length_a 18.107503
_cell_length_b 28.847590
_cell_length_c 7.529931
_cell_angle_alpha 90.000000
_cell_angle_beta 90.000000
_cell_angle_gamma 90.000000
_cell_volume 3933.318360
_symmetry_space_group_name_H-M "I M M A"
_symmetry_group_IT_number 74
_symmetry_cell_setting 'orthorhombic'
loop_
_space_group_symop_operation_xyz
x,y,z
-x,1/2-y,z
x,-y,-z
-x,1/2+y,-z
-x,-y,-z
x,1/2+y,-z
-x,y,z
x,1/2-y,z
1/2+x,1/2+y,1/2+z
1/2-x,-y,1/2+z
1/2+x,1/2-y,1/2-z
1/2-x,y,1/2-z
1/2-x,1/2-y,1/2-z
1/2+x,y,1/2-z
1/2-x,1/2+y,1/2+z
1/2+x,-y,1/2+z
loop_
_atom_site_type_symbol
_atom_site_label
_atom_site_fract_x
_atom_site_fract_y
_atom_site_fract_z
Si Si1 0.152362 0.356472 0.422858
Si Si2 0.414518 0.546284 0.892992
Si Si3 0.309766 0.544933 0.601144
Si Si4 0.319612 0.143499 0.481593
Si Si5 0.915230 0.303683 0.728984
O O1 0.132249 0.410099 0.468491
O O2 0.234162 0.341875 0.485092
O O3 0.143450 0.347730 0.211793
O O4 0.097196 0.323443 0.531130
O O5 0.500000 0.559767 0.894411
O O6 0.388271 0.534324 0.693424
O O7 0.397126 0.500000 0.000000
O O8 0.279760 0.500000 0.500000
O O9 0.250000 0.560439 0.750000
O O10 0.321683 0.588572 0.471219
O O11 0.363949 0.170863 0.629105
O O12 0.894162 0.250000 0.729915
O O13 0.000000 0.311654 0.782916
#
# Coordination Sequence:
#
# PCOD8300905 Si02
#       5
#    16  16  16  16  16
#     4  10  21  42  65  91 127 167 210 266 325 379
#     4  10  21  37  57  88 126 165 209 254 309 373
#     4  11  22  37  60  90 127 169 212 258 311 378
#     4  10  22  41  65  96 126 165 215 266 321 381
#     4  11  26  44  65  95 127 167 215 265 331 395
#
# _framework density 20.33906
#
# number of rings (size 3 to 8) (size 9 to 14) (size 15 to 20)
#    0.000    1.600    4.000    1.800    2.800    6.800 
#    0.000    4.000    0.000    0.000    0.000    0.000 
#    0.000    0.000    0.000    0.000    0.000    0.000 
#
# Total GULP energy -495926.813440 kJ/mol
# GULP energy per Si atom -12398.170336 kJ/mol
# Density = 2.029277 g / cm^3
# Si number density = 20.339060 Si / 1000 Ang^3
#
#
#
# Elastic Constant Matrix: (Units=GPa)
#
#
# Indices 1 2 3 4 5 6 
#
# 1 88.1220 50.0287 36.3118 -0.0005 0.0003 -0.0001
# 2 50.0287 127.4188 49.9190 0.0002 -0.0006 -0.0001
# 3 36.3118 49.9190 71.8505 -0.0028 0.0006 -0.0014
# 4 -0.0005 0.0002 -0.0028 34.3904 -0.0002 0.0000
# 5 0.0003 -0.0006 0.0006 -0.0002 33.1399 0.0000
# 6 -0.0001 -0.0001 -0.0014 0.0000 0.0000 32.6045
#
#
#
# Elastic Compliance Matrix: (Units=1/GPa)
#
#
# Indices 1 2 3 4 5 6 
#
# 1 0.015838 -0.004236 -0.005062 0.000000 0.000000 0.000000
# 2 -0.004236 0.011916 -0.006138 -0.000001 0.000000 0.000000
# 3 -0.005062 -0.006138 0.020740 0.000002 0.000000 0.000001
# 4 0.000000 -0.000001 0.000002 0.029078 0.000000 0.000000
# 5 0.000000 0.000000 0.000000 0.000000 0.030175 0.000000
# 6 0.000000 0.000000 0.000001 0.000000 0.000000 0.030671
#
#
# Mechanical properties :
#
#
# Convention : Reuss Voigt Hill
#
# Bulk Modulus (GPa) = 56.74129 62.21225 59.47677
# Shear Modulus (GPa) = 28.54480 30.10243 29.32362
#
# Velocity S-wave (km/s) = 3.75033 3.85129 3.80114
# Velocity P-wave (km/s) = 6.83458 7.10145 6.96929
#
# Compressibility (1/GPa) = 0.01762385
#
# Stress axis : x y z
#
# Youngs Moduli (GPa) = 63.13830 83.92138 48.21525
#
# Poissons Ratio (x) = 0.35546 0.24404
# Poissons Ratio (y) = 0.26743 0.29595
# Poissons Ratio (z) = 0.31958 0.51512
#
# Static dielectric constant tensor:
#      x y z
#    x 3.823350 0.000000 0.000000 
#    y 0.000000 3.641970 0.000000 
#    z 0.000000 0.000000 3.645490 
# 
# 
# High freq. dielectric constant tensor:
#      x y z
#    x 1.803120 0.000000 0.000000 
#    y 0.000000 1.794930 0.000000 
#    z 0.000000 0.000000 1.782380 
# 
# From -- ./inp_files/11166.got.cif
#   From: 2010.03.12/outbox.cif.g09.slc.cpg/sg74_6_cif.got.tgz:11166.got - 2010.04.16 15:46:19.
