data_PCOD8300938
_publ_section_title
;
Structure prediction by ZEFSAII (Michael W. Deem and Ramdas Pophale) SiO2 
 PCOD8300938
Probable space group: I M M A
;
_chemical_formula_sum "Si O2"
_cell_formula_units_Z 96
_cell_length_a 22.523302
_cell_length_b 13.572055
_cell_length_c 15.781058
_cell_angle_alpha 90.000000
_cell_angle_beta 90.000000
_cell_angle_gamma 90.000000
_cell_volume 4824.072065
_symmetry_space_group_name_H-M "I M M A"
_symmetry_group_IT_number 74
_symmetry_cell_setting 'orthorhombic'
loop_
_space_group_symop_operation_xyz
x,y,z
-x,1/2-y,z
x,-y,-z
-x,1/2+y,-z
-x,-y,-z
x,1/2+y,-z
-x,y,z
x,1/2-y,z
1/2+x,1/2+y,1/2+z
1/2-x,-y,1/2+z
1/2+x,1/2-y,1/2-z
1/2-x,y,1/2-z
1/2-x,1/2-y,1/2-z
1/2+x,y,1/2-z
1/2-x,1/2+y,1/2+z
1/2+x,-y,1/2+z
loop_
_atom_site_type_symbol
_atom_site_label
_atom_site_fract_x
_atom_site_fract_y
_atom_site_fract_z
Si Si1 0.000000 0.632067 0.831166
Si Si2 0.311921 0.961203 0.788979
Si Si3 0.670335 0.362236 0.536165
Si Si4 0.000000 0.132810 0.365170
Si Si5 0.120669 0.045454 0.121943
Si Si6 0.376572 0.633709 0.937975
Si Si7 0.196945 0.636147 0.403701
O O1 0.000000 0.598617 0.732712
O O2 0.945738 0.585343 0.882810
O O3 0.000000 0.750000 0.838980
O O4 0.250000 0.926295 0.750000
O O5 0.361856 0.945405 0.719358
O O6 0.327059 0.894754 0.869437
O O7 0.309555 0.075706 0.816959
O O8 0.653090 0.250000 0.556524
O O9 0.626830 0.432215 0.591038
O O10 0.662059 0.385729 0.436833
O O11 0.738600 0.384275 0.557084
O O12 0.058448 0.090518 0.413524
O O13 0.000000 0.250000 0.368677
O O14 0.379608 0.750000 0.939475
O O15 0.353721 0.597828 0.030368
O O16 0.187958 0.750000 0.380677
#
# Coordination Sequence:
#
# PCOD8300938 Si02
#       7
#     8  16  16   8  16  16  16
#     4  11  22  41  63  89 128 161 196 250 302 356
#     4  12  22  35  60  88 120 154 197 252 304 358
#     4  10  22  41  62  88 124 160 198 250 309 365
#     4   9  18  36  59  84 117 158 197 241 298 353
#     4  11  23  38  62  92 117 156 208 246 297 360
#     4  10  21  37  59  87 120 158 200 247 300 360
#     4  10  22  39  59  86 123 163 199 243 303 362
#
# _framework density 19.900200999999999
#
# number of rings (size 3 to 8) (size 9 to 14) (size 15 to 20)
#    0.000    1.500    3.333    2.000    2.333    3.333 
#    0.000    3.750    0.000    0.000    0.000    0.000 
#    0.000    0.000    0.000    0.000    0.000    0.000 
#
# Total GULP energy -595227.220055 kJ/mol
# GULP energy per Si atom -12400.567084 kJ/mol
# Density = 1.985491 g / cm^3
# Si number density = 19.900201 Si / 1000 Ang^3
#
#
#
# Elastic Constant Matrix: (Units=GPa)
#
#
# Indices 1 2 3 4 5 6 
#
# 1 104.4068 28.0827 16.4230 0.0000 0.0000 0.0000
# 2 28.0827 50.8516 -0.1789 0.0000 0.0000 0.0000
# 3 16.4230 -0.1789 49.0876 0.0000 0.0000 0.0000
# 4 0.0000 0.0000 0.0000 30.5947 0.0000 0.0000
# 5 0.0000 0.0000 0.0000 0.0000 21.1595 0.0000
# 6 0.0000 0.0000 0.0000 0.0000 0.0000 28.4430
#
#
#
# Elastic Compliance Matrix: (Units=1/GPa)
#
#
# Indices 1 2 3 4 5 6 
#
# 1 0.011999 -0.006641 -0.004039 0.000000 0.000000 0.000000
# 2 -0.006641 0.023341 0.002307 0.000000 0.000000 0.000000
# 3 -0.004039 0.002307 0.021731 0.000000 0.000000 0.000000
# 4 0.000000 0.000000 0.000000 0.032685 0.000000 0.000000
# 5 0.000000 0.000000 0.000000 0.000000 0.047260 0.000000
# 6 0.000000 0.000000 0.000000 0.000000 0.000000 0.035158
#
#
# Mechanical properties :
#
#
# Convention : Reuss Voigt Hill
#
# Bulk Modulus (GPa) = 24.79801 32.55552 28.67677
# Shear Modulus (GPa) = 24.70813 26.70739 25.70776
#
# Velocity S-wave (km/s) = 3.52746 3.66740 3.59811
# Velocity P-wave (km/s) = 5.39248 5.85901 5.63058
#
# Compressibility (1/GPa) = 0.04032581
#
# Stress axis : x y z
#
# Youngs Moduli (GPa) = 83.33714 42.84375 46.01638
#
# Poissons Ratio (x) = 0.28452 0.18585
# Poissons Ratio (y) = 0.55343 -0.10615
# Poissons Ratio (z) = 0.33658 -0.09884
#
# Static dielectric constant tensor:
#      x y z
#    x 3.770360 0.000000 0.000000 
#    y 0.000000 3.594520 0.000000 
#    z 0.000000 0.000000 3.657780 
# 
# 
# High freq. dielectric constant tensor:
#      x y z
#    x 1.774680 0.000000 0.000000 
#    y 0.000000 1.772170 0.000000 
#    z 0.000000 0.000000 1.778270 
# 
# From -- ./inp_files/35308.got.cif
#   From: 2010.03.12/outbox.cif.g09.slc.cpg/sg74_18_cif.got.tgz:35308.got - 2010.04.16 15:46:19.
