data_PCOD8300498
_publ_section_title
;
Structure prediction by ZEFSAII (Michael W. Deem and Ramdas Pophale) SiO2 
 PCOD8300498
Probable space group: I M M A
;
_chemical_formula_sum "Si O2"
_cell_formula_units_Z 96
_cell_length_a 22.670207
_cell_length_b 14.184989
_cell_length_c 14.460781
_cell_angle_alpha 90.000000
_cell_angle_beta 90.000000
_cell_angle_gamma 90.000000
_cell_volume 4650.249321
_symmetry_space_group_name_H-M "I M M A"
_symmetry_group_IT_number 74
_symmetry_cell_setting 'orthorhombic'
loop_
_space_group_symop_operation_xyz
x,y,z
-x,1/2-y,z
x,-y,-z
-x,1/2+y,-z
-x,-y,-z
x,1/2+y,-z
-x,y,z
x,1/2-y,z
1/2+x,1/2+y,1/2+z
1/2-x,-y,1/2+z
1/2+x,1/2-y,1/2-z
1/2-x,y,1/2-z
1/2-x,1/2-y,1/2-z
1/2+x,y,1/2-z
1/2-x,1/2+y,1/2+z
1/2+x,-y,1/2+z
loop_
_atom_site_type_symbol
_atom_site_label
_atom_site_fract_x
_atom_site_fract_y
_atom_site_fract_z
Si Si1 0.500000 0.863015 0.175107
Si Si2 0.000000 0.859802 0.528479
Si Si3 0.822224 0.019741 0.899938
Si Si4 0.370311 0.408497 0.062899
Si Si5 0.291797 0.853957 0.092196
Si Si6 0.120213 0.859857 0.244968
Si Si7 0.818464 0.855701 0.755760
O O1 0.500000 0.750000 0.171143
O O2 0.500000 0.908116 0.072577
O O3 0.442366 0.903667 0.225058
O O4 0.060557 0.886875 0.579616
O O5 0.000000 0.750000 0.513645
O O6 0.756765 0.063686 0.914206
O O7 0.862647 0.097640 0.852816
O O8 0.827546 0.922009 0.844378
O O9 0.849340 0.000000 0.000000
O O10 0.343043 0.410092 0.165450
O O11 0.360921 0.500000 0.000000
O O12 0.332128 0.336737 0.999688
O O13 0.263405 0.750000 0.112001
O O14 0.331782 0.885970 0.178200
O O15 0.113148 0.750000 0.231943
O O16 0.847471 0.750000 0.766545
O O17 0.750000 0.839440 0.750000
#
# Coordination Sequence:
#
# PCOD8300498 Si02
#       7
#     8   8  16  16  16  16  16
#     4   9  18  35  62  93 123 151 185 242 317 385
#     4  11  21  37  61  95 131 163 198 244 311 385
#     4  12  25  40  58  84 117 160 216 265 302 357
#     4  12  23  38  62  95 133 169 205 245 306 390
#     4  11  21  36  62  94 126 156 192 250 318 382
#     4  10  20  37  62  92 122 152 193 252 316 373
#     4  11  24  41  59  83 122 171 213 254 309 370
#
# _framework density 20.644055000000002
#
# number of rings (size 3 to 8) (size 9 to 14) (size 15 to 20)
#    0.000    1.000    1.667    7.250    0.000    4.000 
#    0.000    0.417    0.000    0.000    0.000    1.167 
#    0.000    0.000    0.000    0.000    0.000    0.000 
#
# Total GULP energy -594848.718847 kJ/mol
# GULP energy per Si atom -12392.681643 kJ/mol
# Density = 2.059707 g / cm^3
# Si number density = 20.644055 Si / 1000 Ang^3
#
#
#
# Elastic Constant Matrix: (Units=GPa)
#
#
# Indices 1 2 3 4 5 6 
#
# 1 93.3654 20.9789 45.6847 0.0000 0.0000 0.0000
# 2 20.9789 77.8162 40.7211 0.0000 0.0000 0.0000
# 3 45.6847 40.7211 159.2653 0.0000 0.0000 0.0000
# 4 0.0000 0.0000 0.0000 29.3763 0.0000 0.0000
# 5 0.0000 0.0000 0.0000 0.0000 20.5338 0.0000
# 6 0.0000 0.0000 0.0000 0.0000 0.0000 26.1263
#
#
#
# Elastic Compliance Matrix: (Units=1/GPa)
#
#
# Indices 1 2 3 4 5 6 
#
# 1 0.012662 -0.001747 -0.003185 0.000000 0.000000 0.000000
# 2 -0.001747 0.015077 -0.003354 0.000000 0.000000 0.000000
# 3 -0.003185 -0.003354 0.008050 0.000000 0.000000 0.000000
# 4 0.000000 0.000000 0.000000 0.034041 0.000000 0.000000
# 5 0.000000 0.000000 0.000000 0.000000 0.048700 0.000000
# 6 0.000000 0.000000 0.000000 0.000000 0.000000 0.038276
#
#
# Mechanical properties :
#
#
# Convention : Reuss Voigt Hill
#
# Bulk Modulus (GPa) = 52.03775 60.57960 56.30867
# Shear Modulus (GPa) = 27.81138 30.07811 28.94475
#
# Velocity S-wave (km/s) = 3.67439 3.82119 3.74851
# Velocity P-wave (km/s) = 6.57749 6.99122 6.78751
#
# Compressibility (1/GPa) = 0.01921682
#
# Stress axis : x y z
#
# Youngs Moduli (GPa) = 78.97827 66.32745 124.22280
#
# Poissons Ratio (x) = 0.11585 0.39570
# Poissons Ratio (y) = 0.13795 0.41662
# Poissons Ratio (z) = 0.25158 0.22245
#
# Static dielectric constant tensor:
#      x y z
#    x 3.675620 0.000000 0.000000 
#    y 0.000000 4.007920 0.000000 
#    z 0.000000 0.000000 3.824290 
# 
# 
# High freq. dielectric constant tensor:
#      x y z
#    x 1.789980 0.000000 0.000000 
#    y 0.000000 1.826040 0.000000 
#    z 0.000000 0.000000 1.792840 
# 
# From -- ./inp_files/35313.got.cif
#   From: 2010.03.12/outbox.cif.g09.slc.cpg/sg74_18_cif.got.tgz:35313.got - 2010.04.16 15:46:19.
