data_PCOD8300934
_publ_section_title
;
Structure prediction by ZEFSAII (Michael W. Deem and Ramdas Pophale) SiO2 
 PCOD8300934
Probable space group: I M M A
;
_chemical_formula_sum "Si O2"
_cell_formula_units_Z 112
_cell_length_a 28.500587
_cell_length_b 14.533147
_cell_length_c 12.462798
_cell_angle_alpha 90.000000
_cell_angle_beta 90.000000
_cell_angle_gamma 90.000000
_cell_volume 5162.131068
_symmetry_space_group_name_H-M "I M M A"
_symmetry_group_IT_number 74
_symmetry_cell_setting 'orthorhombic'
loop_
_space_group_symop_operation_xyz
x,y,z
-x,1/2-y,z
x,-y,-z
-x,1/2+y,-z
-x,-y,-z
x,1/2+y,-z
-x,y,z
x,1/2-y,z
1/2+x,1/2+y,1/2+z
1/2-x,-y,1/2+z
1/2+x,1/2-y,1/2-z
1/2-x,y,1/2-z
1/2-x,1/2-y,1/2-z
1/2+x,y,1/2-z
1/2-x,1/2+y,1/2+z
1/2+x,-y,1/2+z
loop_
_atom_site_type_symbol
_atom_site_label
_atom_site_fract_x
_atom_site_fract_y
_atom_site_fract_z
Si Si1 0.356214 0.352684 0.337557
Si Si2 0.196605 0.516189 0.236780
Si Si3 0.703882 0.849929 0.453555
Si Si4 0.306824 0.899586 0.045972
Si Si5 0.946889 0.552247 0.889292
Si Si6 0.553941 0.993420 0.156321
Si Si7 0.406726 0.145813 0.009000
O O1 0.352027 0.250000 0.288436
O O2 0.339348 0.429899 0.252253
O O3 0.321004 0.368488 0.434884
O O4 0.409741 0.365462 0.377444
O O5 0.250000 0.480797 0.250000
O O6 0.189348 0.567991 0.124565
O O7 0.183688 0.590569 0.326927
O O8 0.688352 0.750000 0.407522
O O9 0.759528 0.843662 0.474937
O O10 0.350306 0.848416 0.990776
O O11 0.299496 0.000000 0.000000
O O12 0.940126 0.485601 0.785341
O O13 0.000000 0.592180 0.890172
O O14 0.936421 0.500000 0.000000
O O15 0.500000 0.994989 0.122462
O O16 0.577195 0.905166 0.100075
O O17 0.576480 0.089076 0.113371
O O18 0.426872 0.250000 0.013774
#
# Coordination Sequence:
#
# PCOD8300934 Si02
#       7
#    16  16  16  16  16  16  16
#     4  11  23  39  60  89 123 159 202 249 304 371
#     4  10  21  37  60  83 118 164 205 253 303 357
#     4  10  21  37  59  87 117 155 203 254 307 365
#     4  11  21  37  56  82 123 160 205 248 297 359
#     4  10  22  43  69  91 118 162 210 264 327 380
#     4  10  22  42  64  91 124 159 208 261 312 379
#     4  11  22  37  61  92 127 167 205 249 309 375
#
# _framework density 21.696463999999999
#
# number of rings (size 3 to 8) (size 9 to 14) (size 15 to 20)
#    0.000    1.571    1.429    5.143    0.000    5.429 
#    0.000    4.286    0.000    2.571    0.000    0.000 
#    0.000    0.000    0.000    0.000    0.000    0.000 
#
# Total GULP energy -694295.713113 kJ/mol
# GULP energy per Si atom -12398.137734 kJ/mol
# Density = 2.164708 g / cm^3
# Si number density = 21.696464 Si / 1000 Ang^3
#
#
#
# Elastic Constant Matrix: (Units=GPa)
#
#
# Indices 1 2 3 4 5 6 
#
# 1 103.7179 25.1286 22.0934 0.0000 0.0000 0.0000
# 2 25.1286 120.5442 13.8968 0.0000 0.0000 0.0000
# 3 22.0934 13.8968 85.5967 0.0000 0.0000 0.0000
# 4 0.0000 0.0000 0.0000 -2.4758 0.0000 0.0000
# 5 0.0000 0.0000 0.0000 0.0000 22.2139 0.0000
# 6 0.0000 0.0000 0.0000 0.0000 0.0000 6.3843
#
#
#
# Elastic Compliance Matrix: (Units=1/GPa)
#
#
# Indices 1 2 3 4 5 6 
#
# 1 0.010628 -0.001935 -0.002429 0.000000 0.000000 0.000000
# 2 -0.001935 0.008806 -0.000930 0.000000 0.000000 0.000000
# 3 -0.002429 -0.000930 0.012461 0.000000 0.000000 0.000000
# 4 0.000000 0.000000 0.000000 -0.403903 0.000000 0.000000
# 5 0.000000 0.000000 0.000000 0.000000 0.045017 0.000000
# 6 0.000000 0.000000 0.000000 0.000000 0.000000 0.156634
#
#
# Mechanical properties :
#
#
# Convention : Reuss Voigt Hill
#
# Bulk Modulus (GPa) = 46.93564 48.01070 47.47317
# Shear Modulus (GPa) = -32.75110 21.80715 -5.47198
#
# Velocity S-wave (km/s) = -3.88946 3.17377 -1.58982
# Velocity P-wave (km/s) = 1.22853 5.96715 4.30791
#
# Compressibility (1/GPa) = 0.02130577
#
# Stress axis : x y z
#
# Youngs Moduli (GPa) = 94.09241 113.55357 80.25273
#
# Poissons Ratio (x) = 0.21978 0.19493
# Poissons Ratio (y) = 0.18211 0.07465
# Poissons Ratio (z) = 0.22854 0.10562
#
# Static dielectric constant tensor:
#      x y z
#    x 4.180060 0.000000 0.000000 
#    y 0.000000 3.870330 0.000000 
#    z 0.000000 0.000000 4.152740 
# 
# 
# High freq. dielectric constant tensor:
#      x y z
#    x 1.866600 0.000000 0.000000 
#    y 0.000000 1.831200 0.000000 
#    z 0.000000 0.000000 1.856140 
# 
# From -- ./inp_files/27246.got.cif
#   From: 2010.03.12/outbox.cif.g09.slc.cpg/sg74_14_cif.got.tgz:27246.got - 2010.04.16 15:46:19.
