data_PCOD8300075
_publ_section_title
;
Structure prediction by ZEFSAII (Michael W. Deem and Ramdas Pophale) SiO2 
 PCOD8300075
Probable space group: I M M A
;
_chemical_formula_sum "Si O2"
_cell_formula_units_Z 80
_cell_length_a 16.833479
_cell_length_b 8.895422
_cell_length_c 28.292087
_cell_angle_alpha 90.000000
_cell_angle_beta 90.000000
_cell_angle_gamma 90.000000
_cell_volume 4236.482554
_symmetry_space_group_name_H-M "I M M A"
_symmetry_group_IT_number 74
_symmetry_cell_setting 'orthorhombic'
loop_
_space_group_symop_operation_xyz
x,y,z
-x,1/2-y,z
x,-y,-z
-x,1/2+y,-z
-x,-y,-z
x,1/2+y,-z
-x,y,z
x,1/2-y,z
1/2+x,1/2+y,1/2+z
1/2-x,-y,1/2+z
1/2+x,1/2-y,1/2-z
1/2-x,y,1/2-z
1/2-x,1/2-y,1/2-z
1/2+x,y,1/2-z
1/2-x,1/2+y,1/2+z
1/2+x,-y,1/2+z
loop_
_atom_site_type_symbol
_atom_site_label
_atom_site_fract_x
_atom_site_fract_y
_atom_site_fract_z
Si Si1 0.743845 0.923416 0.356795
Si Si2 0.355814 0.072373 0.213508
Si Si3 0.500000 0.585978 0.169578
Si Si4 0.409973 0.577201 0.308274
Si Si5 0.000000 0.411708 0.560987
Si Si6 0.326316 0.569960 0.047224
O O1 0.769829 0.750000 0.351959
O O2 0.647564 0.942171 0.354154
O O3 0.777140 0.986972 0.406722
O O4 0.775943 0.010036 0.310512
O O5 0.351227 0.250000 0.214252
O O6 0.425003 0.014456 0.180340
O O7 0.371388 0.017230 0.266254
O O8 0.500000 0.750000 0.196190
O O9 0.500000 0.622428 0.115531
O O10 0.500000 0.521843 0.319956
O O11 0.411572 0.750000 0.292281
O O12 0.082655 0.495850 0.548399
O O13 0.000000 0.250000 0.534650
O O14 0.324875 0.750000 0.045389
O O15 0.286217 0.500000 0.000000
#
# Coordination Sequence:
#
# PCOD8300075 Si02
#       6
#    16  16   8  16   8  16
#     4  10  21  38  58  78 105 145 187 223 265 324
#     4  12  23  34  52  83 116 145 179 223 271 317
#     4  11  19  34  56  76 109 154 189 219 255 310
#     4  10  21  37  58  80 104 142 188 227 266 319
#     4   9  17  32  54  76 103 139 177 214 254 302
#     4  10  20  35  54  78 105 137 177 223 269 320
#
# _framework density 18.883590000000002
#
# number of rings (size 3 to 8) (size 9 to 14) (size 15 to 20)
#    0.000    1.600    3.000    3.000    0.000    4.000 
#    0.000    0.000    0.000    0.600    0.000    0.000 
#    0.000    0.000    0.000    0.000    0.000    0.000 
#
# Total GULP energy -495598.608304 kJ/mol
# GULP energy per Si atom -12389.965208 kJ/mol
# Density = 1.884061 g / cm^3
# Si number density = 18.883590 Si / 1000 Ang^3
#
#
#
# Elastic Constant Matrix: (Units=GPa)
#
#
# Indices 1 2 3 4 5 6 
#
# 1 128.7209 35.8624 67.9981 0.0000 0.0000 0.0000
# 2 35.8624 69.3344 32.5626 0.0000 0.0000 0.0000
# 3 67.9981 32.5626 101.4778 0.0000 0.0000 0.0000
# 4 0.0000 0.0000 0.0000 24.7966 0.0000 0.0000
# 5 0.0000 0.0000 0.0000 0.0000 8.2846 0.0000
# 6 0.0000 0.0000 0.0000 0.0000 0.0000 15.9792
#
#
#
# Elastic Compliance Matrix: (Units=1/GPa)
#
#
# Indices 1 2 3 4 5 6 
#
# 1 0.012530 -0.002988 -0.007437 0.000000 0.000000 0.000000
# 2 -0.002988 0.017695 -0.003676 0.000000 0.000000 0.000000
# 3 -0.007437 -0.003676 0.016017 0.000000 0.000000 0.000000
# 4 0.000000 0.000000 0.000000 0.040328 0.000000 0.000000
# 5 0.000000 0.000000 0.000000 0.000000 0.120707 0.000000
# 6 0.000000 0.000000 0.000000 0.000000 0.000000 0.062581
#
#
# Mechanical properties :
#
#
# Convention : Reuss Voigt Hill
#
# Bulk Modulus (GPa) = 55.43237 63.59770 59.51503
# Shear Modulus (GPa) = 16.44338 20.68607 18.56473
#
# Velocity S-wave (km/s) = 2.95409 3.31335 3.13887
# Velocity P-wave (km/s) = 6.40734 6.95627 6.68744
#
# Compressibility (1/GPa) = 0.01804000
#
# Stress axis : x y z
#
# Youngs Moduli (GPa) = 79.80795 56.51412 62.43219
#
# Poissons Ratio (x) = 0.16887 0.46433
# Poissons Ratio (y) = 0.23848 0.22948
# Poissons Ratio (z) = 0.59355 0.20773
#
# Static dielectric constant tensor:
#      x y z
#    x 3.834490 0.000000 0.000000 
#    y 0.000000 3.275590 0.000000 
#    z 0.000000 0.000000 3.408460 
# 
# 
# High freq. dielectric constant tensor:
#      x y z
#    x 1.731830 0.000000 0.000000 
#    y 0.000000 1.715950 0.000000 
#    z 0.000000 0.000000 1.719960 
# 
# From -- ./inp_files/67564.got.cif
#   From: 2010.03.12/outbox.cif.g09.slc.cpg/sg74_34_cif.got.tgz:67564.got - 2010.04.16 15:46:19.
