data_PCOD8300425
_publ_section_title
;
Structure prediction by ZEFSAII (Michael W. Deem and Ramdas Pophale) SiO2 
 PCOD8300425
Probable space group: I M M A
;
_chemical_formula_sum "Si O2"
_cell_formula_units_Z 88
_cell_length_a 24.195577
_cell_length_b 20.614817
_cell_length_c 9.094736
_cell_angle_alpha 90.000000
_cell_angle_beta 90.000000
_cell_angle_gamma 90.000000
_cell_volume 4536.339651
_symmetry_space_group_name_H-M "I M M A"
_symmetry_group_IT_number 74
_symmetry_cell_setting 'orthorhombic'
loop_
_space_group_symop_operation_xyz
x,y,z
-x,1/2-y,z
x,-y,-z
-x,1/2+y,-z
-x,-y,-z
x,1/2+y,-z
-x,y,z
x,1/2-y,z
1/2+x,1/2+y,1/2+z
1/2-x,-y,1/2+z
1/2+x,1/2-y,1/2-z
1/2-x,y,1/2-z
1/2-x,1/2-y,1/2-z
1/2+x,y,1/2-z
1/2-x,1/2+y,1/2+z
1/2+x,-y,1/2+z
loop_
_atom_site_type_symbol
_atom_site_label
_atom_site_fract_x
_atom_site_fract_y
_atom_site_fract_z
Si Si1 0.750000 0.092010 0.750000
Si Si2 0.063566 0.939556 0.104885
Si Si3 0.837176 0.134036 0.268708
Si Si4 0.646303 0.489412 0.831593
Si Si5 0.248154 0.825049 0.977267
Si Si6 0.562698 0.176564 0.393873
O O1 0.772882 0.136879 0.880018
O O2 0.703599 0.047648 0.821376
O O3 0.000000 0.937836 0.153400
O O4 0.099067 0.947262 0.252519
O O5 0.080320 0.872670 0.023568
O O6 0.076036 0.000000 0.000000
O O7 0.845050 0.057532 0.250049
O O8 0.809628 0.151621 0.425860
O O9 0.897222 0.167199 0.247051
O O10 0.796707 0.162179 0.146472
O O11 0.628497 0.500000 0.000000
O O12 0.250954 0.750000 0.016771
O O13 0.500000 0.161427 0.341964
O O14 0.567701 0.250000 0.454082
#
# Coordination Sequence:
#
# PCOD8300425 Si02
#       6
#     8  16  16  16  16  16
#     4  12  25  38  58  88 119 152 196 246 300 358
#     4  10  21  39  64  91 119 154 199 244 288 347
#     4  11  21  38  61  87 116 154 200 244 291 351
#     4  12  25  39  59  88 121 156 195 247 301 348
#     4  11  23  39  60  84 118 157 195 243 299 357
#     4  10  20  36  63  95 122 153 198 248 296 350
#
# _framework density 19.398900999999999
#
# number of rings (size 3 to 8) (size 9 to 14) (size 15 to 20)
#    0.000    1.091    3.636    4.636    0.000    0.364 
#    0.000    0.909    0.000    0.000    0.000    0.000 
#    0.000    0.000    0.000    0.000    0.000    0.000 
#
# Total GULP energy -545684.915255 kJ/mol
# GULP energy per Si atom -12401.929892 kJ/mol
# Density = 1.935475 g / cm^3
# Si number density = 19.398901 Si / 1000 Ang^3
#
#
#
# Elastic Constant Matrix: (Units=GPa)
#
#
# Indices 1 2 3 4 5 6 
#
# 1 97.4044 31.0421 35.9970 0.0000 0.0000 0.0000
# 2 31.0421 127.9868 20.9307 0.0000 0.0000 0.0000
# 3 35.9970 20.9307 76.9069 0.0000 0.0000 0.0000
# 4 0.0000 0.0000 0.0000 14.4589 0.0000 0.0000
# 5 0.0000 0.0000 0.0000 0.0000 29.7243 0.0000
# 6 0.0000 0.0000 0.0000 0.0000 0.0000 31.7053
#
#
#
# Elastic Compliance Matrix: (Units=1/GPa)
#
#
# Indices 1 2 3 4 5 6 
#
# 1 0.013010 -0.002260 -0.005474 0.000000 0.000000 0.000000
# 2 -0.002260 0.008570 -0.001274 0.000000 0.000000 0.000000
# 3 -0.005474 -0.001274 0.015912 0.000000 0.000000 0.000000
# 4 0.000000 0.000000 0.000000 0.069162 0.000000 0.000000
# 5 0.000000 0.000000 0.000000 0.000000 0.033642 0.000000
# 6 0.000000 0.000000 0.000000 0.000000 0.000000 0.031540
#
#
# Mechanical properties :
#
#
# Convention : Reuss Voigt Hill
#
# Bulk Modulus (GPa) = 51.35095 53.13752 52.24424
# Shear Modulus (GPa) = 25.46534 29.46626 27.46580
#
# Velocity S-wave (km/s) = 3.62708 3.90162 3.76685
# Velocity P-wave (km/s) = 6.63848 6.91002 6.77561
#
# Compressibility (1/GPa) = 0.01947384
#
# Stress axis : x y z
#
# Youngs Moduli (GPa) = 76.86473 116.68729 62.84619
#
# Poissons Ratio (x) = 0.26373 0.34404
# Poissons Ratio (y) = 0.17373 0.08009
# Poissons Ratio (z) = 0.42078 0.14871
#
# Static dielectric constant tensor:
#      x y z
#    x 3.789510 0.000000 0.000000 
#    y 0.000000 3.735830 0.000000 
#    z 0.000000 0.000000 3.827230 
# 
# 
# High freq. dielectric constant tensor:
#      x y z
#    x 1.759650 0.000000 0.000000 
#    y 0.000000 1.773400 0.000000 
#    z 0.000000 0.000000 1.731230 
# 
# From -- ./inp_files/13731.got.cif
#   From: 2010.03.12/outbox.cif.g09.slc.cpg/sg74_7_cif.got.tgz:13731.got - 2010.04.16 15:46:19.
