data_PCOD8300941
_publ_section_title
;
Structure prediction by ZEFSAII (Michael W. Deem and Ramdas Pophale) SiO2 
 PCOD8300941
Probable space group: I M M A
;
_chemical_formula_sum "Si O2"
_cell_formula_units_Z 112
_cell_length_a 15.280609
_cell_length_b 14.398160
_cell_length_c 24.216951
_cell_angle_alpha 90.000000
_cell_angle_beta 90.000000
_cell_angle_gamma 90.000000
_cell_volume 5328.035644
_symmetry_space_group_name_H-M "I M M A"
_symmetry_group_IT_number 74
_symmetry_cell_setting 'orthorhombic'
loop_
_space_group_symop_operation_xyz
x,y,z
-x,1/2-y,z
x,-y,-z
-x,1/2+y,-z
-x,-y,-z
x,1/2+y,-z
-x,y,z
x,1/2-y,z
1/2+x,1/2+y,1/2+z
1/2-x,-y,1/2+z
1/2+x,1/2-y,1/2-z
1/2-x,y,1/2-z
1/2-x,1/2-y,1/2-z
1/2+x,y,1/2-z
1/2-x,1/2+y,1/2+z
1/2+x,-y,1/2+z
loop_
_atom_site_type_symbol
_atom_site_label
_atom_site_fract_x
_atom_site_fract_y
_atom_site_fract_z
Si Si1 0.100497 0.554400 0.890125
Si Si2 0.297981 0.351866 0.807649
Si Si3 0.400444 0.147037 0.078677
Si Si4 0.266053 0.897027 0.515765
Si Si5 0.658497 0.148129 0.597901
Si Si6 0.403888 0.968288 0.821498
Si Si7 0.155101 0.141800 0.223704
O O1 0.158846 0.603886 0.937045
O O2 0.096001 0.441820 0.896993
O O3 0.143830 0.584063 0.832350
O O4 0.000000 0.589915 0.894161
O O5 0.342249 0.250000 0.813309
O O6 0.250000 0.358892 0.750000
O O7 0.234564 0.369904 0.858515
O O8 0.369094 0.431266 0.806872
O O9 0.500000 0.119100 0.058608
O O10 0.405923 0.250000 0.104015
O O11 0.327501 0.148063 0.030900
O O12 0.357956 0.081680 0.126350
O O13 0.303032 0.842504 0.463442
O O14 0.241251 0.000000 0.500000
O O15 0.613524 0.250000 0.610258
O O16 0.500000 0.985081 0.843532
O O17 0.409910 0.901039 0.768567
O O18 0.135326 0.250000 0.212910
O O19 0.250000 0.124231 0.250000
#
# Coordination Sequence:
#
# PCOD8300941 Si02
#       7
#    16  16  16  16  16  16  16
#     4  11  24  40  59  88 125 161 200 249 301 355
#     4  10  21  39  61  83 110 146 190 240 294 350
#     4  10  21  37  59  89 123 158 198 246 301 360
#     4  10  21  38  60  84 118 160 203 251 302 358
#     4  10  21  38  62  87 113 154 203 247 295 353
#     4  11  21  34  56  85 117 150 185 231 288 351
#     4  11  23  39  61  86 114 152 196 242 294 352
#
# _framework density 21.020879999999998
#
# number of rings (size 3 to 8) (size 9 to 14) (size 15 to 20)
#    0.000    1.571    0.000    6.000    0.000    7.429 
#    0.000    0.714    0.000    5.143    0.000    0.000 
#    0.000    0.000    0.000    0.000    0.000    0.000 
#
# Total GULP energy -693950.743937 kJ/mol
# GULP energy per Si atom -12391.977570 kJ/mol
# Density = 2.097304 g / cm^3
# Si number density = 21.020880 Si / 1000 Ang^3
#
#
#
# Elastic Constant Matrix: (Units=GPa)
#
#
# Indices 1 2 3 4 5 6 
#
# 1 99.0980 35.9045 44.6390 0.0000 0.0000 0.0000
# 2 35.9045 101.8631 24.6040 0.0000 0.0000 0.0000
# 3 44.6390 24.6040 126.9759 0.0000 0.0000 0.0000
# 4 0.0000 0.0000 0.0000 34.5169 0.0000 0.0000
# 5 0.0000 0.0000 0.0000 0.0000 17.8368 0.0000
# 6 0.0000 0.0000 0.0000 0.0000 0.0000 18.5657
#
#
#
# Elastic Compliance Matrix: (Units=1/GPa)
#
#
# Indices 1 2 3 4 5 6 
#
# 1 0.013201 -0.003705 -0.003923 0.000000 0.000000 0.000000
# 2 -0.003705 0.011339 -0.000895 0.000000 0.000000 0.000000
# 3 -0.003923 -0.000895 0.009428 0.000000 0.000000 0.000000
# 4 0.000000 0.000000 0.000000 0.028971 0.000000 0.000000
# 5 0.000000 0.000000 0.000000 0.000000 0.056064 0.000000
# 6 0.000000 0.000000 0.000000 0.000000 0.000000 0.053863
#
#
# Mechanical properties :
#
#
# Convention : Reuss Voigt Hill
#
# Bulk Modulus (GPa) = 59.09349 59.80356 59.44853
# Shear Modulus (GPa) = 25.56865 29.03649 27.30257
#
# Velocity S-wave (km/s) = 3.49140 3.72064 3.60784
# Velocity P-wave (km/s) = 6.66528 6.85339 6.75999
#
# Compressibility (1/GPa) = 0.01692234
#
# Stress axis : x y z
#
# Youngs Moduli (GPa) = 75.75445 88.18936 106.06815
#
# Poissons Ratio (x) = 0.32678 0.41608
# Poissons Ratio (y) = 0.28070 0.09488
# Poissons Ratio (z) = 0.29716 0.07889
#
# Static dielectric constant tensor:
#      x y z
#    x 3.558040 0.000000 0.000000 
#    y 0.000000 4.071690 0.000000 
#    z 0.000000 0.000000 4.032990 
# 
# 
# High freq. dielectric constant tensor:
#      x y z
#    x 1.807020 0.000000 0.000000 
#    y 0.000000 1.839210 0.000000 
#    z 0.000000 0.000000 1.830260 
# 
# From -- ./inp_files/60136.got.cif
#   From: 2010.03.12/outbox.cif.g09.slc.cpg/sg74_31_cif.got.tgz:60136.got - 2010.04.16 15:46:19.
