data_PCOD8300681
_publ_section_title
;
Structure prediction by ZEFSAII (Michael W. Deem and Ramdas Pophale) SiO2 
 PCOD8300681
Probable space group: I M M A
;
_chemical_formula_sum "Si O2"
_cell_formula_units_Z 112
_cell_length_a 22.490708
_cell_length_b 19.887162
_cell_length_c 14.457740
_cell_angle_alpha 90.000000
_cell_angle_beta 90.000000
_cell_angle_gamma 90.000000
_cell_volume 6466.605227
_symmetry_space_group_name_H-M "I M M A"
_symmetry_group_IT_number 74
_symmetry_cell_setting 'orthorhombic'
loop_
_space_group_symop_operation_xyz
x,y,z
-x,1/2-y,z
x,-y,-z
-x,1/2+y,-z
-x,-y,-z
x,1/2+y,-z
-x,y,z
x,1/2-y,z
1/2+x,1/2+y,1/2+z
1/2-x,-y,1/2+z
1/2+x,1/2-y,1/2-z
1/2-x,y,1/2-z
1/2-x,1/2-y,1/2-z
1/2+x,y,1/2-z
1/2-x,1/2+y,1/2+z
1/2+x,-y,1/2+z
loop_
_atom_site_type_symbol
_atom_site_label
_atom_site_fract_x
_atom_site_fract_y
_atom_site_fract_z
Si Si1 0.434391 0.843131 0.694070
Si Si2 0.142689 0.952188 0.584603
Si Si3 0.116782 0.982412 0.787829
Si Si4 0.731853 0.589219 0.650199
Si Si5 0.852207 0.176922 0.037741
Si Si6 0.068346 0.324468 0.405464
Si Si7 0.569550 0.566199 0.439140
O O1 0.500000 0.822456 0.664381
O O2 0.426862 0.922858 0.680282
O O3 0.390154 0.804625 0.627792
O O4 0.419995 0.819858 0.796695
O O5 0.114669 0.986120 0.676461
O O6 0.212652 0.944784 0.600147
O O7 0.112768 0.880964 0.556129
O O8 0.129082 0.000000 0.500000
O O9 0.183003 0.967941 0.826794
O O10 0.090324 0.049977 0.833769
O O11 0.750000 0.622491 0.750000
O O12 0.708256 0.643172 0.575698
O O13 0.838187 0.250000 0.990303
O O14 0.889791 0.128609 0.970379
O O15 0.082144 0.250000 0.447356
O O16 0.000000 0.344950 0.426144
O O17 0.583142 0.500000 0.500000
O O18 0.500000 0.586454 0.442821
#
# Coordination Sequence:
#
# PCOD8300681 Si02
#       7
#    16  16  16  16  16  16  16
#     4   9  15  26  46  71 101 134 168 202 249 311
#     4  10  21  34  56  81 101 132 177 226 267 314
#     4   9  18  33  50  75 104 137 175 219 262 313
#     4   9  19  33  50  74 106 141 177 217 272 323
#     4  11  22  31  46  75 110 144 179 223 262 311
#     4   9  18  32  49  71 103 136 161 200 261 323
#     4  11  20  32  54  76 102 144 184 218 262 320
#
# _framework density 17.319752999999999
#
# number of rings (size 3 to 8) (size 9 to 14) (size 15 to 20)
#    0.000    2.286    2.857    2.143    2.000    3.429 
#    0.000    0.000    0.000    0.857    0.000    1.000 
#    0.000    0.000    0.000    0.000    0.000    0.000 
#
# Total GULP energy -693919.435455 kJ/mol
# GULP energy per Si atom -12391.418490 kJ/mol
# Density = 1.728033 g / cm^3
# Si number density = 17.319753 Si / 1000 Ang^3
#
#
#
# Elastic Constant Matrix: (Units=GPa)
#
#
# Indices 1 2 3 4 5 6 
#
# 1 56.6461 34.8646 24.0356 0.0000 0.0000 0.0000
# 2 34.8646 95.1912 49.2723 0.0000 0.0000 0.0000
# 3 24.0356 49.2723 62.9625 0.0000 0.0000 0.0000
# 4 0.0000 0.0000 0.0000 19.0761 0.0000 0.0000
# 5 0.0000 0.0000 0.0000 0.0000 21.3330 0.0000
# 6 0.0000 0.0000 0.0000 0.0000 0.0000 3.3898
#
#
#
# Elastic Compliance Matrix: (Units=1/GPa)
#
#
# Indices 1 2 3 4 5 6 
#
# 1 0.023300 -0.006605 -0.003725 0.000000 0.000000 0.000000
# 2 -0.006605 0.019530 -0.012762 0.000000 0.000000 0.000000
# 3 -0.003725 -0.012762 0.027292 0.000000 0.000000 0.000000
# 4 0.000000 0.000000 0.000000 0.052422 0.000000 0.000000
# 5 0.000000 0.000000 0.000000 0.000000 0.046876 0.000000
# 6 0.000000 0.000000 0.000000 0.000000 0.000000 0.295007
#
#
# Mechanical properties :
#
#
# Convention : Reuss Voigt Hill
#
# Bulk Modulus (GPa) = 41.77817 47.90498 44.84157
# Shear Modulus (GPa) = 9.64152 15.86826 12.75489
#
# Velocity S-wave (km/s) = 2.36196 3.03015 2.71668
# Velocity P-wave (km/s) = 5.62250 6.32152 5.98223
#
# Compressibility (1/GPa) = 0.02393594
#
# Stress axis : x y z
#
# Youngs Moduli (GPa) = 42.91909 51.20229 36.64097
#
# Poissons Ratio (x) = 0.33821 0.13650
# Poissons Ratio (y) = 0.28350 0.46762
# Poissons Ratio (z) = 0.15989 0.65345
#
# Static dielectric constant tensor:
#      x y z
#    x 3.358200 0.000000 0.000000 
#    y 0.000000 3.043050 0.000000 
#    z 0.000000 0.000000 3.036330 
# 
# 
# High freq. dielectric constant tensor:
#      x y z
#    x 1.676640 0.000000 0.000000 
#    y 0.000000 1.649800 0.000000 
#    z 0.000000 0.000000 1.632780 
# 
# From -- ./inp_files/25548.got.cif
#   From: 2010.03.12/outbox.cif.g09.slc.cpg/sg74_13_cif.got.tgz:25548.got - 2010.04.16 15:46:19.
