data_PCOD8300291
_publ_section_title
;
Structure prediction by ZEFSAII (Michael W. Deem and Ramdas Pophale) SiO2 
 PCOD8300291
Probable space group: I M M A
;
_chemical_formula_sum "Si O2"
_cell_formula_units_Z 96
_cell_length_a 15.413863
_cell_length_b 27.724864
_cell_length_c 11.431297
_cell_angle_alpha 90.000000
_cell_angle_beta 90.000000
_cell_angle_gamma 90.000000
_cell_volume 4885.133398
_symmetry_space_group_name_H-M "I M M A"
_symmetry_group_IT_number 74
_symmetry_cell_setting 'orthorhombic'
loop_
_space_group_symop_operation_xyz
x,y,z
-x,1/2-y,z
x,-y,-z
-x,1/2+y,-z
-x,-y,-z
x,1/2+y,-z
-x,y,z
x,1/2-y,z
1/2+x,1/2+y,1/2+z
1/2-x,-y,1/2+z
1/2+x,1/2-y,1/2-z
1/2-x,y,1/2-z
1/2-x,1/2-y,1/2-z
1/2+x,y,1/2-z
1/2-x,1/2+y,1/2+z
1/2+x,-y,1/2+z
loop_
_atom_site_type_symbol
_atom_site_label
_atom_site_fract_x
_atom_site_fract_y
_atom_site_fract_z
Si Si1 0.500000 0.307788 0.382310
Si Si2 0.210215 0.019410 0.622573
Si Si3 0.324760 0.361689 0.334545
Si Si4 0.900975 0.435179 0.319184
Si Si5 0.844067 0.805459 0.302561
Si Si6 0.500000 0.692932 0.354513
Si Si7 0.188922 0.119136 0.516785
O O1 0.500000 0.250000 0.370020
O O2 0.410985 0.328429 0.326552
O O3 0.500000 0.327228 0.514877
O O4 0.250000 0.008261 0.750000
O O5 0.197372 0.076468 0.612347
O O6 0.256771 0.000000 0.500000
O O7 0.121943 0.988235 0.632516
O O8 0.250000 0.339198 0.250000
O O9 0.347851 0.416627 0.294541
O O10 0.283608 0.366929 0.463958
O O11 0.879420 0.395751 0.418196
O O12 0.000000 0.434374 0.284437
O O13 0.861803 0.750000 0.332961
O O14 0.750000 0.814107 0.250000
O O15 0.914328 0.825730 0.211237
O O16 0.852442 0.834422 0.422468
O O17 0.500000 0.750000 0.360915
#
# Coordination Sequence:
#
# PCOD8300291 Si02
#       7
#     8  16  16  16  16   8  16
#     4  11  22  38  63  90 121 166 219 264 312 387
#     4  10  20  36  59  87 119 159 205 254 310 375
#     4  10  21  40  62  88 123 167 206 260 326 383
#     4  10  20  37  59  84 118 158 202 255 317 379
#     4  10  20  36  56  82 116 153 193 241 303 370
#     4   9  20  36  55  80 113 154 195 248 311 363
#     4  10  21  34  61  88 116 159 202 251 306 374
#
# _framework density 19.65146
#
# number of rings (size 3 to 8) (size 9 to 14) (size 15 to 20)
#    0.000    2.000    0.833    4.000    1.167    5.333 
#    0.000    2.500    1.833    1.500    0.000    0.000 
#    0.000    0.000    0.000    0.000    0.000    0.000 
#
# Total GULP energy -594727.199449 kJ/mol
# GULP energy per Si atom -12390.149989 kJ/mol
# Density = 1.960673 g / cm^3
# Si number density = 19.651460 Si / 1000 Ang^3
#
#
#
# Elastic Constant Matrix: (Units=GPa)
#
#
# Indices 1 2 3 4 5 6 
#
# 1 131.2086 36.7202 42.7939 0.0002 0.0001 0.0003
# 2 36.7202 89.1283 35.5438 -0.0001 0.0001 0.0000
# 3 42.7939 35.5438 110.7852 -0.0015 0.0004 0.0012
# 4 0.0002 -0.0001 -0.0015 33.5004 0.0001 0.0009
# 5 0.0001 0.0001 0.0004 0.0001 28.5858 0.0002
# 6 0.0003 0.0000 0.0012 0.0009 0.0002 0.2557
#
#
#
# Elastic Compliance Matrix: (Units=1/GPa)
#
#
# Indices 1 2 3 4 5 6 
#
# 1 0.009270 -0.002742 -0.002701 0.000000 0.000000 0.000004
# 2 -0.002742 0.013677 -0.003329 0.000000 0.000000 0.000017
# 3 -0.002701 -0.003329 0.011138 0.000000 0.000000 -0.000051
# 4 0.000000 0.000000 0.000000 0.029850 0.000000 -0.000109
# 5 0.000000 0.000000 0.000000 0.000000 0.034982 -0.000034
# 6 0.000004 0.000017 -0.000051 -0.000109 -0.000034 3.911055
#
#
# Mechanical properties :
#
#
# Convention : Reuss Voigt Hill
#
# Bulk Modulus (GPa) = 60.45615 62.35974 61.40795
# Shear Modulus (GPa) = 1.23976 26.87264 14.05620
#
# Velocity S-wave (km/s) = 0.79514 3.70193 2.67736
# Velocity P-wave (km/s) = 5.62796 7.07631 6.39328
#
# Compressibility (1/GPa) = 0.01654091
#
# Stress axis : x y z
#
# Youngs Moduli (GPa) = 107.87784 73.11548 89.78393
#
# Poissons Ratio (x) = 0.20048 0.24251
# Poissons Ratio (y) = 0.29579 0.29888
# Poissons Ratio (z) = 0.29138 0.24340
#
# Static dielectric constant tensor:
#      x y z
#    x 3.393420 0.000000 0.000000 
#    y 0.000000 3.503350 0.000000 
#    z 0.000000 0.000000 3.755320 
# 
# 
# High freq. dielectric constant tensor:
#      x y z
#    x 1.755530 0.000000 0.000000 
#    y 0.000000 1.756380 0.000000 
#    z 0.000000 0.000000 1.771030 
# 
# From -- ./inp_files/21070.got.cif
#   From: 2010.03.12/outbox.cif.g09.slc.cpg/sg74_11_cif.got.tgz:21070.got - 2010.04.16 15:46:19.
