data_PCOD8300281
_publ_section_title
;
Structure prediction by ZEFSAII (Michael W. Deem and Ramdas Pophale) SiO2 
 PCOD8300281
Probable space group: I M M A
;
_chemical_formula_sum "Si O2"
_cell_formula_units_Z 104
_cell_length_a 24.274756
_cell_length_b 8.715065
_cell_length_c 25.380927
_cell_angle_alpha 90.000000
_cell_angle_beta 90.000000
_cell_angle_gamma 90.000000
_cell_volume 5369.489331
_symmetry_space_group_name_H-M "I M M A"
_symmetry_group_IT_number 74
_symmetry_cell_setting 'orthorhombic'
loop_
_space_group_symop_operation_xyz
x,y,z
-x,1/2-y,z
x,-y,-z
-x,1/2+y,-z
-x,-y,-z
x,1/2+y,-z
-x,y,z
x,1/2-y,z
1/2+x,1/2+y,1/2+z
1/2-x,-y,1/2+z
1/2+x,1/2-y,1/2-z
1/2-x,y,1/2-z
1/2-x,1/2-y,1/2-z
1/2+x,y,1/2-z
1/2-x,1/2+y,1/2+z
1/2+x,-y,1/2+z
loop_
_atom_site_type_symbol
_atom_site_label
_atom_site_fract_x
_atom_site_fract_y
_atom_site_fract_z
Si Si1 0.563904 0.430451 0.444417
Si Si2 0.936947 0.930976 0.737457
Si Si3 0.234410 0.569594 0.193982
Si Si4 0.114991 0.432562 0.839813
Si Si5 0.117470 0.429935 0.557809
Si Si6 0.841278 0.572500 0.656506
Si Si7 0.500000 0.580225 0.054148
O O1 0.584835 0.500000 0.500000
O O2 0.500000 0.471574 0.436014
O O3 0.574236 0.250000 0.445635
O O4 0.597524 0.502364 0.396281
O O5 0.931923 0.750000 0.745370
O O6 0.891687 0.986899 0.693955
O O7 0.000000 0.973792 0.720058
O O8 0.925140 0.010655 0.793387
O O9 0.227648 0.750000 0.198745
O O10 0.250000 0.494562 0.250000
O O11 0.176685 0.504065 0.171964
O O12 0.286171 0.526435 0.159367
O O13 0.112457 0.250000 0.842264
O O14 0.122302 0.500000 0.500000
O O15 0.135286 0.250000 0.558583
O O16 0.150545 0.542175 0.595068
O O17 0.056578 0.452511 0.584435
O O18 0.830085 0.750000 0.667589
O O19 0.500000 0.750000 0.033186
O O20 0.500000 0.500000 0.000000
#
# Coordination Sequence:
#
# PCOD8300281 Si02
#       7
#    16  16  16  16  16  16   8
#     4  10  21  38  61  90 126 164 199 240 291 351
#     4  10  22  38  55  82 120 156 189 233 289 345
#     4  10  21  40  61  82 113 152 195 244 292 341
#     4  11  22  37  61  89 117 153 197 243 293 347
#     4  10  20  36  56  79 110 145 185 231 281 336
#     4  11  23  37  58  85 113 150 194 238 288 343
#     4   8  16  30  50  76 102 138 180 220 267 324
#
# _framework density 19.368696
#
# number of rings (size 3 to 8) (size 9 to 14) (size 15 to 20)
#    0.000    1.846    1.538    2.308    1.077    5.846 
#    0.000    0.769    0.000    3.692    0.000    0.000 
#    0.000    0.000    0.000    0.000    0.000    0.000 
#
# Total GULP energy -644205.437246 kJ/mol
# GULP energy per Si atom -12388.566101 kJ/mol
# Density = 1.932461 g / cm^3
# Si number density = 19.368696 Si / 1000 Ang^3
#
#
#
# Elastic Constant Matrix: (Units=GPa)
#
#
# Indices 1 2 3 4 5 6 
#
# 1 116.8323 25.6958 49.4523 0.0000 0.0000 0.0000
# 2 25.6958 43.7398 28.1755 0.0000 0.0000 0.0000
# 3 49.4523 28.1755 124.0302 0.0000 0.0000 0.0000
# 4 0.0000 0.0000 0.0000 33.4084 0.0000 0.0000
# 5 0.0000 0.0000 0.0000 0.0000 484.7460 0.0000
# 6 0.0000 0.0000 0.0000 0.0000 0.0000 23.6860
#
#
#
# Elastic Compliance Matrix: (Units=1/GPa)
#
#
# Indices 1 2 3 4 5 6 
#
# 1 0.010927 -0.004232 -0.003395 0.000000 0.000000 0.000000
# 2 -0.004232 0.028421 -0.004769 0.000000 0.000000 0.000000
# 3 -0.003395 -0.004769 0.010500 0.000000 0.000000 0.000000
# 4 0.000000 0.000000 0.000000 0.029933 0.000000 0.000000
# 5 0.000000 0.000000 0.000000 0.000000 0.002063 0.000000
# 6 0.000000 0.000000 0.000000 0.000000 0.000000 0.042219
#
#
# Mechanical properties :
#
#
# Convention : Reuss Voigt Hill
#
# Bulk Modulus (GPa) = 39.91264 54.58329 47.24796
# Shear Modulus (GPa) = 31.80527 120.45333 76.12930
#
# Velocity S-wave (km/s) = 4.05668 7.89460 6.27620
# Velocity P-wave (km/s) = 6.52638 10.55187 8.77313
#
# Compressibility (1/GPa) = 0.02505472
#
# Stress axis : x y z
#
# Youngs Moduli (GPa) = 91.51382 35.18565 95.24122
#
# Poissons Ratio (x) = 0.14891 0.32338
# Poissons Ratio (y) = 0.38731 0.45418
# Poissons Ratio (z) = 0.31073 0.16779
#
# Static dielectric constant tensor:
#      x y z
#    x 4.077840 0.000000 0.000000 
#    y 0.000000 3.488040 0.000000 
#    z 0.000000 0.000000 3.480220 
# 
# 
# High freq. dielectric constant tensor:
#      x y z
#    x 1.754520 0.000000 0.000000 
#    y 0.000000 1.755170 0.000000 
#    z 0.000000 0.000000 1.753530 
# 
# From -- ./inp_files/68637.got.cif
#   From: 2010.03.12/outbox.cif.g09.slc.cpg/sg74_35_cif.got.tgz:68637.got - 2010.04.16 15:46:19.
