data_PCOD8300891
_publ_section_title
;
Structure prediction by ZEFSAII (Michael W. Deem and Ramdas Pophale) SiO2 
 PCOD8300891
Probable space group: I M M A
;
_chemical_formula_sum "Si O2"
_cell_formula_units_Z 96
_cell_length_a 23.602218
_cell_length_b 8.750072
_cell_length_c 23.416956
_cell_angle_alpha 90.000000
_cell_angle_beta 90.000000
_cell_angle_gamma 90.000000
_cell_volume 4836.095672
_symmetry_space_group_name_H-M "I M M A"
_symmetry_group_IT_number 74
_symmetry_cell_setting 'orthorhombic'
loop_
_space_group_symop_operation_xyz
x,y,z
-x,1/2-y,z
x,-y,-z
-x,1/2+y,-z
-x,-y,-z
x,1/2+y,-z
-x,y,z
x,1/2-y,z
1/2+x,1/2+y,1/2+z
1/2-x,-y,1/2+z
1/2+x,1/2-y,1/2-z
1/2-x,y,1/2-z
1/2-x,1/2-y,1/2-z
1/2+x,y,1/2-z
1/2-x,1/2+y,1/2+z
1/2+x,-y,1/2+z
loop_
_atom_site_type_symbol
_atom_site_label
_atom_site_fract_x
_atom_site_fract_y
_atom_site_fract_z
Si Si1 0.064871 0.923575 0.834965
Si Si2 0.270904 0.574006 0.370593
Si Si3 0.157029 0.927877 0.640196
Si Si4 0.157227 0.572656 0.237964
Si Si5 0.617323 0.070443 0.561553
Si Si6 0.935183 0.070049 0.560082
O O1 0.088169 0.750000 0.831872
O O2 0.000000 0.929227 0.816419
O O3 0.098102 0.032706 0.791852
O O4 0.071234 0.987755 0.898888
O O5 0.253040 0.750000 0.374812
O O6 0.216747 0.473663 0.388609
O O7 0.291524 0.537390 0.305963
O O8 0.320127 0.533836 0.415018
O O9 0.146216 0.750000 0.633112
O O10 0.163000 0.971070 0.706228
O O11 0.104364 0.012523 0.611141
O O12 0.157025 0.750000 0.255313
O O13 0.605129 0.250000 0.560961
O O14 0.610586 0.000000 0.500000
O O15 0.929453 0.250000 0.555212
O O16 0.000000 0.020788 0.573408
O O17 0.914826 0.000000 0.500000
#
# Coordination Sequence:
#
# PCOD8300891 Si02
#       6
#    16  16  16  16  16  16
#     4  10  21  37  57  82 113 148 187 234 285 336
#     4   9  20  38  57  80 113 150 188 232 281 331
#     4  12  24  36  58  89 117 149 187 226 271 331
#     4  10  21  38  59  82 113 151 188 232 282 330
#     4  10  21  37  58  82 111 149 190 235 283 331
#     4  10  22  42  65  86 112 146 183 228 280 330
#
# _framework density 19.850722999999999
#
# number of rings (size 3 to 8) (size 9 to 14) (size 15 to 20)
#    0.000    1.833    0.000    5.000    0.000   10.000 
#    0.000    1.667    0.000    0.000    0.000    0.000 
#    0.000    0.000    0.000    0.000    0.000    0.000 
#
# Total GULP energy -595364.393734 kJ/mol
# GULP energy per Si atom -12403.424869 kJ/mol
# Density = 1.980554 g / cm^3
# Si number density = 19.850723 Si / 1000 Ang^3
#
#
#
# Elastic Constant Matrix: (Units=GPa)
#
#
# Indices 1 2 3 4 5 6 
#
# 1 82.2643 28.5739 6.2247 0.0000 0.0000 0.0000
# 2 28.5739 72.8253 5.4461 0.0000 0.0000 0.0000
# 3 6.2247 5.4461 31.5603 0.0000 0.0000 0.0000
# 4 0.0000 0.0000 0.0000 38.7765 0.0000 0.0000
# 5 0.0000 0.0000 0.0000 0.0000 17.8608 0.0000
# 6 0.0000 0.0000 0.0000 0.0000 0.0000 31.9414
#
#
#
# Elastic Compliance Matrix: (Units=1/GPa)
#
#
# Indices 1 2 3 4 5 6 
#
# 1 0.014181 -0.005425 -0.001861 0.000000 0.000000 0.000000
# 2 -0.005425 0.015986 -0.001689 0.000000 0.000000 0.000000
# 3 -0.001861 -0.001689 0.032344 0.000000 0.000000 0.000000
# 4 0.000000 0.000000 0.000000 0.025789 0.000000 0.000000
# 5 0.000000 0.000000 0.000000 0.000000 0.055988 0.000000
# 6 0.000000 0.000000 0.000000 0.000000 0.000000 0.031307
#
#
# Mechanical properties :
#
#
# Convention : Reuss Voigt Hill
#
# Bulk Modulus (GPa) = 22.44048 29.68214 26.06131
# Shear Modulus (GPa) = 23.99245 27.47607 25.73426
#
# Velocity S-wave (km/s) = 3.48033 3.72443 3.60445
# Velocity P-wave (km/s) = 5.24208 5.78622 5.52086
#
# Compressibility (1/GPa) = 0.04456233
#
# Stress axis : x y z
#
# Youngs Moduli (GPa) = 70.51659 62.55343 30.91781
#
# Poissons Ratio (x) = 0.33935 0.05753
# Poissons Ratio (y) = 0.38255 0.05221
# Poissons Ratio (z) = 0.13122 0.10563
#
# Static dielectric constant tensor:
#      x y z
#    x 3.627890 0.000000 0.000000 
#    y 0.000000 3.697380 0.000000 
#    z 0.000000 0.000000 3.546910 
# 
# 
# High freq. dielectric constant tensor:
#      x y z
#    x 1.777710 0.000000 0.000000 
#    y 0.000000 1.784000 0.000000 
#    z 0.000000 0.000000 1.769660 
# 
# From -- ./inp_files/61919.got.cif
#   From: 2010.03.12/outbox.cif.g09.slc.cpg/sg74_31_cif.got.tgz:61919.got - 2010.04.16 15:46:19.
