data_PCOD8300116
_publ_section_title
;
Structure prediction by ZEFSAII (Michael W. Deem and Ramdas Pophale) SiO2 
 PCOD8300116
Probable space group: I M M A
;
_chemical_formula_sum "Si O2"
_cell_formula_units_Z 104
_cell_length_a 20.973144
_cell_length_b 9.370831
_cell_length_c 26.041476
_cell_angle_alpha 90.000000
_cell_angle_beta 90.000000
_cell_angle_gamma 90.000000
_cell_volume 5118.082005
_symmetry_space_group_name_H-M "I M M A"
_symmetry_group_IT_number 74
_symmetry_cell_setting 'orthorhombic'
loop_
_space_group_symop_operation_xyz
x,y,z
-x,1/2-y,z
x,-y,-z
-x,1/2+y,-z
-x,-y,-z
x,1/2+y,-z
-x,y,z
x,1/2-y,z
1/2+x,1/2+y,1/2+z
1/2-x,-y,1/2+z
1/2+x,1/2-y,1/2-z
1/2-x,y,1/2-z
1/2-x,1/2-y,1/2-z
1/2+x,y,1/2-z
1/2-x,1/2+y,1/2+z
1/2+x,-y,1/2+z
loop_
_atom_site_type_symbol
_atom_site_label
_atom_site_fract_x
_atom_site_fract_y
_atom_site_fract_z
Si Si1 0.381638 0.093677 0.955272
Si Si2 0.734673 0.409617 0.547066
Si Si3 0.750000 0.502744 0.250000
Si Si4 0.806086 0.413329 0.142977
Si Si5 0.574435 0.589342 0.864597
Si Si6 0.885844 0.903379 0.275505
Si Si7 0.428304 0.089086 0.662878
O O1 0.414430 0.250000 0.953688
O O2 0.307847 0.112369 0.967429
O O3 0.388505 0.015192 0.901656
O O4 0.414914 0.000000 0.000000
O O5 0.702478 0.500000 0.500000
O O6 0.703573 0.250000 0.551326
O O7 0.731794 0.493430 0.601136
O O8 0.772087 0.414460 0.199187
O O9 0.810057 0.598137 0.265569
O O10 0.808847 0.250000 0.124598
O O11 0.877849 0.475310 0.141744
O O12 0.500000 0.581029 0.875429
O O13 0.600026 0.750000 0.871357
O O14 0.591341 0.538504 0.807756
O O15 0.901032 0.750000 0.302226
O O16 0.926115 0.914188 0.224057
O O17 0.500000 0.046654 0.645293
O O18 0.411740 0.250000 0.643573
#
# Coordination Sequence:
#
# PCOD8300116 Si02
#       7
#    16  16   8  16  16  16  16
#     4  10  21  37  58  80 103 135 176 224 275 325
#     4  10  21  38  60  86 114 145 184 230 281 335
#     4  10  22  36  54  84 120 152 184 226 280 338
#     4  11  22  35  55  84 117 152 188 228 275 329
#     4  11  24  38  52  74 106 143 182 225 272 323
#     4  10  20  35  56  79 105 140 182 226 271 322
#     4   9  19  36  56  78 107 144 184 225 270 323
#
# _framework density 20.320114
#
# number of rings (size 3 to 8) (size 9 to 14) (size 15 to 20)
#    0.000    1.846    0.000    3.692    0.000   11.692 
#    0.000    0.000    0.000    0.462    0.000    0.000 
#    0.000    0.000    0.000    0.000    0.000    0.000 
#
# Total GULP energy -644508.564634 kJ/mol
# GULP energy per Si atom -12394.395474 kJ/mol
# Density = 2.027386 g / cm^3
# Si number density = 20.320114 Si / 1000 Ang^3
#
#
#
# Elastic Constant Matrix: (Units=GPa)
#
#
# Indices 1 2 3 4 5 6 
#
# 1 53.0365 19.8907 2.7995 0.0000 0.0000 0.0000
# 2 19.8907 176.6306 50.5946 0.0000 0.0000 0.0000
# 3 2.7995 50.5946 78.3808 0.0000 0.0000 0.0000
# 4 0.0000 0.0000 0.0000 31.7048 0.0000 0.0000
# 5 0.0000 0.0000 0.0000 0.0000 12.4946 0.0000
# 6 0.0000 0.0000 0.0000 0.0000 0.0000 19.0103
#
#
#
# Elastic Compliance Matrix: (Units=1/GPa)
#
#
# Indices 1 2 3 4 5 6 
#
# 1 0.019737 -0.002479 0.000895 0.000000 0.000000 0.000000
# 2 -0.002479 0.007257 -0.004596 0.000000 0.000000 0.000000
# 3 0.000895 -0.004596 0.015693 0.000000 0.000000 0.000000
# 4 0.000000 0.000000 0.000000 0.031541 0.000000 0.000000
# 5 0.000000 0.000000 0.000000 0.000000 0.080035 0.000000
# 6 0.000000 0.000000 0.000000 0.000000 0.000000 0.052603
#
#
# Mechanical properties :
#
#
# Convention : Reuss Voigt Hill
#
# Bulk Modulus (GPa) = 32.97278 50.51304 41.74291
# Shear Modulus (GPa) = 21.80216 28.29282 25.04749
#
# Velocity S-wave (km/s) = 3.27912 3.73548 3.51471
# Velocity P-wave (km/s) = 5.53161 6.59679 6.08754
#
# Compressibility (1/GPa) = 0.03032805
#
# Stress axis : x y z
#
# Youngs Moduli (GPa) = 50.66513 137.79436 63.72296
#
# Poissons Ratio (x) = 0.34161 -0.05705
# Poissons Ratio (y) = 0.12561 0.29287
# Poissons Ratio (z) = -0.04536 0.63330
#
# Static dielectric constant tensor:
#      x y z
#    x 3.475900 0.000000 0.000000 
#    y 0.000000 4.006650 0.000000 
#    z 0.000000 0.000000 3.533560 
# 
# 
# High freq. dielectric constant tensor:
#      x y z
#    x 1.775250 0.000000 0.000000 
#    y 0.000000 1.806330 0.000000 
#    z 0.000000 0.000000 1.778840 
# 
# From -- ./inp_files/64416.got.cif
#   From: 2010.03.12/outbox.cif.g09.slc.cpg/sg74_33_cif.got.tgz:64416.got - 2010.04.16 15:46:19.
