data_PCOD8300401
_publ_section_title
;
Structure prediction by ZEFSAII (Michael W. Deem and Ramdas Pophale) SiO2 
 PCOD8300401
Probable space group: I M M A
;
_chemical_formula_sum "Si O2"
_cell_formula_units_Z 64
_cell_length_a 25.703190
_cell_length_b 12.970573
_cell_length_c 8.639464
_cell_angle_alpha 90.000000
_cell_angle_beta 90.000000
_cell_angle_gamma 90.000000
_cell_volume 2880.268589
_symmetry_space_group_name_H-M "I M M A"
_symmetry_group_IT_number 74
_symmetry_cell_setting 'orthorhombic'
loop_
_space_group_symop_operation_xyz
x,y,z
-x,1/2-y,z
x,-y,-z
-x,1/2+y,-z
-x,-y,-z
x,1/2+y,-z
-x,y,z
x,1/2-y,z
1/2+x,1/2+y,1/2+z
1/2-x,-y,1/2+z
1/2+x,1/2-y,1/2-z
1/2-x,y,1/2-z
1/2-x,1/2-y,1/2-z
1/2+x,y,1/2-z
1/2-x,1/2+y,1/2+z
1/2+x,-y,1/2+z
loop_
_atom_site_type_symbol
_atom_site_label
_atom_site_fract_x
_atom_site_fract_y
_atom_site_fract_z
Si Si1 0.191177 0.070791 0.724496
Si Si2 0.344694 0.365556 0.106454
Si Si3 0.595240 0.365796 0.605717
Si Si4 0.940965 0.570106 0.773714
O O1 0.250000 0.107287 0.750000
O O2 0.167244 0.125383 0.574323
O O3 0.156485 0.107295 0.869991
O O4 0.189494 0.946535 0.705530
O O5 0.332011 0.250000 0.163548
O O6 0.405892 0.392518 0.130151
O O7 0.582500 0.250000 0.661122
O O8 0.582357 0.375618 0.425536
O O9 0.561057 0.446010 0.705910
O O10 0.000000 0.605034 0.744052
#
# Coordination Sequence:
#
# PCOD8300401 Si02
#       4
#    16  16  16  16
#     4  10  23  42  61  87 122 155 195 246 294 347
#     4  10  22  40  62  89 119 154 197 241 291 353
#     4  10  20  36  60  90 121 155 200 246 290 347
#     4  10  22  39  59  87 122 157 197 246 295 347
#
# _framework density 22.22015
#
# number of rings (size 3 to 8) (size 9 to 14) (size 15 to 20)
#    0.000    2.000    0.000    3.000    0.000   14.000 
#    0.000   11.250    0.000   12.000    0.000    0.000 
#    0.000    0.000    0.000    0.000    0.000    0.000 
#
# Total GULP energy -396758.676544 kJ/mol
# GULP energy per Si atom -12398.708642 kJ/mol
# Density = 2.216958 g / cm^3
# Si number density = 22.220150 Si / 1000 Ang^3
#
#
#
# Elastic Constant Matrix: (Units=GPa)
#
#
# Indices 1 2 3 4 5 6 
#
# 1 175.1425 3.9629 68.6695 0.0000 0.0000 0.0000
# 2 3.9629 163.4438 25.7081 0.0000 0.0000 0.0000
# 3 68.6695 25.7081 78.9936 0.0000 0.0000 0.0000
# 4 0.0000 0.0000 0.0000 16.0680 0.0000 0.0000
# 5 0.0000 0.0000 0.0000 0.0000 31.7075 0.0000
# 6 0.0000 0.0000 0.0000 0.0000 0.0000 8.9493
#
#
#
# Elastic Compliance Matrix: (Units=1/GPa)
#
#
# Indices 1 2 3 4 5 6 
#
# 1 0.008829 0.001047 -0.008015 0.000000 0.000000 0.000000
# 2 0.001047 0.006572 -0.003049 0.000000 0.000000 0.000000
# 3 -0.008015 -0.003049 0.020619 0.000000 0.000000 0.000000
# 4 0.000000 0.000000 0.000000 0.062235 0.000000 0.000000
# 5 0.000000 0.000000 0.000000 0.000000 0.031538 0.000000
# 6 0.000000 0.000000 0.000000 0.000000 0.000000 0.111741
#
#
# Mechanical properties :
#
#
# Convention : Reuss Voigt Hill
#
# Bulk Modulus (GPa) = 62.55769 68.25122 65.40446
# Shear Modulus (GPa) = 18.73371 32.62759 25.68065
#
# Velocity S-wave (km/s) = 2.90676 3.83610 3.40330
# Velocity P-wave (km/s) = 6.28334 7.09954 6.70387
#
# Compressibility (1/GPa) = 0.01598525
#
# Stress axis : x y z
#
# Youngs Moduli (GPa) = 113.26807 152.14931 48.49820
#
# Poissons Ratio (x) = -0.15925 0.38873
# Poissons Ratio (y) = -0.11856 0.14787
# Poissons Ratio (z) = 0.90789 0.46389
#
# Static dielectric constant tensor:
#      x y z
#    x 3.908170 0.000000 0.000000 
#    y 0.000000 4.179670 0.000000 
#    z 0.000000 0.000000 3.755170 
# 
# 
# High freq. dielectric constant tensor:
#      x y z
#    x 1.862520 0.000000 0.000000 
#    y 0.000000 1.885860 0.000000 
#    z 0.000000 0.000000 1.853740 
# 
# From -- ./inp_files/13291.got.cif
#   From: 2010.03.12/outbox.cif.g09.slc.cpg/sg74_7_cif.got.tgz:13291.got - 2010.04.16 15:46:19.
