data_PCOD8300460
_publ_section_title
;
Structure prediction by ZEFSAII (Michael W. Deem and Ramdas Pophale) SiO2 
 PCOD8300460
Probable space group: I M M A
;
_chemical_formula_sum "Si O2"
_cell_formula_units_Z 72
_cell_length_a 12.380876
_cell_length_b 9.107953
_cell_length_c 31.647991
_cell_angle_alpha 90.000000
_cell_angle_beta 90.000000
_cell_angle_gamma 90.000000
_cell_volume 3568.767878
_symmetry_space_group_name_H-M "I M M A"
_symmetry_group_IT_number 74
_symmetry_cell_setting 'orthorhombic'
loop_
_space_group_symop_operation_xyz
x,y,z
-x,1/2-y,z
x,-y,-z
-x,1/2+y,-z
-x,-y,-z
x,1/2+y,-z
-x,y,z
x,1/2-y,z
1/2+x,1/2+y,1/2+z
1/2-x,-y,1/2+z
1/2+x,1/2-y,1/2-z
1/2-x,y,1/2-z
1/2-x,1/2-y,1/2-z
1/2+x,y,1/2-z
1/2-x,1/2+y,1/2+z
1/2+x,-y,1/2+z
loop_
_atom_site_type_symbol
_atom_site_label
_atom_site_fract_x
_atom_site_fract_y
_atom_site_fract_z
Si Si1 0.129052 0.414873 0.776262
Si Si2 0.500000 0.424913 0.954920
Si Si3 0.833091 0.079342 0.397375
Si Si4 0.881203 0.579461 0.859413
Si Si5 0.876706 0.588643 0.696799
O O1 0.171067 0.250000 0.781688
O O2 0.169683 0.509869 0.816631
O O3 0.175717 0.476581 0.731120
O O4 0.000000 0.420488 0.776351
O O5 0.500000 0.250000 0.959213
O O6 0.391487 0.476601 0.931174
O O7 0.500000 0.500000 0.000000
O O8 0.861527 0.250000 0.406636
O O9 0.702730 0.052306 0.398051
O O10 0.873124 0.030676 0.351130
O O11 0.892017 0.750000 0.849951
O O12 0.000000 0.513782 0.870889
O O13 0.820717 0.750000 0.699172
O O14 0.000000 0.604383 0.710807
#
# Coordination Sequence:
#
# PCOD8300460 Si02
#       5
#    16   8  16  16  16
#     4   9  17  28  43  67 105 151 197 245 289 328
#     4  12  26  44  68  94 120 144 176 224 288 358
#     4  10  20  37  60  85 114 147 188 235 285 342
#     4   9  18  33  54  80 112 154 200 238 277 330
#     4   9  16  28  47  70 102 145 192 237 285 340
#
# _framework density 20.175028999999999
#
# number of rings (size 3 to 8) (size 9 to 14) (size 15 to 20)
#    0.000    2.444    1.111    1.667    0.000    5.333 
#    0.000    4.444    0.000    0.667    0.000    0.000 
#    0.000    0.000    0.000    0.000    0.000    0.000 
#
# Total GULP energy -446285.522603 kJ/mol
# GULP energy per Si atom -12396.820072 kJ/mol
# Density = 2.012911 g / cm^3
# Si number density = 20.175029 Si / 1000 Ang^3
#
#
#
# Elastic Constant Matrix: (Units=GPa)
#
#
# Indices 1 2 3 4 5 6 
#
# 1 97.3430 34.8217 54.6145 0.0000 0.0000 0.0000
# 2 34.8217 116.6218 72.0419 0.0000 0.0000 0.0000
# 3 54.6145 72.0419 119.7680 0.0000 0.0000 0.0000
# 4 0.0000 0.0000 0.0000 29.8055 0.0000 0.0000
# 5 0.0000 0.0000 0.0000 0.0000 23.9816 0.0000
# 6 0.0000 0.0000 0.0000 0.0000 0.0000 23.2187
#
#
#
# Elastic Compliance Matrix: (Units=1/GPa)
#
#
# Indices 1 2 3 4 5 6 
#
# 1 0.013815 -0.000371 -0.006076 0.000000 0.000000 0.000000
# 2 -0.000371 0.013655 -0.008044 0.000000 0.000000 0.000000
# 3 -0.006076 -0.008044 0.015959 0.000000 0.000000 0.000000
# 4 0.000000 0.000000 0.000000 0.033551 0.000000 0.000000
# 5 0.000000 0.000000 0.000000 0.000000 0.041699 0.000000
# 6 0.000000 0.000000 0.000000 0.000000 0.000000 0.043069
#
#
# Mechanical properties :
#
#
# Convention : Reuss Voigt Hill
#
# Bulk Modulus (GPa) = 69.22803 72.96543 71.09673
# Shear Modulus (GPa) = 25.56950 26.88481 26.22715
#
# Velocity S-wave (km/s) = 3.56389 3.65441 3.60944
# Velocity P-wave (km/s) = 7.16403 7.35194 7.25859
#
# Compressibility (1/GPa) = 0.01444502
#
# Stress axis : x y z
#
# Youngs Moduli (GPa) = 72.38572 73.23418 62.66091
#
# Poissons Ratio (x) = 0.02720 0.38074
# Poissons Ratio (y) = 0.02689 0.50406
# Poissons Ratio (z) = 0.43983 0.58911
#
# Static dielectric constant tensor:
#      x y z
#    x 4.328190 0.000000 0.000000 
#    y 0.000000 3.653780 0.000000 
#    z 0.000000 0.000000 3.291760 
# 
# 
# High freq. dielectric constant tensor:
#      x y z
#    x 1.830530 0.000000 0.000000 
#    y 0.000000 1.775260 0.000000 
#    z 0.000000 0.000000 1.737750 
# 
# From -- ./inp_files/66744.got.cif
#   From: 2010.03.12/outbox.cif.g09.slc.cpg/sg74_34_cif.got.tgz:66744.got - 2010.04.16 15:46:19.
