data_PCOD8300866
_publ_section_title
;
Structure prediction by ZEFSAII (Michael W. Deem and Ramdas Pophale) SiO2 
 PCOD8300866
Probable space group: I M M A
;
_chemical_formula_sum "Si O2"
_cell_formula_units_Z 96
_cell_length_a 9.007433
_cell_length_b 22.834319
_cell_length_c 24.059302
_cell_angle_alpha 90.000000
_cell_angle_beta 90.000000
_cell_angle_gamma 90.000000
_cell_volume 4948.483516
_symmetry_space_group_name_H-M "I M M A"
_symmetry_group_IT_number 74
_symmetry_cell_setting 'orthorhombic'
loop_
_space_group_symop_operation_xyz
x,y,z
-x,1/2-y,z
x,-y,-z
-x,1/2+y,-z
-x,-y,-z
x,1/2+y,-z
-x,y,z
x,1/2-y,z
1/2+x,1/2+y,1/2+z
1/2-x,-y,1/2+z
1/2+x,1/2-y,1/2-z
1/2-x,y,1/2-z
1/2-x,1/2-y,1/2-z
1/2+x,y,1/2-z
1/2-x,1/2+y,1/2+z
1/2+x,-y,1/2+z
loop_
_atom_site_type_symbol
_atom_site_label
_atom_site_fract_x
_atom_site_fract_y
_atom_site_fract_z
Si Si1 0.669241 0.682120 0.374565
Si Si2 0.169193 0.590600 0.304402
Si Si3 0.173941 0.374403 0.524869
Si Si4 0.825167 0.109232 0.087012
Si Si5 0.674251 0.682928 0.693344
Si Si6 0.666950 0.489237 0.910028
O O1 0.500000 0.660239 0.379146
O O2 0.678401 0.750000 0.360618
O O3 0.749579 0.649296 0.324242
O O4 0.749938 0.669803 0.432600
O O5 0.250000 0.565722 0.250000
O O6 0.179168 0.540823 0.350490
O O7 0.000000 0.606601 0.290691
O O8 0.241546 0.361212 0.464669
O O9 0.205161 0.442023 0.542044
O O10 0.000000 0.361164 0.525386
O O11 0.770973 0.142388 0.142583
O O12 0.000000 0.116379 0.078502
O O13 0.784962 0.041006 0.089472
O O14 0.500000 0.676787 0.701903
O O15 0.719918 0.750000 0.680482
O O16 0.750000 0.660592 0.750000
O O17 0.500000 0.513969 0.919584
#
# Coordination Sequence:
#
# PCOD8300866 Si02
#       6
#    16  16  16  16  16  16
#     4  10  21  37  57  81 110 144 182 227 277 324
#     4  10  21  37  57  80 109 146 186 228 274 324
#     4  10  21  37  56  79 110 146 182 222 268 319
#     4  11  22  34  55  85 110 139 179 221 269 326
#     4   9  20  39  58  77 105 138 173 216 264 313
#     4   9  20  37  54  76 109 145 179 222 271 316
#
# _framework density 19.399882000000002
#
# number of rings (size 3 to 8) (size 9 to 14) (size 15 to 20)
#    0.000    2.167    0.000    3.500    0.000   10.333 
#    0.000    5.000    0.000    0.000    0.000    0.000 
#    0.000    0.000    0.000    0.000    0.000    0.000 
#
# Total GULP energy -595377.186249 kJ/mol
# GULP energy per Si atom -12403.691380 kJ/mol
# Density = 1.935573 g / cm^3
# Si number density = 19.399882 Si / 1000 Ang^3
#
#
#
# Elastic Constant Matrix: (Units=GPa)
#
#
# Indices 1 2 3 4 5 6 
#
# 1 103.2516 17.6790 41.2453 0.0000 0.0000 0.0000
# 2 17.6790 31.8579 7.2795 0.0000 0.0000 0.0000
# 3 41.2453 7.2795 114.3261 0.0000 0.0000 0.0000
# 4 0.0000 0.0000 0.0000 16.4892 0.0000 0.0000
# 5 0.0000 0.0000 0.0000 0.0000 40.1767 0.0000
# 6 0.0000 0.0000 0.0000 0.0000 0.0000 29.9119
#
#
#
# Elastic Compliance Matrix: (Units=1/GPa)
#
#
# Indices 1 2 3 4 5 6 
#
# 1 0.012322 -0.005908 -0.004069 0.000000 0.000000 0.000000
# 2 -0.005908 0.034686 -0.000077 0.000000 0.000000 0.000000
# 3 -0.004069 -0.000077 0.010220 0.000000 0.000000 0.000000
# 4 0.000000 0.000000 0.000000 0.060646 0.000000 0.000000
# 5 0.000000 0.000000 0.000000 0.000000 0.024890 0.000000
# 6 0.000000 0.000000 0.000000 0.000000 0.000000 0.033432
#
#
# Mechanical properties :
#
#
# Convention : Reuss Voigt Hill
#
# Bulk Modulus (GPa) = 26.94058 42.42702 34.68380
# Shear Modulus (GPa) = 23.96045 29.53099 26.74572
#
# Velocity S-wave (km/s) = 3.51819 3.90580 3.71705
# Velocity P-wave (km/s) = 5.51549 6.50059 6.02819
#
# Compressibility (1/GPa) = 0.03711873
#
# Stress axis : x y z
#
# Youngs Moduli (GPa) = 81.15416 28.83036 97.84843
#
# Poissons Ratio (x) = 0.17034 0.39817
# Poissons Ratio (y) = 0.47948 0.00754
# Poissons Ratio (z) = 0.33024 0.00222
#
# Static dielectric constant tensor:
#      x y z
#    x 3.639210 0.000000 0.000000 
#    y 0.000000 3.361290 0.000000 
#    z 0.000000 0.000000 3.687850 
# 
# 
# High freq. dielectric constant tensor:
#      x y z
#    x 1.764040 0.000000 0.000000 
#    y 0.000000 1.740950 0.000000 
#    z 0.000000 0.000000 1.766550 
# 
# From -- ./inp_files/57289.got.cif
#   From: 2010.03.12/outbox.cif.g09.slc.cpg/sg74_29_cif.got.tgz:57289.got - 2010.04.16 15:46:19.
