data_PCOD8300147
_publ_section_title
;
Structure prediction by ZEFSAII (Michael W. Deem and Ramdas Pophale) SiO2 
 PCOD8300147
Probable space group: I M M A
;
_chemical_formula_sum "Si O2"
_cell_formula_units_Z 96
_cell_length_a 15.828177
_cell_length_b 20.545802
_cell_length_c 15.777747
_cell_angle_alpha 90.000000
_cell_angle_beta 90.000000
_cell_angle_gamma 90.000000
_cell_volume 5130.964199
_symmetry_space_group_name_H-M "I M M A"
_symmetry_group_IT_number 74
_symmetry_cell_setting 'orthorhombic'
loop_
_space_group_symop_operation_xyz
x,y,z
-x,1/2-y,z
x,-y,-z
-x,1/2+y,-z
-x,-y,-z
x,1/2+y,-z
-x,y,z
x,1/2-y,z
1/2+x,1/2+y,1/2+z
1/2-x,-y,1/2+z
1/2+x,1/2-y,1/2-z
1/2-x,y,1/2-z
1/2-x,1/2-y,1/2-z
1/2+x,y,1/2-z
1/2-x,1/2+y,1/2+z
1/2+x,-y,1/2+z
loop_
_atom_site_type_symbol
_atom_site_label
_atom_site_fract_x
_atom_site_fract_y
_atom_site_fract_z
Si Si1 0.753432 0.423293 0.002199
Si Si2 0.900347 0.250000 0.104999
Si Si3 0.150608 0.492497 0.751215
Si Si4 0.591599 0.948600 0.073694
Si Si5 0.903513 0.610288 0.116028
Si Si6 0.187594 0.625328 0.824163
Si Si7 0.402413 0.250000 0.584346
O O1 0.753542 0.395065 0.096546
O O2 0.742437 0.500000 0.000000
O O3 0.669165 0.398573 0.950328
O O4 0.843152 0.408620 0.960688
O O5 0.872001 0.185362 0.154155
O O6 0.000000 0.250000 0.104092
O O7 0.859799 0.250000 0.009934
O O8 0.250000 0.479896 0.750000
O O9 0.112935 0.489716 0.657846
O O10 0.107383 0.434482 0.802917
O O11 0.131980 0.562708 0.794340
O O12 0.500000 0.912370 0.085255
O O13 0.579763 0.000000 0.000000
O O14 0.879426 0.685512 0.138365
O O15 0.000000 0.605118 0.083131
O O16 0.250000 0.647705 0.750000
O O17 0.500000 0.250000 0.563136
#
# Coordination Sequence:
#
# PCOD8300147 Si02
#       7
#    16   8  16  16  16  16   8
#     4  11  19  36  56  82 116 147 190 246 288 348
#     4  11  23  37  55  80 118 158 199 242 289 360
#     4  11  20  37  59  88 119 146 191 250 290 347
#     4  10  20  35  56  82 115 154 191 237 297 349
#     4  11  21  35  58  85 116 152 188 234 296 354
#     4  11  22  37  58  83 115 155 196 240 295 349
#     4   9  20  37  54  82 117 154 192 227 287 361
#
# _framework density 18.709932999999999
#
# number of rings (size 3 to 8) (size 9 to 14) (size 15 to 20)
#    0.000    1.333    5.000    3.750    0.000    1.667 
#    0.000    1.250    0.000    0.000    0.000    4.083 
#    0.000    4.000    0.000    0.000    0.000    0.000 
#
# Total GULP energy -594775.482877 kJ/mol
# GULP energy per Si atom -12391.155893 kJ/mol
# Density = 1.866735 g / cm^3
# Si number density = 18.709933 Si / 1000 Ang^3
#
#
#
# Elastic Constant Matrix: (Units=GPa)
#
#
# Indices 1 2 3 4 5 6 
#
# 1 126.4755 40.3544 38.5945 0.0000 0.0000 0.0000
# 2 40.3544 117.5209 52.1092 -0.0001 0.0002 0.0000
# 3 38.5945 52.1092 114.7135 -0.0005 0.0005 0.0000
# 4 0.0000 -0.0001 -0.0005 -61.4654 0.0003 0.0000
# 5 0.0000 0.0002 0.0005 0.0003 -37.6386 0.0000
# 6 0.0000 0.0000 0.0000 0.0000 0.0000 22.1122
#
#
#
# Elastic Compliance Matrix: (Units=1/GPa)
#
#
# Indices 1 2 3 4 5 6 
#
# 1 0.009264 -0.002253 -0.002094 0.000000 0.000000 0.000000
# 2 -0.002253 0.011203 -0.004331 0.000000 0.000000 0.000000
# 3 -0.002094 -0.004331 0.011389 0.000000 0.000000 0.000000
# 4 0.000000 0.000000 0.000000 -0.016269 0.000000 0.000000
# 5 0.000000 0.000000 0.000000 0.000000 -0.026568 0.000000
# 6 0.000000 0.000000 0.000000 0.000000 0.000000 0.045224
#
#
# Mechanical properties :
#
#
# Convention : Reuss Voigt Hill
#
# Bulk Modulus (GPa) = 68.95815 68.98068 68.96941
# Shear Modulus (GPa) = 88.60259 -0.22158 44.19051
#
# Velocity S-wave (km/s) = 6.88903 -0.34451 4.86518
# Velocity P-wave (km/s) = 10.01073 6.06550 8.27662
#
# Compressibility (1/GPa) = 0.01450155
#
# Stress axis : x y z
#
# Youngs Moduli (GPa) = 107.94060 89.26043 87.80289
#
# Poissons Ratio (x) = 0.20110 0.18382
# Poissons Ratio (y) = 0.24318 0.38028
# Poissons Ratio (z) = 0.22598 0.38660
#
# Static dielectric constant tensor:
#      x y z
#    x 4.301190 0.000000 0.000000 
#    y 0.000000 3.877680 0.000000 
#    z 0.000000 0.000000 3.586600 
# 
# 
# High freq. dielectric constant tensor:
#      x y z
#    x 1.731680 0.000000 0.000000 
#    y 0.000000 1.700990 0.000000 
#    z 0.000000 0.000000 1.732450 
# 
# From -- ./inp_files/32458.got.cif
#   From: 2010.03.12/outbox.cif.g09.slc.cpg/sg74_17_cif.got.tgz:32458.got - 2010.04.16 15:46:19.
