data_PCOD8300351
_publ_section_title
;
Structure prediction by ZEFSAII (Michael W. Deem and Ramdas Pophale) SiO2 
 PCOD8300351
Probable space group: I M M A
;
_chemical_formula_sum "Si O2"
_cell_formula_units_Z 72
_cell_length_a 26.890077
_cell_length_b 8.740116
_cell_length_c 14.567139
_cell_angle_alpha 90.000000
_cell_angle_beta 90.000000
_cell_angle_gamma 90.000000
_cell_volume 3423.603856
_symmetry_space_group_name_H-M "I M M A"
_symmetry_group_IT_number 74
_symmetry_cell_setting 'orthorhombic'
loop_
_space_group_symop_operation_xyz
x,y,z
-x,1/2-y,z
x,-y,-z
-x,1/2+y,-z
-x,-y,-z
x,1/2+y,-z
-x,y,z
x,1/2-y,z
1/2+x,1/2+y,1/2+z
1/2-x,-y,1/2+z
1/2+x,1/2-y,1/2-z
1/2-x,y,1/2-z
1/2-x,1/2-y,1/2-z
1/2+x,y,1/2-z
1/2-x,1/2+y,1/2+z
1/2+x,-y,1/2+z
loop_
_atom_site_type_symbol
_atom_site_label
_atom_site_fract_x
_atom_site_fract_y
_atom_site_fract_z
Si Si1 0.500000 0.931899 0.102255
Si Si2 0.765862 0.431035 0.848880
Si Si3 0.624500 0.567766 0.402476
Si Si4 0.170394 0.073691 0.413368
Si Si5 0.413816 0.571066 0.775923
O O1 0.500000 0.750000 0.094267
O O2 0.547574 0.986739 0.158827
O O3 0.500000 0.000000 0.000000
O O4 0.766039 0.250000 0.848886
O O5 0.750000 0.497123 0.750000
O O6 0.819808 0.491736 0.880154
O O7 0.724081 0.493710 0.916297
O O8 0.607503 0.500000 0.500000
O O9 0.620851 0.750000 0.404091
O O10 0.586919 0.502662 0.325331
O O11 0.177842 0.250000 0.432290
O O12 0.140507 0.043521 0.319838
O O13 0.140749 0.000000 0.500000
O O14 0.427386 0.750000 0.769664
#
# Coordination Sequence:
#
# PCOD8300351 Si02
#       5
#     8  16  16  16  16
#     4  12  26  46  73 102 131 164 202 252 316 380
#     4  10  20  36  58  86 123 167 212 260 310 364
#     4  11  23  40  63  91 127 171 217 264 316 373
#     4  11  23  36  57  87 122 163 207 255 308 369
#     4  11  24  43  66  94 126 163 208 260 316 377
#
# _framework density 21.030470999999999
#
# number of rings (size 3 to 8) (size 9 to 14) (size 15 to 20)
#    0.000    1.111    2.222    4.333    0.000    8.444 
#    0.000    0.556    0.000    0.000    0.000    0.000 
#    0.000    0.000    0.000    0.000    0.000    0.000 
#
# Total GULP energy -446438.640837 kJ/mol
# GULP energy per Si atom -12401.073357 kJ/mol
# Density = 2.098260 g / cm^3
# Si number density = 21.030471 Si / 1000 Ang^3
#
#
#
# Elastic Constant Matrix: (Units=GPa)
#
#
# Indices 1 2 3 4 5 6 
#
# 1 81.0099 35.3344 43.9326 0.0000 0.0000 0.0000
# 2 35.3344 54.2872 51.6904 0.0000 0.0000 0.0000
# 3 43.9326 51.6904 178.0598 0.0000 0.0000 0.0000
# 4 0.0000 0.0000 0.0000 40.0682 0.0000 0.0000
# 5 0.0000 0.0000 0.0000 0.0000 34.6257 0.0000
# 6 0.0000 0.0000 0.0000 0.0000 0.0000 26.0800
#
#
#
# Elastic Compliance Matrix: (Units=1/GPa)
#
#
# Indices 1 2 3 4 5 6 
#
# 1 0.017486 -0.010052 -0.001396 0.000000 0.000000 0.000000
# 2 -0.010052 0.031235 -0.006588 0.000000 0.000000 0.000000
# 3 -0.001396 -0.006588 0.007873 0.000000 0.000000 0.000000
# 4 0.000000 0.000000 0.000000 0.024957 0.000000 0.000000
# 5 0.000000 0.000000 0.000000 0.000000 0.028880 0.000000
# 6 0.000000 0.000000 0.000000 0.000000 0.000000 0.038344
#
#
# Mechanical properties :
#
#
# Convention : Reuss Voigt Hill
#
# Bulk Modulus (GPa) = 48.72541 63.91907 56.32224
# Shear Modulus (GPa) = 26.08418 32.31473 29.19946
#
# Velocity S-wave (km/s) = 3.52562 3.92416 3.73021
# Velocity P-wave (km/s) = 6.30813 7.14084 6.73736
#
# Compressibility (1/GPa) = 0.02052317
#
# Stress axis : x y z
#
# Youngs Moduli (GPa) = 57.18988 32.01502 127.01727
#
# Poissons Ratio (x) = 0.32180 0.17735
# Poissons Ratio (y) = 0.57485 0.83673
# Poissons Ratio (z) = 0.07985 0.21090
#
# Static dielectric constant tensor:
#      x y z
#    x 3.710240 0.000000 0.000000 
#    y 0.000000 3.725880 0.000000 
#    z 0.000000 0.000000 4.008220 
# 
# 
# High freq. dielectric constant tensor:
#      x y z
#    x 1.804250 0.000000 0.000000 
#    y 0.000000 1.827720 0.000000 
#    z 0.000000 0.000000 1.845060 
# 
# From -- ./inp_files/37054.got.cif
#   From: 2010.03.12/outbox.cif.g09.slc.cpg/sg74_19_cif.got.tgz:37054.got - 2010.04.16 15:46:19.
