data_PCOD8300293
_publ_section_title
;
Structure prediction by ZEFSAII (Michael W. Deem and Ramdas Pophale) SiO2 
 PCOD8300293
Probable space group: I M M A
;
_chemical_formula_sum "Si O2"
_cell_formula_units_Z 60
_cell_length_a 13.090524
_cell_length_b 20.471453
_cell_length_c 11.748498
_cell_angle_alpha 90.000000
_cell_angle_beta 90.000000
_cell_angle_gamma 90.000000
_cell_volume 3148.386541
_symmetry_space_group_name_H-M "I M M A"
_symmetry_group_IT_number 74
_symmetry_cell_setting 'orthorhombic'
loop_
_space_group_symop_operation_xyz
x,y,z
-x,1/2-y,z
x,-y,-z
-x,1/2+y,-z
-x,-y,-z
x,1/2+y,-z
-x,y,z
x,1/2-y,z
1/2+x,1/2+y,1/2+z
1/2-x,-y,1/2+z
1/2+x,1/2-y,1/2-z
1/2-x,y,1/2-z
1/2-x,1/2-y,1/2-z
1/2+x,y,1/2-z
1/2-x,1/2+y,1/2+z
1/2+x,-y,1/2+z
loop_
_atom_site_type_symbol
_atom_site_label
_atom_site_fract_x
_atom_site_fract_y
_atom_site_fract_z
Si Si1 0.791188 0.750000 0.377760
Si Si2 0.500000 0.519199 0.660729
Si Si3 0.500000 0.112165 0.761239
Si Si4 0.000000 0.250000 0.721187
Si Si5 0.324582 0.612362 0.055703
Si Si6 0.500000 0.435956 0.080666
Si Si7 0.326535 0.000000 0.500000
O O1 0.750000 0.750000 0.250000
O O2 0.912169 0.750000 0.371884
O O3 0.763580 0.817746 0.443465
O O4 0.500000 0.440083 0.661799
O O5 0.500000 0.547673 0.786726
O O6 0.602814 0.537936 0.592657
O O7 0.500000 0.184442 0.702289
O O8 0.603026 0.104249 0.834540
O O9 0.242388 0.554542 0.060766
O O10 0.397196 0.605541 0.944420
O O11 0.500000 0.500000 0.000000
#
# Coordination Sequence:
#
# PCOD8300293 Si02
#       7
#     8   8   8   4  16   8   8
#     4  10  22  34  58  91 117 148 187 241 301 342
#     4  11  23  36  52  82 117 152 195 232 291 344
#     4   9  17  33  56  78 116 142 183 227 277 355
#     4   8  18  30  48  86 110 146 168 224 302 336
#     4  10  20  36  56  87 114 147 190 232 296 342
#     4  11  19  36  59  83 109 152 199 236 279 342
#     4  11  24  35  54  84 122 155 182 245 288 342
#
# _framework density 19.057379999999998
#
# number of rings (size 3 to 8) (size 9 to 14) (size 15 to 20)
#    0.000    1.867    4.000    0.800    7.467    3.200 
#    0.000    0.000    0.000    4.800    0.000    0.000 
#    0.000    0.000    0.000    0.000    0.000    0.000 
#
# Total GULP energy -371683.949314 kJ/mol
# GULP energy per Si atom -12389.464977 kJ/mol
# Density = 1.901400 g / cm^3
# Si number density = 19.057380 Si / 1000 Ang^3
#
#
#
# Elastic Constant Matrix: (Units=GPa)
#
#
# Indices 1 2 3 4 5 6 
#
# 1 99.7330 35.3617 31.9842 0.0000 0.0000 0.0000
# 2 35.3617 131.0491 26.9110 0.0000 0.0000 0.0000
# 3 31.9842 26.9110 91.6650 0.0000 0.0001 0.0000
# 4 0.0000 0.0000 0.0000 24.4315 0.0000 0.0000
# 5 0.0000 0.0000 0.0001 0.0000 6.9127 0.0000
# 6 0.0000 0.0000 0.0000 0.0000 0.0000 10.7323
#
#
#
# Elastic Compliance Matrix: (Units=1/GPa)
#
#
# Indices 1 2 3 4 5 6 
#
# 1 0.012034 -0.002538 -0.003454 0.000000 0.000000 0.000000
# 2 -0.002538 0.008656 -0.001656 0.000000 0.000000 0.000000
# 3 -0.003454 -0.001656 0.012600 0.000000 0.000000 0.000000
# 4 0.000000 0.000000 0.000000 0.040931 0.000000 0.000000
# 5 0.000000 0.000000 0.000000 0.000000 0.144660 0.000000
# 6 0.000000 0.000000 0.000000 0.000000 0.000000 0.093177
#
#
# Mechanical properties :
#
#
# Convention : Reuss Voigt Hill
#
# Bulk Modulus (GPa) = 55.56987 56.77343 56.17165
# Shear Modulus (GPa) = 14.99918 23.62798 19.31358
#
# Velocity S-wave (km/s) = 2.80849 3.52495 3.18692
# Velocity P-wave (km/s) = 6.30392 6.81340 6.56361
#
# Compressibility (1/GPa) = 0.01799536
#
# Stress axis : x y z
#
# Youngs Moduli (GPa) = 83.09552 115.53300 79.36201
#
# Poissons Ratio (x) = 0.29322 0.27411
# Poissons Ratio (y) = 0.21090 0.13138
# Poissons Ratio (z) = 0.28701 0.19127
#
# Static dielectric constant tensor:
#      x y z
#    x 3.883170 0.000000 0.000000 
#    y 0.000000 4.080980 0.000000 
#    z 0.000000 0.000000 3.153470 
# 
# 
# High freq. dielectric constant tensor:
#      x y z
#    x 1.753040 0.000000 0.000000 
#    y 0.000000 1.739740 0.000000 
#    z 0.000000 0.000000 1.695180 
# 
# From -- ./inp_files/18701.got.cif
#   From: 2010.03.12/outbox.cif.g09.slc.cpg/sg74_10_cif.got.tgz:18701.got - 2010.04.16 15:46:19.
