data_PCOD8300646
_publ_section_title
;
Structure prediction by ZEFSAII (Michael W. Deem and Ramdas Pophale) SiO2 
 PCOD8300646
Probable space group: I M M A
;
_chemical_formula_sum "Si O2"
_cell_formula_units_Z 60
_cell_length_a 24.283613
_cell_length_b 15.480071
_cell_length_c 8.470359
_cell_angle_alpha 90.000000
_cell_angle_beta 90.000000
_cell_angle_gamma 90.000000
_cell_volume 3184.110045
_symmetry_space_group_name_H-M "I M M A"
_symmetry_group_IT_number 74
_symmetry_cell_setting 'orthorhombic'
loop_
_space_group_symop_operation_xyz
x,y,z
-x,1/2-y,z
x,-y,-z
-x,1/2+y,-z
-x,-y,-z
x,1/2+y,-z
-x,y,z
x,1/2-y,z
1/2+x,1/2+y,1/2+z
1/2-x,-y,1/2+z
1/2+x,1/2-y,1/2-z
1/2-x,y,1/2-z
1/2-x,1/2-y,1/2-z
1/2+x,y,1/2-z
1/2-x,1/2+y,1/2+z
1/2+x,-y,1/2+z
loop_
_atom_site_type_symbol
_atom_site_label
_atom_site_fract_x
_atom_site_fract_y
_atom_site_fract_z
Si Si1 0.105887 0.344077 0.798125
Si Si2 0.500000 0.397524 0.517410
Si Si3 0.500000 0.750000 0.748970
Si Si4 0.730398 0.250000 0.073791
Si Si5 0.397350 0.250000 0.007150
Si Si6 0.782471 0.914322 0.096418
O O1 0.120580 0.250000 0.868416
O O2 0.097486 0.335117 0.606840
O O3 0.154483 0.405421 0.852276
O O4 0.051251 0.377354 0.875391
O O5 0.500000 0.500000 0.500000
O O6 0.500000 0.337939 0.357839
O O7 0.444780 0.750000 0.858253
O O8 0.750000 0.250000 0.250000
O O9 0.663914 0.250000 0.079797
O O10 0.754868 0.166795 0.988339
O O11 0.750000 0.934920 0.250000
O O12 0.777114 0.000000 0.000000
#
# Coordination Sequence:
#
# PCOD8300646 Si02
#       6
#    16   8   4   8   8  16
#     4  10  20  44  70  86 130 177 214 261 341 380
#     4  12  25  43  67  97 129 174 222 278 334 394
#     4  12  24  44  68 102 128 164 234 278 320 394
#     4  12  24  41  65  96 136 172 222 267 334 395
#     4  10  22  42  72  93 129 178 217 278 326 382
#     4  12  23  43  65 100 134 176 216 273 327 400
#
# _framework density 18.843568999999999
#
# number of rings (size 3 to 8) (size 9 to 14) (size 15 to 20)
#    0.800    0.000    5.333    2.800    3.733    0.000 
#    4.800    2.667    0.000    0.000    0.000    0.000 
#    0.000    0.000    0.000    0.000    0.000    0.000 
#
# Total GULP energy -371652.000916 kJ/mol
# GULP energy per Si atom -12388.400031 kJ/mol
# Density = 1.880068 g / cm^3
# Si number density = 18.843569 Si / 1000 Ang^3
#
#
#
# Elastic Constant Matrix: (Units=GPa)
#
#
# Indices 1 2 3 4 5 6 
#
# 1 183.2778 49.6368 104.5424 0.0000 0.0000 0.0000
# 2 49.6368 143.0842 79.6399 0.0000 0.0000 0.0000
# 3 104.5424 79.6399 151.2107 0.0000 0.0000 0.0000
# 4 0.0000 0.0000 0.0000 31.8328 0.0000 0.0000
# 5 0.0000 0.0000 0.0000 0.0000 45.4301 0.0000
# 6 0.0000 0.0000 0.0000 0.0000 0.0000 34.5836
#
#
#
# Elastic Compliance Matrix: (Units=1/GPa)
#
#
# Indices 1 2 3 4 5 6 
#
# 1 0.009033 0.000484 -0.006500 0.000000 0.000000 0.000000
# 2 0.000484 0.009913 -0.005556 0.000000 0.000000 0.000000
# 3 -0.006500 -0.005556 0.014033 0.000000 0.000000 0.000000
# 4 0.000000 0.000000 0.000000 0.031414 0.000000 0.000000
# 5 0.000000 0.000000 0.000000 0.000000 0.022012 0.000000
# 6 0.000000 0.000000 0.000000 0.000000 0.000000 0.028915
#
#
# Mechanical properties :
#
#
# Convention : Reuss Voigt Hill
#
# Bulk Modulus (GPa) = 101.66652 105.02344 103.34498
# Shear Modulus (GPa) = 35.27513 38.61953 36.94733
#
# Velocity S-wave (km/s) = 4.33135 4.53203 4.43283
# Velocity P-wave (km/s) = 8.89293 9.12366 9.00903
#
# Compressibility (1/GPa) = 0.00983608
#
# Stress axis : x y z
#
# Youngs Moduli (GPa) = 110.70962 100.87429 71.25823
#
# Poissons Ratio (x) = -0.04886 0.46318
# Poissons Ratio (y) = -0.05363 0.39591
# Poissons Ratio (z) = 0.71961 0.56046
#
# Static dielectric constant tensor:
#      x y z
#    x 3.617680 0.000000 0.000000 
#    y 0.000000 3.573040 0.000000 
#    z 0.000000 0.000000 3.359350 
# 
# 
# High freq. dielectric constant tensor:
#      x y z
#    x 1.756720 0.000000 0.000000 
#    y 0.000000 1.726240 0.000000 
#    z 0.000000 0.000000 1.740090 
# 
# From -- ./inp_files/11870.got.cif
#   From: 2010.03.12/outbox.cif.g09.slc.cpg/sg74_6_cif.got.tgz:11870.got - 2010.04.16 15:46:19.
