data_PCOD8300598
_publ_section_title
;
Structure prediction by ZEFSAII (Michael W. Deem and Ramdas Pophale) SiO2 
 PCOD8300598
Probable space group: I M M A
;
_chemical_formula_sum "Si O2"
_cell_formula_units_Z 56
_cell_length_a 7.833045
_cell_length_b 17.165081
_cell_length_c 21.964824
_cell_angle_alpha 90.000000
_cell_angle_beta 90.000000
_cell_angle_gamma 90.000000
_cell_volume 2953.277158
_symmetry_space_group_name_H-M "I M M A"
_symmetry_group_IT_number 74
_symmetry_cell_setting 'orthorhombic'
loop_
_space_group_symop_operation_xyz
x,y,z
-x,1/2-y,z
x,-y,-z
-x,1/2+y,-z
-x,-y,-z
x,1/2+y,-z
-x,y,z
x,1/2-y,z
1/2+x,1/2+y,1/2+z
1/2-x,-y,1/2+z
1/2+x,1/2-y,1/2-z
1/2-x,y,1/2-z
1/2-x,1/2-y,1/2-z
1/2+x,y,1/2-z
1/2-x,1/2+y,1/2+z
1/2+x,-y,1/2+z
loop_
_atom_site_type_symbol
_atom_site_label
_atom_site_fract_x
_atom_site_fract_y
_atom_site_fract_z
Si Si1 0.000000 0.841250 0.885282
Si Si2 0.000000 0.910698 0.015809
Si Si3 0.195398 0.102964 0.607370
Si Si4 0.813262 0.963760 0.817544
Si Si5 0.301160 0.750000 0.181117
O O1 0.831938 0.881943 0.854769
O O2 0.000000 0.750000 0.870870
O O3 0.000000 0.855013 0.957452
O O4 0.823684 0.896578 0.051033
O O5 0.000000 0.000000 0.000000
O O6 0.267884 0.172120 0.649521
O O7 0.000000 0.116766 0.584781
O O8 0.193017 0.022682 0.645715
O O9 0.750000 0.945089 0.750000
O O10 0.000000 0.004260 0.813419
O O11 0.500000 0.750000 0.174924
O O12 0.250000 0.750000 0.250000
#
# Coordination Sequence:
#
# PCOD8300598 Si02
#       5
#     8   8  16  16   8
#     4  10  24  42  64  95 129 171 215 274 321 376
#     4  12  22  46  64  94 128 169 226 255 318 392
#     4  11  23  40  64  95 131 171 216 263 315 382
#     4  10  20  39  63  91 126 161 217 256 326 387
#     4  10  24  38  58 100 134 170 214 256 318 382
#
# _framework density 18.961986
#
# number of rings (size 3 to 8) (size 9 to 14) (size 15 to 20)
#    0.857    0.571    4.286    1.714    4.000    3.429 
#    0.000    0.000    0.000    3.429    0.000    0.000 
#    0.000    0.000    0.000    0.000    0.000    0.000 
#
# Total GULP energy -347008.742632 kJ/mol
# GULP energy per Si atom -12393.169380 kJ/mol
# Density = 1.891883 g / cm^3
# Si number density = 18.961986 Si / 1000 Ang^3
#
#
#
# Elastic Constant Matrix: (Units=GPa)
#
#
# Indices 1 2 3 4 5 6 
#
# 1 94.4194 24.4156 48.0709 0.0000 0.0000 0.0000
# 2 24.4156 151.3198 56.1834 0.0000 0.0000 0.0000
# 3 48.0709 56.1834 147.6305 0.0000 0.0000 0.0000
# 4 0.0000 0.0000 0.0000 32.9743 0.0000 0.0000
# 5 0.0000 0.0000 0.0000 0.0000 43.2798 0.0000
# 6 0.0000 0.0000 0.0000 0.0000 0.0000 23.3865
#
#
#
# Elastic Compliance Matrix: (Units=1/GPa)
#
#
# Indices 1 2 3 4 5 6 
#
# 1 0.012742 -0.000600 -0.003921 0.000000 0.000000 0.000000
# 2 -0.000600 0.007724 -0.002744 0.000000 0.000000 0.000000
# 3 -0.003921 -0.002744 0.009095 0.000000 0.000000 0.000000
# 4 0.000000 0.000000 0.000000 0.030327 0.000000 0.000000
# 5 0.000000 0.000000 0.000000 0.000000 0.023105 0.000000
# 6 0.000000 0.000000 0.000000 0.000000 0.000000 0.042760
#
#
# Mechanical properties :
#
#
# Convention : Reuss Voigt Hill
#
# Bulk Modulus (GPa) = 66.52895 72.30106 69.41501
# Shear Modulus (GPa) = 34.41308 37.57477 35.99393
#
# Velocity S-wave (km/s) = 4.26472 4.45633 4.36158
# Velocity P-wave (km/s) = 7.70792 8.04305 7.87727
#
# Compressibility (1/GPa) = 0.01503105
#
# Stress axis : x y z
#
# Youngs Moduli (GPa) = 78.47837 129.46246 109.95505
#
# Poissons Ratio (x) = 0.07772 0.43110
# Poissons Ratio (y) = 0.04711 0.30173
# Poissons Ratio (z) = 0.30769 0.35526
#
# Static dielectric constant tensor:
#      x y z
#    x 3.368000 0.000000 0.000000 
#    y 0.000000 3.488950 0.000000 
#    z 0.000000 0.000000 3.381260 
# 
# 
# High freq. dielectric constant tensor:
#      x y z
#    x 1.731690 0.000000 0.000000 
#    y 0.000000 1.733960 0.000000 
#    z 0.000000 0.000000 1.742090 
# 
# From -- ./inp_files/38893.got.cif
#   From: 2010.03.12/outbox.cif.g09.slc.cpg/sg74_20_cif.got.tgz:38893.got - 2010.04.16 15:46:19.
