data_PCOD8300150
_publ_section_title
;
Structure prediction by ZEFSAII (Michael W. Deem and Ramdas Pophale) SiO2 
 PCOD8300150
Probable space group: I M M A
;
_chemical_formula_sum "Si O2"
_cell_formula_units_Z 88
_cell_length_a 8.705170
_cell_length_b 22.319284
_cell_length_c 24.418582
_cell_angle_alpha 90.000000
_cell_angle_beta 90.000000
_cell_angle_gamma 90.000000
_cell_volume 4744.363496
_symmetry_space_group_name_H-M "I M M A"
_symmetry_group_IT_number 74
_symmetry_cell_setting 'orthorhombic'
loop_
_space_group_symop_operation_xyz
x,y,z
-x,1/2-y,z
x,-y,-z
-x,1/2+y,-z
-x,-y,-z
x,1/2+y,-z
-x,y,z
x,1/2-y,z
1/2+x,1/2+y,1/2+z
1/2-x,-y,1/2+z
1/2+x,1/2-y,1/2-z
1/2-x,y,1/2-z
1/2-x,1/2-y,1/2-z
1/2+x,y,1/2-z
1/2-x,1/2+y,1/2+z
1/2+x,-y,1/2+z
loop_
_atom_site_type_symbol
_atom_site_label
_atom_site_fract_x
_atom_site_fract_y
_atom_site_fract_z
Si Si1 0.181058 0.597234 0.691556
Si Si2 0.178935 0.680078 0.486923
Si Si3 0.821265 0.528347 0.192742
Si Si4 0.178628 0.356651 0.877524
Si Si5 0.822766 0.679740 0.898302
Si Si6 0.180928 0.250000 0.690127
O O1 0.250000 0.615628 0.750000
O O2 0.243435 0.532788 0.672245
O O3 0.226679 0.647141 0.648143
O O4 0.000000 0.594144 0.696916
O O5 0.207091 0.750000 0.474921
O O6 0.257305 0.642166 0.438933
O O7 0.258464 0.659838 0.542964
O O8 0.000000 0.664749 0.490246
O O9 0.750000 0.550588 0.250000
O O10 0.791452 0.577850 0.146803
O O11 0.000000 0.516279 0.202399
O O12 0.268874 0.308928 0.841629
O O13 0.000000 0.339445 0.877379
O O14 0.798732 0.750000 0.889492
O O15 0.000000 0.661082 0.894446
O O16 0.250000 0.250000 0.750000
O O17 0.000000 0.250000 0.695131
#
# Coordination Sequence:
#
# PCOD8300150 Si02
#       6
#    16  16  16  16  16   8
#     4  11  22  38  61  86 115 149 184 228 278 337
#     4  10  20  35  56  83 114 150 189 232 282 336
#     4  10  21  37  57  81 110 148 190 233 281 338
#     4  11  22  36  56  81 111 149 192 236 284 336
#     4  10  21  38  61  87 116 149 184 228 279 334
#     4  12  24  36  52  78 112 148 189 242 291 336
#
# _framework density 18.548327
#
# number of rings (size 3 to 8) (size 9 to 14) (size 15 to 20)
#    0.000    1.455    0.909    6.273    0.000    6.545 
#    0.000    0.909    0.000    5.455    0.000    0.000 
#    0.000    0.000    0.000    0.000    0.000    0.000 
#
# Total GULP energy -545851.734675 kJ/mol
# GULP energy per Si atom -12405.721243 kJ/mol
# Density = 1.850611 g / cm^3
# Si number density = 18.548327 Si / 1000 Ang^3
#
#
#
# Elastic Constant Matrix: (Units=GPa)
#
#
# Indices 1 2 3 4 5 6 
#
# 1 151.1718 56.4558 65.6219 0.0000 0.0000 0.0000
# 2 56.4558 71.1945 68.0245 0.0000 0.0000 0.0000
# 3 65.6219 68.0245 138.1285 0.0000 0.0000 0.0000
# 4 0.0000 0.0000 0.0000 37.4595 0.0000 0.0000
# 5 0.0000 0.0000 0.0000 0.0000 38.5215 0.0000
# 6 0.0000 0.0000 0.0000 0.0000 0.0000 27.9104
#
#
#
# Elastic Compliance Matrix: (Units=1/GPa)
#
#
# Indices 1 2 3 4 5 6 
#
# 1 0.009566 -0.006126 -0.001528 0.000000 0.000000 0.000000
# 2 -0.006126 0.030452 -0.012087 0.000000 0.000000 0.000000
# 3 -0.001528 -0.012087 0.013918 0.000000 0.000000 0.000000
# 4 0.000000 0.000000 0.000000 0.026696 0.000000 0.000000
# 5 0.000000 0.000000 0.000000 0.000000 0.025960 0.000000
# 6 0.000000 0.000000 0.000000 0.000000 0.000000 0.035829
#
#
# Mechanical properties :
#
#
# Convention : Reuss Voigt Hill
#
# Bulk Modulus (GPa) = 69.17821 82.29991 75.73906
# Shear Modulus (GPa) = 26.77829 32.13778 29.45804
#
# Velocity S-wave (km/s) = 3.80373 4.16703 3.98952
# Velocity P-wave (km/s) = 7.52784 8.22308 7.88313
#
# Compressibility (1/GPa) = 0.01445542
#
# Stress axis : x y z
#
# Youngs Moduli (GPa) = 104.53818 32.83850 71.85076
#
# Poissons Ratio (x) = 0.20116 0.10977
# Poissons Ratio (y) = 0.64038 0.86843
# Poissons Ratio (z) = 0.15971 0.39690
#
# Static dielectric constant tensor:
#      x y z
#    x 3.630890 0.000000 0.000000 
#    y 0.000000 3.307780 0.000000 
#    z 0.000000 0.000000 3.459730 
# 
# 
# High freq. dielectric constant tensor:
#      x y z
#    x 1.743310 0.000000 0.000000 
#    y 0.000000 1.708020 0.000000 
#    z 0.000000 0.000000 1.726890 
# 
# From -- ./inp_files/56950.got.cif
#   From: 2010.03.12/outbox.cif.g09.slc.cpg/sg74_29_cif.got.tgz:56950.got - 2010.04.16 15:46:19.
