data_PCOD8300197
_publ_section_title
;
Structure prediction by ZEFSAII (Michael W. Deem and Ramdas Pophale) SiO2 
 PCOD8300197
Probable space group: I M M A
;
_chemical_formula_sum "Si O2"
_cell_formula_units_Z 96
_cell_length_a 8.650316
_cell_length_b 24.487433
_cell_length_c 22.261202
_cell_angle_alpha 90.000000
_cell_angle_beta 90.000000
_cell_angle_gamma 90.000000
_cell_volume 4715.457598
_symmetry_space_group_name_H-M "I M M A"
_symmetry_group_IT_number 74
_symmetry_cell_setting 'orthorhombic'
loop_
_space_group_symop_operation_xyz
x,y,z
-x,1/2-y,z
x,-y,-z
-x,1/2+y,-z
-x,-y,-z
x,1/2+y,-z
-x,y,z
x,1/2-y,z
1/2+x,1/2+y,1/2+z
1/2-x,-y,1/2+z
1/2+x,1/2-y,1/2-z
1/2-x,y,1/2-z
1/2-x,1/2-y,1/2-z
1/2+x,y,1/2-z
1/2-x,1/2+y,1/2+z
1/2+x,-y,1/2+z
loop_
_atom_site_type_symbol
_atom_site_label
_atom_site_fract_x
_atom_site_fract_y
_atom_site_fract_z
Si Si1 0.324134 0.558808 0.483876
Si Si2 0.315849 0.437898 0.186498
Si Si3 0.817789 0.334597 0.688847
Si Si4 0.677399 0.554955 0.344014
Si Si5 0.818762 0.134936 0.422248
Si Si6 0.816602 0.750000 0.533271
Si Si7 0.182988 0.250000 0.900527
O O1 0.252012 0.500000 0.500000
O O2 0.500000 0.561569 0.507358
O O3 0.312036 0.568627 0.413777
O O4 0.227644 0.605202 0.516522
O O5 0.500000 0.439495 0.188371
O O6 0.250000 0.417618 0.250000
O O7 0.253642 0.497584 0.171227
O O8 0.250363 0.395502 0.136464
O O9 0.750000 0.308294 0.750000
O O10 0.772397 0.398200 0.689340
O O11 0.746156 0.304230 0.631578
O O12 0.000000 0.326876 0.687571
O O13 0.500000 0.554656 0.321865
O O14 0.762845 0.197604 0.427613
O O15 0.000000 0.132750 0.416494
O O16 0.733638 0.750000 0.469369
O O17 0.000000 0.750000 0.521779
O O18 0.000000 0.250000 0.897245
#
# Coordination Sequence:
#
# PCOD8300197 Si02
#       7
#    16  16  16  16  16   8   8
#     4  10  20  35  57  87 121 156 192 240 299 354
#     4  11  23  39  59  86 118 158 200 247 302 362
#     4  12  25  42  62  87 121 163 208 253 298 351
#     4  11  22  38  60  89 124 161 200 247 300 360
#     4  10  22  39  62  89 120 156 200 247 297 357
#     4  10  22  43  66  91 121 158 198 248 305 358
#     4  12  25  43  64  91 122 158 202 248 299 356
#
# _framework density 20.358575999999999
#
# number of rings (size 3 to 8) (size 9 to 14) (size 15 to 20)
#    0.000    1.167    1.667    5.000    0.000    5.667 
#    0.000    0.417    0.000    0.000    0.000    0.000 
#    0.000    0.000    0.000    0.000    0.000    0.000 
#
# Total GULP energy -595359.195051 kJ/mol
# GULP energy per Si atom -12403.316564 kJ/mol
# Density = 2.031224 g / cm^3
# Si number density = 20.358576 Si / 1000 Ang^3
#
#
#
# Elastic Constant Matrix: (Units=GPa)
#
#
# Indices 1 2 3 4 5 6 
#
# 1 82.5173 43.5407 43.4607 0.0000 0.0000 0.0000
# 2 43.5407 144.9417 51.8901 0.0000 0.0000 0.0000
# 3 43.4607 51.8901 115.7097 0.0000 0.0000 0.0000
# 4 0.0000 0.0000 0.0000 31.7037 0.0000 0.0000
# 5 0.0000 0.0000 0.0000 0.0000 31.3812 0.0000
# 6 0.0000 0.0000 0.0000 0.0000 0.0000 7.0237
#
#
#
# Elastic Compliance Matrix: (Units=1/GPa)
#
#
# Indices 1 2 3 4 5 6 
#
# 1 0.016276 -0.003217 -0.004671 0.000000 0.000000 0.000000
# 2 -0.003217 0.008855 -0.002763 0.000000 0.000000 0.000000
# 3 -0.004671 -0.002763 0.011635 0.000000 0.000000 0.000000
# 4 0.000000 0.000000 0.000000 0.031542 0.000000 0.000000
# 5 0.000000 0.000000 0.000000 0.000000 0.031866 0.000000
# 6 0.000000 0.000000 0.000000 0.000000 0.000000 0.142375
#
#
# Mechanical properties :
#
#
# Convention : Reuss Voigt Hill
#
# Bulk Modulus (GPa) = 64.65928 68.99464 66.82696
# Shear Modulus (GPa) = 18.58696 27.64020 23.11358
#
# Velocity S-wave (km/s) = 3.02483 3.68865 3.37311
# Velocity P-wave (km/s) = 6.63541 7.21837 6.93302
#
# Compressibility (1/GPa) = 0.01546568
#
# Stress axis : x y z
#
# Youngs Moduli (GPa) = 61.43936 112.93291 85.94435
#
# Poissons Ratio (x) = 0.36334 0.40141
# Poissons Ratio (y) = 0.19767 0.23742
# Poissons Ratio (z) = 0.28696 0.31198
#
# Static dielectric constant tensor:
#      x y z
#    x 3.683480 0.000000 0.000000 
#    y 0.000000 3.916750 0.000000 
#    z 0.000000 0.000000 3.661720 
# 
# 
# High freq. dielectric constant tensor:
#      x y z
#    x 1.794740 0.000000 0.000000 
#    y 0.000000 1.801220 0.000000 
#    z 0.000000 0.000000 1.802250 
# 
# From -- ./inp_files/57314.got.cif
#   From: 2010.03.12/outbox.cif.g09.slc.cpg/sg74_29_cif.got.tgz:57314.got - 2010.04.16 15:46:19.
