data_PCOD8300430
_publ_section_title
;
Structure prediction by ZEFSAII (Michael W. Deem and Ramdas Pophale) SiO2 
 PCOD8300430
Probable space group: I M M A
;
_chemical_formula_sum "Si O2"
_cell_formula_units_Z 44
_cell_length_a 11.388190
_cell_length_b 7.612746
_cell_length_c 28.675422
_cell_angle_alpha 90.000000
_cell_angle_beta 90.000000
_cell_angle_gamma 90.000000
_cell_volume 2486.027119
_symmetry_space_group_name_H-M "I M M A"
_symmetry_group_IT_number 74
_symmetry_cell_setting 'orthorhombic'
loop_
_space_group_symop_operation_xyz
x,y,z
-x,1/2-y,z
x,-y,-z
-x,1/2+y,-z
-x,-y,-z
x,1/2+y,-z
-x,y,z
x,1/2-y,z
1/2+x,1/2+y,1/2+z
1/2-x,-y,1/2+z
1/2+x,1/2-y,1/2-z
1/2-x,y,1/2-z
1/2-x,1/2-y,1/2-z
1/2+x,y,1/2-z
1/2-x,1/2+y,1/2+z
1/2+x,-y,1/2+z
loop_
_atom_site_type_symbol
_atom_site_label
_atom_site_fract_x
_atom_site_fract_y
_atom_site_fract_z
Si Si1 0.000000 0.046879 0.697965
Si Si2 0.500000 0.750000 0.726849
Si Si3 0.370176 0.250000 0.362708
Si Si4 0.806351 0.947815 0.376985
Si Si5 0.000000 0.044593 0.446152
O O1 0.885433 0.002087 0.667594
O O2 0.000000 0.250000 0.713623
O O3 0.000000 0.926738 0.743263
O O4 0.384135 0.750000 0.693778
O O5 0.500000 0.250000 0.386142
O O6 0.303533 0.423229 0.379771
O O7 0.758081 0.750000 0.372585
O O8 0.883869 0.960964 0.423625
O O9 0.000000 0.250000 0.436210
O O10 0.000000 0.000000 0.500000
#
# Coordination Sequence:
#
# PCOD8300430 Si02
#       5
#     8   4   8  16   8
#     4   9  19  33  54  82 113 142 188 250 300 325
#     4  10  22  34  52  78 112 152 216 224 268 328
#     4  10  23  37  52  78 110 166 200 230 264 336
#     4  10  20  37  57  82 116 149 181 236 299 332
#     4  11  20  35  63  97 117 130 173 229 297 352
#
# _framework density 17.698923000000001
#
# number of rings (size 3 to 8) (size 9 to 14) (size 15 to 20)
#    0.545    1.455    1.818    3.818    2.545    5.091 
#    0.000    3.636    0.000    1.091    0.000    0.000 
#    0.000    0.000    0.000    0.000    0.000    0.000 
#
# Total GULP energy -272803.374848 kJ/mol
# GULP energy per Si atom -12400.153402 kJ/mol
# Density = 1.765864 g / cm^3
# Si number density = 17.698923 Si / 1000 Ang^3
#
#
#
# Elastic Constant Matrix: (Units=GPa)
#
#
# Indices 1 2 3 4 5 6 
#
# 1 131.1246 66.6449 38.5485 0.0000 0.0000 0.0000
# 2 66.6449 123.5951 27.9464 0.0000 0.0000 0.0000
# 3 38.5485 27.9464 100.7014 0.0000 0.0000 0.0000
# 4 0.0000 0.0000 0.0000 27.3531 0.0000 0.0000
# 5 0.0000 0.0000 0.0000 0.0000 2.5780 0.0000
# 6 0.0000 0.0000 0.0000 0.0000 0.0000 9.7288
#
#
#
# Elastic Compliance Matrix: (Units=1/GPa)
#
#
# Indices 1 2 3 4 5 6 
#
# 1 0.011192 -0.005406 -0.002784 0.000000 0.000000 0.000000
# 2 -0.005406 0.011243 -0.001051 0.000000 0.000000 0.000000
# 3 -0.002784 -0.001051 0.011288 0.000000 0.000000 0.000000
# 4 0.000000 0.000000 0.000000 0.036559 0.000000 0.000000
# 5 0.000000 0.000000 0.000000 0.000000 0.387891 0.000000
# 6 0.000000 0.000000 0.000000 0.000000 0.000000 0.102788
#
#
# Mechanical properties :
#
#
# Convention : Reuss Voigt Hill
#
# Bulk Modulus (GPa) = 65.60876 69.07786 67.34331
# Shear Modulus (GPa) = 8.55398 22.75074 15.65236
#
# Velocity S-wave (km/s) = 2.20081 3.58918 2.97706
# Velocity P-wave (km/s) = 6.60363 7.50269 7.06747
#
# Compressibility (1/GPa) = 0.01524187
#
# Stress axis : x y z
#
# Youngs Moduli (GPa) = 89.34758 88.94158 88.59095
#
# Poissons Ratio (x) = 0.48078 0.24666
# Poissons Ratio (y) = 0.48297 0.09311
# Poissons Ratio (z) = 0.24877 0.09348
#
# Static dielectric constant tensor:
#      x y z
#    x 3.139110 0.000000 0.000000 
#    y 0.000000 3.430290 0.000000 
#    z 0.000000 0.000000 3.102950 
# 
# 
# High freq. dielectric constant tensor:
#      x y z
#    x 1.666130 0.000000 0.000000 
#    y 0.000000 1.706150 0.000000 
#    z 0.000000 0.000000 1.666050 
# 
# From -- ./inp_files/58026.got.cif
#   From: 2010.03.12/outbox.cif.g09.slc.cpg/sg74_30_cif.got.tgz:58026.got - 2010.04.16 15:46:19.
