data_PCOD8300537
_publ_section_title
;
Structure prediction by ZEFSAII (Michael W. Deem and Ramdas Pophale) SiO2 
 PCOD8300537
Probable space group: I M M A
;
_chemical_formula_sum "Si O2"
_cell_formula_units_Z 48
_cell_length_a 9.065181
_cell_length_b 7.505096
_cell_length_c 38.265693
_cell_angle_alpha 90.000000
_cell_angle_beta 90.000000
_cell_angle_gamma 90.000000
_cell_volume 2603.408477
_symmetry_space_group_name_H-M "I M M A"
_symmetry_group_IT_number 74
_symmetry_cell_setting 'orthorhombic'
loop_
_space_group_symop_operation_xyz
x,y,z
-x,1/2-y,z
x,-y,-z
-x,1/2+y,-z
-x,-y,-z
x,1/2+y,-z
-x,y,z
x,1/2-y,z
1/2+x,1/2+y,1/2+z
1/2-x,-y,1/2+z
1/2+x,1/2-y,1/2-z
1/2-x,y,1/2-z
1/2-x,1/2-y,1/2-z
1/2+x,y,1/2-z
1/2-x,1/2+y,1/2+z
1/2+x,-y,1/2+z
loop_
_atom_site_type_symbol
_atom_site_label
_atom_site_fract_x
_atom_site_fract_y
_atom_site_fract_z
Si Si1 0.170787 0.043749 0.460822
Si Si2 0.674733 0.750000 0.337707
Si Si3 0.826601 0.547841 0.785521
Si Si4 0.324601 0.250000 0.583657
O O1 0.198893 0.250000 0.452282
O O2 0.000000 0.991148 0.456349
O O3 0.222660 0.000000 0.500000
O O4 0.267224 0.928486 0.434521
O O5 0.500000 0.750000 0.339616
O O6 0.730487 0.574419 0.317288
O O7 0.738224 0.750000 0.376845
O O8 0.782265 0.750000 0.794780
O O9 0.750000 0.483753 0.750000
O O10 0.000000 0.526360 0.779826
O O11 0.500000 0.250000 0.582363
#
# Coordination Sequence:
#
# PCOD8300537 Si02
#       4
#    16   8  16   8
#     4  10  20  38  61  79 102 141 183 221 268 329
#     4   9  19  34  50  72 106 144 172 202 260 325
#     4   9  17  31  52  75 100 134 175 214 254 303
#     4  11  23  36  54  84 116 142 178 228 275 323
#
# _framework density 18.437367999999999
#
# number of rings (size 3 to 8) (size 9 to 14) (size 15 to 20)
#    0.000    2.333    1.667    1.000    0.000    2.667 
#    0.000    6.667    0.000    4.000    0.000    0.000 
#    0.000    0.000    0.000    0.000    0.000    0.000 
#
# Total GULP energy -297637.831720 kJ/mol
# GULP energy per Si atom -12401.576322 kJ/mol
# Density = 1.839540 g / cm^3
# Si number density = 18.437368 Si / 1000 Ang^3
#
#
#
# Elastic Constant Matrix: (Units=GPa)
#
#
# Indices 1 2 3 4 5 6 
#
# 1 44.6738 36.7467 48.8896 0.0000 0.0000 0.0000
# 2 36.7467 129.6539 89.8421 0.0000 0.0000 0.0000
# 3 48.8896 89.8421 181.2247 0.0000 0.0000 0.0000
# 4 0.0000 0.0000 0.0000 25.9385 0.0000 0.0000
# 5 0.0000 0.0000 0.0000 0.0000 27.2528 0.0000
# 6 0.0000 0.0000 0.0000 0.0000 0.0000 25.6914
#
#
#
# Elastic Compliance Matrix: (Units=1/GPa)
#
#
# Indices 1 2 3 4 5 6 
#
# 1 0.033731 -0.004958 -0.006642 0.000000 0.000000 0.000000
# 2 -0.004958 0.012477 -0.004848 0.000000 0.000000 0.000000
# 3 -0.006642 -0.004848 0.009713 0.000000 0.000000 0.000000
# 4 0.000000 0.000000 0.000000 0.038553 0.000000 0.000000
# 5 0.000000 0.000000 0.000000 0.000000 0.036693 0.000000
# 6 0.000000 0.000000 0.000000 0.000000 0.000000 0.038923
#
#
# Mechanical properties :
#
#
# Convention : Reuss Voigt Hill
#
# Bulk Modulus (GPa) = 43.42877 78.50103 60.96490
# Shear Modulus (GPa) = 23.73457 27.78147 25.75802
#
# Velocity S-wave (km/s) = 3.59180 3.88597 3.74178
# Velocity P-wave (km/s) = 6.38806 7.92489 7.19761
#
# Compressibility (1/GPa) = 0.02302621
#
# Stress axis : x y z
#
# Youngs Moduli (GPa) = 29.64612 80.14427 102.95061
#
# Poissons Ratio (x) = 0.39732 0.68380
# Poissons Ratio (y) = 0.14697 0.49913
# Poissons Ratio (z) = 0.19691 0.38856
#
# Static dielectric constant tensor:
#      x y z
#    x 3.152110 0.000000 0.000000 
#    y 0.000000 3.561770 0.000000 
#    z 0.000000 0.000000 3.598190 
# 
# 
# High freq. dielectric constant tensor:
#      x y z
#    x 1.692380 0.000000 0.000000 
#    y 0.000000 1.732020 0.000000 
#    z 0.000000 0.000000 1.713900 
# 
# From -- ./inp_files/69523.got.cif
#   From: 2010.03.12/outbox.cif.g09.slc.cpg/sg74_35_cif.got.tgz:69523.got - 2010.04.16 15:46:19.
