data_PCOD8300894
_publ_section_title
;
Structure prediction by ZEFSAII (Michael W. Deem and Ramdas Pophale) SiO2 
 PCOD8300894
Probable space group: I M M A
;
_chemical_formula_sum "Si O2"
_cell_formula_units_Z 80
_cell_length_a 22.718075
_cell_length_b 9.088644
_cell_length_c 19.328914
_cell_angle_alpha 90.000000
_cell_angle_beta 90.000000
_cell_angle_gamma 90.000000
_cell_volume 3990.966435
_symmetry_space_group_name_H-M "I M M A"
_symmetry_group_IT_number 74
_symmetry_cell_setting 'orthorhombic'
loop_
_space_group_symop_operation_xyz
x,y,z
-x,1/2-y,z
x,-y,-z
-x,1/2+y,-z
-x,-y,-z
x,1/2+y,-z
-x,y,z
x,1/2-y,z
1/2+x,1/2+y,1/2+z
1/2-x,-y,1/2+z
1/2+x,1/2-y,1/2-z
1/2-x,y,1/2-z
1/2-x,1/2-y,1/2-z
1/2+x,y,1/2-z
1/2-x,1/2+y,1/2+z
1/2+x,-y,1/2+z
loop_
_atom_site_type_symbol
_atom_site_label
_atom_site_fract_x
_atom_site_fract_y
_atom_site_fract_z
Si Si1 0.842264 0.424248 0.073088
Si Si2 0.567324 0.089438 0.062492
Si Si3 0.116221 0.577220 0.316834
Si Si4 0.265881 0.417195 0.170665
Si Si5 0.931312 0.922329 0.167990
O O1 0.848477 0.250000 0.063770
O O2 0.788390 0.467431 0.123197
O O3 0.902589 0.486416 0.105588
O O4 0.830438 0.500000 0.000000
O O5 0.500000 0.113265 0.042506
O O6 0.597917 0.250000 0.069737
O O7 0.569308 0.000602 0.133933
O O8 0.598895 0.000000 0.000000
O O9 0.110422 0.750000 0.326074
O O10 0.179935 0.525081 0.343109
O O11 0.101435 0.530140 0.238577
O O12 0.284147 0.250000 0.153470
O O13 0.250000 0.434459 0.250000
O O14 0.922650 0.750000 0.153431
O O15 0.000000 0.963242 0.172959
#
# Coordination Sequence:
#
# PCOD8300894 Si02
#       5
#    16  16  16  16  16
#     4  11  24  42  65  91 122 159 201 253 307 363
#     4  10  21  37  57  82 117 160 203 249 301 356
#     4  11  22  36  61  92 124 159 200 250 302 362
#     4  10  21  40  63  87 119 157 199 247 297 353
#     4  10  22  40  62  90 124 162 205 251 300 360
#
# _framework density 20.045271
#
# number of rings (size 3 to 8) (size 9 to 14) (size 15 to 20)
#    0.000    1.600    2.000    2.400    0.000    6.400 
#    0.000    2.000    0.000    0.000    0.000    0.000 
#    0.000    0.000    0.000    0.000    0.000    0.000 
#
# Total GULP energy -496069.263694 kJ/mol
# GULP energy per Si atom -12401.731592 kJ/mol
# Density = 1.999965 g / cm^3
# Si number density = 20.045271 Si / 1000 Ang^3
#
#
#
# Elastic Constant Matrix: (Units=GPa)
#
#
# Indices 1 2 3 4 5 6 
#
# 1 100.4449 44.1262 44.3881 0.0000 0.0000 0.0000
# 2 44.1262 104.7421 66.9367 0.0000 0.0000 0.0000
# 3 44.3881 66.9367 134.0620 0.0000 0.0000 0.0000
# 4 0.0000 0.0000 0.0000 36.4782 0.0000 0.0000
# 5 0.0000 0.0000 0.0000 0.0000 32.6619 0.0000
# 6 0.0000 0.0000 0.0000 0.0000 0.0000 32.2705
#
#
#
# Elastic Compliance Matrix: (Units=1/GPa)
#
#
# Indices 1 2 3 4 5 6 
#
# 1 0.012661 -0.003899 -0.002245 0.000000 0.000000 0.000000
# 2 -0.003899 0.015222 -0.006309 0.000000 0.000000 0.000000
# 3 -0.002245 -0.006309 0.011353 0.000000 0.000000 0.000000
# 4 0.000000 0.000000 0.000000 0.027414 0.000000 0.000000
# 5 0.000000 0.000000 0.000000 0.000000 0.030617 0.000000
# 6 0.000000 0.000000 0.000000 0.000000 0.000000 0.030988
#
#
# Mechanical properties :
#
#
# Convention : Reuss Voigt Hill
#
# Bulk Modulus (GPa) = 69.79094 72.23900 71.01497
# Shear Modulus (GPa) = 31.65821 32.53531 32.09676
#
# Velocity S-wave (km/s) = 3.97840 4.03313 4.00586
# Velocity P-wave (km/s) = 7.48303 7.60292 7.54321
#
# Compressibility (1/GPa) = 0.01432851
#
# Stress axis : x y z
#
# Youngs Moduli (GPa) = 78.98430 65.69520 88.08364
#
# Poissons Ratio (x) = 0.25614 0.19777
# Poissons Ratio (y) = 0.30795 0.55574
# Poissons Ratio (z) = 0.17734 0.41449
#
# Static dielectric constant tensor:
#      x y z
#    x 3.603440 0.000000 0.000000 
#    y 0.000000 3.797460 0.000000 
#    z 0.000000 0.000000 3.672830 
# 
# 
# High freq. dielectric constant tensor:
#      x y z
#    x 1.775330 0.000000 0.000000 
#    y 0.000000 1.789660 0.000000 
#    z 0.000000 0.000000 1.787500 
# 
# From -- ./inp_files/46481.got.cif
#   From: 2010.03.12/outbox.cif.g09.slc.cpg/sg74_24_cif.got.tgz:46481.got - 2010.04.16 15:46:19.
