data_PCOD8300174
_publ_section_title
;
Structure prediction by ZEFSAII (Michael W. Deem and Ramdas Pophale) SiO2 
 PCOD8300174
Probable space group: I M M A
;
_chemical_formula_sum "Si O2"
_cell_formula_units_Z 72
_cell_length_a 8.980320
_cell_length_b 23.575076
_cell_length_c 16.865675
_cell_angle_alpha 90.000000
_cell_angle_beta 90.000000
_cell_angle_gamma 90.000000
_cell_volume 3570.661173
_symmetry_space_group_name_H-M "I M M A"
_symmetry_group_IT_number 74
_symmetry_cell_setting 'orthorhombic'
loop_
_space_group_symop_operation_xyz
x,y,z
-x,1/2-y,z
x,-y,-z
-x,1/2+y,-z
-x,-y,-z
x,1/2+y,-z
-x,y,z
x,1/2-y,z
1/2+x,1/2+y,1/2+z
1/2-x,-y,1/2+z
1/2+x,1/2-y,1/2-z
1/2-x,y,1/2-z
1/2-x,1/2-y,1/2-z
1/2+x,y,1/2-z
1/2-x,1/2+y,1/2+z
1/2+x,-y,1/2+z
loop_
_atom_site_type_symbol
_atom_site_label
_atom_site_fract_x
_atom_site_fract_y
_atom_site_fract_z
Si Si1 0.159741 0.687678 0.367742
Si Si2 0.827122 0.814123 0.976838
Si Si3 0.750000 0.901685 0.250000
Si Si4 0.831217 0.470623 0.896929
Si Si5 0.322965 0.923167 0.950535
O O1 0.180717 0.750000 0.328613
O O2 0.292161 0.677363 0.429906
O O3 0.145731 0.640238 0.300007
O O4 0.000000 0.685346 0.413479
O O5 0.786282 0.750000 0.949845
O O6 0.000000 0.827037 0.963879
O O7 0.730071 0.859542 0.926834
O O8 0.838138 0.941716 0.189124
O O9 0.754481 0.532584 0.890358
O O10 0.000000 0.476356 0.928302
O O11 0.732989 0.435013 0.959640
O O12 0.500000 0.929096 0.945338
#
# Coordination Sequence:
#
# PCOD8300174 Si02
#       5
#    16  16   8  16  16
#     4  10  21  35  51  75 111 151 188 226 268 317
#     4  10  20  35  57  83 110 143 184 227 276 332
#     4  12  23  34  56  82 113 150 192 232 274 330
#     4  11  23  37  56  78 110 149 190 234 280 330
#     4  11  22  38  58  79 108 144 188 236 281 332
#
# _framework density 20.164334
#
# number of rings (size 3 to 8) (size 9 to 14) (size 15 to 20)
#    0.000    1.333    2.222    5.667    0.000    4.889 
#    0.000    2.222    0.000    0.000    0.000    0.778 
#    0.000    0.000    0.000    0.000    0.000    0.000 
#
# Total GULP energy -446086.619880 kJ/mol
# GULP energy per Si atom -12391.294997 kJ/mol
# Density = 2.011844 g / cm^3
# Si number density = 20.164334 Si / 1000 Ang^3
#
#
#
# Elastic Constant Matrix: (Units=GPa)
#
#
# Indices 1 2 3 4 5 6 
#
# 1 134.1126 57.2474 7.7388 -0.0001 0.0000 0.0000
# 2 57.2474 170.5875 32.1257 -0.0001 0.0000 0.0000
# 3 7.7388 32.1257 36.6276 -0.0006 0.0002 0.0002
# 4 -0.0001 -0.0001 -0.0006 37.2904 0.0001 0.0001
# 5 0.0000 0.0000 0.0002 0.0001 14.0329 0.0000
# 6 0.0000 0.0000 0.0002 0.0001 0.0000 24.0727
#
#
#
# Elastic Compliance Matrix: (Units=1/GPa)
#
#
# Indices 1 2 3 4 5 6 
#
# 1 0.008726 -0.003092 0.000868 0.000000 0.000000 0.000000
# 2 -0.003092 0.008118 -0.006467 0.000000 0.000000 0.000000
# 3 0.000868 -0.006467 0.032790 0.000001 0.000000 0.000000
# 4 0.000000 0.000000 0.000001 0.026817 0.000000 0.000000
# 5 0.000000 0.000000 0.000000 0.000000 0.071261 0.000000
# 6 0.000000 0.000000 0.000000 0.000000 0.000000 0.041541
#
#
# Mechanical properties :
#
#
# Convention : Reuss Voigt Hill
#
# Bulk Modulus (GPa) = 31.00456 59.50569 45.25513
# Shear Modulus (GPa) = 23.00081 31.36025 27.18053
#
# Velocity S-wave (km/s) = 3.38104 3.94792 3.67543
# Velocity P-wave (km/s) = 5.53636 7.09619 6.36424
#
# Compressibility (1/GPa) = 0.03225332
#
# Stress axis : x y z
#
# Youngs Moduli (GPa) = 114.59829 123.19057 30.49698
#
# Poissons Ratio (x) = 0.38089 -0.02648
# Poissons Ratio (y) = 0.35433 0.19721
# Poissons Ratio (z) = -0.09949 0.79661
#
# Static dielectric constant tensor:
#      x y z
#    x 3.611560 0.000000 0.000000 
#    y 0.000000 4.251830 0.000000 
#    z 0.000000 0.000000 3.061930 
# 
# 
# High freq. dielectric constant tensor:
#      x y z
#    x 1.797660 0.000000 0.000000 
#    y 0.000000 1.816450 0.000000 
#    z 0.000000 0.000000 1.711560 
# 
# From -- ./inp_files/48534.got.cif
#   From: 2010.03.12/outbox.cif.g09.slc.cpg/sg74_25_cif.got.tgz:48534.got - 2010.04.16 15:46:19.
