data_PCOD8300104
_publ_section_title
;
Structure prediction by ZEFSAII (Michael W. Deem and Ramdas Pophale) SiO2 
 PCOD8300104
Probable space group: I M M A
;
_chemical_formula_sum "Si O2"
_cell_formula_units_Z 80
_cell_length_a 17.417375
_cell_length_b 11.025162
_cell_length_c 21.266093
_cell_angle_alpha 90.000000
_cell_angle_beta 90.000000
_cell_angle_gamma 90.000000
_cell_volume 4083.714675
_symmetry_space_group_name_H-M "I M M A"
_symmetry_group_IT_number 74
_symmetry_cell_setting 'orthorhombic'
loop_
_space_group_symop_operation_xyz
x,y,z
-x,1/2-y,z
x,-y,-z
-x,1/2+y,-z
-x,-y,-z
x,1/2+y,-z
-x,y,z
x,1/2-y,z
1/2+x,1/2+y,1/2+z
1/2-x,-y,1/2+z
1/2+x,1/2-y,1/2-z
1/2-x,y,1/2-z
1/2-x,1/2-y,1/2-z
1/2+x,y,1/2-z
1/2-x,1/2+y,1/2+z
1/2+x,-y,1/2+z
loop_
_atom_site_type_symbol
_atom_site_label
_atom_site_fract_x
_atom_site_fract_y
_atom_site_fract_z
Si Si1 0.585157 0.029767 0.168780
Si Si2 0.367632 0.117311 0.043772
Si Si3 0.733828 0.391421 0.821372
Si Si4 0.409706 0.750000 0.751799
Si Si5 0.796813 0.449289 0.069579
Si Si6 0.090892 0.750000 0.891883
O O1 0.500000 0.984025 0.189499
O O2 0.575757 0.096517 0.101904
O O3 0.622173 0.126973 0.217082
O O4 0.644175 0.917977 0.163868
O O5 0.386917 0.250000 0.012193
O O6 0.281109 0.128315 0.070132
O O7 0.377718 0.000000 0.000000
O O8 0.749318 0.250000 0.828548
O O9 0.750000 0.435165 0.750000
O O10 0.789465 0.452965 0.873553
O O11 0.500000 0.750000 0.763012
O O12 0.385240 0.750000 0.680353
O O13 0.872709 0.370024 0.078891
O O14 0.807444 0.500000 0.000000
O O15 0.000000 0.750000 0.903611
#
# Coordination Sequence:
#
# PCOD8300104 Si02
#       6
#    16  16  16   8  16   8
#     4  10  20  35  57  84 117 153 193 250 302 339
#     4  10  20  35  55  82 116 160 207 240 293 360
#     4  10  22  39  60  87 118 158 205 243 288 363
#     4   9  18  33  55  81 113 144 185 239 298 350
#     4  10  22  37  61  84 117 155 195 242 298 356
#     4  11  22  37  61  91 113 146 195 249 306 354
#
# _framework density 19.590007
#
# number of rings (size 3 to 8) (size 9 to 14) (size 15 to 20)
#    0.000    2.000    2.000    1.200    1.400    6.000 
#    0.000    3.000    0.000    1.200    0.000    0.000 
#    0.000    0.000    0.000    0.000    0.000    0.000 
#
# Total GULP energy -495659.234242 kJ/mol
# GULP energy per Si atom -12391.480856 kJ/mol
# Density = 1.954542 g / cm^3
# Si number density = 19.590007 Si / 1000 Ang^3
#
#
#
# Elastic Constant Matrix: (Units=GPa)
#
#
# Indices 1 2 3 4 5 6 
#
# 1 88.5132 32.4968 34.6988 0.0000 0.0000 0.0000
# 2 32.4968 115.2831 58.7745 0.0000 0.0000 0.0000
# 3 34.6988 58.7745 140.6556 0.0000 0.0000 0.0000
# 4 0.0000 0.0000 0.0000 25.4258 0.0000 0.0000
# 5 0.0000 0.0000 0.0000 0.0000 25.9789 0.0000
# 6 0.0000 0.0000 0.0000 0.0000 0.0000 19.8724
#
#
#
# Elastic Compliance Matrix: (Units=1/GPa)
#
#
# Indices 1 2 3 4 5 6 
#
# 1 0.013092 -0.002597 -0.002144 0.000000 0.000000 0.000000
# 2 -0.002597 0.011538 -0.004180 0.000000 0.000000 0.000000
# 3 -0.002144 -0.004180 0.009385 0.000000 0.000000 0.000000
# 4 0.000000 0.000000 0.000000 0.039330 0.000000 0.000000
# 5 0.000000 0.000000 0.000000 0.000000 0.038493 0.000000
# 6 0.000000 0.000000 0.000000 0.000000 0.000000 0.050321
#
#
# Mechanical properties :
#
#
# Convention : Reuss Voigt Hill
#
# Bulk Modulus (GPa) = 61.83920 66.26579 64.05249
# Shear Modulus (GPa) = 26.96966 28.82086 27.89526
#
# Velocity S-wave (km/s) = 3.71442 3.83979 3.77762
# Velocity P-wave (km/s) = 7.07327 7.31836 7.19686
#
# Compressibility (1/GPa) = 0.01617097
#
# Stress axis : x y z
#
# Youngs Moduli (GPa) = 76.38293 86.67223 106.54793
#
# Poissons Ratio (x) = 0.22510 0.22849
# Poissons Ratio (y) = 0.19838 0.44542
# Poissons Ratio (z) = 0.16380 0.36233
#
# Static dielectric constant tensor:
#      x y z
#    x 3.389970 0.000000 0.000000 
#    y 0.000000 3.662380 0.000000 
#    z 0.000000 0.000000 3.694850 
# 
# 
# High freq. dielectric constant tensor:
#      x y z
#    x 1.747760 0.000000 0.000000 
#    y 0.000000 1.759700 0.000000 
#    z 0.000000 0.000000 1.769030 
# 
# From -- ./inp_files/52794.got.cif
#   From: 2010.03.12/outbox.cif.g09.slc.cpg/sg74_27_cif.got.tgz:52794.got - 2010.04.16 15:46:19.
