data_PCOD8300509
_publ_section_title
;
Structure prediction by ZEFSAII (Michael W. Deem and Ramdas Pophale) SiO2 
 PCOD8300509
Probable space group: I M M A
;
_chemical_formula_sum "Si O2"
_cell_formula_units_Z 72
_cell_length_a 13.839772
_cell_length_b 29.297651
_cell_length_c 9.010877
_cell_angle_alpha 90.000000
_cell_angle_beta 90.000000
_cell_angle_gamma 90.000000
_cell_volume 3653.665618
_symmetry_space_group_name_H-M "I M M A"
_symmetry_group_IT_number 74
_symmetry_cell_setting 'orthorhombic'
loop_
_space_group_symop_operation_xyz
x,y,z
-x,1/2-y,z
x,-y,-z
-x,1/2+y,-z
-x,-y,-z
x,1/2+y,-z
-x,y,z
x,1/2-y,z
1/2+x,1/2+y,1/2+z
1/2-x,-y,1/2+z
1/2+x,1/2-y,1/2-z
1/2-x,y,1/2-z
1/2-x,1/2-y,1/2-z
1/2+x,y,1/2-z
1/2-x,1/2+y,1/2+z
1/2+x,-y,1/2+z
loop_
_atom_site_type_symbol
_atom_site_label
_atom_site_fract_x
_atom_site_fract_y
_atom_site_fract_z
Si Si1 0.500000 0.553889 0.990544
Si Si2 0.500000 0.621931 0.257238
Si Si3 0.000000 0.698106 0.488198
Si Si4 0.290388 0.802854 0.907452
Si Si5 0.699603 0.878262 0.402114
Si Si6 0.707589 0.953670 0.908730
O O1 0.401368 0.568127 0.904203
O O2 0.500000 0.500000 0.000000
O O3 0.500000 0.576710 0.154233
O O4 0.413089 0.623568 0.372293
O O5 0.500000 0.666424 0.154997
O O6 0.094307 0.688417 0.588439
O O7 0.000000 0.750000 0.429691
O O8 0.264670 0.750000 0.931134
O O9 0.250000 0.820546 0.750000
O O10 0.238356 0.829736 0.039911
O O11 0.750000 0.891975 0.250000
O O12 0.720374 0.917196 0.521307
O O13 0.750000 0.965928 0.750000
O O14 0.706054 0.000000 0.000000
#
# Coordination Sequence:
#
# PCOD8300509 Si02
#       6
#     8   8   8  16  16  16
#     4  10  22  39  64  87 126 168 200 254 327 373
#     4  12  24  40  63  96 127 167 215 263 313 383
#     4  10  20  37  63  92 128 172 209 256 323 379
#     4  10  22  40  64  94 131 170 212 262 317 376
#     4  12  23  40  64  91 126 164 211 261 309 376
#     4  11  24  42  66  93 125 163 208 259 316 380
#
# _framework density 19.706237000000002
#
# number of rings (size 3 to 8) (size 9 to 14) (size 15 to 20)
#    0.000    1.111    4.444    1.333    3.111    3.111 
#    0.000    2.222    0.000    0.000    0.000    0.000 
#    0.000    0.000    0.000    0.000    0.000    0.000 
#
# Total GULP energy -446448.938479 kJ/mol
# GULP energy per Si atom -12401.359402 kJ/mol
# Density = 1.966138 g / cm^3
# Si number density = 19.706237 Si / 1000 Ang^3
#
#
#
# Elastic Constant Matrix: (Units=GPa)
#
#
# Indices 1 2 3 4 5 6 
#
# 1 190.6169 44.3308 70.4421 -0.0009 0.0004 0.0027
# 2 44.3308 98.7032 42.2845 -0.0014 0.0000 -0.0002
# 3 70.4421 42.2845 113.4081 -0.0128 0.0027 0.0104
# 4 -0.0009 -0.0014 -0.0128 31.0070 0.0022 0.0090
# 5 0.0004 0.0000 0.0027 0.0022 40.4268 -0.0024
# 6 0.0027 -0.0002 0.0104 0.0090 -0.0024 4.5942
#
#
#
# Elastic Compliance Matrix: (Units=1/GPa)
#
#
# Indices 1 2 3 4 5 6 
#
# 1 0.006997 -0.001524 -0.003778 -0.000001 0.000000 0.000004
# 2 -0.001524 0.012389 -0.003673 -0.000001 0.000000 0.000010
# 3 -0.003778 -0.003673 0.012533 0.000005 -0.000001 -0.000026
# 4 -0.000001 -0.000001 0.000005 0.032251 -0.000002 -0.000063
# 5 0.000000 0.000000 -0.000001 -0.000002 0.024736 0.000013
# 6 0.000004 0.000010 -0.000026 -0.000063 0.000013 0.217668
#
#
# Mechanical properties :
#
#
# Convention : Reuss Voigt Hill
#
# Bulk Modulus (GPa) = 71.57883 79.64922 75.61403
# Shear Modulus (GPa) = 15.18927 31.58365 23.38646
#
# Velocity S-wave (km/s) = 2.77931 4.00775 3.44867
# Velocity P-wave (km/s) = 6.83383 7.86906 7.36964
#
# Compressibility (1/GPa) = 0.01397061
#
# Stress axis : x y z
#
# Youngs Moduli (GPa) = 142.92725 80.71488 79.78618
#
# Poissons Ratio (x) = 0.12301 0.30140
# Poissons Ratio (y) = 0.21783 0.29303
# Poissons Ratio (z) = 0.53992 0.29644
#
# Static dielectric constant tensor:
#      x y z
#    x 4.088640 0.000000 0.000000 
#    y 0.000000 3.701070 0.000000 
#    z 0.000000 0.000000 3.625610 
# 
# 
# High freq. dielectric constant tensor:
#      x y z
#    x 1.784970 0.000000 0.000000 
#    y 0.000000 1.781210 0.000000 
#    z 0.000000 0.000000 1.754180 
# 
# From -- ./inp_files/9202.got.cif
#   From: 2010.03.12/outbox.cif.g09.slc.cpg/sg74_5_cif.got.tgz:9202.got - 2010.04.16 15:46:19.
