data_PCOD8300257
_publ_section_title
;
Structure prediction by ZEFSAII (Michael W. Deem and Ramdas Pophale) SiO2 
 PCOD8300257
Probable space group: I M M A
;
_chemical_formula_sum "Si O2"
_cell_formula_units_Z 104
_cell_length_a 9.360063
_cell_length_b 21.369133
_cell_length_c 28.039689
_cell_angle_alpha 90.000000
_cell_angle_beta 90.000000
_cell_angle_gamma 90.000000
_cell_volume 5608.398524
_symmetry_space_group_name_H-M "I M M A"
_symmetry_group_IT_number 74
_symmetry_cell_setting 'orthorhombic'
loop_
_space_group_symop_operation_xyz
x,y,z
-x,1/2-y,z
x,-y,-z
-x,1/2+y,-z
-x,-y,-z
x,1/2+y,-z
-x,y,z
x,1/2-y,z
1/2+x,1/2+y,1/2+z
1/2-x,-y,1/2+z
1/2+x,1/2-y,1/2-z
1/2-x,y,1/2-z
1/2-x,1/2-y,1/2-z
1/2+x,y,1/2-z
1/2-x,1/2+y,1/2+z
1/2+x,-y,1/2+z
loop_
_atom_site_type_symbol
_atom_site_label
_atom_site_fract_x
_atom_site_fract_y
_atom_site_fract_z
Si Si1 0.164297 0.928318 0.049940
Si Si2 0.667938 0.375874 0.145000
Si Si3 0.168541 0.750000 0.699809
Si Si4 0.157778 0.177451 0.792365
Si Si5 0.334099 0.113199 0.865241
Si Si6 0.165330 0.496854 0.297737
Si Si7 0.663327 0.573280 0.558212
O O1 0.274825 0.889249 0.081371
O O2 0.000000 0.916918 0.065224
O O3 0.204600 0.000504 0.058492
O O4 0.187668 0.904455 0.996085
O O5 0.500000 0.378793 0.135513
O O6 0.713781 0.310404 0.168828
O O7 0.717053 0.430755 0.180759
O O8 0.741702 0.385163 0.093687
O O9 0.250000 0.750000 0.750000
O O10 0.000000 0.750000 0.710698
O O11 0.138278 0.250000 0.782057
O O12 0.250000 0.145583 0.750000
O O13 0.244706 0.168498 0.840865
O O14 0.000000 0.145885 0.794133
O O15 0.500000 0.130749 0.865894
O O16 0.302401 0.048988 0.837380
O O17 0.250000 0.512231 0.250000
O O18 0.000000 0.494597 0.284157
O O19 0.500000 0.582745 0.573713
#
# Coordination Sequence:
#
# PCOD8300257 Si02
#       7
#    16  16   8  16  16  16  16
#     4   9  18  33  53  80 111 138 174 218 266 323
#     4  10  20  36  54  77 108 141 181 227 274 324
#     4  10  22  38  58  80 108 148 190 234 277 326
#     4  10  21  37  56  77 104 141 180 217 259 310
#     4  11  21  33  52  80 109 140 177 218 268 319
#     4  10  21  33  47  73 107 138 171 214 263 316
#     4   9  18  33  55  81 106 138 175 217 268 324
#
# _framework density 18.543617000000001
#
# number of rings (size 3 to 8) (size 9 to 14) (size 15 to 20)
#    0.000    2.154    1.538    2.769    0.000    5.231 
#    0.000    1.538    1.692    0.000    0.000    0.000 
#    0.000    0.000    0.000    0.000    0.000    0.000 
#
# Total GULP energy -644784.269576 kJ/mol
# GULP energy per Si atom -12399.697492 kJ/mol
# Density = 1.850141 g / cm^3
# Si number density = 18.543617 Si / 1000 Ang^3
#
#
#
# Elastic Constant Matrix: (Units=GPa)
#
#
# Indices 1 2 3 4 5 6 
#
# 1 104.8830 23.2675 64.0587 0.0000 0.0000 0.0000
# 2 23.2675 44.0675 22.2192 0.0000 0.0000 0.0000
# 3 64.0587 22.2192 118.4933 0.0000 0.0000 0.0000
# 4 0.0000 0.0000 0.0000 30.6796 0.0000 0.0000
# 5 0.0000 0.0000 0.0000 0.0000 42.6570 0.0000
# 6 0.0000 0.0000 0.0000 0.0000 0.0000 18.7539
#
#
#
# Elastic Compliance Matrix: (Units=1/GPa)
#
#
# Indices 1 2 3 4 5 6 
#
# 1 0.014908 -0.004205 -0.007271 0.000000 0.000000 0.000000
# 2 -0.004205 0.026248 -0.002648 0.000000 0.000000 0.000000
# 3 -0.007271 -0.002648 0.012867 0.000000 0.000000 0.000000
# 4 0.000000 0.000000 0.000000 0.032595 0.000000 0.000000
# 5 0.000000 0.000000 0.000000 0.000000 0.023443 0.000000
# 6 0.000000 0.000000 0.000000 0.000000 0.000000 0.053322
#
#
# Mechanical properties :
#
#
# Convention : Reuss Voigt Hill
#
# Bulk Modulus (GPa) = 38.79948 54.05941 46.42945
# Shear Modulus (GPa) = 24.97204 28.94466 26.95835
#
# Velocity S-wave (km/s) = 3.67367 3.95510 3.81698
# Velocity P-wave (km/s) = 6.24206 7.07623 6.67219
#
# Compressibility (1/GPa) = 0.02577354
#
# Stress axis : x y z
#
# Youngs Moduli (GPa) = 67.07718 38.09772 77.72026
#
# Poissons Ratio (x) = 0.16022 0.56510
# Poissons Ratio (y) = 0.28209 0.20584
# Poissons Ratio (z) = 0.48771 0.10090
#
# Static dielectric constant tensor:
#      x y z
#    x 3.471390 0.000000 0.000000 
#    y 0.000000 3.245590 0.000000 
#    z 0.000000 0.000000 3.406010 
# 
# 
# High freq. dielectric constant tensor:
#      x y z
#    x 1.723270 0.000000 0.000000 
#    y 0.000000 1.696810 0.000000 
#    z 0.000000 0.000000 1.722290 
# 
# From -- ./inp_files/64761.got.cif
#   From: 2010.03.12/outbox.cif.g09.slc.cpg/sg74_33_cif.got.tgz:64761.got - 2010.04.16 15:46:19.
