data_PCOD8300096
_publ_section_title
;
Structure prediction by ZEFSAII (Michael W. Deem and Ramdas Pophale) SiO2 
 PCOD8300096
Probable space group: I M M A
;
_chemical_formula_sum "Si O2"
_cell_formula_units_Z 96
_cell_length_a 18.616724
_cell_length_b 9.111394
_cell_length_c 29.682672
_cell_angle_alpha 90.000000
_cell_angle_beta 90.000000
_cell_angle_gamma 90.000000
_cell_volume 5034.902678
_symmetry_space_group_name_H-M "I M M A"
_symmetry_group_IT_number 74
_symmetry_cell_setting 'orthorhombic'
loop_
_space_group_symop_operation_xyz
x,y,z
-x,1/2-y,z
x,-y,-z
-x,1/2+y,-z
-x,-y,-z
x,1/2+y,-z
-x,y,z
x,1/2-y,z
1/2+x,1/2+y,1/2+z
1/2-x,-y,1/2+z
1/2+x,1/2-y,1/2-z
1/2-x,y,1/2-z
1/2-x,1/2-y,1/2-z
1/2+x,y,1/2-z
1/2-x,1/2+y,1/2+z
1/2+x,-y,1/2+z
loop_
_atom_site_type_symbol
_atom_site_label
_atom_site_fract_x
_atom_site_fract_y
_atom_site_fract_z
Si Si1 0.415559 0.078266 0.046486
Si Si2 0.081469 0.923468 0.792498
Si Si3 0.079649 0.084093 0.040439
Si Si4 0.323180 0.418092 0.375334
Si Si5 0.176551 0.078012 0.725914
Si Si6 0.680123 0.077343 0.879152
O O1 0.500000 0.055125 0.053896
O O2 0.395415 0.250000 0.043325
O O3 0.377014 0.006438 0.089626
O O4 0.390731 0.000000 0.000000
O O5 0.084107 0.750000 0.786994
O O6 0.137637 0.975985 0.830490
O O7 0.000000 0.973982 0.803548
O O8 0.107367 0.998316 0.746591
O O9 0.076689 0.250000 0.024788
O O10 0.117518 0.065870 0.087267
O O11 0.000000 0.018178 0.047040
O O12 0.120347 0.000000 0.000000
O O13 0.296208 0.250000 0.370004
O O14 0.259378 0.522824 0.391316
O O15 0.169358 0.250000 0.734082
O O16 0.250000 0.020654 0.750000
O O17 0.171580 0.037248 0.673387
O O18 0.672542 0.250000 0.888108
#
# Coordination Sequence:
#
# PCOD8300096 Si02
#       6
#    16  16  16  16  16  16
#     4  10  22  42  67  93 122 155 194 243 299 359
#     4  10  21  36  57  85 113 146 192 243 295 351
#     4   9  18  33  52  74 103 140 181 226 275 327
#     4  10  20  35  55  79 111 149 188 234 288 343
#     4  10  21  39  58  80 115 156 197 242 295 351
#     4  11  23  38  60  87 118 155 196 239 287 349
#
# _framework density 19.066903
#
# number of rings (size 3 to 8) (size 9 to 14) (size 15 to 20)
#    0.000    2.000    1.667    1.500    0.000    7.000 
#    0.000    5.000    0.000    3.000    0.000    0.000 
#    0.000    0.000    0.000    0.000    0.000    0.000 
#
# Total GULP energy -595111.283457 kJ/mol
# GULP energy per Si atom -12398.151739 kJ/mol
# Density = 1.902351 g / cm^3
# Si number density = 19.066903 Si / 1000 Ang^3
#
#
#
# Elastic Constant Matrix: (Units=GPa)
#
#
# Indices 1 2 3 4 5 6 
#
# 1 85.9839 44.9754 44.7190 0.0000 0.0000 0.0000
# 2 44.9754 73.4993 59.9104 0.0000 0.0000 0.0000
# 3 44.7190 59.9104 114.6231 0.0000 0.0000 0.0000
# 4 0.0000 0.0000 0.0000 33.5562 0.0000 0.0000
# 5 0.0000 0.0000 0.0000 0.0000 14.7110 0.0000
# 6 0.0000 0.0000 0.0000 0.0000 0.0000 27.5118
#
#
#
# Elastic Compliance Matrix: (Units=1/GPa)
#
#
# Indices 1 2 3 4 5 6 
#
# 1 0.017399 -0.008909 -0.002131 0.000000 0.000000 0.000000
# 2 -0.008909 0.028267 -0.011298 0.000000 0.000000 0.000000
# 3 -0.002131 -0.011298 0.015461 0.000000 0.000000 0.000000
# 4 0.000000 0.000000 0.000000 0.029801 0.000000 0.000000
# 5 0.000000 0.000000 0.000000 0.000000 0.067976 0.000000
# 6 0.000000 0.000000 0.000000 0.000000 0.000000 0.036348
#
#
# Mechanical properties :
#
#
# Convention : Reuss Voigt Hill
#
# Bulk Modulus (GPa) = 60.79533 63.70177 62.24855
# Shear Modulus (GPa) = 20.37383 23.45590 21.91487
#
# Velocity S-wave (km/s) = 3.27241 3.51121 3.39391
# Velocity P-wave (km/s) = 6.79946 7.06543 6.93372
#
# Compressibility (1/GPa) = 0.01644863
#
# Stress axis : x y z
#
# Youngs Moduli (GPa) = 57.47555 35.37708 64.67837
#
# Poissons Ratio (x) = 0.31519 0.13785
# Poissons Ratio (y) = 0.51207 0.73077
# Poissons Ratio (z) = 0.12249 0.39971
#
# Static dielectric constant tensor:
#      x y z
#    x 5.001690 0.000000 0.000000 
#    y 0.000000 3.562360 0.000000 
#    z 0.000000 0.000000 3.628480 
# 
# 
# High freq. dielectric constant tensor:
#      x y z
#    x 1.737980 0.000000 0.000000 
#    y 0.000000 1.739040 0.000000 
#    z 0.000000 0.000000 1.751380 
# 
# From -- ./inp_files/64249.got.cif
#   From: 2010.03.12/outbox.cif.g09.slc.cpg/sg74_33_cif.got.tgz:64249.got - 2010.04.16 15:46:19.
