data_PCOD8300450
_publ_section_title
;
Structure prediction by ZEFSAII (Michael W. Deem and Ramdas Pophale) SiO2 
 PCOD8300450
Probable space group: I M M A
;
_chemical_formula_sum "Si O2"
_cell_formula_units_Z 120
_cell_length_a 29.206998
_cell_length_b 14.904269
_cell_length_c 14.443299
_cell_angle_alpha 90.000000
_cell_angle_beta 90.000000
_cell_angle_gamma 90.000000
_cell_volume 6287.297393
_symmetry_space_group_name_H-M "I M M A"
_symmetry_group_IT_number 74
_symmetry_cell_setting 'orthorhombic'
loop_
_space_group_symop_operation_xyz
x,y,z
-x,1/2-y,z
x,-y,-z
-x,1/2+y,-z
-x,-y,-z
x,1/2+y,-z
-x,y,z
x,1/2-y,z
1/2+x,1/2+y,1/2+z
1/2-x,-y,1/2+z
1/2+x,1/2-y,1/2-z
1/2-x,y,1/2-z
1/2-x,1/2-y,1/2-z
1/2+x,y,1/2-z
1/2-x,1/2+y,1/2+z
1/2+x,-y,1/2+z
loop_
_atom_site_type_symbol
_atom_site_label
_atom_site_fract_x
_atom_site_fract_y
_atom_site_fract_z
Si Si1 0.322116 0.850201 0.835005
Si Si2 0.449229 0.488896 0.234439
Si Si3 0.851427 0.509599 0.805271
Si Si4 0.447005 0.150991 0.891768
Si Si5 0.299850 0.853337 0.211241
Si Si6 0.576529 0.350366 0.090583
Si Si7 0.191239 0.000000 0.000000
Si Si8 0.234124 0.854009 0.486867
O O1 0.307885 0.750000 0.802643
O O2 0.320122 0.916536 0.747678
O O3 0.372399 0.850307 0.874474
O O4 0.289440 0.884321 0.917448
O O5 0.500000 0.490841 0.283450
O O6 0.406129 0.468620 0.300877
O O7 0.436779 0.585517 0.192546
O O8 0.453750 0.415861 0.153129
O O9 0.838671 0.413728 0.760037
O O10 0.840995 0.517973 0.912862
O O11 0.500000 0.153290 0.916502
O O12 0.429014 0.250000 0.863272
O O13 0.422108 0.116258 0.984536
O O14 0.311465 0.750000 0.234409
O O15 0.250000 0.879327 0.250000
O O16 0.299859 0.870295 0.100276
O O17 0.555377 0.250000 0.095549
O O18 0.220725 0.912799 0.024716
O O19 0.248796 0.750000 0.489056
#
# Coordination Sequence:
#
# PCOD8300450 Si02
#       8
#    16  16  16  16  16  16   8  16
#     4   9  20  36  54  83 117 148 180 218 269 330
#     4  10  21  36  52  75 106 141 185 234 280 322
#     4  11  24  38  58  81 108 148 190 236 284 328
#     4   9  17  29  47  73 105 140 173 209 260 323
#     4  10  20  37  59  86 116 147 184 221 266 331
#     4   9  17  30  50  78 111 145 179 212 257 324
#     4  12  24  40  57  78 106 140 193 242 282 330
#     4  10  21  36  58  86 117 149 178 216 269 332
#
# _framework density 19.086102
#
# number of rings (size 3 to 8) (size 9 to 14) (size 15 to 20)
#    0.000    2.133    1.333    1.600    1.867    2.933 
#    0.000    1.667    0.000    0.000    0.000    0.000 
#    0.000    5.333    0.000    0.000    0.000    0.000 
#
# Total GULP energy -743832.682987 kJ/mol
# GULP energy per Si atom -12397.211383 kJ/mol
# Density = 1.904266 g / cm^3
# Si number density = 19.086102 Si / 1000 Ang^3
#
#
#
# Elastic Constant Matrix: (Units=GPa)
#
#
# Indices 1 2 3 4 5 6 
#
# 1 57.6736 14.0807 23.4015 0.0000 0.0000 0.0000
# 2 14.0807 65.4117 22.5191 0.0000 0.0000 0.0000
# 3 23.4015 22.5191 96.0067 0.0000 0.0000 0.0000
# 4 0.0000 0.0000 0.0000 19.2293 0.0000 0.0000
# 5 0.0000 0.0000 0.0000 0.0000 18.7094 0.0000
# 6 0.0000 0.0000 0.0000 0.0000 0.0000 21.5217
#
#
#
# Elastic Compliance Matrix: (Units=1/GPa)
#
#
# Indices 1 2 3 4 5 6 
#
# 1 0.019708 -0.002816 -0.004143 0.000000 0.000000 0.000000
# 2 -0.002816 0.017033 -0.003309 0.000000 0.000000 0.000000
# 3 -0.004143 -0.003309 0.012202 0.000000 0.000000 0.000000
# 4 0.000000 0.000000 0.000000 0.052004 0.000000 0.000000
# 5 0.000000 0.000000 0.000000 0.000000 0.053449 0.000000
# 6 0.000000 0.000000 0.000000 0.000000 0.000000 0.046465
#
#
# Mechanical properties :
#
#
# Convention : Reuss Voigt Hill
#
# Bulk Modulus (GPa) = 35.20303 37.67717 36.44010
# Shear Modulus (GPa) = 21.65766 22.49813 22.07789
#
# Velocity S-wave (km/s) = 3.37224 3.43705 3.40480
# Velocity P-wave (km/s) = 5.80060 5.96109 5.88139
#
# Compressibility (1/GPa) = 0.02840664
#
# Stress axis : x y z
#
# Youngs Moduli (GPa) = 50.74183 58.70923 81.95409
#
# Poissons Ratio (x) = 0.16532 0.33955
# Poissons Ratio (y) = 0.14289 0.27117
# Poissons Ratio (z) = 0.21023 0.19426
#
# Static dielectric constant tensor:
#      x y z
#    x 3.355790 0.000000 0.000000 
#    y 0.000000 3.930300 0.000000 
#    z 0.000000 0.000000 3.283960 
# 
# 
# High freq. dielectric constant tensor:
#      x y z
#    x 1.733540 0.000000 0.000000 
#    y 0.000000 1.755030 0.000000 
#    z 0.000000 0.000000 1.710970 
# 
# From -- ./inp_files/38011.got.cif
#   From: 2010.03.12/outbox.cif.g09.slc.cpg/sg74_20_cif.got.tgz:38011.got - 2010.04.16 15:46:19.
