data_PCOD8300449
_publ_section_title
;
Structure prediction by ZEFSAII (Michael W. Deem and Ramdas Pophale) SiO2 
 PCOD8300449
Probable space group: I M M A
;
_chemical_formula_sum "Si O2"
_cell_formula_units_Z 104
_cell_length_a 20.615002
_cell_length_b 8.764306
_cell_length_c 30.063133
_cell_angle_alpha 90.000000
_cell_angle_beta 90.000000
_cell_angle_gamma 90.000000
_cell_volume 5431.692201
_symmetry_space_group_name_H-M "I M M A"
_symmetry_group_IT_number 74
_symmetry_cell_setting 'orthorhombic'
loop_
_space_group_symop_operation_xyz
x,y,z
-x,1/2-y,z
x,-y,-z
-x,1/2+y,-z
-x,-y,-z
x,1/2+y,-z
-x,y,z
x,1/2-y,z
1/2+x,1/2+y,1/2+z
1/2-x,-y,1/2+z
1/2+x,1/2-y,1/2-z
1/2-x,y,1/2-z
1/2-x,1/2-y,1/2-z
1/2+x,y,1/2-z
1/2-x,1/2+y,1/2+z
1/2+x,-y,1/2+z
loop_
_atom_site_type_symbol
_atom_site_label
_atom_site_fract_x
_atom_site_fract_y
_atom_site_fract_z
Si Si1 0.783519 0.069117 0.130625
Si Si2 0.074084 0.429920 0.455887
Si Si3 0.641244 0.569233 0.450593
Si Si4 0.000000 0.426564 0.952949
Si Si5 0.312851 0.929844 0.278082
Si Si6 0.925054 0.570844 0.722520
Si Si7 0.862830 0.069723 0.368078
O O1 0.790241 0.250000 0.128230
O O2 0.710148 0.012247 0.138043
O O3 0.808698 0.001087 0.084269
O O4 0.820373 0.006878 0.173728
O O5 0.106667 0.500000 0.500000
O O6 0.081559 0.250000 0.457755
O O7 0.109683 0.502136 0.413377
O O8 0.000000 0.482125 0.452596
O O9 0.651705 0.500000 0.500000
O O10 0.651979 0.750000 0.453865
O O11 0.568888 0.528501 0.430307
O O12 0.000000 0.250000 0.961921
O O13 0.000000 0.500000 0.000000
O O14 0.307821 0.750000 0.284313
O O15 0.250000 0.990066 0.250000
O O16 0.379734 0.973180 0.254491
O O17 0.910520 0.750000 0.729058
O O18 0.908065 0.517738 0.672575
O O19 0.000000 0.532813 0.732524
O O20 0.864683 0.250000 0.372204
#
# Coordination Sequence:
#
# PCOD8300449 Si02
#       7
#    16  16  16   8  16  16  16
#     4  11  22  37  59  85 114 150 192 235 285 341
#     4   9  17  31  50  73 104 141 180 222 270 322
#     4  10  20  37  59  85 116 149 190 236 288 346
#     4   8  16  32  56  80 106 144 184 228 280 334
#     4  11  23  40  61  85 117 156 194 236 293 353
#     4  10  20  37  63  90 113 144 191 244 295 349
#     4   9  18  33  55  81 108 142 185 232 282 337
#
# _framework density 19.146888000000001
#
# number of rings (size 3 to 8) (size 9 to 14) (size 15 to 20)
#    0.000    2.154    1.538    1.846    0.000    4.000 
#    1.385    3.846    0.000    1.846    0.000    0.000 
#    0.000    0.000    0.000    0.000    0.000    0.000 
#
# Total GULP energy -644528.425088 kJ/mol
# GULP energy per Si atom -12394.777406 kJ/mol
# Density = 1.910331 g / cm^3
# Si number density = 19.146888 Si / 1000 Ang^3
#
#
#
# Elastic Constant Matrix: (Units=GPa)
#
#
# Indices 1 2 3 4 5 6 
#
# 1 96.9448 30.7436 45.7706 0.0000 0.0000 0.0000
# 2 30.7436 50.2260 29.9179 0.0000 0.0000 0.0000
# 3 45.7706 29.9179 130.9223 0.0000 0.0000 0.0000
# 4 0.0000 0.0000 0.0000 32.7391 0.0000 0.0000
# 5 0.0000 0.0000 0.0000 0.0000 35.8716 0.0000
# 6 0.0000 0.0000 0.0000 0.0000 0.0000 24.2188
#
#
#
# Elastic Compliance Matrix: (Units=1/GPa)
#
#
# Indices 1 2 3 4 5 6 
#
# 1 0.013994 -0.006542 -0.003397 0.000000 0.000000 0.000000
# 2 -0.006542 0.026106 -0.003678 0.000000 0.000000 0.000000
# 3 -0.003397 -0.003678 0.009666 0.000000 0.000000 0.000000
# 4 0.000000 0.000000 0.000000 0.030544 0.000000 0.000000
# 5 0.000000 0.000000 0.000000 0.000000 0.027877 0.000000
# 6 0.000000 0.000000 0.000000 0.000000 0.000000 0.041290
#
#
# Mechanical properties :
#
#
# Convention : Reuss Voigt Hill
#
# Bulk Modulus (GPa) = 44.38487 54.55081 49.46784
# Shear Modulus (GPa) = 27.14101 30.00998 28.57549
#
# Velocity S-wave (km/s) = 3.76908 3.96328 3.86740
# Velocity P-wave (km/s) = 6.49406 7.03534 6.77011
#
# Compressibility (1/GPa) = 0.02253020
#
# Stress axis : x y z
#
# Youngs Moduli (GPa) = 71.46051 38.30610 103.45113
#
# Poissons Ratio (x) = 0.25060 0.35145
# Poissons Ratio (y) = 0.46749 0.38054
# Poissons Ratio (z) = 0.24277 0.14091
#
# Static dielectric constant tensor:
#      x y z
#    x 3.614190 0.000000 0.000000 
#    y 0.000000 3.278600 0.000000 
#    z 0.000000 0.000000 3.619510 
# 
# 
# High freq. dielectric constant tensor:
#      x y z
#    x 1.748760 0.000000 0.000000 
#    y 0.000000 1.729780 0.000000 
#    z 0.000000 0.000000 1.746740 
# 
# From -- ./inp_files/73347.got.cif
#   From: 2010.03.12/outbox.cif.g09.slc.cpg/sg74_37_cif.got.tgz:73347.got - 2010.04.16 15:46:19.
