data_PCOD8300386
_publ_section_title
;
Structure prediction by ZEFSAII (Michael W. Deem and Ramdas Pophale) SiO2 
 PCOD8300386
Probable space group: I M M A
;
_chemical_formula_sum "Si O2"
_cell_formula_units_Z 96
_cell_length_a 8.667425
_cell_length_b 18.852605
_cell_length_c 30.281427
_cell_angle_alpha 90.000000
_cell_angle_beta 90.000000
_cell_angle_gamma 90.000000
_cell_volume 4948.092365
_symmetry_space_group_name_H-M "I M M A"
_symmetry_group_IT_number 74
_symmetry_cell_setting 'orthorhombic'
loop_
_space_group_symop_operation_xyz
x,y,z
-x,1/2-y,z
x,-y,-z
-x,1/2+y,-z
-x,-y,-z
x,1/2+y,-z
-x,y,z
x,1/2-y,z
1/2+x,1/2+y,1/2+z
1/2-x,-y,1/2+z
1/2+x,1/2-y,1/2-z
1/2-x,y,1/2-z
1/2-x,1/2-y,1/2-z
1/2+x,y,1/2-z
1/2-x,1/2+y,1/2+z
1/2+x,-y,1/2+z
loop_
_atom_site_type_symbol
_atom_site_label
_atom_site_fract_x
_atom_site_fract_y
_atom_site_fract_z
Si Si1 0.817518 0.329969 0.706274
Si Si2 0.318650 0.332224 0.959235
Si Si3 0.319131 0.929952 0.527173
Si Si4 0.817669 0.425412 0.376428
Si Si5 0.681653 0.167853 0.297057
Si Si6 0.182507 0.914866 0.374457
O O1 0.757497 0.250000 0.702739
O O2 0.750000 0.366412 0.750000
O O3 0.744450 0.370782 0.665303
O O4 0.000000 0.334658 0.706806
O O5 0.500000 0.344003 0.967683
O O6 0.282859 0.250000 0.949562
O O7 0.254539 0.380846 0.919443
O O8 0.221756 0.358572 0.000912
O O9 0.500000 0.937644 0.535171
O O10 0.238532 0.914137 0.573743
O O11 0.257652 0.000000 0.500000
O O12 0.744558 0.374483 0.339509
O O13 0.765462 0.505218 0.365939
O O14 0.000000 0.414463 0.374751
O O15 0.500000 0.157000 0.294820
O O16 0.727404 0.250000 0.304021
O O17 0.750000 0.140530 0.250000
O O18 0.000000 0.907234 0.375117
#
# Coordination Sequence:
#
# PCOD8300386 Si02
#       6
#    16  16  16  16  16  16
#     4   9  17  31  50  72 102 140 180 221 266 317
#     4  10  20  36  60  86 111 146 193 242 292 349
#     4  11  23  39  58  82 117 158 197 243 302 357
#     4  11  22  37  62  90 118 153 195 241 293 354
#     4  10  22  42  66  91 122 158 198 248 304 363
#     4   9  18  33  54  81 110 143 184 231 282 337
#
# _framework density 19.401416000000001
#
# number of rings (size 3 to 8) (size 9 to 14) (size 15 to 20)
#    0.000    2.000    1.667    2.000    0.000    5.333 
#    0.000    4.167    0.000    2.000    0.000    0.000 
#    0.000    0.000    0.000    0.000    0.000    0.000 
#
# Total GULP energy -594992.128465 kJ/mol
# GULP energy per Si atom -12395.669343 kJ/mol
# Density = 1.935726 g / cm^3
# Si number density = 19.401416 Si / 1000 Ang^3
#
#
#
# Elastic Constant Matrix: (Units=GPa)
#
#
# Indices 1 2 3 4 5 6 
#
# 1 43.3235 40.0252 35.4721 0.0000 0.0000 0.0000
# 2 40.0252 103.3835 76.4208 0.0000 0.0000 0.0000
# 3 35.4721 76.4208 178.9174 0.0000 0.0000 0.0000
# 4 0.0000 0.0000 0.0000 98.3621 0.0000 0.0000
# 5 0.0000 0.0000 0.0000 0.0000 33.1266 0.0000
# 6 0.0000 0.0000 0.0000 0.0000 0.0000 20.5494
#
#
#
# Elastic Compliance Matrix: (Units=1/GPa)
#
#
# Indices 1 2 3 4 5 6 
#
# 1 0.036305 -0.012765 -0.001745 0.000000 0.000000 0.000000
# 2 -0.012765 0.018624 -0.005424 0.000000 0.000000 0.000000
# 3 -0.001745 -0.005424 0.008252 0.000000 0.000000 0.000000
# 4 0.000000 0.000000 0.000000 0.010167 0.000000 0.000000
# 5 0.000000 0.000000 0.000000 0.000000 0.030187 0.000000
# 6 0.000000 0.000000 0.000000 0.000000 0.000000 0.048663
#
#
# Mechanical properties :
#
#
# Convention : Reuss Voigt Hill
#
# Bulk Modulus (GPa) = 42.89738 69.94007 56.41872
# Shear Modulus (GPa) = 25.02025 41.98804 33.50414
#
# Velocity S-wave (km/s) = 3.59501 4.65712 4.16010
# Velocity P-wave (km/s) = 6.27619 8.06508 7.22620
#
# Compressibility (1/GPa) = 0.02331145
#
# Stress axis : x y z
#
# Youngs Moduli (GPa) = 27.54469 53.69300 121.18256
#
# Poissons Ratio (x) = 0.68541 0.21150
# Poissons Ratio (y) = 0.35162 0.65732
# Poissons Ratio (z) = 0.04807 0.29124
#
# Static dielectric constant tensor:
#      x y z
#    x 3.320300 0.000000 0.000000 
#    y 0.000000 3.686880 0.000000 
#    z 0.000000 0.000000 3.898000 
# 
# 
# High freq. dielectric constant tensor:
#      x y z
#    x 1.738530 0.000000 0.000000 
#    y 0.000000 1.753980 0.000000 
#    z 0.000000 0.000000 1.772330 
# 
# From -- ./inp_files/64350.got.cif
#   From: 2010.03.12/outbox.cif.g09.slc.cpg/sg74_33_cif.got.tgz:64350.got - 2010.04.16 15:46:19.
