data_PCOD8300557
_publ_section_title
;
Structure prediction by ZEFSAII (Michael W. Deem and Ramdas Pophale) SiO2 
 PCOD8300557
Probable space group: I M M A
;
_chemical_formula_sum "Si O2"
_cell_formula_units_Z 64
_cell_length_a 16.600368
_cell_length_b 22.904366
_cell_length_c 7.907619
_cell_angle_alpha 90.000000
_cell_angle_beta 90.000000
_cell_angle_gamma 90.000000
_cell_volume 3006.642048
_symmetry_space_group_name_H-M "I M M A"
_symmetry_group_IT_number 74
_symmetry_cell_setting 'orthorhombic'
loop_
_space_group_symop_operation_xyz
x,y,z
-x,1/2-y,z
x,-y,-z
-x,1/2+y,-z
-x,-y,-z
x,1/2+y,-z
-x,y,z
x,1/2-y,z
1/2+x,1/2+y,1/2+z
1/2-x,-y,1/2+z
1/2+x,1/2-y,1/2-z
1/2-x,y,1/2-z
1/2-x,1/2-y,1/2-z
1/2+x,y,1/2-z
1/2-x,1/2+y,1/2+z
1/2+x,-y,1/2+z
loop_
_atom_site_type_symbol
_atom_site_label
_atom_site_fract_x
_atom_site_fract_y
_atom_site_fract_z
Si Si1 0.408683 0.183963 0.346204
Si Si2 0.091515 0.467125 0.742933
Si Si3 0.296894 0.881582 0.419010
Si Si4 0.141365 0.914910 0.599284
O O1 0.500000 0.176204 0.411828
O O2 0.392793 0.250000 0.285247
O O3 0.348519 0.171018 0.502057
O O4 0.394681 0.142606 0.185229
O O5 0.142411 0.434692 0.885567
O O6 0.092222 0.429135 0.571094
O O7 0.132802 0.530111 0.723200
O O8 0.000000 0.474581 0.804497
O O9 0.250000 0.860409 0.250000
O O10 0.235081 0.904547 0.559727
#
# Coordination Sequence:
#
# PCOD8300557 Si02
#       4
#    16  16  16  16
#     4  11  24  42  62  84 113 153 201 246 288 342
#     4  10  20  38  62  89 122 155 192 239 293 349
#     4  10  23  38  59  88 121 155 192 238 293 351
#     4  10  21  37  60  91 121 154 194 240 293 346
#
# _framework density 21.286204000000001
#
# number of rings (size 3 to 8) (size 9 to 14) (size 15 to 20)
#    0.000    1.750    0.000    4.500    0.000   15.500 
#    0.000    6.250    0.000   13.500    0.000    0.000 
#    0.000    0.000    0.000    0.000    0.000    0.000 
#
# Total GULP energy -396894.375161 kJ/mol
# GULP energy per Si atom -12402.949224 kJ/mol
# Density = 2.123776 g / cm^3
# Si number density = 21.286204 Si / 1000 Ang^3
#
#
#
# Elastic Constant Matrix: (Units=GPa)
#
#
# Indices 1 2 3 4 5 6 
#
# 1 162.6962 73.2424 49.1591 0.0000 0.0000 0.0000
# 2 73.2424 160.7918 58.2370 0.0000 0.0000 0.0000
# 3 49.1591 58.2370 79.1473 0.0000 0.0000 0.0000
# 4 0.0000 0.0000 0.0000 32.5651 0.0000 0.0000
# 5 0.0000 0.0000 0.0000 0.0000 32.8204 0.0000
# 6 0.0000 0.0000 0.0000 0.0000 0.0000 -40.1602
#
#
#
# Elastic Compliance Matrix: (Units=1/GPa)
#
#
# Indices 1 2 3 4 5 6 
#
# 1 0.008298 -0.002608 -0.003235 0.000000 0.000000 0.000000
# 2 -0.002608 0.009299 -0.005222 0.000000 0.000000 0.000000
# 3 -0.003235 -0.005222 0.018486 0.000000 0.000000 0.000000
# 4 0.000000 0.000000 0.000000 0.030708 0.000000 0.000000
# 5 0.000000 0.000000 0.000000 0.000000 0.030469 0.000000
# 6 0.000000 0.000000 0.000000 0.000000 0.000000 -0.024900
#
#
# Mechanical properties :
#
#
# Convention : Reuss Voigt Hill
#
# Bulk Modulus (GPa) = 71.67029 84.87915 78.27472
# Shear Modulus (GPa) = 50.43362 19.84484 35.13923
#
# Velocity S-wave (km/s) = 4.87284 3.05665 4.06741
# Velocity P-wave (km/s) = 8.08717 7.24011 7.67534
#
# Compressibility (1/GPa) = 0.01395278
#
# Stress axis : x y z
#
# Youngs Moduli (GPa) = 120.51097 107.54266 54.09431
#
# Poissons Ratio (x) = 0.28049 0.17499
# Poissons Ratio (y) = 0.31432 0.28248
# Poissons Ratio (z) = 0.38983 0.56159
#
# Static dielectric constant tensor:
#      x y z
#    x 4.057980 0.000000 0.000000 
#    y 0.000000 3.702070 0.000000 
#    z 0.000000 0.000000 3.714110 
# 
# 
# High freq. dielectric constant tensor:
#      x y z
#    x 1.855980 0.000000 0.000000 
#    y 0.000000 1.819590 0.000000 
#    z 0.000000 0.000000 1.831760 
# 
# From -- ./inp_files/8796.got.cif
#   From: 2010.03.12/outbox.cif.g09.slc.cpg/sg74_5_cif.got.tgz:8796.got - 2010.04.16 15:46:19.
