data_PCOD8300550
_publ_section_title
;
Structure prediction by ZEFSAII (Michael W. Deem and Ramdas Pophale) SiO2 
 PCOD8300550
Probable space group: I M M A
;
_chemical_formula_sum "Si O2"
_cell_formula_units_Z 104
_cell_length_a 23.399577
_cell_length_b 25.151455
_cell_length_c 9.287566
_cell_angle_alpha 90.000000
_cell_angle_beta 90.000000
_cell_angle_gamma 90.000000
_cell_volume 5466.042869
_symmetry_space_group_name_H-M "I M M A"
_symmetry_group_IT_number 74
_symmetry_cell_setting 'orthorhombic'
loop_
_space_group_symop_operation_xyz
x,y,z
-x,1/2-y,z
x,-y,-z
-x,1/2+y,-z
-x,-y,-z
x,1/2+y,-z
-x,y,z
x,1/2-y,z
1/2+x,1/2+y,1/2+z
1/2-x,-y,1/2+z
1/2+x,1/2-y,1/2-z
1/2-x,y,1/2-z
1/2-x,1/2-y,1/2-z
1/2+x,y,1/2-z
1/2-x,1/2+y,1/2+z
1/2+x,-y,1/2+z
loop_
_atom_site_type_symbol
_atom_site_label
_atom_site_fract_x
_atom_site_fract_y
_atom_site_fract_z
Si Si1 0.691956 0.097912 0.164389
Si Si2 0.500000 0.981636 0.335766
Si Si3 0.000000 0.643674 0.158002
Si Si4 0.612834 0.500221 0.831287
Si Si5 0.392974 0.311180 0.824808
Si Si6 0.691242 0.402017 0.830835
Si Si7 0.000000 0.688203 0.847198
Si Si8 0.607842 0.189345 0.155787
O O1 0.750000 0.094190 0.250000
O O2 0.661638 0.153689 0.199917
O O3 0.651154 0.050238 0.212796
O O4 0.706637 0.093202 0.997429
O O5 0.500000 0.918601 0.313171
O O6 0.444773 0.005816 0.258840
O O7 0.500000 0.000000 0.500000
O O8 0.055409 0.670857 0.225130
O O9 0.000000 0.652452 0.987971
O O10 0.646091 0.447019 0.785437
O O11 0.597584 0.500000 0.000000
O O12 0.378084 0.250000 0.792749
O O13 0.336277 0.345168 0.790005
O O14 0.410919 0.320415 0.990657
O O15 0.750000 0.410500 0.750000
O O16 0.945148 0.673037 0.753728
O O17 0.000000 0.750000 0.890075
O O18 0.626491 0.250000 0.180901
#
# Coordination Sequence:
#
# PCOD8300550 Si02
#       8
#    16   8   8  16  16  16   8  16
#     4  10  22  37  60  87 112 155 199 235 287 346
#     4  12  27  40  58  93 121 149 185 246 302 341
#     4  12  23  38  58  87 121 150 189 241 299 349
#     4  10  22  43  63  84 114 154 197 237 288 355
#     4  10  20  38  62  87 115 156 198 236 286 350
#     4  10  21  38  59  85 118 152 192 242 287 338
#     4  10  21  36  56  86 120 155 188 235 291 346
#     4   9  20  38  60  86 119 155 197 239 285 345
#
# _framework density 19.02656
#
# number of rings (size 3 to 8) (size 9 to 14) (size 15 to 20)
#    0.000    1.846    1.538    1.846    2.154    4.308 
#    0.000    0.000    0.000    0.000    0.000    0.000 
#    0.000    0.000    0.000    0.000    0.000    0.000 
#
# Total GULP energy -645040.327092 kJ/mol
# GULP energy per Si atom -12404.621675 kJ/mol
# Density = 1.898325 g / cm^3
# Si number density = 19.026560 Si / 1000 Ang^3
#
#
#
# Elastic Constant Matrix: (Units=GPa)
#
#
# Indices 1 2 3 4 5 6 
#
# 1 162.2023 66.4281 79.8796 0.0000 0.0000 0.0000
# 2 66.4281 123.1311 46.6700 0.0000 0.0000 0.0000
# 3 79.8796 46.6700 86.1640 0.0000 0.0000 0.0000
# 4 0.0000 0.0000 0.0000 24.5796 0.0000 0.0000
# 5 0.0000 0.0000 0.0000 0.0000 35.6042 0.0000
# 6 0.0000 0.0000 0.0000 0.0000 0.0000 18.6020
#
#
#
# Elastic Compliance Matrix: (Units=1/GPa)
#
#
# Indices 1 2 3 4 5 6 
#
# 1 0.012097 -0.002863 -0.009664 0.000000 0.000000 0.000000
# 2 -0.002863 0.010897 -0.003248 0.000000 0.000000 0.000000
# 3 -0.009664 -0.003248 0.022324 0.000000 0.000000 0.000000
# 4 0.000000 0.000000 0.000000 0.040684 0.000000 0.000000
# 5 0.000000 0.000000 0.000000 0.000000 0.028087 0.000000
# 6 0.000000 0.000000 0.000000 0.000000 0.000000 0.053758
#
#
# Mechanical properties :
#
#
# Convention : Reuss Voigt Hill
#
# Bulk Modulus (GPa) = 72.63167 84.16142 78.39654
# Shear Modulus (GPa) = 24.51160 27.65850 26.08505
#
# Velocity S-wave (km/s) = 3.59316 3.81685 3.70669
# Velocity P-wave (km/s) = 7.44789 7.98462 7.72092
#
# Compressibility (1/GPa) = 0.01376810
#
# Stress axis : x y z
#
# Youngs Moduli (GPa) = 82.66632 91.76668 44.79534
#
# Poissons Ratio (x) = 0.26276 0.43289
# Poissons Ratio (y) = 0.23670 0.14549
# Poissons Ratio (z) = 0.79886 0.29805
#
# Static dielectric constant tensor:
#      x y z
#    x 3.371270 0.000000 0.000000 
#    y 0.000000 3.716860 0.000000 
#    z 0.000000 0.000000 3.425050 
# 
# 
# High freq. dielectric constant tensor:
#      x y z
#    x 1.739820 0.000000 0.000000 
#    y 0.000000 1.755800 0.000000 
#    z 0.000000 0.000000 1.735880 
# 
# From -- ./inp_files/12820.got.cif
#   From: 2010.03.12/outbox.cif.g09.slc.cpg/sg74_7_cif.got.tgz:12820.got - 2010.04.16 15:46:19.
