data_PCOD8300748
_publ_section_title
;
Structure prediction by ZEFSAII (Michael W. Deem and Ramdas Pophale) SiO2 
 PCOD8300748
Probable space group: I M M A
;
_chemical_formula_sum "Si O2"
_cell_formula_units_Z 80
_cell_length_a 12.970066
_cell_length_b 13.641839
_cell_length_c 27.023514
_cell_angle_alpha 90.000000
_cell_angle_beta 90.000000
_cell_angle_gamma 90.000000
_cell_volume 4781.420372
_symmetry_space_group_name_H-M "I M M A"
_symmetry_group_IT_number 74
_symmetry_cell_setting 'orthorhombic'
loop_
_space_group_symop_operation_xyz
x,y,z
-x,1/2-y,z
x,-y,-z
-x,1/2+y,-z
-x,-y,-z
x,1/2+y,-z
-x,y,z
x,1/2-y,z
1/2+x,1/2+y,1/2+z
1/2-x,-y,1/2+z
1/2+x,1/2-y,1/2-z
1/2-x,y,1/2-z
1/2-x,1/2-y,1/2-z
1/2+x,y,1/2-z
1/2-x,1/2+y,1/2+z
1/2+x,-y,1/2+z
loop_
_atom_site_type_symbol
_atom_site_label
_atom_site_fract_x
_atom_site_fract_y
_atom_site_fract_z
Si Si1 0.886060 0.365438 0.276376
Si Si2 0.305283 0.454684 0.426314
Si Si3 0.880261 0.639028 0.023945
Si Si4 0.382045 0.135342 0.115271
Si Si5 0.378414 0.140255 0.329565
O O1 0.900276 0.250000 0.273529
O O2 0.832329 0.389103 0.329783
O O3 0.829374 0.395188 0.224146
O O4 0.000000 0.414095 0.279253
O O5 0.314341 0.569281 0.439845
O O6 0.363674 0.389448 0.466906
O O7 0.184611 0.424885 0.424648
O O8 0.355553 0.435483 0.373136
O O9 0.843600 0.750000 0.032976
O O10 0.000000 0.625899 0.036663
O O11 0.500000 0.100234 0.111869
O O12 0.374363 0.250000 0.103367
O O13 0.500000 0.144141 0.320396
O O14 0.337940 0.250000 0.343737
#
# Coordination Sequence:
#
# PCOD8300748 Si02
#       5
#    16  16  16  16  16
#     4   7  12  23  37  58  93 127 147 172 216 263
#     4  11  19  29  48  69  87 115 156 186 213 264
#     4  10  21  36  50  66  91 115 137 179 236 281
#     4   9  17  29  44  65  96 129 155 181 217 259
#     4   9  15  23  39  66  96 120 145 180 219 264
#
# _framework density 16.731431000000001
#
# number of rings (size 3 to 8) (size 9 to 14) (size 15 to 20)
#    0.000    2.800    0.000    6.600    0.000    2.400 
#    0.000    5.000    0.000    1.800    0.000    2.800 
#    0.000    4.800    0.000    0.000    0.000    0.000 
#
# Total GULP energy -495591.522905 kJ/mol
# GULP energy per Si atom -12389.788073 kJ/mol
# Density = 1.669335 g / cm^3
# Si number density = 16.731431 Si / 1000 Ang^3
#
#
#
# Elastic Constant Matrix: (Units=GPa)
#
#
# Indices 1 2 3 4 5 6 
#
# 1 41.8444 34.3364 24.9487 0.0000 0.0000 0.0000
# 2 34.3364 96.2820 50.1499 0.0000 0.0000 0.0000
# 3 24.9487 50.1499 89.0309 0.0000 0.0000 0.0000
# 4 0.0000 0.0000 0.0000 22.7361 0.0000 0.0000
# 5 0.0000 0.0000 0.0000 0.0000 45.3801 0.0000
# 6 0.0000 0.0000 0.0000 0.0000 0.0000 21.5541
#
#
#
# Elastic Compliance Matrix: (Units=1/GPa)
#
#
# Indices 1 2 3 4 5 6 
#
# 1 0.034715 -0.010350 -0.003898 0.000000 0.000000 0.000000
# 2 -0.010350 0.017784 -0.007117 0.000000 0.000000 0.000000
# 3 -0.003898 -0.007117 0.016334 0.000000 0.000000 0.000000
# 4 0.000000 0.000000 0.000000 0.043983 0.000000 0.000000
# 5 0.000000 0.000000 0.000000 0.000000 0.022036 0.000000
# 6 0.000000 0.000000 0.000000 0.000000 0.000000 0.046395
#
#
# Mechanical properties :
#
#
# Convention : Reuss Voigt Hill
#
# Bulk Modulus (GPa) = 38.31088 49.55860 43.93474
# Shear Modulus (GPa) = 21.48891 25.78221 23.63556
#
# Velocity S-wave (km/s) = 3.58766 3.92975 3.76259
# Velocity P-wave (km/s) = 6.33317 7.09048 6.72250
#
# Compressibility (1/GPa) = 0.02610224
#
# Stress axis : x y z
#
# Youngs Moduli (GPa) = 28.80602 56.22923 61.22370
#
# Poissons Ratio (x) = 0.58196 0.23866
# Poissons Ratio (y) = 0.29814 0.43575
# Poissons Ratio (z) = 0.11229 0.40021
#
# Static dielectric constant tensor:
#      x y z
#    x 3.286120 0.000000 0.000000 
#    y 0.000000 2.712790 0.000000 
#    z 0.000000 0.000000 3.328240 
# 
# 
# High freq. dielectric constant tensor:
#      x y z
#    x 1.663010 0.000000 0.000000 
#    y 0.000000 1.572810 0.000000 
#    z 0.000000 0.000000 1.652280 
# 
# From -- ./inp_files/59891.got.cif
#   From: 2010.03.12/outbox.cif.g09.slc.cpg/sg74_30_cif.got.tgz:59891.got - 2010.04.16 15:46:19.
