data_PCOD8300787
_publ_section_title
;
Structure prediction by ZEFSAII (Michael W. Deem and Ramdas Pophale) SiO2 
 PCOD8300787
Probable space group: I M M A
;
_chemical_formula_sum "Si O2"
_cell_formula_units_Z 72
_cell_length_a 8.812652
_cell_length_b 15.424934
_cell_length_c 26.474006
_cell_angle_alpha 90.000000
_cell_angle_beta 90.000000
_cell_angle_gamma 90.000000
_cell_volume 3598.732766
_symmetry_space_group_name_H-M "I M M A"
_symmetry_group_IT_number 74
_symmetry_cell_setting 'orthorhombic'
loop_
_space_group_symop_operation_xyz
x,y,z
-x,1/2-y,z
x,-y,-z
-x,1/2+y,-z
-x,-y,-z
x,1/2+y,-z
-x,y,z
x,1/2-y,z
1/2+x,1/2+y,1/2+z
1/2-x,-y,1/2+z
1/2+x,1/2-y,1/2-z
1/2-x,y,1/2-z
1/2-x,1/2-y,1/2-z
1/2+x,y,1/2-z
1/2-x,1/2+y,1/2+z
1/2+x,-y,1/2+z
loop_
_atom_site_type_symbol
_atom_site_label
_atom_site_fract_x
_atom_site_fract_y
_atom_site_fract_z
Si Si1 0.179149 0.250000 0.694867
Si Si2 0.821881 0.415161 0.856001
Si Si3 0.323933 0.422583 0.962162
Si Si4 0.176130 0.750000 0.520945
Si Si5 0.821010 0.907862 0.803835
Si Si6 0.679389 0.250000 0.370748
O O1 0.250000 0.250000 0.750000
O O2 0.228829 0.166267 0.663863
O O3 0.000000 0.250000 0.700606
O O4 0.780780 0.434802 0.913630
O O5 0.771759 0.497648 0.823052
O O6 0.000000 0.396210 0.851184
O O7 0.500000 0.423020 0.945939
O O8 0.286101 0.500000 0.000000
O O9 0.278101 0.333198 0.988519
O O10 0.267791 0.750000 0.572195
O O11 0.000000 0.750000 0.534970
O O12 0.750000 0.888760 0.750000
O O13 0.758327 0.835702 0.842653
O O14 0.000000 0.900921 0.798801
O O15 0.500000 0.250000 0.370498
#
# Coordination Sequence:
#
# PCOD8300787 Si02
#       6
#     8  16  16   8  16   8
#     4  12  25  42  63  87 117 153 193 240 295 355
#     4  11  23  39  60  88 118 152 196 242 292 349
#     4  10  21  37  57  83 116 154 196 241 289 342
#     4  10  21  36  55  81 110 144 189 234 281 338
#     4  10  22  38  58  85 116 150 190 234 281 337
#     4  10  21  38  58  84 117 151 189 234 283 335
#
# _framework density 20.007041999999998
#
# number of rings (size 3 to 8) (size 9 to 14) (size 15 to 20)
#    0.000    1.556    0.000    4.667    0.000    6.667 
#    0.000    0.000    0.000    0.000    0.000    0.000 
#    0.000    0.000    0.000    0.000    0.000    0.000 
#
# Total GULP energy -446623.174883 kJ/mol
# GULP energy per Si atom -12406.199302 kJ/mol
# Density = 1.996150 g / cm^3
# Si number density = 20.007042 Si / 1000 Ang^3
#
#
#
# Elastic Constant Matrix: (Units=GPa)
#
#
# Indices 1 2 3 4 5 6 
#
# 1 58.4905 34.6735 28.2654 0.0000 0.0000 0.0000
# 2 34.6735 101.0198 13.3317 0.0000 0.0000 0.0000
# 3 28.2654 13.3317 95.9979 0.0000 0.0000 0.0000
# 4 0.0000 0.0000 0.0000 43.8556 0.0000 0.0000
# 5 0.0000 0.0000 0.0000 0.0000 43.4617 0.0000
# 6 0.0000 0.0000 0.0000 0.0000 0.0000 24.0094
#
#
#
# Elastic Compliance Matrix: (Units=1/GPa)
#
#
# Indices 1 2 3 4 5 6 
#
# 1 0.024610 -0.007630 -0.006186 0.000000 0.000000 0.000000
# 2 -0.007630 0.012450 0.000518 0.000000 0.000000 0.000000
# 3 -0.006186 0.000518 0.012166 0.000000 0.000000 0.000000
# 4 0.000000 0.000000 0.000000 0.022802 0.000000 0.000000
# 5 0.000000 0.000000 0.000000 0.000000 0.023009 0.000000
# 6 0.000000 0.000000 0.000000 0.000000 0.000000 0.041650
#
#
# Mechanical properties :
#
#
# Convention : Reuss Voigt Hill
#
# Bulk Modulus (GPa) = 44.19345 45.33884 44.76614
# Shear Modulus (GPa) = 29.26921 34.21452 31.74187
#
# Velocity S-wave (km/s) = 3.82900 4.13985 3.98745
# Velocity P-wave (km/s) = 6.45641 6.74995 6.60481
#
# Compressibility (1/GPa) = 0.02262779
#
# Stress axis : x y z
#
# Youngs Moduli (GPa) = 40.63434 80.32280 82.19297
#
# Poissons Ratio (x) = 0.61290 0.50847
# Poissons Ratio (y) = 0.31006 -0.04255
# Poissons Ratio (z) = 0.25138 -0.04159
#
# Static dielectric constant tensor:
#      x y z
#    x 3.518580 0.000000 0.000000 
#    y 0.000000 4.009090 0.000000 
#    z 0.000000 0.000000 3.686850 
# 
# 
# High freq. dielectric constant tensor:
#      x y z
#    x 1.773250 0.000000 0.000000 
#    y 0.000000 1.803500 0.000000 
#    z 0.000000 0.000000 1.794820 
# 
# From -- ./inp_files/63657.got.cif
#   From: 2010.03.12/outbox.cif.g09.slc.cpg/sg74_32_cif.got.tgz:63657.got - 2010.04.16 15:46:19.
