data_PCOD8300165
_publ_section_title
;
Structure prediction by ZEFSAII (Michael W. Deem and Ramdas Pophale) SiO2 
 PCOD8300165
Probable space group: I M M A
;
_chemical_formula_sum "Si O2"
_cell_formula_units_Z 104
_cell_length_a 19.812789
_cell_length_b 8.948423
_cell_length_c 32.076315
_cell_angle_alpha 90.000000
_cell_angle_beta 90.000000
_cell_angle_gamma 90.000000
_cell_volume 5686.913069
_symmetry_space_group_name_H-M "I M M A"
_symmetry_group_IT_number 74
_symmetry_cell_setting 'orthorhombic'
loop_
_space_group_symop_operation_xyz
x,y,z
-x,1/2-y,z
x,-y,-z
-x,1/2+y,-z
-x,-y,-z
x,1/2+y,-z
-x,y,z
x,1/2-y,z
1/2+x,1/2+y,1/2+z
1/2-x,-y,1/2+z
1/2+x,1/2-y,1/2-z
1/2-x,y,1/2-z
1/2-x,1/2-y,1/2-z
1/2+x,y,1/2-z
1/2-x,1/2+y,1/2+z
1/2+x,-y,1/2+z
loop_
_atom_site_type_symbol
_atom_site_label
_atom_site_fract_x
_atom_site_fract_y
_atom_site_fract_z
Si Si1 0.832382 0.076666 0.839155
Si Si2 0.122702 0.920098 0.919666
Si Si3 0.734386 0.077577 0.043236
Si Si4 0.689506 0.578379 0.126483
Si Si5 0.077040 0.075896 0.226381
Si Si6 0.422851 0.920039 0.823034
Si Si7 0.000000 0.921977 0.043281
O O1 0.850498 0.250000 0.848299
O O2 0.751384 0.054087 0.840897
O O3 0.860960 0.962332 0.872737
O O4 0.866813 0.026568 0.796034
O O5 0.096514 0.750000 0.921220
O O6 0.185626 0.942681 0.950448
O O7 0.065888 0.035459 0.931789
O O8 0.713840 0.250000 0.040349
O O9 0.696732 0.009021 0.083040
O O10 0.712615 0.000000 0.000000
O O11 0.683506 0.750000 0.113844
O O12 0.621834 0.528290 0.149128
O O13 0.091820 0.250000 0.217819
O O14 0.085122 0.037597 0.274798
O O15 0.000000 0.037713 0.211985
O O16 0.500000 0.941210 0.837097
O O17 0.399374 0.750000 0.830369
O O18 0.000000 0.750000 0.034163
O O19 0.000000 0.000000 0.000000
#
# Coordination Sequence:
#
# PCOD8300165 Si02
#       7
#    16  16  16  16  16  16   8
#     4  10  21  35  51  76 109 143 181 226 273 319
#     4  10  21  36  53  73 100 138 180 224 272 320
#     4  10  20  35  57  81 106 138 176 218 265 318
#     4  10  21  36  55  81 112 143 178 220 267 322
#     4   9  19  35  54  76 105 144 187 229 271 322
#     4   9  19  37  59  82 108 140 179 221 269 324
#     4  12  24  36  50  70  98 134 178 226 276 326
#
# _framework density 18.287600999999999
#
# number of rings (size 3 to 8) (size 9 to 14) (size 15 to 20)
#    0.000    2.154    0.000    3.923    1.077    6.769 
#    0.000    4.615    0.000    0.462    0.000    0.000 
#    0.000    0.000    0.000    0.000    0.000    0.000 
#
# Total GULP energy -644746.388355 kJ/mol
# GULP energy per Si atom -12398.969007 kJ/mol
# Density = 1.824598 g / cm^3
# Si number density = 18.287601 Si / 1000 Ang^3
#
#
#
# Elastic Constant Matrix: (Units=GPa)
#
#
# Indices 1 2 3 4 5 6 
#
# 1 78.5043 44.8192 48.6893 0.0000 0.0000 0.0000
# 2 44.8192 112.2801 49.2718 0.0000 0.0000 0.0000
# 3 48.6893 49.2718 87.2009 0.0000 0.0000 0.0000
# 4 0.0000 0.0000 0.0000 36.2477 0.0000 0.0000
# 5 0.0000 0.0000 0.0000 0.0000 16.0765 0.0000
# 6 0.0000 0.0000 0.0000 0.0000 0.0000 29.4661
#
#
#
# Elastic Compliance Matrix: (Units=1/GPa)
#
#
# Indices 1 2 3 4 5 6 
#
# 1 0.020933 -0.004291 -0.009264 0.000000 0.000000 0.000000
# 2 -0.004291 0.012722 -0.004793 0.000000 0.000000 0.000000
# 3 -0.009264 -0.004793 0.019348 0.000000 0.000000 0.000000
# 4 0.000000 0.000000 0.000000 0.027588 0.000000 0.000000
# 5 0.000000 0.000000 0.000000 0.000000 0.062203 0.000000
# 6 0.000000 0.000000 0.000000 0.000000 0.000000 0.033937
#
#
# Mechanical properties :
#
#
# Convention : Reuss Voigt Hill
#
# Bulk Modulus (GPa) = 61.31496 62.61622 61.96559
# Shear Modulus (GPa) = 22.84532 25.37173 24.10852
#
# Velocity S-wave (km/s) = 3.53827 3.72879 3.63478
# Velocity P-wave (km/s) = 7.09179 7.26997 7.18143
#
# Compressibility (1/GPa) = 0.01630923
#
# Stress axis : x y z
#
# Youngs Moduli (GPa) = 47.77054 78.60227 51.68389
#
# Poissons Ratio (x) = 0.33727 0.47879
# Poissons Ratio (y) = 0.20497 0.24771
# Poissons Ratio (z) = 0.44254 0.37672
#
# Static dielectric constant tensor:
#      x y z
#    x 3.269590 0.000000 0.000000 
#    y 0.000000 3.382660 0.000000 
#    z 0.000000 0.000000 3.132270 
# 
# 
# High freq. dielectric constant tensor:
#      x y z
#    x 1.694530 0.000000 0.000000 
#    y 0.000000 1.719910 0.000000 
#    z 0.000000 0.000000 1.705000 
# 
# From -- ./inp_files/73411.got.cif
#   From: 2010.03.12/outbox.cif.g09.slc.cpg/sg74_37_cif.got.tgz:73411.got - 2010.04.16 15:46:19.
