data_PCOD8300383
_publ_section_title
;
Structure prediction by ZEFSAII (Michael W. Deem and Ramdas Pophale) SiO2 
 PCOD8300383
Probable space group: I M M A
;
_chemical_formula_sum "Si O2"
_cell_formula_units_Z 96
_cell_length_a 29.004379
_cell_length_b 18.717176
_cell_length_c 9.363316
_cell_angle_alpha 90.000000
_cell_angle_beta 90.000000
_cell_angle_gamma 90.000000
_cell_volume 5083.157613
_symmetry_space_group_name_H-M "I M M A"
_symmetry_group_IT_number 74
_symmetry_cell_setting 'orthorhombic'
loop_
_space_group_symop_operation_xyz
x,y,z
-x,1/2-y,z
x,-y,-z
-x,1/2+y,-z
-x,-y,-z
x,1/2+y,-z
-x,y,z
x,1/2-y,z
1/2+x,1/2+y,1/2+z
1/2-x,-y,1/2+z
1/2+x,1/2-y,1/2-z
1/2-x,y,1/2-z
1/2-x,1/2-y,1/2-z
1/2+x,y,1/2-z
1/2-x,1/2+y,1/2+z
1/2+x,-y,1/2+z
loop_
_atom_site_type_symbol
_atom_site_label
_atom_site_fract_x
_atom_site_fract_y
_atom_site_fract_z
Si Si1 0.774114 0.668577 0.889724
Si Si2 0.449234 0.834914 0.524595
Si Si3 0.053743 0.666973 0.296051
Si Si4 0.373112 0.417795 0.977675
Si Si5 0.727615 0.932157 0.099912
Si Si6 0.628498 0.332435 0.266291
O O1 0.757907 0.750000 0.904183
O O2 0.750000 0.634271 0.750000
O O3 0.828786 0.661273 0.874068
O O4 0.757574 0.631355 0.033670
O O5 0.500000 0.864076 0.564131
O O6 0.449179 0.750000 0.524533
O O7 0.435662 0.859711 0.365017
O O8 0.414513 0.863885 0.644381
O O9 0.066714 0.750000 0.315347
O O10 0.084470 0.620641 0.401884
O O11 0.000000 0.655064 0.333120
O O12 0.326221 0.410337 0.884904
O O13 0.386791 0.500000 0.000000
O O14 0.363431 0.380965 0.129310
O O15 0.750000 0.951767 0.250000
O O16 0.731746 0.000000 0.000000
O O17 0.620971 0.250000 0.219052
#
# Coordination Sequence:
#
# PCOD8300383 Si02
#       6
#    16  16  16  16  16  16
#     4  10  20  37  59  85 117 150 188 243 302 346
#     4   8  16  33  58  86 111 141 187 236 283 344
#     4   9  19  38  62  86 117 155 193 239 294 349
#     4  11  24  38  55  86 119 152 196 242 290 343
#     4  11  25  41  60  82 116 161 202 244 292 361
#     4  10  20  36  60  85 113 148 189 239 291 350
#
# _framework density 18.885898999999998
#
# number of rings (size 3 to 8) (size 9 to 14) (size 15 to 20)
#    0.000    2.167    1.667    2.000    4.667    2.000 
#    0.000    2.500    0.000    2.000    0.000    0.000 
#    0.000    0.000    0.000    0.000    0.000    0.000 
#
# Total GULP energy -595207.270781 kJ/mol
# GULP energy per Si atom -12400.151475 kJ/mol
# Density = 1.884291 g / cm^3
# Si number density = 18.885899 Si / 1000 Ang^3
#
#
#
# Elastic Constant Matrix: (Units=GPa)
#
#
# Indices 1 2 3 4 5 6 
#
# 1 114.0877 41.1414 52.5513 0.0000 0.0000 0.0000
# 2 41.1414 74.7647 34.7343 0.0000 0.0000 0.0000
# 3 52.5513 34.7343 86.1328 0.0000 0.0000 0.0000
# 4 0.0000 0.0000 0.0000 20.9088 0.0000 0.0000
# 5 0.0000 0.0000 0.0000 0.0000 39.0570 0.0000
# 6 0.0000 0.0000 0.0000 0.0000 0.0000 16.6134
#
#
#
# Elastic Compliance Matrix: (Units=1/GPa)
#
#
# Indices 1 2 3 4 5 6 
#
# 1 0.013249 -0.004350 -0.006329 0.000000 0.000000 0.000000
# 2 -0.004350 0.017887 -0.004559 0.000000 0.000000 0.000000
# 3 -0.006329 -0.004559 0.017310 0.000000 0.000000 0.000000
# 4 0.000000 0.000000 0.000000 0.047827 0.000000 0.000000
# 5 0.000000 0.000000 0.000000 0.000000 0.025604 0.000000
# 6 0.000000 0.000000 0.000000 0.000000 0.000000 0.060192
#
#
# Mechanical properties :
#
#
# Convention : Reuss Voigt Hill
#
# Bulk Modulus (GPa) = 55.65064 59.09324 57.37194
# Shear Modulus (GPa) = 22.87944 25.08641 23.98292
#
# Velocity S-wave (km/s) = 3.48437 3.64856 3.56741
# Velocity P-wave (km/s) = 6.76155 7.00763 6.88569
#
# Compressibility (1/GPa) = 0.01796925
#
# Stress axis : x y z
#
# Youngs Moduli (GPa) = 75.47492 55.90579 57.76959
#
# Poissons Ratio (x) = 0.24321 0.36565
# Poissons Ratio (y) = 0.32834 0.26337
# Poissons Ratio (z) = 0.47771 0.25488
#
# Static dielectric constant tensor:
#      x y z
#    x 3.729630 0.000000 0.000000 
#    y 0.000000 3.292770 0.000000 
#    z 0.000000 0.000000 3.466560 
# 
# 
# High freq. dielectric constant tensor:
#      x y z
#    x 1.745760 0.000000 0.000000 
#    y 0.000000 1.714380 0.000000 
#    z 0.000000 0.000000 1.729050 
# 
# From -- ./inp_files/15092.got.cif
#   From: 2010.03.12/outbox.cif.g09.slc.cpg/sg74_8_cif.got.tgz:15092.got - 2010.04.16 15:46:19.
