data_PCOD8300794
_publ_section_title
;
Structure prediction by ZEFSAII (Michael W. Deem and Ramdas Pophale) SiO2 
 PCOD8300794
Probable space group: I M M A
;
_chemical_formula_sum "Si O2"
_cell_formula_units_Z 88
_cell_length_a 20.744821
_cell_length_b 13.860663
_cell_length_c 15.088704
_cell_angle_alpha 90.000000
_cell_angle_beta 90.000000
_cell_angle_gamma 90.000000
_cell_volume 4338.560273
_symmetry_space_group_name_H-M "I M M A"
_symmetry_group_IT_number 74
_symmetry_cell_setting 'orthorhombic'
loop_
_space_group_symop_operation_xyz
x,y,z
-x,1/2-y,z
x,-y,-z
-x,1/2+y,-z
-x,-y,-z
x,1/2+y,-z
-x,y,z
x,1/2-y,z
1/2+x,1/2+y,1/2+z
1/2-x,-y,1/2+z
1/2+x,1/2-y,1/2-z
1/2-x,y,1/2-z
1/2-x,1/2-y,1/2-z
1/2+x,y,1/2-z
1/2-x,1/2+y,1/2+z
1/2+x,-y,1/2+z
loop_
_atom_site_type_symbol
_atom_site_label
_atom_site_fract_x
_atom_site_fract_y
_atom_site_fract_z
Si Si1 0.195735 0.539411 0.688292
Si Si2 0.927077 0.862123 0.757791
Si Si3 0.170864 0.500000 0.500000
Si Si4 0.070619 0.859081 0.416456
Si Si5 0.362822 0.141106 0.738303
Si Si6 0.926390 0.482448 0.903219
O O1 0.250000 0.592360 0.750000
O O2 0.126354 0.593615 0.691450
O O3 0.214768 0.535031 0.583629
O O4 0.192472 0.430988 0.727399
O O5 0.912903 0.750000 0.774205
O O6 0.000000 0.877059 0.719198
O O7 0.919836 0.917128 0.850601
O O8 0.126183 0.413539 0.531944
O O9 0.074442 0.750000 0.450759
O O10 0.079749 0.863388 0.310283
O O11 0.000000 0.902715 0.437274
O O12 0.335580 0.250000 0.728304
O O13 0.388598 0.104528 0.643835
O O14 0.000000 0.448997 0.912325
O O15 0.895885 0.500000 0.000000
#
# Coordination Sequence:
#
# PCOD8300794 Si02
#       6
#    16  16   8  16  16  16
#     4  10  22  40  58  84 113 153 192 238 286 349
#     4   9  19  37  59  83 116 154 190 234 290 348
#     4  10  21  36  56  76 109 150 188 230 280 334
#     4   9  17  30  52  84 116 143 178 225 280 347
#     4   9  18  33  53  77 108 146 188 236 291 344
#     4   9  17  29  48  77 113 151 193 239 285 337
#
# _framework density 20.283225999999999
#
# number of rings (size 3 to 8) (size 9 to 14) (size 15 to 20)
#    0.000    2.727    0.000    0.818    0.000    8.364 
#    6.545    3.636    0.000    0.000    0.000    0.000 
#    0.000    0.000    0.000    0.000    0.000    0.000 
#
# Total GULP energy -545290.100731 kJ/mol
# GULP energy per Si atom -12392.956835 kJ/mol
# Density = 2.023706 g / cm^3
# Si number density = 20.283226 Si / 1000 Ang^3
#
#
#
# Elastic Constant Matrix: (Units=GPa)
#
#
# Indices 1 2 3 4 5 6 
#
# 1 69.5192 16.1798 36.7746 0.0000 0.0000 0.0000
# 2 16.1798 92.7631 18.0976 0.0000 0.0000 0.0000
# 3 36.7746 18.0976 144.9094 0.0000 0.0000 0.0000
# 4 0.0000 0.0000 0.0000 21.5674 0.0000 0.0000
# 5 0.0000 0.0000 0.0000 0.0000 22.7941 0.0000
# 6 0.0000 0.0000 0.0000 0.0000 0.0000 15.2211
#
#
#
# Elastic Compliance Matrix: (Units=1/GPa)
#
#
# Indices 1 2 3 4 5 6 
#
# 1 0.017035 -0.002181 -0.004051 0.000000 0.000000 0.000000
# 2 -0.002181 0.011329 -0.000861 0.000000 0.000000 0.000000
# 3 -0.004051 -0.000861 0.008036 0.000000 0.000000 0.000000
# 4 0.000000 0.000000 0.000000 0.046366 0.000000 0.000000
# 5 0.000000 0.000000 0.000000 0.000000 0.043871 0.000000
# 6 0.000000 0.000000 0.000000 0.000000 0.000000 0.065698
#
#
# Mechanical properties :
#
#
# Convention : Reuss Voigt Hill
#
# Bulk Modulus (GPa) = 45.01684 49.92174 47.46929
# Shear Modulus (GPa) = 23.37256 27.65915 25.51586
#
# Velocity S-wave (km/s) = 3.39825 3.69676 3.55065
# Velocity P-wave (km/s) = 6.13513 6.54883 6.34535
#
# Compressibility (1/GPa) = 0.02221391
#
# Stress axis : x y z
#
# Youngs Moduli (GPa) = 58.70319 88.27213 124.43381
#
# Poissons Ratio (x) = 0.19252 0.50404
# Poissons Ratio (y) = 0.12803 0.10718
# Poissons Ratio (z) = 0.23779 0.07603
#
# Static dielectric constant tensor:
#      x y z
#    x 3.509050 0.000000 0.000000 
#    y 0.000000 3.682920 0.000000 
#    z 0.000000 0.000000 3.729680 
# 
# 
# High freq. dielectric constant tensor:
#      x y z
#    x 1.771580 0.000000 0.000000 
#    y 0.000000 1.786010 0.000000 
#    z 0.000000 0.000000 1.786070 
# 
# From -- ./inp_files/36359.got.cif
#   From: 2010.03.12/outbox.cif.g09.slc.cpg/sg74_19_cif.got.tgz:36359.got - 2010.04.16 15:46:19.
