data_PCOD8300235
_publ_section_title
;
Structure prediction by ZEFSAII (Michael W. Deem and Ramdas Pophale) SiO2 
 PCOD8300235
Probable space group: I M M A
;
_chemical_formula_sum "Si O2"
_cell_formula_units_Z 88
_cell_length_a 20.610465
_cell_length_b 16.823946
_cell_length_c 12.942216
_cell_angle_alpha 90.000000
_cell_angle_beta 90.000000
_cell_angle_gamma 90.000000
_cell_volume 4487.704988
_symmetry_space_group_name_H-M "I M M A"
_symmetry_group_IT_number 74
_symmetry_cell_setting 'orthorhombic'
loop_
_space_group_symop_operation_xyz
x,y,z
-x,1/2-y,z
x,-y,-z
-x,1/2+y,-z
-x,-y,-z
x,1/2+y,-z
-x,y,z
x,1/2-y,z
1/2+x,1/2+y,1/2+z
1/2-x,-y,1/2+z
1/2+x,1/2-y,1/2-z
1/2-x,y,1/2-z
1/2-x,1/2-y,1/2-z
1/2+x,y,1/2-z
1/2-x,1/2+y,1/2+z
1/2+x,-y,1/2+z
loop_
_atom_site_type_symbol
_atom_site_label
_atom_site_fract_x
_atom_site_fract_y
_atom_site_fract_z
Si Si1 0.363973 0.156995 0.146127
Si Si2 0.500000 0.590383 0.882338
Si Si3 0.708090 0.159926 0.945013
Si Si4 0.878700 0.841217 0.255508
Si Si5 0.500000 0.097426 0.879368
Si Si6 0.320165 0.049296 0.592335
Si Si7 0.250000 0.062593 0.250000
O O1 0.363219 0.250000 0.168866
O O2 0.435422 0.123678 0.172744
O O3 0.310640 0.116660 0.218248
O O4 0.347889 0.135806 0.026570
O O5 0.500000 0.496600 0.867787
O O6 0.500000 0.620279 0.000508
O O7 0.728523 0.250000 0.965480
O O8 0.684290 0.148178 0.827586
O O9 0.772464 0.110273 0.965098
O O10 0.884318 0.750000 0.216317
O O11 0.872791 0.901842 0.159372
O O12 0.939225 0.863352 0.324632
O O13 0.355787 0.000000 0.500000
O O14 0.274419 0.991929 0.657638
#
# Coordination Sequence:
#
# PCOD8300235 Si02
#       7
#    16   8  16  16   8  16   8
#     4  11  23  39  59  90 128 167 205 248 304 375
#     4  11  23  37  63  93 129 163 196 253 316 373
#     4  10  20  35  59  89 123 158 199 251 312 370
#     4  11  22  39  61  90 124 162 207 258 319 379
#     4  11  23  37  62  93 124 155 202 255 318 373
#     4  12  23  37  59  86 121 159 208 259 315 365
#     4  12  23  38  61  88 126 166 208 252 309 366
#
# _framework density 19.609131999999999
#
# number of rings (size 3 to 8) (size 9 to 14) (size 15 to 20)
#    0.000    0.909    5.455    2.455    0.000    2.182 
#    0.000    0.455    0.000    0.000    0.000    2.545 
#    0.000    0.000    0.000    0.000    0.000    0.000 
#
# Total GULP energy -545623.076392 kJ/mol
# GULP energy per Si atom -12400.524463 kJ/mol
# Density = 1.956450 g / cm^3
# Si number density = 19.609132 Si / 1000 Ang^3
#
#
#
# Elastic Constant Matrix: (Units=GPa)
#
#
# Indices 1 2 3 4 5 6 
#
# 1 106.8008 41.5600 27.9101 0.0000 0.0000 0.0000
# 2 41.5600 79.3262 32.8005 0.0000 0.0000 0.0000
# 3 27.9101 32.8005 69.1205 0.0000 0.0000 0.0000
# 4 0.0000 0.0000 0.0000 32.0757 0.0000 0.0000
# 5 0.0000 0.0000 0.0000 0.0000 29.4988 0.0000
# 6 0.0000 0.0000 0.0000 0.0000 0.0000 21.7239
#
#
#
# Elastic Compliance Matrix: (Units=1/GPa)
#
#
# Indices 1 2 3 4 5 6 
#
# 1 0.012055 -0.005353 -0.002327 0.000000 0.000000 0.000000
# 2 -0.005353 0.018061 -0.006409 0.000000 0.000000 0.000000
# 3 -0.002327 -0.006409 0.018449 0.000000 0.000000 0.000000
# 4 0.000000 0.000000 0.000000 0.031176 0.000000 0.000000
# 5 0.000000 0.000000 0.000000 0.000000 0.033900 0.000000
# 6 0.000000 0.000000 0.000000 0.000000 0.000000 0.046032
#
#
# Mechanical properties :
#
#
# Convention : Reuss Voigt Hill
#
# Bulk Modulus (GPa) = 49.05562 51.08764 50.07163
# Shear Modulus (GPa) = 25.68764 26.85813 26.27288
#
# Velocity S-wave (km/s) = 3.62330 3.70493 3.66434
# Velocity P-wave (km/s) = 6.52498 6.66420 6.59496
#
# Compressibility (1/GPa) = 0.02038502
#
# Stress axis : x y z
#
# Youngs Moduli (GPa) = 82.95638 55.36818 54.20493
#
# Poissons Ratio (x) = 0.29640 0.12614
# Poissons Ratio (y) = 0.44409 0.34740
# Poissons Ratio (z) = 0.19305 0.35486
#
# Static dielectric constant tensor:
#      x y z
#    x 3.415390 0.000000 0.000000 
#    y 0.000000 3.795550 0.000000 
#    z 0.000000 0.000000 3.514130 
# 
# 
# High freq. dielectric constant tensor:
#      x y z
#    x 1.748650 0.000000 0.000000 
#    y 0.000000 1.785450 0.000000 
#    z 0.000000 0.000000 1.745680 
# 
# From -- ./inp_files/35214.got.cif
#   From: 2010.03.12/outbox.cif.g09.slc.cpg/sg74_18_cif.got.tgz:35214.got - 2010.04.16 15:46:19.
