data_PCOD8300457
_publ_section_title
;
Structure prediction by ZEFSAII (Michael W. Deem and Ramdas Pophale) SiO2 
 PCOD8300457
Probable space group: I M M A
;
_chemical_formula_sum "Si O2"
_cell_formula_units_Z 64
_cell_length_a 17.199989
_cell_length_b 20.193484
_cell_length_c 9.399875
_cell_angle_alpha 90.000000
_cell_angle_beta 90.000000
_cell_angle_gamma 90.000000
_cell_volume 3264.836989
_symmetry_space_group_name_H-M "I M M A"
_symmetry_group_IT_number 74
_symmetry_cell_setting 'orthorhombic'
loop_
_space_group_symop_operation_xyz
x,y,z
-x,1/2-y,z
x,-y,-z
-x,1/2+y,-z
-x,-y,-z
x,1/2+y,-z
-x,y,z
x,1/2-y,z
1/2+x,1/2+y,1/2+z
1/2-x,-y,1/2+z
1/2+x,1/2-y,1/2-z
1/2-x,y,1/2-z
1/2-x,1/2-y,1/2-z
1/2+x,y,1/2-z
1/2-x,1/2+y,1/2+z
1/2+x,-y,1/2+z
loop_
_atom_site_type_symbol
_atom_site_label
_atom_site_fract_x
_atom_site_fract_y
_atom_site_fract_z
Si Si1 0.337251 0.637221 0.205088
Si Si2 0.908909 0.864385 0.596026
Si Si3 0.408117 0.750000 0.697413
Si Si4 0.821748 0.489834 0.340281
Si Si5 0.409901 0.250000 0.615321
O O1 0.250000 0.656021 0.250000
O O2 0.352277 0.558695 0.229317
O O3 0.390946 0.682467 0.302687
O O4 0.356848 0.653391 0.041279
O O5 0.880932 0.814852 0.718190
O O6 0.892730 0.938116 0.655332
O O7 0.000000 0.857762 0.557485
O O8 0.500000 0.750000 0.686886
O O9 0.369371 0.750000 0.540630
O O10 0.789981 0.500000 0.500000
O O11 0.750000 0.461012 0.250000
O O12 0.500000 0.250000 0.588909
#
# Coordination Sequence:
#
# PCOD8300457 Si02
#       5
#    16  16   8  16   8
#     4  10  21  37  56  82 113 144 182 230 282 337
#     4  10  20  37  60  83 111 148 190 231 274 330
#     4   9  21  37  52  78 110 141 180 227 276 325
#     4   9  20  36  56  82 113 145 182 230 279 334
#     4  11  22  37  57  80 111 147 188 235 279 327
#
# _framework density 19.602817000000002
#
# number of rings (size 3 to 8) (size 9 to 14) (size 15 to 20)
#    0.000    2.250    0.000    1.875    0.000   12.500 
#    0.000    1.875    0.000    5.250    0.000    0.000 
#    0.000    0.000    0.000    0.000    0.000    0.000 
#
# Total GULP energy -396688.026609 kJ/mol
# GULP energy per Si atom -12396.500832 kJ/mol
# Density = 1.955820 g / cm^3
# Si number density = 19.602817 Si / 1000 Ang^3
#
#
#
# Elastic Constant Matrix: (Units=GPa)
#
#
# Indices 1 2 3 4 5 6 
#
# 1 61.0495 39.7209 39.8483 0.0000 0.0000 0.0000
# 2 39.7209 114.2565 79.8666 0.0000 0.0000 0.0000
# 3 39.8483 79.8666 130.9164 0.0000 0.0000 0.0000
# 4 0.0000 0.0000 0.0000 30.0346 0.0000 0.0000
# 5 0.0000 0.0000 0.0000 0.0000 34.2861 0.0000
# 6 0.0000 0.0000 0.0000 0.0000 0.0000 2.2876
#
#
#
# Elastic Compliance Matrix: (Units=1/GPa)
#
#
# Indices 1 2 3 4 5 6 
#
# 1 0.022077 -0.005192 -0.003553 0.000000 0.000000 0.000000
# 2 -0.005192 0.016480 -0.008474 0.000000 0.000000 0.000000
# 3 -0.003553 -0.008474 0.013889 0.000000 0.000000 0.000000
# 4 0.000000 0.000000 0.000000 0.033295 0.000000 0.000000
# 5 0.000000 0.000000 0.000000 0.000000 0.029166 0.000000
# 6 0.000000 0.000000 0.000000 0.000000 0.000000 0.437132
#
#
# Mechanical properties :
#
#
# Convention : Reuss Voigt Hill
#
# Bulk Modulus (GPa) = 55.52297 69.45490 62.48893
# Shear Modulus (GPa) = 8.43912 23.10745 15.77328
#
# Velocity S-wave (km/s) = 2.07711 3.43706 2.83970
# Velocity P-wave (km/s) = 5.84277 7.15955 6.53442
#
# Compressibility (1/GPa) = 0.01801056
#
# Stress axis : x y z
#
# Youngs Moduli (GPa) = 45.29636 60.67840 71.99824
#
# Poissons Ratio (x) = 0.31502 0.25577
# Poissons Ratio (y) = 0.23517 0.61009
# Poissons Ratio (z) = 0.16092 0.51417
#
# Static dielectric constant tensor:
#      x y z
#    x 3.369590 0.000000 0.000000 
#    y 0.000000 3.736590 0.000000 
#    z 0.000000 0.000000 3.831680 
# 
# 
# High freq. dielectric constant tensor:
#      x y z
#    x 1.743320 0.000000 0.000000 
#    y 0.000000 1.776440 0.000000 
#    z 0.000000 0.000000 1.768450 
# 
# From -- ./inp_files/10295.got.cif
#   From: 2010.03.12/outbox.cif.g09.slc.cpg/sg74_6_cif.got.tgz:10295.got - 2010.04.16 15:46:19.
