data_PCOD8300083
_publ_section_title
;
Structure prediction by ZEFSAII (Michael W. Deem and Ramdas Pophale) SiO2 
 PCOD8300083
Probable space group: I M M A
;
_chemical_formula_sum "Si O2"
_cell_formula_units_Z 112
_cell_length_a 18.343355
_cell_length_b 13.399701
_cell_length_c 24.292953
_cell_angle_alpha 90.000000
_cell_angle_beta 90.000000
_cell_angle_gamma 90.000000
_cell_volume 5971.097857
_symmetry_space_group_name_H-M "I M M A"
_symmetry_group_IT_number 74
_symmetry_cell_setting 'orthorhombic'
loop_
_space_group_symop_operation_xyz
x,y,z
-x,1/2-y,z
x,-y,-z
-x,1/2+y,-z
-x,-y,-z
x,1/2+y,-z
-x,y,z
x,1/2-y,z
1/2+x,1/2+y,1/2+z
1/2-x,-y,1/2+z
1/2+x,1/2-y,1/2-z
1/2-x,y,1/2-z
1/2-x,1/2-y,1/2-z
1/2+x,y,1/2-z
1/2-x,1/2+y,1/2+z
1/2+x,-y,1/2+z
loop_
_atom_site_type_symbol
_atom_site_label
_atom_site_fract_x
_atom_site_fract_y
_atom_site_fract_z
Si Si1 0.686078 0.024138 0.938663
Si Si2 0.584166 0.552514 0.257643
Si Si3 0.416453 0.638248 0.681714
Si Si4 0.176459 0.365721 0.966223
Si Si5 0.698821 0.131606 0.412899
Si Si6 0.586360 0.865536 0.143613
Si Si7 0.919028 0.367492 0.869979
O O1 0.742470 0.114898 0.944717
O O2 0.618643 0.064298 0.903637
O O3 0.725212 0.930030 0.907189
O O4 0.656575 0.000000 0.000000
O O5 0.500000 0.583887 0.254919
O O6 0.594860 0.433029 0.265229
O O7 0.619746 0.593709 0.201609
O O8 0.619214 0.603658 0.312014
O O9 0.500000 0.629589 0.659802
O O10 0.399267 0.750000 0.701801
O O11 0.360903 0.605967 0.633447
O O12 0.160192 0.250000 0.967653
O O13 0.122463 0.416610 0.921867
O O14 0.165950 0.407137 0.028359
O O15 0.716682 0.250000 0.413655
O O16 0.500000 0.878877 0.140996
O O17 0.608825 0.750000 0.136315
O O18 0.920260 0.250000 0.875503
O O19 0.000000 0.413631 0.870743
#
# Coordination Sequence:
#
# PCOD8300083 Si02
#       7
#    16  16  16  16  16  16  16
#     4  10  20  35  55  75 101 132 161 198 251 308
#     4   9  17  31  50  72 101 134 166 205 255 303
#     4   9  17  30  50  74 101 138 183 223 250 277
#     4   9  17  29  46  70 101 137 174 211 253 298
#     4   9  18  32  49  71 102 141 180 213 250 295
#     4  10  21  38  61  84 101 121 155 201 253 311
#     4   9  16  26  43  69 102 139 176 212 249 290
#
# _framework density 18.757019
#
# number of rings (size 3 to 8) (size 9 to 14) (size 15 to 20)
#    0.000    2.714    0.000    1.714    0.000    3.143 
#    0.000    6.429    0.000   13.286    0.000    0.000 
#    0.000    0.000    0.000    0.000    0.000    0.000 
#
# Total GULP energy -693881.356423 kJ/mol
# GULP energy per Si atom -12390.738508 kJ/mol
# Density = 1.871433 g / cm^3
# Si number density = 18.757019 Si / 1000 Ang^3
#
#
#
# Elastic Constant Matrix: (Units=GPa)
#
#
# Indices 1 2 3 4 5 6 
#
# 1 52.0547 32.2098 51.4858 0.0000 0.0000 0.0000
# 2 32.2098 73.4215 49.2885 0.0000 0.0000 0.0000
# 3 51.4858 49.2885 118.9698 0.0000 0.0000 0.0000
# 4 0.0000 0.0000 0.0000 31.8456 0.0000 0.0000
# 5 0.0000 0.0000 0.0000 0.0000 19.7551 0.0000
# 6 0.0000 0.0000 0.0000 0.0000 0.0000 23.3905
#
#
#
# Elastic Compliance Matrix: (Units=1/GPa)
#
#
# Indices 1 2 3 4 5 6 
#
# 1 0.036310 -0.007453 -0.012626 0.000000 0.000000 0.000000
# 2 -0.007453 0.020397 -0.005225 0.000000 0.000000 0.000000
# 3 -0.012626 -0.005225 0.016034 0.000000 0.000000 0.000000
# 4 0.000000 0.000000 0.000000 0.031402 0.000000 0.000000
# 5 0.000000 0.000000 0.000000 0.000000 0.050620 0.000000
# 6 0.000000 0.000000 0.000000 0.000000 0.000000 0.042752
#
#
# Mechanical properties :
#
#
# Convention : Reuss Voigt Hill
#
# Bulk Modulus (GPa) = 45.18055 56.71271 50.94663
# Shear Modulus (GPa) = 19.56933 22.42904 20.99918
#
# Velocity S-wave (km/s) = 3.23353 3.46174 3.34958
# Velocity P-wave (km/s) = 6.17094 6.80289 6.49461
#
# Compressibility (1/GPa) = 0.02213342
#
# Stress axis : x y z
#
# Youngs Moduli (GPa) = 27.54032 49.02607 62.36667
#
# Poissons Ratio (x) = 0.36541 0.78744
# Poissons Ratio (y) = 0.20527 0.32586
# Poissons Ratio (z) = 0.34772 0.25616
#
# Static dielectric constant tensor:
#      x y z
#    x 3.145700 0.000000 0.000000 
#    y 0.000000 3.609870 0.000000 
#    z 0.000000 0.000000 3.580440 
# 
# 
# High freq. dielectric constant tensor:
#      x y z
#    x 1.687190 0.000000 0.000000 
#    y 0.000000 1.747230 0.000000 
#    z 0.000000 0.000000 1.723400 
# 
# From -- ./inp_files/60127.got.cif
#   From: 2010.03.12/outbox.cif.g09.slc.cpg/sg74_31_cif.got.tgz:60127.got - 2010.04.16 15:46:19.
