data_PCOD8300427
_publ_section_title
;
Structure prediction by ZEFSAII (Michael W. Deem and Ramdas Pophale) SiO2 
 PCOD8300427
Probable space group: I M M A
;
_chemical_formula_sum "Si O2"
_cell_formula_units_Z 88
_cell_length_a 31.138703
_cell_length_b 9.621080
_cell_length_c 16.145429
_cell_angle_alpha 90.000000
_cell_angle_beta 90.000000
_cell_angle_gamma 90.000000
_cell_volume 4836.976019
_symmetry_space_group_name_H-M "I M M A"
_symmetry_group_IT_number 74
_symmetry_cell_setting 'orthorhombic'
loop_
_space_group_symop_operation_xyz
x,y,z
-x,1/2-y,z
x,-y,-z
-x,1/2+y,-z
-x,-y,-z
x,1/2+y,-z
-x,y,z
x,1/2-y,z
1/2+x,1/2+y,1/2+z
1/2-x,-y,1/2+z
1/2+x,1/2-y,1/2-z
1/2-x,y,1/2-z
1/2-x,1/2-y,1/2-z
1/2+x,y,1/2-z
1/2-x,1/2+y,1/2+z
1/2+x,-y,1/2+z
loop_
_atom_site_type_symbol
_atom_site_label
_atom_site_fract_x
_atom_site_fract_y
_atom_site_fract_z
Si Si1 0.380488 0.412589 0.753160
Si Si2 0.841688 0.091631 0.577876
Si Si3 0.327603 0.091553 0.368707
Si Si4 0.249648 0.089303 0.847508
Si Si5 0.953429 0.407371 0.860335
Si Si6 0.607550 0.000000 0.500000
O O1 0.371764 0.250000 0.730144
O O2 0.377753 0.433943 0.851572
O O3 0.344508 0.505959 0.709941
O O4 0.426865 0.464470 0.719099
O O5 0.841932 0.250000 0.548202
O O6 0.795663 0.051126 0.614896
O O7 0.854492 0.000000 0.500000
O O8 0.317532 0.250000 0.343211
O O9 0.361859 0.096064 0.443764
O O10 0.283953 0.011749 0.394483
O O11 0.237476 0.250000 0.864438
O O12 0.250000 0.057932 0.750000
O O13 0.964249 0.250000 0.842369
O O14 0.924008 0.411977 0.941953
O O15 0.000000 0.485605 0.869551
#
# Coordination Sequence:
#
# PCOD8300427 Si02
#       6
#    16  16  16  16  16   8
#     4   9  18  36  56  74 103 139 171 211 270 322
#     4  10  21  36  54  76 102 139 178 220 270 318
#     4  11  22  33  50  76 104 140 185 223 257 305
#     4  10  20  37  55  70  98 139 178 219 270 315
#     4   9  17  31  55  81 102 133 179 219 252 311
#     4  10  21  34  46  72 118 152 168 206 271 322
#
# _framework density 18.193186000000001
#
# number of rings (size 3 to 8) (size 9 to 14) (size 15 to 20)
#    0.000    2.182    1.818    1.364    1.273    4.000 
#    0.000    0.000    0.000    5.455    0.000    0.000 
#    0.000    0.000    0.000    0.000    0.000    0.000 
#
# Total GULP energy -545323.206804 kJ/mol
# GULP energy per Si atom -12393.709246 kJ/mol
# Density = 1.815178 g / cm^3
# Si number density = 18.193186 Si / 1000 Ang^3
#
#
#
# Elastic Constant Matrix: (Units=GPa)
#
#
# Indices 1 2 3 4 5 6 
#
# 1 108.0989 33.5491 51.9141 0.0000 0.0000 0.0000
# 2 33.5491 72.9451 36.5089 0.0000 0.0000 0.0000
# 3 51.9141 36.5089 112.4278 0.0000 0.0000 0.0000
# 4 0.0000 0.0000 0.0000 25.6330 0.0000 0.0000
# 5 0.0000 0.0000 0.0000 0.0000 13.0569 0.0000
# 6 0.0000 0.0000 0.0000 0.0000 0.0000 13.6702
#
#
#
# Elastic Compliance Matrix: (Units=1/GPa)
#
#
# Indices 1 2 3 4 5 6 
#
# 1 0.012568 -0.003434 -0.004688 0.000000 0.000000 0.000000
# 2 -0.003434 0.017308 -0.004035 0.000000 0.000000 0.000000
# 3 -0.004688 -0.004035 0.012370 0.000000 0.000000 0.000000
# 4 0.000000 0.000000 0.000000 0.039012 0.000000 0.000000
# 5 0.000000 0.000000 0.000000 0.000000 0.076588 0.000000
# 6 0.000000 0.000000 0.000000 0.000000 0.000000 0.073152
#
#
# Mechanical properties :
#
#
# Convention : Reuss Voigt Hill
#
# Bulk Modulus (GPa) = 55.76755 59.71288 57.74022
# Shear Modulus (GPa) = 19.13599 21.90535 20.52067
#
# Velocity S-wave (km/s) = 3.24670 3.47369 3.36211
# Velocity P-wave (km/s) = 6.69136 6.99868 6.84674
#
# Compressibility (1/GPa) = 0.01793157
#
# Stress axis : x y z
#
# Youngs Moduli (GPa) = 79.56695 57.77805 80.84314
#
# Poissons Ratio (x) = 0.19840 0.37901
# Poissons Ratio (y) = 0.27322 0.32618
# Poissons Ratio (z) = 0.37303 0.23312
#
# Static dielectric constant tensor:
#      x y z
#    x 3.840840 0.000000 0.000000 
#    y 0.000000 3.124640 0.000000 
#    z 0.000000 0.000000 3.285410 
# 
# 
# High freq. dielectric constant tensor:
#      x y z
#    x 1.701000 0.000000 0.000000 
#    y 0.000000 1.684960 0.000000 
#    z 0.000000 0.000000 1.694040 
# 
# From -- ./inp_files/47065.got.cif
#   From: 2010.03.12/outbox.cif.g09.slc.cpg/sg74_24_cif.got.tgz:47065.got - 2010.04.16 15:46:19.
