data_PCOD8300624
_publ_section_title
;
Structure prediction by ZEFSAII (Michael W. Deem and Ramdas Pophale) SiO2 
 PCOD8300624
Probable space group: I M M A
;
_chemical_formula_sum "Si O2"
_cell_formula_units_Z 64
_cell_length_a 17.853260
_cell_length_b 22.100394
_cell_length_c 7.529292
_cell_angle_alpha 90.000000
_cell_angle_beta 90.000000
_cell_angle_gamma 90.000000
_cell_volume 2970.788172
_symmetry_space_group_name_H-M "I M M A"
_symmetry_group_IT_number 74
_symmetry_cell_setting 'orthorhombic'
loop_
_space_group_symop_operation_xyz
x,y,z
-x,1/2-y,z
x,-y,-z
-x,1/2+y,-z
-x,-y,-z
x,1/2+y,-z
-x,y,z
x,1/2-y,z
1/2+x,1/2+y,1/2+z
1/2-x,-y,1/2+z
1/2+x,1/2-y,1/2-z
1/2-x,y,1/2-z
1/2-x,1/2-y,1/2-z
1/2+x,y,1/2-z
1/2-x,1/2+y,1/2+z
1/2+x,-y,1/2+z
loop_
_atom_site_type_symbol
_atom_site_label
_atom_site_fract_x
_atom_site_fract_y
_atom_site_fract_z
Si Si1 0.342312 0.370416 0.619351
Si Si2 0.312098 0.181575 0.966972
Si Si3 0.586566 0.379585 0.251169
Si Si4 0.081679 0.513078 0.203829
O O1 0.354747 0.321292 0.776215
O O2 0.258427 0.364282 0.540941
O O3 0.399787 0.362283 0.457606
O O4 0.355766 0.434824 0.721011
O O5 0.284421 0.250000 0.999362
O O6 0.365300 0.163829 0.127962
O O7 0.500000 0.367872 0.210656
O O8 0.608510 0.449649 0.207687
O O9 0.000000 0.532908 0.284118
O O10 0.067949 0.500000 0.000000
#
# Coordination Sequence:
#
# PCOD8300624 Si02
#       4
#    16  16  16  16
#     4  10  20  40  63  89 119 168 202 257 319 371
#     4  11  25  42  59  89 128 168 215 259 302 371
#     4  10  22  41  64  93 126 163 204 259 319 372
#     4   8  16  35  61  90 123 153 193 252 316 375
#
# _framework density 21.543104
#
# number of rings (size 3 to 8) (size 9 to 14) (size 15 to 20)
#    0.000    2.250    0.000    4.500    0.000    6.500 
#   27.000    2.500    0.000    6.750    0.000    0.000 
#    0.000    0.000    0.000    0.000    0.000    0.000 
#
# Total GULP energy -396509.678636 kJ/mol
# GULP energy per Si atom -12390.927457 kJ/mol
# Density = 2.149407 g / cm^3
# Si number density = 21.543104 Si / 1000 Ang^3
#
#
#
# Elastic Constant Matrix: (Units=GPa)
#
#
# Indices 1 2 3 4 5 6 
#
# 1 86.6849 67.4632 19.6177 0.0000 0.0000 0.0000
# 2 67.4632 119.6957 19.4862 0.0000 0.0000 0.0000
# 3 19.6177 19.4862 67.1913 0.0000 0.0000 0.0000
# 4 0.0000 0.0000 0.0000 31.8978 0.0000 0.0000
# 5 0.0000 0.0000 0.0000 0.0000 -8.8551 0.0000
# 6 0.0000 0.0000 0.0000 0.0000 0.0000 28.4308
#
#
#
# Elastic Compliance Matrix: (Units=1/GPa)
#
#
# Indices 1 2 3 4 5 6 
#
# 1 0.021054 -0.011404 -0.002840 0.000000 0.000000 0.000000
# 2 -0.011404 0.014946 -0.001005 0.000000 0.000000 0.000000
# 3 -0.002840 -0.001005 0.016003 0.000000 0.000000 0.000000
# 4 0.000000 0.000000 0.000000 0.031350 0.000000 0.000000
# 5 0.000000 0.000000 0.000000 0.000000 -0.112929 0.000000
# 6 0.000000 0.000000 0.000000 0.000000 0.000000 0.035173
#
#
# Mechanical properties :
#
#
# Convention : Reuss Voigt Hill
#
# Bulk Modulus (GPa) = 46.49925 54.07845 50.28885
# Shear Modulus (GPa) = 115.57096 21.42836 68.49966
#
# Velocity S-wave (km/s) = 7.33232 3.15727 5.64496
# Velocity P-wave (km/s) = 9.65997 6.20065 8.11674
#
# Compressibility (1/GPa) = 0.02150572
#
# Stress axis : x y z
#
# Youngs Moduli (GPa) = 47.49646 66.90837 62.48672
#
# Poissons Ratio (x) = 0.76304 0.17745
# Poissons Ratio (y) = 0.54166 0.06278
# Poissons Ratio (z) = 0.13488 0.06723
#
# Static dielectric constant tensor:
#      x y z
#    x 3.782580 0.000000 0.000000 
#    y 0.000000 4.211180 0.000000 
#    z 0.000000 0.000000 3.886930 
# 
# 
# High freq. dielectric constant tensor:
#      x y z
#    x 1.830920 0.000000 0.000000 
#    y 0.000000 1.834880 0.000000 
#    z 0.000000 0.000000 1.847820 
# 
# From -- ./inp_files/10215.got.cif
#   From: 2010.03.12/outbox.cif.g09.slc.cpg/sg74_6_cif.got.tgz:10215.got - 2010.04.16 15:46:19.
