data_PCOD8300432
_publ_section_title
;
Structure prediction by ZEFSAII (Michael W. Deem and Ramdas Pophale) SiO2 
 PCOD8300432
Probable space group: I M M A
;
_chemical_formula_sum "Si O2"
_cell_formula_units_Z 104
_cell_length_a 25.832806
_cell_length_b 9.017317
_cell_length_c 23.946845
_cell_angle_alpha 90.000000
_cell_angle_beta 90.000000
_cell_angle_gamma 90.000000
_cell_volume 5578.240353
_symmetry_space_group_name_H-M "I M M A"
_symmetry_group_IT_number 74
_symmetry_cell_setting 'orthorhombic'
loop_
_space_group_symop_operation_xyz
x,y,z
-x,1/2-y,z
x,-y,-z
-x,1/2+y,-z
-x,-y,-z
x,1/2+y,-z
-x,y,z
x,1/2-y,z
1/2+x,1/2+y,1/2+z
1/2-x,-y,1/2+z
1/2+x,1/2-y,1/2-z
1/2-x,y,1/2-z
1/2-x,1/2-y,1/2-z
1/2+x,y,1/2-z
1/2-x,1/2+y,1/2+z
1/2+x,-y,1/2+z
loop_
_atom_site_type_symbol
_atom_site_label
_atom_site_fract_x
_atom_site_fract_y
_atom_site_fract_z
Si Si1 0.631550 0.419229 0.739699
Si Si2 0.941902 0.426716 0.856809
Si Si3 0.000000 0.080876 0.557420
Si Si4 0.356332 0.924066 0.440814
Si Si5 0.328378 0.424506 0.155741
Si Si6 0.388165 0.924457 0.060132
Si Si7 0.776914 0.417860 0.846407
O O1 0.622051 0.250000 0.759098
O O2 0.583961 0.477520 0.701581
O O3 0.635196 0.522259 0.793739
O O4 0.684189 0.429846 0.705024
O O5 0.941701 0.250000 0.857863
O O6 0.907782 0.484485 0.909090
O O7 0.000000 0.491528 0.861332
O O8 0.054538 0.045030 0.588323
O O9 0.000000 0.250000 0.539970
O O10 0.000000 0.000000 0.500000
O O11 0.361236 0.750000 0.450167
O O12 0.306045 0.961540 0.403666
O O13 0.350244 0.000000 0.500000
O O14 0.333376 0.250000 0.149717
O O15 0.345453 0.501876 0.098778
O O16 0.269054 0.468867 0.165960
O O17 0.376815 0.750000 0.054349
O O18 0.384290 0.000000 0.000000
O O19 0.755182 0.250000 0.850377
#
# Coordination Sequence:
#
# PCOD8300432 Si02
#       7
#    16  16   8  16  16  16  16
#     4   9  18  35  57  77 100 136 180 225 271 316
#     4   8  15  31  55  80 106 139 179 221 263 312
#     4   8  16  32  56  78  96 126 164 200 241 292
#     4   9  18  32  52  79 109 141 178 218 263 315
#     4  12  24  35  51  79 109 139 174 216 266 320
#     4  10  20  37  58  80 106 135 170 211 256 308
#     4   9  19  36  55  73 100 140 181 224 271 315
#
# _framework density 18.643872000000002
#
# number of rings (size 3 to 8) (size 9 to 14) (size 15 to 20)
#    0.000    2.615    0.000    4.154    0.000    4.615 
#    1.385    3.846    0.000    0.923    0.000    0.000 
#    0.000    0.000    0.000    0.000    0.000    0.000 
#
# Total GULP energy -644551.837549 kJ/mol
# GULP energy per Si atom -12395.227645 kJ/mol
# Density = 1.860144 g / cm^3
# Si number density = 18.643872 Si / 1000 Ang^3
#
#
#
# Elastic Constant Matrix: (Units=GPa)
#
#
# Indices 1 2 3 4 5 6 
#
# 1 46.6422 18.9624 16.0369 0.0000 0.0000 0.0000
# 2 18.9624 76.9865 35.6731 0.0000 0.0000 0.0000
# 3 16.0369 35.6731 98.0509 0.0000 0.0000 0.0000
# 4 0.0000 0.0000 0.0000 32.2898 0.0000 0.0000
# 5 0.0000 0.0000 0.0000 0.0000 15.4563 0.0000
# 6 0.0000 0.0000 0.0000 0.0000 0.0000 14.0147
#
#
#
# Elastic Compliance Matrix: (Units=1/GPa)
#
#
# Indices 1 2 3 4 5 6 
#
# 1 0.024197 -0.004963 -0.002152 0.000000 0.000000 0.000000
# 2 -0.004963 0.016641 -0.005243 0.000000 0.000000 0.000000
# 3 -0.002152 -0.005243 0.012458 0.000000 0.000000 0.000000
# 4 0.000000 0.000000 0.000000 0.030970 0.000000 0.000000
# 5 0.000000 0.000000 0.000000 0.000000 0.064699 0.000000
# 6 0.000000 0.000000 0.000000 0.000000 0.000000 0.071354
#
#
# Mechanical properties :
#
#
# Convention : Reuss Voigt Hill
#
# Bulk Modulus (GPa) = 34.98776 40.33606 37.66191
# Shear Modulus (GPa) = 19.64169 22.41931 21.03050
#
# Velocity S-wave (km/s) = 3.24932 3.47147 3.36223
# Velocity P-wave (km/s) = 5.73450 6.14412 5.94284
#
# Compressibility (1/GPa) = 0.02858143
#
# Stress axis : x y z
#
# Youngs Moduli (GPa) = 41.32683 60.09275 80.26869
#
# Poissons Ratio (x) = 0.29823 0.17274
# Poissons Ratio (y) = 0.20510 0.42082
# Poissons Ratio (z) = 0.08894 0.31504
#
# Static dielectric constant tensor:
#      x y z
#    x 3.806340 0.000000 0.000000 
#    y 0.000000 3.214520 0.000000 
#    z 0.000000 0.000000 3.371420 
# 
# 
# High freq. dielectric constant tensor:
#      x y z
#    x 1.729670 0.000000 0.000000 
#    y 0.000000 1.701670 0.000000 
#    z 0.000000 0.000000 1.718150 
# 
# From -- ./inp_files/55175.got.cif
#   From: 2010.03.12/outbox.cif.g09.slc.cpg/sg74_28_cif.got.tgz:55175.got - 2010.04.16 15:46:19.
