data_PCOD8300341
_publ_section_title
;
Structure prediction by ZEFSAII (Michael W. Deem and Ramdas Pophale) SiO2 
 PCOD8300341
Probable space group: I M M A
;
_chemical_formula_sum "Si O2"
_cell_formula_units_Z 112
_cell_length_a 17.261127
_cell_length_b 27.669178
_cell_length_c 12.311382
_cell_angle_alpha 90.000000
_cell_angle_beta 90.000000
_cell_angle_gamma 90.000000
_cell_volume 5879.930761
_symmetry_space_group_name_H-M "I M M A"
_symmetry_group_IT_number 74
_symmetry_cell_setting 'orthorhombic'
loop_
_space_group_symop_operation_xyz
x,y,z
-x,1/2-y,z
x,-y,-z
-x,1/2+y,-z
-x,-y,-z
x,1/2+y,-z
-x,y,z
x,1/2-y,z
1/2+x,1/2+y,1/2+z
1/2-x,-y,1/2+z
1/2+x,1/2-y,1/2-z
1/2-x,y,1/2-z
1/2-x,1/2-y,1/2-z
1/2+x,y,1/2-z
1/2-x,1/2+y,1/2+z
1/2+x,-y,1/2+z
loop_
_atom_site_type_symbol
_atom_site_label
_atom_site_fract_x
_atom_site_fract_y
_atom_site_fract_z
Si Si1 0.912909 0.804703 0.498262
Si Si2 0.256572 0.194726 0.876596
Si Si3 0.911561 0.460259 0.779523
Si Si4 0.590401 0.065848 0.350272
Si Si5 0.087889 0.396634 0.378107
Si Si6 0.679091 0.952297 0.060114
Si Si7 0.830348 0.604791 0.061369
O O1 0.903385 0.750000 0.540080
O O2 0.845443 0.817235 0.411433
O O3 0.904221 0.838928 0.603853
O O4 0.000000 0.812237 0.446904
O O5 0.235540 0.250000 0.904892
O O6 0.250000 0.184082 0.750000
O O7 0.191580 0.161670 0.935691
O O8 0.895969 0.508096 0.852504
O O9 0.865524 0.465664 0.668786
O O10 0.892525 0.412091 0.848598
O O11 0.000000 0.457293 0.744582
O O12 0.500000 0.078337 0.368405
O O13 0.623422 0.088159 0.237599
O O14 0.640479 0.091718 0.442099
O O15 0.126968 0.421596 0.479834
O O16 0.000000 0.414809 0.377666
O O17 0.753399 0.922922 0.095771
O O18 0.707561 0.000000 0.000000
#
# Coordination Sequence:
#
# PCOD8300341 Si02
#       7
#    16  16  16  16  16  16  16
#     4   9  18  36  62  89 114 146 193 242 289 344
#     4  10  21  40  61  84 118 153 188 239 301 353
#     4  11  23  39  60  82 113 158 202 240 283 344
#     4  10  22  41  60  80 115 163 201 233 282 349
#     4  10  20  36  58  85 116 152 192 238 289 338
#     4  12  22  35  56  87 120 148 186 242 295 344
#     4  12  24  38  57  86 118 151 195 238 290 351
#
# _framework density 19.047843
#
# number of rings (size 3 to 8) (size 9 to 14) (size 15 to 20)
#    0.000    1.429    2.857    3.429    0.000    2.286 
#    0.000    1.429    0.000    5.143    0.000    0.000 
#    0.000    0.000    0.000    0.000    0.000    0.000 
#
# Total GULP energy -694336.258537 kJ/mol
# GULP energy per Si atom -12398.861760 kJ/mol
# Density = 1.900449 g / cm^3
# Si number density = 19.047843 Si / 1000 Ang^3
#
#
#
# Elastic Constant Matrix: (Units=GPa)
#
#
# Indices 1 2 3 4 5 6 
#
# 1 73.5797 39.0314 38.5223 -0.0002 -0.0001 -0.0001
# 2 39.0314 103.5713 33.7935 -0.0004 -0.0001 -0.0001
# 3 38.5223 33.7935 88.2407 -0.0027 -0.0002 -0.0008
# 4 -0.0002 -0.0004 -0.0027 27.5676 -0.0002 -0.0006
# 5 -0.0001 -0.0001 -0.0002 -0.0002 32.0308 -0.0002
# 6 -0.0001 -0.0001 -0.0008 -0.0006 -0.0002 29.9450
#
#
#
# Elastic Compliance Matrix: (Units=1/GPa)
#
#
# Indices 1 2 3 4 5 6 
#
# 1 0.019897 -0.005330 -0.006645 -0.000001 0.000000 0.000000
# 2 -0.005330 0.012462 -0.002446 0.000000 0.000000 0.000000
# 3 -0.006645 -0.002446 0.015170 0.000001 0.000000 0.000000
# 4 -0.000001 0.000000 0.000001 0.036274 0.000000 0.000001
# 5 0.000000 0.000000 0.000000 0.000000 0.031220 0.000000
# 6 0.000000 0.000000 0.000000 0.000001 0.000000 0.033395
#
#
# Mechanical properties :
#
#
# Convention : Reuss Voigt Hill
#
# Bulk Modulus (GPa) = 53.51126 54.23177 53.87151
# Shear Modulus (GPa) = 27.24962 28.17830 27.71396
#
# Velocity S-wave (km/s) = 3.78641 3.85040 3.81854
# Velocity P-wave (km/s) = 6.87532 6.94986 6.91269
#
# Compressibility (1/GPa) = 0.01868766
#
# Stress axis : x y z
#
# Youngs Moduli (GPa) = 50.25849 80.24496 65.91898
#
# Poissons Ratio (x) = 0.42772 0.43803
# Poissons Ratio (y) = 0.26789 0.16121
# Poissons Ratio (z) = 0.33397 0.19624
#
# Static dielectric constant tensor:
#      x y z
#    x 3.734430 0.000000 0.000000 
#    y 0.000000 3.775420 0.000000 
#    z 0.000000 0.000000 3.412650 
# 
# 
# High freq. dielectric constant tensor:
#      x y z
#    x 1.743960 0.000000 0.000000 
#    y 0.000000 1.743760 0.000000 
#    z 0.000000 0.000000 1.732470 
# 
# From -- ./inp_files/21190.got.cif
#   From: 2010.03.12/outbox.cif.g09.slc.cpg/sg74_11_cif.got.tgz:21190.got - 2010.04.16 15:46:19.
