data_PCOD8300144
_publ_section_title
;
Structure prediction by ZEFSAII (Michael W. Deem and Ramdas Pophale) SiO2 
 PCOD8300144
Probable space group: I M M A
;
_chemical_formula_sum "Si O2"
_cell_formula_units_Z 80
_cell_length_a 26.536685
_cell_length_b 17.096881
_cell_length_c 8.664068
_cell_angle_alpha 90.000000
_cell_angle_beta 90.000000
_cell_angle_gamma 90.000000
_cell_volume 3930.840394
_symmetry_space_group_name_H-M "I M M A"
_symmetry_group_IT_number 74
_symmetry_cell_setting 'orthorhombic'
loop_
_space_group_symop_operation_xyz
x,y,z
-x,1/2-y,z
x,-y,-z
-x,1/2+y,-z
-x,-y,-z
x,1/2+y,-z
-x,y,z
x,1/2-y,z
1/2+x,1/2+y,1/2+z
1/2-x,-y,1/2+z
1/2+x,1/2-y,1/2-z
1/2-x,y,1/2-z
1/2-x,1/2-y,1/2-z
1/2+x,y,1/2-z
1/2-x,1/2+y,1/2+z
1/2+x,-y,1/2+z
loop_
_atom_site_type_symbol
_atom_site_label
_atom_site_fract_x
_atom_site_fract_y
_atom_site_fract_z
Si Si1 0.056560 0.659972 0.614503
Si Si2 0.054472 0.410699 0.059247
Si Si3 0.746324 0.162414 0.933695
Si Si4 0.652778 0.084885 0.573436
Si Si5 0.144784 0.915107 0.437037
O O1 0.064312 0.750000 0.668446
O O2 0.098091 0.640049 0.484611
O O3 0.000000 0.649650 0.544932
O O4 0.062948 0.599609 0.757096
O O5 0.101961 0.368482 0.977787
O O6 0.000000 0.372477 0.016056
O O7 0.053804 0.500000 0.000000
O O8 0.741297 0.250000 0.995332
O O9 0.750000 0.159758 0.750000
O O10 0.798205 0.126574 0.997705
O O11 0.698169 0.116438 0.002402
O O12 0.651533 0.081586 0.755545
O O13 0.651933 0.000000 0.500000
O O14 0.133313 0.000000 0.500000
#
# Coordination Sequence:
#
# PCOD8300144 Si02
#       5
#    16  16  16  16  16
#     4  10  22  40  60  85 119 154 190 239 295 346
#     4   9  18  35  58  83 114 151 192 238 288 344
#     4   9  19  35  54  78 110 147 186 232 287 342
#     4  10  20  35  56  82 113 147 188 236 283 337
#     4  11  21  35  59  85 113 150 191 237 285 339
#
# _framework density 20.351882
#
# number of rings (size 3 to 8) (size 9 to 14) (size 15 to 20)
#    0.000    2.200    0.000    3.600    0.000    2.800 
#    0.000    3.000    0.000    8.400    0.000    0.000 
#    0.000    0.000    0.000    0.000    0.000    0.000 
#
# Total GULP energy -495619.380592 kJ/mol
# GULP energy per Si atom -12390.484515 kJ/mol
# Density = 2.030556 g / cm^3
# Si number density = 20.351882 Si / 1000 Ang^3
#
#
#
# Elastic Constant Matrix: (Units=GPa)
#
#
# Indices 1 2 3 4 5 6 
#
# 1 215.4756 45.5402 42.3152 0.0000 0.0000 0.0000
# 2 45.5402 80.4325 26.1002 0.0000 0.0000 0.0000
# 3 42.3152 26.1002 60.9731 0.0000 0.0000 0.0000
# 4 0.0000 0.0000 0.0000 17.5908 0.0000 0.0000
# 5 0.0000 0.0000 0.0000 0.0000 32.2595 0.0000
# 6 0.0000 0.0000 0.0000 0.0000 0.0000 18.5052
#
#
#
# Elastic Compliance Matrix: (Units=1/GPa)
#
#
# Indices 1 2 3 4 5 6 
#
# 1 0.005706 -0.002260 -0.002993 0.000000 0.000000 0.000000
# 2 -0.002260 0.015333 -0.004995 0.000000 0.000000 0.000000
# 3 -0.002993 -0.004995 0.020616 0.000000 0.000000 0.000000
# 4 0.000000 0.000000 0.000000 0.056848 0.000000 0.000000
# 5 0.000000 0.000000 0.000000 0.000000 0.030999 0.000000
# 6 0.000000 0.000000 0.000000 0.000000 0.000000 0.054039
#
#
# Mechanical properties :
#
#
# Convention : Reuss Voigt Hill
#
# Bulk Modulus (GPa) = 47.25953 64.97693 56.11823
# Shear Modulus (GPa) = 23.68662 29.86614 26.77638
#
# Velocity S-wave (km/s) = 3.41523 3.83494 3.63115
# Velocity P-wave (km/s) = 6.23084 7.18366 6.72415
#
# Compressibility (1/GPa) = 0.02115975
#
# Stress axis : x y z
#
# Youngs Moduli (GPa) = 175.24801 65.21815 48.50603
#
# Poissons Ratio (x) = 0.14737 0.14517
# Poissons Ratio (y) = 0.39600 0.24230
# Poissons Ratio (z) = 0.52449 0.32579
#
# Static dielectric constant tensor:
#      x y z
#    x 4.852490 0.000000 0.000000 
#    y 0.000000 3.727780 0.000000 
#    z 0.000000 0.000000 3.676850 
# 
# 
# High freq. dielectric constant tensor:
#      x y z
#    x 1.832420 0.000000 0.000000 
#    y 0.000000 1.778940 0.000000 
#    z 0.000000 0.000000 1.764640 
# 
# From -- ./inp_files/14943.got.cif
#   From: 2010.03.12/outbox.cif.g09.slc.cpg/sg74_8_cif.got.tgz:14943.got - 2010.04.16 15:46:19.
