data_PCOD8300707
_publ_section_title
;
Structure prediction by ZEFSAII (Michael W. Deem and Ramdas Pophale) SiO2 
 PCOD8300707
Probable space group: I M M A
;
_chemical_formula_sum "Si O2"
_cell_formula_units_Z 64
_cell_length_a 18.690159
_cell_length_b 13.204229
_cell_length_c 13.545296
_cell_angle_alpha 90.000000
_cell_angle_beta 90.000000
_cell_angle_gamma 90.000000
_cell_volume 3342.831944
_symmetry_space_group_name_H-M "I M M A"
_symmetry_group_IT_number 74
_symmetry_cell_setting 'orthorhombic'
loop_
_space_group_symop_operation_xyz
x,y,z
-x,1/2-y,z
x,-y,-z
-x,1/2+y,-z
-x,-y,-z
x,1/2+y,-z
-x,y,z
x,1/2-y,z
1/2+x,1/2+y,1/2+z
1/2-x,-y,1/2+z
1/2+x,1/2-y,1/2-z
1/2-x,y,1/2-z
1/2-x,1/2-y,1/2-z
1/2+x,y,1/2-z
1/2-x,1/2+y,1/2+z
1/2+x,-y,1/2+z
loop_
_atom_site_type_symbol
_atom_site_label
_atom_site_fract_x
_atom_site_fract_y
_atom_site_fract_z
Si Si1 0.721564 0.865409 0.546602
Si Si2 0.418368 0.368048 0.768542
Si Si3 0.421753 0.130610 0.546632
Si Si4 0.716465 0.446335 0.852713
O O1 0.725640 0.750000 0.584978
O O2 0.638977 0.903445 0.531833
O O3 0.758431 0.872414 0.439723
O O4 0.761534 0.937354 0.624543
O O5 0.500000 0.385357 0.801143
O O6 0.397651 0.250000 0.777435
O O7 0.406149 0.409431 0.657025
O O8 0.369144 0.435032 0.841632
O O9 0.500000 0.092863 0.509186
O O10 0.421662 0.250000 0.555202
O O11 0.750000 0.408890 0.750000
#
# Coordination Sequence:
#
# PCOD8300707 Si02
#       4
#    16  16  16  16
#     4  10  21  35  52  79 111 146 185 225 271 324
#     4   9  17  31  55  84 110 139 177 227 280 321
#     4   8  14  28  52  80 107 135 171 220 278 330
#     4  11  21  34  54  80 110 143 184 225 272 323
#
# _framework density 19.145444000000001
#
# number of rings (size 3 to 8) (size 9 to 14) (size 15 to 20)
#    0.000    2.500    2.500    2.250    0.000    1.500 
#    0.000    6.250    0.000    2.250    0.000    0.000 
#    0.000    0.000    0.000    0.000    0.000    0.000 
#
# Total GULP energy -396584.618237 kJ/mol
# GULP energy per Si atom -12393.269320 kJ/mol
# Density = 1.910187 g / cm^3
# Si number density = 19.145444 Si / 1000 Ang^3
#
#
#
# Elastic Constant Matrix: (Units=GPa)
#
#
# Indices 1 2 3 4 5 6 
#
# 1 151.8002 50.0178 39.9119 0.0000 0.0000 0.0000
# 2 50.0178 76.5042 14.6343 0.0000 0.0000 0.0000
# 3 39.9119 14.6343 50.5327 0.0000 0.0000 0.0000
# 4 0.0000 0.0000 0.0000 23.8760 0.0000 0.0000
# 5 0.0000 0.0000 0.0000 0.0000 15.7594 0.0000
# 6 0.0000 0.0000 0.0000 0.0000 0.0000 9.2086
#
#
#
# Elastic Compliance Matrix: (Units=1/GPa)
#
#
# Indices 1 2 3 4 5 6 
#
# 1 0.010019 -0.005332 -0.006369 0.000000 0.000000 0.000000
# 2 -0.005332 0.016675 -0.000618 0.000000 0.000000 0.000000
# 3 -0.006369 -0.000618 0.024999 0.000000 0.000000 0.000000
# 4 0.000000 0.000000 0.000000 0.041883 0.000000 0.000000
# 5 0.000000 0.000000 0.000000 0.000000 0.063454 0.000000
# 6 0.000000 0.000000 0.000000 0.000000 0.000000 0.108595
#
#
# Mechanical properties :
#
#
# Convention : Reuss Voigt Hill
#
# Bulk Modulus (GPa) = 36.96168 54.21834 45.59001
# Shear Modulus (GPa) = 16.70668 21.38700 19.04684
#
# Velocity S-wave (km/s) = 2.95722 3.34590 3.15755
# Velocity P-wave (km/s) = 5.56847 6.58084 6.09570
#
# Compressibility (1/GPa) = 0.02705505
#
# Stress axis : x y z
#
# Youngs Moduli (GPa) = 99.80916 59.96847 40.00223
#
# Poissons Ratio (x) = 0.31976 0.25478
# Poissons Ratio (y) = 0.53219 0.02471
# Poissons Ratio (z) = 0.63570 0.03705
#
# Static dielectric constant tensor:
#      x y z
#    x 4.000190 0.000000 0.000000 
#    y 0.000000 3.261300 0.000000 
#    z 0.000000 0.000000 3.216710 
# 
# 
# High freq. dielectric constant tensor:
#      x y z
#    x 1.756210 0.000000 0.000000 
#    y 0.000000 1.735950 0.000000 
#    z 0.000000 0.000000 1.708790 
# 
# From -- ./inp_files/19915.got.cif
#   From: 2010.03.12/outbox.cif.g09.slc.cpg/sg74_10_cif.got.tgz:19915.got - 2010.04.16 15:46:19.
