data_PCOD8300023
_publ_section_title
;
Structure prediction by ZEFSAII (Michael W. Deem and Ramdas Pophale) SiO2 
 PCOD8300023
Probable space group: I M M A
;
_chemical_formula_sum "Si O2"
_cell_formula_units_Z 104
_cell_length_a 9.746330
_cell_length_b 25.619923
_cell_length_c 22.739679
_cell_angle_alpha 90.000000
_cell_angle_beta 90.000000
_cell_angle_gamma 90.000000
_cell_volume 5678.102943
_symmetry_space_group_name_H-M "I M M A"
_symmetry_group_IT_number 74
_symmetry_cell_setting 'orthorhombic'
loop_
_space_group_symop_operation_xyz
x,y,z
-x,1/2-y,z
x,-y,-z
-x,1/2+y,-z
-x,-y,-z
x,1/2+y,-z
-x,y,z
x,1/2-y,z
1/2+x,1/2+y,1/2+z
1/2-x,-y,1/2+z
1/2+x,1/2-y,1/2-z
1/2-x,y,1/2-z
1/2-x,1/2-y,1/2-z
1/2+x,y,1/2-z
1/2-x,1/2+y,1/2+z
1/2+x,-y,1/2+z
loop_
_atom_site_type_symbol
_atom_site_label
_atom_site_fract_x
_atom_site_fract_y
_atom_site_fract_z
Si Si1 0.342081 0.850633 0.382540
Si Si2 0.845628 0.250000 0.805261
Si Si3 0.659556 0.455934 0.193149
Si Si4 0.500000 0.691273 0.680169
Si Si5 0.747974 0.863559 0.874879
Si Si6 0.160302 0.689425 0.987891
Si Si7 0.500000 0.692899 0.818463
Si Si8 0.661094 0.922379 0.192459
O O1 0.500000 0.870387 0.376236
O O2 0.315163 0.800212 0.343728
O O3 0.309217 0.834729 0.448910
O O4 0.232773 0.894262 0.362865
O O5 0.750000 0.250000 0.750000
O O6 0.000000 0.250000 0.781651
O O7 0.500000 0.440815 0.204655
O O8 0.750000 0.440932 0.250000
O O9 0.722725 0.425521 0.136268
O O10 0.672481 0.516719 0.178851
O O11 0.500000 0.750000 0.652305
O O12 0.376948 0.657014 0.658826
O O13 0.500000 0.696092 0.749101
O O14 0.629451 0.836221 0.840723
O O15 0.754198 0.847309 0.943270
O O16 0.208249 0.750000 0.985044
O O17 0.000000 0.685793 0.972038
O O18 0.500000 0.750000 0.846404
O O19 0.500000 0.905872 0.200254
O O20 0.750000 0.906957 0.250000
#
# Coordination Sequence:
#
# PCOD8300023 Si02
#       8
#    16   8  16   8  16  16   8  16
#     4  10  20  38  61  88 116 155 195 241 289 346
#     4  10  20  34  58  88 122 150 179 229 290 350
#     4  10  22  39  60  85 116 154 197 246 300 351
#     4  11  22  36  54  82 111 150 194 243 304 359
#     4  12  22  36  57  82 115 155 197 242 294 352
#     4  10  20  38  61  82 114 158 207 242 282 345
#     4  11  22  34  52  80 117 146 186 249 306 355
#     4  10  21  39  62  90 121 152 190 241 299 356
#
# _framework density 18.315977
#
# number of rings (size 3 to 8) (size 9 to 14) (size 15 to 20)
#    0.000    1.538    2.308    3.692    1.077    3.692 
#    1.385    0.769    0.000    3.692    0.000    0.000 
#    0.000    0.000    0.000    0.000    0.000    0.000 
#
# Total GULP energy -644595.256228 kJ/mol
# GULP energy per Si atom -12396.062620 kJ/mol
# Density = 1.827429 g / cm^3
# Si number density = 18.315977 Si / 1000 Ang^3
#
#
#
# Elastic Constant Matrix: (Units=GPa)
#
#
# Indices 1 2 3 4 5 6 
#
# 1 125.2163 53.7384 53.6662 0.0000 0.0000 0.0000
# 2 53.7384 93.4282 54.8193 0.0000 0.0000 0.0000
# 3 53.6662 54.8193 116.1768 0.0000 0.0000 0.0000
# 4 0.0000 0.0000 0.0000 46.8626 0.0000 0.0000
# 5 0.0000 0.0000 0.0000 0.0000 36.2810 0.0000
# 6 0.0000 0.0000 0.0000 0.0000 0.0000 39.6970
#
#
#
# Elastic Compliance Matrix: (Units=1/GPa)
#
#
# Indices 1 2 3 4 5 6 
#
# 1 0.011303 -0.004754 -0.002978 0.000000 0.000000 0.000000
# 2 -0.004754 0.016801 -0.005732 0.000000 0.000000 0.000000
# 3 -0.002978 -0.005732 0.012688 0.000000 0.000000 0.000000
# 4 0.000000 0.000000 0.000000 0.021339 0.000000 0.000000
# 5 0.000000 0.000000 0.000000 0.000000 0.027563 0.000000
# 6 0.000000 0.000000 0.000000 0.000000 0.000000 0.025191
#
#
# Mechanical properties :
#
#
# Convention : Reuss Voigt Hill
#
# Bulk Modulus (GPa) = 72.12761 73.25213 72.68987
# Shear Modulus (GPa) = 34.14553 36.07460 35.11007
#
# Velocity S-wave (km/s) = 4.32238 4.44280 4.38300
# Velocity P-wave (km/s) = 8.02345 8.14852 8.08622
#
# Compressibility (1/GPa) = 0.01386432
#
# Stress axis : x y z
#
# Youngs Moduli (GPa) = 88.47476 59.52096 78.81605
#
# Poissons Ratio (x) = 0.28295 0.23471
# Poissons Ratio (y) = 0.42059 0.45175
# Poissons Ratio (z) = 0.26348 0.34116
#
# Static dielectric constant tensor:
#      x y z
#    x 3.414290 0.000000 0.000000 
#    y 0.000000 1.653750 0.000000 
#    z 0.000000 0.000000 3.538020 
# 
# 
# High freq. dielectric constant tensor:
#      x y z
#    x 1.717080 0.000000 0.000000 
#    y 0.000000 1.715040 0.000000 
#    z 0.000000 0.000000 1.701820 
# 
# From -- ./inp_files/49367.got.cif
#   From: 2010.03.12/outbox.cif.g09.slc.cpg/sg74_25_cif.got.tgz:49367.got - 2010.04.16 15:46:19.
