data_PCOD8300869
_publ_section_title
;
Structure prediction by ZEFSAII (Michael W. Deem and Ramdas Pophale) SiO2 
 PCOD8300869
Probable space group: I M M A
;
_chemical_formula_sum "Si O2"
_cell_formula_units_Z 80
_cell_length_a 16.389746
_cell_length_b 9.067449
_cell_length_c 28.357380
_cell_angle_alpha 90.000000
_cell_angle_beta 90.000000
_cell_angle_gamma 90.000000
_cell_volume 4214.280588
_symmetry_space_group_name_H-M "I M M A"
_symmetry_group_IT_number 74
_symmetry_cell_setting 'orthorhombic'
loop_
_space_group_symop_operation_xyz
x,y,z
-x,1/2-y,z
x,-y,-z
-x,1/2+y,-z
-x,-y,-z
x,1/2+y,-z
-x,y,z
x,1/2-y,z
1/2+x,1/2+y,1/2+z
1/2-x,-y,1/2+z
1/2+x,1/2-y,1/2-z
1/2-x,y,1/2-z
1/2-x,1/2-y,1/2-z
1/2+x,y,1/2-z
1/2-x,1/2+y,1/2+z
1/2+x,-y,1/2+z
loop_
_atom_site_type_symbol
_atom_site_label
_atom_site_fract_x
_atom_site_fract_y
_atom_site_fract_z
Si Si1 0.594173 0.583326 0.684496
Si Si2 0.650290 0.581829 0.787997
Si Si3 0.000000 0.424778 0.569233
Si Si4 0.678927 0.424041 0.954117
Si Si5 0.267698 0.075333 0.642966
Si Si6 0.000000 0.576474 0.327215
O O1 0.500000 0.532101 0.693273
O O2 0.593841 0.750000 0.664976
O O3 0.650831 0.578479 0.731380
O O4 0.637464 0.477315 0.645455
O O5 0.639744 0.750000 0.805791
O O6 0.727717 0.509351 0.813011
O O7 0.577224 0.477020 0.800155
O O8 0.915740 0.479220 0.545718
O O9 0.000000 0.250000 0.571502
O O10 0.000000 0.493208 0.621090
O O11 0.685231 0.250000 0.959876
O O12 0.725826 0.472846 0.906447
O O13 0.720120 0.500000 0.000000
O O14 0.260511 0.250000 0.649978
O O15 0.000000 0.750000 0.329763
#
# Coordination Sequence:
#
# PCOD8300869 Si02
#       6
#    16  16   8  16  16   8
#     4  10  22  40  58  80 113 149 185 231 280 328
#     4  11  21  36  56  82 115 153 192 227 269 328
#     4   9  17  34  54  76 113 149 179 222 270 312
#     4  10  21  37  56  80 111 145 182 228 277 328
#     4  11  23  38  57  84 114 146 186 233 279 328
#     4  11  19  32  54  80 117 156 187 231 275 314
#
# _framework density 18.983074999999999
#
# number of rings (size 3 to 8) (size 9 to 14) (size 15 to 20)
#    0.000    1.600    3.000    2.400    0.000    6.000 
#    0.000    0.000    0.000    0.600    0.000    0.000 
#    0.000    0.000    0.000    0.000    0.000    0.000 
#
# Total GULP energy -495607.692884 kJ/mol
# GULP energy per Si atom -12390.192322 kJ/mol
# Density = 1.893987 g / cm^3
# Si number density = 18.983075 Si / 1000 Ang^3
#
#
#
# Elastic Constant Matrix: (Units=GPa)
#
#
# Indices 1 2 3 4 5 6 
#
# 1 87.4322 41.7512 60.9053 0.0000 0.0000 0.0000
# 2 41.7512 69.1270 42.7295 0.0000 0.0000 0.0000
# 3 60.9053 42.7295 93.8200 0.0000 0.0000 0.0000
# 4 0.0000 0.0000 0.0000 30.9372 0.0000 0.0000
# 5 0.0000 0.0000 0.0000 0.0000 27.1118 0.0000
# 6 0.0000 0.0000 0.0000 0.0000 0.0000 31.6812
#
#
#
# Elastic Compliance Matrix: (Units=1/GPa)
#
#
# Indices 1 2 3 4 5 6 
#
# 1 0.022758 -0.006421 -0.011850 0.000000 0.000000 0.000000
# 2 -0.006421 0.021946 -0.005827 0.000000 0.000000 0.000000
# 3 -0.011850 -0.005827 0.021005 0.000000 0.000000 0.000000
# 4 0.000000 0.000000 0.000000 0.032324 0.000000 0.000000
# 5 0.000000 0.000000 0.000000 0.000000 0.036884 0.000000
# 6 0.000000 0.000000 0.000000 0.000000 0.000000 0.031564
#
#
# Mechanical properties :
#
#
# Convention : Reuss Voigt Hill
#
# Bulk Modulus (GPa) = 57.09597 60.12792 58.61195
# Shear Modulus (GPa) = 22.67435 24.94558 23.80997
#
# Velocity S-wave (km/s) = 3.45983 3.62898 3.54541
# Velocity P-wave (km/s) = 6.78993 7.02158 6.90673
#
# Compressibility (1/GPa) = 0.01751437
#
# Stress axis : x y z
#
# Youngs Moduli (GPa) = 43.94081 45.56661 47.60794
#
# Poissons Ratio (x) = 0.29257 0.56413
# Poissons Ratio (y) = 0.28213 0.27741
# Poissons Ratio (z) = 0.52068 0.26551
#
# Static dielectric constant tensor:
#      x y z
#    x 3.431320 0.000000 0.000000 
#    y 0.000000 3.363670 0.000000 
#    z 0.000000 0.000000 3.457020 
# 
# 
# High freq. dielectric constant tensor:
#      x y z
#    x 1.735450 0.000000 0.000000 
#    y 0.000000 1.732520 0.000000 
#    z 0.000000 0.000000 1.723570 
# 
# From -- ./inp_files/67566.got.cif
#   From: 2010.03.12/outbox.cif.g09.slc.cpg/sg74_34_cif.got.tgz:67566.got - 2010.04.16 15:46:19.
