data_PCOD8300076
_publ_section_title
;
Structure prediction by ZEFSAII (Michael W. Deem and Ramdas Pophale) SiO2 
 PCOD8300076
Probable space group: I M M A
;
_chemical_formula_sum "Si O2"
_cell_formula_units_Z 72
_cell_length_a 13.994350
_cell_length_b 9.957319
_cell_length_c 28.218986
_cell_angle_alpha 90.000000
_cell_angle_beta 90.000000
_cell_angle_gamma 90.000000
_cell_volume 3932.208669
_symmetry_space_group_name_H-M "I M M A"
_symmetry_group_IT_number 74
_symmetry_cell_setting 'orthorhombic'
loop_
_space_group_symop_operation_xyz
x,y,z
-x,1/2-y,z
x,-y,-z
-x,1/2+y,-z
-x,-y,-z
x,1/2+y,-z
-x,y,z
x,1/2-y,z
1/2+x,1/2+y,1/2+z
1/2-x,-y,1/2+z
1/2+x,1/2-y,1/2-z
1/2-x,y,1/2-z
1/2-x,1/2-y,1/2-z
1/2+x,y,1/2-z
1/2-x,1/2+y,1/2+z
1/2+x,-y,1/2+z
loop_
_atom_site_type_symbol
_atom_site_label
_atom_site_fract_x
_atom_site_fract_y
_atom_site_fract_z
Si Si1 0.346060 0.902282 0.625838
Si Si2 0.832161 0.594034 0.363171
Si Si3 0.390716 0.106377 0.965938
Si Si4 0.500000 0.101685 0.294603
Si Si5 0.500000 0.591969 0.206866
Si Si6 0.000000 0.092019 0.047062
O O1 0.307580 0.750000 0.620073
O O2 0.408112 0.914248 0.672823
O O3 0.406501 0.941655 0.578859
O O4 0.261295 0.004378 0.635653
O O5 0.802768 0.750000 0.358203
O O6 0.888095 0.564340 0.411536
O O7 0.904169 0.551614 0.321473
O O8 0.500000 0.118871 0.982022
O O9 0.338953 0.250000 0.973421
O O10 0.337203 0.000000 0.000000
O O11 0.500000 0.250000 0.270763
O O12 0.500000 0.987028 0.255586
O O13 0.500000 0.750000 0.217484
O O14 0.000000 0.250000 0.033137
O O15 0.000000 0.000000 0.000000
#
# Coordination Sequence:
#
# PCOD8300076 Si02
#       6
#    16  16  16   8   8   8
#     4   9  20  38  57  78 108 141 175 219 267 317
#     4  10  20  35  54  78 109 143 177 217 266 316
#     4   9  17  31  49  69  99 138 174 208 248 298
#     4   9  20  40  59  76 102 138 176 219 273 322
#     4  10  21  37  56  78 108 141 176 220 266 318
#     4   9  19  37  59  82 110 143 178 219 266 314
#
# _framework density 18.310320000000001
#
# number of rings (size 3 to 8) (size 9 to 14) (size 15 to 20)
#    0.000    2.667    1.111    1.333    0.000    5.333 
#    0.000   11.111    0.000    0.000    0.000    0.000 
#    0.000    0.000    0.000    0.000    0.000    0.000 
#
# Total GULP energy -446150.754997 kJ/mol
# GULP energy per Si atom -12393.076528 kJ/mol
# Density = 1.826864 g / cm^3
# Si number density = 18.310320 Si / 1000 Ang^3
#
#
#
# Elastic Constant Matrix: (Units=GPa)
#
#
# Indices 1 2 3 4 5 6 
#
# 1 97.8622 63.4035 33.3633 0.0000 0.0000 0.0000
# 2 63.4035 98.7776 71.3976 0.0000 0.0000 0.0000
# 3 33.3633 71.3976 120.3497 0.0000 0.0000 0.0000
# 4 0.0000 0.0000 0.0000 40.6708 0.0000 0.0000
# 5 0.0000 0.0000 0.0000 0.0000 25.6947 0.0000
# 6 0.0000 0.0000 0.0000 0.0000 0.0000 26.9716
#
#
#
# Elastic Compliance Matrix: (Units=1/GPa)
#
#
# Indices 1 2 3 4 5 6 
#
# 1 0.018214 -0.014078 0.003303 0.000000 0.000000 0.000000
# 2 -0.014078 0.028606 -0.013068 0.000000 0.000000 0.000000
# 3 0.003303 -0.013068 0.015146 0.000000 0.000000 0.000000
# 4 0.000000 0.000000 0.000000 0.024588 0.000000 0.000000
# 5 0.000000 0.000000 0.000000 0.000000 0.038919 0.000000
# 6 0.000000 0.000000 0.000000 0.000000 0.000000 0.037076
#
#
# Mechanical properties :
#
#
# Convention : Reuss Voigt Hill
#
# Bulk Modulus (GPa) = 70.03274 72.59093 71.31184
# Shear Modulus (GPa) = 23.25655 28.58909 25.92282
#
# Velocity S-wave (km/s) = 3.56776 3.95570 3.76673
# Velocity P-wave (km/s) = 7.43657 7.78423 7.61239
#
# Compressibility (1/GPa) = 0.01427903
#
# Stress axis : x y z
#
# Youngs Moduli (GPa) = 54.90422 34.95808 66.02451
#
# Poissons Ratio (x) = 0.49215 -0.21806
# Poissons Ratio (y) = 0.77295 0.86278
# Poissons Ratio (z) = -0.18133 0.45682
#
# Static dielectric constant tensor:
#      x y z
#    x 0.972260 0.000000 0.000000 
#    y 0.000000 3.645430 0.000000 
#    z 0.000000 0.000000 3.337310 
# 
# 
# High freq. dielectric constant tensor:
#      x y z
#    x 1.695410 0.000000 0.000000 
#    y 0.000000 1.715610 0.000000 
#    z 0.000000 0.000000 1.711120 
# 
# From -- ./inp_files/63661.got.cif
#   From: 2010.03.12/outbox.cif.g09.slc.cpg/sg74_32_cif.got.tgz:63661.got - 2010.04.16 15:46:19.
