data_PCOD8300141
_publ_section_title
;
Structure prediction by ZEFSAII (Michael W. Deem and Ramdas Pophale) SiO2 
 PCOD8300141
Probable space group: I M M A
;
_chemical_formula_sum "Si O2"
_cell_formula_units_Z 72
_cell_length_a 10.115258
_cell_length_b 15.164744
_cell_length_c 24.702869
_cell_angle_alpha 90.000000
_cell_angle_beta 90.000000
_cell_angle_gamma 90.000000
_cell_volume 3789.303953
_symmetry_space_group_name_H-M "I M M A"
_symmetry_group_IT_number 74
_symmetry_cell_setting 'orthorhombic'
loop_
_space_group_symop_operation_xyz
x,y,z
-x,1/2-y,z
x,-y,-z
-x,1/2+y,-z
-x,-y,-z
x,1/2+y,-z
-x,y,z
x,1/2-y,z
1/2+x,1/2+y,1/2+z
1/2-x,-y,1/2+z
1/2+x,1/2-y,1/2-z
1/2-x,y,1/2-z
1/2-x,1/2-y,1/2-z
1/2+x,y,1/2-z
1/2-x,1/2+y,1/2+z
1/2+x,-y,1/2+z
loop_
_atom_site_type_symbol
_atom_site_label
_atom_site_fract_x
_atom_site_fract_y
_atom_site_fract_z
Si Si1 0.749412 0.092596 0.187356
Si Si2 0.255743 0.416589 0.620877
Si Si3 0.834821 0.250000 0.806660
Si Si4 0.500000 0.476889 0.936461
Si Si5 0.000000 0.654427 0.867984
Si Si6 0.500000 0.846554 0.869383
Si Si7 0.500000 0.483429 0.562238
O O1 0.750000 0.075362 0.250000
O O2 0.875481 0.148297 0.170881
O O3 0.624670 0.148840 0.169660
O O4 0.749108 0.996667 0.161715
O O5 0.283661 0.331942 0.657940
O O6 0.373922 0.426564 0.578594
O O7 0.123641 0.417483 0.583792
O O8 0.750000 0.250000 0.750000
O O9 0.000000 0.250000 0.798433
O O10 0.500000 0.575220 0.912449
O O11 0.500000 0.500000 0.000000
O O12 0.000000 0.750000 0.896994
O O13 0.000000 0.580531 0.913169
O O14 0.500000 0.750000 0.898445
O O15 0.500000 0.500000 0.500000
#
# Coordination Sequence:
#
# PCOD8300141 Si02
#       7
#    16  16   8   8   8   8   8
#     4  10  20  35  56  81 115 158 191 233 302 366
#     4  10  22  41  62  91 127 160 215 265 316 395
#     4  12  26  44  68 100 138 174 218 282 341 402
#     4  10  22  42  66  89 123 169 211 262 326 381
#     4  10  21  34  51  83 115 140 193 247 285 364
#     4  10  21  36  55  83 119 150 195 249 293 366
#     4  10  20  40  64  81 119 165 205 262 322 377
#
# _framework density 19.000851000000001
#
# number of rings (size 3 to 8) (size 9 to 14) (size 15 to 20)
#    0.000    1.778    1.111    2.667    1.556    2.667 
#    8.000    0.000    0.000    0.000    0.000    0.000 
#    0.000    0.000    0.000    0.000    0.000    0.000 
#
# Total GULP energy -446095.573749 kJ/mol
# GULP energy per Si atom -12391.543715 kJ/mol
# Density = 1.895760 g / cm^3
# Si number density = 19.000851 Si / 1000 Ang^3
#
#
#
# Elastic Constant Matrix: (Units=GPa)
#
#
# Indices 1 2 3 4 5 6 
#
# 1 186.4938 48.4104 69.9996 0.0000 0.0000 0.0000
# 2 48.4104 105.0056 32.9344 0.0000 0.0000 0.0000
# 3 69.9996 32.9344 145.9184 0.0000 0.0000 0.0000
# 4 0.0000 0.0000 0.0000 16.0935 0.0000 0.0000
# 5 0.0000 0.0000 0.0000 0.0000 20.9380 0.0000
# 6 0.0000 0.0000 0.0000 0.0000 0.0000 37.4744
#
#
#
# Elastic Compliance Matrix: (Units=1/GPa)
#
#
# Indices 1 2 3 4 5 6 
#
# 1 0.007042 -0.002353 -0.002847 0.000000 0.000000 0.000000
# 2 -0.002353 0.011035 -0.001362 0.000000 0.000000 0.000000
# 3 -0.002847 -0.001362 0.008526 0.000000 0.000000 0.000000
# 4 0.000000 0.000000 0.000000 0.062137 0.000000 0.000000
# 5 0.000000 0.000000 0.000000 0.000000 0.047760 0.000000
# 6 0.000000 0.000000 0.000000 0.000000 0.000000 0.026685
#
#
# Mechanical properties :
#
#
# Convention : Reuss Voigt Hill
#
# Bulk Modulus (GPa) = 74.18865 82.23406 78.21135
# Shear Modulus (GPa) = 27.65459 33.97275 30.81367
#
# Velocity S-wave (km/s) = 3.81916 4.23301 4.03140
# Velocity P-wave (km/s) = 7.65360 8.20148 7.93227
#
# Compressibility (1/GPa) = 0.01347915
#
# Stress axis : x y z
#
# Youngs Moduli (GPa) = 142.01429 90.61738 117.28636
#
# Poissons Ratio (x) = 0.21326 0.33389
# Poissons Ratio (y) = 0.33423 0.15971
# Poissons Ratio (z) = 0.40428 0.12340
#
# Static dielectric constant tensor:
#      x y z
#    x 4.070230 0.000000 0.000000 
#    y 0.000000 3.505140 0.000000 
#    z 0.000000 0.000000 3.368710 
# 
# 
# High freq. dielectric constant tensor:
#      x y z
#    x 1.762790 0.000000 0.000000 
#    y 0.000000 1.743270 0.000000 
#    z 0.000000 0.000000 1.734050 
# 
# From -- ./inp_files/63733.got.cif
#   From: 2010.03.12/outbox.cif.g09.slc.cpg/sg74_32_cif.got.tgz:63733.got - 2010.04.16 15:46:19.
