data_PCOD8300478
_publ_section_title
;
Structure prediction by ZEFSAII (Michael W. Deem and Ramdas Pophale) SiO2 
 PCOD8300478
Probable space group: I M M A
;
_chemical_formula_sum "Si O2"
_cell_formula_units_Z 88
_cell_length_a 9.210781
_cell_length_b 21.238166
_cell_length_c 22.888358
_cell_angle_alpha 90.000000
_cell_angle_beta 90.000000
_cell_angle_gamma 90.000000
_cell_volume 4477.422786
_symmetry_space_group_name_H-M "I M M A"
_symmetry_group_IT_number 74
_symmetry_cell_setting 'orthorhombic'
loop_
_space_group_symop_operation_xyz
x,y,z
-x,1/2-y,z
x,-y,-z
-x,1/2+y,-z
-x,-y,-z
x,1/2+y,-z
-x,y,z
x,1/2-y,z
1/2+x,1/2+y,1/2+z
1/2-x,-y,1/2+z
1/2+x,1/2-y,1/2-z
1/2-x,y,1/2-z
1/2-x,1/2-y,1/2-z
1/2+x,y,1/2-z
1/2-x,1/2+y,1/2+z
1/2+x,-y,1/2+z
loop_
_atom_site_type_symbol
_atom_site_label
_atom_site_fract_x
_atom_site_fract_y
_atom_site_fract_z
Si Si1 0.660659 0.823822 0.696078
Si Si2 0.331414 0.106010 0.105704
Si Si3 0.334626 0.425756 0.505569
Si Si4 0.169915 0.493727 0.692506
Si Si5 0.168348 0.750000 0.188678
Si Si6 0.830738 0.617091 0.134903
O O1 0.500000 0.854642 0.695524
O O2 0.646022 0.750000 0.703745
O O3 0.750000 0.853476 0.750000
O O4 0.745326 0.837924 0.636777
O O5 0.500000 0.122666 0.105958
O O6 0.298573 0.040597 0.138787
O O7 0.275263 0.105178 0.039861
O O8 0.315321 0.500000 0.500000
O O9 0.500000 0.406408 0.490912
O O10 0.288493 0.399044 0.568420
O O11 0.250000 0.520197 0.750000
O O12 0.235616 0.425788 0.677564
O O13 0.000000 0.486731 0.705176
O O14 0.250000 0.750000 0.250000
O O15 0.208627 0.810753 0.149553
O O16 0.000000 0.750000 0.204611
O O17 0.000000 0.602384 0.145818
#
# Coordination Sequence:
#
# PCOD8300478 Si02
#       6
#    16  16  16  16   8  16
#     4  10  21  38  60  85 115 152 193 238 289 348
#     4  11  23  37  57  85 118 154 193 241 292 351
#     4  10  20  37  61  85 113 153 196 239 291 354
#     4  11  23  36  55  85 117 150 189 238 292 349
#     4  10  22  40  62  88 118 154 197 246 299 354
#     4  10  21  39  61  85 116 154 195 242 296 354
#
# _framework density 19.654164000000002
#
# number of rings (size 3 to 8) (size 9 to 14) (size 15 to 20)
#    0.000    1.636    1.818    2.727    0.000    8.000 
#    1.636    0.000    0.000    0.000    0.000    0.000 
#    0.000    0.000    0.000    0.000    0.000    0.000 
#
# Total GULP energy -545758.857592 kJ/mol
# GULP energy per Si atom -12403.610400 kJ/mol
# Density = 1.960943 g / cm^3
# Si number density = 19.654164 Si / 1000 Ang^3
#
#
#
# Elastic Constant Matrix: (Units=GPa)
#
#
# Indices 1 2 3 4 5 6 
#
# 1 119.8909 30.7423 63.4062 0.0000 0.0000 0.0000
# 2 30.7423 64.0672 36.1231 0.0000 0.0000 0.0000
# 3 63.4062 36.1231 131.6305 0.0000 0.0000 0.0000
# 4 0.0000 0.0000 0.0000 33.8084 0.0000 0.0000
# 5 0.0000 0.0000 0.0000 0.0000 42.1522 0.0000
# 6 0.0000 0.0000 0.0000 0.0000 0.0000 23.0593
#
#
#
# Elastic Compliance Matrix: (Units=1/GPa)
#
#
# Indices 1 2 3 4 5 6 
#
# 1 0.011620 -0.002863 -0.004812 0.000000 0.000000 0.000000
# 2 -0.002863 0.019171 -0.003882 0.000000 0.000000 0.000000
# 3 -0.004812 -0.003882 0.010980 0.000000 0.000000 0.000000
# 4 0.000000 0.000000 0.000000 0.029578 0.000000 0.000000
# 5 0.000000 0.000000 0.000000 0.000000 0.023724 0.000000
# 6 0.000000 0.000000 0.000000 0.000000 0.000000 0.043367
#
#
# Mechanical properties :
#
#
# Convention : Reuss Voigt Hill
#
# Bulk Modulus (GPa) = 53.59609 64.01464 58.80536
# Shear Modulus (GPa) = 29.80243 32.15844 30.98044
#
# Velocity S-wave (km/s) = 3.89825 4.04940 3.97454
# Velocity P-wave (km/s) = 6.89859 7.38274 7.14477
#
# Compressibility (1/GPa) = 0.01865808
#
# Stress axis : x y z
#
# Youngs Moduli (GPa) = 86.06125 52.16177 91.07376
#
# Poissons Ratio (x) = 0.14932 0.43821
# Poissons Ratio (y) = 0.24637 0.35356
# Poissons Ratio (z) = 0.41409 0.20250
#
# Static dielectric constant tensor:
#      x y z
#    x 3.700530 0.000000 0.000000 
#    y 0.000000 3.467350 0.000000 
#    z 0.000000 0.000000 3.668720 
# 
# 
# High freq. dielectric constant tensor:
#      x y z
#    x 1.772530 0.000000 0.000000 
#    y 0.000000 1.757750 0.000000 
#    z 0.000000 0.000000 1.769630 
# 
# From -- ./inp_files/48784.got.cif
#   From: 2010.03.12/outbox.cif.g09.slc.cpg/sg74_25_cif.got.tgz:48784.got - 2010.04.16 15:46:19.
