data_PCOD8300572
_publ_section_title
;
Structure prediction by ZEFSAII (Michael W. Deem and Ramdas Pophale) SiO2 
 PCOD8300572
Probable space group: I M M A
;
_chemical_formula_sum "Si O2"
_cell_formula_units_Z 112
_cell_length_a 27.931815
_cell_length_b 14.142904
_cell_length_c 14.102432
_cell_angle_alpha 90.000000
_cell_angle_beta 90.000000
_cell_angle_gamma 90.000000
_cell_volume 5570.982121
_symmetry_space_group_name_H-M "I M M A"
_symmetry_group_IT_number 74
_symmetry_cell_setting 'orthorhombic'
loop_
_space_group_symop_operation_xyz
x,y,z
-x,1/2-y,z
x,-y,-z
-x,1/2+y,-z
-x,-y,-z
x,1/2+y,-z
-x,y,z
x,1/2-y,z
1/2+x,1/2+y,1/2+z
1/2-x,-y,1/2+z
1/2+x,1/2-y,1/2-z
1/2-x,y,1/2-z
1/2-x,1/2-y,1/2-z
1/2+x,y,1/2-z
1/2-x,1/2+y,1/2+z
1/2+x,-y,1/2+z
loop_
_atom_site_type_symbol
_atom_site_label
_atom_site_fract_x
_atom_site_fract_y
_atom_site_fract_z
Si Si1 0.445722 0.357607 0.795838
Si Si2 0.638713 0.473285 0.862446
Si Si3 0.446290 0.358534 0.386074
Si Si4 0.856303 0.521302 0.845508
Si Si5 0.091957 0.144780 0.910725
Si Si6 0.732649 0.641590 0.646693
Si Si7 0.673789 0.859629 0.973347
O O1 0.500000 0.379346 0.822590
O O2 0.431763 0.250000 0.821651
O O3 0.414182 0.428449 0.858799
O O4 0.438708 0.374339 0.683632
O O5 0.659764 0.483556 0.757350
O O6 0.636608 0.576536 0.912337
O O7 0.673362 0.400714 0.919754
O O8 0.500000 0.391704 0.357077
O O9 0.438470 0.250000 0.356329
O O10 0.405912 0.420052 0.333682
O O11 0.442094 0.370618 0.499519
O O12 0.864741 0.431237 0.914461
O O13 0.813873 0.584307 0.887838
O O14 0.114363 0.250000 0.911141
O O15 0.716658 0.750000 0.653301
O O16 0.750000 0.606936 0.750000
O O17 0.773435 0.626003 0.568806
O O18 0.658033 0.750000 0.969356
#
# Coordination Sequence:
#
# PCOD8300572 Si02
#       7
#    16  16  16  16  16  16  16
#     4   9  17  32  58  87 119 161 205 246 289 346
#     4  10  21  36  58  89 116 151 193 244 293 356
#     4  10  21  37  57  86 124 160 198 245 300 358
#     4  11  21  35  59  89 121 155 197 248 293 354
#     4   9  19  35  54  82 122 166 203 238 288 351
#     4  10  20  38  64  89 113 148 196 246 300 359
#     4  10  21  40  63  85 113 153 196 241 295 354
#
# _framework density 20.104175999999999
#
# number of rings (size 3 to 8) (size 9 to 14) (size 15 to 20)
#    0.000    2.143    1.429    1.714    0.000    6.286 
#    5.143    1.429    0.000    2.571    0.000    2.000 
#    0.000    0.000    0.000    0.000    0.000    0.000 
#
# Total GULP energy -694256.311354 kJ/mol
# GULP energy per Si atom -12397.434131 kJ/mol
# Density = 2.005842 g / cm^3
# Si number density = 20.104176 Si / 1000 Ang^3
#
#
#
# Elastic Constant Matrix: (Units=GPa)
#
#
# Indices 1 2 3 4 5 6 
#
# 1 113.6984 65.6998 31.0215 0.0000 0.0000 0.0000
# 2 65.6998 130.8181 22.7855 0.0000 0.0000 0.0000
# 3 31.0215 22.7855 54.7749 0.0000 0.0000 0.0000
# 4 0.0000 0.0000 0.0000 28.8276 0.0000 0.0000
# 5 0.0000 0.0000 0.0000 0.0000 24.1643 0.0000
# 6 0.0000 0.0000 0.0000 0.0000 0.0000 37.8873
#
#
#
# Elastic Compliance Matrix: (Units=1/GPa)
#
#
# Indices 1 2 3 4 5 6 
#
# 1 0.013669 -0.005947 -0.005267 0.000000 0.000000 0.000000
# 2 -0.005947 0.010829 -0.001136 0.000000 0.000000 0.000000
# 3 -0.005267 -0.001136 0.021712 0.000000 0.000000 0.000000
# 4 0.000000 0.000000 0.000000 0.034689 0.000000 0.000000
# 5 0.000000 0.000000 0.000000 0.000000 0.041383 0.000000
# 6 0.000000 0.000000 0.000000 0.000000 0.000000 0.026394
#
#
# Mechanical properties :
#
#
# Convention : Reuss Voigt Hill
#
# Bulk Modulus (GPa) = 46.49413 59.81165 53.15289
# Shear Modulus (GPa) = 27.69337 30.16149 28.92743
#
# Velocity S-wave (km/s) = 3.71549 3.87752 3.79737
# Velocity P-wave (km/s) = 6.44851 7.06133 6.76186
#
# Compressibility (1/GPa) = 0.02150809
#
# Stress axis : x y z
#
# Youngs Moduli (GPa) = 73.15816 92.34398 46.05668
#
# Poissons Ratio (x) = 0.54921 0.24260
# Poissons Ratio (y) = 0.43510 0.05234
# Poissons Ratio (z) = 0.38535 0.10494
#
# Static dielectric constant tensor:
#      x y z
#    x 3.448660 0.000000 0.000000 
#    y 0.000000 4.006720 0.000000 
#    z 0.000000 0.000000 3.578420 
# 
# 
# High freq. dielectric constant tensor:
#      x y z
#    x 1.762040 0.000000 0.000000 
#    y 0.000000 1.801500 0.000000 
#    z 0.000000 0.000000 1.770390 
# 
# From -- ./inp_files/36514.got.cif
#   From: 2010.03.12/outbox.cif.g09.slc.cpg/sg74_19_cif.got.tgz:36514.got - 2010.04.16 15:46:19.
