data_PCOD8300528
_publ_section_title
;
Structure prediction by ZEFSAII (Michael W. Deem and Ramdas Pophale) SiO2 
 PCOD8300528
Probable space group: I M M A
;
_chemical_formula_sum "Si O2"
_cell_formula_units_Z 80
_cell_length_a 10.808253
_cell_length_b 19.768657
_cell_length_c 19.117427
_cell_angle_alpha 90.000000
_cell_angle_beta 90.000000
_cell_angle_gamma 90.000000
_cell_volume 4084.718279
_symmetry_space_group_name_H-M "I M M A"
_symmetry_group_IT_number 74
_symmetry_cell_setting 'orthorhombic'
loop_
_space_group_symop_operation_xyz
x,y,z
-x,1/2-y,z
x,-y,-z
-x,1/2+y,-z
-x,-y,-z
x,1/2+y,-z
-x,y,z
x,1/2-y,z
1/2+x,1/2+y,1/2+z
1/2-x,-y,1/2+z
1/2+x,1/2-y,1/2-z
1/2-x,y,1/2-z
1/2-x,1/2-y,1/2-z
1/2+x,y,1/2-z
1/2-x,1/2+y,1/2+z
1/2+x,-y,1/2+z
loop_
_atom_site_type_symbol
_atom_site_label
_atom_site_fract_x
_atom_site_fract_y
_atom_site_fract_z
Si Si1 0.358240 0.828655 0.303652
Si Si2 0.500000 0.327721 0.090088
Si Si3 0.500000 0.427831 0.962074
Si Si4 0.264376 0.424468 0.580006
Si Si5 0.249524 0.828146 0.669504
Si Si6 0.140425 0.431177 0.071716
O O1 0.500000 0.842200 0.276422
O O2 0.341381 0.750000 0.321362
O O3 0.250000 0.851881 0.250000
O O4 0.337298 0.869560 0.374846
O O5 0.500000 0.250000 0.066837
O O6 0.616598 0.345421 0.137924
O O7 0.500000 0.370046 0.020022
O O8 0.383284 0.419083 0.910532
O O9 0.500000 0.500000 0.000000
O O10 0.306140 0.499223 0.603017
O O11 0.288041 0.409971 0.498268
O O12 0.286465 0.750000 0.660386
O O13 0.250000 0.849431 0.750000
O O14 0.350656 0.872663 0.629332
O O15 0.000000 0.443161 0.050518
#
# Coordination Sequence:
#
# PCOD8300528 Si02
#       6
#    16   8   8  16  16  16
#     4  10  23  43  65  91 123 160 202 250 305 365
#     4  10  20  38  58  84 120 150 194 248 290 342
#     4  12  20  38  64  90 116 157 198 247 302 355
#     4  11  22  39  62  89 121 153 197 250 302 356
#     4  10  22  38  58  85 118 157 196 240 290 345
#     4  11  22  38  60  86 118 155 196 243 298 355
#
# _framework density 19.585193
#
# number of rings (size 3 to 8) (size 9 to 14) (size 15 to 20)
#    0.000    1.400    4.000    2.400    2.800    2.800 
#    0.000    0.000    0.000    0.000    0.000    0.000 
#    0.000    0.000    0.000    0.000    0.000    0.000 
#
# Total GULP energy -496082.660245 kJ/mol
# GULP energy per Si atom -12402.066506 kJ/mol
# Density = 1.954062 g / cm^3
# Si number density = 19.585193 Si / 1000 Ang^3
#
#
#
# Elastic Constant Matrix: (Units=GPa)
#
#
# Indices 1 2 3 4 5 6 
#
# 1 136.7967 32.3974 19.6799 0.0000 0.0000 0.0000
# 2 32.3974 81.2052 49.5252 0.0000 0.0000 0.0000
# 3 19.6799 49.5252 62.6164 0.0000 0.0000 0.0000
# 4 0.0000 0.0000 0.0000 34.6735 0.0000 0.0000
# 5 0.0000 0.0000 0.0000 0.0000 28.9167 0.0000
# 6 0.0000 0.0000 0.0000 0.0000 0.0000 27.4784
#
#
#
# Elastic Compliance Matrix: (Units=1/GPa)
#
#
# Indices 1 2 3 4 5 6 
#
# 1 0.008073 -0.003233 0.000020 0.000000 0.000000 0.000000
# 2 -0.003233 0.025085 -0.018824 0.000000 0.000000 0.000000
# 3 0.000020 -0.018824 0.030853 0.000000 0.000000 0.000000
# 4 0.000000 0.000000 0.000000 0.028840 0.000000 0.000000
# 5 0.000000 0.000000 0.000000 0.000000 0.034582 0.000000
# 6 0.000000 0.000000 0.000000 0.000000 0.000000 0.036392
#
#
# Mechanical properties :
#
#
# Convention : Reuss Voigt Hill
#
# Bulk Modulus (GPa) = 50.16136 53.75814 51.95975
# Shear Modulus (GPa) = 23.30517 30.14811 26.72664
#
# Velocity S-wave (km/s) = 3.45329 3.92769 3.69810
# Velocity P-wave (km/s) = 6.44731 6.93375 6.69495
#
# Compressibility (1/GPa) = 0.01993566
#
# Stress axis : x y z
#
# Youngs Moduli (GPa) = 123.87138 39.86513 32.41208
#
# Poissons Ratio (x) = 0.12887 -0.00063
# Poissons Ratio (y) = 0.40043 0.61013
# Poissons Ratio (z) = -0.00242 0.75043
#
# Static dielectric constant tensor:
#      x y z
#    x 3.864100 0.000000 0.000000 
#    y 0.000000 3.581400 0.000000 
#    z 0.000000 0.000000 3.362280 
# 
# 
# High freq. dielectric constant tensor:
#      x y z
#    x 1.783490 0.000000 0.000000 
#    y 0.000000 1.765730 0.000000 
#    z 0.000000 0.000000 1.744230 
# 
# From -- ./inp_files/50451.got.cif
#   From: 2010.03.12/outbox.cif.g09.slc.cpg/sg74_26_cif.got.tgz:50451.got - 2010.04.16 15:46:19.
