data_PCOD8300007
_publ_section_title
;
Structure prediction by ZEFSAII (Michael W. Deem and Ramdas Pophale) SiO2 
 PCOD8300007
Probable space group: I M M A
;
_chemical_formula_sum "Si O2"
_cell_formula_units_Z 104
_cell_length_a 9.670697
_cell_length_b 21.205041
_cell_length_c 27.274778
_cell_angle_alpha 90.000000
_cell_angle_beta 90.000000
_cell_angle_gamma 90.000000
_cell_volume 5593.171257
_symmetry_space_group_name_H-M "I M M A"
_symmetry_group_IT_number 74
_symmetry_cell_setting 'orthorhombic'
loop_
_space_group_symop_operation_xyz
x,y,z
-x,1/2-y,z
x,-y,-z
-x,1/2+y,-z
-x,-y,-z
x,1/2+y,-z
-x,y,z
x,1/2-y,z
1/2+x,1/2+y,1/2+z
1/2-x,-y,1/2+z
1/2+x,1/2-y,1/2-z
1/2-x,y,1/2-z
1/2-x,1/2-y,1/2-z
1/2+x,y,1/2-z
1/2-x,1/2+y,1/2+z
1/2+x,-y,1/2+z
loop_
_atom_site_type_symbol
_atom_site_label
_atom_site_fract_x
_atom_site_fract_y
_atom_site_fract_z
Si Si1 0.500000 0.320726 0.309353
Si Si2 0.744606 0.110530 0.148100
Si Si3 0.162303 0.176534 0.055875
Si Si4 0.659765 0.879916 0.349172
Si Si5 0.336648 0.819577 0.446302
Si Si6 0.000000 0.681724 0.694630
Si Si7 0.669247 0.487674 0.800694
Si Si8 0.151819 0.250000 0.795274
O O1 0.500000 0.250000 0.333728
O O2 0.377684 0.364248 0.325712
O O3 0.500000 0.311653 0.252219
O O4 0.749265 0.129785 0.090771
O O5 0.629844 0.144882 0.177906
O O6 0.716749 0.036475 0.156841
O O7 0.197086 0.250000 0.066348
O O8 0.000000 0.164223 0.065198
O O9 0.207043 0.157896 0.000719
O O10 0.500000 0.904874 0.343807
O O11 0.705866 0.872631 0.406328
O O12 0.770981 0.921651 0.320157
O O13 0.674236 0.810233 0.328693
O O14 0.500000 0.811419 0.444723
O O15 0.271604 0.750000 0.435772
O O16 0.000000 0.750000 0.669724
O O17 0.500000 0.485505 0.793868
O O18 0.750000 0.504150 0.750000
O O19 0.250000 0.250000 0.750000
O O20 0.000000 0.250000 0.772239
#
# Coordination Sequence:
#
# PCOD8300007 Si02
#       8
#     8  16  16  16  16   8  16   8
#     4  11  22  36  58  84 113 147 197 251 304 358
#     4  12  23  37  57  82 120 155 198 246 299 352
#     4   9  17  31  57  91 120 151 195 248 298 347
#     4  10  20  37  64  92 121 153 194 243 298 357
#     4   8  14  30  59  93 123 150 188 243 300 351
#     4  11  22  36  54  80 111 153 195 247 306 358
#     4  12  27  44  61  83 116 163 209 244 292 358
#     4  10  20  34  56  92 124 150 184 234 297 355
#
# _framework density 18.594103
#
# number of rings (size 3 to 8) (size 9 to 14) (size 15 to 20)
#    0.000    1.692    2.308    4.615    2.154    3.077 
#    0.000    0.769    1.692    3.692    0.000    0.000 
#    0.000    0.000    0.000    0.000    0.000    0.000 
#
# Total GULP energy -644245.050619 kJ/mol
# GULP energy per Si atom -12389.327897 kJ/mol
# Density = 1.855178 g / cm^3
# Si number density = 18.594103 Si / 1000 Ang^3
#
#
#
# Elastic Constant Matrix: (Units=GPa)
#
#
# Indices 1 2 3 4 5 6 
#
# 1 99.7403 36.3907 32.2671 0.0000 0.0000 0.0000
# 2 36.3907 86.8560 30.1277 0.0000 0.0000 0.0000
# 3 32.2671 30.1277 115.0601 0.0000 0.0000 0.0000
# 4 0.0000 0.0000 0.0000 12.8886 0.0000 0.0000
# 5 0.0000 0.0000 0.0000 0.0000 33.5781 0.0000
# 6 0.0000 0.0000 0.0000 0.0000 0.0000 32.3194
#
#
#
# Elastic Compliance Matrix: (Units=1/GPa)
#
#
# Indices 1 2 3 4 5 6 
#
# 1 0.012376 -0.004379 -0.002324 0.000000 0.000000 0.000000
# 2 -0.004379 0.014213 -0.002494 0.000000 0.000000 0.000000
# 3 -0.002324 -0.002494 0.009996 0.000000 0.000000 0.000000
# 4 0.000000 0.000000 0.000000 0.077588 0.000000 0.000000
# 5 0.000000 0.000000 0.000000 0.000000 0.029781 0.000000
# 6 0.000000 0.000000 0.000000 0.000000 0.000000 0.030941
#
#
# Mechanical properties :
#
#
# Convention : Reuss Voigt Hill
#
# Bulk Modulus (GPa) = 54.97131 55.46971 55.22051
# Shear Modulus (GPa) = 25.08135 29.28195 27.18165
#
# Velocity S-wave (km/s) = 3.67670 3.97268 3.82755
# Velocity P-wave (km/s) = 6.90306 7.13719 7.02110
#
# Compressibility (1/GPa) = 0.01819131
#
# Stress axis : x y z
#
# Youngs Moduli (GPa) = 80.80450 70.35848 100.04252
#
# Poissons Ratio (x) = 0.30810 0.23249
# Poissons Ratio (y) = 0.35384 0.24946
# Poissons Ratio (z) = 0.18779 0.17544
#
# Static dielectric constant tensor:
#      x y z
#    x -0.039870 0.000000 0.000000 
#    y 0.000000 3.297410 0.000000 
#    z 0.000000 0.000000 3.909850 
# 
# 
# High freq. dielectric constant tensor:
#      x y z
#    x 1.701630 0.000000 0.000000 
#    y 0.000000 1.712840 0.000000 
#    z 0.000000 0.000000 1.731700 
# 
# From -- ./inp_files/64555.got.cif
#   From: 2010.03.12/outbox.cif.g09.slc.cpg/sg74_33_cif.got.tgz:64555.got - 2010.04.16 15:46:19.
