data_PCOD8300800
_publ_section_title
;
Structure prediction by ZEFSAII (Michael W. Deem and Ramdas Pophale) SiO2 
 PCOD8300800
Probable space group: I M M A
;
_chemical_formula_sum "Si O2"
_cell_formula_units_Z 96
_cell_length_a 16.852454
_cell_length_b 14.053591
_cell_length_c 18.459930
_cell_angle_alpha 90.000000
_cell_angle_beta 90.000000
_cell_angle_gamma 90.000000
_cell_volume 4372.003595
_symmetry_space_group_name_H-M "I M M A"
_symmetry_group_IT_number 74
_symmetry_cell_setting 'orthorhombic'
loop_
_space_group_symop_operation_xyz
x,y,z
-x,1/2-y,z
x,-y,-z
-x,1/2+y,-z
-x,-y,-z
x,1/2+y,-z
-x,y,z
x,1/2-y,z
1/2+x,1/2+y,1/2+z
1/2-x,-y,1/2+z
1/2+x,1/2-y,1/2-z
1/2-x,y,1/2-z
1/2-x,1/2-y,1/2-z
1/2+x,y,1/2-z
1/2-x,1/2+y,1/2+z
1/2+x,-y,1/2+z
loop_
_atom_site_type_symbol
_atom_site_label
_atom_site_fract_x
_atom_site_fract_y
_atom_site_fract_z
Si Si1 0.200591 0.506336 0.656781
Si Si2 0.912084 0.394846 0.969245
Si Si3 0.091814 0.861115 0.756873
Si Si4 0.833931 0.640138 0.183189
Si Si5 0.908763 0.145006 0.663790
Si Si6 0.182645 0.352084 0.101165
O O1 0.155610 0.576412 0.712716
O O2 0.259581 0.430093 0.694893
O O3 0.136014 0.437515 0.617776
O O4 0.247432 0.569856 0.598783
O O5 0.854828 0.337039 0.022302
O O6 0.000000 0.350210 0.970320
O O7 0.913012 0.500000 0.000000
O O8 0.880625 0.390551 0.888168
O O9 0.100917 0.750000 0.735855
O O10 0.114273 0.879467 0.840807
O O11 0.000000 0.893460 0.744327
O O12 0.804484 0.750000 0.178166
O O13 0.893213 0.626308 0.250809
O O14 0.878879 0.250000 0.640821
O O15 0.000000 0.134275 0.646526
O O16 0.219919 0.250000 0.123350
#
# Coordination Sequence:
#
# PCOD8300800 Si02
#       6
#    16  16  16  16  16  16
#     4  12  22  35  54  81 115 152 187 232 278 328
#     4  11  23  39  59  84 115 153 193 227 268 325
#     4  10  21  36  56  83 113 148 189 231 279 332
#     4  11  22  37  57  82 115 153 189 227 274 329
#     4  10  21  36  56  83 113 148 189 231 279 332
#     4  11  22  37  57  82 115 153 189 227 274 329
#
# _framework density 21.957896000000002
#
# number of rings (size 3 to 8) (size 9 to 14) (size 15 to 20)
#    0.000    1.167    1.667    6.000    0.000    5.333 
#    0.000    0.000    0.000    0.000    0.000    9.333 
#    0.000   21.333    0.000    0.000    0.000    0.000 
#
# Total GULP energy -594773.441963 kJ/mol
# GULP energy per Si atom -12391.113374 kJ/mol
# Density = 2.190792 g / cm^3
# Si number density = 21.957896 Si / 1000 Ang^3
#
#
#
# Elastic Constant Matrix: (Units=GPa)
#
#
# Indices 1 2 3 4 5 6 
#
# 1 127.8509 73.7758 39.3006 0.0000 0.0000 0.0000
# 2 73.7758 144.3590 18.8392 0.0000 0.0000 0.0000
# 3 39.3006 18.8392 49.0958 0.0000 0.0000 0.0000
# 4 0.0000 0.0000 0.0000 17.1089 0.0000 0.0000
# 5 0.0000 0.0000 0.0000 0.0000 23.6729 0.0000
# 6 0.0000 0.0000 0.0000 0.0000 0.0000 -14.4647
#
#
#
# Elastic Compliance Matrix: (Units=1/GPa)
#
#
# Indices 1 2 3 4 5 6 
#
# 1 0.014032 -0.006006 -0.008927 0.000000 0.000000 0.000000
# 2 -0.006006 0.009863 0.001023 0.000000 0.000000 0.000000
# 3 -0.008927 0.001023 0.027122 0.000000 0.000000 0.000000
# 4 0.000000 0.000000 0.000000 0.058449 0.000000 0.000000
# 5 0.000000 0.000000 0.000000 0.000000 0.042242 0.000000
# 6 0.000000 0.000000 0.000000 0.000000 0.000000 -0.069134
#
#
# Mechanical properties :
#
#
# Convention : Reuss Voigt Hill
#
# Bulk Modulus (GPa) = 43.11104 65.01520 54.06312
# Shear Modulus (GPa) = 42.32722 17.88941 30.10832
#
# Velocity S-wave (km/s) = 4.39527 2.85742 3.70697
# Velocity P-wave (km/s) = 6.74047 6.36865 6.55720
#
# Compressibility (1/GPa) = 0.02319592
#
# Stress axis : x y z
#
# Youngs Moduli (GPa) = 71.26816 101.38886 36.87022
#
# Poissons Ratio (x) = 0.60893 0.32916
# Poissons Ratio (y) = 0.42803 -0.03772
# Poissons Ratio (z) = 0.63624 -0.10371
#
# Static dielectric constant tensor:
#      x y z
#    x 4.197100 0.000000 0.000000 
#    y 0.000000 4.640370 0.000000 
#    z 0.000000 0.000000 3.619260 
# 
# 
# High freq. dielectric constant tensor:
#      x y z
#    x 1.864690 0.000000 0.000000 
#    y 0.000000 1.900420 0.000000 
#    z 0.000000 0.000000 1.812480 
# 
# From -- ./inp_files/51901.got.cif
#   From: 2010.03.12/outbox.cif.g09.slc.cpg/sg74_26_cif.got.tgz:51901.got - 2010.04.16 15:46:19.
