data_PCOD8300091
_publ_section_title
;
Structure prediction by ZEFSAII (Michael W. Deem and Ramdas Pophale) SiO2 
 PCOD8300091
Probable space group: I M M A
;
_chemical_formula_sum "Si O2"
_cell_formula_units_Z 120
_cell_length_a 8.817454
_cell_length_b 26.724947
_cell_length_c 27.733936
_cell_angle_alpha 90.000000
_cell_angle_beta 90.000000
_cell_angle_gamma 90.000000
_cell_volume 6535.390828
_symmetry_space_group_name_H-M "I M M A"
_symmetry_group_IT_number 74
_symmetry_cell_setting 'orthorhombic'
loop_
_space_group_symop_operation_xyz
x,y,z
-x,1/2-y,z
x,-y,-z
-x,1/2+y,-z
-x,-y,-z
x,1/2+y,-z
-x,y,z
x,1/2-y,z
1/2+x,1/2+y,1/2+z
1/2-x,-y,1/2+z
1/2+x,1/2-y,1/2-z
1/2-x,y,1/2-z
1/2-x,1/2-y,1/2-z
1/2+x,y,1/2-z
1/2-x,1/2+y,1/2+z
1/2+x,-y,1/2+z
loop_
_atom_site_type_symbol
_atom_site_label
_atom_site_fract_x
_atom_site_fract_y
_atom_site_fract_z
Si Si1 0.176404 0.848184 0.536104
Si Si2 0.678515 0.956601 0.200347
Si Si3 0.824004 0.447835 0.515281
Si Si4 0.825360 0.192701 0.941607
Si Si5 0.680750 0.606037 0.109361
Si Si6 0.820761 0.570815 0.699532
Si Si7 0.679114 0.845461 0.637277
Si Si8 0.321315 0.750000 0.697898
O O1 0.202196 0.907121 0.526443
O O2 0.234619 0.816206 0.491014
O O3 0.270014 0.833282 0.583133
O O4 0.000000 0.836029 0.544020
O O5 0.500000 0.953633 0.205371
O O6 0.750000 0.937514 0.250000
O O7 0.736727 0.919609 0.158589
O O8 0.728174 0.013586 0.188886
O O9 0.744077 0.500000 0.500000
O O10 0.756566 0.428381 0.565736
O O11 0.000000 0.457932 0.524300
O O12 0.807111 0.250000 0.926004
O O13 0.756236 0.160406 0.897466
O O14 0.000000 0.178194 0.950099
O O15 0.500000 0.612119 0.107381
O O16 0.750000 0.589280 0.750000
O O17 0.758231 0.604159 0.656049
O O18 0.000000 0.576938 0.702701
O O19 0.500000 0.852682 0.638925
O O20 0.733948 0.799139 0.669703
O O21 0.500000 0.750000 0.703227
O O22 0.250000 0.750000 0.750000
#
# Coordination Sequence:
#
# PCOD8300091 Si02
#       8
#    16  16  16  16  16  16  16   8
#     4  10  21  35  54  81 107 139 181 222 265 316
#     4   9  19  34  55  82 114 147 181 220 267 319
#     4   8  15  28  50  75 104 137 171 211 258 311
#     4  10  21  37  57  79 109 145 176 218 272 325
#     4   9  18  33  54  81 108 141 182 223 266 319
#     4  10  20  35  55  79 107 141 180 222 269 324
#     4  11  23  38  55  77 106 139 177 227 282 332
#     4  10  24  42  58  74  98 136 178 228 285 330
#
# _framework density 18.361564999999999
#
# number of rings (size 3 to 8) (size 9 to 14) (size 15 to 20)
#    0.000    2.400    0.000    2.800    2.800    4.267 
#    0.000    0.000    0.000    2.400    0.000    0.000 
#    0.000    0.000    0.000    0.000    0.000    0.000 
#
# Total GULP energy -744065.461821 kJ/mol
# GULP energy per Si atom -12401.091030 kJ/mol
# Density = 1.831977 g / cm^3
# Si number density = 18.361565 Si / 1000 Ang^3
#
#
#
# Elastic Constant Matrix: (Units=GPa)
#
#
# Indices 1 2 3 4 5 6 
#
# 1 54.4358 36.1108 31.9612 0.0000 0.0000 0.0000
# 2 36.1108 111.8614 59.8220 0.0000 0.0000 0.0000
# 3 31.9612 59.8220 121.2405 0.0000 0.0000 0.0000
# 4 0.0000 0.0000 0.0000 25.2490 0.0000 0.0000
# 5 0.0000 0.0000 0.0000 0.0000 31.9855 0.0000
# 6 0.0000 0.0000 0.0000 0.0000 0.0000 25.5378
#
#
#
# Elastic Compliance Matrix: (Units=1/GPa)
#
#
# Indices 1 2 3 4 5 6 
#
# 1 0.024399 -0.006027 -0.003458 0.000000 0.000000 0.000000
# 2 -0.006027 0.013633 -0.005138 0.000000 0.000000 0.000000
# 3 -0.003458 -0.005138 0.011695 0.000000 0.000000 0.000000
# 4 0.000000 0.000000 0.000000 0.039605 0.000000 0.000000
# 5 0.000000 0.000000 0.000000 0.000000 0.031264 0.000000
# 6 0.000000 0.000000 0.000000 0.000000 0.000000 0.039158
#
#
# Mechanical properties :
#
#
# Convention : Reuss Voigt Hill
#
# Bulk Modulus (GPa) = 48.82700 60.36950 54.59825
# Shear Modulus (GPa) = 25.53279 27.19737 26.36508
#
# Velocity S-wave (km/s) = 3.73306 3.85283 3.79342
# Velocity P-wave (km/s) = 6.72538 7.26236 6.99902
#
# Compressibility (1/GPa) = 0.02048047
#
# Stress axis : x y z
#
# Youngs Moduli (GPa) = 40.98576 73.35193 85.50798
#
# Poissons Ratio (x) = 0.44209 0.29570
# Poissons Ratio (y) = 0.24702 0.43933
# Poissons Ratio (z) = 0.14174 0.37687
#
# Static dielectric constant tensor:
#      x y z
#    x 3.271410 0.000000 0.000000 
#    y 0.000000 3.536820 0.000000 
#    z 0.000000 0.000000 3.355520 
# 
# 
# High freq. dielectric constant tensor:
#      x y z
#    x 1.703610 0.000000 0.000000 
#    y 0.000000 1.711920 0.000000 
#    z 0.000000 0.000000 1.705880 
# 
# From -- ./inp_files/65073.got.cif
#   From: 2010.03.12/outbox.cif.g09.slc.cpg/sg74_33_cif.got.tgz:65073.got - 2010.04.16 15:46:19.
