data_PCOD8300255
_publ_section_title
;
Structure prediction by ZEFSAII (Michael W. Deem and Ramdas Pophale) SiO2 
 PCOD8300255
Probable space group: I M M A
;
_chemical_formula_sum "Si O2"
_cell_formula_units_Z 112
_cell_length_a 18.141915
_cell_length_b 28.459850
_cell_length_c 12.191194
_cell_angle_alpha 90.000000
_cell_angle_beta 90.000000
_cell_angle_gamma 90.000000
_cell_volume 6294.510711
_symmetry_space_group_name_H-M "I M M A"
_symmetry_group_IT_number 74
_symmetry_cell_setting 'orthorhombic'
loop_
_space_group_symop_operation_xyz
x,y,z
-x,1/2-y,z
x,-y,-z
-x,1/2+y,-z
-x,-y,-z
x,1/2+y,-z
-x,y,z
x,1/2-y,z
1/2+x,1/2+y,1/2+z
1/2-x,-y,1/2+z
1/2+x,1/2-y,1/2-z
1/2-x,y,1/2-z
1/2-x,1/2-y,1/2-z
1/2+x,y,1/2-z
1/2-x,1/2+y,1/2+z
1/2+x,-y,1/2+z
loop_
_atom_site_type_symbol
_atom_site_label
_atom_site_fract_x
_atom_site_fract_y
_atom_site_fract_z
Si Si1 0.832352 0.127251 0.205868
Si Si2 0.583080 0.561556 0.401881
Si Si3 0.080509 0.304175 0.786742
Si Si4 0.675476 0.804971 0.084363
Si Si5 0.582308 0.960969 0.656669
Si Si6 0.585631 0.196420 0.135081
Si Si7 0.828600 0.851600 0.048582
O O1 0.750000 0.129451 0.250000
O O2 0.862144 0.073958 0.220040
O O3 0.883254 0.162788 0.271871
O O4 0.837404 0.143786 0.080901
O O5 0.500000 0.577438 0.367511
O O6 0.606540 0.515636 0.330452
O O7 0.581919 0.549976 0.529218
O O8 0.644090 0.602049 0.384261
O O9 0.069975 0.250000 0.763055
O O10 0.131995 0.324148 0.690025
O O11 0.000000 0.328618 0.783692
O O12 0.117698 0.310936 0.905988
O O13 0.698803 0.750000 0.094842
O O14 0.625290 0.813555 0.979111
O O15 0.745469 0.838785 0.077236
O O16 0.500000 0.953686 0.704735
O O17 0.500000 0.185883 0.117667
O O18 0.599231 0.250000 0.172980
#
# Coordination Sequence:
#
# PCOD8300255 Si02
#       7
#    16  16  16  16  16  16  16
#     4  11  21  34  50  80 115 145 179 219 269 322
#     4   8  15  29  50  77 104 132 169 215 267 317
#     4  10  21  36  54  76 101 134 179 229 276 323
#     4  10  20  36  54  74 104 142 184 228 272 322
#     4   8  15  30  52  73  99 136 175 215 258 310
#     4  10  21  36  54  75 104 149 196 228 260 317
#     4  11  20  32  53  79 110 140 171 221 283 327
#
# _framework density 17.793282000000001
#
# number of rings (size 3 to 8) (size 9 to 14) (size 15 to 20)
#    0.000    2.286    1.429    3.000    0.000    6.000 
#    0.000    2.857    0.000    0.000    0.000    0.000 
#    0.000    5.714    0.000    0.000    0.000    0.000 
#
# Total GULP energy -694055.372263 kJ/mol
# GULP energy per Si atom -12393.845933 kJ/mol
# Density = 1.775278 g / cm^3
# Si number density = 17.793282 Si / 1000 Ang^3
#
#
#
# Elastic Constant Matrix: (Units=GPa)
#
#
# Indices 1 2 3 4 5 6 
#
# 1 148.7659 71.9945 52.6592 -0.0002 -0.0002 -0.0001
# 2 71.9945 93.0554 42.6940 0.0000 0.0001 0.0001
# 3 52.6592 42.6940 84.3053 0.0008 -0.0003 0.0002
# 4 -0.0002 0.0000 0.0008 1.2480 -0.0004 0.0000
# 5 -0.0002 0.0001 -0.0003 -0.0004 20.1280 0.0000
# 6 -0.0001 0.0001 0.0002 0.0000 0.0000 32.5068
#
#
#
# Elastic Compliance Matrix: (Units=1/GPa)
#
#
# Indices 1 2 3 4 5 6 
#
# 1 0.011479 -0.007284 -0.003482 0.000004 0.000000 0.000000
# 2 -0.007284 0.018621 -0.004880 0.000002 0.000000 0.000000
# 3 -0.003482 -0.004880 0.016508 -0.000011 0.000000 0.000000
# 4 0.000004 0.000002 -0.000011 0.801312 0.000014 0.000001
# 5 0.000000 0.000000 0.000000 0.000014 0.049682 0.000000
# 6 0.000000 0.000000 0.000000 0.000001 0.000000 0.030763
#
#
# Mechanical properties :
#
#
# Convention : Reuss Voigt Hill
#
# Bulk Modulus (GPa) = 65.28929 73.42469 69.35699
# Shear Modulus (GPa) = 5.18263 21.36179 13.27221
#
# Velocity S-wave (km/s) = 1.70851 3.46866 2.73410
# Velocity P-wave (km/s) = 6.37690 7.57609 7.00221
#
# Compressibility (1/GPa) = 0.01531645
#
# Stress axis : x y z
#
# Youngs Moduli (GPa) = 87.11269 53.70355 60.57759
#
# Poissons Ratio (x) = 0.39117 0.21090
# Poissons Ratio (y) = 0.63452 0.29563
# Poissons Ratio (z) = 0.30329 0.26208
#
# Static dielectric constant tensor:
#      x y z
#    x 3.539560 0.000000 0.000000 
#    y 0.000000 3.577770 0.000000 
#    z 0.000000 0.000000 3.142800 
# 
# 
# High freq. dielectric constant tensor:
#      x y z
#    x 1.698170 0.000000 0.000000 
#    y 0.000000 1.684160 0.000000 
#    z 0.000000 0.000000 1.666500 
# 
# From -- ./inp_files/21130.got.cif
#   From: 2010.03.12/outbox.cif.g09.slc.cpg/sg74_11_cif.got.tgz:21130.got - 2010.04.16 15:46:19.
