data_PCOD8300377
_publ_section_title
;
Structure prediction by ZEFSAII (Michael W. Deem and Ramdas Pophale) SiO2 
 PCOD8300377
Probable space group: I M M A
;
_chemical_formula_sum "Si O2"
_cell_formula_units_Z 96
_cell_length_a 14.313929
_cell_length_b 22.019548
_cell_length_c 16.040639
_cell_angle_alpha 90.000000
_cell_angle_beta 90.000000
_cell_angle_gamma 90.000000
_cell_volume 5055.788801
_symmetry_space_group_name_H-M "I M M A"
_symmetry_group_IT_number 74
_symmetry_cell_setting 'orthorhombic'
loop_
_space_group_symop_operation_xyz
x,y,z
-x,1/2-y,z
x,-y,-z
-x,1/2+y,-z
-x,-y,-z
x,1/2+y,-z
-x,y,z
x,1/2-y,z
1/2+x,1/2+y,1/2+z
1/2-x,-y,1/2+z
1/2+x,1/2-y,1/2-z
1/2-x,y,1/2-z
1/2-x,1/2-y,1/2-z
1/2+x,y,1/2-z
1/2-x,1/2+y,1/2+z
1/2+x,-y,1/2+z
loop_
_atom_site_type_symbol
_atom_site_label
_atom_site_fract_x
_atom_site_fract_y
_atom_site_fract_z
Si Si1 0.898312 0.508528 0.903494
Si Si2 0.395605 0.750000 0.964666
Si Si3 0.390219 0.431925 0.155109
Si Si4 0.277103 0.250000 0.343808
Si Si5 0.106309 0.880617 0.475474
Si Si6 0.775502 0.553588 0.338357
Si Si7 0.391280 0.366960 0.322159
O O1 0.824857 0.458518 0.877291
O O2 0.862486 0.575502 0.878575
O O3 0.000000 0.497911 0.859796
O O4 0.911800 0.500000 0.000000
O O5 0.500000 0.750000 0.922820
O O6 0.318527 0.750000 0.894123
O O7 0.384742 0.808245 0.023374
O O8 0.500000 0.446200 0.157897
O O9 0.335097 0.492826 0.177490
O O10 0.364868 0.381118 0.224962
O O11 0.359653 0.408367 0.063895
O O12 0.250000 0.250000 0.250000
O O13 0.336662 0.310393 0.361620
O O14 0.169325 0.902222 0.399429
O O15 0.000000 0.901465 0.458970
O O16 0.750000 0.584911 0.250000
O O17 0.500000 0.351599 0.329458
#
# Coordination Sequence:
#
# PCOD8300377 Si02
#       7
#    16   8  16   8  16  16  16
#     4  10  22  38  57  79 116 160 196 236 287 343
#     4  10  24  43  61  84 118 153 196 249 300 350
#     4  10  20  36  59  87 125 156 189 240 292 346
#     4  12  25  33  60  84 121 163 203 231 282 341
#     4  10  22  40  62  88 115 153 194 241 299 354
#     4  12  23  34  60  88 119 147 192 241 298 349
#     4  10  22  39  57  86 123 161 202 241 283 342
#
# _framework density 18.988133999999999
#
# number of rings (size 3 to 8) (size 9 to 14) (size 15 to 20)
#    0.000    1.500    1.667    3.250    7.000    4.000 
#    0.000    0.417    0.000    0.000    0.000    0.000 
#    0.000    0.000    0.000    0.000    0.000    0.000 
#
# Total GULP energy -595137.007533 kJ/mol
# GULP energy per Si atom -12398.687657 kJ/mol
# Density = 1.894492 g / cm^3
# Si number density = 18.988134 Si / 1000 Ang^3
#
#
#
# Elastic Constant Matrix: (Units=GPa)
#
#
# Indices 1 2 3 4 5 6 
#
# 1 107.2095 54.2224 58.1796 0.0000 0.0000 0.0000
# 2 54.2224 92.2048 55.8637 0.0001 0.0000 0.0000
# 3 58.1796 55.8637 122.5764 0.0001 0.0000 0.0000
# 4 0.0000 0.0001 0.0001 25.5620 0.0000 0.0000
# 5 0.0000 0.0000 0.0000 0.0000 31.1616 0.0000
# 6 0.0000 0.0000 0.0000 0.0000 0.0000 31.1764
#
#
#
# Elastic Compliance Matrix: (Units=1/GPa)
#
#
# Indices 1 2 3 4 5 6 
#
# 1 0.014686 -0.006096 -0.004192 0.000000 0.000000 0.000000
# 2 -0.006096 0.017513 -0.005088 0.000000 0.000000 0.000000
# 3 -0.004192 -0.005088 0.012467 0.000000 0.000000 0.000000
# 4 0.000000 0.000000 0.000000 0.039121 0.000000 0.000000
# 5 0.000000 0.000000 0.000000 0.000000 0.032091 0.000000
# 6 0.000000 0.000000 0.000000 0.000000 0.000000 0.032076
#
#
# Mechanical properties :
#
#
# Convention : Reuss Voigt Hill
#
# Bulk Modulus (GPa) = 71.87607 73.16911 72.52259
# Shear Modulus (GPa) = 27.27135 27.82835 27.54985
#
# Velocity S-wave (km/s) = 3.79388 3.83242 3.81320
# Velocity P-wave (km/s) = 7.55822 7.62896 7.59367
#
# Compressibility (1/GPa) = 0.01391284
#
# Stress axis : x y z
#
# Youngs Moduli (GPa) = 68.09333 57.10017 80.21371
#
# Poissons Ratio (x) = 0.34810 0.33626
# Poissons Ratio (y) = 0.41512 0.40812
# Poissons Ratio (z) = 0.28545 0.29052
#
# Static dielectric constant tensor:
#      x y z
#    x 3.800050 0.000000 0.000000 
#    y 0.000000 3.931540 0.000000 
#    z 0.000000 0.000000 3.649810 
# 
# 
# High freq. dielectric constant tensor:
#      x y z
#    x 1.763390 0.000000 0.000000 
#    y 0.000000 1.717890 0.000000 
#    z 0.000000 0.000000 1.726750 
# 
# From -- ./inp_files/32428.got.cif
#   From: 2010.03.12/outbox.cif.g09.slc.cpg/sg74_17_cif.got.tgz:32428.got - 2010.04.16 15:46:19.
