data_PCOD8300224
_publ_section_title
;
Structure prediction by ZEFSAII (Michael W. Deem and Ramdas Pophale) SiO2 
 PCOD8300224
Probable space group: I M M A
;
_chemical_formula_sum "Si O2"
_cell_formula_units_Z 96
_cell_length_a 9.459992
_cell_length_b 22.493645
_cell_length_c 23.649887
_cell_angle_alpha 90.000000
_cell_angle_beta 90.000000
_cell_angle_gamma 90.000000
_cell_volume 5032.452401
_symmetry_space_group_name_H-M "I M M A"
_symmetry_group_IT_number 74
_symmetry_cell_setting 'orthorhombic'
loop_
_space_group_symop_operation_xyz
x,y,z
-x,1/2-y,z
x,-y,-z
-x,1/2+y,-z
-x,-y,-z
x,1/2+y,-z
-x,y,z
x,1/2-y,z
1/2+x,1/2+y,1/2+z
1/2-x,-y,1/2+z
1/2+x,1/2-y,1/2-z
1/2-x,y,1/2-z
1/2-x,1/2-y,1/2-z
1/2+x,y,1/2-z
1/2-x,1/2+y,1/2+z
1/2+x,-y,1/2+z
loop_
_atom_site_type_symbol
_atom_site_label
_atom_site_fract_x
_atom_site_fract_y
_atom_site_fract_z
Si Si1 0.263721 0.630507 0.616060
Si Si2 0.500000 0.679682 0.825082
Si Si3 0.339153 0.183879 0.008639
Si Si4 0.000000 0.818270 0.809022
Si Si5 0.833200 0.891328 0.399010
Si Si6 0.335694 0.180241 0.694123
Si Si7 0.165654 0.997367 0.933426
O O1 0.267281 0.672148 0.560404
O O2 0.369979 0.649075 0.663971
O O3 0.290060 0.564424 0.594248
O O4 0.122355 0.640224 0.649719
O O5 0.500000 0.750000 0.843415
O O6 0.500000 0.675107 0.757884
O O7 0.500000 0.176681 0.030863
O O8 0.312918 0.250000 0.984859
O O9 0.308757 0.137265 0.959918
O O10 0.000000 0.750000 0.826921
O O11 0.745533 0.852135 0.355712
O O12 0.000000 0.894094 0.383175
O O13 0.764030 0.956105 0.400468
O O14 0.500000 0.159794 0.698760
O O15 0.327574 0.250000 0.682288
O O16 0.250000 0.162749 0.750000
O O17 0.000000 0.010639 0.923032
O O18 0.200478 0.000000 0.000000
#
# Coordination Sequence:
#
# PCOD8300224 Si02
#       7
#    16   8  16   8  16  16  16
#     4  12  22  40  64  92 122 166 211 253 316 383
#     4  11  24  42  67  92 126 164 203 268 328 381
#     4  10  20  35  58  93 130 160 201 258 314 374
#     4  11  24  42  63  94 126 160 209 262 324 385
#     4  11  23  38  64  94 124 167 214 262 317 378
#     4  10  21  40  66  95 130 169 209 257 315 378
#     4  11  24  43  62  87 126 169 209 261 319 380
#
# _framework density 19.076187000000001
#
# number of rings (size 3 to 8) (size 9 to 14) (size 15 to 20)
#    0.000    1.167    3.333    3.500    1.167    3.333 
#    1.500    1.667    0.000    0.000    0.000    0.000 
#    0.000    0.000    0.000    0.000    0.000    0.000 
#
# Total GULP energy -594980.018137 kJ/mol
# GULP energy per Si atom -12395.417045 kJ/mol
# Density = 1.903277 g / cm^3
# Si number density = 19.076187 Si / 1000 Ang^3
#
#
#
# Elastic Constant Matrix: (Units=GPa)
#
#
# Indices 1 2 3 4 5 6 
#
# 1 142.5516 36.5626 51.6215 0.0000 0.0000 0.0000
# 2 36.5626 83.7833 31.5922 -0.0001 0.0000 0.0000
# 3 51.6215 31.5922 83.6693 0.0000 0.0000 0.0000
# 4 0.0000 -0.0001 0.0000 306.9654 0.0000 0.0000
# 5 0.0000 0.0000 0.0000 0.0000 23.8228 0.0000
# 6 0.0000 0.0000 0.0000 0.0000 0.0000 32.9190
#
#
#
# Elastic Compliance Matrix: (Units=1/GPa)
#
#
# Indices 1 2 3 4 5 6 
#
# 1 0.009377 -0.002228 -0.004944 0.000000 0.000000 0.000000
# 2 -0.002228 0.014446 -0.004080 0.000000 0.000000 0.000000
# 3 -0.004944 -0.004080 0.016543 0.000000 0.000000 0.000000
# 4 0.000000 0.000000 0.000000 0.003258 0.000000 0.000000
# 5 0.000000 0.000000 0.000000 0.000000 0.041977 0.000000
# 6 0.000000 0.000000 0.000000 0.000000 0.000000 0.030378
#
#
# Mechanical properties :
#
#
# Convention : Reuss Voigt Hill
#
# Bulk Modulus (GPa) = 55.98538 61.06184 58.52361
# Shear Modulus (GPa) = 34.61754 85.42330 60.02042
#
# Velocity S-wave (km/s) = 4.26455 6.69905 5.61532
# Velocity P-wave (km/s) = 7.32534 9.58725 8.53158
#
# Compressibility (1/GPa) = 0.01786181
#
# Stress axis : x y z
#
# Youngs Moduli (GPa) = 106.64694 69.22215 60.44944
#
# Poissons Ratio (x) = 0.15421 0.29886
# Poissons Ratio (y) = 0.23758 0.24665
# Poissons Ratio (z) = 0.52726 0.28244
#
# Static dielectric constant tensor:
#      x y z
#    x 3.621930 0.000000 0.000000 
#    y 0.000000 3.540190 0.000000 
#    z 0.000000 0.000000 3.624890 
# 
# 
# High freq. dielectric constant tensor:
#      x y z
#    x 1.753540 0.000000 0.000000 
#    y 0.000000 1.742460 0.000000 
#    z 0.000000 0.000000 1.749250 
# 
# From -- ./inp_files/57354.got.cif
#   From: 2010.03.12/outbox.cif.g09.slc.cpg/sg74_29_cif.got.tgz:57354.got - 2010.04.16 15:46:19.
