data_PCOD8300027
_publ_section_title
;
Structure prediction by ZEFSAII (Michael W. Deem and Ramdas Pophale) SiO2 
 PCOD8300027
Probable space group: I M M A
;
_chemical_formula_sum "Si O2"
_cell_formula_units_Z 64
_cell_length_a 30.592099
_cell_length_b 20.705023
_cell_length_c 5.216214
_cell_angle_alpha 90.000000
_cell_angle_beta 90.000000
_cell_angle_gamma 90.000000
_cell_volume 3304.002701
_symmetry_space_group_name_H-M "I M M A"
_symmetry_group_IT_number 74
_symmetry_cell_setting 'orthorhombic'
loop_
_space_group_symop_operation_xyz
x,y,z
-x,1/2-y,z
x,-y,-z
-x,1/2+y,-z
-x,-y,-z
x,1/2+y,-z
-x,y,z
x,1/2-y,z
1/2+x,1/2+y,1/2+z
1/2-x,-y,1/2+z
1/2+x,1/2-y,1/2-z
1/2-x,y,1/2-z
1/2-x,1/2-y,1/2-z
1/2+x,y,1/2-z
1/2-x,1/2+y,1/2+z
1/2+x,-y,1/2+z
loop_
_atom_site_type_symbol
_atom_site_label
_atom_site_fract_x
_atom_site_fract_y
_atom_site_fract_z
Si Si1 0.371430 0.369328 0.290922
Si Si2 0.166224 0.178818 0.695240
Si Si3 0.450305 0.541234 0.754853
Si Si4 0.790776 0.427627 0.413397
O O1 0.364072 0.334515 0.560413
O O2 0.420232 0.396409 0.276592
O O3 0.335000 0.426568 0.258874
O O4 0.365094 0.319564 0.055702
O O5 0.187948 0.250000 0.723894
O O6 0.202971 0.122519 0.653469
O O7 0.445358 0.500000 0.500000
O O8 0.500000 0.564929 0.794934
O O9 0.434582 0.500000 0.000000
O O10 0.780892 0.500000 0.500000
O O11 0.750000 0.401526 0.250000
#
# Coordination Sequence:
#
# PCOD8300027 Si02
#       4
#    16  16  16  16
#     4  10  22  37  62  83 121 159 197 249 307 353
#     4  10  23  41  61  86 118 164 208 246 298 364
#     4  10  20  34  58  92 126 157 199 252 308 370
#     4  10  25  37  62  92 122 156 199 256 308 365
#
# _framework density 19.370446000000001
#
# number of rings (size 3 to 8) (size 9 to 14) (size 15 to 20)
#    1.500    0.500    0.000    3.000    7.000    0.500 
#    0.000    1.250    0.000    4.500    0.000    0.000 
#    0.000    0.000    0.000    0.000    0.000    0.000 
#
# Total GULP energy -396524.591512 kJ/mol
# GULP energy per Si atom -12391.393485 kJ/mol
# Density = 1.932636 g / cm^3
# Si number density = 19.370446 Si / 1000 Ang^3
#
#
#
# Elastic Constant Matrix: (Units=GPa)
#
#
# Indices 1 2 3 4 5 6 
#
# 1 81.0731 28.9839 23.8570 0.0000 0.0000 0.0000
# 2 28.9839 106.8300 37.2989 0.0000 0.0000 0.0000
# 3 23.8570 37.2989 148.8126 0.0000 0.0000 0.0000
# 4 0.0000 0.0000 0.0000 13.9206 0.0000 0.0000
# 5 0.0000 0.0000 0.0000 0.0000 29.4001 0.0000
# 6 0.0000 0.0000 0.0000 0.0000 0.0000 3.2859
#
#
#
# Elastic Compliance Matrix: (Units=1/GPa)
#
#
# Indices 1 2 3 4 5 6 
#
# 1 0.013924 -0.003286 -0.001409 0.000000 0.000000 0.000000
# 2 -0.003286 0.011034 -0.002239 0.000000 0.000000 0.000000
# 3 -0.001409 -0.002239 0.007507 0.000000 0.000000 0.000000
# 4 0.000000 0.000000 0.000000 0.071836 0.000000 0.000000
# 5 0.000000 0.000000 0.000000 0.000000 0.034013 0.000000
# 6 0.000000 0.000000 0.000000 0.000000 0.000000 0.304327
#
#
# Mechanical properties :
#
#
# Convention : Reuss Voigt Hill
#
# Bulk Modulus (GPa) = 53.76949 57.44391 55.60670
# Shear Modulus (GPa) = 10.80598 25.75972 18.28285
#
# Velocity S-wave (km/s) = 2.36447 3.65066 3.07555
# Velocity P-wave (km/s) = 5.93911 6.89127 6.43283
#
# Compressibility (1/GPa) = 0.01859791
#
# Stress axis : x y z
#
# Youngs Moduli (GPa) = 71.81972 90.63063 133.21225
#
# Poissons Ratio (x) = 0.29780 0.18765
# Poissons Ratio (y) = 0.23599 0.29823
# Poissons Ratio (z) = 0.10117 0.20290
#
# Static dielectric constant tensor:
#      x y z
#    x 3.367440 0.000000 0.000000 
#    y 0.000000 3.224960 0.000000 
#    z 0.000000 0.000000 3.660460 
# 
# 
# High freq. dielectric constant tensor:
#      x y z
#    x 1.736600 0.000000 0.000000 
#    y 0.000000 1.729180 0.000000 
#    z 0.000000 0.000000 1.773050 
# 
# From -- ./inp_files/4342.got.cif
#   From: 2010.03.12/outbox.cif.g09.slc.cpg/sg74_3_cif.got.tgz:4342.got - 2010.04.16 15:46:19.
