data_PCOD8300296
_publ_section_title
;
Structure prediction by ZEFSAII (Michael W. Deem and Ramdas Pophale) SiO2 
 PCOD8300296
Probable space group: I M M A
;
_chemical_formula_sum "Si O2"
_cell_formula_units_Z 72
_cell_length_a 19.635662
_cell_length_b 9.234426
_cell_length_c 20.850276
_cell_angle_alpha 90.000000
_cell_angle_beta 90.000000
_cell_angle_gamma 90.000000
_cell_volume 3780.656857
_symmetry_space_group_name_H-M "I M M A"
_symmetry_group_IT_number 74
_symmetry_cell_setting 'orthorhombic'
loop_
_space_group_symop_operation_xyz
x,y,z
-x,1/2-y,z
x,-y,-z
-x,1/2+y,-z
-x,-y,-z
x,1/2+y,-z
-x,y,z
x,1/2-y,z
1/2+x,1/2+y,1/2+z
1/2-x,-y,1/2+z
1/2+x,1/2-y,1/2-z
1/2-x,y,1/2-z
1/2-x,1/2-y,1/2-z
1/2+x,y,1/2-z
1/2-x,1/2+y,1/2+z
1/2+x,-y,1/2+z
loop_
_atom_site_type_symbol
_atom_site_label
_atom_site_fract_x
_atom_site_fract_y
_atom_site_fract_z
Si Si1 0.000000 0.921707 0.254709
Si Si2 0.148116 0.581330 0.565064
Si Si3 0.245579 0.582151 0.678428
Si Si4 0.398092 0.916318 0.668525
Si Si5 0.000000 0.584891 0.616235
Si Si6 0.500000 0.087060 0.437480
O O1 0.000000 0.750000 0.248039
O O2 0.069481 0.984340 0.223829
O O3 0.000000 0.967293 0.328117
O O4 0.170960 0.500000 0.500000
O O5 0.166140 0.750000 0.556204
O O6 0.190106 0.518705 0.627546
O O7 0.067465 0.557414 0.574228
O O8 0.226750 0.750000 0.687453
O O9 0.250000 0.510577 0.750000
O O10 0.320298 0.553483 0.651073
O O11 0.410368 0.750000 0.690152
O O12 0.433655 0.953498 0.602313
O O13 0.000000 0.750000 0.643097
O O14 0.500000 0.250000 0.459452
O O15 0.500000 0.000000 0.500000
#
# Coordination Sequence:
#
# PCOD8300296 Si02
#       6
#     8  16  16  16   8   8
#     4  11  21  32  52  83 110 133 170 224 279 319
#     4  10  21  36  56  82 110 144 184 226 272 320
#     4   9  17  32  56  81 103 135 182 224 258 311
#     4   9  18  34  53  73 102 139 176 214 262 325
#     4  10  20  36  57  77 104 146 187 217 257 321
#     4   9  18  30  46  68  94 129 169 207 251 304
#
# _framework density 19.044308999999998
#
# number of rings (size 3 to 8) (size 9 to 14) (size 15 to 20)
#    0.000    2.444    0.000    3.333    0.000    7.111 
#    0.000    1.111    0.000    2.667    0.000    0.000 
#    0.000    0.000    0.000    0.000    0.000    0.000 
#
# Total GULP energy -446116.484065 kJ/mol
# GULP energy per Si atom -12392.124557 kJ/mol
# Density = 1.900096 g / cm^3
# Si number density = 19.044309 Si / 1000 Ang^3
#
#
#
# Elastic Constant Matrix: (Units=GPa)
#
#
# Indices 1 2 3 4 5 6 
#
# 1 121.8177 18.6921 59.2486 0.0000 0.0000 0.0000
# 2 18.6921 57.2654 45.6896 0.0000 0.0000 0.0000
# 3 59.2486 45.6896 152.7826 0.0000 0.0000 0.0000
# 4 0.0000 0.0000 0.0000 35.3900 0.0000 0.0000
# 5 0.0000 0.0000 0.0000 0.0000 16.4202 0.0000
# 6 0.0000 0.0000 0.0000 0.0000 0.0000 -4.1265
#
#
#
# Elastic Compliance Matrix: (Units=1/GPa)
#
#
# Indices 1 2 3 4 5 6 
#
# 1 0.010119 -0.000226 -0.003857 0.000000 0.000000 0.000000
# 2 -0.000226 0.022940 -0.006772 0.000000 0.000000 0.000000
# 3 -0.003857 -0.006772 0.010066 0.000000 0.000000 0.000000
# 4 0.000000 0.000000 0.000000 0.028257 0.000000 0.000000
# 5 0.000000 0.000000 0.000000 0.000000 0.060900 0.000000
# 6 0.000000 0.000000 0.000000 0.000000 0.000000 -0.242334
#
#
# Mechanical properties :
#
#
# Convention : Reuss Voigt Hill
#
# Bulk Modulus (GPa) = 46.69618 64.34735 55.52177
# Shear Modulus (GPa) = -61.57392 23.41909 -19.07741
#
# Velocity S-wave (km/s) = -5.69229 3.51054 -3.16846
# Velocity P-wave (km/s) = 4.31623 7.09178 3.97892
#
# Compressibility (1/GPa) = 0.02141503
#
# Stress axis : x y z
#
# Youngs Moduli (GPa) = 98.81955 43.59233 99.34254
#
# Poissons Ratio (x) = 0.00985 0.38313
# Poissons Ratio (y) = 0.02233 0.67280
# Poissons Ratio (z) = 0.38112 0.29523
#
# Static dielectric constant tensor:
#      x y z
#    x 3.558440 0.000000 0.000000 
#    y 0.000000 3.064630 0.000000 
#    z 0.000000 0.000000 3.469400 
# 
# 
# High freq. dielectric constant tensor:
#      x y z
#    x 1.751870 0.000000 0.000000 
#    y 0.000000 1.698690 0.000000 
#    z 0.000000 0.000000 1.743070 
# 
# From -- ./inp_files/53681.got.cif
#   From: 2010.03.12/outbox.cif.g09.slc.cpg/sg74_27_cif.got.tgz:53681.got - 2010.04.16 15:46:19.
