data_PCOD8300596
_publ_section_title
;
Structure prediction by ZEFSAII (Michael W. Deem and Ramdas Pophale) SiO2 
 PCOD8300596
Probable space group: I M M A
;
_chemical_formula_sum "Si O2"
_cell_formula_units_Z 68
_cell_length_a 29.982040
_cell_length_b 14.703259
_cell_length_c 8.149695
_cell_angle_alpha 90.000000
_cell_angle_beta 90.000000
_cell_angle_gamma 90.000000
_cell_volume 3592.660196
_symmetry_space_group_name_H-M "I M M A"
_symmetry_group_IT_number 74
_symmetry_cell_setting 'orthorhombic'
loop_
_space_group_symop_operation_xyz
x,y,z
-x,1/2-y,z
x,-y,-z
-x,1/2+y,-z
-x,-y,-z
x,1/2+y,-z
-x,y,z
x,1/2-y,z
1/2+x,1/2+y,1/2+z
1/2-x,-y,1/2+z
1/2+x,1/2-y,1/2-z
1/2-x,y,1/2-z
1/2-x,1/2-y,1/2-z
1/2+x,y,1/2-z
1/2-x,1/2+y,1/2+z
1/2+x,-y,1/2+z
loop_
_atom_site_type_symbol
_atom_site_label
_atom_site_fract_x
_atom_site_fract_y
_atom_site_fract_z
Si Si1 0.381888 0.750000 0.487126
Si Si2 0.350806 0.904205 0.065799
Si Si3 0.302175 0.750000 0.229621
Si Si4 0.899900 0.250000 0.363030
Si Si5 0.000000 0.435508 0.655756
Si Si6 0.586677 0.931987 0.356976
Si Si7 0.500000 0.250000 0.030874
O O1 0.333043 0.750000 0.395668
O O2 0.377138 0.750000 0.683798
O O3 0.413009 0.667882 0.432283
O O4 0.310747 0.839537 0.121023
O O5 0.376094 0.941431 0.221887
O O6 0.383953 0.843201 0.952202
O O7 0.331414 0.000000 0.000000
O O8 0.250000 0.750000 0.250000
O O9 0.954451 0.250000 0.359214
O O10 0.000000 0.500000 0.500000
O O11 0.040664 0.457983 0.773561
O O12 0.000000 0.333362 0.593240
O O13 0.599142 0.000000 0.500000
#
# Coordination Sequence:
#
# PCOD8300596 Si02
#       7
#     8  16   8   8   8  16   4
#     4  10  23  39  61  85 114 156 196 251 305 368
#     4  10  20  39  62  88 119 160 200 249 310 373
#     4   9  21  43  65  90 124 157 192 254 316 376
#     4  11  22  38  61  87 120 165 213 249 301 367
#     4  12  25  38  55  83 117 162 212 253 301 352
#     4  11  22  37  57  83 120 157 203 258 302 354
#     4  12  24  36  60  80 122 170 208 256 302 356
#
# _framework density 18.927479000000002
#
# number of rings (size 3 to 8) (size 9 to 14) (size 15 to 20)
#    0.000    1.412    2.353    3.882    3.294    0.941 
#    0.000    9.412    0.000    0.000    0.000    0.000 
#    0.000    0.000    0.000    0.000    0.000    0.000 
#
# Total GULP energy -421335.026982 kJ/mol
# GULP energy per Si atom -12392.206676 kJ/mol
# Density = 1.888440 g / cm^3
# Si number density = 18.927479 Si / 1000 Ang^3
#
#
#
# Elastic Constant Matrix: (Units=GPa)
#
#
# Indices 1 2 3 4 5 6 
#
# 1 125.7388 53.2956 49.5676 0.0000 0.0000 0.0000
# 2 53.2956 140.9357 62.6431 0.0000 0.0000 0.0000
# 3 49.5676 62.6431 135.6221 0.0000 0.0000 0.0000
# 4 0.0000 0.0000 0.0000 42.0405 0.0000 0.0000
# 5 0.0000 0.0000 0.0000 0.0000 234.6301 0.0000
# 6 0.0000 0.0000 0.0000 0.0000 0.0000 17.7862
#
#
#
# Elastic Compliance Matrix: (Units=1/GPa)
#
#
# Indices 1 2 3 4 5 6 
#
# 1 0.010063 -0.002731 -0.002416 0.000000 0.000000 0.000000
# 2 -0.002731 0.009670 -0.003468 0.000000 0.000000 0.000000
# 3 -0.002416 -0.003468 0.009858 0.000000 0.000000 0.000000
# 4 0.000000 0.000000 0.000000 0.023787 0.000000 0.000000
# 5 0.000000 0.000000 0.000000 0.000000 0.004262 0.000000
# 6 0.000000 0.000000 0.000000 0.000000 0.000000 0.056223
#
#
# Mechanical properties :
#
#
# Convention : Reuss Voigt Hill
#
# Bulk Modulus (GPa) = 80.90775 81.47879 81.19327
# Shear Modulus (GPa) = 36.97798 74.67735 55.82767
#
# Velocity S-wave (km/s) = 4.42483 6.28809 5.43687
# Velocity P-wave (km/s) = 8.30328 9.79089 9.07761
#
# Compressibility (1/GPa) = 0.01235976
#
# Stress axis : x y z
#
# Youngs Moduli (GPa) = 99.37095 103.41381 101.43560
#
# Poissons Ratio (x) = 0.28247 0.24510
# Poissons Ratio (y) = 0.27143 0.35179
# Poissons Ratio (z) = 0.24011 0.35865
#
# Static dielectric constant tensor:
#      x y z
#    x 3.116780 0.000000 0.000000 
#    y 0.000000 3.810100 0.000000 
#    z 0.000000 0.000000 3.855920 
# 
# 
# High freq. dielectric constant tensor:
#      x y z
#    x 1.706220 0.000000 0.000000 
#    y 0.000000 1.759420 0.000000 
#    z 0.000000 0.000000 1.745400 
# 
# From -- ./inp_files/9104.got.cif
#   From: 2010.03.12/outbox.cif.g09.slc.cpg/sg74_5_cif.got.tgz:9104.got - 2010.04.16 15:46:19.
