data_PCOD8300525
_publ_section_title
;
Structure prediction by ZEFSAII (Michael W. Deem and Ramdas Pophale) SiO2 
 PCOD8300525
Probable space group: I M M A
;
_chemical_formula_sum "Si O2"
_cell_formula_units_Z 112
_cell_length_a 15.274440
_cell_length_b 29.039344
_cell_length_c 12.605173
_cell_angle_alpha 90.000000
_cell_angle_beta 90.000000
_cell_angle_gamma 90.000000
_cell_volume 5591.146976
_symmetry_space_group_name_H-M "I M M A"
_symmetry_group_IT_number 74
_symmetry_cell_setting 'orthorhombic'
loop_
_space_group_symop_operation_xyz
x,y,z
-x,1/2-y,z
x,-y,-z
-x,1/2+y,-z
-x,-y,-z
x,1/2+y,-z
-x,y,z
x,1/2-y,z
1/2+x,1/2+y,1/2+z
1/2-x,-y,1/2+z
1/2+x,1/2-y,1/2-z
1/2-x,y,1/2-z
1/2-x,1/2-y,1/2-z
1/2+x,y,1/2-z
1/2-x,1/2+y,1/2+z
1/2+x,-y,1/2+z
loop_
_atom_site_type_symbol
_atom_site_label
_atom_site_fract_x
_atom_site_fract_y
_atom_site_fract_z
Si Si1 0.264925 0.198272 0.131626
Si Si2 0.898797 0.900304 0.053906
Si Si3 0.599647 0.072590 0.324322
Si Si4 0.100064 0.954337 0.452873
Si Si5 0.152762 0.971731 0.222789
Si Si6 0.099001 0.199283 0.987738
Si Si7 0.104464 0.621236 0.610345
O O1 0.300262 0.250000 0.122958
O O2 0.250000 0.182032 0.250000
O O3 0.343097 0.167735 0.084628
O O4 0.169776 0.193704 0.079245
O O5 0.844759 0.931882 0.134487
O O6 0.888699 0.845950 0.087015
O O7 0.000000 0.915894 0.060230
O O8 0.859207 0.908807 0.935106
O O9 0.500000 0.087702 0.327689
O O10 0.638820 0.097049 0.219399
O O11 0.604628 0.017280 0.318020
O O12 0.106871 0.950673 0.326507
O O13 0.137900 0.910062 0.512488
O O14 0.000000 0.956733 0.488738
O O15 0.147679 0.000000 0.500000
O O16 0.250000 0.986956 0.250000
O O17 0.111156 0.250000 0.930860
O O18 0.000000 0.196901 0.036029
O O19 0.000000 0.630587 0.610832
#
# Coordination Sequence:
#
# PCOD8300525 Si02
#       7
#    16  16  16  16  16  16  16
#     4  10  21  35  55  85 120 154 187 237 293 345
#     4  10  21  37  60  84 110 145 188 243 293 337
#     4  10  20  38  58  80 113 153 192 233 287 338
#     4  10  20  39  60  76 108 157 201 233 274 343
#     4  12  25  35  52  83 118 150 192 238 286 338
#     4   9  19  37  60  83 110 148 190 237 298 356
#     4  10  21  37  61  86 114 159 200 235 283 343
#
# _framework density 20.031668
#
# number of rings (size 3 to 8) (size 9 to 14) (size 15 to 20)
#    0.000    1.857    1.429    2.571    2.000    6.000 
#    0.000    1.429    0.000    1.286    0.000    2.000 
#    0.000    0.000    0.000    0.000    0.000    0.000 
#
# Total GULP energy -693965.497749 kJ/mol
# GULP energy per Si atom -12392.241031 kJ/mol
# Density = 1.998608 g / cm^3
# Si number density = 20.031668 Si / 1000 Ang^3
#
#
#
# Elastic Constant Matrix: (Units=GPa)
#
#
# Indices 1 2 3 4 5 6 
#
# 1 51.5082 31.8880 4.3438 0.0004 0.0002 0.0001
# 2 31.8880 144.7582 43.2225 0.0002 -0.0003 0.0000
# 3 4.3438 43.2225 83.2876 0.0004 -0.0014 0.0001
# 4 0.0004 0.0002 0.0004 26.3881 -0.0007 -0.0001
# 5 0.0002 -0.0003 -0.0014 -0.0007 11.4941 0.0000
# 6 0.0001 0.0000 0.0001 -0.0001 0.0000 29.3203
#
#
#
# Elastic Compliance Matrix: (Units=1/GPa)
#
#
# Indices 1 2 3 4 5 6 
#
# 1 0.022674 -0.005493 0.001668 0.000000 0.000000 0.000000
# 2 -0.005493 0.009505 -0.004646 0.000000 0.000000 0.000000
# 3 0.001668 -0.004646 0.014331 0.000000 0.000002 0.000000
# 4 0.000000 0.000000 0.000000 0.037896 0.000002 0.000000
# 5 0.000000 0.000000 0.000002 0.000002 0.087001 0.000000
# 6 0.000000 0.000000 0.000000 0.000000 0.000000 0.034106
#
#
# Mechanical properties :
#
#
# Convention : Reuss Voigt Hill
#
# Bulk Modulus (GPa) = 33.82033 48.71806 41.26920
# Shear Modulus (GPa) = 21.52276 26.78047 24.15162
#
# Velocity S-wave (km/s) = 3.28142 3.66034 3.47605
# Velocity P-wave (km/s) = 5.59258 6.49903 6.06277
#
# Compressibility (1/GPa) = 0.02956801
#
# Stress axis : x y z
#
# Youngs Moduli (GPa) = 44.10288 105.20342 69.77945
#
# Poissons Ratio (x) = 0.57786 -0.11639
# Poissons Ratio (y) = 0.24225 0.32422
# Poissons Ratio (z) = -0.07356 0.48882
#
# Static dielectric constant tensor:
#      x y z
#    x 3.540990 0.000000 0.000000 
#    y 0.000000 3.909020 0.000000 
#    z 0.000000 0.000000 3.487560 
# 
# 
# High freq. dielectric constant tensor:
#      x y z
#    x 1.777470 0.000000 0.000000 
#    y 0.000000 1.793980 0.000000 
#    z 0.000000 0.000000 1.749930 
# 
# From -- ./inp_files/21121.got.cif
#   From: 2010.03.12/outbox.cif.g09.slc.cpg/sg74_11_cif.got.tgz:21121.got - 2010.04.16 15:46:19.
