data_PCOD8300824
_publ_section_title
;
Structure prediction by ZEFSAII (Michael W. Deem and Ramdas Pophale) SiO2 
 PCOD8300824
Probable space group: I M M A
;
_chemical_formula_sum "Si O2"
_cell_formula_units_Z 56
_cell_length_a 9.563102
_cell_length_b 22.287887
_cell_length_c 14.373764
_cell_angle_alpha 90.000000
_cell_angle_beta 90.000000
_cell_angle_gamma 90.000000
_cell_volume 3063.643273
_symmetry_space_group_name_H-M "I M M A"
_symmetry_group_IT_number 74
_symmetry_cell_setting 'orthorhombic'
loop_
_space_group_symop_operation_xyz
x,y,z
-x,1/2-y,z
x,-y,-z
-x,1/2+y,-z
-x,-y,-z
x,1/2+y,-z
-x,y,z
x,1/2-y,z
1/2+x,1/2+y,1/2+z
1/2-x,-y,1/2+z
1/2+x,1/2-y,1/2-z
1/2-x,y,1/2-z
1/2-x,1/2-y,1/2-z
1/2+x,y,1/2-z
1/2-x,1/2+y,1/2+z
1/2+x,-y,1/2+z
loop_
_atom_site_type_symbol
_atom_site_label
_atom_site_fract_x
_atom_site_fract_y
_atom_site_fract_z
Si Si1 0.343424 0.889434 0.672370
Si Si2 0.500000 0.181397 0.464744
Si Si3 0.837061 0.999694 0.390609
Si Si4 0.500000 0.179805 0.682517
Si Si5 0.750000 0.600937 0.250000
O O1 0.500000 0.905006 0.710471
O O2 0.250000 0.854561 0.750000
O O3 0.360024 0.848532 0.580094
O O4 0.260105 0.949950 0.653122
O O5 0.500000 0.250000 0.435880
O O6 0.500000 0.170706 0.572745
O O7 0.793060 0.937998 0.340273
O O8 0.000000 0.012961 0.372145
O O9 0.804748 0.000000 0.500000
O O10 0.500000 0.250000 0.709715
O O11 0.369531 0.146684 0.724454
#
# Coordination Sequence:
#
# PCOD8300824 Si02
#       5
#    16   8  16   8   8
#     4  10  21  36  58  87 121 155 196 252 298 360
#     4   9  22  41  63  87 116 163 210 249 303 359
#     4  11  23  38  59  92 125 156 199 252 309 366
#     4  11  24  43  64  87 119 159 209 255 293 359
#     4  12  23  40  62  94 117 164 198 242 314 360
#
# _framework density 18.278891000000002
#
# number of rings (size 3 to 8) (size 9 to 14) (size 15 to 20)
#    0.857    0.571    2.857    3.000    2.000    1.143 
#    0.000    0.000    0.000    0.000    0.000    0.000 
#    0.000    0.000    0.000    0.000    0.000    0.000 
#
# Total GULP energy -346951.347820 kJ/mol
# GULP energy per Si atom -12391.119565 kJ/mol
# Density = 1.823729 g / cm^3
# Si number density = 18.278891 Si / 1000 Ang^3
#
#
#
# Elastic Constant Matrix: (Units=GPa)
#
#
# Indices 1 2 3 4 5 6 
#
# 1 151.6519 65.0765 59.2316 0.0000 0.0000 0.0000
# 2 65.0765 134.0970 74.0531 0.0000 0.0000 0.0000
# 3 59.2316 74.0531 116.8737 -0.0001 -0.0001 0.0000
# 4 0.0000 0.0000 -0.0001 34.0605 0.0000 0.0000
# 5 0.0000 0.0000 -0.0001 0.0000 65.3784 0.0000
# 6 0.0000 0.0000 0.0000 0.0000 0.0000 27.3852
#
#
#
# Elastic Compliance Matrix: (Units=1/GPa)
#
#
# Indices 1 2 3 4 5 6 
#
# 1 0.008855 -0.002798 -0.002715 0.000000 0.000000 0.000000
# 2 -0.002798 0.012355 -0.006410 0.000000 0.000000 0.000000
# 3 -0.002715 -0.006410 0.013994 0.000000 0.000000 0.000000
# 4 0.000000 0.000000 0.000000 0.029360 0.000000 0.000000
# 5 0.000000 0.000000 0.000000 0.000000 0.015296 0.000000
# 6 0.000000 0.000000 0.000000 0.000000 0.000000 0.036516
#
#
# Mechanical properties :
#
#
# Convention : Reuss Voigt Hill
#
# Bulk Modulus (GPa) = 88.04743 88.81609 88.43176
# Shear Modulus (GPa) = 34.72031 38.98225 36.85128
#
# Velocity S-wave (km/s) = 4.36303 4.62306 4.49492
# Velocity P-wave (km/s) = 8.58224 8.78589 8.68466
#
# Compressibility (1/GPa) = 0.01135752
#
# Stress axis : x y z
#
# Youngs Moduli (GPa) = 112.92905 80.93727 71.45983
#
# Poissons Ratio (x) = 0.22647 0.19400
# Poissons Ratio (y) = 0.31599 0.45809
# Poissons Ratio (z) = 0.30659 0.51884
#
# Static dielectric constant tensor:
#      x y z
#    x 3.419940 0.000000 0.000000 
#    y 0.000000 3.301270 0.000000 
#    z 0.000000 0.000000 3.798060 
# 
# 
# High freq. dielectric constant tensor:
#      x y z
#    x 1.716430 0.000000 0.000000 
#    y 0.000000 1.700530 0.000000 
#    z 0.000000 0.000000 1.723780 
# 
# From -- ./inp_files/28744.got.cif
#   From: 2010.03.12/outbox.cif.g09.slc.cpg/sg74_15_cif.got.tgz:28744.got - 2010.04.16 15:46:19.
