data_PCOD8300434
_publ_section_title
;
Structure prediction by ZEFSAII (Michael W. Deem and Ramdas Pophale) SiO2 
 PCOD8300434
Probable space group: I M M A
;
_chemical_formula_sum "Si O2"
_cell_formula_units_Z 104
_cell_length_a 8.802520
_cell_length_b 26.003805
_cell_length_c 23.740067
_cell_angle_alpha 90.000000
_cell_angle_beta 90.000000
_cell_angle_gamma 90.000000
_cell_volume 5434.077919
_symmetry_space_group_name_H-M "I M M A"
_symmetry_group_IT_number 74
_symmetry_cell_setting 'orthorhombic'
loop_
_space_group_symop_operation_xyz
x,y,z
-x,1/2-y,z
x,-y,-z
-x,1/2+y,-z
-x,-y,-z
x,1/2+y,-z
-x,y,z
x,1/2-y,z
1/2+x,1/2+y,1/2+z
1/2-x,-y,1/2+z
1/2+x,1/2-y,1/2-z
1/2-x,y,1/2-z
1/2-x,1/2-y,1/2-z
1/2+x,y,1/2-z
1/2-x,1/2+y,1/2+z
1/2+x,-y,1/2+z
loop_
_atom_site_type_symbol
_atom_site_label
_atom_site_fract_x
_atom_site_fract_y
_atom_site_fract_z
Si Si1 0.678072 0.574789 0.093174
Si Si2 0.678332 0.309456 0.390283
Si Si3 0.820107 0.391951 0.311515
Si Si4 0.674443 0.250000 0.690646
Si Si5 0.673605 0.033080 0.396783
Si Si6 0.320815 0.360841 0.688340
Si Si7 0.828679 0.380706 0.010870
O O1 0.500000 0.567581 0.096610
O O2 0.754419 0.519985 0.083153
O O3 0.738969 0.596567 0.151605
O O4 0.718693 0.613479 0.042345
O O5 0.500000 0.318547 0.379002
O O6 0.724457 0.250000 0.387386
O O7 0.769967 0.339680 0.342589
O O8 0.720083 0.330967 0.452382
O O9 0.750000 0.392347 0.250000
O O10 0.763664 0.442446 0.344486
O O11 0.000000 0.393395 0.307275
O O12 0.500000 0.250000 0.705500
O O13 0.750000 0.250000 0.750000
O O14 0.714240 0.195843 0.659995
O O15 0.500000 0.024824 0.377921
O O16 0.684477 0.069443 0.450462
O O17 0.500000 0.372048 0.691014
O O18 0.250000 0.364139 0.750000
O O19 0.000000 0.374163 0.987937
#
# Coordination Sequence:
#
# PCOD8300434 Si02
#       7
#    16  16  16   8  16  16  16
#     4  12  24  36  54  84 116 148 187 229 277 334
#     4   9  19  38  62  86 115 153 195 240 290 341
#     4  11  22  37  58  86 119 154 193 236 285 343
#     4   8  16  32  56  78  98 132 172 212 259 314
#     4  10  21  39  61  82 109 146 188 234 284 336
#     4  10  20  37  58  81 109 141 180 225 276 329
#     4   9  19  37  59  82 110 146 188 232 282 335
#
# _framework density 19.138480999999999
#
# number of rings (size 3 to 8) (size 9 to 14) (size 15 to 20)
#    0.000    2.000    0.000    5.077    0.000    6.769 
#    1.385    3.077    0.000    0.000    0.000    0.000 
#    0.000    0.000    0.000    0.000    0.000    0.000 
#
# Total GULP energy -644717.569281 kJ/mol
# GULP energy per Si atom -12398.414794 kJ/mol
# Density = 1.909492 g / cm^3
# Si number density = 19.138481 Si / 1000 Ang^3
#
#
#
# Elastic Constant Matrix: (Units=GPa)
#
#
# Indices 1 2 3 4 5 6 
#
# 1 112.6695 27.5652 42.7505 0.0000 0.0000 0.0000
# 2 27.5652 50.1503 24.0734 0.0000 0.0000 0.0000
# 3 42.7505 24.0734 93.6956 0.0001 0.0000 0.0000
# 4 0.0000 0.0000 0.0001 16.0156 0.0000 0.0000
# 5 0.0000 0.0000 0.0000 0.0000 33.8335 0.0000
# 6 0.0000 0.0000 0.0000 0.0000 0.0000 23.9060
#
#
#
# Elastic Compliance Matrix: (Units=1/GPa)
#
#
# Indices 1 2 3 4 5 6 
#
# 1 0.011506 -0.004339 -0.004135 0.000000 0.000000 0.000000
# 2 -0.004339 0.024382 -0.004285 0.000000 0.000000 0.000000
# 3 -0.004135 -0.004285 0.013660 0.000000 0.000000 0.000000
# 4 0.000000 0.000000 0.000000 0.062439 0.000000 0.000000
# 5 0.000000 0.000000 0.000000 0.000000 0.029557 0.000000
# 6 0.000000 0.000000 0.000000 0.000000 0.000000 0.041830
#
#
# Mechanical properties :
#
#
# Convention : Reuss Voigt Hill
#
# Bulk Modulus (GPa) = 41.61381 49.47708 45.54544
# Shear Modulus (GPa) = 23.05184 25.55945 24.30564
#
# Velocity S-wave (km/s) = 3.47432 3.65841 3.56756
# Velocity P-wave (km/s) = 6.15510 6.61465 6.38901
#
# Compressibility (1/GPa) = 0.02403049
#
# Stress axis : x y z
#
# Youngs Moduli (GPa) = 86.91011 41.01400 73.20454
#
# Poissons Ratio (x) = 0.17798 0.30270
# Poissons Ratio (y) = 0.37715 0.31365
# Poissons Ratio (z) = 0.35937 0.17573
#
# Static dielectric constant tensor:
#      x y z
#    x 3.554240 0.000000 0.000000 
#    y 0.000000 3.846500 0.000000 
#    z 0.000000 0.000000 3.357390 
# 
# 
# High freq. dielectric constant tensor:
#      x y z
#    x 1.749440 0.000000 0.000000 
#    y 0.000000 1.751710 0.000000 
#    z 0.000000 0.000000 1.735510 
# 
# From -- ./inp_files/49281.got.cif
#   From: 2010.03.12/outbox.cif.g09.slc.cpg/sg74_25_cif.got.tgz:49281.got - 2010.04.16 15:46:19.
