data_PCOD8300870
_publ_section_title
;
Structure prediction by ZEFSAII (Michael W. Deem and Ramdas Pophale) SiO2 
 PCOD8300870
Probable space group: I M M A
;
_chemical_formula_sum "Si O2"
_cell_formula_units_Z 104
_cell_length_a 9.176685
_cell_length_b 21.476677
_cell_length_c 27.031607
_cell_angle_alpha 90.000000
_cell_angle_beta 90.000000
_cell_angle_gamma 90.000000
_cell_volume 5327.516147
_symmetry_space_group_name_H-M "I M M A"
_symmetry_group_IT_number 74
_symmetry_cell_setting 'orthorhombic'
loop_
_space_group_symop_operation_xyz
x,y,z
-x,1/2-y,z
x,-y,-z
-x,1/2+y,-z
-x,-y,-z
x,1/2+y,-z
-x,y,z
x,1/2-y,z
1/2+x,1/2+y,1/2+z
1/2-x,-y,1/2+z
1/2+x,1/2-y,1/2-z
1/2-x,y,1/2-z
1/2-x,1/2-y,1/2-z
1/2+x,y,1/2-z
1/2-x,1/2+y,1/2+z
1/2+x,-y,1/2+z
loop_
_atom_site_type_symbol
_atom_site_label
_atom_site_fract_x
_atom_site_fract_y
_atom_site_fract_z
Si Si1 0.668418 0.177830 0.964157
Si Si2 0.329948 0.427134 0.367007
Si Si3 0.330409 0.320000 0.298050
Si Si4 0.665167 0.535893 0.299153
Si Si5 0.830173 0.560033 0.530986
Si Si6 0.327541 0.250000 0.801747
Si Si7 0.667548 0.152244 0.635014
O O1 0.500000 0.171124 0.947134
O O2 0.697915 0.250000 0.980974
O O3 0.776959 0.158596 0.920646
O O4 0.704012 0.127561 0.006804
O O5 0.500000 0.437152 0.378101
O O6 0.293381 0.357928 0.347835
O O7 0.278497 0.471154 0.321764
O O8 0.245187 0.442303 0.416358
O O9 0.500000 0.323863 0.285921
O O10 0.277222 0.250000 0.308600
O O11 0.250000 0.347656 0.250000
O O12 0.500000 0.531115 0.281246
O O13 0.750000 0.556471 0.250000
O O14 0.680949 0.582669 0.345202
O O15 0.772578 0.500000 0.500000
O O16 0.000000 0.551877 0.540017
O O17 0.500000 0.250000 0.794595
O O18 0.250000 0.250000 0.750000
O O19 0.277189 0.309903 0.831109
O O20 0.500000 0.176133 0.638006
#
# Coordination Sequence:
#
# PCOD8300870 Si02
#       7
#    16  16  16  16  16   8  16
#     4  10  21  38  59  83 112 148 189 236 288 338
#     4  10  21  37  56  81 113 146 184 233 285 336
#     4   9  18  33  54  81 113 148 185 225 272 331
#     4  10  22  37  55  82 114 148 187 232 280 335
#     4  10  22  39  58  82 111 145 189 237 286 341
#     4  12  24  38  56  80 112 148 186 230 277 326
#     4  11  22  37  57  83 112 145 189 232 277 336
#
# _framework density 19.521291999999999
#
# number of rings (size 3 to 8) (size 9 to 14) (size 15 to 20)
#    0.000    1.846    0.769    3.000    0.000    5.231 
#    0.000    0.000    0.000    0.000    0.000    0.000 
#    0.000    0.000    0.000    0.000    0.000    0.000 
#
# Total GULP energy -644674.934905 kJ/mol
# GULP energy per Si atom -12397.594902 kJ/mol
# Density = 1.947686 g / cm^3
# Si number density = 19.521292 Si / 1000 Ang^3
#
#
#
# Elastic Constant Matrix: (Units=GPa)
#
#
# Indices 1 2 3 4 5 6 
#
# 1 79.4149 34.0515 46.9476 0.0000 0.0000 0.0000
# 2 34.0515 110.8063 45.9057 0.0000 0.0000 0.0000
# 3 46.9476 45.9057 104.9412 0.0000 0.0000 0.0000
# 4 0.0000 0.0000 0.0000 28.1696 0.0000 0.0000
# 5 0.0000 0.0000 0.0000 0.0000 40.0532 0.0000
# 6 0.0000 0.0000 0.0000 0.0000 0.0000 29.6402
#
#
#
# Elastic Compliance Matrix: (Units=1/GPa)
#
#
# Indices 1 2 3 4 5 6 
#
# 1 0.017731 -0.002641 -0.006777 0.000000 0.000000 0.000000
# 2 -0.002641 0.011416 -0.003812 0.000000 0.000000 0.000000
# 3 -0.006777 -0.003812 0.014229 0.000000 0.000000 0.000000
# 4 0.000000 0.000000 0.000000 0.035499 0.000000 0.000000
# 5 0.000000 0.000000 0.000000 0.000000 0.024967 0.000000
# 6 0.000000 0.000000 0.000000 0.000000 0.000000 0.033738
#
#
# Mechanical properties :
#
#
# Convention : Reuss Voigt Hill
#
# Bulk Modulus (GPa) = 59.12033 60.99689 60.05861
# Shear Modulus (GPa) = 29.46761 30.78978 30.12870
#
# Velocity S-wave (km/s) = 3.88946 3.97576 3.93284
# Velocity P-wave (km/s) = 7.10783 7.23807 7.17325
#
# Compressibility (1/GPa) = 0.01691465
#
# Stress axis : x y z
#
# Youngs Moduli (GPa) = 56.39877 87.59839 70.28143
#
# Poissons Ratio (x) = 0.23137 0.47629
# Poissons Ratio (y) = 0.14896 0.26792
# Poissons Ratio (z) = 0.38221 0.33393
#
# Static dielectric constant tensor:
#      x y z
#    x 3.526540 0.000000 0.000000 
#    y 0.000000 3.918560 0.000000 
#    z 0.000000 0.000000 5.690370 
# 
# 
# High freq. dielectric constant tensor:
#      x y z
#    x 1.756200 0.000000 0.000000 
#    y 0.000000 1.777140 0.000000 
#    z 0.000000 0.000000 1.754870 
# 
# From -- ./inp_files/64421.got.cif
#   From: 2010.03.12/outbox.cif.g09.slc.cpg/sg74_33_cif.got.tgz:64421.got - 2010.04.16 15:46:19.
