data_PCOD8300348
_publ_section_title
;
Structure prediction by ZEFSAII (Michael W. Deem and Ramdas Pophale) SiO2 
 PCOD8300348
Probable space group: I M M A
;
_chemical_formula_sum "Si O2"
_cell_formula_units_Z 72
_cell_length_a 15.473121
_cell_length_b 8.557390
_cell_length_c 26.718562
_cell_angle_alpha 90.000000
_cell_angle_beta 90.000000
_cell_angle_gamma 90.000000
_cell_volume 3537.792261
_symmetry_space_group_name_H-M "I M M A"
_symmetry_group_IT_number 74
_symmetry_cell_setting 'orthorhombic'
loop_
_space_group_symop_operation_xyz
x,y,z
-x,1/2-y,z
x,-y,-z
-x,1/2+y,-z
-x,-y,-z
x,1/2+y,-z
-x,y,z
x,1/2-y,z
1/2+x,1/2+y,1/2+z
1/2-x,-y,1/2+z
1/2+x,1/2-y,1/2-z
1/2-x,y,1/2-z
1/2-x,1/2-y,1/2-z
1/2+x,y,1/2-z
1/2-x,1/2+y,1/2+z
1/2+x,-y,1/2+z
loop_
_atom_site_type_symbol
_atom_site_label
_atom_site_fract_x
_atom_site_fract_y
_atom_site_fract_z
Si Si1 0.000000 0.563531 0.210191
Si Si2 0.332000 0.435344 0.886126
Si Si3 0.500000 0.064604 0.596493
Si Si4 0.838432 0.564317 0.272298
Si Si5 0.500000 0.434811 0.944960
Si Si6 0.824422 0.565696 0.946498
O O1 0.000000 0.500980 0.153410
O O2 0.916504 0.496715 0.239044
O O3 0.000000 0.750000 0.210754
O O4 0.319167 0.250000 0.890224
O O5 0.348442 0.489417 0.829416
O O6 0.414471 0.495633 0.917114
O O7 0.245856 0.517669 0.905476
O O8 0.500000 0.250000 0.595582
O O9 0.416541 0.004275 0.567748
O O10 0.838564 0.750000 0.269026
O O11 0.750000 0.495311 0.250000
O O12 0.500000 0.250000 0.945858
O O13 0.500000 0.500000 0.000000
O O14 0.831914 0.750000 0.949584
O O15 0.794306 0.500000 0.000000
#
# Coordination Sequence:
#
# PCOD8300348 Si02
#       6
#     8  16   8  16   8  16
#     4   9  17  30  54  87 116 146 187 234 280 328
#     4  10  20  36  58  86 118 151 189 235 286 336
#     4  11  22  39  63  89 117 150 191 238 288 341
#     4   9  16  28  50  81 113 143 180 227 275 325
#     4  10  21  35  54  80 111 146 185 232 280 329
#     4  12  25  41  60  84 115 151 193 239 290 347
#
# _framework density 20.351673999999999
#
# number of rings (size 3 to 8) (size 9 to 14) (size 15 to 20)
#    0.000    1.778    0.000    5.333    0.000    8.889 
#    0.000    0.000    0.000    7.333    0.000    0.000 
#    0.000    0.000    0.000    0.000    0.000    0.000 
#
# Total GULP energy -446534.468888 kJ/mol
# GULP energy per Si atom -12403.735247 kJ/mol
# Density = 2.030535 g / cm^3
# Si number density = 20.351674 Si / 1000 Ang^3
#
#
#
# Elastic Constant Matrix: (Units=GPa)
#
#
# Indices 1 2 3 4 5 6 
#
# 1 128.4698 16.8976 27.5931 0.0000 0.0000 0.0000
# 2 16.8976 57.6709 18.7496 0.0000 0.0000 0.0000
# 3 27.5931 18.7496 120.2989 0.0000 0.0000 0.0000
# 4 0.0000 0.0000 0.0000 23.9488 0.0000 0.0000
# 5 0.0000 0.0000 0.0000 0.0000 47.1083 0.0000
# 6 0.0000 0.0000 0.0000 0.0000 0.0000 8.2350
#
#
#
# Elastic Compliance Matrix: (Units=1/GPa)
#
#
# Indices 1 2 3 4 5 6 
#
# 1 0.008386 -0.001930 -0.001623 0.000000 0.000000 0.000000
# 2 -0.001930 0.018709 -0.002473 0.000000 0.000000 0.000000
# 3 -0.001623 -0.002473 0.009070 0.000000 0.000000 0.000000
# 4 0.000000 0.000000 0.000000 0.041756 0.000000 0.000000
# 5 0.000000 0.000000 0.000000 0.000000 0.021228 0.000000
# 6 0.000000 0.000000 0.000000 0.000000 0.000000 0.121433
#
#
# Mechanical properties :
#
#
# Convention : Reuss Voigt Hill
#
# Bulk Modulus (GPa) = 41.46920 48.10226 44.78573
# Shear Modulus (GPa) = 20.77519 32.07170 26.42344
#
# Velocity S-wave (km/s) = 3.19848 3.97404 3.60716
# Velocity P-wave (km/s) = 5.83617 6.68910 6.27714
#
# Compressibility (1/GPa) = 0.02411428
#
# Stress axis : x y z
#
# Youngs Moduli (GPa) = 119.24233 53.44938 110.24915
#
# Poissons Ratio (x) = 0.10313 0.17892
# Poissons Ratio (y) = 0.23009 0.27269
# Poissons Ratio (z) = 0.19351 0.13220
#
# Static dielectric constant tensor:
#      x y z
#    x 4.103450 0.000000 0.000000 
#    y 0.000000 3.285090 0.000000 
#    z 0.000000 0.000000 3.920140 
# 
# 
# High freq. dielectric constant tensor:
#      x y z
#    x 1.815390 0.000000 0.000000 
#    y 0.000000 1.753010 0.000000 
#    z 0.000000 0.000000 1.815180 
# 
# From -- ./inp_files/63651.got.cif
#   From: 2010.03.12/outbox.cif.g09.slc.cpg/sg74_32_cif.got.tgz:63651.got - 2010.04.16 15:46:19.
