data_PCOD8300113
_publ_section_title
;
Structure prediction by ZEFSAII (Michael W. Deem and Ramdas Pophale) SiO2 
 PCOD8300113
Probable space group: I M M A
;
_chemical_formula_sum "Si O2"
_cell_formula_units_Z 80
_cell_length_a 24.864341
_cell_length_b 17.936759
_cell_length_c 9.601606
_cell_angle_alpha 90.000000
_cell_angle_beta 90.000000
_cell_angle_gamma 90.000000
_cell_volume 4282.178898
_symmetry_space_group_name_H-M "I M M A"
_symmetry_group_IT_number 74
_symmetry_cell_setting 'orthorhombic'
loop_
_space_group_symop_operation_xyz
x,y,z
-x,1/2-y,z
x,-y,-z
-x,1/2+y,-z
-x,-y,-z
x,1/2+y,-z
-x,y,z
x,1/2-y,z
1/2+x,1/2+y,1/2+z
1/2-x,-y,1/2+z
1/2+x,1/2-y,1/2-z
1/2-x,y,1/2-z
1/2-x,1/2-y,1/2-z
1/2+x,y,1/2-z
1/2-x,1/2+y,1/2+z
1/2+x,-y,1/2+z
loop_
_atom_site_type_symbol
_atom_site_label
_atom_site_fract_x
_atom_site_fract_y
_atom_site_fract_z
Si Si1 0.437517 0.418206 0.458796
Si Si2 0.061777 0.836274 0.676482
Si Si3 0.848692 0.163728 0.547845
Si Si4 0.857704 0.335405 0.864497
Si Si5 0.244626 0.426571 0.913266
O O1 0.414434 0.500000 0.500000
O O2 0.500000 0.415586 0.490181
O O3 0.424998 0.394030 0.300409
O O4 0.412023 0.357073 0.558673
O O5 0.070812 0.750000 0.723122
O O6 0.102119 0.858719 0.552608
O O7 0.000000 0.846713 0.626252
O O8 0.833027 0.250000 0.528886
O O9 0.867590 0.145731 0.703485
O O10 0.795773 0.115013 0.518750
O O11 0.844573 0.250000 0.886510
O O12 0.807558 0.376363 0.934557
O O13 0.250000 0.444813 0.750000
O O14 0.234650 0.500000 0.000000
#
# Coordination Sequence:
#
# PCOD8300113 Si02
#       5
#    16  16  16  16  16
#     4  10  21  36  53  76 108 142 175 214 260 310
#     4   9  18  34  55  78 106 139 173 213 261 309
#     4   9  19  35  55  79 106 137 175 218 262 309
#     4  10  20  35  56  79 104 136 175 218 261 308
#     4  10  21  36  54  77 107 140 173 213 262 313
#
# _framework density 18.682078000000001
#
# number of rings (size 3 to 8) (size 9 to 14) (size 15 to 20)
#    0.000    2.400    0.000    1.800    0.000    9.200 
#    0.000    2.000    0.000    9.000    0.000    0.000 
#    0.000    0.000    0.000    0.000    0.000    0.000 
#
# Total GULP energy -495966.946176 kJ/mol
# GULP energy per Si atom -12399.173654 kJ/mol
# Density = 1.863956 g / cm^3
# Si number density = 18.682078 Si / 1000 Ang^3
#
#
#
# Elastic Constant Matrix: (Units=GPa)
#
#
# Indices 1 2 3 4 5 6 
#
# 1 95.2194 66.6097 76.8976 0.0000 0.0000 0.0000
# 2 66.6097 83.4710 63.8216 0.0000 0.0000 0.0000
# 3 76.8976 63.8216 92.7909 0.0000 0.0000 0.0000
# 4 0.0000 0.0000 0.0000 33.7400 0.0000 0.0000
# 5 0.0000 0.0000 0.0000 0.0000 27.4965 0.0000
# 6 0.0000 0.0000 0.0000 0.0000 0.0000 31.2607
#
#
#
# Elastic Compliance Matrix: (Units=1/GPa)
#
#
# Indices 1 2 3 4 5 6 
#
# 1 0.037402 -0.012966 -0.022077 0.000000 0.000000 0.000000
# 2 -0.012966 0.029764 -0.009726 0.000000 0.000000 0.000000
# 3 -0.022077 -0.009726 0.035763 0.000000 0.000000 0.000000
# 4 0.000000 0.000000 0.000000 0.029638 0.000000 0.000000
# 5 0.000000 0.000000 0.000000 0.000000 0.036368 0.000000
# 6 0.000000 0.000000 0.000000 0.000000 0.000000 0.031989
#
#
# Mechanical properties :
#
#
# Convention : Reuss Voigt Hill
#
# Bulk Modulus (GPa) = 74.69089 76.23767 75.46428
# Shear Modulus (GPa) = 16.95337 22.77628 19.86482
#
# Velocity S-wave (km/s) = 3.01569 3.49542 3.26438
# Velocity P-wave (km/s) = 7.22444 7.56222 7.39526
#
# Compressibility (1/GPa) = 0.01338851
#
# Stress axis : x y z
#
# Youngs Moduli (GPa) = 26.73665 33.59780 27.96215
#
# Poissons Ratio (x) = 0.43564 0.61733
# Poissons Ratio (y) = 0.34667 0.27197
# Poissons Ratio (z) = 0.59028 0.32678
#
# Static dielectric constant tensor:
#      x y z
#    x 3.498780 0.000000 0.000000 
#    y 0.000000 3.570410 0.000000 
#    z 0.000000 0.000000 3.329790 
# 
# 
# High freq. dielectric constant tensor:
#      x y z
#    x 1.733180 0.000000 0.000000 
#    y 0.000000 1.728820 0.000000 
#    z 0.000000 0.000000 1.718720 
# 
# From -- ./inp_files/10875.got.cif
#   From: 2010.03.12/outbox.cif.g09.slc.cpg/sg74_6_cif.got.tgz:10875.got - 2010.04.16 15:46:19.
