data_PCOD8300160
_publ_section_title
;
Structure prediction by ZEFSAII (Michael W. Deem and Ramdas Pophale) SiO2 
 PCOD8300160
Probable space group: I M M A
;
_chemical_formula_sum "Si O2"
_cell_formula_units_Z 72
_cell_length_a 20.327033
_cell_length_b 23.451454
_cell_length_c 7.758667
_cell_angle_alpha 90.000000
_cell_angle_beta 90.000000
_cell_angle_gamma 90.000000
_cell_volume 3698.544761
_symmetry_space_group_name_H-M "I M M A"
_symmetry_group_IT_number 74
_symmetry_cell_setting 'orthorhombic'
loop_
_space_group_symop_operation_xyz
x,y,z
-x,1/2-y,z
x,-y,-z
-x,1/2+y,-z
-x,-y,-z
x,1/2+y,-z
-x,y,z
x,1/2-y,z
1/2+x,1/2+y,1/2+z
1/2-x,-y,1/2+z
1/2+x,1/2-y,1/2-z
1/2-x,y,1/2-z
1/2-x,1/2-y,1/2-z
1/2+x,y,1/2-z
1/2-x,1/2+y,1/2+z
1/2+x,-y,1/2+z
loop_
_atom_site_type_symbol
_atom_site_label
_atom_site_fract_x
_atom_site_fract_y
_atom_site_fract_z
Si Si1 0.750000 0.934500 0.250000
Si Si2 0.626968 0.620166 0.145385
Si Si3 0.576789 0.815242 0.461723
Si Si4 0.377990 0.991326 0.314178
Si Si5 0.922559 0.889912 0.714186
O O1 0.705418 0.893571 0.126177
O O2 0.698924 0.975569 0.350814
O O3 0.616109 0.668507 0.289189
O O4 0.589611 0.561900 0.210779
O O5 0.597538 0.641428 0.963841
O O6 0.500000 0.825118 0.427773
O O7 0.592096 0.750000 0.507663
O O8 0.601817 0.852875 0.623353
O O9 0.385939 0.049223 0.206958
O O10 0.412919 0.000000 0.500000
O O11 0.000000 0.898974 0.722642
#
# Coordination Sequence:
#
# PCOD8300160 Si02
#       5
#     8  16  16  16  16
#     4   8  22  34  55  86 117 152 194 226 276 350
#     4  10  21  37  59  86 116 158 186 238 288 348
#     4  10  22  41  61  83 114 152 198 245 291 342
#     4  10  20  35  56  85 117 160 183 235 288 353
#     4  11  22  36  58  90 119 148 192 242 297 348
#
# _framework density 19.467115
#
# number of rings (size 3 to 8) (size 9 to 14) (size 15 to 20)
#    1.333    0.667    2.222    1.333    3.111    4.000 
#    0.000    2.778    0.000    1.333    0.000    0.000 
#    0.000    0.000    0.000    0.000    0.000    0.000 
#
# Total GULP energy -446037.030238 kJ/mol
# GULP energy per Si atom -12389.917507 kJ/mol
# Density = 1.942281 g / cm^3
# Si number density = 19.467115 Si / 1000 Ang^3
#
#
#
# Elastic Constant Matrix: (Units=GPa)
#
#
# Indices 1 2 3 4 5 6 
#
# 1 66.1582 25.2807 22.3712 0.0000 0.0000 0.0000
# 2 25.2807 79.8662 19.4159 0.0000 0.0000 0.0000
# 3 22.3712 19.4159 120.2896 0.0000 0.0000 0.0000
# 4 0.0000 0.0000 0.0000 17.4137 0.0000 0.0000
# 5 0.0000 0.0000 0.0000 0.0000 16.3524 0.0000
# 6 0.0000 0.0000 0.0000 0.0000 0.0000 14.9087
#
#
#
# Elastic Compliance Matrix: (Units=1/GPa)
#
#
# Indices 1 2 3 4 5 6 
#
# 1 0.017896 -0.005054 -0.002513 0.000000 0.000000 0.000000
# 2 -0.005054 0.014460 -0.001394 0.000000 0.000000 0.000000
# 3 -0.002513 -0.001394 0.009006 0.000000 0.000000 0.000000
# 4 0.000000 0.000000 0.000000 0.057426 0.000000 0.000000
# 5 0.000000 0.000000 0.000000 0.000000 0.061153 0.000000
# 6 0.000000 0.000000 0.000000 0.000000 0.000000 0.067075
#
#
# Mechanical properties :
#
#
# Convention : Reuss Voigt Hill
#
# Bulk Modulus (GPa) = 42.66161 44.49439 43.57800
# Shear Modulus (GPa) = 19.78242 23.01805 21.40024
#
# Velocity S-wave (km/s) = 3.19124 3.44234 3.31917
# Velocity P-wave (km/s) = 5.96163 6.22137 6.09288
#
# Compressibility (1/GPa) = 0.02344028
#
# Stress axis : x y z
#
# Youngs Moduli (GPa) = 55.87793 69.15817 111.04269
#
# Poissons Ratio (x) = 0.34953 0.27900
# Poissons Ratio (y) = 0.28241 0.15479
# Poissons Ratio (z) = 0.14039 0.09641
#
# Static dielectric constant tensor:
#      x y z
#    x 3.269880 0.000000 0.000000 
#    y 0.000000 3.388390 0.000000 
#    z 0.000000 0.000000 3.461240 
# 
# 
# High freq. dielectric constant tensor:
#      x y z
#    x 1.733030 0.000000 0.000000 
#    y 0.000000 1.740850 0.000000 
#    z 0.000000 0.000000 1.758650 
# 
# From -- ./inp_files/13585.got.cif
#   From: 2010.03.12/outbox.cif.g09.slc.cpg/sg74_7_cif.got.tgz:13585.got - 2010.04.16 15:46:19.
