data_PCOD8300798
_publ_section_title
;
Structure prediction by ZEFSAII (Michael W. Deem and Ramdas Pophale) SiO2 
 PCOD8300798
Probable space group: I M M A
;
_chemical_formula_sum "Si O2"
_cell_formula_units_Z 72
_cell_length_a 15.225302
_cell_length_b 8.640978
_cell_length_c 26.363679
_cell_angle_alpha 90.000000
_cell_angle_beta 90.000000
_cell_angle_gamma 90.000000
_cell_volume 3468.445145
_symmetry_space_group_name_H-M "I M M A"
_symmetry_group_IT_number 74
_symmetry_cell_setting 'orthorhombic'
loop_
_space_group_symop_operation_xyz
x,y,z
-x,1/2-y,z
x,-y,-z
-x,1/2+y,-z
-x,-y,-z
x,1/2+y,-z
-x,y,z
x,1/2-y,z
1/2+x,1/2+y,1/2+z
1/2-x,-y,1/2+z
1/2+x,1/2-y,1/2-z
1/2-x,y,1/2-z
1/2-x,1/2-y,1/2-z
1/2+x,y,1/2-z
1/2-x,1/2+y,1/2+z
1/2+x,-y,1/2+z
loop_
_atom_site_type_symbol
_atom_site_label
_atom_site_fract_x
_atom_site_fract_y
_atom_site_fract_z
Si Si1 0.000000 0.429459 0.232532
Si Si2 0.318035 0.430914 0.899073
Si Si3 0.500000 0.067906 0.622489
Si Si4 0.833904 0.570705 0.283052
Si Si5 0.500000 0.432111 0.944809
Si Si6 0.850628 0.568147 0.945706
O O1 0.084996 0.466717 0.266047
O O2 0.000000 0.250000 0.217659
O O3 0.000000 0.530501 0.181807
O O4 0.303624 0.250000 0.910521
O O5 0.306393 0.469009 0.840168
O O6 0.414423 0.489103 0.914780
O O7 0.249143 0.526617 0.932254
O O8 0.500000 0.250000 0.615077
O O9 0.412804 0.999893 0.597538
O O10 0.861085 0.750000 0.277441
O O11 0.750000 0.527595 0.250000
O O12 0.500000 0.250000 0.948768
O O13 0.500000 0.500000 0.000000
O O14 0.863314 0.750000 0.948025
O O15 0.877663 0.500000 0.000000
#
# Coordination Sequence:
#
# PCOD8300798 Si02
#       6
#     8  16   8  16   8  16
#     4  12  25  40  62  94 129 162 202 254 309 366
#     4  10  21  39  62  90 122 160 205 252 303 358
#     4  12  25  44  67  90 121 162 207 254 307 366
#     4  10  21  39  64  90 119 160 206 250 301 363
#     4  10  21  36  56  82 116 156 201 250 295 348
#     4  12  25  42  64  93 127 162 203 252 307 366
#
# _framework density 20.758581
#
# number of rings (size 3 to 8) (size 9 to 14) (size 15 to 20)
#    0.000    1.111    0.000    7.000    0.000    7.556 
#    0.000    1.111    0.000    0.000    0.000    0.000 
#    0.000    0.000    0.000    0.000    0.000    0.000 
#
# Total GULP energy -446686.702301 kJ/mol
# GULP energy per Si atom -12407.963953 kJ/mol
# Density = 2.071133 g / cm^3
# Si number density = 20.758581 Si / 1000 Ang^3
#
#
#
# Elastic Constant Matrix: (Units=GPa)
#
#
# Indices 1 2 3 4 5 6 
#
# 1 100.8140 34.4987 14.0592 0.0000 0.0000 0.0000
# 2 34.4987 111.3687 22.9142 0.0000 0.0000 0.0000
# 3 14.0592 22.9142 86.7157 0.0000 0.0000 0.0000
# 4 0.0000 0.0000 0.0000 34.2177 0.0000 0.0000
# 5 0.0000 0.0000 0.0000 0.0000 39.8193 0.0000
# 6 0.0000 0.0000 0.0000 0.0000 0.0000 18.4505
#
#
#
# Elastic Compliance Matrix: (Units=1/GPa)
#
#
# Indices 1 2 3 4 5 6 
#
# 1 0.011169 -0.003265 -0.000948 0.000000 0.000000 0.000000
# 2 -0.003265 0.010450 -0.002232 0.000000 0.000000 0.000000
# 3 -0.000948 -0.002232 0.012275 0.000000 0.000000 0.000000
# 4 0.000000 0.000000 0.000000 0.029225 0.000000 0.000000
# 5 0.000000 0.000000 0.000000 0.000000 0.025113 0.000000
# 6 0.000000 0.000000 0.000000 0.000000 0.000000 0.054199
#
#
# Mechanical properties :
#
#
# Convention : Reuss Voigt Hill
#
# Bulk Modulus (GPa) = 47.60923 49.09361 48.35142
# Shear Modulus (GPa) = 30.80303 33.65927 32.23115
#
# Velocity S-wave (km/s) = 3.85628 4.03111 3.94466
# Velocity P-wave (km/s) = 6.54312 6.73555 6.64003
#
# Compressibility (1/GPa) = 0.02100433
#
# Stress axis : x y z
#
# Youngs Moduli (GPa) = 89.53641 95.69656 81.46348
#
# Poissons Ratio (x) = 0.31241 0.07724
# Poissons Ratio (y) = 0.29230 0.18183
# Poissons Ratio (z) = 0.08489 0.21359
#
# Static dielectric constant tensor:
#      x y z
#    x 3.796700 0.000000 0.000000 
#    y 0.000000 3.672840 0.000000 
#    z 0.000000 0.000000 3.853100 
# 
# 
# High freq. dielectric constant tensor:
#      x y z
#    x 1.829320 0.000000 0.000000 
#    y 0.000000 1.805870 0.000000 
#    z 0.000000 0.000000 1.829270 
# 
# From -- ./inp_files/63650.got.cif
#   From: 2010.03.12/outbox.cif.g09.slc.cpg/sg74_32_cif.got.tgz:63650.got - 2010.04.16 15:46:19.
