data_PCOD8300064
_publ_section_title
;
Structure prediction by ZEFSAII (Michael W. Deem and Ramdas Pophale) SiO2 
 PCOD8300064
Probable space group: I M M A
;
_chemical_formula_sum "Si O2"
_cell_formula_units_Z 104
_cell_length_a 26.372140
_cell_length_b 9.066831
_cell_length_c 24.027190
_cell_angle_alpha 90.000000
_cell_angle_beta 90.000000
_cell_angle_gamma 90.000000
_cell_volume 5745.183124
_symmetry_space_group_name_H-M "I M M A"
_symmetry_group_IT_number 74
_symmetry_cell_setting 'orthorhombic'
loop_
_space_group_symop_operation_xyz
x,y,z
-x,1/2-y,z
x,-y,-z
-x,1/2+y,-z
-x,-y,-z
x,1/2+y,-z
-x,y,z
x,1/2-y,z
1/2+x,1/2+y,1/2+z
1/2-x,-y,1/2+z
1/2+x,1/2-y,1/2-z
1/2-x,y,1/2-z
1/2-x,1/2-y,1/2-z
1/2+x,y,1/2-z
1/2-x,1/2+y,1/2+z
1/2+x,-y,1/2+z
loop_
_atom_site_type_symbol
_atom_site_label
_atom_site_fract_x
_atom_site_fract_y
_atom_site_fract_z
Si Si1 0.135740 0.080791 0.558363
Si Si2 0.866643 0.074997 0.268589
Si Si3 0.000000 0.919766 0.057328
Si Si4 0.441412 0.423890 0.847465
Si Si5 0.289639 0.920425 0.153420
Si Si6 0.172407 0.076863 0.838705
Si Si7 0.891112 0.078102 0.941628
O O1 0.127967 0.250000 0.543736
O O2 0.088978 0.026280 0.597080
O O3 0.188733 0.053698 0.591096
O O4 0.136457 0.000000 0.500000
O O5 0.871255 0.250000 0.267997
O O6 0.918253 0.007143 0.294073
O O7 0.818385 0.025919 0.304296
O O8 0.858099 0.015551 0.206733
O O9 0.053510 0.960233 0.086769
O O10 0.000000 0.750000 0.042556
O O11 0.000000 0.000000 0.000000
O O12 0.500000 0.468594 0.854525
O O13 0.434498 0.250000 0.837550
O O14 0.298881 0.750000 0.170810
O O15 0.231336 0.964121 0.158471
O O16 0.163931 0.250000 0.827225
O O17 0.150853 0.026403 0.898102
O O18 0.886223 0.250000 0.953817
O O19 0.881604 0.000000 0.000000
#
# Coordination Sequence:
#
# PCOD8300064 Si02
#       7
#    16  16   8  16  16  16  16
#     4   9  18  32  51  78 108 139 177 217 263 315
#     4  11  22  35  53  79 108 134 169 221 274 318
#     4   8  14  28  48  68  92 124 160 196 235 288
#     4   9  19  38  60  78 103 144 186 220 259 315
#     4   9  19  36  55  72 100 142 182 218 258 312
#     4  10  20  35  54  76 102 138 181 219 259 315
#     4   9  18  32  51  74 101 132 169 210 256 306
#
# _framework density 18.102119999999999
#
# number of rings (size 3 to 8) (size 9 to 14) (size 15 to 20)
#    0.000    2.615    0.000    2.769    0.000    6.769 
#    1.385    0.000    0.000    0.000    0.000    0.000 
#    0.000    0.000    0.000    0.000    0.000    0.000 
#
# Total GULP energy -644500.211771 kJ/mol
# GULP energy per Si atom -12394.234842 kJ/mol
# Density = 1.806092 g / cm^3
# Si number density = 18.102120 Si / 1000 Ang^3
#
#
#
# Elastic Constant Matrix: (Units=GPa)
#
#
# Indices 1 2 3 4 5 6 
#
# 1 63.2659 28.2322 40.9581 0.0000 0.0000 0.0000
# 2 28.2322 59.7390 45.3263 0.0000 0.0000 0.0000
# 3 40.9581 45.3263 117.1212 0.0000 0.0000 0.0000
# 4 0.0000 0.0000 0.0000 33.1627 0.0000 0.0000
# 5 0.0000 0.0000 0.0000 0.0000 17.9587 0.0000
# 6 0.0000 0.0000 0.0000 0.0000 0.0000 16.7964
#
#
#
# Elastic Compliance Matrix: (Units=1/GPa)
#
#
# Indices 1 2 3 4 5 6 
#
# 1 0.022070 -0.006476 -0.005212 0.000000 0.000000 0.000000
# 2 -0.006476 0.025598 -0.007642 0.000000 0.000000 0.000000
# 3 -0.005212 -0.007642 0.013318 0.000000 0.000000 0.000000
# 4 0.000000 0.000000 0.000000 0.030154 0.000000 0.000000
# 5 0.000000 0.000000 0.000000 0.000000 0.055683 0.000000
# 6 0.000000 0.000000 0.000000 0.000000 0.000000 0.059537
#
#
# Mechanical properties :
#
#
# Convention : Reuss Voigt Hill
#
# Bulk Modulus (GPa) = 44.78811 52.12881 48.45846
# Shear Modulus (GPa) = 19.80488 21.95752 20.88120
#
# Velocity S-wave (km/s) = 3.31125 3.48657 3.40004
# Velocity P-wave (km/s) = 6.27812 6.71325 6.49933
#
# Compressibility (1/GPa) = 0.02232735
#
# Stress axis : x y z
#
# Youngs Moduli (GPa) = 45.30970 39.06541 75.08469
#
# Poissons Ratio (x) = 0.25298 0.39134
# Poissons Ratio (y) = 0.29341 0.57379
# Poissons Ratio (z) = 0.23616 0.29854
#
# Static dielectric constant tensor:
#      x y z
#    x -15.616450 0.000000 0.000000 
#    y 0.000000 3.215570 0.000000 
#    z 0.000000 0.000000 3.253790 
# 
# 
# High freq. dielectric constant tensor:
#      x y z
#    x 1.711380 0.000000 0.000000 
#    y 0.000000 1.689950 0.000000 
#    z 0.000000 0.000000 1.691350 
# 
# From -- ./inp_files/55247.got.cif
#   From: 2010.03.12/outbox.cif.g09.slc.cpg/sg74_28_cif.got.tgz:55247.got - 2010.04.16 15:46:19.
