data_PCOD8300586
_publ_section_title
;
Structure prediction by ZEFSAII (Michael W. Deem and Ramdas Pophale) SiO2 
 PCOD8300586
Probable space group: I M M A
;
_chemical_formula_sum "Si O2"
_cell_formula_units_Z 72
_cell_length_a 7.513556
_cell_length_b 14.669266
_cell_length_c 33.825479
_cell_angle_alpha 90.000000
_cell_angle_beta 90.000000
_cell_angle_gamma 90.000000
_cell_volume 3728.188536
_symmetry_space_group_name_H-M "I M M A"
_symmetry_group_IT_number 74
_symmetry_cell_setting 'orthorhombic'
loop_
_space_group_symop_operation_xyz
x,y,z
-x,1/2-y,z
x,-y,-z
-x,1/2+y,-z
-x,-y,-z
x,1/2+y,-z
-x,y,z
x,1/2-y,z
1/2+x,1/2+y,1/2+z
1/2-x,-y,1/2+z
1/2+x,1/2-y,1/2-z
1/2-x,y,1/2-z
1/2-x,1/2-y,1/2-z
1/2+x,y,1/2-z
1/2-x,1/2+y,1/2+z
1/2+x,-y,1/2+z
loop_
_atom_site_type_symbol
_atom_site_label
_atom_site_fract_x
_atom_site_fract_y
_atom_site_fract_z
Si Si1 0.797653 0.905683 0.553282
Si Si2 0.206923 0.854679 0.295570
Si Si3 0.500000 0.842510 0.410427
Si Si4 0.000000 0.145791 0.114712
Si Si5 0.000000 0.466966 0.840504
Si Si6 0.700974 0.884906 0.034271
O O1 0.673986 0.868638 0.588020
O O2 0.759650 0.856969 0.511268
O O3 0.000000 0.888486 0.567148
O O4 0.762168 0.010202 0.543732
O O5 0.254219 0.750000 0.307308
O O6 0.250000 0.870186 0.250000
O O7 0.322992 0.928246 0.319577
O O8 0.000000 0.874987 0.304110
O O9 0.500000 0.750000 0.383388
O O10 0.500000 0.933725 0.385515
O O11 0.671763 0.829883 0.437524
O O12 0.000000 0.250000 0.130854
O O13 0.000000 0.077055 0.153241
O O14 0.500000 0.858522 0.044865
#
# Coordination Sequence:
#
# PCOD8300586 Si02
#       6
#    16  16   8   8   8  16
#     4   9  18  36  59  79 105 153 212 262 309 345
#     4  10  20  38  68 101 127 151 184 221 270 355
#     4  12  23  33  51  82 122 160 188 228 300 373
#     4  12  25  39  59  84 116 160 216 264 298 345
#     4  12  24  40  59  88 130 160 190 238 303 348
#     4   9  18  34  56  79 110 154 204 257 305 360
#
# _framework density 19.312328999999998
#
# number of rings (size 3 to 8) (size 9 to 14) (size 15 to 20)
#    0.000    1.778    3.333    3.000    0.000    6.222 
#    0.000    2.222    0.000    0.667    0.000    0.000 
#    0.000    0.000    0.000    0.000    0.000    0.000 
#
# Total GULP energy -446059.552581 kJ/mol
# GULP energy per Si atom -12390.543127 kJ/mol
# Density = 1.926837 g / cm^3
# Si number density = 19.312329 Si / 1000 Ang^3
#
#
#
# Elastic Constant Matrix: (Units=GPa)
#
#
# Indices 1 2 3 4 5 6 
#
# 1 126.9451 44.5359 52.8087 0.0000 0.0000 0.0000
# 2 44.5359 120.8896 44.7416 0.0000 0.0000 0.0000
# 3 52.8087 44.7416 78.3135 0.0000 0.0000 0.0000
# 4 0.0000 0.0000 0.0000 7.3497 0.0000 0.0000
# 5 0.0000 0.0000 0.0000 0.0000 65.3794 0.0000
# 6 0.0000 0.0000 0.0000 0.0000 0.0000 34.8774
#
#
#
# Elastic Compliance Matrix: (Units=1/GPa)
#
#
# Indices 1 2 3 4 5 6 
#
# 1 0.011215 -0.001690 -0.006597 0.000000 0.000000 0.000000
# 2 -0.001690 0.010745 -0.004999 0.000000 0.000000 0.000000
# 3 -0.006597 -0.004999 0.020074 0.000000 0.000000 0.000000
# 4 0.000000 0.000000 0.000000 0.136060 0.000000 0.000000
# 5 0.000000 0.000000 0.000000 0.000000 0.015295 0.000000
# 6 0.000000 0.000000 0.000000 0.000000 0.000000 0.028672
#
#
# Mechanical properties :
#
#
# Convention : Reuss Voigt Hill
#
# Bulk Modulus (GPa) = 64.67740 67.81340 66.24540
# Shear Modulus (GPa) = 19.70168 33.79208 26.74688
#
# Velocity S-wave (km/s) = 3.19746 4.18756 3.72555
# Velocity P-wave (km/s) = 6.86983 7.65318 7.27206
#
# Compressibility (1/GPa) = 0.01546135
#
# Stress axis : x y z
#
# Youngs Moduli (GPa) = 89.17003 93.06865 49.81686
#
# Poissons Ratio (x) = 0.15728 0.32863
# Poissons Ratio (y) = 0.15070 0.24904
# Poissons Ratio (z) = 0.58823 0.46525
#
# Static dielectric constant tensor:
#      x y z
#    x 5.000550 0.000000 0.000000 
#    y 0.000000 3.463350 0.000000 
#    z 0.000000 0.000000 3.390510 
# 
# 
# High freq. dielectric constant tensor:
#      x y z
#    x 1.768980 0.000000 0.000000 
#    y 0.000000 1.741200 0.000000 
#    z 0.000000 0.000000 1.719750 
# 
# From -- ./inp_files/63649.got.cif
#   From: 2010.03.12/outbox.cif.g09.slc.cpg/sg74_32_cif.got.tgz:63649.got - 2010.04.16 15:46:19.
