data_PCOD8300424
_publ_section_title
;
Structure prediction by ZEFSAII (Michael W. Deem and Ramdas Pophale) SiO2 
 PCOD8300424
Probable space group: I M M A
;
_chemical_formula_sum "Si O2"
_cell_formula_units_Z 88
_cell_length_a 11.929963
_cell_length_b 21.336960
_cell_length_c 17.645297
_cell_angle_alpha 90.000000
_cell_angle_beta 90.000000
_cell_angle_gamma 90.000000
_cell_volume 4491.595235
_symmetry_space_group_name_H-M "I M M A"
_symmetry_group_IT_number 74
_symmetry_cell_setting 'orthorhombic'
loop_
_space_group_symop_operation_xyz
x,y,z
-x,1/2-y,z
x,-y,-z
-x,1/2+y,-z
-x,-y,-z
x,1/2+y,-z
-x,y,z
x,1/2-y,z
1/2+x,1/2+y,1/2+z
1/2-x,-y,1/2+z
1/2+x,1/2-y,1/2-z
1/2-x,y,1/2-z
1/2-x,1/2-y,1/2-z
1/2+x,y,1/2-z
1/2-x,1/2+y,1/2+z
1/2+x,-y,1/2+z
loop_
_atom_site_type_symbol
_atom_site_label
_atom_site_fract_x
_atom_site_fract_y
_atom_site_fract_z
Si Si1 0.631230 0.507876 0.084556
Si Si2 0.192048 0.322047 0.031466
Si Si3 0.126580 0.146084 0.582725
Si Si4 0.000000 0.019498 0.122699
Si Si5 0.629947 0.750000 0.205705
Si Si6 0.000000 0.901364 0.029048
Si Si7 0.284400 0.085606 0.332787
O O1 0.500000 0.496667 0.087182
O O2 0.667936 0.577538 0.109575
O O3 0.682388 0.455688 0.137847
O O4 0.679956 0.500000 0.000000
O O5 0.156385 0.250000 0.043819
O O6 0.193322 0.354535 0.113820
O O7 0.311115 0.326106 0.990321
O O8 0.107637 0.356345 0.973465
O O9 0.138108 0.188553 0.655690
O O10 0.000000 0.141197 0.553305
O O11 0.892101 0.039923 0.171116
O O12 0.000000 0.944374 0.105234
O O13 0.000000 0.054174 0.043072
O O14 0.500000 0.750000 0.244330
O O15 0.750000 0.750000 0.250000
O O16 0.250000 0.110758 0.250000
#
# Coordination Sequence:
#
# PCOD8300424 Si02
#       7
#    16  16  16   8   8   8  16
#     4  10  20  36  63  91 116 152 202 255 301 359
#     4  11  21  37  61  90 120 159 211 251 297 365
#     4  10  20  37  62  90 119 155 201 255 304 358
#     4   9  20  38  60  84 119 158 198 248 314 368
#     4  10  22  42  64  90 131 166 202 256 323 386
#     4   9  19  36  62  90 113 151 200 258 302 357
#     4  11  24  38  60  88 128 163 198 252 315 369
#
# _framework density 19.592148999999999
#
# number of rings (size 3 to 8) (size 9 to 14) (size 15 to 20)
#    0.000    1.818    2.727    1.364    3.818    1.091 
#    1.636    0.000    0.000    0.000    0.000    0.000 
#    0.000    0.000    0.000    0.000    0.000    0.000 
#
# Total GULP energy -545355.604036 kJ/mol
# GULP energy per Si atom -12394.445546 kJ/mol
# Density = 1.954756 g / cm^3
# Si number density = 19.592149 Si / 1000 Ang^3
#
#
#
# Elastic Constant Matrix: (Units=GPa)
#
#
# Indices 1 2 3 4 5 6 
#
# 1 100.4465 42.0375 41.6457 0.0000 0.0000 0.0000
# 2 42.0375 144.1042 29.9139 0.0000 0.0000 0.0000
# 3 41.6457 29.9139 68.9938 -0.0001 0.0000 0.0001
# 4 0.0000 0.0000 -0.0001 24.2610 0.0000 0.0000
# 5 0.0000 0.0000 0.0000 0.0000 26.5643 0.0000
# 6 0.0000 0.0000 0.0001 0.0000 0.0000 -9.7534
#
#
#
# Elastic Compliance Matrix: (Units=1/GPa)
#
#
# Indices 1 2 3 4 5 6 
#
# 1 0.014100 -0.002578 -0.007393 0.000000 0.000000 0.000000
# 2 -0.002578 0.008097 -0.001954 0.000000 0.000000 0.000000
# 3 -0.007393 -0.001954 0.019804 0.000000 0.000000 0.000000
# 4 0.000000 0.000000 0.000000 0.041218 0.000000 0.000000
# 5 0.000000 0.000000 0.000000 0.000000 0.037644 0.000000
# 6 0.000000 0.000000 0.000000 0.000000 0.000000 -0.102528
#
#
# Mechanical properties :
#
#
# Convention : Reuss Voigt Hill
#
# Bulk Modulus (GPa) = 55.09794 60.08209 57.59001
# Shear Modulus (GPa) = 103.65487 21.54421 62.59954
#
# Velocity S-wave (km/s) = 7.28156 3.31967 5.65868
# Velocity P-wave (km/s) = 9.94376 6.73993 8.49426
#
# Compressibility (1/GPa) = 0.01814950
#
# Stress axis : x y z
#
# Youngs Moduli (GPa) = 70.92302 123.49785 50.49517
#
# Poissons Ratio (x) = 0.31844 0.37331
# Poissons Ratio (y) = 0.18287 0.09869
# Poissons Ratio (z) = 0.52433 0.24136
#
# Static dielectric constant tensor:
#      x y z
#    x 3.866610 0.000000 0.000000 
#    y 0.000000 3.793860 0.000000 
#    z 0.000000 0.000000 3.348180 
# 
# 
# High freq. dielectric constant tensor:
#      x y z
#    x 1.778920 0.000000 0.000000 
#    y 0.000000 1.772590 0.000000 
#    z 0.000000 0.000000 1.728050 
# 
# From -- ./inp_files/41337.got.cif
#   From: 2010.03.12/outbox.cif.g09.slc.cpg/sg74_21_cif.got.tgz:41337.got - 2010.04.16 15:46:19.
