data_PCOD8300406
_publ_section_title
;
Structure prediction by ZEFSAII (Michael W. Deem and Ramdas Pophale) SiO2 
 PCOD8300406
Probable space group: I M M A
;
_chemical_formula_sum "Si O2"
_cell_formula_units_Z 88
_cell_length_a 8.779204
_cell_length_b 27.548818
_cell_length_c 19.116293
_cell_angle_alpha 90.000000
_cell_angle_beta 90.000000
_cell_angle_gamma 90.000000
_cell_volume 4623.403411
_symmetry_space_group_name_H-M "I M M A"
_symmetry_group_IT_number 74
_symmetry_cell_setting 'orthorhombic'
loop_
_space_group_symop_operation_xyz
x,y,z
-x,1/2-y,z
x,-y,-z
-x,1/2+y,-z
-x,-y,-z
x,1/2+y,-z
-x,y,z
x,1/2-y,z
1/2+x,1/2+y,1/2+z
1/2-x,-y,1/2+z
1/2+x,1/2-y,1/2-z
1/2-x,y,1/2-z
1/2-x,1/2-y,1/2-z
1/2+x,y,1/2-z
1/2-x,1/2+y,1/2+z
1/2+x,-y,1/2+z
loop_
_atom_site_type_symbol
_atom_site_label
_atom_site_fract_x
_atom_site_fract_y
_atom_site_fract_z
Si Si1 0.822988 0.964416 0.824429
Si Si2 0.819819 0.640855 0.826939
Si Si3 0.180424 0.750000 0.326379
Si Si4 0.820913 0.569059 0.173980
Si Si5 0.819999 0.661982 0.089811
Si Si6 0.823701 0.806703 0.548330
O O1 0.750000 0.963105 0.750000
O O2 0.781670 0.912892 0.860980
O O3 0.000000 0.965689 0.811380
O O4 0.773834 0.015994 0.859660
O O5 0.750000 0.646317 0.750000
O O6 0.742217 0.680748 0.875721
O O7 0.000000 0.650060 0.822958
O O8 0.250000 0.750000 0.250000
O O9 0.233061 0.797349 0.367037
O O10 0.000000 0.750000 0.321048
O O11 0.750000 0.577863 0.250000
O O12 0.766676 0.610068 0.120047
O O13 0.000000 0.572632 0.184688
O O14 0.000000 0.670281 0.096070
O O15 0.770364 0.663420 0.009239
O O16 0.800348 0.750000 0.534239
O O17 0.000000 0.821264 0.544313
#
# Coordination Sequence:
#
# PCOD8300406 Si02
#       6
#    16  16   8  16  16  16
#     4   8  15  30  52  80 112 143 177 219 272 326
#     4  10  20  36  61  88 113 143 180 226 275 333
#     4  12  24  38  56  80 111 148 191 238 280 324
#     4   9  18  32  53  82 113 146 184 227 273 324
#     4  11  22  37  57  81 110 147 189 232 280 333
#     4  11  24  41  59  79 108 147 186 231 285 337
#
# _framework density 19.033598000000001
#
# number of rings (size 3 to 8) (size 9 to 14) (size 15 to 20)
#    0.000    2.000    0.909    3.000    0.000    5.091 
#    0.000    0.909    0.000    5.455    0.000    0.000 
#    0.000    0.000    0.000    0.000    0.000    0.000 
#
# Total GULP energy -545226.170541 kJ/mol
# GULP energy per Si atom -12391.503876 kJ/mol
# Density = 1.899028 g / cm^3
# Si number density = 19.033598 Si / 1000 Ang^3
#
#
#
# Elastic Constant Matrix: (Units=GPa)
#
#
# Indices 1 2 3 4 5 6 
#
# 1 76.6903 34.3825 30.0735 0.0001 0.0000 0.0000
# 2 34.3825 59.0454 29.0726 0.0000 0.0001 0.0000
# 3 30.0735 29.0726 89.9806 -0.0003 0.0001 0.0004
# 4 0.0001 0.0000 -0.0003 28.9876 0.0000 0.0005
# 5 0.0000 0.0001 0.0001 0.0000 31.8231 0.0001
# 6 0.0000 0.0000 0.0004 0.0005 0.0001 28.4063
#
#
#
# Elastic Compliance Matrix: (Units=1/GPa)
#
#
# Indices 1 2 3 4 5 6 
#
# 1 0.018387 -0.009134 -0.003194 0.000000 0.000000 0.000000
# 2 -0.009134 0.024678 -0.004920 0.000000 0.000000 0.000000
# 3 -0.003194 -0.004920 0.013771 0.000000 0.000000 0.000000
# 4 0.000000 0.000000 0.000000 0.034497 0.000000 -0.000001
# 5 0.000000 0.000000 0.000000 0.000000 0.031424 0.000000
# 6 0.000000 0.000000 0.000000 -0.000001 0.000000 0.035203
#
#
# Mechanical properties :
#
#
# Convention : Reuss Voigt Hill
#
# Bulk Modulus (GPa) = 44.76663 45.86373 45.31518
# Shear Modulus (GPa) = 25.01199 26.65592 25.83395
#
# Velocity S-wave (km/s) = 3.62898 3.74634 3.68813
# Velocity P-wave (km/s) = 6.41328 6.54690 6.48044
#
# Compressibility (1/GPa) = 0.02233807
#
# Stress axis : x y z
#
# Youngs Moduli (GPa) = 54.38581 40.52229 72.61708
#
# Poissons Ratio (x) = 0.37014 0.23195
# Poissons Ratio (y) = 0.49677 0.35731
# Poissons Ratio (z) = 0.17372 0.19939
#
# Static dielectric constant tensor:
#      x y z
#    x 7.079170 -0.000010 0.000000 
#    y -0.000010 4.252910 0.000000 
#    z 0.000000 0.000000 3.243760 
# 
# 
# High freq. dielectric constant tensor:
#      x y z
#    x 1.748200 0.000000 0.000000 
#    y 0.000000 1.760250 0.000000 
#    z 0.000000 0.000000 1.714080 
# 
# From -- ./inp_files/40131.got.cif
#   From: 2010.03.12/outbox.cif.g09.slc.cpg/sg74_21_cif.got.tgz:40131.got - 2010.04.16 15:46:19.
