data_PCOD8300551
_publ_section_title
;
Structure prediction by ZEFSAII (Michael W. Deem and Ramdas Pophale) SiO2 
 PCOD8300551
Probable space group: I M M A
;
_chemical_formula_sum "Si O2"
_cell_formula_units_Z 64
_cell_length_a 10.320917
_cell_length_b 10.368754
_cell_length_c 32.238411
_cell_angle_alpha 90.000000
_cell_angle_beta 90.000000
_cell_angle_gamma 90.000000
_cell_volume 3449.995147
_symmetry_space_group_name_H-M "I M M A"
_symmetry_group_IT_number 74
_symmetry_cell_setting 'orthorhombic'
loop_
_space_group_symop_operation_xyz
x,y,z
-x,1/2-y,z
x,-y,-z
-x,1/2+y,-z
-x,-y,-z
x,1/2+y,-z
-x,y,z
x,1/2-y,z
1/2+x,1/2+y,1/2+z
1/2-x,-y,1/2+z
1/2+x,1/2-y,1/2-z
1/2-x,y,1/2-z
1/2-x,1/2-y,1/2-z
1/2+x,y,1/2-z
1/2-x,1/2+y,1/2+z
1/2+x,-y,1/2+z
loop_
_atom_site_type_symbol
_atom_site_label
_atom_site_fract_x
_atom_site_fract_y
_atom_site_fract_z
Si Si1 0.218899 0.600455 0.397297
Si Si2 0.750000 0.015851 0.250000
Si Si3 0.353065 0.610543 0.831472
Si Si4 0.500000 0.400535 0.621451
Si Si5 0.500000 0.101923 0.963355
Si Si6 0.000000 0.898403 0.214070
O O1 0.204767 0.750000 0.383325
O O2 0.169058 0.510514 0.360856
O O3 0.370309 0.562221 0.404741
O O4 0.131146 0.575369 0.437534
O O5 0.732548 0.104141 0.209744
O O6 0.875106 0.928986 0.241627
O O7 0.500000 0.606905 0.816667
O O8 0.322182 0.750000 0.853090
O O9 0.500000 0.250000 0.627935
O O10 0.500000 0.465570 0.667754
O O11 0.500000 0.250000 0.979693
O O12 0.500000 0.000000 0.000000
O O13 0.000000 0.750000 0.204404
#
# Coordination Sequence:
#
# PCOD8300551 Si02
#       6
#    16   8  16   8   8   8
#     4  10  20  38  62  88 114 149 192 237 288 344
#     4  12  22  38  50  78 117 158 203 244 297 348
#     4  11  23  37  54  80 114 157 199 242 294 343
#     4   9  18  34  56  82 115 148 187 236 289 336
#     4  10  22  39  64  93 119 149 187 234 293 358
#     4  11  22  33  53  81 112 151 197 251 296 335
#
# _framework density 18.550751000000002
#
# number of rings (size 3 to 8) (size 9 to 14) (size 15 to 20)
#    0.000    1.500    5.000    0.750    0.000    2.000 
#    0.000    2.500    0.000    0.000    0.000    0.000 
#    0.000    0.000    0.000    0.000    0.000    0.000 
#
# Total GULP energy -396518.026546 kJ/mol
# GULP energy per Si atom -12391.188330 kJ/mol
# Density = 1.850853 g / cm^3
# Si number density = 18.550751 Si / 1000 Ang^3
#
#
#
# Elastic Constant Matrix: (Units=GPa)
#
#
# Indices 1 2 3 4 5 6 
#
# 1 149.5468 42.4381 52.3188 0.0000 0.0000 0.0000
# 2 42.4381 102.3993 61.4414 0.0000 0.0000 0.0000
# 3 52.3188 61.4414 99.6914 0.0000 0.0000 0.0000
# 4 0.0000 0.0000 0.0000 30.4326 0.0000 0.0000
# 5 0.0000 0.0000 0.0000 0.0000 27.3561 0.0000
# 6 0.0000 0.0000 0.0000 0.0000 0.0000 3.9715
#
#
#
# Elastic Compliance Matrix: (Units=1/GPa)
#
#
# Indices 1 2 3 4 5 6 
#
# 1 0.008300 -0.001311 -0.003548 0.000000 0.000000 0.000000
# 2 -0.001311 0.015703 -0.008990 0.000000 0.000000 0.000000
# 3 -0.003548 -0.008990 0.017434 0.000000 0.000000 0.000000
# 4 0.000000 0.000000 0.000000 0.032859 0.000000 0.000000
# 5 0.000000 0.000000 0.000000 0.000000 0.036555 0.000000
# 6 0.000000 0.000000 0.000000 0.000000 0.000000 0.251794
#
#
# Mechanical properties :
#
#
# Convention : Reuss Voigt Hill
#
# Bulk Modulus (GPa) = 72.78627 73.78159 73.28393
# Shear Modulus (GPa) = 12.66068 25.38132 19.02100
#
# Velocity S-wave (km/s) = 2.61528 3.70294 3.20558
# Velocity P-wave (km/s) = 6.95996 7.62506 7.30009
#
# Compressibility (1/GPa) = 0.01373885
#
# Stress axis : x y z
#
# Youngs Moduli (GPa) = 120.47943 63.68095 57.36015
#
# Poissons Ratio (x) = 0.08349 0.20351
# Poissons Ratio (y) = 0.15796 0.51568
# Poissons Ratio (z) = 0.42746 0.57250
#
# Static dielectric constant tensor:
#      x y z
#    x 3.721850 0.000000 0.000000 
#    y 0.000000 3.409140 0.000000 
#    z 0.000000 0.000000 3.127150 
# 
# 
# High freq. dielectric constant tensor:
#      x y z
#    x 1.740800 0.000000 0.000000 
#    y 0.000000 1.713120 0.000000 
#    z 0.000000 0.000000 1.683070 
# 
# From -- ./inp_files/69816.got.cif
#   From: 2010.03.12/outbox.cif.g09.slc.cpg/sg74_35_cif.got.tgz:69816.got - 2010.04.16 15:46:19.
