data_PCOD8300803
_publ_section_title
;
Structure prediction by ZEFSAII (Michael W. Deem and Ramdas Pophale) SiO2 
 PCOD8300803
Probable space group: I M M A
;
_chemical_formula_sum "Si O2"
_cell_formula_units_Z 104
_cell_length_a 8.865291
_cell_length_b 21.454871
_cell_length_c 27.526283
_cell_angle_alpha 90.000000
_cell_angle_beta 90.000000
_cell_angle_gamma 90.000000
_cell_volume 5235.600180
_symmetry_space_group_name_H-M "I M M A"
_symmetry_group_IT_number 74
_symmetry_cell_setting 'orthorhombic'
loop_
_space_group_symop_operation_xyz
x,y,z
-x,1/2-y,z
x,-y,-z
-x,1/2+y,-z
-x,-y,-z
x,1/2+y,-z
-x,y,z
x,1/2-y,z
1/2+x,1/2+y,1/2+z
1/2-x,-y,1/2+z
1/2+x,1/2-y,1/2-z
1/2-x,y,1/2-z
1/2-x,1/2-y,1/2-z
1/2+x,y,1/2-z
1/2-x,1/2+y,1/2+z
1/2+x,-y,1/2+z
loop_
_atom_site_type_symbol
_atom_site_label
_atom_site_fract_x
_atom_site_fract_y
_atom_site_fract_z
Si Si1 0.178774 0.177020 0.966962
Si Si2 0.671301 0.348136 0.865055
Si Si3 0.829584 0.534946 0.299636
Si Si4 0.177293 0.180496 0.298804
Si Si5 0.820457 0.565222 0.525847
Si Si6 0.674737 0.750000 0.301193
Si Si7 0.178079 0.572426 0.635290
O O1 0.217566 0.250000 0.979732
O O2 0.262944 0.155680 0.918565
O O3 0.000000 0.169709 0.960489
O O4 0.238506 0.127556 0.006389
O O5 0.500000 0.322278 0.865263
O O6 0.676963 0.416984 0.844040
O O7 0.778953 0.310261 0.830260
O O8 0.750000 0.556794 0.250000
O O9 0.753281 0.474146 0.324030
O O10 0.000000 0.522073 0.283632
O O11 0.238935 0.250000 0.308039
O O12 0.250000 0.152074 0.250000
O O13 0.223052 0.141308 0.346486
O O14 0.000000 0.179395 0.290850
O O15 0.773291 0.500000 0.500000
O O16 0.761473 0.559995 0.581227
O O17 0.000000 0.575505 0.521487
O O18 0.500000 0.750000 0.292010
O O19 0.750000 0.750000 0.250000
O O20 0.000000 0.561880 0.634104
#
# Coordination Sequence:
#
# PCOD8300803 Si02
#       7
#    16  16  16  16  16   8  16
#     4  11  24  41  61  88 122 158 198 251 310 370
#     4  11  22  38  60  84 112 152 200 244 294 353
#     4  10  21  36  56  84 116 151 192 239 289 347
#     4   9  17  30  50  76 106 141 179 219 269 332
#     4  10  21  39  63  88 115 152 200 252 302 358
#     4  12  24  38  56  82 116 152 192 240 291 346
#     4   9  18  34  55  80 111 145 186 235 284 340
#
# _framework density 19.864007000000001
#
# number of rings (size 3 to 8) (size 9 to 14) (size 15 to 20)
#    0.000    1.846    0.769    3.462    0.000    6.769 
#    0.000    3.077    0.000    1.846    0.000    0.000 
#    0.000    0.000    0.000    0.000    0.000    0.000 
#
# Total GULP energy -644504.608484 kJ/mol
# GULP energy per Si atom -12394.319394 kJ/mol
# Density = 1.981880 g / cm^3
# Si number density = 19.864007 Si / 1000 Ang^3
#
#
#
# Elastic Constant Matrix: (Units=GPa)
#
#
# Indices 1 2 3 4 5 6 
#
# 1 76.7006 32.3379 32.0680 0.0000 0.0000 0.0000
# 2 32.3379 115.5586 57.4606 0.0000 0.0000 0.0000
# 3 32.0680 57.4606 127.1271 0.0000 0.0000 0.0000
# 4 0.0000 0.0000 0.0000 31.2911 0.0000 0.0000
# 5 0.0000 0.0000 0.0000 0.0000 30.3851 0.0000
# 6 0.0000 0.0000 0.0000 0.0000 0.0000 28.5140
#
#
#
# Elastic Compliance Matrix: (Units=1/GPa)
#
#
# Indices 1 2 3 4 5 6 
#
# 1 0.015371 -0.003062 -0.002494 0.000000 0.000000 0.000000
# 2 -0.003062 0.011772 -0.004549 0.000000 0.000000 0.000000
# 3 -0.002494 -0.004549 0.010551 0.000000 0.000000 0.000000
# 4 0.000000 0.000000 0.000000 0.031958 0.000000 0.000000
# 5 0.000000 0.000000 0.000000 0.000000 0.032911 0.000000
# 6 0.000000 0.000000 0.000000 0.000000 0.000000 0.035070
#
#
# Mechanical properties :
#
#
# Convention : Reuss Voigt Hill
#
# Bulk Modulus (GPa) = 57.18607 62.56882 59.87744
# Shear Modulus (GPa) = 30.54928 31.20604 30.87766
#
# Velocity S-wave (km/s) = 3.92589 3.96786 3.94693
# Velocity P-wave (km/s) = 7.02861 7.24975 7.14004
#
# Compressibility (1/GPa) = 0.01748678
#
# Stress axis : x y z
#
# Youngs Moduli (GPa) = 65.05748 84.94637 94.77671
#
# Poissons Ratio (x) = 0.26006 0.23633
# Poissons Ratio (y) = 0.19917 0.43111
# Poissons Ratio (z) = 0.16223 0.38639
#
# Static dielectric constant tensor:
#      x y z
#    x 3.443420 0.000000 0.000000 
#    y 0.000000 3.885550 0.000000 
#    z 0.000000 0.000000 3.672990 
# 
# 
# High freq. dielectric constant tensor:
#      x y z
#    x 1.754250 0.000000 0.000000 
#    y 0.000000 1.788530 0.000000 
#    z 0.000000 0.000000 1.781600 
# 
# From -- ./inp_files/64456.got.cif
#   From: 2010.03.12/outbox.cif.g09.slc.cpg/sg74_33_cif.got.tgz:64456.got - 2010.04.16 15:46:19.
