data_PCOD8300633
_publ_section_title
;
Structure prediction by ZEFSAII (Michael W. Deem and Ramdas Pophale) SiO2 
 PCOD8300633
Probable space group: I M M A
;
_chemical_formula_sum "Si O2"
_cell_formula_units_Z 72
_cell_length_a 27.544276
_cell_length_b 8.662779
_cell_length_c 14.731381
_cell_angle_alpha 90.000000
_cell_angle_beta 90.000000
_cell_angle_gamma 90.000000
_cell_volume 3515.054462
_symmetry_space_group_name_H-M "I M M A"
_symmetry_group_IT_number 74
_symmetry_cell_setting 'orthorhombic'
loop_
_space_group_symop_operation_xyz
x,y,z
-x,1/2-y,z
x,-y,-z
-x,1/2+y,-z
-x,-y,-z
x,1/2+y,-z
-x,y,z
x,1/2-y,z
1/2+x,1/2+y,1/2+z
1/2-x,-y,1/2+z
1/2+x,1/2-y,1/2-z
1/2-x,y,1/2-z
1/2-x,1/2-y,1/2-z
1/2+x,y,1/2-z
1/2-x,1/2+y,1/2+z
1/2+x,-y,1/2+z
loop_
_atom_site_type_symbol
_atom_site_label
_atom_site_fract_x
_atom_site_fract_y
_atom_site_fract_z
Si Si1 0.826629 0.932093 0.911806
Si Si2 0.232014 0.931065 0.348364
Si Si3 0.870105 0.067678 0.404257
Si Si4 0.500000 0.565167 0.602006
Si Si5 0.910015 0.068214 0.218813
O O1 0.818854 0.750000 0.917449
O O2 0.858695 0.979562 0.825213
O O3 0.775580 0.021191 0.913872
O O4 0.854568 0.000000 0.000000
O O5 0.221572 0.750000 0.352153
O O6 0.250000 0.987544 0.250000
O O7 0.184241 0.018031 0.380714
O O8 0.870701 0.250000 0.411859
O O9 0.907013 0.011398 0.323898
O O10 0.888157 0.000000 0.500000
O O11 0.500000 0.750000 0.595095
O O12 0.500000 0.500000 0.500000
O O13 0.454189 0.499241 0.659711
O O14 0.916617 0.250000 0.216602
#
# Coordination Sequence:
#
# PCOD8300633 Si02
#       5
#    16  16  16   8  16
#     4  11  21  35  54  81 113 151 190 231 281 339
#     4  11  22  36  55  82 113 151 194 239 283 332
#     4  11  22  39  59  83 114 155 197 238 285 338
#     4  10  20  40  65  92 118 148 185 230 287 348
#     4   9  20  37  60  84 114 150 188 231 287 345
#
# _framework density 20.483325000000001
#
# number of rings (size 3 to 8) (size 9 to 14) (size 15 to 20)
#    0.000    1.556    2.222    3.333    0.000    0.889 
#    0.000    3.889    0.000    0.000    0.000    0.000 
#    0.000    0.000    0.000    0.000    0.000    0.000 
#
# Total GULP energy -446237.011674 kJ/mol
# GULP energy per Si atom -12395.472546 kJ/mol
# Density = 2.043670 g / cm^3
# Si number density = 20.483325 Si / 1000 Ang^3
#
#
#
# Elastic Constant Matrix: (Units=GPa)
#
#
# Indices 1 2 3 4 5 6 
#
# 1 103.0978 16.4821 62.0764 0.0000 0.0000 0.0000
# 2 16.4821 48.5625 37.7542 0.0000 0.0000 0.0000
# 3 62.0764 37.7542 192.1733 0.0000 0.0000 0.0000
# 4 0.0000 0.0000 0.0000 32.9193 0.0000 0.0000
# 5 0.0000 0.0000 0.0000 0.0000 25.7577 0.0000
# 6 0.0000 0.0000 0.0000 0.0000 0.0000 9.0976
#
#
#
# Elastic Compliance Matrix: (Units=1/GPa)
#
#
# Indices 1 2 3 4 5 6 
#
# 1 0.012107 -0.001261 -0.003663 0.000000 0.000000 0.000000
# 2 -0.001261 0.024435 -0.004393 0.000000 0.000000 0.000000
# 3 -0.003663 -0.004393 0.007250 0.000000 0.000000 0.000000
# 4 0.000000 0.000000 0.000000 0.030377 0.000000 0.000000
# 5 0.000000 0.000000 0.000000 0.000000 0.038823 0.000000
# 6 0.000000 0.000000 0.000000 0.000000 0.000000 0.109919
#
#
# Mechanical properties :
#
#
# Convention : Reuss Voigt Hill
#
# Bulk Modulus (GPa) = 39.74987 64.05099 51.90043
# Shear Modulus (GPa) = 20.00544 28.72298 24.36421
#
# Velocity S-wave (km/s) = 3.12856 3.74874 3.45260
# Velocity P-wave (km/s) = 5.70076 7.07638 6.42549
#
# Compressibility (1/GPa) = 0.02515732
#
# Stress axis : x y z
#
# Youngs Moduli (GPa) = 82.59911 40.92411 137.93250
#
# Poissons Ratio (x) = 0.05162 0.50524
# Poissons Ratio (y) = 0.10418 0.60596
# Poissons Ratio (z) = 0.30256 0.17979
#
# Static dielectric constant tensor:
#      x y z
#    x 3.667140 0.000000 0.000000 
#    y 0.000000 3.469850 0.000000 
#    z 0.000000 0.000000 4.249770 
# 
# 
# High freq. dielectric constant tensor:
#      x y z
#    x 1.780150 0.000000 0.000000 
#    y 0.000000 1.781120 0.000000 
#    z 0.000000 0.000000 1.827370 
# 
# From -- ./inp_files/29151.got.cif
#   From: 2010.03.12/outbox.cif.g09.slc.cpg/sg74_15_cif.got.tgz:29151.got - 2010.04.16 15:46:19.
