data_PCOD8300839
_publ_section_title
;
Structure prediction by ZEFSAII (Michael W. Deem and Ramdas Pophale) SiO2 
 PCOD8300839
Probable space group: I M M A
;
_chemical_formula_sum "Si O2"
_cell_formula_units_Z 104
_cell_length_a 19.922621
_cell_length_b 8.665851
_cell_length_c 32.134362
_cell_angle_alpha 90.000000
_cell_angle_beta 90.000000
_cell_angle_gamma 90.000000
_cell_volume 5547.884008
_symmetry_space_group_name_H-M "I M M A"
_symmetry_group_IT_number 74
_symmetry_cell_setting 'orthorhombic'
loop_
_space_group_symop_operation_xyz
x,y,z
-x,1/2-y,z
x,-y,-z
-x,1/2+y,-z
-x,-y,-z
x,1/2+y,-z
-x,y,z
x,1/2-y,z
1/2+x,1/2+y,1/2+z
1/2-x,-y,1/2+z
1/2+x,1/2-y,1/2-z
1/2-x,y,1/2-z
1/2-x,1/2-y,1/2-z
1/2+x,y,1/2-z
1/2-x,1/2+y,1/2+z
1/2+x,-y,1/2+z
loop_
_atom_site_type_symbol
_atom_site_label
_atom_site_fract_x
_atom_site_fract_y
_atom_site_fract_z
Si Si1 0.765521 0.073644 0.042925
Si Si2 0.500000 0.575813 0.043788
Si Si3 0.923046 0.568962 0.727239
Si Si4 0.625559 0.574817 0.921207
Si Si5 0.192524 0.434302 0.133451
Si Si6 0.423171 0.072185 0.683240
Si Si7 0.676172 0.431942 0.838439
O O1 0.785820 0.250000 0.039937
O O2 0.685322 0.049426 0.045813
O O3 0.797991 0.006603 0.085566
O O4 0.792546 0.000000 0.000000
O O5 0.500000 0.750000 0.032499
O O6 0.565296 0.538191 0.069807
O O7 0.500000 0.500000 0.000000
O O8 0.908989 0.750000 0.721931
O O9 0.911563 0.521633 0.774611
O O10 0.868653 0.471636 0.701512
O O11 0.000000 0.529199 0.713566
O O12 0.599781 0.750000 0.922722
O O13 0.648854 0.536759 0.875307
O O14 0.201152 0.250000 0.136113
O O15 0.119385 0.489563 0.147274
O O16 0.245907 0.515956 0.164995
O O17 0.500000 0.061113 0.668770
O O18 0.401540 0.250000 0.689511
O O19 0.671432 0.250000 0.847558
#
# Coordination Sequence:
#
# PCOD8300839 Si02
#       7
#    16   8  16  16  16  16  16
#     4   9  19  34  55  80 106 138 176 221 269 323
#     4  12  24  36  50  72 100 138 186 236 288 338
#     4  10  21  37  57  80 110 151 192 229 276 332
#     4  10  21  37  53  73 104 142 184 231 281 334
#     4  10  21  38  58  83 114 147 186 225 272 333
#     4  10  21  38  60  87 115 142 178 226 278 331
#     4  11  22  36  55  81 112 145 187 235 282 327
#
# _framework density 18.745885000000001
#
# number of rings (size 3 to 8) (size 9 to 14) (size 15 to 20)
#    0.000    1.846    0.000    5.308    1.077    7.385 
#    0.000    3.077    0.000    0.462    0.000    0.000 
#    0.000    0.000    0.000    0.000    0.000    0.000 
#
# Total GULP energy -644718.397714 kJ/mol
# GULP energy per Si atom -12398.430725 kJ/mol
# Density = 1.870322 g / cm^3
# Si number density = 18.745885 Si / 1000 Ang^3
#
#
#
# Elastic Constant Matrix: (Units=GPa)
#
#
# Indices 1 2 3 4 5 6 
#
# 1 83.8681 32.8863 47.9710 0.0000 0.0000 0.0000
# 2 32.8863 89.4430 29.7505 0.0000 0.0000 0.0000
# 3 47.9710 29.7505 84.4146 0.0000 0.0000 0.0000
# 4 0.0000 0.0000 0.0000 33.9337 0.0000 0.0000
# 5 0.0000 0.0000 0.0000 0.0000 18.2694 0.0000
# 6 0.0000 0.0000 0.0000 0.0000 0.0000 29.9640
#
#
#
# Elastic Compliance Matrix: (Units=1/GPa)
#
#
# Indices 1 2 3 4 5 6 
#
# 1 0.018736 -0.003792 -0.009311 0.000000 0.000000 0.000000
# 2 -0.003792 0.013432 -0.002579 0.000000 0.000000 0.000000
# 3 -0.009311 -0.002579 0.018046 0.000000 0.000000 0.000000
# 4 0.000000 0.000000 0.000000 0.029469 0.000000 0.000000
# 5 0.000000 0.000000 0.000000 0.000000 0.054736 0.000000
# 6 0.000000 0.000000 0.000000 0.000000 0.000000 0.033373
#
#
# Mechanical properties :
#
#
# Convention : Reuss Voigt Hill
#
# Bulk Modulus (GPa) = 53.04762 53.21568 53.13165
# Shear Modulus (GPa) = 24.33786 26.24128 25.28957
#
# Velocity S-wave (km/s) = 3.60711 3.74551 3.67696
# Velocity P-wave (km/s) = 6.76077 6.86692 6.81405
#
# Compressibility (1/GPa) = 0.01885099
#
# Stress axis : x y z
#
# Youngs Moduli (GPa) = 53.37322 74.44700 55.41258
#
# Poissons Ratio (x) = 0.28229 0.51594
# Poissons Ratio (y) = 0.20238 0.14292
# Poissons Ratio (z) = 0.49695 0.19201
#
# Static dielectric constant tensor:
#      x y z
#    x 3.510840 0.000000 0.000000 
#    y 0.000000 3.444030 0.000000 
#    z 0.000000 0.000000 3.668910 
# 
# 
# High freq. dielectric constant tensor:
#      x y z
#    x 1.716600 0.000000 0.000000 
#    y 0.000000 1.740560 0.000000 
#    z 0.000000 0.000000 1.722600 
# 
# From -- ./inp_files/73431.got.cif
#   From: 2010.03.12/outbox.cif.g09.slc.cpg/sg74_37_cif.got.tgz:73431.got - 2010.04.16 15:46:19.
