data_PCOD8300359
_publ_section_title
;
Structure prediction by ZEFSAII (Michael W. Deem and Ramdas Pophale) SiO2 
 PCOD8300359
Probable space group: I M M A
;
_chemical_formula_sum "Si O2"
_cell_formula_units_Z 96
_cell_length_a 8.893243
_cell_length_b 19.702695
_cell_length_c 29.303978
_cell_angle_alpha 90.000000
_cell_angle_beta 90.000000
_cell_angle_gamma 90.000000
_cell_volume 5134.668062
_symmetry_space_group_name_H-M "I M M A"
_symmetry_group_IT_number 74
_symmetry_cell_setting 'orthorhombic'
loop_
_space_group_symop_operation_xyz
x,y,z
-x,1/2-y,z
x,-y,-z
-x,1/2+y,-z
-x,-y,-z
x,1/2+y,-z
-x,y,z
x,1/2-y,z
1/2+x,1/2+y,1/2+z
1/2-x,-y,1/2+z
1/2+x,1/2-y,1/2-z
1/2-x,y,1/2-z
1/2-x,1/2-y,1/2-z
1/2+x,y,1/2-z
1/2-x,1/2+y,1/2+z
1/2+x,-y,1/2+z
loop_
_atom_site_type_symbol
_atom_site_label
_atom_site_fract_x
_atom_site_fract_y
_atom_site_fract_z
Si Si1 0.322311 0.670485 0.372940
Si Si2 0.326616 0.064009 0.148997
Si Si3 0.175616 0.173919 0.204531
Si Si4 0.178520 0.074303 0.699810
Si Si5 0.833971 0.097946 0.961574
Si Si6 0.830149 0.059731 0.057299
O O1 0.500000 0.655263 0.369240
O O2 0.286577 0.750000 0.372143
O O3 0.241637 0.637077 0.329420
O O4 0.252223 0.638903 0.420289
O O5 0.500000 0.078599 0.159103
O O6 0.223969 0.126003 0.164077
O O7 0.296602 0.064737 0.095451
O O8 0.275225 0.994716 0.173625
O O9 0.233419 0.250000 0.194344
O O10 0.250000 0.144351 0.250000
O O11 0.000000 0.172126 0.211460
O O12 0.250000 0.074591 0.750000
O O13 0.000000 0.081422 0.704301
O O14 0.000000 0.129754 0.963786
O O15 0.842882 0.019246 0.951795
O O16 0.767230 0.102744 0.013276
O O17 0.000000 0.084869 0.070797
#
# Coordination Sequence:
#
# PCOD8300359 Si02
#       6
#    16  16  16  16  16  16
#     4  10  20  36  59  83 109 144 186 234 286 337
#     4  11  22  35  54  84 115 147 184 227 278 326
#     4  10  21  37  57  80 107 143 183 222 270 328
#     4  11  24  39  56  80 110 145 188 235 282 333
#     4   8  15  30  53  81 107 139 181 222 269 325
#     4   9  16  30  55  80 108 143 179 223 270 320
#
# _framework density 18.696438000000001
#
# number of rings (size 3 to 8) (size 9 to 14) (size 15 to 20)
#    0.000    2.167    1.667    3.000    0.000    5.000 
#    0.000    3.333    0.000    3.000    0.000    0.000 
#    0.000    0.000    0.000    0.000    0.000    0.000 
#
# Total GULP energy -594759.882321 kJ/mol
# GULP energy per Si atom -12390.830882 kJ/mol
# Density = 1.865388 g / cm^3
# Si number density = 18.696438 Si / 1000 Ang^3
#
#
#
# Elastic Constant Matrix: (Units=GPa)
#
#
# Indices 1 2 3 4 5 6 
#
# 1 54.0064 32.9637 39.4619 0.0000 0.0000 0.0000
# 2 32.9637 76.6463 58.0762 0.0000 0.0000 0.0000
# 3 39.4619 58.0762 160.8314 0.0000 0.0000 0.0000
# 4 0.0000 0.0000 0.0000 21.3509 0.0000 0.0000
# 5 0.0000 0.0000 0.0000 0.0000 28.6298 0.0000
# 6 0.0000 0.0000 0.0000 0.0000 0.0000 9.6124
#
#
#
# Elastic Compliance Matrix: (Units=1/GPa)
#
#
# Indices 1 2 3 4 5 6 
#
# 1 0.026293 -0.008838 -0.003260 0.000000 0.000000 0.000000
# 2 -0.008838 0.020932 -0.005390 0.000000 0.000000 0.000000
# 3 -0.003260 -0.005390 0.008964 0.000000 0.000000 0.000000
# 4 0.000000 0.000000 0.000000 0.046836 0.000000 0.000000
# 5 0.000000 0.000000 0.000000 0.000000 0.034929 0.000000
# 6 0.000000 0.000000 0.000000 0.000000 0.000000 0.104032
#
#
# Mechanical properties :
#
#
# Convention : Reuss Voigt Hill
#
# Bulk Modulus (GPa) = 47.14084 61.38754 54.26419
# Shear Modulus (GPa) = 17.60362 22.65076 20.12719
#
# Velocity S-wave (km/s) = 3.07180 3.48444 3.28460
# Velocity P-wave (km/s) = 6.15222 7.00668 6.59330
#
# Compressibility (1/GPa) = 0.02121303
#
# Stress axis : x y z
#
# Youngs Moduli (GPa) = 38.03363 47.77376 111.55844
#
# Poissons Ratio (x) = 0.42221 0.36367
# Poissons Ratio (y) = 0.33613 0.60131
# Poissons Ratio (z) = 0.12399 0.25751
#
# Static dielectric constant tensor:
#      x y z
#    x 50.361860 0.000000 -0.000020 
#    y 0.000000 3.344040 0.000000 
#    z -0.000020 0.000000 4.105780 
# 
# 
# High freq. dielectric constant tensor:
#      x y z
#    x 1.705390 0.000000 0.000000 
#    y 0.000000 1.711200 0.000000 
#    z 0.000000 0.000000 1.740690 
# 
# From -- ./inp_files/64270.got.cif
#   From: 2010.03.12/outbox.cif.g09.slc.cpg/sg74_33_cif.got.tgz:64270.got - 2010.04.16 15:46:19.
