data_PCOD8300483
_publ_section_title
;
Structure prediction by ZEFSAII (Michael W. Deem and Ramdas Pophale) SiO2 
 PCOD8300483
Probable space group: I M M A
;
_chemical_formula_sum "Si O2"
_cell_formula_units_Z 96
_cell_length_a 8.891974
_cell_length_b 22.928895
_cell_length_c 23.514689
_cell_angle_alpha 90.000000
_cell_angle_beta 90.000000
_cell_angle_gamma 90.000000
_cell_volume 4794.248587
_symmetry_space_group_name_H-M "I M M A"
_symmetry_group_IT_number 74
_symmetry_cell_setting 'orthorhombic'
loop_
_space_group_symop_operation_xyz
x,y,z
-x,1/2-y,z
x,-y,-z
-x,1/2+y,-z
-x,-y,-z
x,1/2+y,-z
-x,y,z
x,1/2-y,z
1/2+x,1/2+y,1/2+z
1/2-x,-y,1/2+z
1/2+x,1/2-y,1/2-z
1/2-x,y,1/2-z
1/2-x,1/2-y,1/2-z
1/2+x,y,1/2-z
1/2-x,1/2+y,1/2+z
1/2+x,-y,1/2+z
loop_
_atom_site_type_symbol
_atom_site_label
_atom_site_fract_x
_atom_site_fract_y
_atom_site_fract_z
Si Si1 0.323290 0.625277 0.501861
Si Si2 0.176917 0.476713 0.190238
Si Si3 0.823387 0.316392 0.690755
Si Si4 0.674365 0.587076 0.382286
Si Si5 0.828010 0.121284 0.377994
Si Si6 0.831226 0.750000 0.607716
Si Si7 0.829039 0.250000 0.995851
O O1 0.500000 0.629469 0.518185
O O2 0.296488 0.579992 0.450338
O O3 0.232567 0.608651 0.558265
O O4 0.261858 0.687775 0.475843
O O5 0.250000 0.492711 0.250000
O O6 0.225454 0.526713 0.145907
O O7 0.234767 0.414930 0.167725
O O8 0.000000 0.473063 0.198186
O O9 0.776873 0.250000 0.674919
O O10 0.750000 0.335856 0.750000
O O11 0.768233 0.358914 0.641487
O O12 0.000000 0.322476 0.697961
O O13 0.500000 0.600199 0.370166
O O14 0.813713 0.189217 0.357905
O O15 0.000000 0.100557 0.376695
O O16 0.695258 0.750000 0.563575
O O17 0.000000 0.750000 0.579534
O O18 0.000000 0.250000 0.977712
#
# Coordination Sequence:
#
# PCOD8300483 Si02
#       7
#    16  16  16  16  16   8   8
#     4   9  18  33  54  84 117 153 190 231 279 334
#     4  11  24  42  61  83 110 147 193 241 289 344
#     4  10  21  36  54  78 109 148 195 247 297 342
#     4  10  22  37  57  83 114 153 194 239 287 335
#     4  10  20  37  61  88 117 151 185 228 282 340
#     4   8  16  32  55  83 114 143 176 218 271 328
#     4   8  14  26  48  77 110 147 186 220 263 322
#
# _framework density 20.023993000000001
#
# number of rings (size 3 to 8) (size 9 to 14) (size 15 to 20)
#    0.000    2.333    0.000    2.000    1.167    5.667 
#    0.000    3.750    0.000    0.000    0.000    0.000 
#    0.000    0.000    0.000    0.000    0.000    0.000 
#
# Total GULP energy -594828.927801 kJ/mol
# GULP energy per Si atom -12392.269329 kJ/mol
# Density = 1.997842 g / cm^3
# Si number density = 20.023993 Si / 1000 Ang^3
#
#
#
# Elastic Constant Matrix: (Units=GPa)
#
#
# Indices 1 2 3 4 5 6 
#
# 1 67.1800 34.0751 27.0824 0.0000 0.0000 0.0000
# 2 34.0751 88.8888 30.0286 0.0000 0.0000 0.0000
# 3 27.0824 30.0286 59.8467 0.0000 0.0000 0.0000
# 4 0.0000 0.0000 0.0000 33.6492 0.0000 0.0000
# 5 0.0000 0.0000 0.0000 0.0000 32.5861 0.0000
# 6 0.0000 0.0000 0.0000 0.0000 0.0000 23.5757
#
#
#
# Elastic Compliance Matrix: (Units=1/GPa)
#
#
# Indices 1 2 3 4 5 6 
#
# 1 0.020309 -0.005636 -0.006363 0.000000 0.000000 0.000000
# 2 -0.005636 0.015110 -0.005031 0.000000 0.000000 0.000000
# 3 -0.006363 -0.005031 0.022113 0.000000 0.000000 0.000000
# 4 0.000000 0.000000 0.000000 0.029718 0.000000 0.000000
# 5 0.000000 0.000000 0.000000 0.000000 0.030688 0.000000
# 6 0.000000 0.000000 0.000000 0.000000 0.000000 0.042416
#
#
# Mechanical properties :
#
#
# Convention : Reuss Voigt Hill
#
# Bulk Modulus (GPa) = 42.60249 44.25420 43.42835
# Shear Modulus (GPa) = 24.72326 26.27751 25.50039
#
# Velocity S-wave (km/s) = 3.51762 3.62650 3.57247
# Velocity P-wave (km/s) = 6.14980 6.29952 6.22511
#
# Compressibility (1/GPa) = 0.02347280
#
# Stress axis : x y z
#
# Youngs Moduli (GPa) = 49.23930 66.18051 45.22216
#
# Poissons Ratio (x) = 0.37299 0.28773
# Poissons Ratio (y) = 0.27751 0.22752
# Poissons Ratio (z) = 0.31329 0.33297
#
# Static dielectric constant tensor:
#      x y z
#    x 3.612150 0.000000 0.000000 
#    y 0.000000 3.853480 0.000000 
#    z 0.000000 0.000000 3.394370 
# 
# 
# High freq. dielectric constant tensor:
#      x y z
#    x 1.778980 0.000000 0.000000 
#    y 0.000000 1.788250 0.000000 
#    z 0.000000 0.000000 1.759490 
# 
# From -- ./inp_files/57312.got.cif
#   From: 2010.03.12/outbox.cif.g09.slc.cpg/sg74_29_cif.got.tgz:57312.got - 2010.04.16 15:46:19.
