data_PCOD8300139
_publ_section_title
;
Structure prediction by ZEFSAII (Michael W. Deem and Ramdas Pophale) SiO2 
 PCOD8300139
Probable space group: I M M A
;
_chemical_formula_sum "Si O2"
_cell_formula_units_Z 88
_cell_length_a 16.282747
_cell_length_b 10.150738
_cell_length_c 27.794479
_cell_angle_alpha 90.000000
_cell_angle_beta 90.000000
_cell_angle_gamma 90.000000
_cell_volume 4593.924263
_symmetry_space_group_name_H-M "I M M A"
_symmetry_group_IT_number 74
_symmetry_cell_setting 'orthorhombic'
loop_
_space_group_symop_operation_xyz
x,y,z
-x,1/2-y,z
x,-y,-z
-x,1/2+y,-z
-x,-y,-z
x,1/2+y,-z
-x,y,z
x,1/2-y,z
1/2+x,1/2+y,1/2+z
1/2-x,-y,1/2+z
1/2+x,1/2-y,1/2-z
1/2-x,y,1/2-z
1/2-x,1/2-y,1/2-z
1/2+x,y,1/2-z
1/2-x,1/2+y,1/2+z
1/2+x,-y,1/2+z
loop_
_atom_site_type_symbol
_atom_site_label
_atom_site_fract_x
_atom_site_fract_y
_atom_site_fract_z
Si Si1 0.792262 0.395557 0.379610
Si Si2 0.091645 0.099011 0.295049
Si Si3 0.092759 0.892595 0.533420
Si Si4 0.000000 0.404369 0.952491
Si Si5 0.160532 0.101332 0.772534
Si Si6 0.657981 0.399790 0.613453
O O1 0.751716 0.250000 0.372542
O O2 0.835625 0.445716 0.330975
O O3 0.866904 0.383518 0.415418
O O4 0.727776 0.497576 0.402039
O O5 0.106112 0.250000 0.278948
O O6 0.000000 0.083943 0.317349
O O7 0.097285 0.003161 0.249414
O O8 0.097200 0.750000 0.507545
O O9 0.000000 0.937883 0.542973
O O10 0.137845 0.000000 0.500000
O O11 0.077637 0.434037 0.917985
O O12 0.000000 0.250000 0.968941
O O13 0.000000 0.500000 0.000000
O O14 0.134331 0.250000 0.758993
O O15 0.250000 0.072496 0.750000
O O16 0.149518 0.080414 0.829467
O O17 0.685664 0.250000 0.602474
#
# Coordination Sequence:
#
# PCOD8300139 Si02
#       6
#    16  16  16   8  16  16
#     4  10  20  35  56  81 112 150 188 229 281 342
#     4  10  21  35  53  82 120 159 196 234 281 341
#     4   9  18  33  52  75 105 142 182 223 268 320
#     4  10  24  46  68  88 116 154 198 256 315 366
#     4  10  20  36  58  84 115 152 195 239 289 352
#     4  10  22  40  61  85 113 146 187 239 298 353
#
# _framework density 19.155735
#
# number of rings (size 3 to 8) (size 9 to 14) (size 15 to 20)
#    0.000    2.182    1.818    0.545    1.273    5.818 
#    0.000    3.636    0.000    3.273    0.000    0.000 
#    0.000    0.000    0.000    0.000    0.000    0.000 
#
# Total GULP energy -545173.108232 kJ/mol
# GULP energy per Si atom -12390.297914 kJ/mol
# Density = 1.911214 g / cm^3
# Si number density = 19.155735 Si / 1000 Ang^3
#
#
#
# Elastic Constant Matrix: (Units=GPa)
#
#
# Indices 1 2 3 4 5 6 
#
# 1 96.3103 63.6069 39.6916 0.0000 0.0000 0.0000
# 2 63.6069 111.6570 52.6522 0.0000 0.0000 0.0000
# 3 39.6916 52.6522 93.3742 0.0000 0.0000 0.0000
# 4 0.0000 0.0000 0.0000 33.7050 0.0000 0.0000
# 5 0.0000 0.0000 0.0000 0.0000 25.6790 0.0000
# 6 0.0000 0.0000 0.0000 0.0000 0.0000 26.0006
#
#
#
# Elastic Compliance Matrix: (Units=1/GPa)
#
#
# Indices 1 2 3 4 5 6 
#
# 1 0.017035 -0.008568 -0.002410 0.000000 0.000000 0.000000
# 2 -0.008568 0.016509 -0.005667 0.000000 0.000000 0.000000
# 3 -0.002410 -0.005667 0.014930 0.000000 0.000000 0.000000
# 4 0.000000 0.000000 0.000000 0.029669 0.000000 0.000000
# 5 0.000000 0.000000 0.000000 0.000000 0.038942 0.000000
# 6 0.000000 0.000000 0.000000 0.000000 0.000000 0.038461
#
#
# Mechanical properties :
#
#
# Convention : Reuss Voigt Hill
#
# Bulk Modulus (GPa) = 65.85988 68.13809 66.99898
# Shear Modulus (GPa) = 25.78694 26.76963 26.27828
#
# Velocity S-wave (km/s) = 3.67300 3.74234 3.70783
# Velocity P-wave (km/s) = 7.24181 7.37029 7.30634
#
# Compressibility (1/GPa) = 0.01518375
#
# Stress axis : x y z
#
# Youngs Moduli (GPa) = 58.70378 60.57278 66.98050
#
# Poissons Ratio (x) = 0.51896 0.16142
# Poissons Ratio (y) = 0.50295 0.37960
# Poissons Ratio (z) = 0.14148 0.34328
#
# Static dielectric constant tensor:
#      x y z
#    x 3.365330 0.000000 0.000000 
#    y 0.000000 4.015180 0.000000 
#    z 0.000000 0.000000 3.417150 
# 
# 
# High freq. dielectric constant tensor:
#      x y z
#    x 1.734070 0.000000 0.000000 
#    y 0.000000 1.757320 0.000000 
#    z 0.000000 0.000000 1.735080 
# 
# From -- ./inp_files/70288.got.cif
#   From: 2010.03.12/outbox.cif.g09.slc.cpg/sg74_36_cif.got.tgz:70288.got - 2010.04.16 15:46:19.
