data_PCOD8300731
_publ_section_title
;
Structure prediction by ZEFSAII (Michael W. Deem and Ramdas Pophale) SiO2 
 PCOD8300731
Probable space group: I M M A
;
_chemical_formula_sum "Si O2"
_cell_formula_units_Z 72
_cell_length_a 15.130935
_cell_length_b 23.705777
_cell_length_c 9.212174
_cell_angle_alpha 90.000000
_cell_angle_beta 90.000000
_cell_angle_gamma 90.000000
_cell_volume 3304.319951
_symmetry_space_group_name_H-M "I M M A"
_symmetry_group_IT_number 74
_symmetry_cell_setting 'orthorhombic'
loop_
_space_group_symop_operation_xyz
x,y,z
-x,1/2-y,z
x,-y,-z
-x,1/2+y,-z
-x,-y,-z
x,1/2+y,-z
-x,y,z
x,1/2-y,z
1/2+x,1/2+y,1/2+z
1/2-x,-y,1/2+z
1/2+x,1/2-y,1/2-z
1/2-x,y,1/2-z
1/2-x,1/2-y,1/2-z
1/2+x,y,1/2-z
1/2-x,1/2+y,1/2+z
1/2+x,-y,1/2+z
loop_
_atom_site_type_symbol
_atom_site_label
_atom_site_fract_x
_atom_site_fract_y
_atom_site_fract_z
Si Si1 0.000000 0.622467 0.172505
Si Si2 0.500000 0.004771 0.255040
Si Si3 0.157095 0.186451 0.676095
Si Si4 0.830361 0.657661 0.656297
Si Si5 0.000000 0.368447 0.158432
Si Si6 0.816405 0.028407 0.364006
O O1 0.000000 0.554080 0.156468
O O2 0.085214 0.642786 0.262730
O O3 0.000000 0.649578 0.010818
O O4 0.500000 0.062940 0.347679
O O5 0.584866 0.006052 0.153573
O O6 0.131771 0.250000 0.723967
O O7 0.250000 0.169346 0.750000
O O8 0.158237 0.187349 0.499524
O O9 0.750000 0.685211 0.750000
O O10 0.806165 0.594391 0.617873
O O11 0.916969 0.658612 0.757880
O O12 0.750000 0.003065 0.250000
O O13 0.773061 0.000000 0.500000
#
# Coordination Sequence:
#
# PCOD8300731 Si02
#       6
#     8   8  16  16   8  16
#     4  12  23  40  65  90 124 161 199 248 299 353
#     4  10  22  37  59  88 123 163 198 232 286 356
#     4  11  25  44  65  89 117 154 204 256 306 357
#     4  10  21  39  61  87 120 158 200 248 299 353
#     4  10  22  39  60  92 127 160 198 238 291 361
#     4  10  21  35  55  85 121 158 198 238 285 351
#
# _framework density 21.789657999999999
#
# number of rings (size 3 to 8) (size 9 to 14) (size 15 to 20)
#    0.000    1.556    0.000    4.333    0.000   11.111 
#    0.000    2.222    0.000    0.000    0.000    0.000 
#    0.000    0.000    0.000    0.000    0.000    0.000 
#
# Total GULP energy -446096.773364 kJ/mol
# GULP energy per Si atom -12391.577038 kJ/mol
# Density = 2.174006 g / cm^3
# Si number density = 21.789658 Si / 1000 Ang^3
#
#
#
# Elastic Constant Matrix: (Units=GPa)
#
#
# Indices 1 2 3 4 5 6 
#
# 1 130.0963 48.3090 41.6907 -0.0003 -0.0001 0.0002
# 2 48.3090 56.5432 29.6213 -0.0004 -0.0001 -0.0001
# 3 41.6907 29.6213 139.6664 -0.0039 -0.0010 0.0005
# 4 -0.0003 -0.0004 -0.0039 26.0774 -0.0003 -0.0001
# 5 -0.0001 -0.0001 -0.0010 -0.0003 24.7245 -0.0001
# 6 0.0002 -0.0001 0.0005 -0.0001 -0.0001 12.1213
#
#
#
# Elastic Compliance Matrix: (Units=1/GPa)
#
#
# Indices 1 2 3 4 5 6 
#
# 1 0.011539 -0.009061 -0.001523 0.000000 0.000000 0.000000
# 2 -0.009061 0.027011 -0.003024 0.000000 0.000000 0.000001
# 3 -0.001523 -0.003024 0.008256 0.000001 0.000000 0.000000
# 4 0.000000 0.000000 0.000001 0.038347 0.000000 0.000000
# 5 0.000000 0.000000 0.000000 0.000000 0.040446 0.000000
# 6 0.000000 0.000001 0.000000 0.000000 0.000000 0.082500
#
#
# Mechanical properties :
#
#
# Convention : Reuss Voigt Hill
#
# Bulk Modulus (GPa) = 51.04456 62.83864 56.94160
# Shear Modulus (GPa) = 20.67439 26.36363 23.51901
#
# Velocity S-wave (km/s) = 3.08363 3.48216 3.28893
# Velocity P-wave (km/s) = 6.01292 6.71331 6.37275
#
# Compressibility (1/GPa) = 0.01959073
#
# Stress axis : x y z
#
# Youngs Moduli (GPa) = 86.66047 37.02150 121.12689
#
# Poissons Ratio (x) = 0.33546 0.18445
# Poissons Ratio (y) = 0.78524 0.36628
# Poissons Ratio (z) = 0.13196 0.11195
#
# Static dielectric constant tensor:
#      x y z
#    x 4.061040 0.000000 0.000000 
#    y 0.000000 3.767610 0.000000 
#    z 0.000000 0.000000 3.990390 
# 
# 
# High freq. dielectric constant tensor:
#      x y z
#    x 1.867160 0.000000 0.000000 
#    y 0.000000 1.847680 0.000000 
#    z 0.000000 0.000000 1.866590 
# 
# From -- ./inp_files/9180.got.cif
#   From: 2010.03.12/outbox.cif.g09.slc.cpg/sg74_5_cif.got.tgz:9180.got - 2010.04.16 15:46:19.
