data_PCOD8300543
_publ_section_title
;
Structure prediction by ZEFSAII (Michael W. Deem and Ramdas Pophale) SiO2 
 PCOD8300543
Probable space group: I M M A
;
_chemical_formula_sum "Si O2"
_cell_formula_units_Z 104
_cell_length_a 26.208174
_cell_length_b 22.184885
_cell_length_c 8.696668
_cell_angle_alpha 90.000000
_cell_angle_beta 90.000000
_cell_angle_gamma 90.000000
_cell_volume 5056.463029
_symmetry_space_group_name_H-M "I M M A"
_symmetry_group_IT_number 74
_symmetry_cell_setting 'orthorhombic'
loop_
_space_group_symop_operation_xyz
x,y,z
-x,1/2-y,z
x,-y,-z
-x,1/2+y,-z
-x,-y,-z
x,1/2+y,-z
-x,y,z
x,1/2-y,z
1/2+x,1/2+y,1/2+z
1/2-x,-y,1/2+z
1/2+x,1/2-y,1/2-z
1/2-x,y,1/2-z
1/2-x,1/2-y,1/2-z
1/2+x,y,1/2-z
1/2-x,1/2+y,1/2+z
1/2+x,-y,1/2+z
loop_
_atom_site_type_symbol
_atom_site_label
_atom_site_fract_x
_atom_site_fract_y
_atom_site_fract_z
Si Si1 0.408204 0.603549 0.312342
Si Si2 0.308457 0.930727 0.487396
Si Si3 0.556234 0.682813 0.581550
Si Si4 0.250000 0.141899 0.750000
Si Si5 0.152102 0.680602 0.416318
Si Si6 0.557045 0.985224 0.828217
Si Si7 0.863905 0.881450 0.732180
O O1 0.357950 0.574124 0.382433
O O2 0.440346 0.638533 0.438193
O O3 0.394516 0.649047 0.173538
O O4 0.442981 0.548216 0.261154
O O5 0.262693 0.897961 0.399334
O O6 0.317511 0.898659 0.653073
O O7 0.292198 0.000000 0.500000
O O8 0.500000 0.674811 0.657099
O O9 0.563550 0.750000 0.517625
O O10 0.600826 0.672351 0.704841
O O11 0.202225 0.181703 0.692803
O O12 0.138406 0.750000 0.454869
O O13 0.159992 0.641329 0.571960
O O14 0.500000 0.957349 0.813462
O O15 0.599354 0.939384 0.769210
O O16 0.572244 0.000000 0.000000
#
# Coordination Sequence:
#
# PCOD8300543 Si02
#       7
#    16  16  16   8  16  16  16
#     4  10  20  38  61  88 117 161 202 242 298 353
#     4  10  21  39  61  89 121 153 191 244 302 365
#     4  10  21  37  56  84 123 164 208 248 286 344
#     4  10  25  42  62  90 116 154 199 248 306 358
#     4  11  23  42  64  86 118 156 201 251 301 364
#     4  11  21  35  59  92 128 159 199 249 291 350
#     4  11  22  38  62  89 122 159 200 244 308 352
#
# _framework density 20.567737999999999
#
# number of rings (size 3 to 8) (size 9 to 14) (size 15 to 20)
#    0.000    1.538    3.077    2.077    0.000    1.846 
#    0.000    5.385    0.000    3.692    0.000    0.000 
#    0.000    0.000    0.000    0.000    0.000    0.000 
#
# Total GULP energy -644741.909697 kJ/mol
# GULP energy per Si atom -12398.882879 kJ/mol
# Density = 2.052092 g / cm^3
# Si number density = 20.567738 Si / 1000 Ang^3
#
#
#
# Elastic Constant Matrix: (Units=GPa)
#
#
# Indices 1 2 3 4 5 6 
#
# 1 52.1421 17.8608 14.8678 0.0000 0.0000 0.0000
# 2 17.8608 114.2335 25.8076 0.0000 0.0000 0.0000
# 3 14.8678 25.8076 97.9638 0.0000 0.0000 0.0000
# 4 0.0000 0.0000 0.0000 29.1017 0.0000 0.0000
# 5 0.0000 0.0000 0.0000 0.0000 -12.4275 0.0000
# 6 0.0000 0.0000 0.0000 0.0000 0.0000 20.8291
#
#
#
# Elastic Compliance Matrix: (Units=1/GPa)
#
#
# Indices 1 2 3 4 5 6 
#
# 1 0.020800 -0.002700 -0.002446 0.000000 0.000000 0.000000
# 2 -0.002700 0.009658 -0.002135 0.000000 0.000000 0.000000
# 3 -0.002446 -0.002135 0.011141 0.000000 0.000000 0.000000
# 4 0.000000 0.000000 0.000000 0.034362 0.000000 0.000000
# 5 0.000000 0.000000 0.000000 0.000000 -0.080467 0.000000
# 6 0.000000 0.000000 0.000000 0.000000 0.000000 0.048010
#
#
# Mechanical properties :
#
#
# Convention : Reuss Voigt Hill
#
# Bulk Modulus (GPa) = 36.98198 42.37908 39.68053
# Shear Modulus (GPa) = 74.53883 21.22086 47.87985
#
# Velocity S-wave (km/s) = 6.02655 3.21558 4.83008
# Velocity P-wave (km/s) = 8.15140 5.86822 7.10216
#
# Compressibility (1/GPa) = 0.02704020
#
# Stress axis : x y z
#
# Youngs Moduli (GPa) = 48.07580 103.53707 89.75547
#
# Poissons Ratio (x) = 0.27952 0.21951
# Poissons Ratio (y) = 0.12979 0.19160
# Poissons Ratio (z) = 0.11758 0.22102
#
# Static dielectric constant tensor:
#      x y z
#    x 3.558180 0.000000 0.000000 
#    y 0.000000 3.402120 0.000000 
#    z 0.000000 0.000000 3.793870 
# 
# 
# High freq. dielectric constant tensor:
#      x y z
#    x 1.794210 0.000000 0.000000 
#    y 0.000000 1.810330 0.000000 
#    z 0.000000 0.000000 1.807770 
# 
# From -- ./inp_files/15234.got.cif
#   From: 2010.03.12/outbox.cif.g09.slc.cpg/sg74_8_cif.got.tgz:15234.got - 2010.04.16 15:46:19.
