data_PCOD8300392
_publ_section_title
;
Structure prediction by ZEFSAII (Michael W. Deem and Ramdas Pophale) SiO2 
 PCOD8300392
Probable space group: I M M A
;
_chemical_formula_sum "Si O2"
_cell_formula_units_Z 104
_cell_length_a 17.019549
_cell_length_b 14.920913
_cell_length_c 20.123706
_cell_angle_alpha 90.000000
_cell_angle_beta 90.000000
_cell_angle_gamma 90.000000
_cell_volume 5110.358992
_symmetry_space_group_name_H-M "I M M A"
_symmetry_group_IT_number 74
_symmetry_cell_setting 'orthorhombic'
loop_
_space_group_symop_operation_xyz
x,y,z
-x,1/2-y,z
x,-y,-z
-x,1/2+y,-z
-x,-y,-z
x,1/2+y,-z
-x,y,z
x,1/2-y,z
1/2+x,1/2+y,1/2+z
1/2-x,-y,1/2+z
1/2+x,1/2-y,1/2-z
1/2-x,y,1/2-z
1/2-x,1/2-y,1/2-z
1/2+x,y,1/2-z
1/2-x,1/2+y,1/2+z
1/2+x,-y,1/2+z
loop_
_atom_site_type_symbol
_atom_site_label
_atom_site_fract_x
_atom_site_fract_y
_atom_site_fract_z
Si Si1 0.907246 0.854017 0.574229
Si Si2 0.686144 0.000000 0.000000
Si Si3 0.193997 0.847497 0.310148
Si Si4 0.198615 0.598177 0.084862
Si Si5 0.090927 0.525994 0.843534
Si Si6 0.087582 0.351527 0.035181
Si Si7 0.591416 0.478693 0.195014
O O1 0.878294 0.750000 0.573286
O O2 0.000000 0.857756 0.561892
O O3 0.866163 0.911829 0.515943
O O4 0.883952 0.899760 0.644471
O O5 0.743056 0.980776 0.061841
O O6 0.153573 0.750000 0.296433
O O7 0.250000 0.876244 0.250000
O O8 0.247033 0.831564 0.376314
O O9 0.131772 0.926523 0.321869
O O10 0.137405 0.563844 0.139761
O O11 0.150697 0.637783 0.022993
O O12 0.115798 0.598706 0.898459
O O13 0.112973 0.557087 0.768890
O O14 0.000000 0.502592 0.848003
O O15 0.083028 0.250000 0.057043
O O16 0.000000 0.384953 0.012502
O O17 0.500000 0.499349 0.188172
#
# Coordination Sequence:
#
# PCOD8300392 Si02
#       7
#    16   8  16  16  16  16  16
#     4  10  23  44  67  92 122 157 202 253 307 371
#     4  12  23  38  65  92 120 162 196 248 305 368
#     4  11  23  39  60  84 118 160 205 255 306 358
#     4  12  21  37  59  84 119 160 201 248 301 354
#     4  10  20  36  60  86 117 161 202 241 298 359
#     4  10  21  36  55  85 123 159 202 247 293 359
#     4  10  21  40  65  89 119 158 202 251 306 367
#
# _framework density 20.350821
#
# number of rings (size 3 to 8) (size 9 to 14) (size 15 to 20)
#    0.000    1.385    4.615    1.154    0.000    3.385 
#    0.000    3.077    0.000    1.385    0.000    0.000 
#    0.000    0.000    0.000    0.000    0.000    0.000 
#
# Total GULP energy -644409.492149 kJ/mol
# GULP energy per Si atom -12392.490234 kJ/mol
# Density = 2.030450 g / cm^3
# Si number density = 20.350821 Si / 1000 Ang^3
#
#
#
# Elastic Constant Matrix: (Units=GPa)
#
#
# Indices 1 2 3 4 5 6 
#
# 1 55.2791 39.8609 40.7304 0.0000 0.0000 0.0000
# 2 39.8609 127.4025 35.7420 0.0000 0.0000 0.0000
# 3 40.7304 35.7420 108.7279 0.0000 0.0000 0.0000
# 4 0.0000 0.0000 0.0000 24.8575 0.0000 0.0000
# 5 0.0000 0.0000 0.0000 0.0000 28.0931 0.0000
# 6 0.0000 0.0000 0.0000 0.0000 0.0000 20.8984
#
#
#
# Elastic Compliance Matrix: (Units=1/GPa)
#
#
# Indices 1 2 3 4 5 6 
#
# 1 0.029445 -0.006740 -0.008815 0.000000 0.000000 0.000000
# 2 -0.006740 0.010189 -0.000825 0.000000 0.000000 0.000000
# 3 -0.008815 -0.000825 0.012770 0.000000 0.000000 0.000000
# 4 0.000000 0.000000 0.000000 0.040229 0.000000 0.000000
# 5 0.000000 0.000000 0.000000 0.000000 0.035596 0.000000
# 6 0.000000 0.000000 0.000000 0.000000 0.000000 0.047851
#
#
# Mechanical properties :
#
#
# Convention : Reuss Voigt Hill
#
# Bulk Modulus (GPa) = 50.90052 58.23067 54.56559
# Shear Modulus (GPa) = 23.21403 26.44154 24.82779
#
# Velocity S-wave (km/s) = 3.38108 3.60847 3.49662
# Velocity P-wave (km/s) = 6.34886 6.78505 6.57058
#
# Compressibility (1/GPa) = 0.01964616
#
# Stress axis : x y z
#
# Youngs Moduli (GPa) = 33.96203 98.14359 78.30559
#
# Poissons Ratio (x) = 0.66144 0.69024
# Poissons Ratio (y) = 0.22889 0.06458
# Poissons Ratio (z) = 0.29937 0.08095
#
# Static dielectric constant tensor:
#      x y z
#    x 3.828580 0.000000 0.000000 
#    y 0.000000 3.568180 0.000000 
#    z 0.000000 0.000000 3.934860 
# 
# 
# High freq. dielectric constant tensor:
#      x y z
#    x 1.795470 0.000000 0.000000 
#    y 0.000000 1.785010 0.000000 
#    z 0.000000 0.000000 1.804420 
# 
# From -- ./inp_files/53077.got.cif
#   From: 2010.03.12/outbox.cif.g09.slc.cpg/sg74_27_cif.got.tgz:53077.got - 2010.04.16 15:46:19.
