data_PCOD8300756
_publ_section_title
;
Structure prediction by ZEFSAII (Michael W. Deem and Ramdas Pophale) SiO2 
 PCOD8300756
Probable space group: I M M A
;
_chemical_formula_sum "Si O2"
_cell_formula_units_Z 80
_cell_length_a 9.772358
_cell_length_b 15.134183
_cell_length_c 27.024745
_cell_angle_alpha 90.000000
_cell_angle_beta 90.000000
_cell_angle_gamma 90.000000
_cell_volume 3996.869369
_symmetry_space_group_name_H-M "I M M A"
_symmetry_group_IT_number 74
_symmetry_cell_setting 'orthorhombic'
loop_
_space_group_symop_operation_xyz
x,y,z
-x,1/2-y,z
x,-y,-z
-x,1/2+y,-z
-x,-y,-z
x,1/2+y,-z
-x,y,z
x,1/2-y,z
1/2+x,1/2+y,1/2+z
1/2-x,-y,1/2+z
1/2+x,1/2-y,1/2-z
1/2-x,y,1/2-z
1/2-x,1/2-y,1/2-z
1/2+x,y,1/2-z
1/2-x,1/2+y,1/2+z
1/2+x,-y,1/2+z
loop_
_atom_site_type_symbol
_atom_site_label
_atom_site_fract_x
_atom_site_fract_y
_atom_site_fract_z
Si Si1 0.247019 0.847905 0.076764
Si Si2 0.350400 0.466831 0.403887
Si Si3 0.338444 0.005261 0.293365
Si Si4 0.151111 0.849018 0.317948
Si Si5 0.844271 0.849140 0.531715
O O1 0.174880 0.750000 0.075230
O O2 0.351775 0.851669 0.122343
O O3 0.140548 0.928134 0.084428
O O4 0.330410 0.864676 0.026638
O O5 0.500000 0.427595 0.415395
O O6 0.313846 0.448121 0.346278
O O7 0.242833 0.419354 0.438340
O O8 0.500000 0.001280 0.280729
O O9 0.250000 0.055141 0.250000
O O10 0.274031 0.906930 0.295694
O O11 0.177019 0.750000 0.298990
O O12 0.000000 0.882768 0.300796
O O13 0.797378 0.750000 0.545964
O O14 0.000000 0.864946 0.547035
#
# Coordination Sequence:
#
# PCOD8300756 Si02
#       5
#    16  16  16  16  16
#     4   9  18  32  52  80 114 149 184 218 251 298
#     4  10  22  37  54  80 110 140 177 221 270 320
#     4  10  21  36  53  73  98 130 171 218 268 321
#     4   9  17  30  49  73 103 140 179 216 254 299
#     4  10  21  36  55  80 109 143 183 223 263 311
#
# _framework density 20.015666
#
# number of rings (size 3 to 8) (size 9 to 14) (size 15 to 20)
#    0.000    2.400    0.000    1.800    0.000   11.200 
#    0.000    6.000    0.000    0.600    0.000    0.000 
#    0.000    0.000    0.000    0.000    0.000    0.000 
#
# Total GULP energy -495599.686656 kJ/mol
# GULP energy per Si atom -12389.992166 kJ/mol
# Density = 1.997011 g / cm^3
# Si number density = 20.015666 Si / 1000 Ang^3
#
#
#
# Elastic Constant Matrix: (Units=GPa)
#
#
# Indices 1 2 3 4 5 6 
#
# 1 101.5176 23.1138 33.1401 0.0000 0.0000 0.0000
# 2 23.1138 53.6374 32.6768 0.0000 0.0000 0.0000
# 3 33.1401 32.6768 99.4622 0.0000 0.0000 0.0000
# 4 0.0000 0.0000 0.0000 19.2545 0.0000 0.0000
# 5 0.0000 0.0000 0.0000 0.0000 23.5032 0.0000
# 6 0.0000 0.0000 0.0000 0.0000 0.0000 13.3088
#
#
#
# Elastic Compliance Matrix: (Units=1/GPa)
#
#
# Indices 1 2 3 4 5 6 
#
# 1 0.011495 -0.003276 -0.002754 0.000000 0.000000 0.000000
# 2 -0.003276 0.024243 -0.006873 0.000000 0.000000 0.000000
# 3 -0.002754 -0.006873 0.013230 0.000000 0.000000 0.000000
# 4 0.000000 0.000000 0.000000 0.051936 0.000000 0.000000
# 5 0.000000 0.000000 0.000000 0.000000 0.042547 0.000000
# 6 0.000000 0.000000 0.000000 0.000000 0.000000 0.075138
#
#
# Mechanical properties :
#
#
# Convention : Reuss Voigt Hill
#
# Bulk Modulus (GPa) = 43.17435 48.05317 45.61376
# Shear Modulus (GPa) = 19.83220 22.25907 21.04564
#
# Velocity S-wave (km/s) = 3.15117 3.33841 3.24614
# Velocity P-wave (km/s) = 5.90397 6.23858 6.07358
#
# Compressibility (1/GPa) = 0.02316190
#
# Stress axis : x y z
#
# Youngs Moduli (GPa) = 86.99135 41.24975 75.58758
#
# Poissons Ratio (x) = 0.13513 0.20816
# Poissons Ratio (y) = 0.28498 0.51951
# Poissons Ratio (z) = 0.23957 0.28351
#
# Static dielectric constant tensor:
#      x y z
#    x 3.459570 0.000000 0.000000 
#    y 0.000000 3.435120 0.000000 
#    z 0.000000 0.000000 3.904380 
# 
# 
# High freq. dielectric constant tensor:
#      x y z
#    x 1.773650 0.000000 0.000000 
#    y 0.000000 1.743750 0.000000 
#    z 0.000000 0.000000 1.796400 
# 
# From -- ./inp_files/70122.got.cif
#   From: 2010.03.12/outbox.cif.g09.slc.cpg/sg74_36_cif.got.tgz:70122.got - 2010.04.16 15:46:19.
