data_PCOD8300274
_publ_section_title
;
Structure prediction by ZEFSAII (Michael W. Deem and Ramdas Pophale) SiO2 
 PCOD8300274
Probable space group: I M M A
;
_chemical_formula_sum "Si O2"
_cell_formula_units_Z 64
_cell_length_a 27.249878
_cell_length_b 25.942874
_cell_length_c 4.991438
_cell_angle_alpha 90.000000
_cell_angle_beta 90.000000
_cell_angle_gamma 90.000000
_cell_volume 3528.647936
_symmetry_space_group_name_H-M "I M M A"
_symmetry_group_IT_number 74
_symmetry_cell_setting 'orthorhombic'
loop_
_space_group_symop_operation_xyz
x,y,z
-x,1/2-y,z
x,-y,-z
-x,1/2+y,-z
-x,-y,-z
x,1/2+y,-z
-x,y,z
x,1/2-y,z
1/2+x,1/2+y,1/2+z
1/2-x,-y,1/2+z
1/2+x,1/2-y,1/2-z
1/2-x,y,1/2-z
1/2-x,1/2-y,1/2-z
1/2+x,y,1/2-z
1/2-x,1/2+y,1/2+z
1/2+x,-y,1/2+z
loop_
_atom_site_type_symbol
_atom_site_label
_atom_site_fract_x
_atom_site_fract_y
_atom_site_fract_z
Si Si1 0.250000 0.035140 0.250000
Si Si2 0.344438 0.598058 0.600039
Si Si3 0.783340 0.692020 0.008758
Si Si4 0.500000 0.962838 0.245035
Si Si5 0.602920 0.058956 0.908924
O O1 0.295985 0.071570 0.291165
O O2 0.237292 0.000000 0.500000
O O3 0.332035 0.657447 0.531347
O O4 0.359321 0.568801 0.329914
O O5 0.386036 0.594922 0.832527
O O6 0.801490 0.750000 0.075459
O O7 0.750000 0.691511 0.750000
O O8 0.750000 0.669866 0.250000
O O9 0.549088 0.928167 0.216951
O O10 0.500000 0.000000 0.500000
O O11 0.500000 0.000000 0.000000
O O12 0.607611 0.000000 0.000000
#
# Coordination Sequence:
#
# PCOD8300274 Si02
#       5
#     8  16  16   8  16
#     4  12  24  32  45  72 113 148 170 198 252 320
#     4  12  22  35  53  78 107 144 180 217 266 319
#     4  10  21  38  56  75 102 140 185 230 265 308
#     4  10  20  36  56  76 105 144 185 228 268 304
#     4  11  22  36  53  79 109 142 181 221 262 322
#
# _framework density 18.137257999999999
#
# number of rings (size 3 to 8) (size 9 to 14) (size 15 to 20)
#    0.000    1.000    1.250    9.000    1.750    0.000 
#    0.000    0.000    0.000    0.000    0.000    5.250 
#    0.000    0.000    0.000    0.000    0.000    0.000 
#
# Total GULP energy -396795.815612 kJ/mol
# GULP energy per Si atom -12399.869238 kJ/mol
# Density = 1.809598 g / cm^3
# Si number density = 18.137258 Si / 1000 Ang^3
#
#
#
# Elastic Constant Matrix: (Units=GPa)
#
#
# Indices 1 2 3 4 5 6 
#
# 1 95.0158 53.8566 38.2727 0.0000 0.0000 0.0000
# 2 53.8566 86.4023 34.1291 0.0000 0.0000 0.0000
# 3 38.2727 34.1291 134.5247 0.0000 0.0000 0.0000
# 4 0.0000 0.0000 0.0000 24.0109 0.0000 0.0000
# 5 0.0000 0.0000 0.0000 0.0000 35.4648 0.0000
# 6 0.0000 0.0000 0.0000 0.0000 0.0000 11.1235
#
#
#
# Elastic Compliance Matrix: (Units=1/GPa)
#
#
# Indices 1 2 3 4 5 6 
#
# 1 0.016932 -0.009615 -0.002378 0.000000 0.000000 0.000000
# 2 -0.009615 0.018323 -0.001913 0.000000 0.000000 0.000000
# 3 -0.002378 -0.001913 0.008595 0.000000 0.000000 0.000000
# 4 0.000000 0.000000 0.000000 0.041648 0.000000 0.000000
# 5 0.000000 0.000000 0.000000 0.000000 0.028197 0.000000
# 6 0.000000 0.000000 0.000000 0.000000 0.000000 0.089900
#
#
# Mechanical properties :
#
#
# Convention : Reuss Voigt Hill
#
# Bulk Modulus (GPa) = 62.34987 63.16217 62.75602
# Shear Modulus (GPa) = 21.11899 26.76545 23.94222
#
# Velocity S-wave (km/s) = 3.41603 3.84567 3.63720
# Velocity P-wave (km/s) = 7.07180 7.39047 7.23289
#
# Compressibility (1/GPa) = 0.01603853
#
# Stress axis : x y z
#
# Youngs Moduli (GPa) = 59.05829 54.57704 116.34078
#
# Poissons Ratio (x) = 0.52476 0.27665
# Poissons Ratio (y) = 0.56785 0.22256
# Poissons Ratio (z) = 0.14044 0.10440
#
# Static dielectric constant tensor:
#      x y z
#    x 0.936270 0.000000 0.000000 
#    y 0.000000 3.422640 0.000000 
#    z 0.000000 0.000000 3.641030 
# 
# 
# High freq. dielectric constant tensor:
#      x y z
#    x 1.690730 0.000000 0.000000 
#    y 0.000000 1.669530 0.000000 
#    z 0.000000 0.000000 1.734880 
# 
# From -- ./inp_files/3653.got.cif
#   From: 2010.03.12/outbox.cif.g09.slc.cpg/sg74_2_cif.got.tgz:3653.got - 2010.04.16 15:46:19.
