data_PCOD8300567
_publ_section_title
;
Structure prediction by ZEFSAII (Michael W. Deem and Ramdas Pophale) SiO2 
 PCOD8300567
Probable space group: I M M A
;
_chemical_formula_sum "Si O2"
_cell_formula_units_Z 84
_cell_length_a 15.907217
_cell_length_b 14.629605
_cell_length_c 17.941118
_cell_angle_alpha 90.000000
_cell_angle_beta 90.000000
_cell_angle_gamma 90.000000
_cell_volume 4175.190623
_symmetry_space_group_name_H-M "I M M A"
_symmetry_group_IT_number 74
_symmetry_cell_setting 'orthorhombic'
loop_
_space_group_symop_operation_xyz
x,y,z
-x,1/2-y,z
x,-y,-z
-x,1/2+y,-z
-x,-y,-z
x,1/2+y,-z
-x,y,z
x,1/2-y,z
1/2+x,1/2+y,1/2+z
1/2-x,-y,1/2+z
1/2+x,1/2-y,1/2-z
1/2-x,y,1/2-z
1/2-x,1/2-y,1/2-z
1/2+x,y,1/2-z
1/2-x,1/2+y,1/2+z
1/2+x,-y,1/2+z
loop_
_atom_site_type_symbol
_atom_site_label
_atom_site_fract_x
_atom_site_fract_y
_atom_site_fract_z
Si Si1 0.265902 0.750000 0.932975
Si Si2 0.189335 0.750000 0.404009
Si Si3 0.905199 0.567574 0.810949
Si Si4 0.500000 0.750000 0.081890
Si Si5 0.152255 0.908081 0.645281
Si Si6 0.589604 0.750000 0.592660
Si Si7 0.000000 0.903485 0.537283
Si Si8 0.238920 0.071658 0.835881
O O1 0.276616 0.836184 0.878045
O O2 0.169130 0.750000 0.962522
O O3 0.323754 0.750000 0.006381
O O4 0.091183 0.750000 0.372091
O O5 0.248349 0.835348 0.381477
O O6 0.870897 0.601400 0.731462
O O7 0.905078 0.658249 0.859350
O O8 0.848996 0.484315 0.845560
O O9 0.000000 0.528489 0.803021
O O10 0.500000 0.660836 0.032979
O O11 0.077523 0.885701 0.590331
O O12 0.186102 0.009580 0.632317
O O13 0.500000 0.750000 0.549102
O O14 0.000000 0.000000 0.500000
O O15 0.250000 0.097116 0.750000
#
# Coordination Sequence:
#
# PCOD8300567 Si02
#       8
#     8   8  16   4  16   8   8  16
#     4  12  23  37  62  90 130 163 193 244 316 389
#     4  12  25  43  61  86 122 171 212 251 306 367
#     4  10  20  38  63  92 121 156 202 261 310 363
#     4  12  24  40  58  94 134 168 200 240 298 390
#     4  11  21  36  60  91 126 161 196 243 306 376
#     4  10  21  38  62  91 124 154 202 252 308 366
#     4  12  22  36  56  90 132 160 194 234 297 384
#     4  10  23  41  63  85 118 160 212 258 299 355
#
# _framework density 20.118842000000001
#
# number of rings (size 3 to 8) (size 9 to 14) (size 15 to 20)
#    0.000    1.143    4.762    2.000    0.000    0.762 
#    1.714    1.429    0.000    2.286    0.000    0.000 
#    0.000    0.000    0.000    0.000    0.000    0.000 
#
# Total GULP energy -520325.160725 kJ/mol
# GULP energy per Si atom -12388.694303 kJ/mol
# Density = 2.007305 g / cm^3
# Si number density = 20.118842 Si / 1000 Ang^3
#
#
#
# Elastic Constant Matrix: (Units=GPa)
#
#
# Indices 1 2 3 4 5 6 
#
# 1 137.5843 27.9815 15.8273 0.0000 0.0000 0.0000
# 2 27.9815 122.9221 26.0120 0.0000 0.0000 0.0000
# 3 15.8273 26.0120 40.5712 0.0000 0.0000 0.0000
# 4 0.0000 0.0000 0.0000 30.4312 0.0000 0.0000
# 5 0.0000 0.0000 0.0000 0.0000 27.7127 0.0000
# 6 0.0000 0.0000 0.0000 0.0000 0.0000 36.7583
#
#
#
# Elastic Compliance Matrix: (Units=1/GPa)
#
#
# Indices 1 2 3 4 5 6 
#
# 1 0.007787 -0.001307 -0.002200 0.000000 0.000000 0.000000
# 2 -0.001307 0.009632 -0.005665 0.000000 0.000000 0.000000
# 3 -0.002200 -0.005665 0.029138 0.000000 0.000000 0.000000
# 4 0.000000 0.000000 0.000000 0.032861 0.000000 0.000000
# 5 0.000000 0.000000 0.000000 0.000000 0.036085 0.000000
# 6 0.000000 0.000000 0.000000 0.000000 0.000000 0.027205
#
#
# Mechanical properties :
#
#
# Convention : Reuss Voigt Hill
#
# Bulk Modulus (GPa) = 35.44500 48.96881 42.20690
# Shear Modulus (GPa) = 29.33302 34.39757 31.86529
#
# Velocity S-wave (km/s) = 3.82250 4.13936 3.98408
# Velocity P-wave (km/s) = 6.09410 6.87302 6.49525
#
# Compressibility (1/GPa) = 0.02821272
#
# Stress axis : x y z
#
# Youngs Moduli (GPa) = 128.41636 103.82440 34.31889
#
# Poissons Ratio (x) = 0.13571 0.07550
# Poissons Ratio (y) = 0.16786 0.19443
# Poissons Ratio (z) = 0.28249 0.58820
#
# Static dielectric constant tensor:
#      x y z
#    x 4.141350 0.000000 0.000000 
#    y 0.000000 3.004600 0.000000 
#    z 0.000000 0.000000 3.490910 
# 
# 
# High freq. dielectric constant tensor:
#      x y z
#    x 1.805060 0.000000 0.000000 
#    y 0.000000 1.793050 0.000000 
#    z 0.000000 0.000000 1.753130 
# 
# From -- ./inp_files/51805.got.cif
#   From: 2010.03.12/outbox.cif.g09.slc.cpg/sg74_26_cif.got.tgz:51805.got - 2010.04.16 15:46:19.
