data_PCOD8300439
_publ_section_title
;
Structure prediction by ZEFSAII (Michael W. Deem and Ramdas Pophale) SiO2 
 PCOD8300439
Probable space group: I M M A
;
_chemical_formula_sum "Si O2"
_cell_formula_units_Z 64
_cell_length_a 13.279020
_cell_length_b 10.298893
_cell_length_c 24.205635
_cell_angle_alpha 90.000000
_cell_angle_beta 90.000000
_cell_angle_gamma 90.000000
_cell_volume 3310.343426
_symmetry_space_group_name_H-M "I M M A"
_symmetry_group_IT_number 74
_symmetry_cell_setting 'orthorhombic'
loop_
_space_group_symop_operation_xyz
x,y,z
-x,1/2-y,z
x,-y,-z
-x,1/2+y,-z
-x,-y,-z
x,1/2+y,-z
-x,y,z
x,1/2-y,z
1/2+x,1/2+y,1/2+z
1/2-x,-y,1/2+z
1/2+x,1/2-y,1/2-z
1/2-x,y,1/2-z
1/2-x,1/2-y,1/2-z
1/2+x,y,1/2-z
1/2-x,1/2+y,1/2+z
1/2+x,-y,1/2+z
loop_
_atom_site_type_symbol
_atom_site_label
_atom_site_fract_x
_atom_site_fract_y
_atom_site_fract_z
Si Si1 0.763606 0.481931 0.437815
Si Si2 0.610243 0.250000 0.698782
Si Si3 0.334241 0.250000 0.580091
Si Si4 0.388165 0.598693 0.837691
Si Si5 0.250000 0.539643 0.250000
Si Si6 0.386121 0.750000 0.543350
O O1 0.804383 0.500000 0.500000
O O2 0.733659 0.621991 0.414779
O O3 0.853639 0.429558 0.400243
O O4 0.670403 0.379884 0.436201
O O5 0.500000 0.250000 0.726527
O O6 0.593351 0.250000 0.632843
O O7 0.669294 0.123061 0.717053
O O8 0.395581 0.250000 0.523081
O O9 0.500000 0.537928 0.829379
O O10 0.393956 0.750000 0.827887
O O11 0.308501 0.546202 0.794052
O O12 0.500000 0.750000 0.567405
#
# Coordination Sequence:
#
# PCOD8300439 Si02
#       6
#    16   8   8  16   8   8
#     4  10  21  39  62  90 126 158 201 252 300 362
#     4  11  22  36  61  89 118 159 198 242 304 368
#     4  10  20  37  58  89 125 157 196 244 299 359
#     4  11  23  42  66  88 117 161 207 255 308 363
#     4  11  23  42  58  86 125 153 202 258 304 360
#     4  10  21  37  60  89 125 164 201 246 302 363
#
# _framework density 19.333341000000001
#
# number of rings (size 3 to 8) (size 9 to 14) (size 15 to 20)
#    0.000    1.500    3.750    1.500    0.000    6.000 
#    0.000    1.875    0.000    0.000    0.000    0.000 
#    0.000    0.000    0.000    0.000    0.000    0.000 
#
# Total GULP energy -396767.529793 kJ/mol
# GULP energy per Si atom -12398.985306 kJ/mol
# Density = 1.928934 g / cm^3
# Si number density = 19.333341 Si / 1000 Ang^3
#
#
#
# Elastic Constant Matrix: (Units=GPa)
#
#
# Indices 1 2 3 4 5 6 
#
# 1 155.9019 53.6513 63.6140 0.0000 0.0000 0.0000
# 2 53.6513 114.6446 33.5908 0.0000 0.0000 0.0000
# 3 63.6140 33.5908 106.9801 0.0000 0.0000 0.0000
# 4 0.0000 0.0000 0.0000 -190.7103 0.0000 0.0000
# 5 0.0000 0.0000 0.0000 0.0000 16.1288 0.0000
# 6 0.0000 0.0000 0.0000 0.0000 0.0000 18.5514
#
#
#
# Elastic Compliance Matrix: (Units=1/GPa)
#
#
# Indices 1 2 3 4 5 6 
#
# 1 0.009330 -0.003018 -0.004600 0.000000 0.000000 0.000000
# 2 -0.003018 0.010583 -0.001528 0.000000 0.000000 0.000000
# 3 -0.004600 -0.001528 0.012563 0.000000 0.000000 0.000000
# 4 0.000000 0.000000 0.000000 -0.005244 0.000000 0.000000
# 5 0.000000 0.000000 0.000000 0.000000 0.062001 0.000000
# 6 0.000000 0.000000 0.000000 0.000000 0.000000 0.053904
#
#
# Mechanical properties :
#
#
# Convention : Reuss Voigt Hill
#
# Bulk Modulus (GPa) = 70.51035 75.47097 72.99066
# Shear Modulus (GPa) = 30.09176 -16.09467 6.99855
#
# Velocity S-wave (km/s) = 3.94949 -2.88841 1.90468
# Velocity P-wave (km/s) = 7.57285 5.29127 6.53244
#
# Compressibility (1/GPa) = 0.01418232
#
# Stress axis : x y z
#
# Youngs Moduli (GPa) = 107.17976 94.49208 79.60008
#
# Poissons Ratio (x) = 0.28522 0.36618
# Poissons Ratio (y) = 0.32352 0.12163
# Poissons Ratio (z) = 0.49305 0.14439
#
# Static dielectric constant tensor:
#      x y z
#    x 3.567440 0.000000 0.000000 
#    y 0.000000 3.631680 0.000000 
#    z 0.000000 0.000000 3.585160 
# 
# 
# High freq. dielectric constant tensor:
#      x y z
#    x 1.743110 0.000000 0.000000 
#    y 0.000000 1.764830 0.000000 
#    z 0.000000 0.000000 1.758020 
# 
# From -- ./inp_files/59559.got.cif
#   From: 2010.03.12/outbox.cif.g09.slc.cpg/sg74_30_cif.got.tgz:59559.got - 2010.04.16 15:46:19.
