data_PCOD8300428
_publ_section_title
;
Structure prediction by ZEFSAII (Michael W. Deem and Ramdas Pophale) SiO2 
 PCOD8300428
Probable space group: I M M A
;
_chemical_formula_sum "Si O2"
_cell_formula_units_Z 104
_cell_length_a 19.925236
_cell_length_b 26.337249
_cell_length_c 9.258280
_cell_angle_alpha 90.000000
_cell_angle_beta 90.000000
_cell_angle_gamma 90.000000
_cell_volume 4858.522237
_symmetry_space_group_name_H-M "I M M A"
_symmetry_group_IT_number 74
_symmetry_cell_setting 'orthorhombic'
loop_
_space_group_symop_operation_xyz
x,y,z
-x,1/2-y,z
x,-y,-z
-x,1/2+y,-z
-x,-y,-z
x,1/2+y,-z
-x,y,z
x,1/2-y,z
1/2+x,1/2+y,1/2+z
1/2-x,-y,1/2+z
1/2+x,1/2-y,1/2-z
1/2-x,y,1/2-z
1/2-x,1/2-y,1/2-z
1/2+x,y,1/2-z
1/2-x,1/2+y,1/2+z
1/2+x,-y,1/2+z
loop_
_atom_site_type_symbol
_atom_site_label
_atom_site_fract_x
_atom_site_fract_y
_atom_site_fract_z
Si Si1 0.750000 0.477076 0.750000
Si Si2 0.746284 0.307210 0.005801
Si Si3 0.423773 0.576882 0.392547
Si Si4 0.077238 0.391179 0.383048
Si Si5 0.354647 0.192947 0.272064
Si Si6 0.667233 0.887782 0.152678
Si Si7 0.877989 0.470807 0.178665
O O1 0.706831 0.441278 0.858465
O O2 0.800302 0.512687 0.841014
O O3 0.746986 0.250000 0.943752
O O4 0.696738 0.311511 0.140430
O O5 0.819194 0.321238 0.074620
O O6 0.723762 0.344096 0.873957
O O7 0.500000 0.598455 0.390842
O O8 0.372477 0.614466 0.306633
O O9 0.424457 0.520783 0.320886
O O10 0.397411 0.569519 0.555084
O O11 0.085952 0.346207 0.264774
O O12 0.109977 0.379234 0.535574
O O13 0.111925 0.442832 0.329622
O O14 0.000000 0.400863 0.409841
O O15 0.383898 0.250000 0.281487
#
# Coordination Sequence:
#
# PCOD8300428 Si02
#       7
#     8  16  16  16  16  16  16
#     4  10  24  40  55  82 115 148 194 242 296 352
#     4   8  15  32  55  82 114 147 186 228 280 336
#     4  10  20  37  56  75 107 151 193 226 276 351
#     4  11  22  36  57  86 114 143 187 239 289 337
#     4   8  16  31  54  82 114 150 184 227 279 335
#     4  10  22  36  57  85 115 146 182 238 291 335
#     4  10  22  37  57  78 106 149 190 235 283 340
#
# _framework density 21.405684999999998
#
# number of rings (size 3 to 8) (size 9 to 14) (size 15 to 20)
#    0.000    2.462    0.000    3.231    0.000   13.846 
#    0.000    4.231    0.000    2.308    0.000    0.000 
#    0.000    0.000    0.000    0.000    0.000    0.000 
#
# Total GULP energy -644350.231771 kJ/mol
# GULP energy per Si atom -12391.350611 kJ/mol
# Density = 2.135697 g / cm^3
# Si number density = 21.405685 Si / 1000 Ang^3
#
#
#
# Elastic Constant Matrix: (Units=GPa)
#
#
# Indices 1 2 3 4 5 6 
#
# 1 122.4284 23.9148 33.5285 0.0000 0.0000 0.0000
# 2 23.9148 57.8284 31.0705 0.0000 0.0000 0.0000
# 3 33.5285 31.0705 70.8888 0.0000 0.0000 0.0000
# 4 0.0000 0.0000 0.0000 35.8170 0.0000 0.0000
# 5 0.0000 0.0000 0.0000 0.0000 28.9494 0.0000
# 6 0.0000 0.0000 0.0000 0.0000 0.0000 24.1480
#
#
#
# Elastic Compliance Matrix: (Units=1/GPa)
#
#
# Indices 1 2 3 4 5 6 
#
# 1 0.009556 -0.001993 -0.003646 0.000000 0.000000 0.000000
# 2 -0.001993 0.023035 -0.009154 0.000000 0.000000 0.000000
# 3 -0.003646 -0.009154 0.019843 0.000000 0.000000 0.000000
# 4 0.000000 0.000000 0.000000 0.027920 0.000000 0.000000
# 5 0.000000 0.000000 0.000000 0.000000 0.034543 0.000000
# 6 0.000000 0.000000 0.000000 0.000000 0.000000 0.041411
#
#
# Mechanical properties :
#
#
# Convention : Reuss Voigt Hill
#
# Bulk Modulus (GPa) = 43.76629 47.57481 45.67055
# Shear Modulus (GPa) = 25.83856 28.62500 27.23178
#
# Velocity S-wave (km/s) = 3.47809 3.66083 3.57063
# Velocity P-wave (km/s) = 6.05144 6.33581 6.19526
#
# Compressibility (1/GPa) = 0.02284863
#
# Stress axis : x y z
#
# Youngs Moduli (GPa) = 104.64777 43.41268 50.39510
#
# Poissons Ratio (x) = 0.08651 0.18375
# Poissons Ratio (y) = 0.20853 0.46130
# Poissons Ratio (z) = 0.38157 0.39738
#
# Static dielectric constant tensor:
#      x y z
#    x 3.840830 0.000000 0.000000 
#    y 0.000000 3.905900 0.000000 
#    z 0.000000 0.000000 3.745530 
# 
# 
# High freq. dielectric constant tensor:
#      x y z
#    x 1.831120 0.000000 0.000000 
#    y 0.000000 1.822110 0.000000 
#    z 0.000000 0.000000 1.830640 
# 
# From -- ./inp_files/12785.got.cif
#   From: 2010.03.12/outbox.cif.g09.slc.cpg/sg74_7_cif.got.tgz:12785.got - 2010.04.16 15:46:19.
