data_PCOD8300143
_publ_section_title
;
Structure prediction by ZEFSAII (Michael W. Deem and Ramdas Pophale) SiO2 
 PCOD8300143
Probable space group: I M M A
;
_chemical_formula_sum "Si O2"
_cell_formula_units_Z 88
_cell_length_a 22.521175
_cell_length_b 8.582671
_cell_length_c 24.427876
_cell_angle_alpha 90.000000
_cell_angle_beta 90.000000
_cell_angle_gamma 90.000000
_cell_volume 4721.708991
_symmetry_space_group_name_H-M "I M M A"
_symmetry_group_IT_number 74
_symmetry_cell_setting 'orthorhombic'
loop_
_space_group_symop_operation_xyz
x,y,z
-x,1/2-y,z
x,-y,-z
-x,1/2+y,-z
-x,-y,-z
x,1/2+y,-z
-x,y,z
x,1/2-y,z
1/2+x,1/2+y,1/2+z
1/2-x,-y,1/2+z
1/2+x,1/2-y,1/2-z
1/2-x,y,1/2-z
1/2-x,1/2-y,1/2-z
1/2+x,y,1/2-z
1/2-x,1/2+y,1/2+z
1/2+x,-y,1/2+z
loop_
_atom_site_type_symbol
_atom_site_label
_atom_site_fract_x
_atom_site_fract_y
_atom_site_fract_z
Si Si1 0.500000 0.066737 0.560320
Si Si2 0.889397 0.432249 0.124646
Si Si3 0.069054 0.069377 0.767579
Si Si4 0.567796 0.068362 0.153760
Si Si5 0.155764 0.434357 0.442208
Si Si6 0.783831 0.065332 0.941082
O O1 0.500000 0.250000 0.556388
O O2 0.500000 0.000000 0.500000
O O3 0.441811 0.015110 0.592191
O O4 0.893487 0.250000 0.113871
O O5 0.894131 0.468607 0.189004
O O6 0.826554 0.496818 0.104924
O O7 0.081259 0.250000 0.778515
O O8 0.000000 0.027136 0.774318
O O9 0.090488 0.024919 0.706813
O O10 0.500000 0.024488 0.139584
O O11 0.574552 0.250000 0.166568
O O12 0.607410 0.017029 0.102581
O O13 0.132769 0.500000 0.500000
O O14 0.164702 0.250000 0.446491
O O15 0.217703 0.512668 0.425755
O O16 0.788099 0.250000 0.942311
O O17 0.803421 0.000000 0.000000
#
# Coordination Sequence:
#
# PCOD8300143 Si02
#       6
#     8  16  16  16  16  16
#     4  12  24  38  54  80 114 146 187 236 283 328
#     4  12  23  37  57  81 110 148 189 231 281 333
#     4  10  20  35  56  82 113 147 186 232 279 332
#     4   9  19  36  58  84 115 149 185 226 277 336
#     4  10  20  36  58  84 114 148 186 228 276 336
#     4  11  22  38  58  80 110 147 188 233 280 336
#
# _framework density 18.637319999999999
#
# number of rings (size 3 to 8) (size 9 to 14) (size 15 to 20)
#    0.000    1.455    0.909    6.818    0.000    2.545 
#    0.000    0.909    0.000    5.455    0.000    0.000 
#    0.000    0.000    0.000    0.000    0.000    0.000 
#
# Total GULP energy -545838.289331 kJ/mol
# GULP energy per Si atom -12405.415667 kJ/mol
# Density = 1.859490 g / cm^3
# Si number density = 18.637320 Si / 1000 Ang^3
#
#
#
# Elastic Constant Matrix: (Units=GPa)
#
#
# Indices 1 2 3 4 5 6 
#
# 1 87.6333 40.6371 76.0537 0.0000 0.0000 0.0000
# 2 40.6371 131.3356 55.0292 0.0000 0.0000 0.0000
# 3 76.0537 55.0292 141.4724 0.0000 0.0000 0.0000
# 4 0.0000 0.0000 0.0000 36.0679 0.0000 0.0000
# 5 0.0000 0.0000 0.0000 0.0000 32.5644 0.0000
# 6 0.0000 0.0000 0.0000 0.0000 0.0000 24.5374
#
#
#
# Elastic Compliance Matrix: (Units=1/GPa)
#
#
# Indices 1 2 3 4 5 6 
#
# 1 0.021912 -0.002203 -0.010923 0.000000 0.000000 0.000000
# 2 -0.002203 0.009318 -0.002440 0.000000 0.000000 0.000000
# 3 -0.010923 -0.002440 0.013890 0.000000 0.000000 0.000000
# 4 0.000000 0.000000 0.000000 0.027725 0.000000 0.000000
# 5 0.000000 0.000000 0.000000 0.000000 0.030708 0.000000
# 6 0.000000 0.000000 0.000000 0.000000 0.000000 0.040754
#
#
# Mechanical properties :
#
#
# Convention : Reuss Voigt Hill
#
# Bulk Modulus (GPa) = 71.49091 78.20903 74.84997
# Shear Modulus (GPa) = 27.76189 31.21537 29.48863
#
# Velocity S-wave (km/s) = 3.86370 4.09698 3.98205
# Velocity P-wave (km/s) = 7.63849 8.02714 7.83523
#
# Compressibility (1/GPa) = 0.01398779
#
# Stress axis : x y z
#
# Youngs Moduli (GPa) = 45.63633 107.31677 71.99661
#
# Poissons Ratio (x) = 0.23646 0.78640
# Poissons Ratio (y) = 0.10056 0.17567
# Poissons Ratio (z) = 0.49847 0.26186
#
# Static dielectric constant tensor:
#      x y z
#    x 3.355550 0.000000 0.000000 
#    y 0.000000 3.579940 0.000000 
#    z 0.000000 0.000000 3.499370 
# 
# 
# High freq. dielectric constant tensor:
#      x y z
#    x 1.712940 0.000000 0.000000 
#    y 0.000000 1.740370 0.000000 
#    z 0.000000 0.000000 1.729110 
# 
# From -- ./inp_files/54494.got.cif
#   From: 2010.03.12/outbox.cif.g09.slc.cpg/sg74_28_cif.got.tgz:54494.got - 2010.04.16 15:46:19.
