data_PCOD8300913
_publ_section_title
;
Structure prediction by ZEFSAII (Michael W. Deem and Ramdas Pophale) SiO2 
 PCOD8300913
Probable space group: I M M A
;
_chemical_formula_sum "Si O2"
_cell_formula_units_Z 56
_cell_length_a 26.302553
_cell_length_b 9.139225
_cell_length_c 12.130986
_cell_angle_alpha 90.000000
_cell_angle_beta 90.000000
_cell_angle_gamma 90.000000
_cell_volume 2916.106462
_symmetry_space_group_name_H-M "I M M A"
_symmetry_group_IT_number 74
_symmetry_cell_setting 'orthorhombic'
loop_
_space_group_symop_operation_xyz
x,y,z
-x,1/2-y,z
x,-y,-z
-x,1/2+y,-z
-x,-y,-z
x,1/2+y,-z
-x,y,z
x,1/2-y,z
1/2+x,1/2+y,1/2+z
1/2-x,-y,1/2+z
1/2+x,1/2-y,1/2-z
1/2-x,y,1/2-z
1/2-x,1/2-y,1/2-z
1/2+x,y,1/2-z
1/2-x,1/2+y,1/2+z
1/2+x,-y,1/2+z
loop_
_atom_site_type_symbol
_atom_site_label
_atom_site_fract_x
_atom_site_fract_y
_atom_site_fract_z
Si Si1 0.308063 0.587454 0.398871
Si Si2 0.210664 0.500000 0.500000
Si Si3 0.557224 0.419055 0.884532
Si Si4 0.148354 0.415486 0.297820
O O1 0.335343 0.500000 0.500000
O O2 0.331347 0.750000 0.386183
O O3 0.247663 0.603675 0.426598
O O4 0.314647 0.494861 0.288087
O O5 0.174556 0.409954 0.417823
O O6 0.500000 0.432421 0.837455
O O7 0.572797 0.250000 0.900947
O O8 0.595245 0.496303 0.799113
O O9 0.561658 0.500000 0.000000
O O10 0.138076 0.250000 0.259140
#
# Coordination Sequence:
#
# PCOD8300913 Si02
#       4
#    16   8  16  16
#     4  10  23  40  57  80 116 156 199 240 284 335
#     4  10  24  36  59  82 119 156 198 236 282 342
#     4  10  21  37  58  85 116 149 188 235 289 345
#     4  12  23  37  60  87 118 153 194 238 290 344
#
# _framework density 19.203688
#
# number of rings (size 3 to 8) (size 9 to 14) (size 15 to 20)
#    0.857    0.571    1.429    4.286    0.000    7.429 
#    0.000    0.000    0.000    0.857    0.000    0.000 
#    0.000    0.000    0.000    0.000    0.000    0.000 
#
# Total GULP energy -347047.956349 kJ/mol
# GULP energy per Si atom -12394.569870 kJ/mol
# Density = 1.915998 g / cm^3
# Si number density = 19.203688 Si / 1000 Ang^3
#
#
#
# Elastic Constant Matrix: (Units=GPa)
#
#
# Indices 1 2 3 4 5 6 
#
# 1 96.6412 47.6114 40.3892 0.0000 0.0000 0.0000
# 2 47.6114 181.6883 47.0632 0.0000 0.0000 0.0000
# 3 40.3892 47.0632 85.1128 0.0000 0.0000 0.0000
# 4 0.0000 0.0000 0.0000 30.2478 0.0000 0.0000
# 5 0.0000 0.0000 0.0000 0.0000 13.2577 0.0000
# 6 0.0000 0.0000 0.0000 0.0000 0.0000 17.9175
#
#
#
# Elastic Compliance Matrix: (Units=1/GPa)
#
#
# Indices 1 2 3 4 5 6 
#
# 1 0.013630 -0.002213 -0.005244 0.000000 0.000000 0.000000
# 2 -0.002213 0.006783 -0.002701 0.000000 0.000000 0.000000
# 3 -0.005244 -0.002701 0.015731 0.000000 0.000000 0.000000
# 4 0.000000 0.000000 0.000000 0.033060 0.000000 0.000000
# 5 0.000000 0.000000 0.000000 0.000000 0.075428 0.000000
# 6 0.000000 0.000000 0.000000 0.000000 0.000000 0.055811
#
#
# Mechanical properties :
#
#
# Convention : Reuss Voigt Hill
#
# Bulk Modulus (GPa) = 63.17819 70.39663 66.78741
# Shear Modulus (GPa) = 22.12049 27.50984 24.81516
#
# Velocity S-wave (km/s) = 3.39763 3.78898 3.59863
# Velocity P-wave (km/s) = 6.95430 7.47525 7.21947
#
# Compressibility (1/GPa) = 0.01582825
#
# Stress axis : x y z
#
# Youngs Moduli (GPa) = 73.37017 147.41704 63.56932
#
# Poissons Ratio (x) = 0.32627 0.33335
# Poissons Ratio (y) = 0.16239 0.17168
# Poissons Ratio (z) = 0.38474 0.39812
#
# Static dielectric constant tensor:
#      x y z
#    x 3.509200 0.000000 0.000000 
#    y 0.000000 3.501730 0.000000 
#    z 0.000000 0.000000 3.300480 
# 
# 
# High freq. dielectric constant tensor:
#      x y z
#    x 1.728130 0.000000 0.000000 
#    y 0.000000 1.758930 0.000000 
#    z 0.000000 0.000000 1.726080 
# 
# From -- ./inp_files/26762.got.cif
#   From: 2010.03.12/outbox.cif.g09.slc.cpg/sg74_14_cif.got.tgz:26762.got - 2010.04.16 15:46:19.
