data_PCOD8300327
_publ_section_title
;
Structure prediction by ZEFSAII (Michael W. Deem and Ramdas Pophale) SiO2 
 PCOD8300327
Probable space group: I M M A
;
_chemical_formula_sum "Si O2"
_cell_formula_units_Z 104
_cell_length_a 8.796025
_cell_length_b 19.725205
_cell_length_c 32.065131
_cell_angle_alpha 90.000000
_cell_angle_beta 90.000000
_cell_angle_gamma 90.000000
_cell_volume 5563.409132
_symmetry_space_group_name_H-M "I M M A"
_symmetry_group_IT_number 74
_symmetry_cell_setting 'orthorhombic'
loop_
_space_group_symop_operation_xyz
x,y,z
-x,1/2-y,z
x,-y,-z
-x,1/2+y,-z
-x,-y,-z
x,1/2+y,-z
-x,y,z
x,1/2-y,z
1/2+x,1/2+y,1/2+z
1/2-x,-y,1/2+z
1/2+x,1/2-y,1/2-z
1/2-x,y,1/2-z
1/2-x,1/2-y,1/2-z
1/2+x,y,1/2-z
1/2-x,1/2+y,1/2+z
1/2+x,-y,1/2+z
loop_
_atom_site_type_symbol
_atom_site_label
_atom_site_fract_x
_atom_site_fract_y
_atom_site_fract_z
Si Si1 0.172908 0.250000 0.206174
Si Si2 0.179598 0.941435 0.120607
Si Si3 0.824611 0.328501 0.568777
Si Si4 0.828704 0.929353 0.583322
Si Si5 0.833077 0.124666 0.324841
Si Si6 0.679230 0.519705 0.206555
Si Si7 0.177960 0.672529 0.980521
O O1 0.250000 0.250000 0.250000
O O2 0.212141 0.316474 0.180228
O O3 0.000000 0.250000 0.215963
O O4 0.223097 0.868950 0.101808
O O5 0.000000 0.951413 0.122694
O O6 0.248774 0.998168 0.089648
O O7 0.245459 0.942636 0.167406
O O8 0.802543 0.250000 0.579729
O O9 0.768018 0.344237 0.522409
O O10 0.000000 0.350653 0.572319
O O11 0.836733 0.892822 0.627146
O O12 0.731953 0.881354 0.553424
O O13 0.000000 0.940168 0.565829
O O14 0.784516 0.060111 0.297371
O O15 0.000000 0.149762 0.310460
O O16 0.500000 0.534193 0.205609
O O17 0.750000 0.546478 0.250000
O O18 0.212356 0.750000 0.965816
O O19 0.000000 0.662559 0.988812
#
# Coordination Sequence:
#
# PCOD8300327 Si02
#       7
#     8  16  16  16  16  16  16
#     4  12  24  34  48  68  96 134 180 230 280 332
#     4  11  22  37  59  86 116 147 183 230 280 331
#     4  10  21  39  62  86 113 147 185 224 272 333
#     4  10  21  37  56  79 109 147 190 234 279 331
#     4   9  20  36  52  72 101 138 180 228 276 324
#     4  10  20  36  58  83 110 143 182 225 273 330
#     4  10  21  36  55  82 115 149 189 235 281 333
#
# _framework density 18.693573000000001
#
# number of rings (size 3 to 8) (size 9 to 14) (size 15 to 20)
#    0.000    1.846    0.000    5.308    1.077    7.385 
#    0.000    3.077    0.000    0.462    0.000    0.000 
#    0.000    0.000    0.000    0.000    0.000    0.000 
#
# Total GULP energy -644867.250952 kJ/mol
# GULP energy per Si atom -12401.293288 kJ/mol
# Density = 1.865103 g / cm^3
# Si number density = 18.693573 Si / 1000 Ang^3
#
#
#
# Elastic Constant Matrix: (Units=GPa)
#
#
# Indices 1 2 3 4 5 6 
#
# 1 110.4042 38.9777 31.7206 0.0000 0.0000 0.0000
# 2 38.9777 75.9442 46.9640 0.0000 0.0000 0.0000
# 3 31.7206 46.9640 80.0886 0.0000 0.0000 0.0000
# 4 0.0000 0.0000 0.0000 13.3505 0.0000 0.0000
# 5 0.0000 0.0000 0.0000 0.0000 35.9330 0.0000
# 6 0.0000 0.0000 0.0000 0.0000 0.0000 22.2635
#
#
#
# Elastic Compliance Matrix: (Units=1/GPa)
#
#
# Indices 1 2 3 4 5 6 
#
# 1 0.011203 -0.004716 -0.001672 0.000000 0.000000 0.000000
# 2 -0.004716 0.022645 -0.011411 0.000000 0.000000 0.000000
# 3 -0.001672 -0.011411 0.019840 0.000000 0.000000 0.000000
# 4 0.000000 0.000000 0.000000 0.074904 0.000000 0.000000
# 5 0.000000 0.000000 0.000000 0.000000 0.027830 0.000000
# 6 0.000000 0.000000 0.000000 0.000000 0.000000 0.044917
#
#
# Mechanical properties :
#
#
# Convention : Reuss Voigt Hill
#
# Bulk Modulus (GPa) = 55.27947 55.75131 55.51539
# Shear Modulus (GPa) = 20.57920 24.22772 22.40346
#
# Velocity S-wave (km/s) = 3.32154 3.60397 3.46563
# Velocity P-wave (km/s) = 6.65926 6.87071 6.76581
#
# Compressibility (1/GPa) = 0.01808990
#
# Stress axis : x y z
#
# Youngs Moduli (GPa) = 89.26275 44.16075 50.40423
#
# Poissons Ratio (x) = 0.20826 0.08426
# Poissons Ratio (y) = 0.42097 0.57516
# Poissons Ratio (z) = 0.14921 0.50391
#
# Static dielectric constant tensor:
#      x y z
#    x 0.903560 0.000000 0.000000 
#    y 0.000000 3.317850 0.000000 
#    z 0.000000 0.000000 3.423080 
# 
# 
# High freq. dielectric constant tensor:
#      x y z
#    x 1.743150 0.000000 0.000000 
#    y 0.000000 1.712800 0.000000 
#    z 0.000000 0.000000 1.724490 
# 
# From -- ./inp_files/64474.got.cif
#   From: 2010.03.12/outbox.cif.g09.slc.cpg/sg74_33_cif.got.tgz:64474.got - 2010.04.16 15:46:19.
