data_PCOD8300202
_publ_section_title
;
Structure prediction by ZEFSAII (Michael W. Deem and Ramdas Pophale) SiO2 
 PCOD8300202
Probable space group: I M M A
;
_chemical_formula_sum "Si O2"
_cell_formula_units_Z 88
_cell_length_a 17.814618
_cell_length_b 27.033691
_cell_length_c 9.911861
_cell_angle_alpha 90.000000
_cell_angle_beta 90.000000
_cell_angle_gamma 90.000000
_cell_volume 4773.501492
_symmetry_space_group_name_H-M "I M M A"
_symmetry_group_IT_number 74
_symmetry_cell_setting 'orthorhombic'
loop_
_space_group_symop_operation_xyz
x,y,z
-x,1/2-y,z
x,-y,-z
-x,1/2+y,-z
-x,-y,-z
x,1/2+y,-z
-x,y,z
x,1/2-y,z
1/2+x,1/2+y,1/2+z
1/2-x,-y,1/2+z
1/2+x,1/2-y,1/2-z
1/2-x,y,1/2-z
1/2-x,1/2-y,1/2-z
1/2+x,y,1/2-z
1/2-x,1/2+y,1/2+z
1/2+x,-y,1/2+z
loop_
_atom_site_type_symbol
_atom_site_label
_atom_site_fract_x
_atom_site_fract_y
_atom_site_fract_z
Si Si1 0.219070 0.601077 0.976473
Si Si2 0.250000 0.952120 0.250000
Si Si3 0.585119 0.806199 0.933282
Si Si4 0.652589 0.030097 0.128383
Si Si5 0.725231 0.693937 0.099179
Si Si6 0.415745 0.611299 0.720207
O O1 0.278792 0.568851 0.893576
O O2 0.138248 0.599678 0.905747
O O3 0.220915 0.580982 0.127961
O O4 0.236736 0.659329 0.986906
O O5 0.321386 0.986975 0.227466
O O6 0.500000 0.819256 0.976633
O O7 0.591482 0.750000 0.879055
O O8 0.610919 0.842003 0.810850
O O9 0.635776 0.812433 0.069029
O O10 0.584297 0.061894 0.187402
O O11 0.623681 0.000000 0.000000
O O12 0.751661 0.750000 0.072276
O O13 0.750000 0.678215 0.250000
O O14 0.500000 0.620013 0.665795
#
# Coordination Sequence:
#
# PCOD8300202 Si02
#       6
#    16   8  16  16  16  16
#     4  11  20  36  58  83 111 147 191 236 276 340
#     4  10  20  36  59  78 107 152 192 224 282 330
#     4   9  19  36  57  83 116 152 186 228 286 343
#     4  10  20  35  58  80 106 149 194 228 271 331
#     4  10  20  35  59  88 113 145 192 237 276 333
#     4  11  22  36  56  85 118 148 185 236 289 335
#
# _framework density 18.435106000000001
#
# number of rings (size 3 to 8) (size 9 to 14) (size 15 to 20)
#    0.000    1.818    4.545    0.000    0.000    1.091 
#    0.000    4.545    0.000    2.182    0.000    0.000 
#    0.000    0.000    0.000    0.000    0.000    0.000 
#
# Total GULP energy -545114.560489 kJ/mol
# GULP energy per Si atom -12388.967284 kJ/mol
# Density = 1.839315 g / cm^3
# Si number density = 18.435106 Si / 1000 Ang^3
#
#
#
# Elastic Constant Matrix: (Units=GPa)
#
#
# Indices 1 2 3 4 5 6 
#
# 1 75.1525 35.0751 48.9233 0.0000 0.0000 0.0000
# 2 35.0751 102.6926 38.6170 0.0001 0.0000 0.0000
# 3 48.9233 38.6170 87.5633 0.0001 0.0000 0.0001
# 4 0.0000 0.0001 0.0001 13.5508 0.0000 0.0000
# 5 0.0000 0.0000 0.0000 0.0000 27.6308 0.0000
# 6 0.0000 0.0000 0.0001 0.0000 0.0000 26.4165
#
#
#
# Elastic Compliance Matrix: (Units=1/GPa)
#
#
# Indices 1 2 3 4 5 6 
#
# 1 0.021886 -0.003449 -0.010707 0.000000 0.000000 0.000000
# 2 -0.003449 0.012217 -0.003461 0.000000 0.000000 0.000000
# 3 -0.010707 -0.003461 0.018929 0.000000 0.000000 0.000000
# 4 0.000000 0.000000 0.000000 0.073796 0.000000 0.000000
# 5 0.000000 0.000000 0.000000 0.000000 0.036191 0.000000
# 6 0.000000 0.000000 0.000000 0.000000 0.000000 0.037855
#
#
# Mechanical properties :
#
#
# Convention : Reuss Voigt Hill
#
# Bulk Modulus (GPa) = 56.18568 56.73768 56.46168
# Shear Modulus (GPa) = 20.65753 23.03916 21.84834
#
# Velocity S-wave (km/s) = 3.35110 3.53901 3.44633
# Velocity P-wave (km/s) = 6.74662 6.89516 6.82129
#
# Compressibility (1/GPa) = 0.01779813
#
# Stress axis : x y z
#
# Youngs Moduli (GPa) = 45.69093 81.85099 52.82900
#
# Poissons Ratio (x) = 0.28230 0.56565
# Poissons Ratio (y) = 0.15759 0.18284
# Poissons Ratio (z) = 0.48922 0.28329
#
# Static dielectric constant tensor:
#      x y z
#    x 3.202250 0.000000 0.000000 
#    y 0.000000 3.722590 0.000000 
#    z 0.000000 0.000000 3.291180 
# 
# 
# High freq. dielectric constant tensor:
#      x y z
#    x 1.689120 0.000000 0.000000 
#    y 0.000000 1.741410 0.000000 
#    z 0.000000 0.000000 1.700210 
# 
# From -- ./inp_files/11248.got.cif
#   From: 2010.03.12/outbox.cif.g09.slc.cpg/sg74_6_cif.got.tgz:11248.got - 2010.04.16 15:46:19.
