data_PCOD8300041
_publ_section_title
;
Structure prediction by ZEFSAII (Michael W. Deem and Ramdas Pophale) SiO2 
 PCOD8300041
Probable space group: I M M A
;
_chemical_formula_sum "Si O2"
_cell_formula_units_Z 88
_cell_length_a 9.137529
_cell_length_b 27.538223
_cell_length_c 19.468670
_cell_angle_alpha 90.000000
_cell_angle_beta 90.000000
_cell_angle_gamma 90.000000
_cell_volume 4898.926961
_symmetry_space_group_name_H-M "I M M A"
_symmetry_group_IT_number 74
_symmetry_cell_setting 'orthorhombic'
loop_
_space_group_symop_operation_xyz
x,y,z
-x,1/2-y,z
x,-y,-z
-x,1/2+y,-z
-x,-y,-z
x,1/2+y,-z
-x,y,z
x,1/2-y,z
1/2+x,1/2+y,1/2+z
1/2-x,-y,1/2+z
1/2+x,1/2-y,1/2-z
1/2-x,y,1/2-z
1/2-x,1/2-y,1/2-z
1/2+x,y,1/2-z
1/2-x,1/2+y,1/2+z
1/2+x,-y,1/2+z
loop_
_atom_site_type_symbol
_atom_site_label
_atom_site_fract_x
_atom_site_fract_y
_atom_site_fract_z
Si Si1 0.827083 0.460875 0.911131
Si Si2 0.172975 0.663040 0.578639
Si Si3 0.333490 0.306095 0.556946
Si Si4 0.328011 0.250000 0.177462
Si Si5 0.173303 0.933389 0.938102
Si Si6 0.328211 0.875029 0.320240
O O1 0.773755 0.516436 0.901648
O O2 0.773829 0.427772 0.847792
O O3 0.000000 0.461759 0.916238
O O4 0.774365 0.436666 0.982567
O O5 0.228199 0.681103 0.505268
O O6 0.220771 0.702187 0.635642
O O7 0.244948 0.611397 0.598224
O O8 0.000000 0.657287 0.575441
O O9 0.500000 0.320671 0.536740
O O10 0.320937 0.250000 0.575688
O O11 0.282787 0.334868 0.624265
O O12 0.500000 0.250000 0.189932
O O13 0.250000 0.250000 0.250000
O O14 0.000000 0.925592 0.931071
O O15 0.500000 0.875075 0.306812
O O16 0.250000 0.862048 0.250000
#
# Coordination Sequence:
#
# PCOD8300041 Si02
#       6
#    16  16  16   8  16  16
#     4   8  15  30  53  77 104 137 181 227 262 309
#     4  11  21  35  55  84 116 139 168 223 280 319
#     4  10  20  35  57  81 104 140 191 230 260 318
#     4  10  24  42  58  80 111 144 175 214 269 330
#     4   9  16  31  56  81 102 137 182 223 264 315
#     4  10  20  35  52  76 110 147 185 226 271 322
#
# _framework density 17.963118000000001
#
# number of rings (size 3 to 8) (size 9 to 14) (size 15 to 20)
#    0.000    2.364    2.727    1.636    0.000    2.545 
#    0.000    3.636    0.000    4.364    0.000    0.000 
#    0.000    0.000    0.000    0.000    0.000    0.000 
#
# Total GULP energy -545501.942984 kJ/mol
# GULP energy per Si atom -12397.771431 kJ/mol
# Density = 1.792223 g / cm^3
# Si number density = 17.963118 Si / 1000 Ang^3
#
#
#
# Elastic Constant Matrix: (Units=GPa)
#
#
# Indices 1 2 3 4 5 6 
#
# 1 51.5429 46.9329 41.5640 0.0000 0.0000 0.0000
# 2 46.9329 152.5369 66.5206 0.0001 0.0000 0.0000
# 3 41.5640 66.5206 108.4539 0.0002 -0.0001 -0.0001
# 4 0.0000 0.0001 0.0002 27.0818 0.0000 0.0000
# 5 0.0000 0.0000 -0.0001 0.0000 28.3902 0.0000
# 6 0.0000 0.0000 -0.0001 0.0000 0.0000 20.9276
#
#
#
# Elastic Compliance Matrix: (Units=1/GPa)
#
#
# Indices 1 2 3 4 5 6 
#
# 1 0.031746 -0.006091 -0.008430 0.000000 0.000000 0.000000
# 2 -0.006091 0.010118 -0.003872 0.000000 0.000000 0.000000
# 3 -0.008430 -0.003872 0.014826 0.000000 0.000000 0.000000
# 4 0.000000 0.000000 0.000000 0.036925 0.000000 0.000000
# 5 0.000000 0.000000 0.000000 0.000000 0.035223 0.000000
# 6 0.000000 0.000000 0.000000 0.000000 0.000000 0.047784
#
#
# Mechanical properties :
#
#
# Convention : Reuss Voigt Hill
#
# Bulk Modulus (GPa) = 50.24146 69.17432 59.70789
# Shear Modulus (GPa) = 22.72275 25.78100 24.25187
#
# Velocity S-wave (km/s) = 3.56050 3.79254 3.67835
# Velocity P-wave (km/s) = 6.70319 7.60069 7.16601
#
# Compressibility (1/GPa) = 0.01990388
#
# Stress axis : x y z
#
# Youngs Moduli (GPa) = 31.50014 98.82963 67.44872
#
# Poissons Ratio (x) = 0.60200 0.56861
# Poissons Ratio (y) = 0.19188 0.26114
# Poissons Ratio (z) = 0.26555 0.38264
#
# Static dielectric constant tensor:
#      x y z
#    x 3.063560 0.000000 0.000000 
#    y 0.000000 3.806530 0.000000 
#    z 0.000000 0.000000 3.195330 
# 
# 
# High freq. dielectric constant tensor:
#      x y z
#    x 1.670580 0.000000 0.000000 
#    y 0.000000 1.718990 0.000000 
#    z 0.000000 0.000000 1.672050 
# 
# From -- ./inp_files/40158.got.cif
#   From: 2010.03.12/outbox.cif.g09.slc.cpg/sg74_21_cif.got.tgz:40158.got - 2010.04.16 15:46:19.
