data_PCOD8300378
_publ_section_title
;
Structure prediction by ZEFSAII (Michael W. Deem and Ramdas Pophale) SiO2 
 PCOD8300378
Probable space group: I M M A
;
_chemical_formula_sum "Si O2"
_cell_formula_units_Z 96
_cell_length_a 15.759817
_cell_length_b 19.450697
_cell_length_c 15.819494
_cell_angle_alpha 90.000000
_cell_angle_beta 90.000000
_cell_angle_gamma 90.000000
_cell_volume 4849.298598
_symmetry_space_group_name_H-M "I M M A"
_symmetry_group_IT_number 74
_symmetry_cell_setting 'orthorhombic'
loop_
_space_group_symop_operation_xyz
x,y,z
-x,1/2-y,z
x,-y,-z
-x,1/2+y,-z
-x,-y,-z
x,1/2+y,-z
-x,y,z
x,1/2-y,z
1/2+x,1/2+y,1/2+z
1/2-x,-y,1/2+z
1/2+x,1/2-y,1/2-z
1/2-x,y,1/2-z
1/2-x,1/2-y,1/2-z
1/2+x,y,1/2-z
1/2-x,1/2+y,1/2+z
1/2+x,-y,1/2+z
loop_
_atom_site_type_symbol
_atom_site_label
_atom_site_fract_x
_atom_site_fract_y
_atom_site_fract_z
Si Si1 0.000000 0.667535 0.251012
Si Si2 0.000000 0.168766 0.943751
Si Si3 0.151870 0.327194 0.245700
Si Si4 0.210413 0.925722 0.499335
Si Si5 0.905091 0.449825 0.351184
Si Si6 0.349034 0.827861 0.555271
Si Si7 0.668922 0.410540 0.809412
O O1 0.913186 0.636325 0.288803
O O2 0.000000 0.750000 0.264046
O O3 0.000000 0.646462 0.152818
O O4 0.916957 0.139162 0.990615
O O5 0.000000 0.250000 0.956829
O O6 0.140227 0.250000 0.281696
O O7 0.250000 0.348711 0.250000
O O8 0.097010 0.378617 0.301114
O O9 0.116222 0.331261 0.150474
O O10 0.124615 0.938018 0.552657
O O11 0.263755 0.871010 0.551190
O O12 0.192652 0.895370 0.406668
O O13 0.258249 0.000000 0.500000
O O14 0.851636 0.508366 0.301504
O O15 0.000000 0.477605 0.355976
O O16 0.326829 0.750000 0.529601
O O17 0.750000 0.392158 0.750000
#
# Coordination Sequence:
#
# PCOD8300378 Si02
#       7
#     8   8  16  16  16  16  16
#     4  11  24  44  66  91 120 156 210 266 316 366
#     4   9  20  38  60  84 118 157 194 248 313 365
#     4  10  20  36  59  88 123 161 201 245 299 367
#     4  10  23  38  61  88 121 162 206 247 306 367
#     4  11  23  39  62  88 127 167 204 248 303 368
#     4  10  20  38  61  88 123 161 200 246 308 372
#     4  11  24  42  66  92 123 160 210 258 313 366
#
# _framework density 19.796678
#
# number of rings (size 3 to 8) (size 9 to 14) (size 15 to 20)
#    0.000    1.667    2.500    1.500    4.667    2.333 
#    0.000    0.417    0.000    0.000    0.000    0.000 
#    0.000    0.000    0.000    0.000    0.000    0.000 
#
# Total GULP energy -595120.303072 kJ/mol
# GULP energy per Si atom -12398.339647 kJ/mol
# Density = 1.975162 g / cm^3
# Si number density = 19.796678 Si / 1000 Ang^3
#
#
#
# Elastic Constant Matrix: (Units=GPa)
#
#
# Indices 1 2 3 4 5 6 
#
# 1 98.4051 37.7681 32.4045 0.0000 0.0000 0.0000
# 2 37.7681 91.0283 38.6434 0.0000 0.0000 0.0000
# 3 32.4045 38.6434 109.6730 0.0001 0.0000 0.0000
# 4 0.0000 0.0000 0.0001 30.2096 0.0000 0.0000
# 5 0.0000 0.0000 0.0000 0.0000 27.6853 0.0000
# 6 0.0000 0.0000 0.0000 0.0000 0.0000 19.1517
#
#
#
# Elastic Compliance Matrix: (Units=1/GPa)
#
#
# Indices 1 2 3 4 5 6 
#
# 1 0.012522 -0.004262 -0.002198 0.000000 0.000000 0.000000
# 2 -0.004262 0.014369 -0.003803 0.000000 0.000000 0.000000
# 3 -0.002198 -0.003803 0.011108 0.000000 0.000000 0.000000
# 4 0.000000 0.000000 0.000000 0.033102 0.000000 0.000000
# 5 0.000000 0.000000 0.000000 0.000000 0.036120 0.000000
# 6 0.000000 0.000000 0.000000 0.000000 0.000000 0.052215
#
#
# Mechanical properties :
#
#
# Convention : Reuss Voigt Hill
#
# Bulk Modulus (GPa) = 57.23875 57.41537 57.32706
# Shear Modulus (GPa) = 26.91271 28.09534 27.50403
#
# Velocity S-wave (km/s) = 3.69108 3.77131 3.73141
# Velocity P-wave (km/s) = 6.86597 6.93031 6.89821
#
# Compressibility (1/GPa) = 0.01747068
#
# Stress axis : x y z
#
# Youngs Moduli (GPa) = 79.86131 69.59583 90.02865
#
# Poissons Ratio (x) = 0.29664 0.19787
# Poissons Ratio (y) = 0.34039 0.34242
# Poissons Ratio (z) = 0.17553 0.26471
#
# Static dielectric constant tensor:
#      x y z
#    x 3.525890 0.000000 0.000000 
#    y 0.000000 3.609470 0.000000 
#    z 0.000000 0.000000 3.624450 
# 
# 
# High freq. dielectric constant tensor:
#      x y z
#    x 1.766190 0.000000 0.000000 
#    y 0.000000 1.767420 0.000000 
#    z 0.000000 0.000000 1.779600 
# 
# From -- ./inp_files/32441.got.cif
#   From: 2010.03.12/outbox.cif.g09.slc.cpg/sg74_17_cif.got.tgz:32441.got - 2010.04.16 15:46:19.
