data_PCOD8300960
_publ_section_title
;
Structure prediction by ZEFSAII (Michael W. Deem and Ramdas Pophale) SiO2 
 PCOD8300960
Probable space group: I M M A
;
_chemical_formula_sum "Si O2"
_cell_formula_units_Z 104
_cell_length_a 9.190945
_cell_length_b 25.939293
_cell_length_c 21.411829
_cell_angle_alpha 90.000000
_cell_angle_beta 90.000000
_cell_angle_gamma 90.000000
_cell_volume 5104.721679
_symmetry_space_group_name_H-M "I M M A"
_symmetry_group_IT_number 74
_symmetry_cell_setting 'orthorhombic'
loop_
_space_group_symop_operation_xyz
x,y,z
-x,1/2-y,z
x,-y,-z
-x,1/2+y,-z
-x,-y,-z
x,1/2+y,-z
-x,y,z
x,1/2-y,z
1/2+x,1/2+y,1/2+z
1/2-x,-y,1/2+z
1/2+x,1/2-y,1/2-z
1/2-x,y,1/2-z
1/2-x,1/2-y,1/2-z
1/2+x,y,1/2-z
1/2-x,1/2+y,1/2+z
1/2+x,-y,1/2+z
loop_
_atom_site_type_symbol
_atom_site_label
_atom_site_fract_x
_atom_site_fract_y
_atom_site_fract_z
Si Si1 0.662269 0.367378 0.188227
Si Si2 0.328316 0.250000 0.816290
Si Si3 0.835036 0.041397 0.688622
Si Si4 0.666442 0.357318 0.877987
Si Si5 0.664069 0.808298 0.928443
Si Si6 0.170998 0.456787 0.404751
Si Si7 0.672135 0.392503 0.500887
O O1 0.500000 0.379130 0.210098
O O2 0.750000 0.358231 0.250000
O O3 0.673588 0.315878 0.146159
O O4 0.718746 0.414988 0.146866
O O5 0.500000 0.250000 0.803663
O O6 0.250000 0.250000 0.750000
O O7 0.281409 0.199215 0.855435
O O8 0.750000 0.023518 0.750000
O O9 0.821230 0.102863 0.679734
O O10 0.000000 0.024291 0.700718
O O11 0.782181 0.011768 0.625265
O O12 0.500000 0.354423 0.902396
O O13 0.769683 0.381413 0.930146
O O14 0.500000 0.823853 0.950721
O O15 0.698249 0.750000 0.946343
O O16 0.785006 0.842401 0.961490
O O17 0.256432 0.443810 0.469248
O O18 0.000000 0.454024 0.420735
O O19 0.500000 0.399847 0.502757
#
# Coordination Sequence:
#
# PCOD8300960 Si02
#       7
#    16   8  16  16  16  16  16
#     4   9  17  29  47  72 102 137 179 222 274 335
#     4  10  22  40  64  90 120 158 197 238 291 350
#     4  10  21  37  61  89 118 152 195 242 290 347
#     4  10  22  40  60  86 118 158 198 234 290 360
#     4   9  19  36  55  73 102 146 188 231 286 352
#     4   9  19  37  57  79 111 153 191 230 285 351
#     4  11  23  37  56  85 115 146 190 246 294 336
#
# _framework density 20.373294999999999
#
# number of rings (size 3 to 8) (size 9 to 14) (size 15 to 20)
#    0.000    2.308    0.000    3.231    1.077    5.538 
#    0.000    3.077    0.000    0.000    0.000    0.000 
#    0.000    0.000    0.000    0.000    0.000    0.000 
#
# Total GULP energy -644579.890547 kJ/mol
# GULP energy per Si atom -12395.767126 kJ/mol
# Density = 2.032692 g / cm^3
# Si number density = 20.373295 Si / 1000 Ang^3
#
#
#
# Elastic Constant Matrix: (Units=GPa)
#
#
# Indices 1 2 3 4 5 6 
#
# 1 91.4748 36.3955 52.3471 0.0000 0.0000 0.0000
# 2 36.3955 107.7309 34.4420 0.0000 0.0000 0.0000
# 3 52.3471 34.4420 102.9797 -0.0001 0.0000 0.0000
# 4 0.0000 0.0000 -0.0001 19.2924 0.0000 0.0000
# 5 0.0000 0.0000 0.0000 0.0000 39.4602 0.0000
# 6 0.0000 0.0000 0.0000 0.0000 0.0000 20.0998
#
#
#
# Elastic Compliance Matrix: (Units=1/GPa)
#
#
# Indices 1 2 3 4 5 6 
#
# 1 0.016351 -0.003210 -0.007238 0.000000 0.000000 0.000000
# 2 -0.003210 0.011024 -0.002055 0.000000 0.000000 0.000000
# 3 -0.007238 -0.002055 0.014077 0.000000 0.000000 0.000000
# 4 0.000000 0.000000 0.000000 0.051834 0.000000 0.000000
# 5 0.000000 0.000000 0.000000 0.000000 0.025342 0.000000
# 6 0.000000 0.000000 0.000000 0.000000 0.000000 0.049752
#
#
# Mechanical properties :
#
#
# Convention : Reuss Voigt Hill
#
# Bulk Modulus (GPa) = 60.80615 60.95051 60.87833
# Shear Modulus (GPa) = 25.14218 27.70385 26.42301
#
# Velocity S-wave (km/s) = 3.51675 3.69156 3.60522
# Velocity P-wave (km/s) = 6.81182 6.93916 6.87579
#
# Compressibility (1/GPa) = 0.01644571
#
# Stress axis : x y z
#
# Youngs Moduli (GPa) = 61.15752 90.71181 71.03598
#
# Poissons Ratio (x) = 0.29118 0.51417
# Poissons Ratio (y) = 0.19632 0.14600
# Poissons Ratio (z) = 0.44267 0.18644
#
# Static dielectric constant tensor:
#      x y z
#    x 3.479580 0.000000 0.000000 
#    y 0.000000 3.842300 0.000000 
#    z 0.000000 0.000000 3.557670 
# 
# 
# High freq. dielectric constant tensor:
#      x y z
#    x 1.773540 0.000000 0.000000 
#    y 0.000000 1.803210 0.000000 
#    z 0.000000 0.000000 1.793400 
# 
# From -- ./inp_files/49241.got.cif
#   From: 2010.03.12/outbox.cif.g09.slc.cpg/sg74_25_cif.got.tgz:49241.got - 2010.04.16 15:46:19.
