data_PCOD8300947
_publ_section_title
;
Structure prediction by ZEFSAII (Michael W. Deem and Ramdas Pophale) SiO2 
 PCOD8300947
Probable space group: I M M A
;
_chemical_formula_sum "Si O2"
_cell_formula_units_Z 64
_cell_length_a 15.092717
_cell_length_b 21.655471
_cell_length_c 10.583967
_cell_angle_alpha 90.000000
_cell_angle_beta 90.000000
_cell_angle_gamma 90.000000
_cell_volume 3459.262666
_symmetry_space_group_name_H-M "I M M A"
_symmetry_group_IT_number 74
_symmetry_cell_setting 'orthorhombic'
loop_
_space_group_symop_operation_xyz
x,y,z
-x,1/2-y,z
x,-y,-z
-x,1/2+y,-z
-x,-y,-z
x,1/2+y,-z
-x,y,z
x,1/2-y,z
1/2+x,1/2+y,1/2+z
1/2-x,-y,1/2+z
1/2+x,1/2-y,1/2-z
1/2-x,y,1/2-z
1/2-x,1/2-y,1/2-z
1/2+x,y,1/2-z
1/2-x,1/2+y,1/2+z
1/2+x,-y,1/2+z
loop_
_atom_site_type_symbol
_atom_site_label
_atom_site_fract_x
_atom_site_fract_y
_atom_site_fract_z
Si Si1 0.154326 0.462510 0.299975
Si Si2 0.599750 0.920687 0.059009
Si Si3 0.500000 0.178087 0.559747
Si Si4 0.500000 0.944927 0.602218
Si Si5 0.649558 0.679132 0.237045
O O1 0.250000 0.444921 0.250000
O O2 0.134045 0.416608 0.415926
O O3 0.154713 0.532338 0.352865
O O4 0.086693 0.453089 0.186209
O O5 0.500000 0.945733 0.058578
O O6 0.605353 0.853064 0.116976
O O7 0.500000 0.250000 0.508930
O O8 0.500000 0.125099 0.453100
O O9 0.410334 0.166667 0.639776
O O10 0.500000 0.000000 0.500000
O O11 0.650335 0.750000 0.200739
O O12 0.750000 0.654275 0.250000
#
# Coordination Sequence:
#
# PCOD8300947 Si02
#       5
#    16  16   8   8  16
#     4  11  24  38  57  86 114 150 188 232 289 337
#     4  11  20  40  60  79 117 148 188 240 279 331
#     4  10  22  39  59  85 121 152 184 237 291 337
#     4  12  24  38  59  88 117 150 194 235 282 349
#     4  10  21  37  60  87 111 147 194 234 279 334
#
# _framework density 18.501051
#
# number of rings (size 3 to 8) (size 9 to 14) (size 15 to 20)
#    0.000    1.250    3.750    3.000    7.000    0.000 
#    0.000    1.250    0.000    1.500    0.000    0.000 
#    0.000    0.000    0.000    0.000    0.000    0.000 
#
# Total GULP energy -396738.394634 kJ/mol
# GULP energy per Si atom -12398.074832 kJ/mol
# Density = 1.845894 g / cm^3
# Si number density = 18.501051 Si / 1000 Ang^3
#
#
#
# Elastic Constant Matrix: (Units=GPa)
#
#
# Indices 1 2 3 4 5 6 
#
# 1 119.8027 25.5249 48.5061 0.0000 0.0000 0.0000
# 2 25.5249 81.9126 64.1730 0.0000 0.0000 0.0000
# 3 48.5061 64.1730 131.5208 0.0000 0.0000 0.0000
# 4 0.0000 0.0000 0.0000 34.9854 0.0000 0.0000
# 5 0.0000 0.0000 0.0000 0.0000 30.4442 0.0000
# 6 0.0000 0.0000 0.0000 0.0000 0.0000 20.9886
#
#
#
# Elastic Compliance Matrix: (Units=1/GPa)
#
#
# Indices 1 2 3 4 5 6 
#
# 1 0.009819 -0.000360 -0.003445 0.000000 0.000000 0.000000
# 2 -0.000360 0.019776 -0.009516 0.000000 0.000000 0.000000
# 3 -0.003445 -0.009516 0.013517 0.000000 0.000000 0.000000
# 4 0.000000 0.000000 0.000000 0.028583 0.000000 0.000000
# 5 0.000000 0.000000 0.000000 0.000000 0.032847 0.000000
# 6 0.000000 0.000000 0.000000 0.000000 0.000000 0.047645
#
#
# Mechanical properties :
#
#
# Convention : Reuss Voigt Hill
#
# Bulk Modulus (GPa) = 60.72473 67.73824 64.23148
# Shear Modulus (GPa) = 27.12661 30.28578 28.70620
#
# Velocity S-wave (km/s) = 3.83328 4.05035 3.94331
# Velocity P-wave (km/s) = 7.24470 7.65287 7.45158
#
# Compressibility (1/GPa) = 0.01646775
#
# Stress axis : x y z
#
# Youngs Moduli (GPa) = 101.84502 50.56683 73.97892
#
# Poissons Ratio (x) = 0.01822 0.25489
# Poissons Ratio (y) = 0.03670 0.70401
# Poissons Ratio (z) = 0.35090 0.48121
#
# Static dielectric constant tensor:
#      x y z
#    x 3.690550 0.000000 0.000000 
#    y 0.000000 3.359430 0.000000 
#    z 0.000000 0.000000 3.388050 
# 
# 
# High freq. dielectric constant tensor:
#      x y z
#    x 1.736440 0.000000 0.000000 
#    y 0.000000 1.712000 0.000000 
#    z 0.000000 0.000000 1.711800 
# 
# From -- ./inp_files/8823.got.cif
#   From: 2010.03.12/outbox.cif.g09.slc.cpg/sg74_5_cif.got.tgz:8823.got - 2010.04.16 15:46:19.
