data_PCOD8300280
_publ_section_title
;
Structure prediction by ZEFSAII (Michael W. Deem and Ramdas Pophale) SiO2 
 PCOD8300280
Probable space group: I M M A
;
_chemical_formula_sum "Si O2"
_cell_formula_units_Z 104
_cell_length_a 20.746942
_cell_length_b 8.908812
_cell_length_c 29.816414
_cell_angle_alpha 90.000000
_cell_angle_beta 90.000000
_cell_angle_gamma 90.000000
_cell_volume 5510.985864
_symmetry_space_group_name_H-M "I M M A"
_symmetry_group_IT_number 74
_symmetry_cell_setting 'orthorhombic'
loop_
_space_group_symop_operation_xyz
x,y,z
-x,1/2-y,z
x,-y,-z
-x,1/2+y,-z
-x,-y,-z
x,1/2+y,-z
-x,y,z
x,1/2-y,z
1/2+x,1/2+y,1/2+z
1/2-x,-y,1/2+z
1/2+x,1/2-y,1/2-z
1/2-x,y,1/2-z
1/2-x,1/2-y,1/2-z
1/2+x,y,1/2-z
1/2-x,1/2+y,1/2+z
1/2+x,-y,1/2+z
loop_
_atom_site_type_symbol
_atom_site_label
_atom_site_fract_x
_atom_site_fract_y
_atom_site_fract_z
Si Si1 0.137459 0.572542 0.370963
Si Si2 0.927169 0.073602 0.288663
Si Si3 0.640030 0.572809 0.548648
Si Si4 0.813980 0.074499 0.226971
Si Si5 0.000000 0.424345 0.047023
Si Si6 0.573745 0.922481 0.952840
Si Si7 0.273171 0.573916 0.630538
O O1 0.134100 0.750000 0.371259
O O2 0.087356 0.509915 0.334902
O O3 0.119315 0.509920 0.419242
O O4 0.209115 0.518766 0.360281
O O5 0.918191 0.250000 0.297327
O O6 0.878803 0.011182 0.250302
O O7 0.000000 0.036620 0.273412
O O8 0.653401 0.500000 0.500000
O O9 0.646427 0.750000 0.542141
O O10 0.568707 0.530672 0.569480
O O11 0.691232 0.515786 0.585529
O O12 0.811767 0.250000 0.236429
O O13 0.750000 0.002147 0.250000
O O14 0.817915 0.041399 0.173870
O O15 0.000000 0.250000 0.038341
O O16 0.000000 0.500000 0.000000
O O17 0.500000 0.935813 0.936925
O O18 0.595556 0.750000 0.955910
O O19 0.584300 0.000000 0.000000
O O20 0.256570 0.750000 0.627058
#
# Coordination Sequence:
#
# PCOD8300280 Si02
#       7
#    16  16  16  16   8  16  16
#     4  12  24  36  54  80 110 146 188 229 271 324
#     4  10  20  36  59  85 110 140 181 228 279 337
#     4   9  18  32  53  78 108 143 178 222 270 323
#     4   9  16  32  58  81 106 140 179 224 276 333
#     4   8  14  28  48  74 102 134 174 212 260 316
#     4  10  21  38  59  82 110 144 181 224 274 327
#     4  10  20  36  56  78 108 145 183 226 279 331
#
# _framework density 18.871397000000002
#
# number of rings (size 3 to 8) (size 9 to 14) (size 15 to 20)
#    0.000    2.154    1.538    2.308    0.000    4.308 
#    1.385    3.077    0.000    0.000    0.000    0.000 
#    0.000    0.000    0.000    0.000    0.000    0.000 
#
# Total GULP energy -644532.219687 kJ/mol
# GULP energy per Si atom -12394.850379 kJ/mol
# Density = 1.882844 g / cm^3
# Si number density = 18.871397 Si / 1000 Ang^3
#
#
#
# Elastic Constant Matrix: (Units=GPa)
#
#
# Indices 1 2 3 4 5 6 
#
# 1 118.4748 40.2324 56.7634 0.0000 0.0000 0.0000
# 2 40.2324 66.2280 32.6968 0.0000 0.0000 0.0000
# 3 56.7634 32.6968 104.0340 0.0000 0.0000 0.0000
# 4 0.0000 0.0000 0.0000 19.9395 0.0000 0.0000
# 5 0.0000 0.0000 0.0000 0.0000 38.2467 0.0000
# 6 0.0000 0.0000 0.0000 0.0000 0.0000 16.7567
#
#
#
# Elastic Compliance Matrix: (Units=1/GPa)
#
#
# Indices 1 2 3 4 5 6 
#
# 1 0.012732 -0.005095 -0.005345 0.000000 0.000000 0.000000
# 2 -0.005095 0.019912 -0.003478 0.000000 0.000000 0.000000
# 3 -0.005345 -0.003478 0.013622 0.000000 0.000000 0.000000
# 4 0.000000 0.000000 0.000000 0.050152 0.000000 0.000000
# 5 0.000000 0.000000 0.000000 0.000000 0.026146 0.000000
# 6 0.000000 0.000000 0.000000 0.000000 0.000000 0.059678
#
#
# Mechanical properties :
#
#
# Convention : Reuss Voigt Hill
#
# Bulk Modulus (GPa) = 54.26469 60.90244 57.58357
# Shear Modulus (GPa) = 23.12444 25.59153 24.35799
#
# Velocity S-wave (km/s) = 3.50433 3.68652 3.59658
# Velocity P-wave (km/s) = 6.72244 7.10373 6.91571
#
# Compressibility (1/GPa) = 0.01842819
#
# Stress axis : x y z
#
# Youngs Moduli (GPa) = 78.54179 50.22151 73.41111
#
# Poissons Ratio (x) = 0.25590 0.39242
# Poissons Ratio (y) = 0.40021 0.25531
# Poissons Ratio (z) = 0.41984 0.17466
#
# Static dielectric constant tensor:
#      x y z
#    x 3.198790 0.000000 0.000000 
#    y 0.000000 3.259220 0.000000 
#    z 0.000000 0.000000 3.435500 
# 
# 
# High freq. dielectric constant tensor:
#      x y z
#    x 1.741420 0.000000 0.000000 
#    y 0.000000 1.708910 0.000000 
#    z 0.000000 0.000000 1.729850 
# 
# From -- ./inp_files/73401.got.cif
#   From: 2010.03.12/outbox.cif.g09.slc.cpg/sg74_37_cif.got.tgz:73401.got - 2010.04.16 15:46:19.
