data_PCOD8300154
_publ_section_title
;
Structure prediction by ZEFSAII (Michael W. Deem and Ramdas Pophale) SiO2 
 PCOD8300154
Probable space group: I M M A
;
_chemical_formula_sum "Si O2"
_cell_formula_units_Z 96
_cell_length_a 19.584422
_cell_length_b 13.404163
_cell_length_c 18.472027
_cell_angle_alpha 90.000000
_cell_angle_beta 90.000000
_cell_angle_gamma 90.000000
_cell_volume 4849.143248
_symmetry_space_group_name_H-M "I M M A"
_symmetry_group_IT_number 74
_symmetry_cell_setting 'orthorhombic'
loop_
_space_group_symop_operation_xyz
x,y,z
-x,1/2-y,z
x,-y,-z
-x,1/2+y,-z
-x,-y,-z
x,1/2+y,-z
-x,y,z
x,1/2-y,z
1/2+x,1/2+y,1/2+z
1/2-x,-y,1/2+z
1/2+x,1/2-y,1/2-z
1/2-x,y,1/2-z
1/2-x,1/2-y,1/2-z
1/2+x,y,1/2-z
1/2-x,1/2+y,1/2+z
1/2+x,-y,1/2+z
loop_
_atom_site_type_symbol
_atom_site_label
_atom_site_fract_x
_atom_site_fract_y
_atom_site_fract_z
Si Si1 0.871011 0.140183 0.403463
Si Si2 0.422549 0.448073 0.831985
Si Si3 0.178163 0.470575 0.921220
Si Si4 0.728572 0.639396 0.672111
Si Si5 0.321598 0.635596 0.057085
Si Si6 0.077614 0.864581 0.178887
O O1 0.906148 0.250000 0.399898
O O2 0.794571 0.148543 0.376535
O O3 0.863535 0.101026 0.485872
O O4 0.914486 0.063539 0.355456
O O5 0.500000 0.413737 0.847006
O O6 0.372022 0.376822 0.875679
O O7 0.405076 0.434933 0.747408
O O8 0.175984 0.566562 0.868270
O O9 0.254867 0.429968 0.928709
O O10 0.127781 0.388866 0.887475
O O11 0.149736 0.500000 0.000000
O O12 0.695154 0.750000 0.681755
O O13 0.750000 0.594682 0.750000
O O14 0.298750 0.750000 0.049007
O O15 0.088740 0.750000 0.201955
O O16 0.000000 0.882825 0.152955
#
# Coordination Sequence:
#
# PCOD8300154 Si02
#       6
#    16  16  16  16  16  16
#     4  10  20  36  55  83 121 157 197 244 293 347
#     4  11  22  39  59  82 119 164 204 247 295 346
#     4  12  22  37  64  91 119 151 193 247 294 352
#     4  10  20  35  56  83 117 154 192 236 292 349
#     4  11  22  36  56  89 125 157 198 246 293 349
#     4  10  24  44  63  86 117 155 198 245 299 354
#
# _framework density 19.797312000000002
#
# number of rings (size 3 to 8) (size 9 to 14) (size 15 to 20)
#    0.000    1.333    3.333    2.500    0.000    3.667 
#    0.000    3.333    0.000    1.500    0.000    0.000 
#    0.000    0.000    0.000    0.000    0.000    0.000 
#
# Total GULP energy -595234.559411 kJ/mol
# GULP energy per Si atom -12400.719988 kJ/mol
# Density = 1.975225 g / cm^3
# Si number density = 19.797312 Si / 1000 Ang^3
#
#
#
# Elastic Constant Matrix: (Units=GPa)
#
#
# Indices 1 2 3 4 5 6 
#
# 1 68.2974 25.0350 41.5246 0.0000 0.0000 0.0000
# 2 25.0350 105.9844 52.4927 0.0000 0.0000 0.0000
# 3 41.5246 52.4927 125.8219 0.0000 0.0000 0.0000
# 4 0.0000 0.0000 0.0000 35.4166 0.0000 0.0000
# 5 0.0000 0.0000 0.0000 0.0000 24.4431 0.0000
# 6 0.0000 0.0000 0.0000 0.0000 0.0000 33.5448
#
#
#
# Elastic Compliance Matrix: (Units=1/GPa)
#
#
# Indices 1 2 3 4 5 6 
#
# 1 0.018558 -0.001702 -0.005415 0.000000 0.000000 0.000000
# 2 -0.001702 0.012049 -0.004465 0.000000 0.000000 0.000000
# 3 -0.005415 -0.004465 0.011598 0.000000 0.000000 0.000000
# 4 0.000000 0.000000 0.000000 0.028235 0.000000 0.000000
# 5 0.000000 0.000000 0.000000 0.000000 0.040911 0.000000
# 6 0.000000 0.000000 0.000000 0.000000 0.000000 0.029811
#
#
# Mechanical properties :
#
#
# Convention : Reuss Voigt Hill
#
# Bulk Modulus (GPa) = 52.51794 59.80090 56.15942
# Shear Modulus (GPa) = 29.29602 30.75099 30.02351
#
# Velocity S-wave (km/s) = 3.85099 3.94546 3.89851
# Velocity P-wave (km/s) = 6.80874 7.14336 6.97806
#
# Compressibility (1/GPa) = 0.01904111
#
# Stress axis : x y z
#
# Youngs Moduli (GPa) = 53.88601 82.99538 86.22543
#
# Poissons Ratio (x) = 0.14125 0.46687
# Poissons Ratio (y) = 0.09171 0.38501
# Poissons Ratio (z) = 0.29177 0.37058
#
# Static dielectric constant tensor:
#      x y z
#    x 3.289900 0.000000 0.000000 
#    y 0.000000 3.984780 0.000000 
#    z 0.000000 0.000000 3.877380 
# 
# 
# High freq. dielectric constant tensor:
#      x y z
#    x 1.740390 0.000000 0.000000 
#    y 0.000000 1.785240 0.000000 
#    z 0.000000 0.000000 1.780560 
# 
# From -- ./inp_files/35296.got.cif
#   From: 2010.03.12/outbox.cif.g09.slc.cpg/sg74_18_cif.got.tgz:35296.got - 2010.04.16 15:46:19.
