data_PCOD8300547
_publ_section_title
;
Structure prediction by ZEFSAII (Michael W. Deem and Ramdas Pophale) SiO2 
 PCOD8300547
Probable space group: I M M A
;
_chemical_formula_sum "Si O2"
_cell_formula_units_Z 96
_cell_length_a 20.614981
_cell_length_b 15.998896
_cell_length_c 15.073865
_cell_angle_alpha 90.000000
_cell_angle_beta 90.000000
_cell_angle_gamma 90.000000
_cell_volume 4971.615984
_symmetry_space_group_name_H-M "I M M A"
_symmetry_group_IT_number 74
_symmetry_cell_setting 'orthorhombic'
loop_
_space_group_symop_operation_xyz
x,y,z
-x,1/2-y,z
x,-y,-z
-x,1/2+y,-z
-x,-y,-z
x,1/2+y,-z
-x,y,z
x,1/2-y,z
1/2+x,1/2+y,1/2+z
1/2-x,-y,1/2+z
1/2+x,1/2-y,1/2-z
1/2-x,y,1/2-z
1/2-x,1/2-y,1/2-z
1/2+x,y,1/2-z
1/2-x,1/2+y,1/2+z
1/2+x,-y,1/2+z
loop_
_atom_site_type_symbol
_atom_site_label
_atom_site_fract_x
_atom_site_fract_y
_atom_site_fract_z
Si Si1 0.070915 0.844216 0.784560
Si Si2 0.427688 0.250000 0.588631
Si Si3 0.690773 0.092056 0.180453
Si Si4 0.798438 0.093515 0.668696
Si Si5 0.169770 0.750000 0.251109
Si Si6 0.740071 0.346799 0.485767
Si Si7 0.398024 0.591808 0.532019
O O1 0.082415 0.750000 0.817754
O O2 0.126131 0.865758 0.715239
O O3 0.071838 0.902156 0.870792
O O4 0.000000 0.854299 0.739094
O O5 0.500000 0.250000 0.632842
O O6 0.367797 0.250000 0.657896
O O7 0.423358 0.334627 0.531536
O O8 0.750000 0.100334 0.250000
O O9 0.706317 0.140455 0.089718
O O10 0.670224 0.997177 0.156277
O O11 0.750000 0.083580 0.750000
O O12 0.850670 0.165835 0.695321
O O13 0.762453 0.120822 0.580350
O O14 0.250000 0.750000 0.250000
O O15 0.720155 0.250000 0.493021
O O16 0.679203 0.402544 0.457423
O O17 0.418742 0.500000 0.500000
#
# Coordination Sequence:
#
# PCOD8300547 Si02
#       7
#    16   8  16  16   8  16  16
#     4  11  24  43  61  85 128 171 207 257 317 375
#     4  12  26  42  62  94 132 169 211 262 318 389
#     4  11  23  38  61  95 123 157 213 261 303 369
#     4  10  21  37  59  91 124 158 202 257 316 371
#     4  10  20  38  62  81 117 163 208 253 310 363
#     4  12  22  38  66  95 128 164 205 264 322 368
#     4  12  24  39  62  92 130 172 212 252 315 388
#
# _framework density 19.309616999999999
#
# number of rings (size 3 to 8) (size 9 to 14) (size 15 to 20)
#    0.000    0.833    4.167    4.500    4.667    2.000 
#    0.000    0.000    0.000    3.000    0.000    0.000 
#    0.000    0.000    0.000    0.000    0.000    0.000 
#
# Total GULP energy -594990.598490 kJ/mol
# GULP energy per Si atom -12395.637469 kJ/mol
# Density = 1.926567 g / cm^3
# Si number density = 19.309617 Si / 1000 Ang^3
#
#
#
# Elastic Constant Matrix: (Units=GPa)
#
#
# Indices 1 2 3 4 5 6 
#
# 1 99.6543 28.9417 43.5507 0.0000 0.0000 0.0000
# 2 28.9417 119.8441 31.2943 0.0000 0.0000 0.0000
# 3 43.5507 31.2943 93.6919 0.0000 0.0000 0.0000
# 4 0.0000 0.0000 0.0000 34.4554 0.0000 0.0000
# 5 0.0000 0.0000 0.0000 0.0000 6.6720 0.0000
# 6 0.0000 0.0000 0.0000 0.0000 0.0000 14.7999
#
#
#
# Elastic Compliance Matrix: (Units=1/GPa)
#
#
# Indices 1 2 3 4 5 6 
#
# 1 0.012901 -0.001698 -0.005430 0.000000 0.000000 0.000000
# 2 -0.001698 0.009365 -0.002339 0.000000 0.000000 0.000000
# 3 -0.005430 -0.002339 0.013978 0.000000 0.000000 0.000000
# 4 0.000000 0.000000 0.000000 0.029023 0.000000 0.000000
# 5 0.000000 0.000000 0.000000 0.000000 0.149881 0.000000
# 6 0.000000 0.000000 0.000000 0.000000 0.000000 0.067568
#
#
# Mechanical properties :
#
#
# Convention : Reuss Voigt Hill
#
# Bulk Modulus (GPa) = 57.76455 57.86263 57.81359
# Shear Modulus (GPa) = 16.26447 25.14568 20.70508
#
# Velocity S-wave (km/s) = 2.90539 3.61257 3.27810
# Velocity P-wave (km/s) = 6.42144 6.88706 6.65832
#
# Compressibility (1/GPa) = 0.01731166
#
# Stress axis : x y z
#
# Youngs Moduli (GPa) = 77.51637 106.78193 71.53947
#
# Poissons Ratio (x) = 0.18127 0.38842
# Poissons Ratio (y) = 0.13159 0.16732
# Poissons Ratio (z) = 0.42088 0.24975
#
# Static dielectric constant tensor:
#      x y z
#    x 3.367730 0.000000 0.000000 
#    y 0.000000 4.287560 0.000000 
#    z 0.000000 0.000000 3.462160 
# 
# 
# High freq. dielectric constant tensor:
#      x y z
#    x 1.719360 0.000000 0.000000 
#    y 0.000000 1.778640 0.000000 
#    z 0.000000 0.000000 1.744620 
# 
# From -- ./inp_files/35336.got.cif
#   From: 2010.03.12/outbox.cif.g09.slc.cpg/sg74_18_cif.got.tgz:35336.got - 2010.04.16 15:46:19.
