data_PCOD8300127
_publ_section_title
;
Structure prediction by ZEFSAII (Michael W. Deem and Ramdas Pophale) SiO2 
 PCOD8300127
Probable space group: I M M A
;
_chemical_formula_sum "Si O2"
_cell_formula_units_Z 96
_cell_length_a 14.918567
_cell_length_b 20.167334
_cell_length_c 17.626790
_cell_angle_alpha 90.000000
_cell_angle_beta 90.000000
_cell_angle_gamma 90.000000
_cell_volume 5303.332180
_symmetry_space_group_name_H-M "I M M A"
_symmetry_group_IT_number 74
_symmetry_cell_setting 'orthorhombic'
loop_
_space_group_symop_operation_xyz
x,y,z
-x,1/2-y,z
x,-y,-z
-x,1/2+y,-z
-x,-y,-z
x,1/2+y,-z
-x,y,z
x,1/2-y,z
1/2+x,1/2+y,1/2+z
1/2-x,-y,1/2+z
1/2+x,1/2-y,1/2-z
1/2-x,y,1/2-z
1/2-x,1/2-y,1/2-z
1/2+x,y,1/2-z
1/2-x,1/2+y,1/2+z
1/2+x,-y,1/2+z
loop_
_atom_site_type_symbol
_atom_site_label
_atom_site_fract_x
_atom_site_fract_y
_atom_site_fract_z
Si Si1 0.397196 0.321979 0.908251
Si Si2 0.893253 0.622295 0.567426
Si Si3 0.256244 0.483604 0.417227
Si Si4 0.851013 0.176275 0.276734
Si Si5 0.400492 0.955598 0.702467
Si Si6 0.323164 0.574496 0.195971
O O1 0.500000 0.311118 0.925094
O O2 0.352460 0.250000 0.891263
O O3 0.389805 0.369324 0.834503
O O4 0.357910 0.350919 0.986601
O O5 0.837364 0.555688 0.581643
O O6 0.864841 0.674539 0.632373
O O7 0.000000 0.606449 0.568957
O O8 0.294820 0.500000 0.500000
O O9 0.334213 0.447759 0.368946
O O10 0.232328 0.552255 0.377514
O O11 0.882422 0.250000 0.249661
O O12 0.750000 0.163759 0.250000
O O13 0.908483 0.116259 0.242093
O O14 0.500000 0.974965 0.674247
O O15 0.368915 0.011666 0.762343
O O16 0.250000 0.609053 0.250000
#
# Coordination Sequence:
#
# PCOD8300127 Si02
#       6
#    16  16  16  16  16  16
#     4  10  21  35  53  80 109 139 178 218 266 327
#     4  11  21  34  54  81 111 144 177 217 268 323
#     4  11  21  37  56  79 109 140 185 226 267 320
#     4  11  21  35  55  81 116 151 181 218 267 322
#     4  11  22  37  57  81 109 142 185 226 268 319
#     4  10  20  35  56  80 108 139 174 226 273 318
#
# _framework density 18.101825999999999
#
# number of rings (size 3 to 8) (size 9 to 14) (size 15 to 20)
#    0.000    1.333    5.000    2.000    0.000    3.667 
#    0.000    0.000    0.000    0.000    0.000    0.000 
#    0.000    0.000    0.000    0.000    0.000    0.000 
#
# Total GULP energy -594803.786384 kJ/mol
# GULP energy per Si atom -12391.745550 kJ/mol
# Density = 1.806063 g / cm^3
# Si number density = 18.101826 Si / 1000 Ang^3
#
#
#
# Elastic Constant Matrix: (Units=GPa)
#
#
# Indices 1 2 3 4 5 6 
#
# 1 84.0260 26.9212 44.7022 0.0000 0.0000 0.0000
# 2 26.9212 81.3430 58.2447 0.0001 0.0000 0.0000
# 3 44.7022 58.2447 114.1775 0.0002 0.0000 0.0000
# 4 0.0000 0.0001 0.0002 18.3684 0.0000 0.0000
# 5 0.0000 0.0000 0.0000 0.0000 27.5832 0.0000
# 6 0.0000 0.0000 0.0000 0.0000 0.0000 13.8873
#
#
#
# Elastic Compliance Matrix: (Units=1/GPa)
#
#
# Indices 1 2 3 4 5 6 
#
# 1 0.015107 -0.001205 -0.005300 0.000000 0.000000 0.000000
# 2 -0.001205 0.019464 -0.009458 0.000000 0.000000 0.000000
# 3 -0.005300 -0.009458 0.015658 0.000000 0.000000 0.000000
# 4 0.000000 0.000000 0.000000 0.054441 0.000000 0.000000
# 5 0.000000 0.000000 0.000000 0.000000 0.036254 0.000000
# 6 0.000000 0.000000 0.000000 0.000000 0.000000 0.072008
#
#
# Mechanical properties :
#
#
# Convention : Reuss Voigt Hill
#
# Bulk Modulus (GPa) = 54.63175 59.92028 57.27602
# Shear Modulus (GPa) = 19.92365 21.94635 20.93500
#
# Velocity S-wave (km/s) = 3.32119 3.48571 3.40444
# Velocity P-wave (km/s) = 6.70469 7.02665 6.86756
#
# Compressibility (1/GPa) = 0.01830437
#
# Stress axis : x y z
#
# Youngs Moduli (GPa) = 66.19612 51.37615 63.86599
#
# Poissons Ratio (x) = 0.06190 0.33848
# Poissons Ratio (y) = 0.07975 0.60401
# Poissons Ratio (z) = 0.35083 0.48589
#
# Static dielectric constant tensor:
#      x y z
#    x 3.234870 0.000000 0.000000 
#    y 0.000000 3.364230 0.000000 
#    z 0.000000 0.000000 3.490420 
# 
# 
# High freq. dielectric constant tensor:
#      x y z
#    x 1.685810 0.000000 0.000000 
#    y 0.000000 1.696220 0.000000 
#    z 0.000000 0.000000 1.702300 
# 
# From -- ./inp_files/32337.got.cif
#   From: 2010.03.12/outbox.cif.g09.slc.cpg/sg74_17_cif.got.tgz:32337.got - 2010.04.16 15:46:19.
