data_PCOD8300631
_publ_section_title
;
Structure prediction by ZEFSAII (Michael W. Deem and Ramdas Pophale) SiO2 
 PCOD8300631
Probable space group: I M M A
;
_chemical_formula_sum "Si O2"
_cell_formula_units_Z 80
_cell_length_a 22.888555
_cell_length_b 9.051784
_cell_length_c 19.404582
_cell_angle_alpha 90.000000
_cell_angle_beta 90.000000
_cell_angle_gamma 90.000000
_cell_volume 4020.285074
_symmetry_space_group_name_H-M "I M M A"
_symmetry_group_IT_number 74
_symmetry_cell_setting 'orthorhombic'
loop_
_space_group_symop_operation_xyz
x,y,z
-x,1/2-y,z
x,-y,-z
-x,1/2+y,-z
-x,-y,-z
x,1/2+y,-z
-x,y,z
x,1/2-y,z
1/2+x,1/2+y,1/2+z
1/2-x,-y,1/2+z
1/2+x,1/2-y,1/2-z
1/2-x,y,1/2-z
1/2-x,1/2-y,1/2-z
1/2+x,y,1/2-z
1/2-x,1/2+y,1/2+z
1/2+x,-y,1/2+z
loop_
_atom_site_type_symbol
_atom_site_label
_atom_site_fract_x
_atom_site_fract_y
_atom_site_fract_z
Si Si1 0.162142 0.921490 0.927182
Si Si2 0.932406 0.078025 0.181750
Si Si3 0.066803 0.587865 0.562943
Si Si4 0.114959 0.075000 0.685003
Si Si5 0.233192 0.579115 0.671470
O O1 0.169320 0.750000 0.941721
O O2 0.100190 0.954914 0.890230
O O3 0.214587 0.976113 0.877783
O O4 0.164416 0.000000 0.000000
O O5 0.926171 0.250000 0.201989
O O6 0.000000 0.031218 0.174153
O O7 0.899765 0.983349 0.239313
O O8 0.098085 0.500000 0.500000
O O9 0.096583 0.750000 0.572086
O O10 0.068209 0.492734 0.632601
O O11 0.000000 0.612989 0.543225
O O12 0.111554 0.250000 0.685164
O O13 0.177417 0.021803 0.656424
O O14 0.217914 0.750000 0.657968
O O15 0.250000 0.553151 0.750000
#
# Coordination Sequence:
#
# PCOD8300631 Si02
#       5
#    16  16  16  16  16
#     4  10  22  40  63  91 121 157 199 249 305 361
#     4  10  21  40  64  88 118 162 211 250 294 359
#     4  10  21  38  59  83 116 158 201 246 298 355
#     4  12  24  36  58  91 125 156 197 251 304 360
#     4  10  20  40  65  84 113 157 202 244 292 353
#
# _framework density 19.899087999999999
#
# number of rings (size 3 to 8) (size 9 to 14) (size 15 to 20)
#    0.000    1.600    2.000    3.000    0.000    7.200 
#    0.000    2.000    0.000    0.000    0.000    0.000 
#    0.000    0.000    0.000    0.000    0.000    0.000 
#
# Total GULP energy -496024.260941 kJ/mol
# GULP energy per Si atom -12400.606524 kJ/mol
# Density = 1.985380 g / cm^3
# Si number density = 19.899088 Si / 1000 Ang^3
#
#
#
# Elastic Constant Matrix: (Units=GPa)
#
#
# Indices 1 2 3 4 5 6 
#
# 1 111.2717 43.6256 45.2557 0.0000 0.0000 0.0000
# 2 43.6256 112.9679 62.1256 0.0000 0.0000 0.0000
# 3 45.2557 62.1256 141.0684 0.0000 0.0000 0.0000
# 4 0.0000 0.0000 0.0000 38.4436 0.0000 0.0000
# 5 0.0000 0.0000 0.0000 0.0000 29.2414 0.0000
# 6 0.0000 0.0000 0.0000 0.0000 0.0000 16.7759
#
#
#
# Elastic Compliance Matrix: (Units=1/GPa)
#
#
# Indices 1 2 3 4 5 6 
#
# 1 0.011087 -0.003069 -0.002205 0.000000 0.000000 0.000000
# 2 -0.003069 0.012531 -0.004534 0.000000 0.000000 0.000000
# 3 -0.002205 -0.004534 0.009793 0.000000 0.000000 0.000000
# 4 0.000000 0.000000 0.000000 0.026012 0.000000 0.000000
# 5 0.000000 0.000000 0.000000 0.000000 0.034198 0.000000
# 6 0.000000 0.000000 0.000000 0.000000 0.000000 0.059609
#
#
# Mechanical properties :
#
#
# Convention : Reuss Voigt Hill
#
# Bulk Modulus (GPa) = 72.49230 74.14687 73.31959
# Shear Modulus (GPa) = 28.17785 31.17891 29.67838
#
# Velocity S-wave (km/s) = 3.76711 3.96264 3.86611
# Velocity P-wave (km/s) = 7.44517 7.63407 7.54021
#
# Compressibility (1/GPa) = 0.01379457
#
# Stress axis : x y z
#
# Youngs Moduli (GPa) = 90.19484 79.80512 102.11431
#
# Poissons Ratio (x) = 0.24490 0.22520
# Poissons Ratio (y) = 0.27679 0.46297
# Poissons Ratio (z) = 0.19891 0.36183
#
# Static dielectric constant tensor:
#      x y z
#    x 3.744250 0.000000 0.000000 
#    y 0.000000 3.692440 0.000000 
#    z 0.000000 0.000000 3.552270 
# 
# 
# High freq. dielectric constant tensor:
#      x y z
#    x 1.775100 0.000000 0.000000 
#    y 0.000000 1.771000 0.000000 
#    z 0.000000 0.000000 1.778350 
# 
# From -- ./inp_files/46486.got.cif
#   From: 2010.03.12/outbox.cif.g09.slc.cpg/sg74_24_cif.got.tgz:46486.got - 2010.04.16 15:46:19.
