data_PCOD8300900
_publ_section_title
;
Structure prediction by ZEFSAII (Michael W. Deem and Ramdas Pophale) SiO2 
 PCOD8300900
Probable space group: I M M A
;
_chemical_formula_sum "Si O2"
_cell_formula_units_Z 80
_cell_length_a 8.677951
_cell_length_b 18.217326
_cell_length_c 25.310353
_cell_angle_alpha 90.000000
_cell_angle_beta 90.000000
_cell_angle_gamma 90.000000
_cell_volume 4001.289974
_symmetry_space_group_name_H-M "I M M A"
_symmetry_group_IT_number 74
_symmetry_cell_setting 'orthorhombic'
loop_
_space_group_symop_operation_xyz
x,y,z
-x,1/2-y,z
x,-y,-z
-x,1/2+y,-z
-x,-y,-z
x,1/2+y,-z
-x,y,z
x,1/2-y,z
1/2+x,1/2+y,1/2+z
1/2-x,-y,1/2+z
1/2+x,1/2-y,1/2-z
1/2-x,y,1/2-z
1/2-x,1/2-y,1/2-z
1/2+x,y,1/2-z
1/2-x,1/2+y,1/2+z
1/2+x,-y,1/2+z
loop_
_atom_site_type_symbol
_atom_site_label
_atom_site_fract_x
_atom_site_fract_y
_atom_site_fract_z
Si Si1 0.178394 0.085750 0.503868
Si Si2 0.678064 0.835293 0.896809
Si Si3 0.819043 0.575254 0.805946
Si Si4 0.321735 0.165775 0.600992
Si Si5 0.681252 0.919855 0.193928
O O1 0.230420 0.122742 0.449368
O O2 0.281564 0.117993 0.550167
O O3 0.000000 0.102497 0.516337
O O4 0.211137 0.000000 0.500000
O O5 0.500000 0.851494 0.883887
O O6 0.709974 0.750000 0.905739
O O7 0.780773 0.862597 0.848372
O O8 0.750000 0.600170 0.750000
O O9 0.748494 0.497947 0.824718
O O10 0.000000 0.565950 0.799773
O O11 0.500000 0.154600 0.614996
O O12 0.281945 0.250000 0.588600
O O13 0.221801 0.141251 0.651046
O O14 0.500000 0.927706 0.199592
O O15 0.750000 0.895328 0.250000
#
# Coordination Sequence:
#
# PCOD8300900 Si02
#       5
#    16  16  16  16  16
#     4  10  21  38  62  89 116 151 195 241 290 346
#     4  10  21  37  57  84 120 158 196 240 292 350
#     4  11  22  38  61  87 117 152 194 242 292 347
#     4  11  24  40  59  87 122 156 193 239 290 345
#     4  11  22  39  63  88 117 153 195 240 288 344
#
# _framework density 19.993551
#
# number of rings (size 3 to 8) (size 9 to 14) (size 15 to 20)
#    0.000    1.400    0.000    7.200    0.000    6.400 
#    0.000    0.000    0.000    0.000    0.000    0.000 
#    0.000    0.000    0.000    0.000    0.000    0.000 
#
# Total GULP energy -496301.831000 kJ/mol
# GULP energy per Si atom -12407.545775 kJ/mol
# Density = 1.994804 g / cm^3
# Si number density = 19.993551 Si / 1000 Ang^3
#
#
#
# Elastic Constant Matrix: (Units=GPa)
#
#
# Indices 1 2 3 4 5 6 
#
# 1 129.8248 43.9257 51.6434 0.0000 0.0000 0.0000
# 2 43.9257 103.7679 65.0333 0.0000 0.0000 0.0000
# 3 51.6434 65.0333 126.7858 0.0000 0.0000 0.0000
# 4 0.0000 0.0000 0.0000 19.3454 0.0000 0.0000
# 5 0.0000 0.0000 0.0000 0.0000 38.0702 0.0000
# 6 0.0000 0.0000 0.0000 0.0000 0.0000 51.1886
#
#
#
# Elastic Compliance Matrix: (Units=1/GPa)
#
#
# Indices 1 2 3 4 5 6 
#
# 1 0.009572 -0.002370 -0.002683 0.000000 0.000000 0.000000
# 2 -0.002370 0.014790 -0.006621 0.000000 0.000000 0.000000
# 3 -0.002683 -0.006621 0.012376 0.000000 0.000000 0.000000
# 4 0.000000 0.000000 0.000000 0.051692 0.000000 0.000000
# 5 0.000000 0.000000 0.000000 0.000000 0.026267 0.000000
# 6 0.000000 0.000000 0.000000 0.000000 0.000000 0.019536
#
#
# Mechanical properties :
#
#
# Convention : Reuss Voigt Hill
#
# Bulk Modulus (GPa) = 74.68479 75.73146 75.20813
# Shear Modulus (GPa) = 30.85586 35.03924 32.94755
#
# Velocity S-wave (km/s) = 3.93274 4.19086 4.06385
# Velocity P-wave (km/s) = 7.61954 7.83441 7.72772
#
# Compressibility (1/GPa) = 0.01338961
#
# Stress axis : x y z
#
# Youngs Moduli (GPa) = 104.47130 67.61538 80.80030
#
# Poissons Ratio (x) = 0.16027 0.21680
# Poissons Ratio (y) = 0.24763 0.53495
# Poissons Ratio (z) = 0.28031 0.44766
#
# Static dielectric constant tensor:
#      x y z
#    x 3.705240 0.000000 0.000000 
#    y 0.000000 3.632110 0.000000 
#    z 0.000000 0.000000 3.686080 
# 
# 
# High freq. dielectric constant tensor:
#      x y z
#    x 1.784430 0.000000 0.000000 
#    y 0.000000 1.784020 0.000000 
#    z 0.000000 0.000000 1.791700 
# 
# From -- ./inp_files/63932.got.cif
#   From: 2010.03.12/outbox.cif.g09.slc.cpg/sg74_32_cif.got.tgz:63932.got - 2010.04.16 15:46:19.
