data_PCOD8300570
_publ_section_title
;
Structure prediction by ZEFSAII (Michael W. Deem and Ramdas Pophale) SiO2 
 PCOD8300570
Probable space group: I M M A
;
_chemical_formula_sum "Si O2"
_cell_formula_units_Z 96
_cell_length_a 26.371849
_cell_length_b 16.859791
_cell_length_c 10.190057
_cell_angle_alpha 90.000000
_cell_angle_beta 90.000000
_cell_angle_gamma 90.000000
_cell_volume 4530.742502
_symmetry_space_group_name_H-M "I M M A"
_symmetry_group_IT_number 74
_symmetry_cell_setting 'orthorhombic'
loop_
_space_group_symop_operation_xyz
x,y,z
-x,1/2-y,z
x,-y,-z
-x,1/2+y,-z
-x,-y,-z
x,1/2+y,-z
-x,y,z
x,1/2-y,z
1/2+x,1/2+y,1/2+z
1/2-x,-y,1/2+z
1/2+x,1/2-y,1/2-z
1/2-x,y,1/2-z
1/2-x,1/2-y,1/2-z
1/2+x,y,1/2-z
1/2-x,1/2+y,1/2+z
1/2+x,-y,1/2+z
loop_
_atom_site_type_symbol
_atom_site_label
_atom_site_fract_x
_atom_site_fract_y
_atom_site_fract_z
Si Si1 0.389533 0.085209 0.253887
Si Si2 0.939779 0.580088 0.270036
Si Si3 0.719667 0.419824 0.359938
Si Si4 0.440473 0.660273 0.497178
Si Si5 0.869211 0.842497 0.475240
Si Si6 0.736585 0.092086 0.887737
O O1 0.336881 0.058450 0.319817
O O2 0.418211 0.134293 0.364375
O O3 0.421612 0.009496 0.209847
O O4 0.381593 0.139418 0.126727
O O5 0.916680 0.635177 0.383570
O O6 0.000000 0.585714 0.283865
O O7 0.921296 0.607866 0.125578
O O8 0.750000 0.368030 0.250000
O O9 0.724411 0.374841 0.500030
O O10 0.754734 0.498194 0.373613
O O11 0.500000 0.651086 0.510743
O O12 0.423991 0.750000 0.468173
O O13 0.857212 0.750000 0.461424
O O14 0.821352 0.893124 0.426804
O O15 0.750000 0.135155 0.750000
#
# Coordination Sequence:
#
# PCOD8300570 Si02
#       6
#    16  16  16  16  16  16
#     4  12  24  41  71 102 131 172 227 278 330 401
#     4  11  25  44  69 100 133 173 227 283 332 395
#     4  10  20  38  63  94 126 168 209 266 334 385
#     4  10  23  44  67  97 139 177 213 268 337 403
#     4  12  27  45  65  95 136 179 223 278 341 405
#     4  10  22  38  63  93 126 168 218 267 324 395
#
# _framework density 21.188580999999999
#
# number of rings (size 3 to 8) (size 9 to 14) (size 15 to 20)
#    0.000    1.167    1.667    4.500    9.333    4.667 
#    0.000    2.500    0.000    0.000    0.000    0.000 
#    0.000    0.000    0.000    0.000    0.000    0.000 
#
# Total GULP energy -595032.872121 kJ/mol
# GULP energy per Si atom -12396.518169 kJ/mol
# Density = 2.114035 g / cm^3
# Si number density = 21.188581 Si / 1000 Ang^3
#
#
#
# Elastic Constant Matrix: (Units=GPa)
#
#
# Indices 1 2 3 4 5 6 
#
# 1 141.4644 13.2869 69.5430 0.0000 0.0000 0.0000
# 2 13.2869 89.5431 14.9176 0.0000 0.0000 0.0000
# 3 69.5430 14.9176 189.5444 0.0000 0.0000 0.0000
# 4 0.0000 0.0000 0.0000 29.4833 0.0000 0.0000
# 5 0.0000 0.0000 0.0000 0.0000 45.1317 0.0000
# 6 0.0000 0.0000 0.0000 0.0000 0.0000 19.9797
#
#
#
# Elastic Compliance Matrix: (Units=1/GPa)
#
#
# Indices 1 2 3 4 5 6 
#
# 1 0.008676 -0.000767 -0.003123 0.000000 0.000000 0.000000
# 2 -0.000767 0.011384 -0.000614 0.000000 0.000000 0.000000
# 3 -0.003123 -0.000614 0.006470 0.000000 0.000000 0.000000
# 4 0.000000 0.000000 0.000000 0.033917 0.000000 0.000000
# 5 0.000000 0.000000 0.000000 0.000000 0.022157 0.000000
# 6 0.000000 0.000000 0.000000 0.000000 0.000000 0.050051
#
#
# Mechanical properties :
#
#
# Convention : Reuss Voigt Hill
#
# Bulk Modulus (GPa) = 57.07406 68.44965 62.76185
# Shear Modulus (GPa) = 33.89711 40.43923 37.16817
#
# Velocity S-wave (km/s) = 4.00407 4.37342 4.19281
# Velocity P-wave (km/s) = 6.95496 7.60773 7.28865
#
# Compressibility (1/GPa) = 0.01752110
#
# Stress axis : x y z
#
# Youngs Moduli (GPa) = 115.25852 87.84247 154.56106
#
# Poissons Ratio (x) = 0.06739 0.48267
# Poissons Ratio (y) = 0.08842 0.09498
# Poissons Ratio (z) = 0.35994 0.05398
#
# Static dielectric constant tensor:
#      x y z
#    x 3.812190 0.000000 0.000000 
#    y 0.000000 3.547440 0.000000 
#    z 0.000000 0.000000 5.524840 
# 
# 
# High freq. dielectric constant tensor:
#      x y z
#    x 1.834520 0.000000 0.000000 
#    y 0.000000 1.800010 0.000000 
#    z 0.000000 0.000000 1.868910 
# 
# From -- ./inp_files/26295.got.cif
#   From: 2010.03.12/outbox.cif.g09.slc.cpg/sg74_14_cif.got.tgz:26295.got - 2010.04.16 15:46:19.
