data_PCOD8300097
_publ_section_title
;
Structure prediction by ZEFSAII (Michael W. Deem and Ramdas Pophale) SiO2 
 PCOD8300097
Probable space group: I M M A
;
_chemical_formula_sum "Si O2"
_cell_formula_units_Z 72
_cell_length_a 15.382012
_cell_length_b 8.915279
_cell_length_c 26.535212
_cell_angle_alpha 90.000000
_cell_angle_beta 90.000000
_cell_angle_gamma 90.000000
_cell_volume 3638.904402
_symmetry_space_group_name_H-M "I M M A"
_symmetry_group_IT_number 74
_symmetry_cell_setting 'orthorhombic'
loop_
_space_group_symop_operation_xyz
x,y,z
-x,1/2-y,z
x,-y,-z
-x,1/2+y,-z
-x,-y,-z
x,1/2+y,-z
-x,y,z
x,1/2-y,z
1/2+x,1/2+y,1/2+z
1/2-x,-y,1/2+z
1/2+x,1/2-y,1/2-z
1/2-x,y,1/2-z
1/2-x,1/2-y,1/2-z
1/2+x,y,1/2-z
1/2-x,1/2+y,1/2+z
1/2+x,-y,1/2+z
loop_
_atom_site_type_symbol
_atom_site_label
_atom_site_fract_x
_atom_site_fract_y
_atom_site_fract_z
Si Si1 0.500000 0.574194 0.945994
Si Si2 0.654329 0.425206 0.446978
Si Si3 0.500000 0.428356 0.263761
Si Si4 0.000000 0.428100 0.122673
Si Si5 0.326633 0.425582 0.110765
Si Si6 0.332400 0.074464 0.783909
O O1 0.500000 0.750000 0.955040
O O2 0.416278 0.522751 0.914578
O O3 0.500000 0.500000 0.000000
O O4 0.635213 0.500000 0.500000
O O5 0.640745 0.250000 0.454412
O O6 0.585603 0.487275 0.406067
O O7 0.750868 0.464045 0.428631
O O8 0.500000 0.250000 0.262401
O O9 0.500000 0.492848 0.320661
O O10 0.584648 0.484749 0.235185
O O11 0.000000 0.250000 0.125721
O O12 0.327100 0.250000 0.125152
O O13 0.309913 0.523433 0.159929
O O14 0.353203 0.250000 0.782601
O O15 0.250000 0.032667 0.750000
#
# Coordination Sequence:
#
# PCOD8300097 Si02
#       6
#     8  16   8   8  16  16
#     4  10  21  36  55  81 110 142 183 230 280 335
#     4  10  20  35  55  80 110 143 184 231 278 332
#     4  11  22  39  64  87 113 154 199 240 285 341
#     4   9  19  35  55  80 108 142 185 230 276 332
#     4  10  21  37  57  81 110 147 191 233 276 337
#     4  11  24  40  59  87 121 153 190 240 295 347
#
# _framework density 19.786176000000001
#
# number of rings (size 3 to 8) (size 9 to 14) (size 15 to 20)
#    0.000    1.778    0.000    4.000    0.000    6.222 
#    0.000    2.222    0.000    0.000    0.000    0.000 
#    0.000    0.000    0.000    0.000    0.000    0.000 
#
# Total GULP energy -446588.513936 kJ/mol
# GULP energy per Si atom -12405.236498 kJ/mol
# Density = 1.974114 g / cm^3
# Si number density = 19.786176 Si / 1000 Ang^3
#
#
#
# Elastic Constant Matrix: (Units=GPa)
#
#
# Indices 1 2 3 4 5 6 
#
# 1 99.9544 25.8047 8.2838 0.0000 0.0000 0.0000
# 2 25.8047 49.8136 29.5486 0.0000 0.0000 0.0000
# 3 8.2838 29.5486 101.1554 0.0000 0.0000 0.0000
# 4 0.0000 0.0000 0.0000 38.8237 0.0000 0.0000
# 5 0.0000 0.0000 0.0000 0.0000 34.1576 0.0000
# 6 0.0000 0.0000 0.0000 0.0000 0.0000 111.1036
#
#
#
# Elastic Compliance Matrix: (Units=1/GPa)
#
#
# Indices 1 2 3 4 5 6 
#
# 1 0.011628 -0.006603 0.000977 0.000000 0.000000 0.000000
# 2 -0.006603 0.028032 -0.007648 0.000000 0.000000 0.000000
# 3 0.000977 -0.007648 0.012040 0.000000 0.000000 0.000000
# 4 0.000000 0.000000 0.000000 0.025757 0.000000 0.000000
# 5 0.000000 0.000000 0.000000 0.000000 0.029276 0.000000
# 6 0.000000 0.000000 0.000000 0.000000 0.000000 0.009001
#
#
# Mechanical properties :
#
#
# Convention : Reuss Voigt Hill
#
# Bulk Modulus (GPa) = 39.75888 42.02198 40.89043
# Shear Modulus (GPa) = 33.18593 49.30274 41.24434
#
# Velocity S-wave (km/s) = 4.09984 4.99719 4.57059
# Velocity P-wave (km/s) = 6.52300 7.38783 6.96884
#
# Compressibility (1/GPa) = 0.02515161
#
# Stress axis : x y z
#
# Youngs Moduli (GPa) = 85.99711 35.67370 83.05800
#
# Poissons Ratio (x) = 0.23555 -0.08111
# Poissons Ratio (y) = 0.56784 0.63520
# Poissons Ratio (z) = -0.08398 0.27282
#
# Static dielectric constant tensor:
#      x y z
#    x 3.746080 0.000000 0.000000 
#    y 0.000000 3.414330 0.000000 
#    z 0.000000 0.000000 3.678850 
# 
# 
# High freq. dielectric constant tensor:
#      x y z
#    x 1.791630 0.000000 0.000000 
#    y 0.000000 1.753790 0.000000 
#    z 0.000000 0.000000 1.786420 
# 
# From -- ./inp_files/63713.got.cif
#   From: 2010.03.12/outbox.cif.g09.slc.cpg/sg74_32_cif.got.tgz:63713.got - 2010.04.16 15:46:19.
