data_PCOD8300967
_publ_section_title
;
Structure prediction by ZEFSAII (Michael W. Deem and Ramdas Pophale) SiO2 
 PCOD8300967
Probable space group: I M M A
;
_chemical_formula_sum "Si O2"
_cell_formula_units_Z 56
_cell_length_a 10.466373
_cell_length_b 11.000714
_cell_length_c 24.328776
_cell_angle_alpha 90.000000
_cell_angle_beta 90.000000
_cell_angle_gamma 90.000000
_cell_volume 2801.156295
_symmetry_space_group_name_H-M "I M M A"
_symmetry_group_IT_number 74
_symmetry_cell_setting 'orthorhombic'
loop_
_space_group_symop_operation_xyz
x,y,z
-x,1/2-y,z
x,-y,-z
-x,1/2+y,-z
-x,-y,-z
x,1/2+y,-z
-x,y,z
x,1/2-y,z
1/2+x,1/2+y,1/2+z
1/2-x,-y,1/2+z
1/2+x,1/2-y,1/2-z
1/2-x,y,1/2-z
1/2-x,1/2-y,1/2-z
1/2+x,y,1/2-z
1/2-x,1/2+y,1/2+z
1/2+x,-y,1/2+z
loop_
_atom_site_type_symbol
_atom_site_label
_atom_site_fract_x
_atom_site_fract_y
_atom_site_fract_z
Si Si1 0.363335 0.250000 0.454202
Si Si2 0.352367 0.116280 0.907073
Si Si3 0.645984 0.250000 0.136685
Si Si4 0.146167 0.007683 0.296723
Si Si5 0.207434 0.000000 0.000000
O O1 0.500000 0.250000 0.422034
O O2 0.242464 0.250000 0.414233
O O3 0.367880 0.126838 0.491548
O O4 0.500000 0.107607 0.920887
O O5 0.299145 0.250000 0.921896
O O6 0.328808 0.094065 0.842694
O O7 0.288688 0.013557 0.944352
O O8 0.500000 0.250000 0.113717
O O9 0.671530 0.363451 0.175550
O O10 0.250000 0.984171 0.250000
O O11 0.000000 0.999678 0.273839
#
# Coordination Sequence:
#
# PCOD8300967 Si02
#       5
#     8  16   8  16   8
#     4  12  26  41  63  94 132 167 206 257 315 377
#     4  10  21  37  62  94 124 159 209 262 310 368
#     4  10  21  39  63  90 120 157 209 257 304 369
#     4  10  21  38  60  89 122 159 204 256 309 370
#     4  12  22  42  64  90 127 168 209 254 317 372
#
# _framework density 19.991744000000001
#
# number of rings (size 3 to 8) (size 9 to 14) (size 15 to 20)
#    0.000    1.429    4.286    1.286    0.000    2.857 
#    0.000    0.000    0.000    0.000    0.000    0.000 
#    0.000    0.000    0.000    0.000    0.000    0.000 
#
# Total GULP energy -346994.237305 kJ/mol
# GULP energy per Si atom -12392.651332 kJ/mol
# Density = 1.994624 g / cm^3
# Si number density = 19.991744 Si / 1000 Ang^3
#
#
#
# Elastic Constant Matrix: (Units=GPa)
#
#
# Indices 1 2 3 4 5 6 
#
# 1 120.5379 36.9525 66.0158 0.0000 0.0000 0.0000
# 2 36.9525 113.6190 24.7512 0.0000 0.0000 0.0000
# 3 66.0158 24.7512 83.8406 0.0000 0.0000 0.0000
# 4 0.0000 0.0000 0.0000 15.0486 0.0000 0.0000
# 5 0.0000 0.0000 0.0000 0.0000 -4.8559 0.0000
# 6 0.0000 0.0000 0.0000 0.0000 0.0000 4.2551
#
#
#
# Elastic Compliance Matrix: (Units=1/GPa)
#
#
# Indices 1 2 3 4 5 6 
#
# 1 0.015223 -0.002501 -0.011249 0.000000 0.000000 0.000000
# 2 -0.002501 0.009817 -0.000929 0.000000 0.000000 0.000000
# 3 -0.011249 -0.000929 0.021059 0.000000 0.000000 0.000000
# 4 0.000000 0.000000 0.000000 0.066452 0.000000 0.000000
# 5 0.000000 0.000000 0.000000 0.000000 -0.205936 0.000000
# 6 0.000000 0.000000 0.000000 0.000000 0.000000 0.235012
#
#
# Mechanical properties :
#
#
# Convention : Reuss Voigt Hill
#
# Bulk Modulus (GPa) = 59.72856 63.71517 61.72187
# Shear Modulus (GPa) = 28.31837 15.57475 21.94656
#
# Velocity S-wave (km/s) = 3.76773 2.79419 3.31687
# Velocity P-wave (km/s) = 6.99065 6.50768 6.75349
#
# Compressibility (1/GPa) = 0.01674241
#
# Stress axis : x y z
#
# Youngs Moduli (GPa) = 65.68858 101.86353 47.48609
#
# Poissons Ratio (x) = 0.25473 0.53415
# Poissons Ratio (y) = 0.16427 0.04412
# Poissons Ratio (z) = 0.73890 0.09464
#
# Static dielectric constant tensor:
#      x y z
#    x 3.531290 0.000000 0.000000 
#    y 0.000000 4.162340 0.000000 
#    z 0.000000 0.000000 3.432380 
# 
# 
# High freq. dielectric constant tensor:
#      x y z
#    x 1.769230 0.000000 0.000000 
#    y 0.000000 1.804300 0.000000 
#    z 0.000000 0.000000 1.763480 
# 
# From -- ./inp_files/58205.got.cif
#   From: 2010.03.12/outbox.cif.g09.slc.cpg/sg74_30_cif.got.tgz:58205.got - 2010.04.16 15:46:19.
