data_PCOD8300564
_publ_section_title
;
Structure prediction by ZEFSAII (Michael W. Deem and Ramdas Pophale) SiO2 
 PCOD8300564
Probable space group: I M M A
;
_chemical_formula_sum "Si O2"
_cell_formula_units_Z 60
_cell_length_a 10.124178
_cell_length_b 22.635103
_cell_length_c 13.200630
_cell_angle_alpha 90.000000
_cell_angle_beta 90.000000
_cell_angle_gamma 90.000000
_cell_volume 3025.080288
_symmetry_space_group_name_H-M "I M M A"
_symmetry_group_IT_number 74
_symmetry_cell_setting 'orthorhombic'
loop_
_space_group_symop_operation_xyz
x,y,z
-x,1/2-y,z
x,-y,-z
-x,1/2+y,-z
-x,-y,-z
x,1/2+y,-z
-x,y,z
x,1/2-y,z
1/2+x,1/2+y,1/2+z
1/2-x,-y,1/2+z
1/2+x,1/2-y,1/2-z
1/2-x,y,1/2-z
1/2-x,1/2-y,1/2-z
1/2+x,y,1/2-z
1/2-x,1/2+y,1/2+z
1/2+x,-y,1/2+z
loop_
_atom_site_type_symbol
_atom_site_label
_atom_site_fract_x
_atom_site_fract_y
_atom_site_fract_z
Si Si1 0.500000 0.376465 0.533809
Si Si2 0.219252 0.377338 0.434883
Si Si3 0.000000 0.936753 0.445937
Si Si4 0.750000 0.456457 0.250000
Si Si5 0.000000 0.750000 0.996713
Si Si6 0.741931 0.750000 0.870342
Si Si7 0.000000 0.532268 0.215663
O O1 0.372169 0.386805 0.463808
O O2 0.500000 0.307584 0.569100
O O3 0.500000 0.416493 0.632421
O O4 0.130610 0.400443 0.526420
O O5 0.185935 0.416064 0.336431
O O6 0.173595 0.310134 0.410285
O O7 0.000000 0.939969 0.326082
O O8 0.000000 0.000000 0.500000
O O9 0.633309 0.494930 0.299696
O O10 0.115053 0.750000 0.916480
O O11 0.750000 0.750000 0.750000
#
# Coordination Sequence:
#
# PCOD8300564 Si02
#       7
#     8  16   8   8   4   8   8
#     4  10  23  41  64  88 117 165 207 248 296 362
#     4  11  23  40  62  91 126 155 198 251 304 360
#     4  12  24  42  57  85 130 159 192 258 302 347
#     4  12  22  37  60  93 120 160 196 244 306 366
#     4   8  20  40  60  88 122 150 204 264 294 342
#     4  10  20  38  63  90 119 157 198 245 307 366
#     4  12  25  38  62  86 119 166 208 239 302 357
#
# _framework density 19.834185000000002
#
# number of rings (size 3 to 8) (size 9 to 14) (size 15 to 20)
#    0.000    1.067    4.000    2.400    0.000    2.667 
#    0.000    1.333    0.000    5.600    0.000    0.000 
#    0.000    0.000    0.000    0.000    0.000    0.000 
#
# Total GULP energy -371970.585653 kJ/mol
# GULP energy per Si atom -12399.019522 kJ/mol
# Density = 1.978904 g / cm^3
# Si number density = 19.834185 Si / 1000 Ang^3
#
#
#
# Elastic Constant Matrix: (Units=GPa)
#
#
# Indices 1 2 3 4 5 6 
#
# 1 88.0741 41.8689 2.4503 0.0000 -0.0001 0.0000
# 2 41.8689 164.7174 64.6948 0.0000 -0.0001 0.0000
# 3 2.4503 64.6948 101.6753 -0.0005 0.0013 0.0001
# 4 0.0000 0.0000 -0.0005 43.7864 0.0003 0.0000
# 5 -0.0001 -0.0001 0.0013 0.0003 -49.7607 -0.0001
# 6 0.0000 0.0000 0.0001 0.0000 -0.0001 20.9188
#
#
#
# Elastic Compliance Matrix: (Units=1/GPa)
#
#
# Indices 1 2 3 4 5 6 
#
# 1 0.013358 -0.004358 0.002451 0.000000 0.000000 0.000000
# 2 -0.004358 0.009516 -0.005950 0.000000 0.000000 0.000000
# 3 0.002451 -0.005950 0.013562 0.000000 0.000000 0.000000
# 4 0.000000 0.000000 0.000000 0.022838 0.000000 0.000000
# 5 0.000000 0.000000 0.000000 0.000000 -0.020096 0.000000
# 6 0.000000 0.000000 0.000000 0.000000 0.000000 0.047804
#
#
# Mechanical properties :
#
#
# Convention : Reuss Voigt Hill
#
# Bulk Modulus (GPa) = 48.25830 63.61054 55.93442
# Shear Modulus (GPa) = 45.61997 19.35242 32.48619
#
# Velocity S-wave (km/s) = 4.80111 3.12702 4.05147
# Velocity P-wave (km/s) = 7.42414 6.72150 7.08154
#
# Compressibility (1/GPa) = 0.02072182
#
# Stress axis : x y z
#
# Youngs Moduli (GPa) = 74.86382 105.09146 73.73644
#
# Poissons Ratio (x) = 0.45799 -0.18073
# Poissons Ratio (y) = 0.32626 0.43870
# Poissons Ratio (z) = -0.18349 0.62525
#
# Static dielectric constant tensor:
#      x y z
#    x 3.645850 0.000000 0.000000 
#    y 0.000000 4.140170 0.000000 
#    z 0.000000 0.000000 3.431960 
# 
# 
# High freq. dielectric constant tensor:
#      x y z
#    x 1.781540 0.000000 0.000000 
#    y 0.000000 1.790730 0.000000 
#    z 0.000000 0.000000 1.761160 
# 
# From -- ./inp_files/18504.got.cif
#   From: 2010.03.12/outbox.cif.g09.slc.cpg/sg74_10_cif.got.tgz:18504.got - 2010.04.16 15:46:19.
