data_PCOD8300771
_publ_section_title
;
Structure prediction by ZEFSAII (Michael W. Deem and Ramdas Pophale) SiO2 
 PCOD8300771
Probable space group: I M M A
;
_chemical_formula_sum "Si O2"
_cell_formula_units_Z 96
_cell_length_a 13.270118
_cell_length_b 15.534016
_cell_length_c 26.528747
_cell_angle_alpha 90.000000
_cell_angle_beta 90.000000
_cell_angle_gamma 90.000000
_cell_volume 5468.588827
_symmetry_space_group_name_H-M "I M M A"
_symmetry_group_IT_number 74
_symmetry_cell_setting 'orthorhombic'
loop_
_space_group_symop_operation_xyz
x,y,z
-x,1/2-y,z
x,-y,-z
-x,1/2+y,-z
-x,-y,-z
x,1/2+y,-z
-x,y,z
x,1/2-y,z
1/2+x,1/2+y,1/2+z
1/2-x,-y,1/2+z
1/2+x,1/2-y,1/2-z
1/2-x,y,1/2-z
1/2-x,1/2-y,1/2-z
1/2+x,y,1/2-z
1/2-x,1/2+y,1/2+z
1/2+x,-y,1/2+z
loop_
_atom_site_type_symbol
_atom_site_label
_atom_site_fract_x
_atom_site_fract_y
_atom_site_fract_z
Si Si1 0.777848 0.089949 0.194807
Si Si2 0.768948 0.650836 0.124596
Si Si3 0.385544 0.420259 0.713483
Si Si4 0.884882 0.250000 0.026779
Si Si5 0.119984 0.915105 0.029662
Si Si6 0.882492 0.250000 0.144982
Si Si7 0.117242 0.042285 0.673041
O O1 0.750000 0.125560 0.250000
O O2 0.822893 0.166836 0.162902
O O3 0.864504 0.018084 0.197026
O O4 0.677734 0.048219 0.169285
O O5 0.761922 0.750000 0.107327
O O6 0.821592 0.645232 0.179430
O O7 0.830642 0.593022 0.084733
O O8 0.657514 0.609029 0.130677
O O9 0.500000 0.396536 0.703402
O O10 0.359353 0.413216 0.772788
O O11 0.873025 0.250000 0.085751
O O12 0.000000 0.250000 0.009900
O O13 0.837104 0.335926 0.003315
O O14 0.000000 0.916049 0.036749
O O15 0.156042 0.000000 0.000000
O O16 0.000000 0.250000 0.162542
O O17 0.000000 0.023311 0.664521
#
# Coordination Sequence:
#
# PCOD8300771 Si02
#       7
#    16  16  16   8  16   8  16
#     4   9  18  33  51  76 107 143 181 213 255 311
#     4  11  21  33  53  79 105 137 173 215 266 322
#     4   9  18  32  51  75 108 142 171 211 261 319
#     4   9  20  35  49  78 113 136 168 208 259 327
#     4  10  21  36  54  78 109 141 171 211 266 329
#     4  11  21  31  52  84 113 138 168 216 268 319
#     4   9  20  37  53  73 103 140 182 221 256 303
#
# _framework density 17.554803
#
# number of rings (size 3 to 8) (size 9 to 14) (size 15 to 20)
#    0.000    2.333    0.833    2.750    4.667    3.333 
#    0.000    2.083    0.000    0.500    0.000    0.000 
#    0.000    0.000    0.000    0.000    0.000    0.000 
#
# Total GULP energy -594973.934596 kJ/mol
# GULP energy per Si atom -12395.290304 kJ/mol
# Density = 1.751485 g / cm^3
# Si number density = 17.554803 Si / 1000 Ang^3
#
#
#
# Elastic Constant Matrix: (Units=GPa)
#
#
# Indices 1 2 3 4 5 6 
#
# 1 92.6466 43.3942 37.4972 0.0000 0.0000 0.0000
# 2 43.3942 109.5146 44.2589 0.0000 0.0000 0.0000
# 3 37.4972 44.2589 59.7614 0.0000 0.0000 0.0000
# 4 0.0000 0.0000 0.0000 30.7918 0.0000 0.0000
# 5 0.0000 0.0000 0.0000 0.0000 26.8271 0.0000
# 6 0.0000 0.0000 0.0000 0.0000 0.0000 12.0655
#
#
#
# Elastic Compliance Matrix: (Units=1/GPa)
#
#
# Indices 1 2 3 4 5 6 
#
# 1 0.015166 -0.003088 -0.007229 0.000000 0.000000 0.000000
# 2 -0.003088 0.013660 -0.008179 0.000000 0.000000 0.000000
# 3 -0.007229 -0.008179 0.027326 0.000000 0.000000 0.000000
# 4 0.000000 0.000000 0.000000 0.032476 0.000000 0.000000
# 5 0.000000 0.000000 0.000000 0.000000 0.037276 0.000000
# 6 0.000000 0.000000 0.000000 0.000000 0.000000 0.082881
#
#
# Mechanical properties :
#
#
# Convention : Reuss Voigt Hill
#
# Bulk Modulus (GPa) = 52.19061 56.91368 54.55214
# Shear Modulus (GPa) = 19.82836 23.05505 21.44170
#
# Velocity S-wave (km/s) = 3.36447 3.62791 3.49867
# Velocity P-wave (km/s) = 6.69981 7.07389 6.88939
#
# Compressibility (1/GPa) = 0.01916053
#
# Stress axis : x y z
#
# Youngs Moduli (GPa) = 65.93790 73.20502 36.59458
#
# Poissons Ratio (x) = 0.22605 0.26454
# Poissons Ratio (y) = 0.20361 0.29932
# Poissons Ratio (z) = 0.47666 0.59876
#
# Static dielectric constant tensor:
#      x y z
#    x 3.252960 0.000000 0.000000 
#    y 0.000000 3.223340 0.000000 
#    z 0.000000 0.000000 3.192070 
# 
# 
# High freq. dielectric constant tensor:
#      x y z
#    x 1.661900 0.000000 0.000000 
#    y 0.000000 1.675380 0.000000 
#    z 0.000000 0.000000 1.670140 
# 
# From -- ./inp_files/60059.got.cif
#   From: 2010.03.12/outbox.cif.g09.slc.cpg/sg74_31_cif.got.tgz:60059.got - 2010.04.16 15:46:19.
