data_PCOD8300593
_publ_section_title
;
Structure prediction by ZEFSAII (Michael W. Deem and Ramdas Pophale) SiO2 
 PCOD8300593
Probable space group: I M M A
;
_chemical_formula_sum "Si O2"
_cell_formula_units_Z 88
_cell_length_a 26.873457
_cell_length_b 9.227623
_cell_length_c 19.110317
_cell_angle_alpha 90.000000
_cell_angle_beta 90.000000
_cell_angle_gamma 90.000000
_cell_volume 4738.940672
_symmetry_space_group_name_H-M "I M M A"
_symmetry_group_IT_number 74
_symmetry_cell_setting 'orthorhombic'
loop_
_space_group_symop_operation_xyz
x,y,z
-x,1/2-y,z
x,-y,-z
-x,1/2+y,-z
-x,-y,-z
x,1/2+y,-z
-x,y,z
x,1/2-y,z
1/2+x,1/2+y,1/2+z
1/2-x,-y,1/2+z
1/2+x,1/2-y,1/2-z
1/2-x,y,1/2-z
1/2-x,1/2-y,1/2-z
1/2+x,y,1/2-z
1/2-x,1/2+y,1/2+z
1/2+x,-y,1/2+z
loop_
_atom_site_type_symbol
_atom_site_label
_atom_site_fract_x
_atom_site_fract_y
_atom_site_fract_z
Si Si1 0.379182 0.578847 0.200382
Si Si2 0.902080 0.579417 0.841273
Si Si3 0.220279 0.586669 0.678599
Si Si4 0.557041 0.418703 0.932323
Si Si5 0.500000 0.919548 0.573304
Si Si6 0.194213 0.080364 0.072668
O O1 0.378586 0.750000 0.212576
O O2 0.402093 0.503612 0.268239
O O3 0.324062 0.526648 0.182230
O O4 0.413556 0.531797 0.136016
O O5 0.899822 0.750000 0.825575
O O6 0.951522 0.534778 0.882954
O O7 0.854532 0.528008 0.885716
O O8 0.199871 0.750000 0.666834
O O9 0.250000 0.580702 0.750000
O O10 0.256744 0.539548 0.616205
O O11 0.500000 0.462999 0.920078
O O12 0.563531 0.250000 0.946656
O O13 0.579100 0.500000 0.000000
O O14 0.500000 0.750000 0.557178
O O15 0.500000 0.000000 0.500000
O O16 0.190751 0.250000 0.058145
O O17 0.197206 0.000000 0.000000
#
# Coordination Sequence:
#
# PCOD8300593 Si02
#       6
#    16  16  16  16   8  16
#     4  11  23  36  58  89 117 147 187 241 287 330
#     4  10  21  39  58  83 117 155 195 231 280 344
#     4  10  20  39  60  78 110 153 189 228 279 335
#     4   9  20  39  59  82 114 149 186 229 281 337
#     4  10  22  38  60  86 117 154 195 242 285 338
#     4  10  21  37  59  83 112 150 189 231 281 336
#
# _framework density 18.569551000000001
#
# number of rings (size 3 to 8) (size 9 to 14) (size 15 to 20)
#    0.000    2.000    1.818    1.091    1.273    4.727 
#    0.000    3.636    0.000    0.000    0.000    0.000 
#    0.000    0.000    0.000    0.000    0.000    0.000 
#
# Total GULP energy -545763.076931 kJ/mol
# GULP energy per Si atom -12403.706294 kJ/mol
# Density = 1.852729 g / cm^3
# Si number density = 18.569551 Si / 1000 Ang^3
#
#
#
# Elastic Constant Matrix: (Units=GPa)
#
#
# Indices 1 2 3 4 5 6 
#
# 1 113.0045 46.6411 80.0112 0.0000 0.0000 0.0000
# 2 46.6411 56.1054 70.0709 0.0000 0.0000 0.0000
# 3 80.0112 70.0709 184.7240 0.0000 0.0000 0.0000
# 4 0.0000 0.0000 0.0000 39.3700 0.0000 0.0000
# 5 0.0000 0.0000 0.0000 0.0000 27.4677 0.0000
# 6 0.0000 0.0000 0.0000 0.0000 0.0000 26.8579
#
#
#
# Elastic Compliance Matrix: (Units=1/GPa)
#
#
# Indices 1 2 3 4 5 6 
#
# 1 0.014417 -0.007955 -0.003227 0.000000 0.000000 0.000000
# 2 -0.007955 0.038258 -0.011067 0.000000 0.000000 0.000000
# 3 -0.003227 -0.011067 0.011009 0.000000 0.000000 0.000000
# 4 0.000000 0.000000 0.000000 0.025400 0.000000 0.000000
# 5 0.000000 0.000000 0.000000 0.000000 0.036406 0.000000
# 6 0.000000 0.000000 0.000000 0.000000 0.000000 0.037233
#
#
# Mechanical properties :
#
#
# Convention : Reuss Voigt Hill
#
# Bulk Modulus (GPa) = 52.11858 83.03114 67.57486
# Shear Modulus (GPa) = 23.40629 29.21315 26.30972
#
# Velocity S-wave (km/s) = 3.55416 3.97063 3.76815
# Velocity P-wave (km/s) = 6.70599 8.11368 7.44319
#
# Compressibility (1/GPa) = 0.01918702
#
# Stress axis : x y z
#
# Youngs Moduli (GPa) = 69.36021 26.13828 90.83236
#
# Poissons Ratio (x) = 0.20793 0.29314
# Poissons Ratio (y) = 0.55175 1.00522
# Poissons Ratio (z) = 0.22385 0.28927
#
# Static dielectric constant tensor:
#      x y z
#    x 3.587050 0.000000 0.000000 
#    y 0.000000 3.340220 0.000000 
#    z 0.000000 0.000000 3.494450 
# 
# 
# High freq. dielectric constant tensor:
#      x y z
#    x 1.728870 0.000000 0.000000 
#    y 0.000000 1.715040 0.000000 
#    z 0.000000 0.000000 1.733290 
# 
# From -- ./inp_files/47025.got.cif
#   From: 2010.03.12/outbox.cif.g09.slc.cpg/sg74_24_cif.got.tgz:47025.got - 2010.04.16 15:46:19.
