data_PCOD8300440
_publ_section_title
;
Structure prediction by ZEFSAII (Michael W. Deem and Ramdas Pophale) SiO2 
 PCOD8300440
Probable space group: I M M A
;
_chemical_formula_sum "Si O2"
_cell_formula_units_Z 96
_cell_length_a 18.857980
_cell_length_b 27.858701
_cell_length_c 9.787477
_cell_angle_alpha 90.000000
_cell_angle_beta 90.000000
_cell_angle_gamma 90.000000
_cell_volume 5141.937429
_symmetry_space_group_name_H-M "I M M A"
_symmetry_group_IT_number 74
_symmetry_cell_setting 'orthorhombic'
loop_
_space_group_symop_operation_xyz
x,y,z
-x,1/2-y,z
x,-y,-z
-x,1/2+y,-z
-x,-y,-z
x,1/2+y,-z
-x,y,z
x,1/2-y,z
1/2+x,1/2+y,1/2+z
1/2-x,-y,1/2+z
1/2+x,1/2-y,1/2-z
1/2-x,y,1/2-z
1/2-x,1/2-y,1/2-z
1/2+x,y,1/2-z
1/2-x,1/2+y,1/2+z
1/2+x,-y,1/2+z
loop_
_atom_site_type_symbol
_atom_site_label
_atom_site_fract_x
_atom_site_fract_y
_atom_site_fract_z
Si Si1 0.582402 0.056322 0.494011
Si Si2 0.319235 0.802356 0.157831
Si Si3 0.579278 0.945504 0.040560
Si Si4 0.334892 0.900266 0.264266
Si Si5 0.418025 0.112099 0.219853
Si Si6 0.182108 0.304525 0.339608
O O1 0.500000 0.064126 0.537184
O O2 0.636198 0.087140 0.586565
O O3 0.597957 0.076264 0.343959
O O4 0.601414 0.000000 0.500000
O O5 0.358737 0.750000 0.166921
O O6 0.250000 0.798600 0.250000
O O7 0.363873 0.847115 0.219230
O O8 0.301067 0.814091 0.999668
O O9 0.500000 0.928999 0.082800
O O10 0.608550 0.914765 0.915054
O O11 0.632130 0.940110 0.166105
O O12 0.578020 0.000000 0.000000
O O13 0.250000 0.902221 0.250000
O O14 0.500000 0.124783 0.213472
O O15 0.378709 0.162671 0.225062
O O16 0.157198 0.250000 0.317810
O O17 0.250000 0.316651 0.250000
#
# Coordination Sequence:
#
# PCOD8300440 Si02
#       6
#    16  16  16  16  16  16
#     4  10  22  41  61  80 111 157 197 229 277 343
#     4   9  19  36  56  83 116 150 187 225 280 343
#     4  10  20  37  59  80 109 150 193 230 274 341
#     4  11  22  35  57  89 115 146 184 236 291 325
#     4  10  21  36  57  84 112 147 189 238 283 324
#     4  10  21  37  60  86 113 151 190 229 283 345
#
# _framework density 18.670005
#
# number of rings (size 3 to 8) (size 9 to 14) (size 15 to 20)
#    0.000    2.000    1.667    1.500    4.667    3.667 
#    0.000    1.667    0.000    3.000    0.000    0.000 
#    0.000    0.000    0.000    0.000    0.000    0.000 
#
# Total GULP energy -594941.739306 kJ/mol
# GULP energy per Si atom -12394.619569 kJ/mol
# Density = 1.862751 g / cm^3
# Si number density = 18.670005 Si / 1000 Ang^3
#
#
#
# Elastic Constant Matrix: (Units=GPa)
#
#
# Indices 1 2 3 4 5 6 
#
# 1 59.0876 39.1987 33.8881 0.0000 0.0000 0.0000
# 2 39.1987 102.4995 36.9679 0.0000 0.0000 0.0000
# 3 33.8881 36.9679 79.7630 0.0001 0.0002 0.0001
# 4 0.0000 0.0000 0.0001 33.0474 0.0000 0.0000
# 5 0.0000 0.0000 0.0002 0.0000 30.8198 0.0000
# 6 0.0000 0.0000 0.0001 0.0000 0.0000 32.0617
#
#
#
# Elastic Compliance Matrix: (Units=1/GPa)
#
#
# Indices 1 2 3 4 5 6 
#
# 1 0.026161 -0.007199 -0.007778 0.000000 0.000000 0.000000
# 2 -0.007199 0.013696 -0.003289 0.000000 0.000000 0.000000
# 3 -0.007778 -0.003289 0.017366 0.000000 0.000000 0.000000
# 4 0.000000 0.000000 0.000000 0.030260 0.000000 0.000000
# 5 0.000000 0.000000 0.000000 0.000000 0.032447 0.000000
# 6 0.000000 0.000000 0.000000 0.000000 0.000000 0.031190
#
#
# Mechanical properties :
#
#
# Convention : Reuss Voigt Hill
#
# Bulk Modulus (GPa) = 48.33236 51.27330 49.80283
# Shear Modulus (GPa) = 25.70063 27.93880 26.81971
#
# Velocity S-wave (km/s) = 3.71424 3.87260 3.79425
# Velocity P-wave (km/s) = 6.65868 6.89337 6.77704
#
# Compressibility (1/GPa) = 0.02069007
#
# Stress axis : x y z
#
# Youngs Moduli (GPa) = 38.22481 73.01639 57.58392
#
# Poissons Ratio (x) = 0.52568 0.44789
# Poissons Ratio (y) = 0.27520 0.18938
# Poissons Ratio (z) = 0.29731 0.24013
#
# Static dielectric constant tensor:
#      x y z
#    x 3.251260 0.000000 0.000000 
#    y 0.000000 4.081260 0.000000 
#    z 0.000000 0.000000 3.645490 
# 
# 
# High freq. dielectric constant tensor:
#      x y z
#    x 1.695350 0.000000 0.000000 
#    y 0.000000 1.741180 0.000000 
#    z 0.000000 0.000000 1.738980 
# 
# From -- ./inp_files/12640.got.cif
#   From: 2010.03.12/outbox.cif.g09.slc.cpg/sg74_7_cif.got.tgz:12640.got - 2010.04.16 15:46:19.
