data_PCOD8300709
_publ_section_title
;
Structure prediction by ZEFSAII (Michael W. Deem and Ramdas Pophale) SiO2 
 PCOD8300709
Probable space group: I M M A
;
_chemical_formula_sum "Si O2"
_cell_formula_units_Z 56
_cell_length_a 14.990377
_cell_length_b 9.259273
_cell_length_c 19.547686
_cell_angle_alpha 90.000000
_cell_angle_beta 90.000000
_cell_angle_gamma 90.000000
_cell_volume 2713.218680
_symmetry_space_group_name_H-M "I M M A"
_symmetry_group_IT_number 74
_symmetry_cell_setting 'orthorhombic'
loop_
_space_group_symop_operation_xyz
x,y,z
-x,1/2-y,z
x,-y,-z
-x,1/2+y,-z
-x,-y,-z
x,1/2+y,-z
-x,y,z
x,1/2-y,z
1/2+x,1/2+y,1/2+z
1/2-x,-y,1/2+z
1/2+x,1/2-y,1/2-z
1/2-x,y,1/2-z
1/2-x,1/2-y,1/2-z
1/2+x,y,1/2-z
1/2-x,1/2+y,1/2+z
1/2+x,-y,1/2+z
loop_
_atom_site_type_symbol
_atom_site_label
_atom_site_fract_x
_atom_site_fract_y
_atom_site_fract_z
Si Si1 0.142472 0.416457 0.165746
Si Si2 0.650022 0.914899 0.821874
Si Si3 0.500000 0.925221 0.425442
Si Si4 0.100201 0.595183 0.442274
O O1 0.118413 0.250000 0.148311
O O2 0.247263 0.444769 0.159042
O O3 0.120561 0.450483 0.244760
O O4 0.087677 0.522446 0.116053
O O5 0.626667 0.750000 0.838359
O O6 0.593434 0.018462 0.869440
O O7 0.500000 0.750000 0.431741
O O8 0.500000 0.000000 0.500000
O O9 0.151226 0.500000 0.500000
O O10 0.149684 0.750000 0.436089
O O11 0.000000 0.622056 0.467916
#
# Coordination Sequence:
#
# PCOD8300709 Si02
#       4
#    16  16   8  16
#     4   9  20  40  62  87 116 149 192 238 287 347
#     4   9  19  37  62  87 114 151 192 235 288 346
#     4  12  26  42  62  88 119 158 201 246 298 352
#     4  10  21  35  52  79 115 151 190 232 279 335
#
# _framework density 20.639693000000001
#
# number of rings (size 3 to 8) (size 9 to 14) (size 15 to 20)
#    0.000    2.286    0.000    3.857    2.000    5.143 
#    0.000    2.857    0.000    0.000    0.000    0.000 
#    0.000    0.000    0.000    0.000    0.000    0.000 
#
# Total GULP energy -346980.225670 kJ/mol
# GULP energy per Si atom -12392.150917 kJ/mol
# Density = 2.059272 g / cm^3
# Si number density = 20.639693 Si / 1000 Ang^3
#
#
#
# Elastic Constant Matrix: (Units=GPa)
#
#
# Indices 1 2 3 4 5 6 
#
# 1 51.8165 33.3508 29.8742 0.0000 0.0000 0.0000
# 2 33.3508 167.6679 96.9093 0.0000 0.0000 0.0000
# 3 29.8742 96.9093 140.4986 0.0000 0.0000 0.0000
# 4 0.0000 0.0000 0.0000 35.7963 0.0000 0.0000
# 5 0.0000 0.0000 0.0000 0.0000 50.3218 0.0000
# 6 0.0000 0.0000 0.0000 0.0000 0.0000 28.4748
#
#
#
# Elastic Compliance Matrix: (Units=1/GPa)
#
#
# Indices 1 2 3 4 5 6 
#
# 1 0.022803 -0.002883 -0.002860 0.000000 0.000000 0.000000
# 2 -0.002883 0.010283 -0.006480 0.000000 0.000000 0.000000
# 3 -0.002860 -0.006480 0.012195 0.000000 0.000000 0.000000
# 4 0.000000 0.000000 0.000000 0.027936 0.000000 0.000000
# 5 0.000000 0.000000 0.000000 0.000000 0.019872 0.000000
# 6 0.000000 0.000000 0.000000 0.000000 0.000000 0.035119
#
#
# Mechanical properties :
#
#
# Convention : Reuss Voigt Hill
#
# Bulk Modulus (GPa) = 47.99406 75.58352 61.78879
# Shear Modulus (GPa) = 31.32873 36.24183 33.78528
#
# Velocity S-wave (km/s) = 3.90023 4.19493 4.05026
# Velocity P-wave (km/s) = 6.60198 7.75649 7.20241
#
# Compressibility (1/GPa) = 0.02083591
#
# Stress axis : x y z
#
# Youngs Moduli (GPa) = 43.85332 97.25163 82.00073
#
# Poissons Ratio (x) = 0.28033 0.23456
# Poissons Ratio (y) = 0.12641 0.53133
# Poissons Ratio (z) = 0.12544 0.63015
#
# Static dielectric constant tensor:
#      x y z
#    x 3.496230 0.000000 0.000000 
#    y 0.000000 4.016310 0.000000 
#    z 0.000000 0.000000 3.730310 
# 
# 
# High freq. dielectric constant tensor:
#      x y z
#    x 1.788590 0.000000 0.000000 
#    y 0.000000 1.809010 0.000000 
#    z 0.000000 0.000000 1.814070 
# 
# From -- ./inp_files/43504.got.cif
#   From: 2010.03.12/outbox.cif.g09.slc.cpg/sg74_22_cif.got.tgz:43504.got - 2010.04.16 15:46:19.
