data_PCOD8300184
_publ_section_title
;
Structure prediction by ZEFSAII (Michael W. Deem and Ramdas Pophale) SiO2 
 PCOD8300184
Probable space group: I M M A
;
_chemical_formula_sum "Si O2"
_cell_formula_units_Z 56
_cell_length_a 13.436989
_cell_length_b 22.972316
_cell_length_c 6.659475
_cell_angle_alpha 90.000000
_cell_angle_beta 90.000000
_cell_angle_gamma 90.000000
_cell_volume 2055.638468
_symmetry_space_group_name_H-M "I M M A"
_symmetry_group_IT_number 74
_symmetry_cell_setting 'orthorhombic'
loop_
_space_group_symop_operation_xyz
x,y,z
-x,1/2-y,z
x,-y,-z
-x,1/2+y,-z
-x,-y,-z
x,1/2+y,-z
-x,y,z
x,1/2-y,z
1/2+x,1/2+y,1/2+z
1/2-x,-y,1/2+z
1/2+x,1/2-y,1/2-z
1/2-x,y,1/2-z
1/2-x,1/2-y,1/2-z
1/2+x,y,1/2-z
1/2-x,1/2+y,1/2+z
1/2+x,-y,1/2+z
loop_
_atom_site_type_symbol
_atom_site_label
_atom_site_fract_x
_atom_site_fract_y
_atom_site_fract_z
Si Si1 0.389455 0.393917 0.915638
Si Si2 0.391474 0.080914 0.382924
Si Si3 0.750000 0.009633 0.750000
Si Si4 0.775686 0.685357 0.985124
O O1 0.500000 0.383008 0.829026
O O2 0.345310 0.452606 0.815992
O O3 0.395977 0.404704 0.150821
O O4 0.319932 0.336543 0.883812
O O5 0.500000 0.058214 0.454619
O O6 0.364980 0.138285 0.517000
O O7 0.299068 0.035873 0.416895
O O8 0.806429 0.750000 0.056575
O O9 0.750000 0.685949 0.750000
#
# Coordination Sequence:
#
# PCOD8300184 Si02
#       4
#    16  16   8  16
#     4  10  21  37  58  82 114 155 192 231 282 341
#     4  10  20  35  57  84 114 149 187 233 288 340
#     4  12  20  34  54  84 120 154 192 230 274 342
#     4   9  18  36  59  85 111 139 188 244 285 327
#
# _framework density 27.242145000000001
#
# number of rings (size 3 to 8) (size 9 to 14) (size 15 to 20)
#    0.000    2.000    4.286    1.714    0.000    3.429 
#    0.000   10.714    0.000    0.000    0.000    0.000 
#    0.000    0.000    0.000    0.000    0.000    0.000 
#
# Total GULP energy -347052.935909 kJ/mol
# GULP energy per Si atom -12394.747711 kJ/mol
# Density = 2.718014 g / cm^3
# Si number density = 27.242145 Si / 1000 Ang^3
#
#
#
# Elastic Constant Matrix: (Units=GPa)
#
#
# Indices 1 2 3 4 5 6 
#
# 1 248.9863 120.1717 13.6130 -0.0013 -0.0015 -0.0007
# 2 120.1717 240.6350 17.3089 0.0057 -0.0002 -0.0001
# 3 13.6130 17.3089 42.3010 0.0683 0.0087 0.0015
# 4 -0.0013 0.0057 0.0683 19.3539 0.0053 0.0014
# 5 -0.0015 -0.0002 0.0087 0.0053 15.3373 -0.0016
# 6 -0.0007 -0.0001 0.0015 0.0014 -0.0016 29.7105
#
#
#
# Elastic Compliance Matrix: (Units=1/GPa)
#
#
# Indices 1 2 3 4 5 6 
#
# 1 0.005309 -0.002605 -0.000643 0.000003 0.000001 0.000000
# 2 -0.002605 0.005560 -0.001437 0.000003 0.000001 0.000000
# 3 -0.000643 -0.001437 0.024435 -0.000086 -0.000014 -0.000001
# 4 0.000003 0.000003 -0.000086 0.051669 -0.000018 -0.000002
# 5 0.000001 0.000001 -0.000014 -0.000018 0.065200 0.000003
# 6 0.000000 0.000000 -0.000001 -0.000002 0.000003 0.033658
#
#
# Mechanical properties :
#
#
# Convention : Reuss Voigt Hill
#
# Bulk Modulus (GPa) = 38.55771 92.67884 65.61827
# Shear Modulus (GPa) = 24.52846 38.26892 31.39869
#
# Velocity S-wave (km/s) = 3.00390 3.75209 3.39865
# Velocity P-wave (km/s) = 5.12012 7.27084 6.28812
#
# Compressibility (1/GPa) = 0.02593515
#
# Stress axis : x y z
#
# Youngs Moduli (GPa) = 188.37181 179.85988 40.92507
#
# Poissons Ratio (x) = 0.46852 0.02630
# Poissons Ratio (y) = 0.49069 0.05880
# Poissons Ratio (z) = 0.12103 0.25841
#
# Static dielectric constant tensor:
#      x y z
#    x 5.973360 0.000000 0.000010 
#    y 0.000000 5.223230 -0.000020 
#    z 0.000010 -0.000020 5.584860 
# 
# 
# High freq. dielectric constant tensor:
#      x y z
#    x 2.087560 0.000000 0.000000 
#    y 0.000000 2.085720 0.000000 
#    z 0.000000 0.000000 2.157780 
# 
# From -- ./inp_files/8464.got.cif
#   From: 2010.03.12/outbox.cif.g09.slc.cpg/sg74_5_cif.got.tgz:8464.got - 2010.04.16 15:46:19.
