data_PCOD8300722
_publ_section_title
;
Structure prediction by ZEFSAII (Michael W. Deem and Ramdas Pophale) SiO2 
 PCOD8300722
Probable space group: I M M A
;
_chemical_formula_sum "Si O2"
_cell_formula_units_Z 96
_cell_length_a 25.090149
_cell_length_b 8.893042
_cell_length_c 23.405805
_cell_angle_alpha 90.000000
_cell_angle_beta 90.000000
_cell_angle_gamma 90.000000
_cell_volume 5222.484580
_symmetry_space_group_name_H-M "I M M A"
_symmetry_group_IT_number 74
_symmetry_cell_setting 'orthorhombic'
loop_
_space_group_symop_operation_xyz
x,y,z
-x,1/2-y,z
x,-y,-z
-x,1/2+y,-z
-x,-y,-z
x,1/2+y,-z
-x,y,z
x,1/2-y,z
1/2+x,1/2+y,1/2+z
1/2-x,-y,1/2+z
1/2+x,1/2-y,1/2-z
1/2-x,y,1/2-z
1/2-x,1/2-y,1/2-z
1/2+x,y,1/2-z
1/2-x,1/2+y,1/2+z
1/2+x,-y,1/2+z
loop_
_atom_site_type_symbol
_atom_site_label
_atom_site_fract_x
_atom_site_fract_y
_atom_site_fract_z
Si Si1 0.750250 0.071777 0.560042
Si Si2 0.060258 0.573076 0.440592
Si Si3 0.653074 0.073129 0.858991
Si Si4 0.652896 0.572380 0.622555
Si Si5 0.061624 0.075249 0.940117
Si Si6 0.310072 0.073351 0.252276
O O1 0.746073 0.250000 0.553467
O O2 0.795146 0.023363 0.605344
O O3 0.766656 0.000000 0.500000
O O4 0.694104 0.006119 0.579986
O O5 0.077951 0.500000 0.500000
O O6 0.065605 0.750000 0.448845
O O7 0.099851 0.515953 0.391119
O O8 0.000000 0.525789 0.423970
O O9 0.651619 0.250000 0.850522
O O10 0.653996 0.998624 0.796961
O O11 0.655556 0.750000 0.612969
O O12 0.594455 0.508588 0.609166
O O13 0.664819 0.527403 0.687498
O O14 0.076918 0.250000 0.943113
O O15 0.000000 0.051437 0.924965
O O16 0.076555 0.000000 0.000000
O O17 0.309577 0.250000 0.242357
O O18 0.250000 0.008777 0.250000
#
# Coordination Sequence:
#
# PCOD8300722 Si02
#       6
#    16  16  16  16  16  16
#     4  11  22  34  51  78 110 141 177 222 274 329
#     4   9  18  34  55  80 110 143 180 222 270 322
#     4  10  21  35  54  80 108 142 182 225 273 324
#     4  11  22  37  57  80 109 144 182 225 272 323
#     4  10  21  38  60  85 113 145 181 223 272 325
#     4  10  21  38  57  78 106 144 185 225 272 322
#
# _framework density 18.382055999999999
#
# number of rings (size 3 to 8) (size 9 to 14) (size 15 to 20)
#    0.000    1.833    1.667    2.500    0.000    4.000 
#    0.000    0.833    0.000    3.000    0.000    0.000 
#    0.000    0.000    0.000    0.000    0.000    0.000 
#
# Total GULP energy -595430.448977 kJ/mol
# GULP energy per Si atom -12404.801020 kJ/mol
# Density = 1.834022 g / cm^3
# Si number density = 18.382056 Si / 1000 Ang^3
#
#
#
# Elastic Constant Matrix: (Units=GPa)
#
#
# Indices 1 2 3 4 5 6 
#
# 1 103.8383 35.0603 61.8785 0.0000 0.0000 0.0000
# 2 35.0603 61.6921 48.0968 0.0000 0.0000 0.0000
# 3 61.8785 48.0968 126.7906 0.0000 0.0000 0.0000
# 4 0.0000 0.0000 0.0000 36.4697 0.0000 0.0000
# 5 0.0000 0.0000 0.0000 0.0000 40.3879 0.0000
# 6 0.0000 0.0000 0.0000 0.0000 0.0000 24.4289
#
#
#
# Elastic Compliance Matrix: (Units=1/GPa)
#
#
# Indices 1 2 3 4 5 6 
#
# 1 0.014175 -0.003780 -0.005484 0.000000 0.000000 0.000000
# 2 -0.003780 0.024025 -0.007269 0.000000 0.000000 0.000000
# 3 -0.005484 -0.007269 0.013321 0.000000 0.000000 0.000000
# 4 0.000000 0.000000 0.000000 0.027420 0.000000 0.000000
# 5 0.000000 0.000000 0.000000 0.000000 0.024760 0.000000
# 6 0.000000 0.000000 0.000000 0.000000 0.000000 0.040935
#
#
# Mechanical properties :
#
#
# Convention : Reuss Voigt Hill
#
# Bulk Modulus (GPa) = 54.18707 64.71025 59.44866
# Shear Modulus (GPa) = 27.19585 30.07633 28.63609
#
# Velocity S-wave (km/s) = 3.85057 4.04936 3.95122
# Velocity P-wave (km/s) = 7.02221 7.55926 7.29568
#
# Compressibility (1/GPa) = 0.01845459
#
# Stress axis : x y z
#
# Youngs Moduli (GPa) = 70.54895 41.62377 75.07209
#
# Poissons Ratio (x) = 0.15735 0.41167
# Poissons Ratio (y) = 0.26670 0.54567
# Poissons Ratio (z) = 0.38687 0.30255
#
# Static dielectric constant tensor:
#      x y z
#    x 3.505750 0.000000 0.000000 
#    y 0.000000 3.354960 0.000000 
#    z 0.000000 0.000000 3.332170 
# 
# 
# High freq. dielectric constant tensor:
#      x y z
#    x 1.715610 0.000000 0.000000 
#    y 0.000000 1.715880 0.000000 
#    z 0.000000 0.000000 1.712170 
# 
# From -- ./inp_files/49108.got.cif
#   From: 2010.03.12/outbox.cif.g09.slc.cpg/sg74_25_cif.got.tgz:49108.got - 2010.04.16 15:46:19.
