data_PCOD8300697
_publ_section_title
;
Structure prediction by ZEFSAII (Michael W. Deem and Ramdas Pophale) SiO2 
 PCOD8300697
Probable space group: I M M A
;
_chemical_formula_sum "Si O2"
_cell_formula_units_Z 88
_cell_length_a 17.386292
_cell_length_b 9.269846
_cell_length_c 30.462294
_cell_angle_alpha 90.000000
_cell_angle_beta 90.000000
_cell_angle_gamma 90.000000
_cell_volume 4909.554595
_symmetry_space_group_name_H-M "I M M A"
_symmetry_group_IT_number 74
_symmetry_cell_setting 'orthorhombic'
loop_
_space_group_symop_operation_xyz
x,y,z
-x,1/2-y,z
x,-y,-z
-x,1/2+y,-z
-x,-y,-z
x,1/2+y,-z
-x,y,z
x,1/2-y,z
1/2+x,1/2+y,1/2+z
1/2-x,-y,1/2+z
1/2+x,1/2-y,1/2-z
1/2-x,y,1/2-z
1/2-x,1/2-y,1/2-z
1/2+x,y,1/2-z
1/2-x,1/2+y,1/2+z
1/2+x,-y,1/2+z
loop_
_atom_site_type_symbol
_atom_site_label
_atom_site_fract_x
_atom_site_fract_y
_atom_site_fract_z
Si Si1 0.500000 0.581932 0.955785
Si Si2 0.622672 0.093376 0.909867
Si Si3 0.231948 0.581700 0.700376
Si Si4 0.291094 0.918408 0.381296
Si Si5 0.915083 0.407572 0.688013
Si Si6 0.588919 0.419001 0.544674
O O1 0.500000 0.750000 0.962325
O O2 0.420892 0.536746 0.932846
O O3 0.500000 0.500000 0.000000
O O4 0.615323 0.250000 0.934349
O O5 0.712044 0.049739 0.906736
O O6 0.582219 0.112862 0.863645
O O7 0.239553 0.750000 0.690539
O O8 0.250000 0.540296 0.750000
O O9 0.288469 0.501617 0.665576
O O10 0.143594 0.534732 0.697821
O O11 0.299714 0.750000 0.369858
O O12 0.360370 0.970701 0.413314
O O13 0.891499 0.250000 0.708330
O O14 0.000000 0.452074 0.705150
O O15 0.614434 0.500000 0.500000
O O16 0.500000 0.453889 0.555748
O O17 0.602118 0.250000 0.536353
#
# Coordination Sequence:
#
# PCOD8300697 Si02
#       6
#     8  16  16  16  16  16
#     4  12  24  34  46  66  96 134 170 206 252 298
#     4   9  17  33  51  69  97 127 162 209 253 301
#     4  10  21  35  51  76 110 143 177 221 269 319
#     4   9  19  35  56  79 104 140 179 218 267 320
#     4   9  17  32  55  77  97 127 167 210 256 309
#     4   9  18  34  56  82 110 139 176 224 276 330
#
# _framework density 17.924233000000001
#
# number of rings (size 3 to 8) (size 9 to 14) (size 15 to 20)
#    0.000    2.545    0.909    2.455    0.000    6.182 
#    0.000    2.727    0.000    3.273    0.000    0.000 
#    0.000    0.000    0.000    0.000    0.000    0.000 
#
# Total GULP energy -545144.233810 kJ/mol
# GULP energy per Si atom -12389.641677 kJ/mol
# Density = 1.788344 g / cm^3
# Si number density = 17.924233 Si / 1000 Ang^3
#
#
#
# Elastic Constant Matrix: (Units=GPa)
#
#
# Indices 1 2 3 4 5 6 
#
# 1 96.4176 39.6792 62.1227 0.0000 0.0000 0.0000
# 2 39.6792 90.1841 66.1518 0.0000 0.0000 0.0000
# 3 62.1227 66.1518 113.5715 0.0000 0.0000 0.0000
# 4 0.0000 0.0000 0.0000 30.0163 0.0000 0.0000
# 5 0.0000 0.0000 0.0000 0.0000 -411.7189 0.0000
# 6 0.0000 0.0000 0.0000 0.0000 0.0000 27.7636
#
#
#
# Elastic Compliance Matrix: (Units=1/GPa)
#
#
# Indices 1 2 3 4 5 6 
#
# 1 0.016077 -0.001088 -0.008160 0.000000 0.000000 0.000000
# 2 -0.001088 0.019434 -0.010724 0.000000 0.000000 0.000000
# 3 -0.008160 -0.010724 0.019515 0.000000 0.000000 0.000000
# 4 0.000000 0.000000 0.000000 0.033315 0.000000 0.000000
# 5 0.000000 0.000000 0.000000 0.000000 -0.002429 0.000000
# 6 0.000000 0.000000 0.000000 0.000000 0.000000 0.036018
#
#
# Mechanical properties :
#
#
# Convention : Reuss Voigt Hill
#
# Bulk Modulus (GPa) = 66.30977 70.67561 68.49269
# Shear Modulus (GPa) = 29.95753 -61.97317 -16.00782
#
# Velocity S-wave (km/s) = 4.09264 -5.88644 -2.99169
# Velocity P-wave (km/s) = 7.70764 2.58542 5.13436
#
# Compressibility (1/GPa) = 0.01508073
#
# Stress axis : x y z
#
# Youngs Moduli (GPa) = 62.20060 51.45720 51.24171
#
# Poissons Ratio (x) = 0.05597 0.41815
# Poissons Ratio (y) = 0.06766 0.54954
# Poissons Ratio (z) = 0.50758 0.55185
#
# Static dielectric constant tensor:
#      x y z
#    x 3.348480 0.000000 0.000000 
#    y 0.000000 3.055310 0.000000 
#    z 0.000000 0.000000 3.176260 
# 
# 
# High freq. dielectric constant tensor:
#      x y z
#    x 1.693650 0.000000 0.000000 
#    y 0.000000 1.692280 0.000000 
#    z 0.000000 0.000000 1.674260 
# 
# From -- ./inp_files/72946.got.cif
#   From: 2010.03.12/outbox.cif.g09.slc.cpg/sg74_37_cif.got.tgz:72946.got - 2010.04.16 15:46:19.
