data_PCOD8300656
_publ_section_title
;
Structure prediction by ZEFSAII (Michael W. Deem and Ramdas Pophale) SiO2 
 PCOD8300656
Probable space group: I M M A
;
_chemical_formula_sum "Si O2"
_cell_formula_units_Z 56
_cell_length_a 5.292771
_cell_length_b 15.452549
_cell_length_c 34.320062
_cell_angle_alpha 90.000000
_cell_angle_beta 90.000000
_cell_angle_gamma 90.000000
_cell_volume 2806.928157
_symmetry_space_group_name_H-M "I M M A"
_symmetry_group_IT_number 74
_symmetry_cell_setting 'orthorhombic'
loop_
_space_group_symop_operation_xyz
x,y,z
-x,1/2-y,z
x,-y,-z
-x,1/2+y,-z
-x,-y,-z
x,1/2+y,-z
-x,y,z
x,1/2-y,z
1/2+x,1/2+y,1/2+z
1/2-x,-y,1/2+z
1/2+x,1/2-y,1/2-z
1/2-x,y,1/2-z
1/2-x,1/2-y,1/2-z
1/2+x,y,1/2-z
1/2-x,1/2+y,1/2+z
1/2+x,-y,1/2+z
loop_
_atom_site_type_symbol
_atom_site_label
_atom_site_fract_x
_atom_site_fract_y
_atom_site_fract_z
Si Si1 0.500000 0.374864 0.231179
Si Si2 0.500000 0.750000 0.613832
Si Si3 0.500000 0.933463 0.263987
Si Si4 0.500000 0.932742 0.581928
Si Si5 0.000000 0.072735 0.855719
Si Si6 0.000000 0.995539 0.454016
Si Si7 0.500000 0.351187 0.892451
Si Si8 0.500000 0.250000 0.163735
O O1 0.250000 0.333706 0.250000
O O2 0.500000 0.478490 0.237468
O O3 0.500000 0.341304 0.186973
O O4 0.500000 0.831050 0.585698
O O5 0.750182 0.750000 0.638890
O O6 0.750000 0.881430 0.250000
O O7 0.500000 0.948510 0.309957
O O8 0.250750 0.955961 0.558596
O O9 0.500000 0.979458 0.623895
O O10 0.250560 0.125714 0.867489
O O11 0.000000 0.000000 0.500000
O O12 0.000000 0.899970 0.434280
O O13 0.500000 0.250000 0.901860
#
# Coordination Sequence:
#
# PCOD8300656 Si02
#       8
#     8   4   8   8   8   8   8   4
#     4  10  21  35  49  75 109 150 213 268 314 344
#     4  12  26  39  58  88 132 174 218 238 304 366
#     4  10  21  33  55  81 111 151 210 250 308 363
#     4  10  23  40  61  90 127 170 205 239 297 363
#     4  10  21  38  62  85 124 158 199 259 304 358
#     4  10  21  43  70  95 129 156 195 246 304 360
#     4  10  21  40  66  97 116 153 199 244 305 371
#     4  12  24  35  56  76 122 174 206 280 298 342
#
# _framework density 19.950633
#
# number of rings (size 3 to 8) (size 9 to 14) (size 15 to 20)
#    0.000    1.714    0.000    3.857    8.000    0.000 
#    2.571    0.000    0.000    8.571    0.000    0.000 
#    0.000    0.000    0.000    0.000    0.000    0.000 
#
# Total GULP energy -347029.122311 kJ/mol
# GULP energy per Si atom -12393.897225 kJ/mol
# Density = 1.990522 g / cm^3
# Si number density = 19.950633 Si / 1000 Ang^3
#
#
#
# Elastic Constant Matrix: (Units=GPa)
#
#
# Indices 1 2 3 4 5 6 
#
# 1 225.3453 47.6423 71.9278 0.0000 0.0000 0.0000
# 2 47.6423 128.0898 48.1109 0.0000 0.0000 0.0000
# 3 71.9278 48.1109 147.1573 0.0000 0.0000 0.0000
# 4 0.0000 0.0000 0.0000 17.8148 0.0000 0.0000
# 5 0.0000 0.0000 0.0000 0.0000 25.2106 0.0000
# 6 0.0000 0.0000 0.0000 0.0000 0.0000 24.9160
#
#
#
# Elastic Compliance Matrix: (Units=1/GPa)
#
#
# Indices 1 2 3 4 5 6 
#
# 1 0.005405 -0.001161 -0.002263 0.000000 0.000000 0.000000
# 2 -0.001161 0.009149 -0.002424 0.000000 0.000000 0.000000
# 3 -0.002263 -0.002424 0.008694 0.000000 0.000000 0.000000
# 4 0.000000 0.000000 0.000000 0.056133 0.000000 0.000000
# 5 0.000000 0.000000 0.000000 0.000000 0.039666 0.000000
# 6 0.000000 0.000000 0.000000 0.000000 0.000000 0.040135
#
#
# Mechanical properties :
#
#
# Convention : Reuss Voigt Hill
#
# Bulk Modulus (GPa) = 86.54965 92.88383 89.71674
# Shear Modulus (GPa) = 28.61601 35.78237 32.19919
#
# Velocity S-wave (km/s) = 3.79138 4.23962 4.02175
# Velocity P-wave (km/s) = 7.91468 8.40379 8.16290
#
# Compressibility (1/GPa) = 0.01155406
#
# Stress axis : x y z
#
# Youngs Moduli (GPa) = 185.00777 109.30003 115.02486
#
# Poissons Ratio (x) = 0.12686 0.26024
# Poissons Ratio (y) = 0.21472 0.27881
# Poissons Ratio (z) = 0.41858 0.26493
#
# Static dielectric constant tensor:
#      x y z
#    x 4.676970 0.000000 0.000000 
#    y 0.000000 3.416810 0.000000 
#    z 0.000000 0.000000 3.448390 
# 
# 
# High freq. dielectric constant tensor:
#      x y z
#    x 1.822320 0.000000 0.000000 
#    y 0.000000 1.756070 0.000000 
#    z 0.000000 0.000000 1.765500 
# 
# From -- ./inp_files/69339.got.cif
#   From: 2010.03.12/outbox.cif.g09.slc.cpg/sg74_35_cif.got.tgz:69339.got - 2010.04.16 15:46:19.
