data_PCOD8300198
_publ_section_title
;
Structure prediction by ZEFSAII (Michael W. Deem and Ramdas Pophale) SiO2 
 PCOD8300198
Probable space group: I M M A
;
_chemical_formula_sum "Si O2"
_cell_formula_units_Z 56
_cell_length_a 22.458632
_cell_length_b 8.681539
_cell_length_c 14.212491
_cell_angle_alpha 90.000000
_cell_angle_beta 90.000000
_cell_angle_gamma 90.000000
_cell_volume 2771.087391
_symmetry_space_group_name_H-M "I M M A"
_symmetry_group_IT_number 74
_symmetry_cell_setting 'orthorhombic'
loop_
_space_group_symop_operation_xyz
x,y,z
-x,1/2-y,z
x,-y,-z
-x,1/2+y,-z
-x,-y,-z
x,1/2+y,-z
-x,y,z
x,1/2-y,z
1/2+x,1/2+y,1/2+z
1/2-x,-y,1/2+z
1/2+x,1/2-y,1/2-z
1/2-x,y,1/2-z
1/2-x,1/2-y,1/2-z
1/2+x,y,1/2-z
1/2-x,1/2+y,1/2+z
1/2+x,-y,1/2+z
loop_
_atom_site_type_symbol
_atom_site_label
_atom_site_fract_x
_atom_site_fract_y
_atom_site_fract_z
Si Si1 0.000000 0.068584 0.396518
Si Si2 0.225441 0.917799 0.646667
Si Si3 0.611424 0.069866 0.791623
Si Si4 0.147827 0.932824 0.904715
O O1 0.000000 0.250000 0.405666
O O2 0.000000 0.000000 0.500000
O O3 0.942499 0.016403 0.339832
O O4 0.203402 0.750000 0.609348
O O5 0.250000 0.893974 0.750000
O O6 0.282046 0.979226 0.588119
O O7 0.170689 0.036839 0.646207
O O8 0.598991 0.250000 0.790670
O O9 0.616974 0.010242 0.685053
O O10 0.139090 0.750000 0.897522
O O11 0.117903 0.000000 0.000000
#
# Coordination Sequence:
#
# PCOD8300198 Si02
#       4
#     8  16  16  16
#     4  12  26  46  67  86 111 146 192 242 292 344
#     4   8  16  32  53  79 114 153 191 232 280 332
#     4  11  22  38  60  87 119 154 194 240 292 346
#     4  10  20  35  57  87 122 159 197 238 287 344
#
# _framework density 20.208672
#
# number of rings (size 3 to 8) (size 9 to 14) (size 15 to 20)
#    0.000    2.000    0.000    6.429    0.000    7.429 
#    0.000    3.571    0.000    0.000    0.000    0.000 
#    0.000    0.000    0.000    0.000    0.000    0.000 
#
# Total GULP energy -347051.269368 kJ/mol
# GULP energy per Si atom -12394.688192 kJ/mol
# Density = 2.016268 g / cm^3
# Si number density = 20.208672 Si / 1000 Ang^3
#
#
#
# Elastic Constant Matrix: (Units=GPa)
#
#
# Indices 1 2 3 4 5 6 
#
# 1 103.0829 56.7998 49.2982 0.0000 0.0000 0.0000
# 2 56.7998 154.2250 59.5180 0.0000 0.0000 0.0000
# 3 49.2982 59.5180 120.1019 0.0000 0.0000 0.0000
# 4 0.0000 0.0000 0.0000 31.0161 0.0000 0.0000
# 5 0.0000 0.0000 0.0000 0.0000 1.3137 0.0000
# 6 0.0000 0.0000 0.0000 0.0000 0.0000 25.9146
#
#
#
# Elastic Compliance Matrix: (Units=1/GPa)
#
#
# Indices 1 2 3 4 5 6 
#
# 1 0.013432 -0.003486 -0.003786 0.000000 0.000000 0.000000
# 2 -0.003486 0.008922 -0.002991 0.000000 0.000000 0.000000
# 3 -0.003786 -0.002991 0.011362 0.000000 0.000000 0.000000
# 4 0.000000 0.000000 0.000000 0.032241 0.000000 0.000000
# 5 0.000000 0.000000 0.000000 0.000000 0.761194 0.000000
# 6 0.000000 0.000000 0.000000 0.000000 0.000000 0.038588
#
#
# Mechanical properties :
#
#
# Convention : Reuss Voigt Hill
#
# Bulk Modulus (GPa) = 75.80585 78.73796 77.27191
# Shear Modulus (GPa) = 5.61380 25.76846 15.69113
#
# Velocity S-wave (km/s) = 1.66852 3.57475 2.78952
# Velocity P-wave (km/s) = 6.42689 7.48903 6.97820
#
# Compressibility (1/GPa) = 0.01319159
#
# Stress axis : x y z
#
# Youngs Moduli (GPa) = 74.44706 112.08298 88.01010
#
# Poissons Ratio (x) = 0.39071 0.33321
# Poissons Ratio (y) = 0.25952 0.26320
# Poissons Ratio (z) = 0.28186 0.33519
#
# Static dielectric constant tensor:
#      x y z
#    x 3.410390 0.000000 0.000000 
#    y 0.000000 3.701870 0.000000 
#    z 0.000000 0.000000 4.237050 
# 
# 
# High freq. dielectric constant tensor:
#      x y z
#    x 1.770790 0.000000 0.000000 
#    y 0.000000 1.798060 0.000000 
#    z 0.000000 0.000000 1.792540 
# 
# From -- ./inp_files/28495.got.cif
#   From: 2010.03.12/outbox.cif.g09.slc.cpg/sg74_15_cif.got.tgz:28495.got - 2010.04.16 15:46:19.
