data_PCOD8300240
_publ_section_title
;
Structure prediction by ZEFSAII (Michael W. Deem and Ramdas Pophale) SiO2 
 PCOD8300240
Probable space group: I M M A
;
_chemical_formula_sum "Si O2"
_cell_formula_units_Z 96
_cell_length_a 18.058355
_cell_length_b 23.714361
_cell_length_c 11.589995
_cell_angle_alpha 90.000000
_cell_angle_beta 90.000000
_cell_angle_gamma 90.000000
_cell_volume 4963.326690
_symmetry_space_group_name_H-M "I M M A"
_symmetry_group_IT_number 74
_symmetry_cell_setting 'orthorhombic'
loop_
_space_group_symop_operation_xyz
x,y,z
-x,1/2-y,z
x,-y,-z
-x,1/2+y,-z
-x,-y,-z
x,1/2+y,-z
-x,y,z
x,1/2-y,z
1/2+x,1/2+y,1/2+z
1/2-x,-y,1/2+z
1/2+x,1/2-y,1/2-z
1/2-x,y,1/2-z
1/2-x,1/2-y,1/2-z
1/2+x,y,1/2-z
1/2-x,1/2+y,1/2+z
1/2+x,-y,1/2+z
loop_
_atom_site_type_symbol
_atom_site_label
_atom_site_fract_x
_atom_site_fract_y
_atom_site_fract_z
Si Si1 0.349742 0.126224 0.417951
Si Si2 0.167450 0.686654 0.278681
Si Si3 0.198115 0.006574 0.136941
Si Si4 0.584217 0.092904 0.646237
Si Si5 0.799836 0.686497 0.535093
Si Si6 0.081931 0.683898 0.710948
O O1 0.333110 0.069267 0.347780
O O2 0.409005 0.115906 0.517313
O O3 0.273814 0.149455 0.472371
O O4 0.387717 0.172215 0.337714
O O5 0.154391 0.750000 0.227595
O O6 0.250000 0.665779 0.250000
O O7 0.108480 0.642809 0.231163
O O8 0.157469 0.687495 0.415041
O O9 0.250000 0.995707 0.250000
O O10 0.132114 0.963196 0.157971
O O11 0.228590 0.000000 0.000000
O O12 0.500000 0.076947 0.674140
O O13 0.778063 0.750000 0.573819
O O14 0.858128 0.657934 0.622773
O O15 0.076512 0.750000 0.690575
O O16 0.000000 0.657023 0.693044
#
# Coordination Sequence:
#
# PCOD8300240 Si02
#       6
#    16  16  16  16  16  16
#     4  11  21  37  60  87 114 153 203 247 296 352
#     4  10  20  37  61  87 117 153 196 246 297 353
#     4  10  23  40  64  89 115 157 203 254 302 359
#     4  11  24  39  59  87 121 155 193 246 306 361
#     4  10  20  35  60  87 116 154 200 247 295 356
#     4  10  21  35  53  82 122 158 189 237 299 358
#
# _framework density 19.341866
#
# number of rings (size 3 to 8) (size 9 to 14) (size 15 to 20)
#    0.000    1.667    1.667    3.000    2.333    6.667 
#    0.000    1.667    0.000    0.500    0.000    0.000 
#    0.000    0.000    0.000    0.000    0.000    0.000 
#
# Total GULP energy -594908.769684 kJ/mol
# GULP energy per Si atom -12393.932702 kJ/mol
# Density = 1.929784 g / cm^3
# Si number density = 19.341866 Si / 1000 Ang^3
#
#
#
# Elastic Constant Matrix: (Units=GPa)
#
#
# Indices 1 2 3 4 5 6 
#
# 1 110.9902 39.4561 43.0418 0.0000 0.0000 0.0000
# 2 39.4561 74.5415 26.4957 0.0000 0.0000 0.0000
# 3 43.0418 26.4957 82.8111 0.0000 0.0000 0.0000
# 4 0.0000 0.0000 0.0000 20.6275 0.0000 0.0000
# 5 0.0000 0.0000 0.0000 0.0000 26.9007 0.0000
# 6 0.0000 0.0000 0.0000 0.0000 0.0000 13.9594
#
#
#
# Elastic Compliance Matrix: (Units=1/GPa)
#
#
# Indices 1 2 3 4 5 6 
#
# 1 0.012717 -0.004944 -0.005028 0.000000 0.000000 0.000000
# 2 -0.004944 0.017059 -0.002888 0.000000 0.000000 0.000000
# 3 -0.005028 -0.002888 0.015613 0.000000 0.000000 0.000000
# 4 0.000000 0.000000 0.000000 0.048479 0.000000 0.000000
# 5 0.000000 0.000000 0.000000 0.000000 0.037174 0.000000
# 6 0.000000 0.000000 0.000000 0.000000 0.000000 0.071636
#
#
# Mechanical properties :
#
#
# Convention : Reuss Voigt Hill
#
# Bulk Modulus (GPa) = 50.84294 54.03666 52.43980
# Shear Modulus (GPa) = 21.28059 22.92079 22.10069
#
# Velocity S-wave (km/s) = 3.32058 3.44617 3.38396
# Velocity P-wave (km/s) = 6.40665 6.62066 6.51453
#
# Compressibility (1/GPa) = 0.01966841
#
# Stress axis : x y z
#
# Youngs Moduli (GPa) = 78.63303 58.61975 64.04869
#
# Poissons Ratio (x) = 0.28983 0.32204
# Poissons Ratio (y) = 0.38879 0.18499
# Poissons Ratio (z) = 0.39536 0.16931
#
# Static dielectric constant tensor:
#      x y z
#    x 3.495960 0.000000 0.000000 
#    y 0.000000 3.566730 0.000000 
#    z 0.000000 0.000000 3.703370 
# 
# 
# High freq. dielectric constant tensor:
#      x y z
#    x 1.739330 0.000000 0.000000 
#    y 0.000000 1.752350 0.000000 
#    z 0.000000 0.000000 1.760600 
# 
# From -- ./inp_files/22479.got.cif
#   From: 2010.03.12/outbox.cif.g09.slc.cpg/sg74_12_cif.got.tgz:22479.got - 2010.04.16 15:46:19.
