data_PCOD8300423
_publ_section_title
;
Structure prediction by ZEFSAII (Michael W. Deem and Ramdas Pophale) SiO2 
 PCOD8300423
Probable space group: I M M A
;
_chemical_formula_sum "Si O2"
_cell_formula_units_Z 72
_cell_length_a 23.138758
_cell_length_b 22.245514
_cell_length_c 6.157718
_cell_angle_alpha 90.000000
_cell_angle_beta 90.000000
_cell_angle_gamma 90.000000
_cell_volume 3169.584139
_symmetry_space_group_name_H-M "I M M A"
_symmetry_group_IT_number 74
_symmetry_cell_setting 'orthorhombic'
loop_
_space_group_symop_operation_xyz
x,y,z
-x,1/2-y,z
x,-y,-z
-x,1/2+y,-z
-x,-y,-z
x,1/2+y,-z
-x,y,z
x,1/2-y,z
1/2+x,1/2+y,1/2+z
1/2-x,-y,1/2+z
1/2+x,1/2-y,1/2-z
1/2-x,y,1/2-z
1/2-x,1/2-y,1/2-z
1/2+x,y,1/2-z
1/2-x,1/2+y,1/2+z
1/2+x,-y,1/2+z
loop_
_atom_site_type_symbol
_atom_site_label
_atom_site_fract_x
_atom_site_fract_y
_atom_site_fract_z
Si Si1 0.139812 0.181804 0.435242
Si Si2 0.871948 0.500000 0.500000
Si Si3 0.645757 0.096498 0.679334
Si Si4 0.769126 0.183923 0.997593
Si Si5 0.932110 0.907697 0.805528
O O1 0.123628 0.250000 0.473988
O O2 0.127420 0.150422 0.663691
O O3 0.098323 0.155926 0.249824
O O4 0.208561 0.173630 0.360982
O O5 0.833014 0.460355 0.669863
O O6 0.914331 0.455863 0.373230
O O7 0.691634 0.123201 0.503706
O O8 0.590225 0.073224 0.544622
O O9 0.797608 0.250000 0.058369
O O10 0.750000 0.190384 0.750000
O O11 0.000000 0.899495 0.811518
#
# Coordination Sequence:
#
# PCOD8300423 Si02
#       5
#    16   8  16  16  16
#     4   9  20  39  63  91 126 161 197 244 307 375
#     4  10  23  42  62  82 114 160 209 258 310 360
#     4  10  20  36  63  90 119 151 208 255 306 364
#     4   8  15  33  63  91 118 157 195 234 295 377
#     4  11  24  40  61  86 118 162 213 257 302 361
#
# _framework density 22.715913
#
# number of rings (size 3 to 8) (size 9 to 14) (size 15 to 20)
#    0.000    2.444    0.000    3.000    0.000    8.444 
#    0.000    2.222   97.778    0.000    0.000    0.000 
#    0.000    0.000    0.000    0.000    0.000    0.000 
#
# Total GULP energy -446095.140331 kJ/mol
# GULP energy per Si atom -12391.531676 kJ/mol
# Density = 2.266421 g / cm^3
# Si number density = 22.715913 Si / 1000 Ang^3
#
#
#
# Elastic Constant Matrix: (Units=GPa)
#
#
# Indices 1 2 3 4 5 6 
#
# 1 107.2219 61.9233 41.3282 0.0000 0.0000 0.0000
# 2 61.9233 158.7441 52.8522 0.0000 0.0000 0.0000
# 3 41.3282 52.8522 90.0686 0.0000 0.0000 0.0000
# 4 0.0000 0.0000 0.0000 29.4209 0.0000 0.0000
# 5 0.0000 0.0000 0.0000 0.0000 26.8885 0.0000
# 6 0.0000 0.0000 0.0000 0.0000 0.0000 23.6066
#
#
#
# Elastic Compliance Matrix: (Units=1/GPa)
#
#
# Indices 1 2 3 4 5 6 
#
# 1 0.012962 -0.003823 -0.003704 0.000000 0.000000 0.000000
# 2 -0.003823 0.008957 -0.003502 0.000000 0.000000 0.000000
# 3 -0.003704 -0.003502 0.014857 0.000000 0.000000 0.000000
# 4 0.000000 0.000000 0.000000 0.033989 0.000000 0.000000
# 5 0.000000 0.000000 0.000000 0.000000 0.037191 0.000000
# 6 0.000000 0.000000 0.000000 0.000000 0.000000 0.042361
#
#
# Mechanical properties :
#
#
# Convention : Reuss Voigt Hill
#
# Bulk Modulus (GPa) = 67.94386 74.24912 71.09649
# Shear Modulus (GPa) = 28.20388 29.31193 28.75791
#
# Velocity S-wave (km/s) = 3.52745 3.59607 3.56192
# Velocity P-wave (km/s) = 6.82390 7.07101 6.94856
#
# Compressibility (1/GPa) = 0.01471803
#
# Stress axis : x y z
#
# Youngs Moduli (GPa) = 77.14768 111.65063 67.30792
#
# Poissons Ratio (x) = 0.42684 0.24933
# Poissons Ratio (y) = 0.29493 0.23568
# Poissons Ratio (z) = 0.28578 0.39094
#
# Static dielectric constant tensor:
#      x y z
#    x 3.945980 0.000000 0.000000 
#    y 0.000000 4.417810 0.000000 
#    z 0.000000 0.000000 4.955980 
# 
# 
# High freq. dielectric constant tensor:
#      x y z
#    x 1.845840 0.000000 0.000000 
#    y 0.000000 1.904570 0.000000 
#    z 0.000000 0.000000 1.943800 
# 
# From -- ./inp_files/4460.got.cif
#   From: 2010.03.12/outbox.cif.g09.slc.cpg/sg74_3_cif.got.tgz:4460.got - 2010.04.16 15:46:19.
