data_PCOD8300592
_publ_section_title
;
Structure prediction by ZEFSAII (Michael W. Deem and Ramdas Pophale) SiO2 
 PCOD8300592
Probable space group: I M M A
;
_chemical_formula_sum "Si O2"
_cell_formula_units_Z 96
_cell_length_a 9.043764
_cell_length_b 24.912678
_cell_length_c 23.381437
_cell_angle_alpha 90.000000
_cell_angle_beta 90.000000
_cell_angle_gamma 90.000000
_cell_volume 5267.940177
_symmetry_space_group_name_H-M "I M M A"
_symmetry_group_IT_number 74
_symmetry_cell_setting 'orthorhombic'
loop_
_space_group_symop_operation_xyz
x,y,z
-x,1/2-y,z
x,-y,-z
-x,1/2+y,-z
-x,-y,-z
x,1/2+y,-z
-x,y,z
x,1/2-y,z
1/2+x,1/2+y,1/2+z
1/2-x,-y,1/2+z
1/2+x,1/2-y,1/2-z
1/2-x,y,1/2-z
1/2-x,1/2-y,1/2-z
1/2+x,y,1/2-z
1/2-x,1/2+y,1/2+z
1/2+x,-y,1/2+z
loop_
_atom_site_type_symbol
_atom_site_label
_atom_site_fract_x
_atom_site_fract_y
_atom_site_fract_z
Si Si1 0.170299 0.397640 0.875884
Si Si2 0.825772 0.093202 0.387923
Si Si3 0.827531 0.438091 0.001169
Si Si4 0.827809 0.811527 0.307982
Si Si5 0.673846 0.994602 0.689506
Si Si6 0.672477 0.189515 0.192301
O O1 0.210710 0.413305 0.940110
O O2 0.269501 0.346621 0.860449
O O3 0.207770 0.445979 0.832971
O O4 0.000000 0.381210 0.870588
O O5 0.768893 0.094499 0.452903
O O6 0.740278 0.046466 0.355576
O O7 0.785459 0.150503 0.359834
O O8 0.000000 0.081845 0.385837
O O9 0.000000 0.432895 0.016835
O O10 0.779398 0.500000 0.000000
O O11 0.789329 0.750000 0.321850
O O12 0.750000 0.830796 0.250000
O O13 0.000000 0.821015 0.299656
O O14 0.500000 0.983910 0.695165
O O15 0.750000 0.985656 0.750000
O O16 0.500000 0.187786 0.205016
O O17 0.724537 0.250000 0.176539
O O18 0.750000 0.168830 0.250000
#
# Coordination Sequence:
#
# PCOD8300592 Si02
#       6
#    16  16  16  16  16  16
#     4  10  21  37  58  81 108 145 185 226 276 328
#     4  11  22  35  55  83 110 144 185 226 275 331
#     4  10  20  39  59  78 108 148 186 227 276 324
#     4  10  21  37  58  84 114 147 183 227 278 329
#     4  11  22  36  53  79 113 145 178 225 280 332
#     4   9  19  36  56  79 109 143 180 223 272 323
#
# _framework density 18.223441000000001
#
# number of rings (size 3 to 8) (size 9 to 14) (size 15 to 20)
#    0.000    1.833    1.667    2.500    0.000    7.333 
#    0.000    0.833    0.000    3.000    0.000    0.000 
#    0.000    0.000    0.000    0.000    0.000    0.000 
#
# Total GULP energy -595419.653729 kJ/mol
# GULP energy per Si atom -12404.576119 kJ/mol
# Density = 1.818196 g / cm^3
# Si number density = 18.223441 Si / 1000 Ang^3
#
#
#
# Elastic Constant Matrix: (Units=GPa)
#
#
# Indices 1 2 3 4 5 6 
#
# 1 74.5616 52.0186 47.8132 0.0000 0.0000 0.0000
# 2 52.0186 96.4496 54.2341 0.0000 0.0000 0.0000
# 3 47.8132 54.2341 107.7949 0.0000 0.0000 0.0000
# 4 0.0000 0.0000 0.0000 23.7697 0.0000 0.0000
# 5 0.0000 0.0000 0.0000 0.0000 37.8568 0.0000
# 6 0.0000 0.0000 0.0000 0.0000 0.0000 30.4094
#
#
#
# Elastic Compliance Matrix: (Units=1/GPa)
#
#
# Indices 1 2 3 4 5 6 
#
# 1 0.023782 -0.009615 -0.005711 0.000000 0.000000 0.000000
# 2 -0.009615 0.018346 -0.004965 0.000000 0.000000 0.000000
# 3 -0.005711 -0.004965 0.014308 0.000000 0.000000 0.000000
# 4 0.000000 0.000000 0.000000 0.042070 0.000000 0.000000
# 5 0.000000 0.000000 0.000000 0.000000 0.026415 0.000000
# 6 0.000000 0.000000 0.000000 0.000000 0.000000 0.032885
#
#
# Mechanical properties :
#
#
# Convention : Reuss Voigt Hill
#
# Bulk Modulus (GPa) = 63.07943 65.21533 64.14738
# Shear Modulus (GPa) = 24.54899 26.72319 25.63609
#
# Velocity S-wave (km/s) = 3.67428 3.83354 3.75475
# Velocity P-wave (km/s) = 7.25879 7.44707 7.35353
#
# Compressibility (1/GPa) = 0.01585303
#
# Stress axis : x y z
#
# Youngs Moduli (GPa) = 42.04842 54.50791 69.88948
#
# Poissons Ratio (x) = 0.52410 0.39915
# Poissons Ratio (y) = 0.40430 0.34703
# Poissons Ratio (z) = 0.24014 0.27065
#
# Static dielectric constant tensor:
#      x y z
#    x 3.379950 0.000000 0.000000 
#    y 0.000000 3.475210 0.000000 
#    z 0.000000 0.000000 3.432260 
# 
# 
# High freq. dielectric constant tensor:
#      x y z
#    x 1.711460 0.000000 0.000000 
#    y 0.000000 1.706000 0.000000 
#    z 0.000000 0.000000 1.707730 
# 
# From -- ./inp_files/49109.got.cif
#   From: 2010.03.12/outbox.cif.g09.slc.cpg/sg74_25_cif.got.tgz:49109.got - 2010.04.16 15:46:19.
