data_PCOD8300495
_publ_section_title
;
Structure prediction by ZEFSAII (Michael W. Deem and Ramdas Pophale) SiO2 
 PCOD8300495
Probable space group: I M M A
;
_chemical_formula_sum "Si O2"
_cell_formula_units_Z 88
_cell_length_a 8.962984
_cell_length_b 19.592694
_cell_length_c 24.194605
_cell_angle_alpha 90.000000
_cell_angle_beta 90.000000
_cell_angle_gamma 90.000000
_cell_volume 4248.790458
_symmetry_space_group_name_H-M "I M M A"
_symmetry_group_IT_number 74
_symmetry_cell_setting 'orthorhombic'
loop_
_space_group_symop_operation_xyz
x,y,z
-x,1/2-y,z
x,-y,-z
-x,1/2+y,-z
-x,-y,-z
x,1/2+y,-z
-x,y,z
x,1/2-y,z
1/2+x,1/2+y,1/2+z
1/2-x,-y,1/2+z
1/2+x,1/2-y,1/2-z
1/2-x,y,1/2-z
1/2-x,1/2-y,1/2-z
1/2+x,y,1/2-z
1/2-x,1/2+y,1/2+z
1/2+x,-y,1/2+z
loop_
_atom_site_type_symbol
_atom_site_label
_atom_site_fract_x
_atom_site_fract_y
_atom_site_fract_z
Si Si1 0.831226 0.988283 0.302089
Si Si2 0.323435 0.078626 0.998846
Si Si3 0.171579 0.132237 0.619194
Si Si4 0.177125 0.357944 0.306068
Si Si5 0.822282 0.250000 0.811352
Si Si6 0.329129 0.325050 0.414901
O O1 0.750000 0.953691 0.250000
O O2 0.809495 0.942781 0.355777
O O3 0.000000 0.993516 0.283248
O O4 0.770964 0.063627 0.314790
O O5 0.500000 0.080175 0.006578
O O6 0.249125 0.117315 0.049232
O O7 0.276798 0.120810 0.943845
O O8 0.267689 0.000000 0.000000
O O9 0.274203 0.184566 0.652739
O O10 0.000000 0.157541 0.622820
O O11 0.250000 0.329040 0.250000
O O12 0.245430 0.317071 0.356796
O O13 0.000000 0.347949 0.304328
O O14 0.750000 0.250000 0.750000
O O15 0.000000 0.250000 0.803913
O O16 0.500000 0.346527 0.405559
O O17 0.318799 0.250000 0.443341
#
# Coordination Sequence:
#
# PCOD8300495 Si02
#       6
#    16  16  16  16   8  16
#     4   9  18  33  56  86 118 150 191 245 299 358
#     4  10  22  42  68  95 123 159 207 260 314 376
#     4  10  21  38  61  88 120 157 201 251 308 371
#     4  10  20  37  62  91 122 157 200 248 305 366
#     4  12  26  42  60  86 124 166 213 262 313 374
#     4  11  25  42  60  87 125 163 204 253 303 362
#
# _framework density 20.711777999999999
#
# number of rings (size 3 to 8) (size 9 to 14) (size 15 to 20)
#    0.000    1.818    0.000    3.545    1.273    8.727 
#    0.000    1.818    0.000    0.000    0.000    0.000 
#    0.000    0.000    0.000    0.000    0.000    0.000 
#
# Total GULP energy -545564.626248 kJ/mol
# GULP energy per Si atom -12399.196051 kJ/mol
# Density = 2.066464 g / cm^3
# Si number density = 20.711778 Si / 1000 Ang^3
#
#
#
# Elastic Constant Matrix: (Units=GPa)
#
#
# Indices 1 2 3 4 5 6 
#
# 1 73.8790 39.5283 54.1056 0.0000 0.0000 0.0000
# 2 39.5283 103.1124 49.5937 0.0000 0.0000 0.0000
# 3 54.1056 49.5937 136.3837 0.0000 0.0000 0.0000
# 4 0.0000 0.0000 0.0000 54.7122 0.0000 0.0000
# 5 0.0000 0.0000 0.0000 0.0000 37.5624 0.0000
# 6 0.0000 0.0000 0.0000 0.0000 0.0000 17.8155
#
#
#
# Elastic Compliance Matrix: (Units=1/GPa)
#
#
# Indices 1 2 3 4 5 6 
#
# 1 0.020929 -0.004884 -0.006527 0.000000 0.000000 0.000000
# 2 -0.004884 0.012894 -0.002751 0.000000 0.000000 0.000000
# 3 -0.006527 -0.002751 0.010922 0.000000 0.000000 0.000000
# 4 0.000000 0.000000 0.000000 0.018277 0.000000 0.000000
# 5 0.000000 0.000000 0.000000 0.000000 0.026622 0.000000
# 6 0.000000 0.000000 0.000000 0.000000 0.000000 0.056131
#
#
# Mechanical properties :
#
#
# Convention : Reuss Voigt Hill
#
# Bulk Modulus (GPa) = 60.89855 66.64780 63.77318
# Shear Modulus (GPa) = 27.84404 33.36119 30.60262
#
# Velocity S-wave (km/s) = 3.67053 4.01775 3.84806
# Velocity P-wave (km/s) = 6.88697 7.33292 7.11344
#
# Compressibility (1/GPa) = 0.01642075
#
# Stress axis : x y z
#
# Youngs Moduli (GPa) = 47.78143 77.55828 91.55918
#
# Poissons Ratio (x) = 0.37878 0.59759
# Poissons Ratio (y) = 0.23336 0.25188
# Poissons Ratio (z) = 0.31186 0.21336
#
# Static dielectric constant tensor:
#      x y z
#    x 3.684820 0.000000 0.000000 
#    y 0.000000 3.854980 0.000000 
#    z 0.000000 0.000000 3.817390 
# 
# 
# High freq. dielectric constant tensor:
#      x y z
#    x 1.803300 0.000000 0.000000 
#    y 0.000000 1.819610 0.000000 
#    z 0.000000 0.000000 1.816710 
# 
# From -- ./inp_files/56948.got.cif
#   From: 2010.03.12/outbox.cif.g09.slc.cpg/sg74_29_cif.got.tgz:56948.got - 2010.04.16 15:46:19.
