data_PCOD8300232
_publ_section_title
;
Structure prediction by ZEFSAII (Michael W. Deem and Ramdas Pophale) SiO2 
 PCOD8300232
Probable space group: I M M A
;
_chemical_formula_sum "Si O2"
_cell_formula_units_Z 88
_cell_length_a 13.900626
_cell_length_b 17.308178
_cell_length_c 17.353873
_cell_angle_alpha 90.000000
_cell_angle_beta 90.000000
_cell_angle_gamma 90.000000
_cell_volume 4175.246556
_symmetry_space_group_name_H-M "I M M A"
_symmetry_group_IT_number 74
_symmetry_cell_setting 'orthorhombic'
loop_
_space_group_symop_operation_xyz
x,y,z
-x,1/2-y,z
x,-y,-z
-x,1/2+y,-z
-x,-y,-z
x,1/2+y,-z
-x,y,z
x,1/2-y,z
1/2+x,1/2+y,1/2+z
1/2-x,-y,1/2+z
1/2+x,1/2-y,1/2-z
1/2-x,y,1/2-z
1/2-x,1/2-y,1/2-z
1/2+x,y,1/2-z
1/2-x,1/2+y,1/2+z
1/2+x,-y,1/2+z
loop_
_atom_site_type_symbol
_atom_site_label
_atom_site_fract_x
_atom_site_fract_y
_atom_site_fract_z
Si Si1 0.391131 0.340010 0.142398
Si Si2 0.750000 0.934276 0.750000
Si Si3 0.108438 0.441704 0.802177
Si Si4 0.190311 0.907977 0.494789
Si Si5 0.613053 0.837872 0.159141
Si Si6 0.102364 0.911824 0.023535
O O1 0.500000 0.358848 0.169040
O O2 0.369708 0.250000 0.147503
O O3 0.314388 0.382680 0.194732
O O4 0.381030 0.367450 0.054246
O O5 0.820342 0.985428 0.802496
O O6 0.141542 0.379284 0.738807
O O7 0.113635 0.401683 0.884837
O O8 0.000000 0.470753 0.784439
O O9 0.164232 0.884330 0.408618
O O10 0.299967 0.878275 0.514000
O O11 0.182105 0.000000 0.500000
O O12 0.500000 0.840333 0.144689
O O13 0.650526 0.750000 0.162002
O O14 0.000000 0.871380 0.998051
O O15 0.093637 0.000000 0.000000
#
# Coordination Sequence:
#
# PCOD8300232 Si02
#       6
#    16   8  16  16  16  16
#     4  11  25  43  62  87 120 156 193 241 305 371
#     4  12  21  38  63  88 116 148 196 248 301 364
#     4  10  20  35  59  89 119 155 203 255 301 354
#     4  11  21  36  61  90 118 155 205 256 305 362
#     4  10  21  37  57  85 124 167 206 250 311 376
#     4   9  18  34  55  81 114 150 192 244 299 352
#
# _framework density 21.076599999999999
#
# number of rings (size 3 to 8) (size 9 to 14) (size 15 to 20)
#    0.000    1.636    0.000    6.273    0.000    4.364 
#    0.000    5.909    0.000    6.545    0.000    0.000 
#    0.000    0.000    0.000    0.000    0.000    0.000 
#
# Total GULP energy -545453.121786 kJ/mol
# GULP energy per Si atom -12396.661859 kJ/mol
# Density = 2.102863 g / cm^3
# Si number density = 21.076600 Si / 1000 Ang^3
#
#
#
# Elastic Constant Matrix: (Units=GPa)
#
#
# Indices 1 2 3 4 5 6 
#
# 1 112.2889 63.8875 23.9059 0.0000 0.0000 0.0000
# 2 63.8875 105.8836 36.2445 0.0000 0.0000 0.0000
# 3 23.9059 36.2445 78.0029 0.0000 0.0000 0.0000
# 4 0.0000 0.0000 0.0000 30.2537 0.0000 0.0000
# 5 0.0000 0.0000 0.0000 0.0000 33.8270 0.0000
# 6 0.0000 0.0000 0.0000 0.0000 0.0000 35.3768
#
#
#
# Elastic Compliance Matrix: (Units=1/GPa)
#
#
# Indices 1 2 3 4 5 6 
#
# 1 0.013573 -0.008045 -0.000421 0.000000 0.000000 0.000000
# 2 -0.008045 0.015999 -0.004969 0.000000 0.000000 0.000000
# 3 -0.000421 -0.004969 0.015258 0.000000 0.000000 0.000000
# 4 0.000000 0.000000 0.000000 0.033054 0.000000 0.000000
# 5 0.000000 0.000000 0.000000 0.000000 0.029562 0.000000
# 6 0.000000 0.000000 0.000000 0.000000 0.000000 0.028267
#
#
# Mechanical properties :
#
#
# Convention : Reuss Voigt Hill
#
# Bulk Modulus (GPa) = 55.68060 60.47235 58.07648
# Shear Modulus (GPa) = 29.66131 31.36733 30.51432
#
# Velocity S-wave (km/s) = 3.75548 3.86197 3.80910
# Velocity P-wave (km/s) = 6.72907 6.97427 6.85277
#
# Compressibility (1/GPa) = 0.01795958
#
# Stress axis : x y z
#
# Youngs Moduli (GPa) = 73.67757 62.50260 65.53991
#
# Poissons Ratio (x) = 0.50284 0.02762
# Poissons Ratio (y) = 0.59275 0.32564
# Poissons Ratio (z) = 0.03105 0.31055
#
# Static dielectric constant tensor:
#      x y z
#    x 4.474710 0.000000 0.000000 
#    y 0.000000 3.600480 0.000000 
#    z 0.000000 0.000000 3.921030 
# 
# 
# High freq. dielectric constant tensor:
#      x y z
#    x 1.856650 0.000000 0.000000 
#    y 0.000000 1.797850 0.000000 
#    z 0.000000 0.000000 1.825400 
# 
# From -- ./inp_files/42816.got.cif
#   From: 2010.03.12/outbox.cif.g09.slc.cpg/sg74_22_cif.got.tgz:42816.got - 2010.04.16 15:46:19.
