data_PCOD8300054
_publ_section_title
;
Structure prediction by ZEFSAII (Michael W. Deem and Ramdas Pophale) SiO2 
 PCOD8300054
Probable space group: I M M A
;
_chemical_formula_sum "Si O2"
_cell_formula_units_Z 72
_cell_length_a 14.897727
_cell_length_b 9.002513
_cell_length_c 28.973351
_cell_angle_alpha 90.000000
_cell_angle_beta 90.000000
_cell_angle_gamma 90.000000
_cell_volume 3885.818365
_symmetry_space_group_name_H-M "I M M A"
_symmetry_group_IT_number 74
_symmetry_cell_setting 'orthorhombic'
loop_
_space_group_symop_operation_xyz
x,y,z
-x,1/2-y,z
x,-y,-z
-x,1/2+y,-z
-x,-y,-z
x,1/2+y,-z
-x,y,z
x,1/2-y,z
1/2+x,1/2+y,1/2+z
1/2-x,-y,1/2+z
1/2+x,1/2-y,1/2-z
1/2-x,y,1/2-z
1/2-x,1/2-y,1/2-z
1/2+x,y,1/2-z
1/2-x,1/2+y,1/2+z
1/2+x,-y,1/2+z
loop_
_atom_site_type_symbol
_atom_site_label
_atom_site_fract_x
_atom_site_fract_y
_atom_site_fract_z
Si Si1 0.738990 0.575865 0.135956
Si Si2 0.500000 0.580729 0.547261
Si Si3 0.305144 0.924703 0.549817
Si Si4 0.895061 0.079240 0.297407
Si Si5 0.897922 0.921588 0.203320
O O1 0.727693 0.750000 0.128410
O O2 0.736878 0.496711 0.086139
O O3 0.654937 0.516090 0.164258
O O4 0.831789 0.536855 0.161854
O O5 0.500000 0.750000 0.533125
O O6 0.500000 0.500000 0.500000
O O7 0.594756 0.542778 0.571814
O O8 0.285888 0.750000 0.544880
O O9 0.292454 0.000000 0.500000
O O10 0.865146 0.250000 0.300630
O O11 0.000000 0.058830 0.306644
O O12 0.869337 0.019950 0.246902
O O13 0.887703 0.750000 0.217812
O O14 0.000000 0.957097 0.187554
#
# Coordination Sequence:
#
# PCOD8300054 Si02
#       5
#    16   8  16  16  16
#     4  11  22  34  54  81 108 143 182 221 266 318
#     4   8  16  30  48  70  98 136 174 210 254 302
#     4  10  20  35  53  76 107 142 180 222 265 313
#     4  10  21  37  56  78 105 139 179 225 274 321
#     4   9  19  35  53  77 111 146 178 215 261 317
#
# _framework density 18.528915999999999
#
# number of rings (size 3 to 8) (size 9 to 14) (size 15 to 20)
#    0.000    2.222    0.000    2.667    1.556    6.667 
#    0.000    0.000    0.000    0.667    0.000    0.000 
#    0.000    0.000    0.000    0.000    0.000    0.000 
#
# Total GULP energy -446267.508287 kJ/mol
# GULP energy per Si atom -12396.319675 kJ/mol
# Density = 1.848674 g / cm^3
# Si number density = 18.528916 Si / 1000 Ang^3
#
#
#
# Elastic Constant Matrix: (Units=GPa)
#
#
# Indices 1 2 3 4 5 6 
#
# 1 46.8590 38.9916 41.0482 0.0000 0.0000 0.0000
# 2 38.9916 98.4097 62.6319 0.0000 0.0000 0.0000
# 3 41.0482 62.6319 110.0156 0.0000 0.0000 0.0000
# 4 0.0000 0.0000 0.0000 34.5567 0.0000 0.0000
# 5 0.0000 0.0000 0.0000 0.0000 22.2389 0.0000
# 6 0.0000 0.0000 0.0000 0.0000 0.0000 28.0051
#
#
#
# Elastic Compliance Matrix: (Units=1/GPa)
#
#
# Indices 1 2 3 4 5 6 
#
# 1 0.036161 -0.009003 -0.008367 0.000000 0.000000 0.000000
# 2 -0.009003 0.018177 -0.006989 0.000000 0.000000 0.000000
# 3 -0.008367 -0.006989 0.016190 0.000000 0.000000 0.000000
# 4 0.000000 0.000000 0.000000 0.028938 0.000000 0.000000
# 5 0.000000 0.000000 0.000000 0.000000 0.044966 0.000000
# 6 0.000000 0.000000 0.000000 0.000000 0.000000 0.035708
#
#
# Mechanical properties :
#
#
# Convention : Reuss Voigt Hill
#
# Bulk Modulus (GPa) = 45.84855 60.06975 52.95915
# Shear Modulus (GPa) = 21.17499 24.46763 22.82131
#
# Velocity S-wave (km/s) = 3.38421 3.63783 3.51331
# Velocity P-wave (km/s) = 6.32997 7.08060 6.71578
#
# Compressibility (1/GPa) = 0.02181094
#
# Stress axis : x y z
#
# Youngs Moduli (GPa) = 27.65400 55.01563 61.76534
#
# Poissons Ratio (x) = 0.49528 0.51679
# Poissons Ratio (y) = 0.24896 0.43168
# Poissons Ratio (z) = 0.23138 0.38451
#
# Static dielectric constant tensor:
#      x y z
#    x 3.433730 0.000000 0.000000 
#    y 0.000000 3.472280 0.000000 
#    z 0.000000 0.000000 3.160350 
# 
# 
# High freq. dielectric constant tensor:
#      x y z
#    x 1.706650 0.000000 0.000000 
#    y 0.000000 1.732470 0.000000 
#    z 0.000000 0.000000 1.705620 
# 
# From -- ./inp_files/56696.got.cif
#   From: 2010.03.12/outbox.cif.g09.slc.cpg/sg74_29_cif.got.tgz:56696.got - 2010.04.16 15:46:19.
