data_PCOD8300589
_publ_section_title
;
Structure prediction by ZEFSAII (Michael W. Deem and Ramdas Pophale) SiO2 
 PCOD8300589
Probable space group: I M M A
;
_chemical_formula_sum "Si O2"
_cell_formula_units_Z 44
_cell_length_a 22.219920
_cell_length_b 10.352761
_cell_length_c 8.763600
_cell_angle_alpha 90.000000
_cell_angle_beta 90.000000
_cell_angle_gamma 90.000000
_cell_volume 2015.956821
_symmetry_space_group_name_H-M "I M M A"
_symmetry_group_IT_number 74
_symmetry_cell_setting 'orthorhombic'
loop_
_space_group_symop_operation_xyz
x,y,z
-x,1/2-y,z
x,-y,-z
-x,1/2+y,-z
-x,-y,-z
x,1/2+y,-z
-x,y,z
x,1/2-y,z
1/2+x,1/2+y,1/2+z
1/2-x,-y,1/2+z
1/2+x,1/2-y,1/2-z
1/2-x,y,1/2-z
1/2-x,1/2-y,1/2-z
1/2+x,y,1/2-z
1/2-x,1/2+y,1/2+z
1/2+x,-y,1/2+z
loop_
_atom_site_type_symbol
_atom_site_label
_atom_site_fract_x
_atom_site_fract_y
_atom_site_fract_z
Si Si1 0.627051 0.996833 0.330518
Si Si2 0.316131 0.750000 0.181282
Si Si3 0.869330 0.250000 0.357565
Si Si4 0.500000 0.394818 0.705981
Si Si5 0.000000 0.250000 0.501864
O O1 0.650202 0.875764 0.237446
O O2 0.555658 0.981253 0.346146
O O3 0.655668 0.000000 0.500000
O O4 0.645727 0.125927 0.243739
O O5 0.250000 0.750000 0.250000
O O6 0.322289 0.750000 0.998138
O O7 0.939706 0.250000 0.401659
O O8 0.500000 0.250000 0.629958
O O9 0.500000 0.377661 0.890598
#
# Coordination Sequence:
#
# PCOD8300589 Si02
#       5
#    16   8   8   8   4
#     4  12  25  45  69 104 141 178 225 283 346 409
#     4  12  27  48  70  96 132 181 240 287 335 404
#     4  12  25  42  76 102 139 181 226 281 345 408
#     4  10  20  39  70  98 144 177 224 270 346 407
#     4  10  20  38  70 106 136 176 234 268 342 410
#
# _framework density 21.825863999999999
#
# number of rings (size 3 to 8) (size 9 to 14) (size 15 to 20)
#    0.545    0.000    5.455    3.818    0.000    4.364 
#    0.000    2.727    0.000    0.000    0.000    0.000 
#    0.000    0.000    0.000    0.000    0.000    0.000 
#
# Total GULP energy -272815.187033 kJ/mol
# GULP energy per Si atom -12400.690320 kJ/mol
# Density = 2.177619 g / cm^3
# Si number density = 21.825864 Si / 1000 Ang^3
#
#
#
# Elastic Constant Matrix: (Units=GPa)
#
#
# Indices 1 2 3 4 5 6 
#
# 1 97.1833 24.4683 29.8632 0.0000 0.0000 0.0000
# 2 24.4683 180.6025 82.2964 0.0000 0.0000 0.0000
# 3 29.8632 82.2964 180.1270 0.0000 0.0000 0.0000
# 4 0.0000 0.0000 0.0000 41.3726 0.0000 0.0000
# 5 0.0000 0.0000 0.0000 0.0000 7.2861 0.0000
# 6 0.0000 0.0000 0.0000 0.0000 0.0000 -0.6159
#
#
#
# Elastic Compliance Matrix: (Units=1/GPa)
#
#
# Indices 1 2 3 4 5 6 
#
# 1 0.010939 -0.000828 -0.001435 0.000000 0.000000 0.000000
# 2 -0.000828 0.007056 -0.003086 0.000000 0.000000 0.000000
# 3 -0.001435 -0.003086 0.007200 0.000000 0.000000 0.000000
# 4 0.000000 0.000000 0.000000 0.024171 0.000000 0.000000
# 5 0.000000 0.000000 0.000000 0.000000 0.137247 0.000000
# 6 0.000000 0.000000 0.000000 0.000000 0.000000 -1.623568
#
#
# Mechanical properties :
#
#
# Convention : Reuss Voigt Hill
#
# Bulk Modulus (GPa) = 68.98775 81.24096 75.11436
# Shear Modulus (GPa) = -3.51760 31.02756 13.75498
#
# Velocity S-wave (km/s) = -1.27089 3.77450 2.51313
# Velocity P-wave (km/s) = 5.43354 7.50326 6.55066
#
# Compressibility (1/GPa) = 0.01449533
#
# Stress axis : x y z
#
# Youngs Moduli (GPa) = 91.41300 141.73252 138.89565
#
# Poissons Ratio (x) = 0.11736 0.19936
# Poissons Ratio (y) = 0.07569 0.42867
# Poissons Ratio (z) = 0.13121 0.43742
#
# Static dielectric constant tensor:
#      x y z
#    x 4.127570 0.000000 0.000000 
#    y 0.000000 4.020520 0.000000 
#    z 0.000000 0.000000 4.059600 
# 
# 
# High freq. dielectric constant tensor:
#      x y z
#    x 1.836770 0.000000 0.000000 
#    y 0.000000 1.869460 0.000000 
#    z 0.000000 0.000000 1.867530 
# 
# From -- ./inp_files/13109.got.cif
#   From: 2010.03.12/outbox.cif.g09.slc.cpg/sg74_7_cif.got.tgz:13109.got - 2010.04.16 15:46:19.
