data_PCOD8300390
_publ_section_title
;
Structure prediction by ZEFSAII (Michael W. Deem and Ramdas Pophale) SiO2 
 PCOD8300390
Probable space group: I M M A
;
_chemical_formula_sum "Si O2"
_cell_formula_units_Z 96
_cell_length_a 17.768327
_cell_length_b 19.946378
_cell_length_c 14.539714
_cell_angle_alpha 90.000000
_cell_angle_beta 90.000000
_cell_angle_gamma 90.000000
_cell_volume 5153.074806
_symmetry_space_group_name_H-M "I M M A"
_symmetry_group_IT_number 74
_symmetry_cell_setting 'orthorhombic'
loop_
_space_group_symop_operation_xyz
x,y,z
-x,1/2-y,z
x,-y,-z
-x,1/2+y,-z
-x,-y,-z
x,1/2+y,-z
-x,y,z
x,1/2-y,z
1/2+x,1/2+y,1/2+z
1/2-x,-y,1/2+z
1/2+x,1/2-y,1/2-z
1/2-x,y,1/2-z
1/2-x,1/2-y,1/2-z
1/2+x,y,1/2-z
1/2-x,1/2+y,1/2+z
1/2+x,-y,1/2+z
loop_
_atom_site_type_symbol
_atom_site_label
_atom_site_fract_x
_atom_site_fract_y
_atom_site_fract_z
Si Si1 0.165387 0.325852 0.230472
Si Si2 0.912440 0.938713 0.665376
Si Si3 0.165680 0.071245 0.713067
Si Si4 0.812043 0.573051 0.495201
Si Si5 0.087711 0.327979 0.849883
Si Si6 0.316264 0.325499 0.475203
O O1 0.158998 0.250000 0.267710
O O2 0.250000 0.352619 0.250000
O O3 0.104324 0.369580 0.283344
O O4 0.143017 0.329457 0.123087
O O5 0.884933 0.932546 0.560277
O O6 0.000000 0.953810 0.663725
O O7 0.872186 0.998417 0.722048
O O8 0.250000 0.066684 0.750000
O O9 0.163581 0.093804 0.607013
O O10 0.120114 0.127408 0.768023
O O11 0.771312 0.500000 0.500000
O O12 0.756487 0.628563 0.533144
O O13 0.102894 0.250000 0.826911
O O14 0.127207 0.349699 0.945237
O O15 0.000000 0.342638 0.861667
O O16 0.288763 0.250000 0.495503
#
# Coordination Sequence:
#
# PCOD8300390 Si02
#       6
#    16  16  16  16  16  16
#     4  10  20  36  61  86 112 150 195 240 284 340
#     4  11  24  39  58  86 121 156 192 240 294 346
#     4  11  22  38  62  88 112 154 200 241 282 343
#     4  10  22  37  59  85 114 152 194 241 282 342
#     4  10  22  39  59  87 121 151 186 239 296 345
#     4  10  20  36  60  86 115 151 191 235 289 345
#
# _framework density 18.629653000000001
#
# number of rings (size 3 to 8) (size 9 to 14) (size 15 to 20)
#    0.000    1.667    3.333    1.000    2.333    5.667 
#    0.000    1.667    0.000    2.500    0.000    0.000 
#    0.000    0.000    0.000    0.000    0.000    0.000 
#
# Total GULP energy -595282.037608 kJ/mol
# GULP energy per Si atom -12401.709117 kJ/mol
# Density = 1.858725 g / cm^3
# Si number density = 18.629653 Si / 1000 Ang^3
#
#
#
# Elastic Constant Matrix: (Units=GPa)
#
#
# Indices 1 2 3 4 5 6 
#
# 1 95.1466 43.3987 29.4923 0.0000 0.0000 0.0000
# 2 43.3987 84.1510 42.3372 0.0000 0.0000 0.0000
# 3 29.4923 42.3372 116.5080 0.0000 0.0000 0.0000
# 4 0.0000 0.0000 0.0000 32.9148 0.0000 0.0000
# 5 0.0000 0.0000 0.0000 0.0000 21.7258 0.0000
# 6 0.0000 0.0000 0.0000 0.0000 0.0000 26.4911
#
#
#
# Elastic Compliance Matrix: (Units=1/GPa)
#
#
# Indices 1 2 3 4 5 6 
#
# 1 0.013860 -0.006587 -0.001115 0.000000 0.000000 0.000000
# 2 -0.006587 0.017673 -0.004755 0.000000 0.000000 0.000000
# 3 -0.001115 -0.004755 0.010593 0.000000 0.000000 0.000000
# 4 0.000000 0.000000 0.000000 0.030381 0.000000 0.000000
# 5 0.000000 0.000000 0.000000 0.000000 0.046028 0.000000
# 6 0.000000 0.000000 0.000000 0.000000 0.000000 0.037748
#
#
# Mechanical properties :
#
#
# Convention : Reuss Voigt Hill
#
# Bulk Modulus (GPa) = 58.09622 58.47356 58.28489
# Shear Modulus (GPa) = 26.74732 28.26485 27.50608
#
# Velocity S-wave (km/s) = 3.79323 3.89935 3.84665
# Velocity P-wave (km/s) = 7.10192 7.19227 7.14724
#
# Compressibility (1/GPa) = 0.01721282
#
# Stress axis : x y z
#
# Youngs Moduli (GPa) = 72.14883 56.58469 94.40172
#
# Poissons Ratio (x) = 0.37273 0.10524
# Poissons Ratio (y) = 0.47526 0.44883
# Poissons Ratio (z) = 0.08043 0.26903
#
# Static dielectric constant tensor:
#      x y z
#    x 3.241490 0.000000 0.000000 
#    y 0.000000 3.544250 0.000000 
#    z 0.000000 0.000000 3.568270 
# 
# 
# High freq. dielectric constant tensor:
#      x y z
#    x 1.705880 0.000000 0.000000 
#    y 0.000000 1.731200 0.000000 
#    z 0.000000 0.000000 1.736280 
# 
# From -- ./inp_files/32313.got.cif
#   From: 2010.03.12/outbox.cif.g09.slc.cpg/sg74_17_cif.got.tgz:32313.got - 2010.04.16 15:46:19.
