data_PCOD8300568
_publ_section_title
;
Structure prediction by ZEFSAII (Michael W. Deem and Ramdas Pophale) SiO2 
 PCOD8300568
Probable space group: I M M A
;
_chemical_formula_sum "Si O2"
_cell_formula_units_Z 112
_cell_length_a 17.203998
_cell_length_b 24.993281
_cell_length_c 12.539076
_cell_angle_alpha 90.000000
_cell_angle_beta 90.000000
_cell_angle_gamma 90.000000
_cell_volume 5391.606523
_symmetry_space_group_name_H-M "I M M A"
_symmetry_group_IT_number 74
_symmetry_cell_setting 'orthorhombic'
loop_
_space_group_symop_operation_xyz
x,y,z
-x,1/2-y,z
x,-y,-z
-x,1/2+y,-z
-x,-y,-z
x,1/2+y,-z
-x,y,z
x,1/2-y,z
1/2+x,1/2+y,1/2+z
1/2-x,-y,1/2+z
1/2+x,1/2-y,1/2-z
1/2-x,y,1/2-z
1/2-x,1/2-y,1/2-z
1/2+x,y,1/2-z
1/2-x,1/2+y,1/2+z
1/2+x,-y,1/2+z
loop_
_atom_site_type_symbol
_atom_site_label
_atom_site_fract_x
_atom_site_fract_y
_atom_site_fract_z
Si Si1 0.152322 0.100532 0.891646
Si Si2 0.409161 0.640205 0.014820
Si Si3 0.310443 0.955491 0.081332
Si Si4 0.407549 0.190397 0.203111
Si Si5 0.591456 0.393435 0.378156
Si Si6 0.409596 0.311391 0.759040
Si Si7 0.911905 0.505470 0.226069
O O1 0.239404 0.079359 0.874728
O O2 0.142364 0.152560 0.818214
O O3 0.091945 0.054369 0.857345
O O4 0.137509 0.116830 0.013212
O O5 0.500000 0.629838 0.002925
O O6 0.370897 0.582134 0.020335
O O7 0.389682 0.675216 0.118695
O O8 0.375978 0.670893 0.911594
O O9 0.352794 0.984665 0.178470
O O10 0.278708 0.000000 0.000000
O O11 0.500000 0.190520 0.200303
O O12 0.375519 0.250000 0.225689
O O13 0.377738 0.151055 0.295548
O O14 0.500000 0.387839 0.399406
O O15 0.613239 0.451453 0.332921
O O16 0.500000 0.322752 0.735417
O O17 0.388244 0.250000 0.737037
O O18 0.000000 0.500983 0.269619
#
# Coordination Sequence:
#
# PCOD8300568 Si02
#       7
#    16  16  16  16  16  16  16
#     4  12  24  40  59  90 130 169 204 249 315 387
#     4  10  20  38  63  93 124 159 211 268 318 371
#     4  12  25  39  60  90 127 168 207 259 319 383
#     4   9  18  35  61  91 121 155 201 257 309 359
#     4  10  21  37  61  90 121 160 209 255 303 369
#     4  10  21  39  66  96 125 164 212 265 323 379
#     4  11  22  39  63  89 120 161 211 266 317 372
#
# _framework density 20.773029999999999
#
# number of rings (size 3 to 8) (size 9 to 14) (size 15 to 20)
#    0.000    1.429    1.429    4.714    0.000    5.714 
#    0.000    5.714    0.000    0.857    0.000    0.000 
#    0.000    0.000    0.000    0.000    0.000    0.000 
#
# Total GULP energy -694668.540609 kJ/mol
# GULP energy per Si atom -12404.795368 kJ/mol
# Density = 2.072575 g / cm^3
# Si number density = 20.773030 Si / 1000 Ang^3
#
#
#
# Elastic Constant Matrix: (Units=GPa)
#
#
# Indices 1 2 3 4 5 6 
#
# 1 61.3880 22.9449 42.4027 0.0000 0.0000 0.0000
# 2 22.9449 141.9262 68.9222 0.0000 0.0000 0.0000
# 3 42.4027 68.9222 157.6996 0.0001 0.0000 0.0000
# 4 0.0000 0.0000 0.0001 31.0008 0.0000 0.0000
# 5 0.0000 0.0000 0.0000 0.0000 13.3088 0.0000
# 6 0.0000 0.0000 0.0000 0.0000 0.0000 19.6796
#
#
#
# Elastic Compliance Matrix: (Units=1/GPa)
#
#
# Indices 1 2 3 4 5 6 
#
# 1 0.020075 -0.000792 -0.005052 0.000000 0.000000 0.000000
# 2 -0.000792 0.008976 -0.003710 0.000000 0.000000 0.000000
# 3 -0.005052 -0.003710 0.009321 0.000000 0.000000 0.000000
# 4 0.000000 0.000000 0.000000 0.032257 0.000000 0.000000
# 5 0.000000 0.000000 0.000000 0.000000 0.075139 0.000000
# 6 0.000000 0.000000 0.000000 0.000000 0.000000 0.050814
#
#
# Mechanical properties :
#
#
# Convention : Reuss Voigt Hill
#
# Bulk Modulus (GPa) = 51.90952 69.95037 60.92995
# Shear Modulus (GPa) = 22.51137 27.91411 25.21274
#
# Velocity S-wave (km/s) = 3.29550 3.66972 3.48763
# Velocity P-wave (km/s) = 6.28678 7.19045 6.75375
#
# Compressibility (1/GPa) = 0.01926429
#
# Stress axis : x y z
#
# Youngs Moduli (GPa) = 49.81252 111.41437 107.28748
#
# Poissons Ratio (x) = 0.08828 0.54197
# Poissons Ratio (y) = 0.03947 0.39800
# Poissons Ratio (z) = 0.25163 0.41331
#
# Static dielectric constant tensor:
#      x y z
#    x 3.495020 0.000000 0.000000 
#    y 0.000000 3.919600 0.000000 
#    z 0.000000 0.000000 3.863410 
# 
# 
# High freq. dielectric constant tensor:
#      x y z
#    x 1.789540 0.000000 0.000000 
#    y 0.000000 1.820600 0.000000 
#    z 0.000000 0.000000 1.822840 
# 
# From -- ./inp_files/21173.got.cif
#   From: 2010.03.12/outbox.cif.g09.slc.cpg/sg74_11_cif.got.tgz:21173.got - 2010.04.16 15:46:19.
