data_PCOD8300844
_publ_section_title
;
Structure prediction by ZEFSAII (Michael W. Deem and Ramdas Pophale) SiO2 
 PCOD8300844
Probable space group: I M M A
;
_chemical_formula_sum "Si O2"
_cell_formula_units_Z 104
_cell_length_a 8.658893
_cell_length_b 22.685938
_cell_length_c 28.534076
_cell_angle_alpha 90.000000
_cell_angle_beta 90.000000
_cell_angle_gamma 90.000000
_cell_volume 5605.094351
_symmetry_space_group_name_H-M "I M M A"
_symmetry_group_IT_number 74
_symmetry_cell_setting 'orthorhombic'
loop_
_space_group_symop_operation_xyz
x,y,z
-x,1/2-y,z
x,-y,-z
-x,1/2+y,-z
-x,-y,-z
x,1/2+y,-z
-x,y,z
x,1/2-y,z
1/2+x,1/2+y,1/2+z
1/2-x,-y,1/2+z
1/2+x,1/2-y,1/2-z
1/2-x,y,1/2-z
1/2-x,1/2-y,1/2-z
1/2+x,y,1/2-z
1/2-x,1/2+y,1/2+z
1/2+x,-y,1/2+z
loop_
_atom_site_type_symbol
_atom_site_label
_atom_site_fract_x
_atom_site_fract_y
_atom_site_fract_z
Si Si1 0.826968 0.815750 0.799901
Si Si2 0.820169 0.553688 0.548744
Si Si3 0.817127 0.920615 0.448135
Si Si4 0.819583 0.525591 0.199069
Si Si5 0.321982 0.583987 0.851479
Si Si6 0.815587 0.250000 0.696285
Si Si7 0.816747 0.137868 0.859336
O O1 0.832636 0.750000 0.820043
O O2 0.750000 0.817287 0.750000
O O3 0.715398 0.851953 0.832968
O O4 0.000000 0.842493 0.797374
O O5 0.756930 0.487734 0.559662
O O6 0.762102 0.589079 0.502506
O O7 0.777374 0.591059 0.594137
O O8 0.000000 0.544252 0.540337
O O9 0.735138 0.873451 0.413406
O O10 0.000000 0.912827 0.440424
O O11 0.750000 0.529693 0.250000
O O12 0.777377 0.464555 0.174844
O O13 0.759141 0.580239 0.168530
O O14 0.000000 0.529261 0.204704
O O15 0.500000 0.567072 0.844478
O O16 0.750000 0.250000 0.750000
O O17 0.761788 0.193502 0.666113
O O18 0.000000 0.250000 0.700259
O O19 0.000000 0.147222 0.857934
#
# Coordination Sequence:
#
# PCOD8300844 Si02
#       7
#    16  16  16  16  16   8  16
#     4  10  21  37  55  75 103 141 183 224 268 325
#     4   8  16  30  54  85 114 146 184 226 271 328
#     4   9  16  33  58  83 112 147 188 227 273 331
#     4  11  23  36  52  78 113 148 182 224 276 333
#     4  11  20  33  55  82 111 143 181 227 275 326
#     4  12  26  44  66  88 114 154 198 246 297 354
#     4  11  23  39  59  86 117 150 191 238 289 345
#
# _framework density 18.554549999999999
#
# number of rings (size 3 to 8) (size 9 to 14) (size 15 to 20)
#    0.000    1.846    1.538    4.385    0.000    4.000 
#    0.000    3.077    1.692    0.000    0.000    0.000 
#    0.000    0.000    0.000    0.000    0.000    0.000 
#
# Total GULP energy -644379.645707 kJ/mol
# GULP energy per Si atom -12391.916264 kJ/mol
# Density = 1.851232 g / cm^3
# Si number density = 18.554550 Si / 1000 Ang^3
#
#
#
# Elastic Constant Matrix: (Units=GPa)
#
#
# Indices 1 2 3 4 5 6 
#
# 1 53.0035 28.4786 29.2258 0.0000 0.0000 0.0000
# 2 28.4786 97.1972 76.2224 0.0000 0.0000 0.0000
# 3 29.2258 76.2224 152.2267 0.0000 0.0000 0.0000
# 4 0.0000 0.0000 0.0000 42.8436 0.0000 0.0000
# 5 0.0000 0.0000 0.0000 0.0000 20.3848 0.0000
# 6 0.0000 0.0000 0.0000 0.0000 0.0000 12.3917
#
#
#
# Elastic Compliance Matrix: (Units=1/GPa)
#
#
# Indices 1 2 3 4 5 6 
#
# 1 0.022652 -0.005313 -0.001689 0.000000 0.000000 0.000000
# 2 -0.005313 0.018186 -0.008086 0.000000 0.000000 0.000000
# 3 -0.001689 -0.008086 0.010942 0.000000 0.000000 0.000000
# 4 0.000000 0.000000 0.000000 0.023341 0.000000 0.000000
# 5 0.000000 0.000000 0.000000 0.000000 0.049056 0.000000
# 6 0.000000 0.000000 0.000000 0.000000 0.000000 0.080699
#
#
# Mechanical properties :
#
#
# Convention : Reuss Voigt Hill
#
# Bulk Modulus (GPa) = 46.28465 63.36454 54.82460
# Shear Modulus (GPa) = 20.63951 26.35740 23.49845
#
# Velocity S-wave (km/s) = 3.33884 3.77309 3.56259
# Velocity P-wave (km/s) = 6.31372 7.29425 6.82163
#
# Compressibility (1/GPa) = 0.02160543
#
# Stress axis : x y z
#
# Youngs Moduli (GPa) = 44.14544 54.98697 91.38901
#
# Poissons Ratio (x) = 0.29213 0.15434
# Poissons Ratio (y) = 0.23453 0.73898
# Poissons Ratio (z) = 0.07455 0.44463
#
# Static dielectric constant tensor:
#      x y z
#    x 3.377000 0.000000 0.000000 
#    y 0.000000 3.390850 0.000000 
#    z 0.000000 0.000000 3.681960 
# 
# 
# High freq. dielectric constant tensor:
#      x y z
#    x 1.715130 0.000000 0.000000 
#    y 0.000000 1.702640 0.000000 
#    z 0.000000 0.000000 1.734090 
# 
# From -- ./inp_files/64758.got.cif
#   From: 2010.03.12/outbox.cif.g09.slc.cpg/sg74_33_cif.got.tgz:64758.got - 2010.04.16 15:46:19.
