data_PCOD8300928
_publ_section_title
;
Structure prediction by ZEFSAII (Michael W. Deem and Ramdas Pophale) SiO2 
 PCOD8300928
Probable space group: I M M A
;
_chemical_formula_sum "Si O2"
_cell_formula_units_Z 112
_cell_length_a 15.737829
_cell_length_b 25.550790
_cell_length_c 13.935860
_cell_angle_alpha 90.000000
_cell_angle_beta 90.000000
_cell_angle_gamma 90.000000
_cell_volume 5603.803904
_symmetry_space_group_name_H-M "I M M A"
_symmetry_group_IT_number 74
_symmetry_cell_setting 'orthorhombic'
loop_
_space_group_symop_operation_xyz
x,y,z
-x,1/2-y,z
x,-y,-z
-x,1/2+y,-z
-x,-y,-z
x,1/2+y,-z
-x,y,z
x,1/2-y,z
1/2+x,1/2+y,1/2+z
1/2-x,-y,1/2+z
1/2+x,1/2-y,1/2-z
1/2-x,y,1/2-z
1/2-x,1/2-y,1/2-z
1/2+x,y,1/2-z
1/2-x,1/2+y,1/2+z
1/2+x,-y,1/2+z
loop_
_atom_site_type_symbol
_atom_site_label
_atom_site_fract_x
_atom_site_fract_y
_atom_site_fract_z
Si Si1 0.157721 0.250000 0.129483
Si Si2 0.251905 0.924556 0.943218
Si Si3 0.279041 0.534458 0.356162
Si Si4 0.849819 0.750000 0.644432
Si Si5 0.903373 0.148175 0.453470
Si Si6 0.594653 0.852755 0.537305
Si Si7 0.898964 0.190755 0.659560
Si Si8 0.094893 0.120018 0.828624
O O1 0.155119 0.250000 0.242713
O O2 0.256102 0.250000 0.096208
O O3 0.106433 0.298513 0.089553
O O4 0.338030 0.894990 0.910259
O O5 0.168428 0.890522 0.926223
O O6 0.228646 0.972882 0.873926
O O7 0.270714 0.939386 0.054319
O O8 0.250000 0.549278 0.250000
O O9 0.371221 0.561828 0.355251
O O10 0.901746 0.800866 0.612740
O O11 0.872036 0.164768 0.559186
O O12 0.000000 0.125758 0.453792
O O13 0.500000 0.875022 0.562112
O O14 0.601528 0.843947 0.422964
O O15 0.861810 0.250000 0.666990
O O16 0.860001 0.153364 0.743293
O O17 0.000000 0.194074 0.667847
O O18 0.000000 0.109168 0.794722
#
# Coordination Sequence:
#
# PCOD8300928 Si02
#       8
#     8  16  16   8  16  16  16  16
#     4  11  23  39  58  82 118 158 193 240 292 339
#     4  10  22  39  59  85 114 149 200 249 293 354
#     4  10  21  39  59  79 113 154 194 249 306 345
#     4  11  23  39  60  82 116 158 195 240 296 349
#     4  11  21  38  61  86 119 156 196 243 296 357
#     4  10  21  37  59  85 117 155 193 236 288 348
#     4   9  17  30  54  90 126 157 190 234 295 367
#     4   9  19  35  58  88 119 154 192 236 295 360
#
# _framework density 19.986424
#
# number of rings (size 3 to 8) (size 9 to 14) (size 15 to 20)
#    0.000    2.000    2.143    1.286    1.000    2.857 
#    0.000    5.000    0.000    3.000    0.000    0.000 
#    0.000    0.000    0.000    0.000    0.000    0.000 
#
# Total GULP energy -693875.687594 kJ/mol
# GULP energy per Si atom -12390.637278 kJ/mol
# Density = 1.994093 g / cm^3
# Si number density = 19.986424 Si / 1000 Ang^3
#
#
#
# Elastic Constant Matrix: (Units=GPa)
#
#
# Indices 1 2 3 4 5 6 
#
# 1 100.3491 49.9874 26.6172 0.0000 0.0000 0.0000
# 2 49.9874 129.1980 31.4346 0.0001 0.0000 0.0000
# 3 26.6172 31.4346 72.9930 0.0003 0.0000 0.0000
# 4 0.0000 0.0001 0.0003 35.8900 0.0000 0.0000
# 5 0.0000 0.0000 0.0000 0.0000 22.3784 0.0000
# 6 0.0000 0.0000 0.0000 0.0000 0.0000 27.5998
#
#
#
# Elastic Compliance Matrix: (Units=1/GPa)
#
#
# Indices 1 2 3 4 5 6 
#
# 1 0.012852 -0.004281 -0.002843 0.000000 0.000000 0.000000
# 2 -0.004281 0.010072 -0.002776 0.000000 0.000000 0.000000
# 3 -0.002843 -0.002776 0.015932 0.000000 0.000000 0.000000
# 4 0.000000 0.000000 0.000000 0.027863 0.000000 0.000000
# 5 0.000000 0.000000 0.000000 0.000000 0.044686 0.000000
# 6 0.000000 0.000000 0.000000 0.000000 0.000000 0.036232
#
#
# Mechanical properties :
#
#
# Convention : Reuss Voigt Hill
#
# Bulk Modulus (GPa) = 52.47795 57.62427 55.05111
# Shear Modulus (GPa) = 28.77056 30.14036 29.45546
#
# Velocity S-wave (km/s) = 3.79820 3.88756 3.84314
# Velocity P-wave (km/s) = 6.74899 7.00323 6.87728
#
# Compressibility (1/GPa) = 0.01905562
#
# Stress axis : x y z
#
# Youngs Moduli (GPa) = 77.81114 99.28707 62.76544
#
# Poissons Ratio (x) = 0.42501 0.17844
# Poissons Ratio (y) = 0.33308 0.17427
# Poissons Ratio (z) = 0.22121 0.27567
#
# Static dielectric constant tensor:
#      x y z
#    x 3.625870 0.000000 0.000000 
#    y 0.000000 2.690580 0.000000 
#    z 0.000000 0.000000 3.718280 
# 
# 
# High freq. dielectric constant tensor:
#      x y z
#    x 1.768790 0.000000 0.000000 
#    y 0.000000 1.773350 0.000000 
#    z 0.000000 0.000000 1.781940 
# 
# From -- ./inp_files/33007.got.cif
#   From: 2010.03.12/outbox.cif.g09.slc.cpg/sg74_17_cif.got.tgz:33007.got - 2010.04.16 15:46:19.
