data_PCOD8300175
_publ_section_title
;
Structure prediction by ZEFSAII (Michael W. Deem and Ramdas Pophale) SiO2 
 PCOD8300175
Probable space group: I M M A
;
_chemical_formula_sum "Si O2"
_cell_formula_units_Z 88
_cell_length_a 8.404483
_cell_length_b 30.550240
_cell_length_c 17.813274
_cell_angle_alpha 90.000000
_cell_angle_beta 90.000000
_cell_angle_gamma 90.000000
_cell_volume 4573.717933
_symmetry_space_group_name_H-M "I M M A"
_symmetry_group_IT_number 74
_symmetry_cell_setting 'orthorhombic'
loop_
_space_group_symop_operation_xyz
x,y,z
-x,1/2-y,z
x,-y,-z
-x,1/2+y,-z
-x,-y,-z
x,1/2+y,-z
-x,y,z
x,1/2-y,z
1/2+x,1/2+y,1/2+z
1/2-x,-y,1/2+z
1/2+x,1/2-y,1/2-z
1/2-x,y,1/2-z
1/2-x,1/2-y,1/2-z
1/2+x,y,1/2-z
1/2-x,1/2+y,1/2+z
1/2+x,-y,1/2+z
loop_
_atom_site_type_symbol
_atom_site_label
_atom_site_fract_x
_atom_site_fract_y
_atom_site_fract_z
Si Si1 0.184430 0.922425 0.671420
Si Si2 0.187674 0.299327 0.668546
Si Si3 0.816585 0.161143 0.115339
Si Si4 0.187238 0.250000 0.333007
Si Si5 0.813229 0.134180 0.539526
Si Si6 0.686290 0.951213 0.514201
O O1 0.250000 0.941763 0.750000
O O2 0.213016 0.870120 0.669567
O O3 0.281329 0.941869 0.601689
O O4 0.000000 0.933933 0.663106
O O5 0.249154 0.250000 0.646594
O O6 0.250000 0.313045 0.750000
O O7 0.244701 0.337162 0.610887
O O8 0.000000 0.298695 0.671164
O O9 0.754038 0.209503 0.122296
O O10 0.000000 0.156788 0.138827
O O11 0.795068 0.149525 0.028804
O O12 0.250000 0.250000 0.250000
O O13 0.000000 0.250000 0.333897
O O14 0.777442 0.081873 0.543714
O O15 0.000000 0.141745 0.523961
O O16 0.500000 0.947188 0.497738
O O17 0.749954 0.000000 0.500000
#
# Coordination Sequence:
#
# PCOD8300175 Si02
#       6
#    16  16  16   8  16  16
#     4  11  21  36  58  82 109 143 181 224 273 326
#     4   9  19  35  55  81 112 148 187 230 280 333
#     4  11  22  36  53  78 108 142 184 224 267 320
#     4  12  24  38  52  72 105 142 181 224 268 312
#     4  10  20  35  57  83 110 146 185 227 278 332
#     4  10  21  38  59  83 112 145 183 232 285 337
#
# _framework density 19.240362999999999
#
# number of rings (size 3 to 8) (size 9 to 14) (size 15 to 20)
#    0.000    1.636    0.000    7.909    1.273    2.909 
#    0.000    0.909    0.000    2.182    0.000    0.000 
#    0.000    0.000    0.000    0.000    0.000    0.000 
#
# Total GULP energy -545490.237080 kJ/mol
# GULP energy per Si atom -12397.505388 kJ/mol
# Density = 1.919657 g / cm^3
# Si number density = 19.240363 Si / 1000 Ang^3
#
#
#
# Elastic Constant Matrix: (Units=GPa)
#
#
# Indices 1 2 3 4 5 6 
#
# 1 66.8538 13.5227 11.4801 -0.0001 0.0000 0.0000
# 2 13.5227 132.8700 47.8689 -0.0002 0.0000 0.0000
# 3 11.4801 47.8689 96.2569 -0.0008 -0.0001 0.0000
# 4 -0.0001 -0.0002 -0.0008 18.6860 0.0000 0.0000
# 5 0.0000 0.0000 -0.0001 0.0000 31.6559 -0.0001
# 6 0.0000 0.0000 0.0000 0.0000 -0.0001 28.7101
#
#
#
# Elastic Compliance Matrix: (Units=1/GPa)
#
#
# Indices 1 2 3 4 5 6 
#
# 1 0.015402 -0.001103 -0.001288 0.000000 0.000000 0.000000
# 2 -0.001103 0.009248 -0.004467 0.000000 0.000000 0.000000
# 3 -0.001288 -0.004467 0.012764 0.000001 0.000000 0.000000
# 4 0.000000 0.000000 0.000001 0.053516 0.000000 0.000000
# 5 0.000000 0.000000 0.000000 0.000000 0.031590 0.000000
# 6 0.000000 0.000000 0.000000 0.000000 0.000000 0.034831
#
#
# Mechanical properties :
#
#
# Convention : Reuss Voigt Hill
#
# Bulk Modulus (GPa) = 42.20065 49.08046 45.64056
# Shear Modulus (GPa) = 27.93794 30.68434 29.31114
#
# Velocity S-wave (km/s) = 3.81471 3.99781 3.90733
# Velocity P-wave (km/s) = 6.43302 6.84650 6.64297
#
# Compressibility (1/GPa) = 0.02369632
#
# Stress axis : x y z
#
# Youngs Moduli (GPa) = 64.92489 108.13231 78.34424
#
# Poissons Ratio (x) = 0.11932 0.10092
# Poissons Ratio (y) = 0.07164 0.35000
# Poissons Ratio (z) = 0.08364 0.48307
#
# Static dielectric constant tensor:
#      x y z
#    x 3.491370 0.000000 0.000000 
#    y 0.000000 3.736610 0.000000 
#    z 0.000000 0.000000 3.357910 
# 
# 
# High freq. dielectric constant tensor:
#      x y z
#    x 1.756840 0.000000 0.000000 
#    y 0.000000 1.746940 0.000000 
#    z 0.000000 0.000000 1.739920 
# 
# From -- ./inp_files/40063.got.cif
#   From: 2010.03.12/outbox.cif.g09.slc.cpg/sg74_21_cif.got.tgz:40063.got - 2010.04.16 15:46:19.
