data_PCOD8300790
_publ_section_title
;
Structure prediction by ZEFSAII (Michael W. Deem and Ramdas Pophale) SiO2 
 PCOD8300790
Probable space group: I M M A
;
_chemical_formula_sum "Si O2"
_cell_formula_units_Z 72
_cell_length_a 19.971996
_cell_length_b 9.160268
_cell_length_c 19.797381
_cell_angle_alpha 90.000000
_cell_angle_beta 90.000000
_cell_angle_gamma 90.000000
_cell_volume 3621.907807
_symmetry_space_group_name_H-M "I M M A"
_symmetry_group_IT_number 74
_symmetry_cell_setting 'orthorhombic'
loop_
_space_group_symop_operation_xyz
x,y,z
-x,1/2-y,z
x,-y,-z
-x,1/2+y,-z
-x,-y,-z
x,1/2+y,-z
-x,y,z
x,1/2-y,z
1/2+x,1/2+y,1/2+z
1/2-x,-y,1/2+z
1/2+x,1/2-y,1/2-z
1/2-x,y,1/2-z
1/2-x,1/2-y,1/2-z
1/2+x,y,1/2-z
1/2-x,1/2+y,1/2+z
1/2+x,-y,1/2+z
loop_
_atom_site_type_symbol
_atom_site_label
_atom_site_fract_x
_atom_site_fract_y
_atom_site_fract_z
Si Si1 0.817134 0.079001 0.787732
Si Si2 0.354847 0.081913 0.569455
Si Si3 0.920499 0.585397 0.435244
Si Si4 0.500000 0.083049 0.568094
Si Si5 0.922253 0.421428 0.300193
O O1 0.833253 0.250000 0.776719
O O2 0.750000 0.030581 0.750000
O O3 0.805983 0.044576 0.867825
O O4 0.878999 0.984657 0.760849
O O5 0.349909 0.250000 0.549257
O O6 0.428744 0.043626 0.602373
O O7 0.336703 0.000000 0.500000
O O8 0.890901 0.500000 0.500000
O O9 0.891182 0.750000 0.433563
O O10 0.897879 0.500281 0.368473
O O11 0.000000 0.590865 0.440349
O O12 0.500000 0.250000 0.548873
O O13 0.500000 0.000000 0.500000
O O14 0.909889 0.250000 0.308618
O O15 0.000000 0.455428 0.284951
#
# Coordination Sequence:
#
# PCOD8300790 Si02
#       5
#    16  16  16   8  16
#     4  10  22  39  58  81 113 152 191 233 285 347
#     4   9  18  33  55  81 110 143 183 230 281 339
#     4   9  16  28  49  77 109 144 181 228 282 332
#     4   8  14  26  46  76 106 134 167 214 271 326
#     4  10  21  36  55  82 112 145 189 237 286 344
#
# _framework density 19.879024999999999
#
# number of rings (size 3 to 8) (size 9 to 14) (size 15 to 20)
#    0.000    2.667    0.000    1.333    1.556    5.333 
#    0.000    1.111    0.000    2.667    0.000    0.000 
#    0.000    0.000    0.000    0.000    0.000    0.000 
#
# Total GULP energy -446050.368698 kJ/mol
# GULP energy per Si atom -12390.288019 kJ/mol
# Density = 1.983378 g / cm^3
# Si number density = 19.879025 Si / 1000 Ang^3
#
#
#
# Elastic Constant Matrix: (Units=GPa)
#
#
# Indices 1 2 3 4 5 6 
#
# 1 62.6649 36.6437 52.7792 0.0000 0.0000 0.0000
# 2 36.6437 96.6463 60.2604 0.0000 0.0000 0.0000
# 3 52.7792 60.2604 149.9286 0.0000 0.0000 0.0000
# 4 0.0000 0.0000 0.0000 36.7175 0.0000 0.0000
# 5 0.0000 0.0000 0.0000 0.0000 27.2062 0.0000
# 6 0.0000 0.0000 0.0000 0.0000 0.0000 15.6837
#
#
#
# Elastic Compliance Matrix: (Units=1/GPa)
#
#
# Indices 1 2 3 4 5 6 
#
# 1 0.024511 -0.005222 -0.006530 0.000000 0.000000 0.000000
# 2 -0.005222 0.014920 -0.004158 0.000000 0.000000 0.000000
# 3 -0.006530 -0.004158 0.010640 0.000000 0.000000 0.000000
# 4 0.000000 0.000000 0.000000 0.027235 0.000000 0.000000
# 5 0.000000 0.000000 0.000000 0.000000 0.036756 0.000000
# 6 0.000000 0.000000 0.000000 0.000000 0.000000 0.063761
#
#
# Mechanical properties :
#
#
# Convention : Reuss Voigt Hill
#
# Bulk Modulus (GPa) = 54.79314 67.62292 61.20803
# Shear Modulus (GPa) = 23.17751 26.55859 24.86805
#
# Velocity S-wave (km/s) = 3.41827 3.65911 3.54074
# Velocity P-wave (km/s) = 6.57287 7.20716 6.89731
#
# Compressibility (1/GPa) = 0.01825046
#
# Stress axis : x y z
#
# Youngs Moduli (GPa) = 40.79770 67.02518 93.98637
#
# Poissons Ratio (x) = 0.35001 0.61371
# Poissons Ratio (y) = 0.21305 0.39083
# Poissons Ratio (z) = 0.26640 0.27871
#
# Static dielectric constant tensor:
#      x y z
#    x 3.283570 0.000000 0.000000 
#    y 0.000000 3.629060 0.000000 
#    z 0.000000 0.000000 3.558280 
# 
# 
# High freq. dielectric constant tensor:
#      x y z
#    x 1.745050 0.000000 0.000000 
#    y 0.000000 1.775080 0.000000 
#    z 0.000000 0.000000 1.777940 
# 
# From -- ./inp_files/39485.got.cif
#   From: 2010.03.12/outbox.cif.g09.slc.cpg/sg74_20_cif.got.tgz:39485.got - 2010.04.16 15:46:19.
