data_PCOD8300204
_publ_section_title
;
Structure prediction by ZEFSAII (Michael W. Deem and Ramdas Pophale) SiO2 
 PCOD8300204
Probable space group: I M M A
;
_chemical_formula_sum "Si O2"
_cell_formula_units_Z 64
_cell_length_a 14.997295
_cell_length_b 14.739157
_cell_length_c 14.439123
_cell_angle_alpha 90.000000
_cell_angle_beta 90.000000
_cell_angle_gamma 90.000000
_cell_volume 3191.731833
_symmetry_space_group_name_H-M "I M M A"
_symmetry_group_IT_number 74
_symmetry_cell_setting 'orthorhombic'
loop_
_space_group_symop_operation_xyz
x,y,z
-x,1/2-y,z
x,-y,-z
-x,1/2+y,-z
-x,-y,-z
x,1/2+y,-z
-x,y,z
x,1/2-y,z
1/2+x,1/2+y,1/2+z
1/2-x,-y,1/2+z
1/2+x,1/2-y,1/2-z
1/2-x,y,1/2-z
1/2-x,1/2-y,1/2-z
1/2+x,y,1/2-z
1/2-x,1/2+y,1/2+z
1/2+x,-y,1/2+z
loop_
_atom_site_type_symbol
_atom_site_label
_atom_site_fract_x
_atom_site_fract_y
_atom_site_fract_z
Si Si1 0.598607 0.563267 0.087365
Si Si2 0.345018 0.987861 0.726337
Si Si3 0.784713 0.353731 0.902213
Si Si4 0.599277 0.852496 0.575135
O O1 0.500000 0.608864 0.079025
O O2 0.598987 0.502942 0.180539
O O3 0.677570 0.637025 0.090667
O O4 0.617219 0.500000 0.000000
O O5 0.250000 0.942274 0.750000
O O6 0.326647 0.084900 0.677858
O O7 0.398327 0.919041 0.662235
O O8 0.808747 0.250000 0.878609
O O9 0.829194 0.383824 0.998992
O O10 0.500000 0.858442 0.531783
O O11 0.619776 0.750000 0.608403
#
# Coordination Sequence:
#
# PCOD8300204 Si02
#       4
#    16  16  16  16
#     4  10  21  37  56  79 110 150 192 229 269 322
#     4  10  20  35  58  83 111 147 183 226 277 327
#     4  10  21  37  57  84 115 145 182 228 277 330
#     4  10  21  37  59  87 114 141 179 228 282 337
#
# _framework density 20.05181
#
# number of rings (size 3 to 8) (size 9 to 14) (size 15 to 20)
#    0.000    2.000    0.000    4.500    0.000    8.500 
#    0.000    1.250    0.000    1.500    0.000    0.000 
#    0.000    0.000    0.000    0.000    0.000    0.000 
#
# Total GULP energy -396772.230720 kJ/mol
# GULP energy per Si atom -12399.132210 kJ/mol
# Density = 2.000617 g / cm^3
# Si number density = 20.051810 Si / 1000 Ang^3
#
#
#
# Elastic Constant Matrix: (Units=GPa)
#
#
# Indices 1 2 3 4 5 6 
#
# 1 106.3285 33.3115 39.7332 0.0000 0.0000 0.0000
# 2 33.3115 73.9457 48.4301 0.0000 0.0000 0.0000
# 3 39.7332 48.4301 130.3528 0.0000 0.0000 0.0000
# 4 0.0000 0.0000 0.0000 11.7765 0.0000 0.0000
# 5 0.0000 0.0000 0.0000 0.0000 -12.6709 0.0000
# 6 0.0000 0.0000 0.0000 0.0000 0.0000 8.6660
#
#
#
# Elastic Compliance Matrix: (Units=1/GPa)
#
#
# Indices 1 2 3 4 5 6 
#
# 1 0.011355 -0.003764 -0.002063 0.000000 0.000000 0.000000
# 2 -0.003764 0.019120 -0.005956 0.000000 0.000000 0.000000
# 3 -0.002063 -0.005956 0.010513 0.000000 0.000000 0.000000
# 4 0.000000 0.000000 0.000000 0.084915 0.000000 0.000000
# 5 0.000000 0.000000 0.000000 0.000000 -0.078921 0.000000
# 6 0.000000 0.000000 0.000000 0.000000 0.000000 0.115394
#
#
# Mechanical properties :
#
#
# Convention : Reuss Voigt Hill
#
# Bulk Modulus (GPa) = 57.39933 61.50850 59.45392
# Shear Modulus (GPa) = 26.07567 14.16447 20.12007
#
# Velocity S-wave (km/s) = 3.61004 2.66069 3.17109
# Velocity P-wave (km/s) = 6.78706 6.33880 6.56676
#
# Compressibility (1/GPa) = 0.01742180
#
# Stress axis : x y z
#
# Youngs Moduli (GPa) = 88.06789 52.30048 95.11904
#
# Poissons Ratio (x) = 0.19688 0.19619
# Poissons Ratio (y) = 0.33152 0.56656
# Poissons Ratio (z) = 0.18164 0.31152
#
# Static dielectric constant tensor:
#      x y z
#    x 3.846780 0.000000 0.000000 
#    y 0.000000 3.352390 0.000000 
#    z 0.000000 0.000000 3.710440 
# 
# 
# High freq. dielectric constant tensor:
#      x y z
#    x 1.796150 0.000000 0.000000 
#    y 0.000000 1.760410 0.000000 
#    z 0.000000 0.000000 1.788570 
# 
# From -- ./inp_files/19907.got.cif
#   From: 2010.03.12/outbox.cif.g09.slc.cpg/sg74_10_cif.got.tgz:19907.got - 2010.04.16 15:46:19.
