data_PCOD8300223
_publ_section_title
;
Structure prediction by ZEFSAII (Michael W. Deem and Ramdas Pophale) SiO2 
 PCOD8300223
Probable space group: I M M A
;
_chemical_formula_sum "Si O2"
_cell_formula_units_Z 96
_cell_length_a 19.191186
_cell_length_b 19.074097
_cell_length_c 12.532040
_cell_angle_alpha 90.000000
_cell_angle_beta 90.000000
_cell_angle_gamma 90.000000
_cell_volume 4587.410179
_symmetry_space_group_name_H-M "I M M A"
_symmetry_group_IT_number 74
_symmetry_cell_setting 'orthorhombic'
loop_
_space_group_symop_operation_xyz
x,y,z
-x,1/2-y,z
x,-y,-z
-x,1/2+y,-z
-x,-y,-z
x,1/2+y,-z
-x,y,z
x,1/2-y,z
1/2+x,1/2+y,1/2+z
1/2-x,-y,1/2+z
1/2+x,1/2-y,1/2-z
1/2-x,y,1/2-z
1/2-x,1/2-y,1/2-z
1/2+x,y,1/2-z
1/2-x,1/2+y,1/2+z
1/2+x,-y,1/2+z
loop_
_atom_site_type_symbol
_atom_site_label
_atom_site_fract_x
_atom_site_fract_y
_atom_site_fract_z
Si Si1 0.420216 0.044419 0.692207
Si Si2 0.713293 0.670868 0.641485
Si Si3 0.579476 0.170384 0.057629
Si Si4 0.643459 0.938298 0.083894
Si Si5 0.704729 0.928630 0.446692
Si Si6 0.077301 0.616674 0.787592
O O1 0.500000 0.067045 0.663530
O O2 0.407885 0.055100 0.816893
O O3 0.363057 0.090803 0.625841
O O4 0.409700 0.961856 0.669923
O O5 0.738911 0.750000 0.622665
O O6 0.750000 0.640381 0.750000
O O7 0.729939 0.626788 0.536008
O O8 0.630058 0.668503 0.653731
O O9 0.500000 0.169231 0.018811
O O10 0.603996 0.250000 0.081343
O O11 0.589707 0.122228 0.161461
O O12 0.627592 0.137475 0.966928
O O13 0.724543 0.940563 0.122051
O O14 0.627130 0.000000 0.000000
O O15 0.680707 0.000000 0.500000
O O16 0.000000 0.642448 0.817042
#
# Coordination Sequence:
#
# PCOD8300223 Si02
#       6
#    16  16  16  16  16  16
#     4  11  23  39  62  92 125 164 215 262 314 381
#     4  11  24  41  64  93 125 161 206 260 320 386
#     4  10  20  35  58  92 129 162 203 260 323 376
#     4  11  22  37  62  89 123 165 214 267 316 376
#     4  11  24  39  61  90 126 164 207 259 321 381
#     4  10  20  35  59  89 123 157 200 260 315 374
#
# _framework density 20.926839999999999
#
# number of rings (size 3 to 8) (size 9 to 14) (size 15 to 20)
#    0.000    1.333    3.333    2.500    2.333    4.667 
#    0.000    0.833    0.000    3.000    0.000    0.000 
#    0.000    0.000    0.000    0.000    0.000    0.000 
#
# Total GULP energy -594954.167317 kJ/mol
# GULP energy per Si atom -12394.878486 kJ/mol
# Density = 2.087921 g / cm^3
# Si number density = 20.926840 Si / 1000 Ang^3
#
#
#
# Elastic Constant Matrix: (Units=GPa)
#
#
# Indices 1 2 3 4 5 6 
#
# 1 106.0803 17.8689 29.8440 0.0000 0.0000 0.0000
# 2 17.8689 65.7608 27.4045 0.0000 0.0000 0.0000
# 3 29.8440 27.4045 65.0371 0.0000 0.0000 0.0000
# 4 0.0000 0.0000 0.0000 29.5514 0.0000 0.0000
# 5 0.0000 0.0000 0.0000 0.0000 35.4787 0.0000
# 6 0.0000 0.0000 0.0000 0.0000 0.0000 5.0482
#
#
#
# Elastic Compliance Matrix: (Units=1/GPa)
#
#
# Indices 1 2 3 4 5 6 
#
# 1 0.010885 -0.001063 -0.004547 0.000000 0.000000 0.000000
# 2 -0.001063 0.018549 -0.007328 0.000000 0.000000 0.000000
# 3 -0.004547 -0.007328 0.020550 0.000000 0.000000 0.000000
# 4 0.000000 0.000000 0.000000 0.033839 0.000000 0.000000
# 5 0.000000 0.000000 0.000000 0.000000 0.028186 0.000000
# 6 0.000000 0.000000 0.000000 0.000000 0.000000 0.198092
#
#
# Mechanical properties :
#
#
# Convention : Reuss Voigt Hill
#
# Bulk Modulus (GPa) = 41.47970 43.01258 42.24614
# Shear Modulus (GPa) = 14.53428 24.79970 19.66699
#
# Velocity S-wave (km/s) = 2.63825 3.44621 3.06894
# Velocity P-wave (km/s) = 5.39859 6.03603 5.72619
#
# Compressibility (1/GPa) = 0.02410818
#
# Stress axis : x y z
#
# Youngs Moduli (GPa) = 91.86864 53.91010 48.66105
#
# Poissons Ratio (x) = 0.05730 0.22126
# Poissons Ratio (y) = 0.09764 0.35661
# Poissons Ratio (z) = 0.41773 0.39507
#
# Static dielectric constant tensor:
#      x y z
#    x 4.023070 0.000000 0.000000 
#    y 0.000000 3.545870 0.000000 
#    z 0.000000 0.000000 3.592090 
# 
# 
# High freq. dielectric constant tensor:
#      x y z
#    x 1.844760 0.000000 0.000000 
#    y 0.000000 1.790010 0.000000 
#    z 0.000000 0.000000 1.796250 
# 
# From -- ./inp_files/23921.got.cif
#   From: 2010.03.12/outbox.cif.g09.slc.cpg/sg74_12_cif.got.tgz:23921.got - 2010.04.16 15:46:19.
