data_PCOD8300395
_publ_section_title
;
Structure prediction by ZEFSAII (Michael W. Deem and Ramdas Pophale) SiO2 
 PCOD8300395
Probable space group: I M M A
;
_chemical_formula_sum "Si O2"
_cell_formula_units_Z 72
_cell_length_a 21.919718
_cell_length_b 8.798527
_cell_length_c 19.226818
_cell_angle_alpha 90.000000
_cell_angle_beta 90.000000
_cell_angle_gamma 90.000000
_cell_volume 3708.107781
_symmetry_space_group_name_H-M "I M M A"
_symmetry_group_IT_number 74
_symmetry_cell_setting 'orthorhombic'
loop_
_space_group_symop_operation_xyz
x,y,z
-x,1/2-y,z
x,-y,-z
-x,1/2+y,-z
-x,-y,-z
x,1/2+y,-z
-x,y,z
x,1/2-y,z
1/2+x,1/2+y,1/2+z
1/2-x,-y,1/2+z
1/2+x,1/2-y,1/2-z
1/2-x,y,1/2-z
1/2-x,1/2-y,1/2-z
1/2+x,y,1/2-z
1/2-x,1/2+y,1/2+z
1/2+x,-y,1/2+z
loop_
_atom_site_type_symbol
_atom_site_label
_atom_site_fract_x
_atom_site_fract_y
_atom_site_fract_z
Si Si1 0.147330 0.428912 0.926564
Si Si2 0.929024 0.424548 0.189594
Si Si3 0.000000 0.927264 0.424956
Si Si4 0.225504 0.927772 0.572604
Si Si5 0.107263 0.574920 0.657727
O O1 0.153257 0.250000 0.935262
O O2 0.095879 0.467402 0.870531
O O3 0.211899 0.496642 0.901468
O O4 0.127555 0.500000 0.000000
O O5 0.917764 0.250000 0.168244
O O6 0.894176 0.464664 0.260840
O O7 0.000000 0.458708 0.200788
O O8 0.000000 0.750000 0.436135
O O9 0.000000 0.000000 0.500000
O O10 0.939836 0.972040 0.383393
O O11 0.236628 0.750000 0.560900
O O12 0.175144 0.959786 0.631056
O O13 0.203436 0.000000 0.500000
O O14 0.088714 0.750000 0.645326
#
# Coordination Sequence:
#
# PCOD8300395 Si02
#       5
#    16  16   8  16  16
#     4  11  23  40  62  87 118 151 194 244 296 355
#     4  10  21  40  64  86 117 156 195 241 293 351
#     4  12  24  36  56  84 119 160 203 246 288 342
#     4  10  20  36  60  87 118 154 197 243 292 347
#     4  10  21  39  61  86 118 157 198 241 291 350
#
# _framework density 19.416910999999999
#
# number of rings (size 3 to 8) (size 9 to 14) (size 15 to 20)
#    0.000    1.556    1.111    5.667    0.000    6.222 
#    0.000    4.444    0.000    0.000    0.000    0.000 
#    0.000    0.000    0.000    0.000    0.000    0.000 
#
# Total GULP energy -446593.219757 kJ/mol
# GULP energy per Si atom -12405.367215 kJ/mol
# Density = 1.937272 g / cm^3
# Si number density = 19.416911 Si / 1000 Ang^3
#
#
#
# Elastic Constant Matrix: (Units=GPa)
#
#
# Indices 1 2 3 4 5 6 
#
# 1 79.9977 40.6396 59.7532 0.0000 0.0000 0.0000
# 2 40.6396 127.7426 52.6791 0.0000 0.0000 0.0000
# 3 59.7532 52.6791 118.8854 0.0000 0.0000 0.0000
# 4 0.0000 0.0000 0.0000 31.9223 0.0000 0.0000
# 5 0.0000 0.0000 0.0000 0.0000 41.7841 0.0000
# 6 0.0000 0.0000 0.0000 0.0000 0.0000 32.1996
#
#
#
# Elastic Compliance Matrix: (Units=1/GPa)
#
#
# Indices 1 2 3 4 5 6 
#
# 1 0.020814 -0.002824 -0.009210 0.000000 0.000000 0.000000
# 2 -0.002824 0.009962 -0.002995 0.000000 0.000000 0.000000
# 3 -0.009210 -0.002995 0.014368 0.000000 0.000000 0.000000
# 4 0.000000 0.000000 0.000000 0.031326 0.000000 0.000000
# 5 0.000000 0.000000 0.000000 0.000000 0.023933 0.000000
# 6 0.000000 0.000000 0.000000 0.000000 0.000000 0.031056
#
#
# Mechanical properties :
#
#
# Convention : Reuss Voigt Hill
#
# Bulk Modulus (GPa) = 66.28672 70.30773 68.29722
# Shear Modulus (GPa) = 30.02193 32.75145 31.38669
#
# Velocity S-wave (km/s) = 3.93641 4.11146 4.02489
# Velocity P-wave (km/s) = 7.40764 7.66987 7.53990
#
# Compressibility (1/GPa) = 0.01508598
#
# Stress axis : x y z
#
# Youngs Moduli (GPa) = 48.04379 100.38580 69.60024
#
# Poissons Ratio (x) = 0.28345 0.64105
# Poissons Ratio (y) = 0.13566 0.20844
# Poissons Ratio (z) = 0.44250 0.30064
#
# Static dielectric constant tensor:
#      x y z
#    x 3.539280 0.000000 0.000000 
#    y 0.000000 3.643560 0.000000 
#    z 0.000000 0.000000 3.515700 
# 
# 
# High freq. dielectric constant tensor:
#      x y z
#    x 1.759780 0.000000 0.000000 
#    y 0.000000 1.759650 0.000000 
#    z 0.000000 0.000000 1.760140 
# 
# From -- ./inp_files/39428.got.cif
#   From: 2010.03.12/outbox.cif.g09.slc.cpg/sg74_20_cif.got.tgz:39428.got - 2010.04.16 15:46:19.
