data_PCOD8300977
_publ_section_title
;
Structure prediction by ZEFSAII (Michael W. Deem and Ramdas Pophale) SiO2 
 PCOD8300977
Probable space group: I M M A
;
_chemical_formula_sum "Si O2"
_cell_formula_units_Z 96
_cell_length_a 23.491291
_cell_length_b 8.850083
_cell_length_c 23.934495
_cell_angle_alpha 90.000000
_cell_angle_beta 90.000000
_cell_angle_gamma 90.000000
_cell_volume 4975.978522
_symmetry_space_group_name_H-M "I M M A"
_symmetry_group_IT_number 74
_symmetry_cell_setting 'orthorhombic'
loop_
_space_group_symop_operation_xyz
x,y,z
-x,1/2-y,z
x,-y,-z
-x,1/2+y,-z
-x,-y,-z
x,1/2+y,-z
-x,y,z
x,1/2-y,z
1/2+x,1/2+y,1/2+z
1/2-x,-y,1/2+z
1/2+x,1/2-y,1/2-z
1/2-x,y,1/2-z
1/2-x,1/2-y,1/2-z
1/2+x,y,1/2-z
1/2-x,1/2+y,1/2+z
1/2+x,-y,1/2+z
loop_
_atom_site_type_symbol
_atom_site_label
_atom_site_fract_x
_atom_site_fract_y
_atom_site_fract_z
Si Si1 0.733362 0.425310 0.152250
Si Si2 0.662508 0.072798 0.942481
Si Si3 0.631594 0.576691 0.769833
Si Si4 0.935208 0.073610 0.379844
Si Si5 0.145397 0.072696 0.840495
Si Si6 0.564767 0.071962 0.557851
O O1 0.730161 0.250000 0.134933
O O2 0.708680 0.526161 0.102962
O O3 0.696109 0.451593 0.208242
O O4 0.797710 0.474377 0.161063
O O5 0.661859 0.250000 0.949256
O O6 0.599563 0.017021 0.926280
O O7 0.682329 0.000000 0.000000
O O8 0.624378 0.750000 0.750718
O O9 0.587280 0.534501 0.818285
O O10 0.615594 0.466979 0.718390
O O11 0.926904 0.250000 0.392151
O O12 0.000000 0.021510 0.384298
O O13 0.158775 0.250000 0.844496
O O14 0.105078 0.019189 0.891334
O O15 0.500000 0.018704 0.570448
O O16 0.567515 0.250000 0.550820
O O17 0.587040 0.000000 0.500000
#
# Coordination Sequence:
#
# PCOD8300977 Si02
#       6
#    16  16  16  16  16  16
#     4  10  21  38  57  78 109 145 181 225 273 320
#     4  11  22  37  57  81 110 144 184 228 275 326
#     4   9  19  35  54  78 109 145 182 221 267 318
#     4   9  19  37  58  80 110 147 186 229 275 322
#     4  11  22  34  54  84 112 140 178 222 269 326
#     4   9  20  39  58  77 105 139 174 216 265 314
#
# _framework density 19.292687000000001
#
# number of rings (size 3 to 8) (size 9 to 14) (size 15 to 20)
#    0.000    2.167    0.000    4.000    0.000    8.667 
#    0.000    1.667    0.000    0.000    0.000    0.000 
#    0.000    0.000    0.000    0.000    0.000    0.000 
#
# Total GULP energy -595292.551867 kJ/mol
# GULP energy per Si atom -12401.928164 kJ/mol
# Density = 1.924878 g / cm^3
# Si number density = 19.292687 Si / 1000 Ang^3
#
#
#
# Elastic Constant Matrix: (Units=GPa)
#
#
# Indices 1 2 3 4 5 6 
#
# 1 33.6705 15.6699 11.3819 0.0000 0.0000 0.0000
# 2 15.6699 70.2970 34.2131 0.0000 0.0000 0.0000
# 3 11.3819 34.2131 104.9712 0.0000 0.0000 0.0000
# 4 0.0000 0.0000 0.0000 38.1207 0.0000 0.0000
# 5 0.0000 0.0000 0.0000 0.0000 20.4425 0.0000
# 6 0.0000 0.0000 0.0000 0.0000 0.0000 28.5854
#
#
#
# Elastic Compliance Matrix: (Units=1/GPa)
#
#
# Indices 1 2 3 4 5 6 
#
# 1 0.033313 -0.006736 -0.001417 0.000000 0.000000 0.000000
# 2 -0.006736 0.018270 -0.005224 0.000000 0.000000 0.000000
# 3 -0.001417 -0.005224 0.011383 0.000000 0.000000 0.000000
# 4 0.000000 0.000000 0.000000 0.026232 0.000000 0.000000
# 5 0.000000 0.000000 0.000000 0.000000 0.048918 0.000000
# 6 0.000000 0.000000 0.000000 0.000000 0.000000 0.034983
#
#
# Mechanical properties :
#
#
# Convention : Reuss Voigt Hill
#
# Bulk Modulus (GPa) = 27.61559 36.82983 32.22271
# Shear Modulus (GPa) = 23.59341 27.27463 25.43402
#
# Velocity S-wave (km/s) = 3.50082 3.76404 3.63481
# Velocity P-wave (km/s) = 5.53950 6.16621 5.86124
#
# Compressibility (1/GPa) = 0.03621143
#
# Stress axis : x y z
#
# Youngs Moduli (GPa) = 30.01788 54.73596 87.85259
#
# Poissons Ratio (x) = 0.36873 0.12445
# Poissons Ratio (y) = 0.20221 0.45895
# Poissons Ratio (z) = 0.04252 0.28595
#
# Static dielectric constant tensor:
#      x y z
#    x 3.545190 0.000000 0.000000 
#    y 0.000000 3.422170 0.000000 
#    z 0.000000 0.000000 3.599420 
# 
# 
# High freq. dielectric constant tensor:
#      x y z
#    x 1.746190 0.000000 0.000000 
#    y 0.000000 1.748940 0.000000 
#    z 0.000000 0.000000 1.756800 
# 
# From -- ./inp_files/61920.got.cif
#   From: 2010.03.12/outbox.cif.g09.slc.cpg/sg74_31_cif.got.tgz:61920.got - 2010.04.16 15:46:19.
