data_PCOD8300447
_publ_section_title
;
Structure prediction by ZEFSAII (Michael W. Deem and Ramdas Pophale) SiO2 
 PCOD8300447
Probable space group: I M M A
;
_chemical_formula_sum "Si O2"
_cell_formula_units_Z 64
_cell_length_a 14.074979
_cell_length_b 13.433293
_cell_length_c 16.053420
_cell_angle_alpha 90.000000
_cell_angle_beta 90.000000
_cell_angle_gamma 90.000000
_cell_volume 3035.273367
_symmetry_space_group_name_H-M "I M M A"
_symmetry_group_IT_number 74
_symmetry_cell_setting 'orthorhombic'
loop_
_space_group_symop_operation_xyz
x,y,z
-x,1/2-y,z
x,-y,-z
-x,1/2+y,-z
-x,-y,-z
x,1/2+y,-z
-x,y,z
x,1/2-y,z
1/2+x,1/2+y,1/2+z
1/2-x,-y,1/2+z
1/2+x,1/2-y,1/2-z
1/2-x,y,1/2-z
1/2-x,1/2-y,1/2-z
1/2+x,y,1/2-z
1/2-x,1/2+y,1/2+z
1/2+x,-y,1/2+z
loop_
_atom_site_type_symbol
_atom_site_label
_atom_site_fract_x
_atom_site_fract_y
_atom_site_fract_z
Si Si1 0.781544 0.866907 0.126586
Si Si2 0.105294 0.438711 0.715507
Si Si3 0.645388 0.640754 0.716747
Si Si4 0.606589 0.132807 0.468685
O O1 0.762917 0.750000 0.118090
O O2 0.852928 0.885776 0.202818
O O3 0.678907 0.919110 0.140241
O O4 0.828942 0.913055 0.042877
O O5 0.091820 0.557262 0.729975
O O6 0.000000 0.395870 0.695009
O O7 0.595016 0.750000 0.723805
O O8 0.750000 0.649553 0.750000
O O9 0.649835 0.604860 0.620939
O O10 0.500000 0.089578 0.475339
O O11 0.604531 0.250000 0.481581
#
# Coordination Sequence:
#
# PCOD8300447 Si02
#       4
#    16  16  16  16
#     4  10  21  37  55  84 119 151 191 239 284 333
#     4  11  21  35  56  85 116 151 192 230 283 347
#     4  10  20  37  59  84 117 152 185 232 289 344
#     4   9  18  34  59  88 114 145 189 239 288 335
#
# _framework density 21.085415000000001
#
# number of rings (size 3 to 8) (size 9 to 14) (size 15 to 20)
#    0.000    2.000    2.500    3.000    0.000    5.500 
#    0.000    2.500    0.000    4.500    0.000   14.000 
#    0.000    0.000    0.000    0.000    0.000    0.000 
#
# Total GULP energy -396629.186380 kJ/mol
# GULP energy per Si atom -12394.662074 kJ/mol
# Density = 2.103742 g / cm^3
# Si number density = 21.085415 Si / 1000 Ang^3
#
#
#
# Elastic Constant Matrix: (Units=GPa)
#
#
# Indices 1 2 3 4 5 6 
#
# 1 190.0214 15.7426 87.8820 0.0000 0.0000 0.0000
# 2 15.7426 74.3374 28.5945 0.0000 0.0000 0.0000
# 3 87.8820 28.5945 118.7023 0.0000 0.0000 0.0000
# 4 0.0000 0.0000 0.0000 20.1710 0.0000 0.0000
# 5 0.0000 0.0000 0.0000 0.0000 22.6325 0.0000
# 6 0.0000 0.0000 0.0000 0.0000 0.0000 61.5846
#
#
#
# Elastic Compliance Matrix: (Units=1/GPa)
#
#
# Indices 1 2 3 4 5 6 
#
# 1 0.008031 0.000646 -0.006101 0.000000 0.000000 0.000000
# 2 0.000646 0.014878 -0.004062 0.000000 0.000000 0.000000
# 3 -0.006101 -0.004062 0.013920 0.000000 0.000000 0.000000
# 4 0.000000 0.000000 0.000000 0.049576 0.000000 0.000000
# 5 0.000000 0.000000 0.000000 0.000000 0.044184 0.000000
# 6 0.000000 0.000000 0.000000 0.000000 0.000000 0.016238
#
#
# Mechanical properties :
#
#
# Convention : Reuss Voigt Hill
#
# Bulk Modulus (GPa) = 56.19900 71.94436 64.07168
# Shear Modulus (GPa) = 29.10471 37.60043 33.35257
#
# Velocity S-wave (km/s) = 3.71930 4.22743 3.98148
# Velocity P-wave (km/s) = 6.71976 7.61726 7.18254
#
# Compressibility (1/GPa) = 0.01779391
#
# Stress axis : x y z
#
# Youngs Moduli (GPa) = 124.52072 67.21348 71.83810
#
# Poissons Ratio (x) = -0.04344 0.43831
# Poissons Ratio (y) = -0.08047 0.29184
# Poissons Ratio (z) = 0.75974 0.27305
#
# Static dielectric constant tensor:
#      x y z
#    x 3.835560 0.000000 0.000000 
#    y 0.000000 4.329770 0.000000 
#    z 0.000000 0.000000 3.812150 
# 
# 
# High freq. dielectric constant tensor:
#      x y z
#    x 1.819450 0.000000 0.000000 
#    y 0.000000 1.848650 0.000000 
#    z 0.000000 0.000000 1.800870 
# 
# From -- ./inp_files/31690.got.cif
#   From: 2010.03.12/outbox.cif.g09.slc.cpg/sg74_16_cif.got.tgz:31690.got - 2010.04.16 15:46:19.
