data_PCOD8300062
_publ_section_title
;
Structure prediction by ZEFSAII (Michael W. Deem and Ramdas Pophale) SiO2 
 PCOD8300062
Probable space group: I M M A
;
_chemical_formula_sum "Si O2"
_cell_formula_units_Z 88
_cell_length_a 30.672113
_cell_length_b 8.771105
_cell_length_c 17.905358
_cell_angle_alpha 90.000000
_cell_angle_beta 90.000000
_cell_angle_gamma 90.000000
_cell_volume 4817.048448
_symmetry_space_group_name_H-M "I M M A"
_symmetry_group_IT_number 74
_symmetry_cell_setting 'orthorhombic'
loop_
_space_group_symop_operation_xyz
x,y,z
-x,1/2-y,z
x,-y,-z
-x,1/2+y,-z
-x,-y,-z
x,1/2+y,-z
-x,y,z
x,1/2-y,z
1/2+x,1/2+y,1/2+z
1/2-x,-y,1/2+z
1/2+x,1/2-y,1/2-z
1/2-x,y,1/2-z
1/2-x,1/2-y,1/2-z
1/2+x,y,1/2-z
1/2-x,1/2+y,1/2+z
1/2+x,-y,1/2+z
loop_
_atom_site_type_symbol
_atom_site_label
_atom_site_fract_x
_atom_site_fract_y
_atom_site_fract_z
Si Si1 0.049577 0.568203 0.920079
Si Si2 0.798373 0.570895 0.723017
Si Si3 0.882690 0.079977 0.200050
Si Si4 0.083755 0.577957 0.634621
Si Si5 0.500000 0.427616 0.919728
Si Si6 0.331177 0.430757 0.923804
O O1 0.051890 0.750000 0.923120
O O2 0.085504 0.499776 0.861143
O O3 0.000000 0.518175 0.897702
O O4 0.062231 0.500000 0.000000
O O5 0.808049 0.750000 0.708618
O O6 0.750000 0.539840 0.750000
O O7 0.834146 0.508427 0.784196
O O8 0.801536 0.481775 0.645425
O O9 0.875287 0.250000 0.170053
O O10 0.906955 0.078469 0.278266
O O11 0.077467 0.750000 0.604515
O O12 0.120764 0.498379 0.585847
O O13 0.041040 0.479431 0.627223
O O14 0.500000 0.250000 0.929770
O O15 0.500000 0.500000 0.000000
O O16 0.332688 0.250000 0.928748
O O17 0.311037 0.500000 0.000000
#
# Coordination Sequence:
#
# PCOD8300062 Si02
#       6
#    16  16  16  16   8  16
#     4   9  17  30  49  72 100 133 170 210 254 308
#     4   9  18  35  57  79 105 137 174 219 270 324
#     4   8  16  31  53  76  98 131 173 209 254 314
#     4  10  20  35  54  75 100 135 177 217 260 309
#     4  12  24  36  48  70 103 138 173 212 257 302
#     4  11  21  35  55  78 106 137 175 218 264 317
#
# _framework density 18.268446999999998
#
# number of rings (size 3 to 8) (size 9 to 14) (size 15 to 20)
#    0.000    2.364    0.000    4.636    1.273    0.364 
#    0.000    5.455    0.000    2.182    0.000    0.000 
#    0.000    0.000    0.000    0.000    0.000    0.000 
#
# Total GULP energy -545306.816419 kJ/mol
# GULP energy per Si atom -12393.336737 kJ/mol
# Density = 1.822687 g / cm^3
# Si number density = 18.268447 Si / 1000 Ang^3
#
#
#
# Elastic Constant Matrix: (Units=GPa)
#
#
# Indices 1 2 3 4 5 6 
#
# 1 132.4388 38.6311 66.0106 0.0000 0.0000 0.0000
# 2 38.6311 99.0528 34.9648 0.0000 0.0000 0.0000
# 3 66.0106 34.9648 108.9871 0.0000 0.0000 0.0000
# 4 0.0000 0.0000 0.0000 28.6450 0.0000 0.0000
# 5 0.0000 0.0000 0.0000 0.0000 17.2233 0.0000
# 6 0.0000 0.0000 0.0000 0.0000 0.0000 20.9727
#
#
#
# Elastic Compliance Matrix: (Units=1/GPa)
#
#
# Indices 1 2 3 4 5 6 
#
# 1 0.011237 -0.002233 -0.006090 0.000000 0.000000 0.000000
# 2 -0.002233 0.011829 -0.002442 0.000000 0.000000 0.000000
# 3 -0.006090 -0.002442 0.013647 0.000000 0.000000 0.000000
# 4 0.000000 0.000000 0.000000 0.034910 0.000000 0.000000
# 5 0.000000 0.000000 0.000000 0.000000 0.058061 0.000000
# 6 0.000000 0.000000 0.000000 0.000000 0.000000 0.047681
#
#
# Mechanical properties :
#
#
# Convention : Reuss Voigt Hill
#
# Bulk Modulus (GPa) = 65.86276 68.85465 67.35871
# Shear Modulus (GPa) = 24.51503 26.75967 25.63735
#
# Velocity S-wave (km/s) = 3.66721 3.83143 3.75022
# Velocity P-wave (km/s) = 7.35271 7.57267 7.46350
#
# Compressibility (1/GPa) = 0.01518309
#
# Stress axis : x y z
#
# Youngs Moduli (GPa) = 88.98961 84.54065 73.27431
#
# Poissons Ratio (x) = 0.18878 0.44622
# Poissons Ratio (y) = 0.19871 0.17896
# Poissons Ratio (z) = 0.54192 0.20648
#
# Static dielectric constant tensor:
#      x y z
#    x 3.448840 0.000000 0.000000 
#    y 0.000000 2.866610 0.000000 
#    z 0.000000 0.000000 3.416890 
# 
# 
# High freq. dielectric constant tensor:
#      x y z
#    x 1.707300 0.000000 0.000000 
#    y 0.000000 1.691820 0.000000 
#    z 0.000000 0.000000 1.706600 
# 
# From -- ./inp_files/47007.got.cif
#   From: 2010.03.12/outbox.cif.g09.slc.cpg/sg74_24_cif.got.tgz:47007.got - 2010.04.16 15:46:19.
