data_PCOD8300898
_publ_section_title
;
Structure prediction by ZEFSAII (Michael W. Deem and Ramdas Pophale) SiO2 
 PCOD8300898
Probable space group: I M M A
;
_chemical_formula_sum "Si O2"
_cell_formula_units_Z 56
_cell_length_a 15.463326
_cell_length_b 8.689761
_cell_length_c 19.892611
_cell_angle_alpha 90.000000
_cell_angle_beta 90.000000
_cell_angle_gamma 90.000000
_cell_volume 2673.022004
_symmetry_space_group_name_H-M "I M M A"
_symmetry_group_IT_number 74
_symmetry_cell_setting 'orthorhombic'
loop_
_space_group_symop_operation_xyz
x,y,z
-x,1/2-y,z
x,-y,-z
-x,1/2+y,-z
-x,-y,-z
x,1/2+y,-z
-x,y,z
x,1/2-y,z
1/2+x,1/2+y,1/2+z
1/2-x,-y,1/2+z
1/2+x,1/2-y,1/2-z
1/2-x,y,1/2-z
1/2-x,1/2-y,1/2-z
1/2+x,y,1/2-z
1/2-x,1/2+y,1/2+z
1/2+x,-y,1/2+z
loop_
_atom_site_type_symbol
_atom_site_label
_atom_site_fract_x
_atom_site_fract_y
_atom_site_fract_z
Si Si1 0.654207 0.567764 0.173336
Si Si2 0.097990 0.917175 0.062661
Si Si3 0.000000 0.432008 0.575132
Si Si4 0.339425 0.929941 0.686799
O O1 0.666101 0.750000 0.171584
O O2 0.584813 0.513879 0.117080
O O3 0.624198 0.517898 0.247841
O O4 0.745340 0.484760 0.161201
O O5 0.142285 0.750000 0.076943
O O6 0.000000 0.887044 0.041534
O O7 0.096996 0.028608 0.126694
O O8 0.146349 0.000000 0.000000
O O9 0.000000 0.500000 0.500000
O O10 0.000000 0.250000 0.568466
O O11 0.337770 0.750000 0.702496
#
# Coordination Sequence:
#
# PCOD8300898 Si02
#       4
#    16  16   8  16
#     4  10  21  40  61  86 117 154 199 247 295 351
#     4  10  21  37  57  83 116 153 192 237 288 346
#     4  10  24  42  64  90 119 156 201 248 304 360
#     4  11  22  37  59  89 119 155 198 243 296 353
#
# _framework density 20.95007
#
# number of rings (size 3 to 8) (size 9 to 14) (size 15 to 20)
#    0.000    1.714    0.000    6.000    2.000    5.143 
#    0.000    2.857    0.000    0.000    0.000    0.000 
#    0.000    0.000    0.000    0.000    0.000    0.000 
#
# Total GULP energy -347049.627125 kJ/mol
# GULP energy per Si atom -12394.629540 kJ/mol
# Density = 2.090239 g / cm^3
# Si number density = 20.950070 Si / 1000 Ang^3
#
#
#
# Elastic Constant Matrix: (Units=GPa)
#
#
# Indices 1 2 3 4 5 6 
#
# 1 59.9090 19.9606 45.3300 0.0000 0.0000 0.0000
# 2 19.9606 83.5074 26.5589 0.0000 0.0000 0.0000
# 3 45.3300 26.5589 154.7204 0.0000 0.0000 0.0000
# 4 0.0000 0.0000 0.0000 40.8064 0.0000 0.0000
# 5 0.0000 0.0000 0.0000 0.0000 28.0904 0.0000
# 6 0.0000 0.0000 0.0000 0.0000 0.0000 22.7707
#
#
#
# Elastic Compliance Matrix: (Units=1/GPa)
#
#
# Indices 1 2 3 4 5 6 
#
# 1 0.022347 -0.003447 -0.005955 0.000000 0.000000 0.000000
# 2 -0.003447 0.013198 -0.001256 0.000000 0.000000 0.000000
# 3 -0.005955 -0.001256 0.008424 0.000000 0.000000 0.000000
# 4 0.000000 0.000000 0.000000 0.024506 0.000000 0.000000
# 5 0.000000 0.000000 0.000000 0.000000 0.035599 0.000000
# 6 0.000000 0.000000 0.000000 0.000000 0.000000 0.043916
#
#
# Mechanical properties :
#
#
# Convention : Reuss Voigt Hill
#
# Bulk Modulus (GPa) = 44.14631 53.53730 48.84181
# Shear Modulus (GPa) = 28.27137 32.08599 30.17868
#
# Velocity S-wave (km/s) = 3.67749 3.91774 3.79952
# Velocity P-wave (km/s) = 6.25698 6.78787 6.52782
#
# Compressibility (1/GPa) = 0.02265195
#
# Stress axis : x y z
#
# Youngs Moduli (GPa) = 44.74932 75.76707 118.71411
#
# Poissons Ratio (x) = 0.26120 0.70699
# Poissons Ratio (y) = 0.15427 0.14905
# Poissons Ratio (z) = 0.26650 0.09513
#
# Static dielectric constant tensor:
#      x y z
#    x 3.645830 0.000000 0.000000 
#    y 0.000000 4.098300 0.000000 
#    z 0.000000 0.000000 3.917620 
# 
# 
# High freq. dielectric constant tensor:
#      x y z
#    x 1.799250 0.000000 0.000000 
#    y 0.000000 1.832530 0.000000 
#    z 0.000000 0.000000 1.829860 
# 
# From -- ./inp_files/51379.got.cif
#   From: 2010.03.12/outbox.cif.g09.slc.cpg/sg74_26_cif.got.tgz:51379.got - 2010.04.16 15:46:19.
