data_PCOD8300357
_publ_section_title
;
Structure prediction by ZEFSAII (Michael W. Deem and Ramdas Pophale) SiO2 
 PCOD8300357
Probable space group: I M M A
;
_chemical_formula_sum "Si O2"
_cell_formula_units_Z 80
_cell_length_a 27.145374
_cell_length_b 16.638296
_cell_length_c 9.223834
_cell_angle_alpha 90.000000
_cell_angle_beta 90.000000
_cell_angle_gamma 90.000000
_cell_volume 4165.970154
_symmetry_space_group_name_H-M "I M M A"
_symmetry_group_IT_number 74
_symmetry_cell_setting 'orthorhombic'
loop_
_space_group_symop_operation_xyz
x,y,z
-x,1/2-y,z
x,-y,-z
-x,1/2+y,-z
-x,-y,-z
x,1/2+y,-z
-x,y,z
x,1/2-y,z
1/2+x,1/2+y,1/2+z
1/2-x,-y,1/2+z
1/2+x,1/2-y,1/2-z
1/2-x,y,1/2-z
1/2-x,1/2-y,1/2-z
1/2+x,y,1/2-z
1/2-x,1/2+y,1/2+z
1/2+x,-y,1/2+z
loop_
_atom_site_type_symbol
_atom_site_label
_atom_site_fract_x
_atom_site_fract_y
_atom_site_fract_z
Si Si1 0.121970 0.080990 0.586029
Si Si2 0.442807 0.841810 0.856624
Si Si3 0.106419 0.972879 0.841588
Si Si4 0.273285 0.658161 0.103814
Si Si5 0.217297 0.568868 0.888679
O O1 0.084581 0.143390 0.510425
O O2 0.176705 0.112645 0.569953
O O3 0.117749 0.000000 0.500000
O O4 0.107911 0.056957 0.751184
O O5 0.500000 0.854775 0.887734
O O6 0.431821 0.750000 0.806262
O O7 0.427595 0.904425 0.730055
O O8 0.159964 0.931160 0.850271
O O9 0.087053 0.000000 0.000000
O O10 0.287071 0.750000 0.128228
O O11 0.250000 0.621499 0.250000
O O12 0.234398 0.650344 0.970831
O O13 0.250000 0.555244 0.750000
O O14 0.231982 0.500000 0.000000
#
# Coordination Sequence:
#
# PCOD8300357 Si02
#       5
#    16  16  16  16  16
#     4  10  20  36  59  82 106 144 191 232 268 321
#     4  10  22  41  62  82 108 143 184 234 286 333
#     4  10  21  35  57  86 114 146 184 230 283 336
#     4  11  22  34  51  79 115 150 182 221 271 326
#     4  11  20  33  53  76 107 145 184 221 264 318
#
# _framework density 19.203209999999999
#
# number of rings (size 3 to 8) (size 9 to 14) (size 15 to 20)
#    0.000    1.600    0.000    7.800    0.000    5.200 
#    0.000    2.000    0.000    2.400    0.000    0.000 
#    0.000    0.000    0.000    0.000    0.000    0.000 
#
# Total GULP energy -495873.259992 kJ/mol
# GULP energy per Si atom -12396.831500 kJ/mol
# Density = 1.915950 g / cm^3
# Si number density = 19.203210 Si / 1000 Ang^3
#
#
#
# Elastic Constant Matrix: (Units=GPa)
#
#
# Indices 1 2 3 4 5 6 
#
# 1 97.0833 21.1658 28.7497 0.0000 0.0000 0.0000
# 2 21.1658 50.9702 14.1442 0.0000 0.0000 0.0000
# 3 28.7497 14.1442 104.8025 0.0000 0.0000 0.0000
# 4 0.0000 0.0000 0.0000 14.3581 0.0000 0.0000
# 5 0.0000 0.0000 0.0000 0.0000 24.2218 0.0000
# 6 0.0000 0.0000 0.0000 0.0000 0.0000 15.5172
#
#
#
# Elastic Compliance Matrix: (Units=1/GPa)
#
#
# Indices 1 2 3 4 5 6 
#
# 1 0.012033 -0.004240 -0.002729 0.000000 0.000000 0.000000
# 2 -0.004240 0.021876 -0.001789 0.000000 0.000000 0.000000
# 3 -0.002729 -0.001789 0.010532 0.000000 0.000000 0.000000
# 4 0.000000 0.000000 0.000000 0.069647 0.000000 0.000000
# 5 0.000000 0.000000 0.000000 0.000000 0.041285 0.000000
# 6 0.000000 0.000000 0.000000 0.000000 0.000000 0.064445
#
#
# Mechanical properties :
#
#
# Convention : Reuss Voigt Hill
#
# Bulk Modulus (GPa) = 37.13931 42.33061 39.73496
# Shear Modulus (GPa) = 20.29977 23.40584 21.85280
#
# Velocity S-wave (km/s) = 3.25484 3.49499 3.37705
# Velocity P-wave (km/s) = 5.78856 6.19500 5.99522
#
# Compressibility (1/GPa) = 0.02692564
#
# Stress axis : x y z
#
# Youngs Moduli (GPa) = 83.10629 45.71139 94.95045
#
# Poissons Ratio (x) = 0.19379 0.25909
# Poissons Ratio (y) = 0.35233 0.16991
# Poissons Ratio (z) = 0.22677 0.08180
#
# Static dielectric constant tensor:
#      x y z
#    x 3.459170 0.000000 0.000000 
#    y 0.000000 3.730410 0.000000 
#    z 0.000000 0.000000 4.340650 
# 
# 
# High freq. dielectric constant tensor:
#      x y z
#    x 1.740750 0.000000 0.000000 
#    y 0.000000 1.744050 0.000000 
#    z 0.000000 0.000000 1.756690 
# 
# From -- ./inp_files/10955.got.cif
#   From: 2010.03.12/outbox.cif.g09.slc.cpg/sg74_6_cif.got.tgz:10955.got - 2010.04.16 15:46:19.
