data_PCOD8300511
_publ_section_title
;
Structure prediction by ZEFSAII (Michael W. Deem and Ramdas Pophale) SiO2 
 PCOD8300511
Probable space group: I M M A
;
_chemical_formula_sum "Si O2"
_cell_formula_units_Z 80
_cell_length_a 21.254166
_cell_length_b 14.172781
_cell_length_c 12.064010
_cell_angle_alpha 90.000000
_cell_angle_beta 90.000000
_cell_angle_gamma 90.000000
_cell_volume 3634.049454
_symmetry_space_group_name_H-M "I M M A"
_symmetry_group_IT_number 74
_symmetry_cell_setting 'orthorhombic'
loop_
_space_group_symop_operation_xyz
x,y,z
-x,1/2-y,z
x,-y,-z
-x,1/2+y,-z
-x,-y,-z
x,1/2+y,-z
-x,y,z
x,1/2-y,z
1/2+x,1/2+y,1/2+z
1/2-x,-y,1/2+z
1/2+x,1/2-y,1/2-z
1/2-x,y,1/2-z
1/2-x,1/2-y,1/2-z
1/2+x,y,1/2-z
1/2-x,1/2+y,1/2+z
1/2+x,-y,1/2+z
loop_
_atom_site_type_symbol
_atom_site_label
_atom_site_fract_x
_atom_site_fract_y
_atom_site_fract_z
Si Si1 0.106618 0.514021 0.621119
Si Si2 0.074326 0.138797 0.789608
Si Si3 0.226632 0.357874 0.375939
Si Si4 0.352549 0.859793 0.506395
Si Si5 0.068555 0.146812 0.201215
O O1 0.077065 0.500000 0.500000
O O2 0.104588 0.413173 0.683369
O O3 0.174876 0.561852 0.607132
O O4 0.063164 0.585890 0.688213
O O5 0.082328 0.250000 0.769749
O O6 0.000000 0.113459 0.807502
O O7 0.117908 0.102131 0.892104
O O8 0.202699 0.250000 0.395486
O O9 0.250000 0.366774 0.250000
O O10 0.279148 0.380619 0.470984
O O11 0.368308 0.750000 0.511050
O O12 0.388520 0.906418 0.611012
O O13 0.096594 0.250000 0.232141
O O14 0.000000 0.157610 0.148236
#
# Coordination Sequence:
#
# PCOD8300511 Si02
#       5
#    16  16  16  16  16
#     4  12  26  40  59  90 132 177 225 263 314 386
#     4  10  23  44  68  96 133 174 219 277 338 393
#     4  10  20  40  68  95 128 167 211 269 329 388
#     4   9  18  38  68  98 125 159 208 269 337 395
#     4  10  20  37  64  95 123 155 204 267 329 388
#
# _framework density 22.014009999999999
#
# number of rings (size 3 to 8) (size 9 to 14) (size 15 to 20)
#    0.000    1.800    2.000    1.800    0.000    8.000 
#    0.000    4.000    0.000    4.200    0.000    0.000 
#    0.000    0.000    0.000    0.000    0.000    0.000 
#
# Total GULP energy -495557.723622 kJ/mol
# GULP energy per Si atom -12388.943091 kJ/mol
# Density = 2.196391 g / cm^3
# Si number density = 22.014010 Si / 1000 Ang^3
#
#
#
# Elastic Constant Matrix: (Units=GPa)
#
#
# Indices 1 2 3 4 5 6 
#
# 1 120.5661 35.7756 41.3332 0.0000 0.0000 0.0000
# 2 35.7756 105.6638 51.7619 0.0000 0.0000 0.0000
# 3 41.3332 51.7619 149.7586 0.0000 0.0000 0.0000
# 4 0.0000 0.0000 0.0000 36.9785 0.0000 0.0000
# 5 0.0000 0.0000 0.0000 0.0000 20.2652 0.0000
# 6 0.0000 0.0000 0.0000 0.0000 0.0000 14.5825
#
#
#
# Elastic Compliance Matrix: (Units=1/GPa)
#
#
# Indices 1 2 3 4 5 6 
#
# 1 0.009625 -0.002356 -0.001842 0.000000 0.000000 0.000000
# 2 -0.002356 0.011970 -0.003487 0.000000 0.000000 0.000000
# 3 -0.001842 -0.003487 0.008391 0.000000 0.000000 0.000000
# 4 0.000000 0.000000 0.000000 0.027043 0.000000 0.000000
# 5 0.000000 0.000000 0.000000 0.000000 0.049346 0.000000
# 6 0.000000 0.000000 0.000000 0.000000 0.000000 0.068575
#
#
# Mechanical properties :
#
#
# Convention : Reuss Voigt Hill
#
# Bulk Modulus (GPa) = 68.42175 70.41442 69.41808
# Shear Modulus (GPa) = 25.61578 30.83973 28.22776
#
# Velocity S-wave (km/s) = 3.41488 3.74694 3.58476
# Velocity P-wave (km/s) = 6.83352 7.12566 6.98112
#
# Compressibility (1/GPa) = 0.01461524
#
# Stress axis : x y z
#
# Youngs Moduli (GPa) = 103.89693 83.54249 119.17546
#
# Poissons Ratio (x) = 0.19686 0.21952
# Poissons Ratio (y) = 0.24483 0.41555
# Poissons Ratio (z) = 0.19138 0.29130
#
# Static dielectric constant tensor:
#      x y z
#    x 3.943210 0.000000 0.000000 
#    y 0.000000 3.981350 0.000000 
#    z 0.000000 0.000000 3.981930 
# 
# 
# High freq. dielectric constant tensor:
#      x y z
#    x 1.862470 0.000000 0.000000 
#    y 0.000000 1.872040 0.000000 
#    z 0.000000 0.000000 1.855440 
# 
# From -- ./inp_files/24876.got.cif
#   From: 2010.03.12/outbox.cif.g09.slc.cpg/sg74_13_cif.got.tgz:24876.got - 2010.04.16 15:46:19.
