data_PCOD8300371
_publ_section_title
;
Structure prediction by ZEFSAII (Michael W. Deem and Ramdas Pophale) SiO2 
 PCOD8300371
Probable space group: I M M A
;
_chemical_formula_sum "Si O2"
_cell_formula_units_Z 80
_cell_length_a 8.646059
_cell_length_b 18.217932
_cell_length_c 25.517963
_cell_angle_alpha 90.000000
_cell_angle_beta 90.000000
_cell_angle_gamma 90.000000
_cell_volume 4019.418942
_symmetry_space_group_name_H-M "I M M A"
_symmetry_group_IT_number 74
_symmetry_cell_setting 'orthorhombic'
loop_
_space_group_symop_operation_xyz
x,y,z
-x,1/2-y,z
x,-y,-z
-x,1/2+y,-z
-x,-y,-z
x,1/2+y,-z
-x,y,z
x,1/2-y,z
1/2+x,1/2+y,1/2+z
1/2-x,-y,1/2+z
1/2+x,1/2-y,1/2-z
1/2-x,y,1/2-z
1/2-x,1/2-y,1/2-z
1/2+x,y,1/2-z
1/2-x,1/2+y,1/2+z
1/2+x,-y,1/2+z
loop_
_atom_site_type_symbol
_atom_site_label
_atom_site_fract_x
_atom_site_fract_y
_atom_site_fract_z
Si Si1 0.316481 0.909324 0.806022
Si Si2 0.316601 0.066781 0.694371
Si Si3 0.682680 0.832773 0.401395
Si Si4 0.822221 0.664876 0.902783
Si Si5 0.182318 0.416624 0.500130
O O1 0.500000 0.910426 0.803729
O O2 0.250000 0.885754 0.750000
O O3 0.257848 0.849623 0.847232
O O4 0.255786 0.989362 0.822674
O O5 0.500000 0.057945 0.698557
O O6 0.250000 0.093273 0.750000
O O7 0.265434 0.126397 0.651555
O O8 0.500000 0.832133 0.406462
O O9 0.748379 0.750000 0.399423
O O10 0.747391 0.873882 0.451376
O O11 0.807521 0.750000 0.916763
O O12 0.733430 0.619407 0.946293
O O13 0.000000 0.639731 0.900714
O O14 0.242868 0.500000 0.500000
O O15 0.000000 0.413244 0.504953
#
# Coordination Sequence:
#
# PCOD8300371 Si02
#       5
#    16  16  16  16  16
#     4  11  22  38  61  87 117 152 193 238 283 336
#     4  10  20  36  59  85 116 153 194 239 285 336
#     4  10  22  39  58  83 116 153 192 235 286 343
#     4  11  24  41  61  86 117 152 190 234 286 342
#     4  11  24  40  60  87 116 148 190 238 286 339
#
# _framework density 19.903372999999998
#
# number of rings (size 3 to 8) (size 9 to 14) (size 15 to 20)
#    0.000    1.400    0.000    6.600    0.000   11.600 
#    0.000    0.000    0.000    0.000    0.000    0.000 
#    0.000    0.000    0.000    0.000    0.000    0.000 
#
# Total GULP energy -496220.370391 kJ/mol
# GULP energy per Si atom -12405.509260 kJ/mol
# Density = 1.985807 g / cm^3
# Si number density = 19.903373 Si / 1000 Ang^3
#
#
#
# Elastic Constant Matrix: (Units=GPa)
#
#
# Indices 1 2 3 4 5 6 
#
# 1 266.8558 114.6962 128.5656 0.0000 0.0000 0.0000
# 2 114.6962 137.3213 100.3749 0.0000 0.0000 0.0000
# 3 128.5656 100.3749 166.4806 0.0000 0.0000 0.0000
# 4 0.0000 0.0000 0.0000 17.2216 0.0000 0.0000
# 5 0.0000 0.0000 0.0000 0.0000 29.2905 0.0000
# 6 0.0000 0.0000 0.0000 0.0000 0.0000 29.7122
#
#
#
# Elastic Compliance Matrix: (Units=1/GPa)
#
#
# Indices 1 2 3 4 5 6 
#
# 1 0.006686 -0.003237 -0.003212 0.000000 0.000000 0.000000
# 2 -0.003237 0.014587 -0.006295 0.000000 0.000000 0.000000
# 3 -0.003212 -0.006295 0.012283 0.000000 0.000000 0.000000
# 4 0.000000 0.000000 0.000000 0.058067 0.000000 0.000000
# 5 0.000000 0.000000 0.000000 0.000000 0.034141 0.000000
# 6 0.000000 0.000000 0.000000 0.000000 0.000000 0.033656
#
#
# Mechanical properties :
#
#
# Convention : Reuss Voigt Hill
#
# Bulk Modulus (GPa) = 123.94554 139.77010 131.85782
# Shear Modulus (GPa) = 26.65298 30.37959 28.51628
#
# Velocity S-wave (km/s) = 3.66337 3.91110 3.78926
# Velocity P-wave (km/s) = 8.96117 9.52745 9.24864
#
# Compressibility (1/GPa) = 0.00806806
#
# Stress axis : x y z
#
# Youngs Moduli (GPa) = 149.57057 68.55320 81.41595
#
# Poissons Ratio (x) = 0.22188 0.26148
# Poissons Ratio (y) = 0.48411 0.51255
# Poissons Ratio (z) = 0.48037 0.43157
#
# Static dielectric constant tensor:
#      x y z
#    x 3.734540 0.000000 0.000000 
#    y 0.000000 3.774700 0.000000 
#    z 0.000000 0.000000 3.858450 
# 
# 
# High freq. dielectric constant tensor:
#      x y z
#    x 1.787000 0.000000 0.000000 
#    y 0.000000 1.781430 0.000000 
#    z 0.000000 0.000000 1.792840 
# 
# From -- ./inp_files/63979.got.cif
#   From: 2010.03.12/outbox.cif.g09.slc.cpg/sg74_32_cif.got.tgz:63979.got - 2010.04.16 15:46:19.
