data_PCOD8300825
_publ_section_title
;
Structure prediction by ZEFSAII (Michael W. Deem and Ramdas Pophale) SiO2 
 PCOD8300825
Probable space group: I M M A
;
_chemical_formula_sum "Si O2"
_cell_formula_units_Z 88
_cell_length_a 16.839318
_cell_length_b 13.144576
_cell_length_c 20.756550
_cell_angle_alpha 90.000000
_cell_angle_beta 90.000000
_cell_angle_gamma 90.000000
_cell_volume 4594.372991
_symmetry_space_group_name_H-M "I M M A"
_symmetry_group_IT_number 74
_symmetry_cell_setting 'orthorhombic'
loop_
_space_group_symop_operation_xyz
x,y,z
-x,1/2-y,z
x,-y,-z
-x,1/2+y,-z
-x,-y,-z
x,1/2+y,-z
-x,y,z
x,1/2-y,z
1/2+x,1/2+y,1/2+z
1/2-x,-y,1/2+z
1/2+x,1/2-y,1/2-z
1/2-x,y,1/2-z
1/2-x,1/2-y,1/2-z
1/2+x,y,1/2-z
1/2-x,1/2+y,1/2+z
1/2+x,-y,1/2+z
loop_
_atom_site_type_symbol
_atom_site_label
_atom_site_fract_x
_atom_site_fract_y
_atom_site_fract_z
Si Si1 0.092817 0.492406 0.157103
Si Si2 0.657916 0.866673 0.236253
Si Si3 0.300859 0.132486 0.422452
Si Si4 0.180674 0.500000 0.500000
Si Si5 0.589971 0.631794 0.099315
Si Si6 0.090006 0.363221 0.957277
O O1 0.107103 0.552329 0.223204
O O2 0.154588 0.398841 0.145046
O O3 0.119640 0.566708 0.099866
O O4 0.000000 0.458877 0.154542
O O5 0.631275 0.750000 0.251607
O O6 0.750000 0.882288 0.250000
O O7 0.642028 0.893413 0.162120
O O8 0.273363 0.250000 0.416146
O O9 0.228296 0.061320 0.444461
O O10 0.365352 0.115345 0.477421
O O11 0.125748 0.578838 0.462981
O O12 0.500000 0.594620 0.111327
O O13 0.592674 0.750000 0.083588
O O14 0.104825 0.250000 0.931598
O O15 0.000000 0.384836 0.975142
#
# Coordination Sequence:
#
# PCOD8300825 Si02
#       6
#    16  16  16   8  16  16
#     4  11  20  33  53  79 113 155 192 224 278 344
#     4  10  21  36  58  88 120 149 182 230 287 344
#     4  11  22  34  52  80 115 151 192 240 283 329
#     4  12  21  38  61  84 112 152 192 234 285 346
#     4  10  22  40  62  89 118 147 185 234 284 336
#     4   9  17  29  47  74 109 148 189 229 271 326
#
# _framework density 19.153866000000001
#
# number of rings (size 3 to 8) (size 9 to 14) (size 15 to 20)
#    0.000    1.636    1.818    3.545    0.000    4.364 
#    0.000    0.000    0.000    6.000    0.000    0.000 
#    0.000    0.000    0.000    0.000    0.000    0.000 
#
# Total GULP energy -545472.610455 kJ/mol
# GULP energy per Si atom -12397.104783 kJ/mol
# Density = 1.911027 g / cm^3
# Si number density = 19.153866 Si / 1000 Ang^3
#
#
#
# Elastic Constant Matrix: (Units=GPa)
#
#
# Indices 1 2 3 4 5 6 
#
# 1 99.0021 34.5366 35.7122 0.0000 0.0000 0.0000
# 2 34.5366 70.1563 36.4532 0.0000 0.0000 0.0000
# 3 35.7122 36.4532 70.2690 0.0000 0.0000 0.0000
# 4 0.0000 0.0000 0.0000 37.0450 0.0000 0.0000
# 5 0.0000 0.0000 0.0000 0.0000 32.2952 0.0000
# 6 0.0000 0.0000 0.0000 0.0000 0.0000 28.6360
#
#
#
# Elastic Compliance Matrix: (Units=1/GPa)
#
#
# Indices 1 2 3 4 5 6 
#
# 1 0.013184 -0.004119 -0.004564 0.000000 0.000000 0.000000
# 2 -0.004119 0.020801 -0.008697 0.000000 0.000000 0.000000
# 3 -0.004564 -0.008697 0.021062 0.000000 0.000000 0.000000
# 4 0.000000 0.000000 0.000000 0.026994 0.000000 0.000000
# 5 0.000000 0.000000 0.000000 0.000000 0.030964 0.000000
# 6 0.000000 0.000000 0.000000 0.000000 0.000000 0.034921
#
#
# Mechanical properties :
#
#
# Convention : Reuss Voigt Hill
#
# Bulk Modulus (GPa) = 49.29249 50.31460 49.80355
# Shear Modulus (GPa) = 26.39240 28.44359 27.41800
#
# Velocity S-wave (km/s) = 3.71605 3.85776 3.78757
# Velocity P-wave (km/s) = 6.64853 6.79476 6.72204
#
# Compressibility (1/GPa) = 0.02028706
#
# Stress axis : x y z
#
# Youngs Moduli (GPa) = 75.85043 48.07528 47.47842
#
# Poissons Ratio (x) = 0.19802 0.21667
# Poissons Ratio (y) = 0.31242 0.41294
# Poissons Ratio (z) = 0.34615 0.41813
#
# Static dielectric constant tensor:
#      x y z
#    x 3.528920 0.000000 0.000000 
#    y 0.000000 3.679390 0.000000 
#    z 0.000000 0.000000 3.301630 
# 
# 
# High freq. dielectric constant tensor:
#      x y z
#    x 1.745480 0.000000 0.000000 
#    y 0.000000 1.741040 0.000000 
#    z 0.000000 0.000000 1.727310 
# 
# From -- ./inp_files/43974.got.cif
#   From: 2010.03.12/outbox.cif.g09.slc.cpg/sg74_22_cif.got.tgz:43974.got - 2010.04.16 15:46:19.
