data_PCOD8300106
_publ_section_title
;
Structure prediction by ZEFSAII (Michael W. Deem and Ramdas Pophale) SiO2 
 PCOD8300106
Probable space group: I M M A
;
_chemical_formula_sum "Si O2"
_cell_formula_units_Z 88
_cell_length_a 15.645984
_cell_length_b 18.011671
_cell_length_c 15.617054
_cell_angle_alpha 90.000000
_cell_angle_beta 90.000000
_cell_angle_gamma 90.000000
_cell_volume 4401.046927
_symmetry_space_group_name_H-M "I M M A"
_symmetry_group_IT_number 74
_symmetry_cell_setting 'orthorhombic'
loop_
_space_group_symop_operation_xyz
x,y,z
-x,1/2-y,z
x,-y,-z
-x,1/2+y,-z
-x,-y,-z
x,1/2+y,-z
-x,y,z
x,1/2-y,z
1/2+x,1/2+y,1/2+z
1/2-x,-y,1/2+z
1/2+x,1/2-y,1/2-z
1/2-x,y,1/2-z
1/2-x,1/2-y,1/2-z
1/2+x,y,1/2-z
1/2-x,1/2+y,1/2+z
1/2+x,-y,1/2+z
loop_
_atom_site_type_symbol
_atom_site_label
_atom_site_fract_x
_atom_site_fract_y
_atom_site_fract_z
Si Si1 0.179710 0.911867 0.990154
Si Si2 0.000000 0.062451 0.577275
Si Si3 0.000000 0.987820 0.227095
Si Si4 0.500000 0.077620 0.551538
Si Si5 0.152744 0.338640 0.524278
Si Si6 0.092894 0.835237 0.659099
Si Si7 0.329425 0.422289 0.297166
O O1 0.251787 0.868223 0.045247
O O2 0.087465 0.881647 0.022185
O O3 0.192500 0.892554 0.890728
O O4 0.190614 0.000000 0.000000
O O5 0.000000 0.028973 0.672522
O O6 0.082835 0.115659 0.577551
O O7 0.000000 0.000000 0.500000
O O8 0.000000 0.922603 0.155607
O O9 0.086700 0.028572 0.201131
O O10 0.500000 0.000000 0.500000
O O11 0.145086 0.250000 0.541192
O O12 0.135881 0.363873 0.427126
O O13 0.075053 0.750000 0.649427
O O14 0.153572 0.849975 0.739126
O O15 0.000000 0.875637 0.670806
O O16 0.250000 0.464714 0.250000
#
# Coordination Sequence:
#
# PCOD8300106 Si02
#       7
#    16   8   8   8  16  16  16
#     4  11  22  39  63  89 125 163 211 255 312 371
#     4  12  25  39  68  97 126 161 209 257 319 378
#     4  12  24  39  60  92 122 156 201 266 314 354
#     4  10  20  42  62  85 120 163 209 261 311 362
#     4  11  23  41  61  90 129 165 202 255 318 381
#     4  10  20  35  55  82 122 163 195 238 304 381
#     4  12  22  34  58  91 126 155 198 257 310 372
#
# _framework density 19.995242999999999
#
# number of rings (size 3 to 8) (size 9 to 14) (size 15 to 20)
#    0.000    0.909    7.273    1.909    2.545    1.091 
#    0.000    0.455    0.000    3.273    0.000    0.000 
#    0.000    0.000    0.000    0.000    0.000    0.000 
#
# Total GULP energy -545113.025960 kJ/mol
# GULP energy per Si atom -12388.932408 kJ/mol
# Density = 1.994973 g / cm^3
# Si number density = 19.995243 Si / 1000 Ang^3
#
#
#
# Elastic Constant Matrix: (Units=GPa)
#
#
# Indices 1 2 3 4 5 6 
#
# 1 166.0871 25.3101 11.0532 0.0000 0.0000 0.0000
# 2 25.3101 43.9040 2.3463 0.0000 0.0000 0.0000
# 3 11.0532 2.3463 92.7091 0.0000 0.0000 0.0000
# 4 0.0000 0.0000 0.0000 22.8378 0.0000 0.0000
# 5 0.0000 0.0000 0.0000 0.0000 31.3630 0.0000
# 6 0.0000 0.0000 0.0000 0.0000 0.0000 7.4128
#
#
#
# Elastic Compliance Matrix: (Units=1/GPa)
#
#
# Indices 1 2 3 4 5 6 
#
# 1 0.006645 -0.003794 -0.000696 0.000000 0.000000 0.000000
# 2 -0.003794 0.024974 -0.000180 0.000000 0.000000 0.000000
# 3 -0.000696 -0.000180 0.010874 0.000000 0.000000 0.000000
# 4 0.000000 0.000000 0.000000 0.043787 0.000000 0.000000
# 5 0.000000 0.000000 0.000000 0.000000 0.031885 0.000000
# 6 0.000000 0.000000 0.000000 0.000000 0.000000 0.134902
#
#
# Mechanical properties :
#
#
# Convention : Reuss Voigt Hill
#
# Bulk Modulus (GPa) = 30.16280 42.23551 36.19915
# Shear Modulus (GPa) = 18.28436 29.92209 24.10323
#
# Velocity S-wave (km/s) = 3.02724 3.87261 3.47572
# Velocity P-wave (km/s) = 5.22845 6.41598 5.85241
#
# Compressibility (1/GPa) = 0.03315342
#
# Stress axis : x y z
#
# Youngs Moduli (GPa) = 150.47976 40.04227 91.96260
#
# Poissons Ratio (x) = 0.15191 0.06403
# Poissons Ratio (y) = 0.57089 0.01653
# Poissons Ratio (z) = 0.10478 0.00720
#
# Static dielectric constant tensor:
#      x y z
#    x 4.174550 0.000000 0.000000 
#    y 0.000000 3.241690 0.000000 
#    z 0.000000 0.000000 3.786570 
# 
# 
# High freq. dielectric constant tensor:
#      x y z
#    x 1.816630 0.000000 0.000000 
#    y 0.000000 1.735030 0.000000 
#    z 0.000000 0.000000 1.770420 
# 
# From -- ./inp_files/32247.got.cif
#   From: 2010.03.12/outbox.cif.g09.slc.cpg/sg74_17_cif.got.tgz:32247.got - 2010.04.16 15:46:19.
