data_PCOD8300267
_publ_section_title
;
Structure prediction by ZEFSAII (Michael W. Deem and Ramdas Pophale) SiO2 
 PCOD8300267
Probable space group: I M M A
;
_chemical_formula_sum "Si O2"
_cell_formula_units_Z 96
_cell_length_a 8.923015
_cell_length_b 24.972066
_cell_length_c 23.509369
_cell_angle_alpha 90.000000
_cell_angle_beta 90.000000
_cell_angle_gamma 90.000000
_cell_volume 5238.501466
_symmetry_space_group_name_H-M "I M M A"
_symmetry_group_IT_number 74
_symmetry_cell_setting 'orthorhombic'
loop_
_space_group_symop_operation_xyz
x,y,z
-x,1/2-y,z
x,-y,-z
-x,1/2+y,-z
-x,-y,-z
x,1/2+y,-z
-x,y,z
x,1/2-y,z
1/2+x,1/2+y,1/2+z
1/2-x,-y,1/2+z
1/2+x,1/2-y,1/2-z
1/2-x,y,1/2-z
1/2-x,1/2-y,1/2-z
1/2+x,y,1/2-z
1/2-x,1/2+y,1/2+z
1/2+x,-y,1/2+z
loop_
_atom_site_type_symbol
_atom_site_label
_atom_site_fract_x
_atom_site_fract_y
_atom_site_fract_z
Si Si1 0.326005 0.187531 0.691291
Si Si2 0.176682 0.938068 0.003728
Si Si3 0.175540 0.499424 0.689554
Si Si4 0.823718 0.903706 0.609330
Si Si5 0.177572 0.897889 0.382653
Si Si6 0.324632 0.310418 0.192058
O O1 0.500000 0.172492 0.694825
O O2 0.300259 0.250000 0.680188
O O3 0.250000 0.169139 0.750000
O O4 0.248797 0.157291 0.639022
O O5 0.260312 0.910116 0.055420
O O6 0.000000 0.932349 0.012015
O O7 0.228247 0.906694 0.947813
O O8 0.226159 0.000000 0.000000
O O9 0.250000 0.505994 0.750000
O O10 0.227219 0.547956 0.649741
O O11 0.228053 0.444516 0.660410
O O12 0.000000 0.500580 0.699101
O O13 0.779165 0.848128 0.639636
O O14 0.000000 0.907027 0.595122
O O15 0.000000 0.892252 0.386203
O O16 0.500000 0.313376 0.202816
O O17 0.271683 0.250000 0.177620
O O18 0.250000 0.331402 0.250000
#
# Coordination Sequence:
#
# PCOD8300267 Si02
#       6
#    16  16  16  16  16  16
#     4  10  21  38  60  86 117 151 188 231 279 333
#     4  11  23  38  57  81 108 145 189 235 283 337
#     4  10  21  33  50  78 109 141 176 221 277 332
#     4  10  20  36  55  77 109 146 185 228 276 332
#     4  11  22  37  58  82 111 148 188 231 280 339
#     4   9  18  33  55  82 111 145 183 223 270 323
#
# _framework density 18.325849999999999
#
# number of rings (size 3 to 8) (size 9 to 14) (size 15 to 20)
#    0.000    1.833    1.667    2.500    0.000    5.667 
#    0.000    0.833    0.000    3.000    0.000    0.000 
#    0.000    0.000    0.000    0.000    0.000    0.000 
#
# Total GULP energy -595435.430811 kJ/mol
# GULP energy per Si atom -12404.904809 kJ/mol
# Density = 1.828414 g / cm^3
# Si number density = 18.325850 Si / 1000 Ang^3
#
#
#
# Elastic Constant Matrix: (Units=GPa)
#
#
# Indices 1 2 3 4 5 6 
#
# 1 67.4729 47.3816 56.3689 0.0000 0.0000 0.0000
# 2 47.3816 95.4630 63.0512 0.0000 0.0000 0.0000
# 3 56.3689 63.0512 139.9426 0.0000 0.0000 0.0000
# 4 0.0000 0.0000 0.0000 28.0802 0.0000 0.0000
# 5 0.0000 0.0000 0.0000 0.0000 39.8791 0.0000
# 6 0.0000 0.0000 0.0000 0.0000 0.0000 23.2277
#
#
#
# Elastic Compliance Matrix: (Units=1/GPa)
#
#
# Indices 1 2 3 4 5 6 
#
# 1 0.026624 -0.008729 -0.006791 0.000000 0.000000 0.000000
# 2 -0.008729 0.017775 -0.004492 0.000000 0.000000 0.000000
# 3 -0.006791 -0.004492 0.011905 0.000000 0.000000 0.000000
# 4 0.000000 0.000000 0.000000 0.035612 0.000000 0.000000
# 5 0.000000 0.000000 0.000000 0.000000 0.025076 0.000000
# 6 0.000000 0.000000 0.000000 0.000000 0.000000 0.043052
#
#
# Mechanical properties :
#
#
# Convention : Reuss Voigt Hill
#
# Bulk Modulus (GPa) = 61.42904 70.72022 66.07463
# Shear Modulus (GPa) = 24.33128 27.30920 25.82024
#
# Velocity S-wave (km/s) = 3.64772 3.86450 3.75767
# Velocity P-wave (km/s) = 7.16480 7.65419 7.41354
#
# Compressibility (1/GPa) = 0.01627895
#
# Stress axis : x y z
#
# Youngs Moduli (GPa) = 37.55967 56.25898 83.99502
#
# Poissons Ratio (x) = 0.49108 0.57045
# Poissons Ratio (y) = 0.32786 0.37735
# Poissons Ratio (z) = 0.25508 0.25274
#
# Static dielectric constant tensor:
#      x y z
#    x 3.358050 0.000000 0.000000 
#    y 0.000000 3.538480 0.000000 
#    z 0.000000 0.000000 3.425870 
# 
# 
# High freq. dielectric constant tensor:
#      x y z
#    x 1.713700 0.000000 0.000000 
#    y 0.000000 1.712850 0.000000 
#    z 0.000000 0.000000 1.712330 
# 
# From -- ./inp_files/49063.got.cif
#   From: 2010.03.12/outbox.cif.g09.slc.cpg/sg74_25_cif.got.tgz:49063.got - 2010.04.16 15:46:19.
