data_PCOD8300218
_publ_section_title
;
Structure prediction by ZEFSAII (Michael W. Deem and Ramdas Pophale) SiO2 
 PCOD8300218
Probable space group: I M M A
;
_chemical_formula_sum "Si O2"
_cell_formula_units_Z 112
_cell_length_a 14.821521
_cell_length_b 21.927635
_cell_length_c 14.977717
_cell_angle_alpha 90.000000
_cell_angle_beta 90.000000
_cell_angle_gamma 90.000000
_cell_volume 4867.771544
_symmetry_space_group_name_H-M "I M M A"
_symmetry_group_IT_number 74
_symmetry_cell_setting 'orthorhombic'
loop_
_space_group_symop_operation_xyz
x,y,z
-x,1/2-y,z
x,-y,-z
-x,1/2+y,-z
-x,-y,-z
x,1/2+y,-z
-x,y,z
x,1/2-y,z
1/2+x,1/2+y,1/2+z
1/2-x,-y,1/2+z
1/2+x,1/2-y,1/2-z
1/2-x,y,1/2-z
1/2-x,1/2-y,1/2-z
1/2+x,y,1/2-z
1/2-x,1/2+y,1/2+z
1/2+x,-y,1/2+z
loop_
_atom_site_type_symbol
_atom_site_label
_atom_site_fract_x
_atom_site_fract_y
_atom_site_fract_z
Si Si1 0.898482 0.185012 0.209587
Si Si2 0.602958 0.913222 0.349630
Si Si3 0.654526 0.137834 0.467801
Si Si4 0.105441 0.817664 0.295400
Si Si5 0.764070 0.981328 0.900894
Si Si6 0.652336 0.680141 0.005911
Si Si7 0.896927 0.091667 0.349498
O O1 0.850490 0.250000 0.231265
O O2 0.901650 0.177252 0.102493
O O3 0.854217 0.131195 0.267928
O O4 0.000000 0.188128 0.245015
O O5 0.500000 0.935106 0.327285
O O6 0.596984 0.880628 0.445979
O O7 0.642926 0.865919 0.276828
O O8 0.674194 0.968822 0.350894
O O9 0.678827 0.079784 0.407382
O O10 0.740495 0.176207 0.498820
O O11 0.148363 0.750000 0.280355
O O12 0.125855 0.841334 0.394792
O O13 0.000000 0.812936 0.279760
O O14 0.667986 0.967890 0.852578
O O15 0.736550 0.000000 0.000000
O O16 0.620402 0.750000 0.988250
O O17 0.605352 0.633317 0.938328
O O18 0.000000 0.069365 0.333640
#
# Coordination Sequence:
#
# PCOD8300218 Si02
#       7
#    16  16  16  16  16  16  16
#     4  10  21  37  60  92 125 159 205 255 306 373
#     4  10  21  40  65  89 121 165 207 255 316 372
#     4  10  21  37  57  87 123 160 207 256 307 364
#     4   9  19  36  60  93 126 156 200 251 300 370
#     4   9  21  40  61  89 120 157 211 263 306 365
#     4  10  20  35  58  89 126 166 203 248 310 374
#     4  10  21  39  62  89 124 165 207 257 315 370
#
# _framework density 23.008475000000001
#
# number of rings (size 3 to 8) (size 9 to 14) (size 15 to 20)
#    0.000    2.286    0.000    1.714    0.000    8.857 
#    0.000   17.857    0.000    5.143    0.000    1.000 
#    0.000    2.857    0.000    0.000    0.000    0.000 
#
# Total GULP energy -694077.274157 kJ/mol
# GULP energy per Si atom -12394.237039 kJ/mol
# Density = 2.295611 g / cm^3
# Si number density = 23.008475 Si / 1000 Ang^3
#
#
#
# Elastic Constant Matrix: (Units=GPa)
#
#
# Indices 1 2 3 4 5 6 
#
# 1 87.2059 46.4388 28.2140 0.0001 -0.0001 -0.0002
# 2 46.4388 110.0993 55.3321 0.0002 0.0000 0.0000
# 3 28.2140 55.3321 113.3559 0.0000 0.0001 0.0004
# 4 0.0001 0.0002 0.0000 18.3019 0.0000 0.0001
# 5 -0.0001 0.0000 0.0001 0.0000 31.4621 0.0000
# 6 -0.0002 0.0000 0.0004 0.0001 0.0000 0.8536
#
#
#
# Elastic Compliance Matrix: (Units=1/GPa)
#
#
# Indices 1 2 3 4 5 6 
#
# 1 0.014850 -0.005838 -0.000846 0.000000 0.000000 0.000003
# 2 -0.005838 0.014330 -0.005542 0.000000 0.000000 0.000001
# 3 -0.000846 -0.005542 0.011738 0.000000 0.000000 -0.000005
# 4 0.000000 0.000000 0.000000 0.054639 0.000000 -0.000005
# 5 0.000000 0.000000 0.000000 0.000000 0.031784 -0.000001
# 6 0.000003 0.000001 -0.000005 -0.000005 -0.000001 1.171484
#
#
# Mechanical properties :
#
#
# Convention : Reuss Voigt Hill
#
# Bulk Modulus (GPa) = 60.73510 63.40345 62.06927
# Shear Modulus (GPa) = 3.76289 22.16859 12.96574
#
# Velocity S-wave (km/s) = 1.28023 3.10739 2.37643
# Velocity P-wave (km/s) = 5.35158 6.36325 5.87922
#
# Compressibility (1/GPa) = 0.01646494
#
# Stress axis : x y z
#
# Youngs Moduli (GPa) = 67.34063 69.78177 85.19639
#
# Poissons Ratio (x) = 0.40740 0.07210
# Poissons Ratio (y) = 0.39315 0.47215
# Poissons Ratio (z) = 0.05699 0.38673
#
# Static dielectric constant tensor:
#      x y z
#    x 3.899780 0.000000 0.000000 
#    y 0.000000 4.534320 0.000000 
#    z 0.000000 0.000000 4.162330 
# 
# 
# High freq. dielectric constant tensor:
#      x y z
#    x 1.898150 0.000000 0.000000 
#    y 0.000000 1.903720 0.000000 
#    z 0.000000 0.000000 1.916100 
# 
# From -- ./inp_files/32705.got.cif
#   From: 2010.03.12/outbox.cif.g09.slc.cpg/sg74_17_cif.got.tgz:32705.got - 2010.04.16 15:46:19.
