data_PCOD8300994
_publ_section_title
;
Structure prediction by ZEFSAII (Michael W. Deem and Ramdas Pophale) SiO2 
 PCOD8300994
Probable space group: I M M A
;
_chemical_formula_sum "Si O2"
_cell_formula_units_Z 72
_cell_length_a 16.845440
_cell_length_b 9.835247
_cell_length_c 22.023799
_cell_angle_alpha 90.000000
_cell_angle_beta 90.000000
_cell_angle_gamma 90.000000
_cell_volume 3648.882387
_symmetry_space_group_name_H-M "I M M A"
_symmetry_group_IT_number 74
_symmetry_cell_setting 'orthorhombic'
loop_
_space_group_symop_operation_xyz
x,y,z
-x,1/2-y,z
x,-y,-z
-x,1/2+y,-z
-x,-y,-z
x,1/2+y,-z
-x,y,z
x,1/2-y,z
1/2+x,1/2+y,1/2+z
1/2-x,-y,1/2+z
1/2+x,1/2-y,1/2-z
1/2-x,y,1/2-z
1/2-x,1/2-y,1/2-z
1/2+x,y,1/2-z
1/2-x,1/2+y,1/2+z
1/2+x,-y,1/2+z
loop_
_atom_site_type_symbol
_atom_site_label
_atom_site_fract_x
_atom_site_fract_y
_atom_site_fract_z
Si Si1 0.166019 0.590949 0.718284
Si Si2 0.591559 0.093794 0.881196
Si Si3 0.821453 0.901912 0.950660
Si Si4 0.667903 0.000000 0.000000
Si Si5 0.413395 0.410922 0.336962
O O1 0.158105 0.750000 0.700202
O O2 0.250000 0.562890 0.750000
O O3 0.149584 0.500806 0.658828
O O4 0.103070 0.540176 0.768640
O O5 0.500000 0.049229 0.872476
O O6 0.604083 0.250000 0.861788
O O7 0.613297 0.080734 0.952500
O O8 0.854693 0.750000 0.959486
O O9 0.845931 0.960021 0.884415
O O10 0.725939 0.901598 0.960200
O O11 0.863178 0.000000 0.000000
O O12 0.500000 0.465177 0.357078
O O13 0.410664 0.250000 0.335454
#
# Coordination Sequence:
#
# PCOD8300994 Si02
#       5
#    16  16  16   8  16
#     4  10  21  38  61  87 114 151 197 237 285 352
#     4  11  24  40  59  86 118 151 191 242 298 348
#     4   9  19  34  56  81 108 144 187 229 275 333
#     4  10  21  38  59  76 110 152 190 230 277 348
#     4   9  17  32  54  81 112 145 182 229 281 335
#
# _framework density 19.73207
#
# number of rings (size 3 to 8) (size 9 to 14) (size 15 to 20)
#    0.667    1.556    0.000    3.000    0.000    5.778 
#    0.000    1.111    0.000    1.333    0.000    0.000 
#    0.000    0.000    0.000    0.000    0.000    0.000 
#
# Total GULP energy -446020.826139 kJ/mol
# GULP energy per Si atom -12389.467393 kJ/mol
# Density = 1.968716 g / cm^3
# Si number density = 19.732070 Si / 1000 Ang^3
#
#
#
# Elastic Constant Matrix: (Units=GPa)
#
#
# Indices 1 2 3 4 5 6 
#
# 1 91.2271 30.3601 50.3447 0.0000 0.0000 0.0000
# 2 30.3601 74.6670 44.9472 0.0000 0.0000 0.0000
# 3 50.3447 44.9472 117.0158 0.0000 0.0000 0.0000
# 4 0.0000 0.0000 0.0000 30.2411 0.0000 0.0000
# 5 0.0000 0.0000 0.0000 0.0000 38.7989 0.0000
# 6 0.0000 0.0000 0.0000 0.0000 0.0000 17.0606
#
#
#
# Elastic Compliance Matrix: (Units=1/GPa)
#
#
# Indices 1 2 3 4 5 6 
#
# 1 0.014826 -0.002847 -0.005285 0.000000 0.000000 0.000000
# 2 -0.002847 0.017968 -0.005677 0.000000 0.000000 0.000000
# 3 -0.005285 -0.005677 0.013000 0.000000 0.000000 0.000000
# 4 0.000000 0.000000 0.000000 0.033068 0.000000 0.000000
# 5 0.000000 0.000000 0.000000 0.000000 0.025774 0.000000
# 6 0.000000 0.000000 0.000000 0.000000 0.000000 0.058615
#
#
# Mechanical properties :
#
#
# Convention : Reuss Voigt Hill
#
# Bulk Modulus (GPa) = 55.01702 59.35712 57.18707
# Shear Modulus (GPa) = 25.39029 27.70398 26.54713
#
# Velocity S-wave (km/s) = 3.59102 3.75107 3.67192
# Velocity P-wave (km/s) = 6.71837 6.99340 6.85726
#
# Compressibility (1/GPa) = 0.01817619
#
# Stress axis : x y z
#
# Youngs Moduli (GPa) = 67.45049 55.65596 76.92170
#
# Poissons Ratio (x) = 0.15844 0.40654
# Poissons Ratio (y) = 0.19201 0.43667
# Poissons Ratio (z) = 0.35648 0.31595
#
# Static dielectric constant tensor:
#      x y z
#    x 3.637550 0.000000 0.000000 
#    y 0.000000 3.190470 0.000000 
#    z 0.000000 0.000000 3.758940 
# 
# 
# High freq. dielectric constant tensor:
#      x y z
#    x 1.768170 0.000000 0.000000 
#    y 0.000000 1.731410 0.000000 
#    z 0.000000 0.000000 1.780690 
# 
# From -- ./inp_files/60601.got.cif
#   From: 2010.03.12/outbox.cif.g09.slc.cpg/sg74_31_cif.got.tgz:60601.got - 2010.04.16 15:46:19.
