data_PCOD8300010
_publ_section_title
;
Structure prediction by ZEFSAII (Michael W. Deem and Ramdas Pophale) SiO2 
 PCOD8300010
Probable space group: I M M A
;
_chemical_formula_sum "Si O2"
_cell_formula_units_Z 96
_cell_length_a 29.894807
_cell_length_b 16.269051
_cell_length_c 9.521258
_cell_angle_alpha 90.000000
_cell_angle_beta 90.000000
_cell_angle_gamma 90.000000
_cell_volume 4630.760371
_symmetry_space_group_name_H-M "I M M A"
_symmetry_group_IT_number 74
_symmetry_cell_setting 'orthorhombic'
loop_
_space_group_symop_operation_xyz
x,y,z
-x,1/2-y,z
x,-y,-z
-x,1/2+y,-z
-x,-y,-z
x,1/2+y,-z
-x,y,z
x,1/2-y,z
1/2+x,1/2+y,1/2+z
1/2-x,-y,1/2+z
1/2+x,1/2-y,1/2-z
1/2-x,y,1/2-z
1/2-x,1/2-y,1/2-z
1/2+x,y,1/2-z
1/2-x,1/2+y,1/2+z
1/2+x,-y,1/2+z
loop_
_atom_site_type_symbol
_atom_site_label
_atom_site_fract_x
_atom_site_fract_y
_atom_site_fract_z
Si Si1 0.223896 0.344825 0.381282
Si Si2 0.223280 0.074632 0.890965
Si Si3 0.950671 0.847596 0.032358
Si Si4 0.950482 0.847803 0.717691
Si Si5 0.632623 0.347958 0.711789
Si Si6 0.370608 0.348040 0.031476
O O1 0.217635 0.250000 0.346893
O O2 0.250000 0.386989 0.250000
O O3 0.249893 0.353525 0.528435
O O4 0.174289 0.384084 0.395499
O O5 0.250000 0.050714 0.750000
O O6 0.174048 0.106666 0.859080
O O7 0.221525 0.000000 0.000000
O O8 0.950617 0.750000 0.032011
O O9 0.912292 0.879983 0.135566
O O10 0.000000 0.878765 0.081626
O O11 0.940771 0.879969 0.875056
O O12 0.947737 0.750000 0.715629
O O13 0.913392 0.885083 0.612921
O O14 0.000000 0.876121 0.668557
O O15 0.639146 0.250000 0.698372
O O16 0.627875 0.377509 0.871378
O O17 0.370519 0.250000 0.036674
#
# Coordination Sequence:
#
# PCOD8300010 Si02
#       6
#    16  16  16  16  16  16
#     4  10  21  36  57  84 111 142 182 229 279 335
#     4  12  25  42  58  77 111 148 192 234 288 340
#     4   8  15  28  48  79 116 148 179 218 268 327
#     4   8  14  25  42  69 109 148 175 210 265 326
#     4  10  20  34  57  85 112 145 183 229 281 332
#     4   9  17  29  47  75 107 139 177 220 268 323
#
# _framework density 20.730934999999999
#
# number of rings (size 3 to 8) (size 9 to 14) (size 15 to 20)
#    0.000    2.500    1.667    2.000    2.333    1.333 
#    0.000    3.333    0.000    0.500    0.000    0.000 
#    0.000    4.000    0.000    0.000    0.000    0.000 
#
# Total GULP energy -594961.923997 kJ/mol
# GULP energy per Si atom -12395.040083 kJ/mol
# Density = 2.068375 g / cm^3
# Si number density = 20.730935 Si / 1000 Ang^3
#
#
#
# Elastic Constant Matrix: (Units=GPa)
#
#
# Indices 1 2 3 4 5 6 
#
# 1 228.5386 17.2146 122.5599 0.0000 0.0000 0.0000
# 2 17.2146 15.7769 18.8876 0.0000 0.0000 0.0000
# 3 122.5599 18.8876 165.8524 0.0000 0.0000 0.0000
# 4 0.0000 0.0000 0.0000 6.6000 0.0000 0.0000
# 5 0.0000 0.0000 0.0000 0.0000 48.8882 0.0000
# 6 0.0000 0.0000 0.0000 0.0000 0.0000 5.8858
#
#
#
# Elastic Compliance Matrix: (Units=1/GPa)
#
#
# Indices 1 2 3 4 5 6 
#
# 1 0.007289 -0.001742 -0.005188 0.000000 0.000000 0.000000
# 2 -0.001742 0.073806 -0.007118 0.000000 0.000000 0.000000
# 3 -0.005188 -0.007118 0.010674 0.000000 0.000000 0.000000
# 4 0.000000 0.000000 0.000000 0.151516 0.000000 0.000000
# 5 0.000000 0.000000 0.000000 0.000000 0.020455 0.000000
# 6 0.000000 0.000000 0.000000 0.000000 0.000000 0.169900
#
#
# Mechanical properties :
#
#
# Convention : Reuss Voigt Hill
#
# Bulk Modulus (GPa) = 15.70524 80.83244 48.26884
# Shear Modulus (GPa) = 10.35281 29.04185 19.69733
#
# Velocity S-wave (km/s) = 2.23713 3.74691 3.08578
# Velocity P-wave (km/s) = 3.77693 7.60230 6.00251
#
# Compressibility (1/GPa) = 0.06367303
#
# Stress axis : x y z
#
# Youngs Moduli (GPa) = 137.19190 13.54900 93.68753
#
# Poissons Ratio (x) = 0.02361 0.48605
# Poissons Ratio (y) = 0.23904 0.66683
# Poissons Ratio (z) = 0.71175 0.09644
#
# Static dielectric constant tensor:
#      x y z
#    x 4.213280 0.000000 0.000000 
#    y 0.000000 3.110040 0.000000 
#    z 0.000000 0.000000 4.007610 
# 
# 
# High freq. dielectric constant tensor:
#      x y z
#    x 1.827810 0.000000 0.000000 
#    y 0.000000 1.755500 0.000000 
#    z 0.000000 0.000000 1.817570 
# 
# From -- ./inp_files/15111.got.cif
#   From: 2010.03.12/outbox.cif.g09.slc.cpg/sg74_8_cif.got.tgz:15111.got - 2010.04.16 15:46:19.
