data_PCOD8300246
_publ_section_title
;
Structure prediction by ZEFSAII (Michael W. Deem and Ramdas Pophale) SiO2 
 PCOD8300246
Probable space group: I M M A
;
_chemical_formula_sum "Si O2"
_cell_formula_units_Z 80
_cell_length_a 23.527011
_cell_length_b 33.639910
_cell_length_c 4.924364
_cell_angle_alpha 90.000000
_cell_angle_beta 90.000000
_cell_angle_gamma 90.000000
_cell_volume 3897.370813
_symmetry_space_group_name_H-M "I M M A"
_symmetry_group_IT_number 74
_symmetry_cell_setting 'orthorhombic'
loop_
_space_group_symop_operation_xyz
x,y,z
-x,1/2-y,z
x,-y,-z
-x,1/2+y,-z
-x,-y,-z
x,1/2+y,-z
-x,y,z
x,1/2-y,z
1/2+x,1/2+y,1/2+z
1/2-x,-y,1/2+z
1/2+x,1/2-y,1/2-z
1/2-x,y,1/2-z
1/2-x,1/2-y,1/2-z
1/2+x,y,1/2-z
1/2-x,1/2+y,1/2+z
1/2+x,-y,1/2+z
loop_
_atom_site_type_symbol
_atom_site_label
_atom_site_fract_x
_atom_site_fract_y
_atom_site_fract_z
Si Si1 0.064676 0.388991 0.153980
Si Si2 0.287227 0.931204 0.004907
Si Si3 0.211148 0.705532 0.509164
Si Si4 0.631078 0.637850 0.145689
Si Si5 0.608040 0.474451 0.236237
O O1 0.078652 0.373084 0.452141
O O2 0.072714 0.436644 0.158618
O O3 0.000000 0.379255 0.078099
O O4 0.106804 0.365948 0.949812
O O5 0.250000 0.950021 0.250000
O O6 0.316300 0.891880 0.121727
O O7 0.250000 0.917962 0.750000
O O8 0.333215 0.962840 0.908225
O O9 0.191176 0.750000 0.593043
O O10 0.250000 0.686781 0.750000
O O11 0.154242 0.681140 0.435735
O O12 0.250000 0.706949 0.250000
O O13 0.621724 0.500000 0.500000
O O14 0.575054 0.500000 0.000000
#
# Coordination Sequence:
#
# PCOD8300246 Si02
#       5
#    16  16  16  16  16
#     4  11  24  41  61  81 105 147 196 244 294 334
#     4  11  21  35  55  79 110 148 180 215 273 341
#     4  10  20  35  60  94 127 157 186 222 277 340
#     4  11  21  38  60  84 116 147 190 237 275 337
#     4  11  23  39  56  80 109 141 188 240 290 345
#
# _framework density 20.526658000000001
#
# number of rings (size 3 to 8) (size 9 to 14) (size 15 to 20)
#    0.000    1.200    0.000    9.000    0.000    2.400 
#    0.000    2.000    0.000    3.600    0.000    0.000 
#    0.000    0.000    0.000    0.000    0.000    0.000 
#
# Total GULP energy -496001.814033 kJ/mol
# GULP energy per Si atom -12400.045351 kJ/mol
# Density = 2.047994 g / cm^3
# Si number density = 20.526658 Si / 1000 Ang^3
#
#
#
# Elastic Constant Matrix: (Units=GPa)
#
#
# Indices 1 2 3 4 5 6 
#
# 1 84.1950 24.8298 17.7948 0.0000 0.0000 0.0000
# 2 24.8298 88.8075 11.7273 0.0000 0.0000 0.0000
# 3 17.7948 11.7273 108.8551 0.0000 0.0000 0.0000
# 4 0.0000 0.0000 0.0000 34.7815 0.0000 0.0000
# 5 0.0000 0.0000 0.0000 0.0000 30.1582 0.0000
# 6 0.0000 0.0000 0.0000 0.0000 0.0000 9.3434
#
#
#
# Elastic Compliance Matrix: (Units=1/GPa)
#
#
# Indices 1 2 3 4 5 6 
#
# 1 0.013282 -0.003476 -0.001797 0.000000 0.000000 0.000000
# 2 -0.003476 0.012333 -0.000760 0.000000 0.000000 0.000000
# 3 -0.001797 -0.000760 0.009562 0.000000 0.000000 0.000000
# 4 0.000000 0.000000 0.000000 0.028751 0.000000 0.000000
# 5 0.000000 0.000000 0.000000 0.000000 0.033159 0.000000
# 6 0.000000 0.000000 0.000000 0.000000 0.000000 0.107027
#
#
# Mechanical properties :
#
#
# Convention : Reuss Voigt Hill
#
# Bulk Modulus (GPa) = 43.27107 43.39572 43.33339
# Shear Modulus (GPa) = 22.33305 30.02366 26.17836
#
# Velocity S-wave (km/s) = 3.30207 3.82863 3.57506
# Velocity P-wave (km/s) = 5.97197 6.38213 6.18045
#
# Compressibility (1/GPa) = 0.02311013
#
# Stress axis : x y z
#
# Youngs Moduli (GPa) = 75.28913 81.08554 104.57885
#
# Poissons Ratio (x) = 0.28188 0.18790
# Poissons Ratio (y) = 0.26173 0.07952
# Poissons Ratio (z) = 0.13528 0.06165
#
# Static dielectric constant tensor:
#      x y z
#    x 3.455860 0.000000 0.000000 
#    y 0.000000 3.884380 0.000000 
#    z 0.000000 0.000000 3.968430 
# 
# 
# High freq. dielectric constant tensor:
#      x y z
#    x 1.781000 0.000000 0.000000 
#    y 0.000000 1.787640 0.000000 
#    z 0.000000 0.000000 1.829290 
# 
# From -- ./inp_files/3839.got.cif
#   From: 2010.03.12/outbox.cif.g09.slc.cpg/sg74_2_cif.got.tgz:3839.got - 2010.04.16 15:46:19.
