data_PCOD8300040
_publ_section_title
;
Structure prediction by ZEFSAII (Michael W. Deem and Ramdas Pophale) SiO2 
 PCOD8300040
Probable space group: I M M A
;
_chemical_formula_sum "Si O2"
_cell_formula_units_Z 112
_cell_length_a 27.348487
_cell_length_b 14.539509
_cell_length_c 16.089773
_cell_angle_alpha 90.000000
_cell_angle_beta 90.000000
_cell_angle_gamma 90.000000
_cell_volume 6397.833925
_symmetry_space_group_name_H-M "I M M A"
_symmetry_group_IT_number 74
_symmetry_cell_setting 'orthorhombic'
loop_
_space_group_symop_operation_xyz
x,y,z
-x,1/2-y,z
x,-y,-z
-x,1/2+y,-z
-x,-y,-z
x,1/2+y,-z
-x,y,z
x,1/2-y,z
1/2+x,1/2+y,1/2+z
1/2-x,-y,1/2+z
1/2+x,1/2-y,1/2-z
1/2-x,y,1/2-z
1/2-x,1/2-y,1/2-z
1/2+x,y,1/2-z
1/2-x,1/2+y,1/2+z
1/2+x,-y,1/2+z
loop_
_atom_site_type_symbol
_atom_site_label
_atom_site_fract_x
_atom_site_fract_y
_atom_site_fract_z
Si Si1 0.143094 0.143427 0.069972
Si Si2 0.053335 0.020907 0.095166
Si Si3 0.306487 0.357900 0.598116
Si Si4 0.346252 0.145537 0.780637
Si Si5 0.243171 0.149605 0.153590
Si Si6 0.290694 0.524768 0.089139
Si Si7 0.054252 0.352690 0.789326
O O1 0.130735 0.250000 0.075935
O O2 0.096658 0.092741 0.110279
O O3 0.189114 0.116171 0.127389
O O4 0.154113 0.115217 0.973562
O O5 0.000000 0.058764 0.126481
O O6 0.065481 0.924663 0.138820
O O7 0.048900 0.000000 0.000000
O O8 0.293956 0.250000 0.592067
O O9 0.326131 0.383749 0.689591
O O10 0.258103 0.415371 0.578356
O O11 0.329507 0.250000 0.799842
O O12 0.327665 0.079127 0.852252
O O13 0.405102 0.136305 0.782379
O O14 0.252990 0.250000 0.111026
O O15 0.250000 0.161992 0.250000
O O16 0.282254 0.074690 0.127815
O O17 0.314263 0.500000 0.000000
O O18 0.059542 0.250000 0.828712
O O19 0.000000 0.366095 0.750550
#
# Coordination Sequence:
#
# PCOD8300040 Si02
#       7
#    16  16  16  16  16  16  16
#     4  10  21  35  53  74 105 146 185 222 261 303
#     4  10  21  32  49  75 105 141 180 218 257 306
#     4  10  20  35  52  76 108 144 177 215 263 311
#     4  10  21  35  56  83 107 132 173 218 263 319
#     4  10  22  37  51  71  99 143 188 215 246 304
#     4  12  23  33  53  77 106 141 167 216 265 313
#     4   9  19  36  56  78 105 136 169 215 273 324
#
# _framework density 17.505925000000001
#
# number of rings (size 3 to 8) (size 9 to 14) (size 15 to 20)
#    0.000    1.857    1.429    2.571    6.000    3.714 
#    0.000    1.429    0.000    0.429    0.000    0.000 
#    0.000    0.000    0.000    0.000    0.000    0.000 
#
# Total GULP energy -694071.370818 kJ/mol
# GULP energy per Si atom -12394.131622 kJ/mol
# Density = 1.746608 g / cm^3
# Si number density = 17.505925 Si / 1000 Ang^3
#
#
#
# Elastic Constant Matrix: (Units=GPa)
#
#
# Indices 1 2 3 4 5 6 
#
# 1 104.8827 62.0577 55.4902 0.0000 0.0000 0.0000
# 2 62.0577 98.0909 51.8537 0.0000 0.0000 0.0000
# 3 55.4902 51.8537 95.7738 0.0000 0.0000 0.0000
# 4 0.0000 0.0000 0.0000 26.2008 0.0000 0.0000
# 5 0.0000 0.0000 0.0000 0.0000 22.3377 0.0000
# 6 0.0000 0.0000 0.0000 0.0000 0.0000 30.4032
#
#
#
# Elastic Compliance Matrix: (Units=1/GPa)
#
#
# Indices 1 2 3 4 5 6 
#
# 1 0.017213 -0.007871 -0.005712 0.000000 0.000000 0.000000
# 2 -0.007871 0.017881 -0.005121 0.000000 0.000000 0.000000
# 3 -0.005712 -0.005121 0.016523 0.000000 0.000000 0.000000
# 4 0.000000 0.000000 0.000000 0.038167 0.000000 0.000000
# 5 0.000000 0.000000 0.000000 0.000000 0.044767 0.000000
# 6 0.000000 0.000000 0.000000 0.000000 0.000000 0.032891
#
#
# Mechanical properties :
#
#
# Convention : Reuss Voigt Hill
#
# Bulk Modulus (GPa) = 70.36970 70.83896 70.60433
# Shear Modulus (GPa) = 23.85639 24.41140 24.13389
#
# Velocity S-wave (km/s) = 3.69556 3.73830 3.71700
# Velocity P-wave (km/s) = 7.64817 7.69329 7.67077
#
# Compressibility (1/GPa) = 0.01421066
#
# Stress axis : x y z
#
# Youngs Moduli (GPa) = 58.09405 55.92477 60.52059
#
# Poissons Ratio (x) = 0.44017 0.34569
# Poissons Ratio (y) = 0.45724 0.30993
# Poissons Ratio (z) = 0.33183 0.28639
#
# Static dielectric constant tensor:
#      x y z
#    x 3.480430 0.000000 0.000000 
#    y 0.000000 3.729130 0.000000 
#    z 0.000000 0.000000 2.749880 
# 
# 
# High freq. dielectric constant tensor:
#      x y z
#    x 1.667280 0.000000 0.000000 
#    y 0.000000 1.693740 0.000000 
#    z 0.000000 0.000000 1.648450 
# 
# From -- ./inp_files/37375.got.cif
#   From: 2010.03.12/outbox.cif.g09.slc.cpg/sg74_19_cif.got.tgz:37375.got - 2010.04.16 15:46:19.
