data_PCOD8300215
_publ_section_title
;
Structure prediction by ZEFSAII (Michael W. Deem and Ramdas Pophale) SiO2 
 PCOD8300215
Probable space group: I M M A
;
_chemical_formula_sum "Si O2"
_cell_formula_units_Z 96
_cell_length_a 18.498821
_cell_length_b 25.842216
_cell_length_c 9.772517
_cell_angle_alpha 90.000000
_cell_angle_beta 90.000000
_cell_angle_gamma 90.000000
_cell_volume 4671.756912
_symmetry_space_group_name_H-M "I M M A"
_symmetry_group_IT_number 74
_symmetry_cell_setting 'orthorhombic'
loop_
_space_group_symop_operation_xyz
x,y,z
-x,1/2-y,z
x,-y,-z
-x,1/2+y,-z
-x,-y,-z
x,1/2+y,-z
-x,y,z
x,1/2-y,z
1/2+x,1/2+y,1/2+z
1/2-x,-y,1/2+z
1/2+x,1/2-y,1/2-z
1/2-x,y,1/2-z
1/2-x,1/2-y,1/2-z
1/2+x,y,1/2-z
1/2-x,1/2+y,1/2+z
1/2+x,-y,1/2+z
loop_
_atom_site_type_symbol
_atom_site_label
_atom_site_fract_x
_atom_site_fract_y
_atom_site_fract_z
Si Si1 0.585222 0.191691 0.922868
Si Si2 0.815196 0.474273 0.850348
Si Si3 0.585521 0.361845 0.190807
Si Si4 0.827091 0.355362 0.802276
Si Si5 0.585779 0.523661 0.857524
Si Si6 0.082676 0.809385 0.963407
O O1 0.500000 0.186366 0.907135
O O2 0.610383 0.250000 0.885292
O O3 0.619733 0.147757 0.827198
O O4 0.610660 0.179191 0.076827
O O5 0.750000 0.491003 0.750000
O O6 0.819582 0.412477 0.865354
O O7 0.888235 0.492387 0.775730
O O8 0.806771 0.500000 0.000000
O O9 0.500000 0.364495 0.194659
O O10 0.616770 0.418233 0.154604
O O11 0.613168 0.343285 0.338016
O O12 0.750000 0.334215 0.750000
O O13 0.861521 0.317570 0.914185
O O14 0.500000 0.521726 0.856076
O O15 0.615907 0.500000 0.000000
O O16 0.083755 0.750000 0.918295
O O17 0.000000 0.825157 0.004504
#
# Coordination Sequence:
#
# PCOD8300215 Si02
#       6
#    16  16  16  16  16  16
#     4  10  20  36  60  86 112 147 188 228 273 328
#     4  11  24  41  60  82 111 149 192 237 285 340
#     4   9  18  34  57  86 116 145 185 233 276 325
#     4  11  24  39  55  81 113 147 185 230 285 335
#     4  10  20  35  58  87 118 152 187 230 284 336
#     4  10  20  36  59  84 112 149 190 231 276 328
#
# _framework density 20.549014
#
# number of rings (size 3 to 8) (size 9 to 14) (size 15 to 20)
#    0.000    1.833    0.000    4.000    0.000    9.000 
#    0.000    0.833    0.000    2.000    0.000    0.000 
#    0.000    0.000    0.000    0.000    0.000    0.000 
#
# Total GULP energy -595157.718002 kJ/mol
# GULP energy per Si atom -12399.119125 kJ/mol
# Density = 2.050224 g / cm^3
# Si number density = 20.549014 Si / 1000 Ang^3
#
#
#
# Elastic Constant Matrix: (Units=GPa)
#
#
# Indices 1 2 3 4 5 6 
#
# 1 54.9751 44.4768 53.1495 0.0000 0.0000 0.0000
# 2 44.4768 90.3379 50.6143 0.0000 0.0000 0.0000
# 3 53.1495 50.6143 154.5139 0.0000 0.0000 0.0000
# 4 0.0000 0.0000 0.0000 39.4232 0.0000 0.0000
# 5 0.0000 0.0000 0.0000 0.0000 10.6064 0.0000
# 6 0.0000 0.0000 0.0000 0.0000 0.0000 20.6106
#
#
#
# Elastic Compliance Matrix: (Units=1/GPa)
#
#
# Indices 1 2 3 4 5 6 
#
# 1 0.037369 -0.013713 -0.008362 0.000000 0.000000 0.000000
# 2 -0.013713 0.018590 -0.001373 0.000000 0.000000 0.000000
# 3 -0.008362 -0.001373 0.009798 0.000000 0.000000 0.000000
# 4 0.000000 0.000000 0.000000 0.025366 0.000000 0.000000
# 5 0.000000 0.000000 0.000000 0.000000 0.094282 0.000000
# 6 0.000000 0.000000 0.000000 0.000000 0.000000 0.048519
#
#
# Mechanical properties :
#
#
# Convention : Reuss Voigt Hill
#
# Bulk Modulus (GPa) = 53.01838 66.25645 59.63742
# Shear Modulus (GPa) = 17.41519 24.23381 20.82450
#
# Velocity S-wave (km/s) = 2.91434 3.43784 3.18686
# Velocity P-wave (km/s) = 6.09766 6.93336 6.52889
#
# Compressibility (1/GPa) = 0.01886138
#
# Stress axis : x y z
#
# Youngs Moduli (GPa) = 26.76040 53.79242 102.06260
#
# Poissons Ratio (x) = 0.73765 0.85345
# Poissons Ratio (y) = 0.36696 0.14009
# Poissons Ratio (z) = 0.22377 0.07384
#
# Static dielectric constant tensor:
#      x y z
#    x 3.559310 0.000000 0.000000 
#    y 0.000000 3.839660 0.000000 
#    z 0.000000 0.000000 3.863840 
# 
# 
# High freq. dielectric constant tensor:
#      x y z
#    x 1.780270 0.000000 0.000000 
#    y 0.000000 1.809130 0.000000 
#    z 0.000000 0.000000 1.814490 
# 
# From -- ./inp_files/12691.got.cif
#   From: 2010.03.12/outbox.cif.g09.slc.cpg/sg74_7_cif.got.tgz:12691.got - 2010.04.16 15:46:19.
