data_PCOD8300178
_publ_section_title
;
Structure prediction by ZEFSAII (Michael W. Deem and Ramdas Pophale) SiO2 
 PCOD8300178
Probable space group: I M M A
;
_chemical_formula_sum "Si O2"
_cell_formula_units_Z 96
_cell_length_a 23.803164
_cell_length_b 19.470606
_cell_length_c 11.319413
_cell_angle_alpha 90.000000
_cell_angle_beta 90.000000
_cell_angle_gamma 90.000000
_cell_volume 5246.118102
_symmetry_space_group_name_H-M "I M M A"
_symmetry_group_IT_number 74
_symmetry_cell_setting 'orthorhombic'
loop_
_space_group_symop_operation_xyz
x,y,z
-x,1/2-y,z
x,-y,-z
-x,1/2+y,-z
-x,-y,-z
x,1/2+y,-z
-x,y,z
x,1/2-y,z
1/2+x,1/2+y,1/2+z
1/2-x,-y,1/2+z
1/2+x,1/2-y,1/2-z
1/2-x,y,1/2-z
1/2-x,1/2-y,1/2-z
1/2+x,y,1/2-z
1/2-x,1/2+y,1/2+z
1/2+x,-y,1/2+z
loop_
_atom_site_type_symbol
_atom_site_label
_atom_site_fract_x
_atom_site_fract_y
_atom_site_fract_z
Si Si1 0.878157 0.058379 0.100070
Si Si2 0.304596 0.035081 0.184775
Si Si3 0.000000 0.168550 0.824481
Si Si4 0.695700 0.896184 0.053299
Si Si5 0.500000 0.924327 0.549965
Si Si6 0.686594 0.670193 0.461362
Si Si7 0.617553 0.329996 0.770435
O O1 0.855906 0.027579 0.223462
O O2 0.942183 0.083716 0.123731
O O3 0.839685 0.123318 0.064380
O O4 0.874417 0.000000 0.000000
O O5 0.250000 0.065138 0.250000
O O6 0.286689 0.962963 0.127461
O O7 0.321836 0.086958 0.080711
O O8 0.945540 0.143375 0.752660
O O9 0.000000 0.250000 0.846549
O O10 0.000000 0.133758 0.951192
O O11 0.747455 0.843443 0.055166
O O12 0.640435 0.863808 0.110769
O O13 0.500000 0.000000 0.500000
O O14 0.676990 0.750000 0.493726
O O15 0.656373 0.650066 0.339801
O O16 0.617070 0.250000 0.792118
#
# Coordination Sequence:
#
# PCOD8300178 Si02
#       7
#    16  16   8  16   8  16  16
#     4  11  21  38  59  86 117 150 192 238 290 346
#     4  11  22  36  56  82 113 157 194 227 288 347
#     4  10  20  36  59  85 113 149 192 240 291 338
#     4  11  22  36  55  83 118 152 188 237 285 351
#     4  10  22  34  59  89 112 147 187 242 287 335
#     4  11  21  35  59  89 116 145 186 242 298 344
#     4  10  20  35  57  83 111 145 188 237 290 339
#
# _framework density 18.299244999999999
#
# number of rings (size 3 to 8) (size 9 to 14) (size 15 to 20)
#    0.000    1.333    3.333    4.000    2.333    1.333 
#    0.000    3.333    0.000    2.000    0.000    0.000 
#    0.000    0.000    0.000    0.000    0.000    0.000 
#
# Total GULP energy -595268.155859 kJ/mol
# GULP energy per Si atom -12401.419914 kJ/mol
# Density = 1.825759 g / cm^3
# Si number density = 18.299245 Si / 1000 Ang^3
#
#
#
# Elastic Constant Matrix: (Units=GPa)
#
#
# Indices 1 2 3 4 5 6 
#
# 1 135.3520 23.6242 50.2343 0.0000 0.0000 0.0000
# 2 23.6242 52.1479 25.2047 0.0000 0.0000 0.0000
# 3 50.2343 25.2047 104.2567 0.0000 0.0000 0.0000
# 4 0.0000 0.0000 0.0000 28.3580 0.0000 0.0000
# 5 0.0000 0.0000 0.0000 0.0000 2.2639 0.0000
# 6 0.0000 0.0000 0.0000 0.0000 0.0000 24.6496
#
#
#
# Elastic Compliance Matrix: (Units=1/GPa)
#
#
# Indices 1 2 3 4 5 6 
#
# 1 0.009235 -0.002302 -0.003893 0.000000 0.000000 0.000000
# 2 -0.002302 0.022287 -0.004279 0.000000 0.000000 0.000000
# 3 -0.003893 -0.004279 0.012502 0.000000 0.000000 0.000000
# 4 0.000000 0.000000 0.000000 0.035263 0.000000 0.000000
# 5 0.000000 0.000000 0.000000 0.000000 0.441714 0.000000
# 6 0.000000 0.000000 0.000000 0.000000 0.000000 0.040569
#
#
# Mechanical properties :
#
#
# Convention : Reuss Voigt Hill
#
# Bulk Modulus (GPa) = 43.33498 54.43147 48.88322
# Shear Modulus (GPa) = 8.47156 23.90054 16.18605
#
# Velocity S-wave (km/s) = 2.15395 3.61791 2.97731
# Velocity P-wave (km/s) = 5.46980 6.87475 6.21212
#
# Compressibility (1/GPa) = 0.02307604
#
# Stress axis : x y z
#
# Youngs Moduli (GPa) = 108.28597 44.86886 79.98710
#
# Poissons Ratio (x) = 0.10328 0.31140
# Poissons Ratio (y) = 0.24926 0.34226
# Poissons Ratio (z) = 0.42157 0.19199
#
# Static dielectric constant tensor:
#      x y z
#    x 3.732360 0.000000 0.000000 
#    y 0.000000 3.359740 0.000000 
#    z 0.000000 0.000000 3.282030 
# 
# 
# High freq. dielectric constant tensor:
#      x y z
#    x 1.715890 0.000000 0.000000 
#    y 0.000000 1.709410 0.000000 
#    z 0.000000 0.000000 1.688550 
# 
# From -- ./inp_files/23966.got.cif
#   From: 2010.03.12/outbox.cif.g09.slc.cpg/sg74_12_cif.got.tgz:23966.got - 2010.04.16 15:46:19.
