data_PCOD8300416
_publ_section_title
;
Structure prediction by ZEFSAII (Michael W. Deem and Ramdas Pophale) SiO2 
 PCOD8300416
Probable space group: I M M A
;
_chemical_formula_sum "Si O2"
_cell_formula_units_Z 96
_cell_length_a 14.219237
_cell_length_b 22.744245
_cell_length_c 14.668965
_cell_angle_alpha 90.000000
_cell_angle_beta 90.000000
_cell_angle_gamma 90.000000
_cell_volume 4744.028508
_symmetry_space_group_name_H-M "I M M A"
_symmetry_group_IT_number 74
_symmetry_cell_setting 'orthorhombic'
loop_
_space_group_symop_operation_xyz
x,y,z
-x,1/2-y,z
x,-y,-z
-x,1/2+y,-z
-x,-y,-z
x,1/2+y,-z
-x,y,z
x,1/2-y,z
1/2+x,1/2+y,1/2+z
1/2-x,-y,1/2+z
1/2+x,1/2-y,1/2-z
1/2-x,y,1/2-z
1/2-x,1/2-y,1/2-z
1/2+x,y,1/2-z
1/2-x,1/2+y,1/2+z
1/2+x,-y,1/2+z
loop_
_atom_site_type_symbol
_atom_site_label
_atom_site_fract_x
_atom_site_fract_y
_atom_site_fract_z
Si Si1 0.225818 0.425623 0.152368
Si Si2 0.889117 0.629240 0.000225
Si Si3 0.896931 0.750000 0.070686
Si Si4 0.395841 0.432680 0.019644
Si Si5 0.388464 0.954257 0.333712
Si Si6 0.107695 0.877635 0.336967
Si Si7 0.857294 0.750000 0.273196
O O1 0.250000 0.397387 0.250000
O O2 0.156156 0.383459 0.097304
O O3 0.326160 0.428417 0.103871
O O4 0.174609 0.487880 0.167418
O O5 0.000000 0.634593 0.987898
O O6 0.844930 0.690605 0.037967
O O7 0.865949 0.577645 0.071184
O O8 0.913304 0.750000 0.179084
O O9 0.000000 0.750000 0.026271
O O10 0.500000 0.405957 0.043351
O O11 0.410455 0.500000 0.000000
O O12 0.347383 0.400301 0.931969
O O13 0.500000 0.969085 0.326084
O O14 0.352484 0.911544 0.251995
O O15 0.118294 0.807563 0.331091
O O16 0.000000 0.895905 0.343090
O O17 0.750000 0.750000 0.250000
#
# Coordination Sequence:
#
# PCOD8300416 Si02
#       7
#    16  16   8  16  16  16   8
#     4  12  25  38  57  83 117 157 204 259 295 340
#     4  10  21  38  63  90 119 153 193 245 301 361
#     4  10  20  40  63  88 122 156 189 235 305 374
#     4  10  22  39  58  80 114 163 206 243 290 351
#     4  10  20  36  61  92 123 154 190 240 304 369
#     4  10  21  39  61  87 126 163 194 235 293 369
#     4  12  24  32  58  98 129 160 188 233 294 370
#
# _framework density 20.235966000000001
#
# number of rings (size 3 to 8) (size 9 to 14) (size 15 to 20)
#    0.000    1.500    1.667    3.750    2.333    6.000 
#    0.000    0.417    0.000    0.000    0.000    2.333 
#    0.000    0.000    0.000    0.000    0.000    0.000 
#
# Total GULP energy -595045.711612 kJ/mol
# GULP energy per Si atom -12396.785659 kJ/mol
# Density = 2.018991 g / cm^3
# Si number density = 20.235966 Si / 1000 Ang^3
#
#
#
# Elastic Constant Matrix: (Units=GPa)
#
#
# Indices 1 2 3 4 5 6 
#
# 1 63.3701 14.5948 40.3677 -0.0001 0.0004 0.0000
# 2 14.5948 107.5124 51.9729 -0.0005 0.0024 0.0001
# 3 40.3677 51.9729 150.4803 -0.0007 0.0031 0.0002
# 4 -0.0001 -0.0005 -0.0007 34.7930 0.0028 0.0001
# 5 0.0004 0.0024 0.0031 0.0028 91.2659 -0.0007
# 6 0.0000 0.0001 0.0002 0.0001 -0.0007 19.0168
#
#
#
# Elastic Compliance Matrix: (Units=1/GPa)
#
#
# Indices 1 2 3 4 5 6 
#
# 1 0.019034 -0.000139 -0.005058 0.000000 0.000000 0.000000
# 2 -0.000139 0.011166 -0.003819 0.000000 0.000000 0.000000
# 3 -0.005058 -0.003819 0.009321 0.000000 0.000000 0.000000
# 4 0.000000 0.000000 0.000000 0.028741 -0.000001 0.000000
# 5 0.000000 0.000000 0.000000 -0.000001 0.010957 0.000000
# 6 0.000000 0.000000 0.000000 0.000000 0.000000 0.052585
#
#
# Mechanical properties :
#
#
# Convention : Reuss Voigt Hill
#
# Bulk Modulus (GPa) = 46.53426 59.47040 53.00233
# Shear Modulus (GPa) = 31.84677 43.31031 37.57854
#
# Velocity S-wave (km/s) = 3.97138 4.63132 4.31399
# Velocity P-wave (km/s) = 6.63889 7.61913 7.14584
#
# Compressibility (1/GPa) = 0.02148954
#
# Stress axis : x y z
#
# Youngs Moduli (GPa) = 52.53637 89.55385 107.27904
#
# Poissons Ratio (x) = 0.01242 0.54265
# Poissons Ratio (y) = 0.00729 0.40975
# Poissons Ratio (z) = 0.26574 0.34205
#
# Static dielectric constant tensor:
#      x y z
#    x 3.834110 0.000000 -0.000010 
#    y 0.000000 3.615890 0.000280 
#    z -0.000010 0.000280 -9.338580 
# 
# 
# High freq. dielectric constant tensor:
#      x y z
#    x 1.803460 0.000000 0.000000 
#    y 0.000000 1.773560 0.000000 
#    z 0.000000 0.000000 1.781270 
# 
# From -- ./inp_files/32461.got.cif
#   From: 2010.03.12/outbox.cif.g09.slc.cpg/sg74_17_cif.got.tgz:32461.got - 2010.04.16 15:46:19.
