data_PCOD8300387
_publ_section_title
;
Structure prediction by ZEFSAII (Michael W. Deem and Ramdas Pophale) SiO2 
 PCOD8300387
Probable space group: I M M A
;
_chemical_formula_sum "Si O2"
_cell_formula_units_Z 80
_cell_length_a 25.873174
_cell_length_b 17.191552
_cell_length_c 8.882011
_cell_angle_alpha 90.000000
_cell_angle_beta 90.000000
_cell_angle_gamma 90.000000
_cell_volume 3950.718637
_symmetry_space_group_name_H-M "I M M A"
_symmetry_group_IT_number 74
_symmetry_cell_setting 'orthorhombic'
loop_
_space_group_symop_operation_xyz
x,y,z
-x,1/2-y,z
x,-y,-z
-x,1/2+y,-z
-x,-y,-z
x,1/2+y,-z
-x,y,z
x,1/2-y,z
1/2+x,1/2+y,1/2+z
1/2-x,-y,1/2+z
1/2+x,1/2-y,1/2-z
1/2-x,y,1/2-z
1/2-x,1/2-y,1/2-z
1/2+x,y,1/2-z
1/2-x,1/2+y,1/2+z
1/2+x,-y,1/2+z
loop_
_atom_site_type_symbol
_atom_site_label
_atom_site_fract_x
_atom_site_fract_y
_atom_site_fract_z
Si Si1 0.247049 0.836861 0.427770
Si Si2 0.349990 0.585278 0.942510
Si Si3 0.943296 0.658397 0.399613
Si Si4 0.942679 0.842137 0.065424
Si Si5 0.346245 0.342265 0.375293
O O1 0.231902 0.750000 0.480085
O O2 0.250000 0.841428 0.250000
O O3 0.202066 0.894611 0.471597
O O4 0.300798 0.860467 0.506025
O O5 0.338445 0.601145 0.767059
O O6 0.364731 0.500000 0.000000
O O7 0.399423 0.636977 0.982420
O O8 0.945108 0.750000 0.388179
O O9 0.931043 0.624580 0.232745
O O10 0.000000 0.627978 0.453101
O O11 0.939717 0.750000 0.071981
O O12 0.000000 0.868996 0.011931
O O13 0.899629 0.871658 0.949564
O O14 0.346986 0.250000 0.332268
#
# Coordination Sequence:
#
# PCOD8300387 Si02
#       5
#    16  16  16  16  16
#     4  10  21  39  63  85 107 142 191 243 289 338
#     4  12  25  37  52  80 119 156 186 225 280 342
#     4   9  18  36  61  83 107 145 192 238 282 332
#     4   8  15  31  58  88 110 133 177 236 290 336
#     4  10  20  36  60  86 112 144 187 238 284 333
#
# _framework density 20.249480999999999
#
# number of rings (size 3 to 8) (size 9 to 14) (size 15 to 20)
#    0.000    2.200    0.000    4.800    0.000    7.600 
#    0.000    5.000    0.000    2.400    0.000    0.000 
#    0.000    0.000    0.000    0.000    0.000    0.000 
#
# Total GULP energy -495776.933648 kJ/mol
# GULP energy per Si atom -12394.423341 kJ/mol
# Density = 2.020339 g / cm^3
# Si number density = 20.249481 Si / 1000 Ang^3
#
#
#
# Elastic Constant Matrix: (Units=GPa)
#
#
# Indices 1 2 3 4 5 6 
#
# 1 136.9941 22.6249 48.1417 0.0000 0.0000 0.0000
# 2 22.6249 28.1097 30.8798 0.0000 0.0000 0.0000
# 3 48.1417 30.8798 99.8324 0.0000 0.0000 0.0000
# 4 0.0000 0.0000 0.0000 3.1632 0.0000 0.0000
# 5 0.0000 0.0000 0.0000 0.0000 334.0353 0.0000
# 6 0.0000 0.0000 0.0000 0.0000 0.0000 5.8315
#
#
#
# Elastic Compliance Matrix: (Units=1/GPa)
#
#
# Indices 1 2 3 4 5 6 
#
# 1 0.009045 -0.003769 -0.003196 0.000000 0.000000 0.000000
# 2 -0.003769 0.055456 -0.015336 0.000000 0.000000 0.000000
# 3 -0.003196 -0.015336 0.016301 0.000000 0.000000 0.000000
# 4 0.000000 0.000000 0.000000 0.316136 0.000000 0.000000
# 5 0.000000 0.000000 0.000000 0.000000 0.002994 0.000000
# 6 0.000000 0.000000 0.000000 0.000000 0.000000 0.171481
#
#
# Mechanical properties :
#
#
# Convention : Reuss Voigt Hill
#
# Bulk Modulus (GPa) = 27.62392 52.02543 39.82468
# Shear Modulus (GPa) = 7.96075 79.49199 43.72637
#
# Velocity S-wave (km/s) = 1.98491 6.27228 4.65196
# Velocity P-wave (km/s) = 4.35024 8.84327 6.96879
#
# Compressibility (1/GPa) = 0.03620051
#
# Stress axis : x y z
#
# Youngs Moduli (GPa) = 110.55597 18.03237 61.34410
#
# Poissons Ratio (x) = 0.06797 0.19605
# Poissons Ratio (y) = 0.41674 0.94075
# Poissons Ratio (z) = 0.35332 0.27654
#
# Static dielectric constant tensor:
#      x y z
#    x 3.973890 0.000000 0.000000 
#    y 0.000000 3.281830 0.000000 
#    z 0.000000 0.000000 3.786050 
# 
# 
# High freq. dielectric constant tensor:
#      x y z
#    x 1.811990 0.000000 0.000000 
#    y 0.000000 1.745800 0.000000 
#    z 0.000000 0.000000 1.793010 
# 
# From -- ./inp_files/14923.got.cif
#   From: 2010.03.12/outbox.cif.g09.slc.cpg/sg74_8_cif.got.tgz:14923.got - 2010.04.16 15:46:19.
