data_PCOD8300374
_publ_section_title
;
Structure prediction by ZEFSAII (Michael W. Deem and Ramdas Pophale) SiO2 
 PCOD8300374
Probable space group: I M M A
;
_chemical_formula_sum "Si O2"
_cell_formula_units_Z 64
_cell_length_a 21.213096
_cell_length_b 16.464289
_cell_length_c 8.844745
_cell_angle_alpha 90.000000
_cell_angle_beta 90.000000
_cell_angle_gamma 90.000000
_cell_volume 3089.102753
_symmetry_space_group_name_H-M "I M M A"
_symmetry_group_IT_number 74
_symmetry_cell_setting 'orthorhombic'
loop_
_space_group_symop_operation_xyz
x,y,z
-x,1/2-y,z
x,-y,-z
-x,1/2+y,-z
-x,-y,-z
x,1/2+y,-z
-x,y,z
x,1/2-y,z
1/2+x,1/2+y,1/2+z
1/2-x,-y,1/2+z
1/2+x,1/2-y,1/2-z
1/2-x,y,1/2-z
1/2-x,1/2-y,1/2-z
1/2+x,y,1/2-z
1/2-x,1/2+y,1/2+z
1/2+x,-y,1/2+z
loop_
_atom_site_type_symbol
_atom_site_label
_atom_site_fract_x
_atom_site_fract_y
_atom_site_fract_z
Si Si1 0.000000 0.912124 0.083550
Si Si2 0.114442 0.657240 0.618673
Si Si3 0.121958 0.091965 0.056897
Si Si4 0.758235 0.085470 0.425359
Si Si5 0.500000 0.910213 0.059945
O O1 0.000000 0.916720 0.261464
O O2 0.063775 0.864534 0.030810
O O3 0.000000 0.000000 0.000000
O O4 0.107679 0.750000 0.672043
O O5 0.107271 0.598745 0.764104
O O6 0.183279 0.645200 0.542391
O O7 0.061799 0.636971 0.495456
O O8 0.192007 0.127160 0.018530
O O9 0.124208 0.000000 0.000000
O O10 0.750000 0.066852 0.250000
O O11 0.773831 0.000000 0.500000
O O12 0.500000 0.000000 0.000000
#
# Coordination Sequence:
#
# PCOD8300374 Si02
#       5
#     8  16  16  16   8
#     4  10  20  36  59  87 113 144 196 248 290 340
#     4  11  23  39  60  89 125 161 199 251 312 362
#     4   9  18  36  60  88 119 154 202 250 299 362
#     4   9  19  34  58  87 116 153 201 251 297 359
#     4  12  23  38  63  89 118 156 201 248 294 360
#
# _framework density 20.717988999999999
#
# number of rings (size 3 to 8) (size 9 to 14) (size 15 to 20)
#    0.000    2.000    0.000    4.875    0.000   10.500 
#    0.000    2.500    0.000    5.250    0.000    0.000 
#    0.000    0.000    0.000    0.000    0.000    0.000 
#
# Total GULP energy -396464.706780 kJ/mol
# GULP energy per Si atom -12389.522087 kJ/mol
# Density = 2.067083 g / cm^3
# Si number density = 20.717989 Si / 1000 Ang^3
#
#
#
# Elastic Constant Matrix: (Units=GPa)
#
#
# Indices 1 2 3 4 5 6 
#
# 1 228.1637 39.1461 84.6000 0.0000 0.0000 0.0000
# 2 39.1461 68.1256 32.0502 0.0000 0.0000 0.0000
# 3 84.6000 32.0502 113.5057 0.0000 0.0000 0.0000
# 4 0.0000 0.0000 0.0000 16.9179 0.0000 0.0000
# 5 0.0000 0.0000 0.0000 0.0000 21.6503 0.0000
# 6 0.0000 0.0000 0.0000 0.0000 0.0000 -12.8148
#
#
#
# Elastic Compliance Matrix: (Units=1/GPa)
#
#
# Indices 1 2 3 4 5 6 
#
# 1 0.006205 -0.001603 -0.004172 0.000000 0.000000 0.000000
# 2 -0.001603 0.017341 -0.003702 0.000000 0.000000 0.000000
# 3 -0.004172 -0.003702 0.012965 0.000000 0.000000 0.000000
# 4 0.000000 0.000000 0.000000 0.059109 0.000000 0.000000
# 5 0.000000 0.000000 0.000000 0.000000 0.046189 0.000000
# 6 0.000000 0.000000 0.000000 0.000000 0.000000 -0.078035
#
#
# Mechanical properties :
#
#
# Convention : Reuss Voigt Hill
#
# Bulk Modulus (GPa) = 56.95560 80.15416 68.55488
# Shear Modulus (GPa) = 56.44601 22.08393 39.26497
#
# Velocity S-wave (km/s) = 5.22533 3.26840 4.35813
# Velocity P-wave (km/s) = 7.99725 7.28117 7.64760
#
# Compressibility (1/GPa) = 0.01755754
#
# Stress axis : x y z
#
# Youngs Moduli (GPa) = 161.16741 57.66574 77.13002
#
# Poissons Ratio (x) = 0.09241 0.32179
# Poissons Ratio (y) = 0.25828 0.28555
# Poissons Ratio (z) = 0.67241 0.21349
#
# Static dielectric constant tensor:
#      x y z
#    x 5.491630 0.000000 0.000000 
#    y 0.000000 3.323780 0.000000 
#    z 0.000000 0.000000 3.774640 
# 
# 
# High freq. dielectric constant tensor:
#      x y z
#    x 1.855080 0.000000 0.000000 
#    y 0.000000 1.762550 0.000000 
#    z 0.000000 0.000000 1.797750 
# 
# From -- ./inp_files/11834.got.cif
#   From: 2010.03.12/outbox.cif.g09.slc.cpg/sg74_6_cif.got.tgz:11834.got - 2010.04.16 15:46:19.
