data_PCOD8300057
_publ_section_title
;
Structure prediction by ZEFSAII (Michael W. Deem and Ramdas Pophale) SiO2 
 PCOD8300057
Probable space group: I M M A
;
_chemical_formula_sum "Si O2"
_cell_formula_units_Z 92
_cell_length_a 16.952834
_cell_length_b 10.489703
_cell_length_c 28.938468
_cell_angle_alpha 90.000000
_cell_angle_beta 90.000000
_cell_angle_gamma 90.000000
_cell_volume 5146.133369
_symmetry_space_group_name_H-M "I M M A"
_symmetry_group_IT_number 74
_symmetry_cell_setting 'orthorhombic'
loop_
_space_group_symop_operation_xyz
x,y,z
-x,1/2-y,z
x,-y,-z
-x,1/2+y,-z
-x,-y,-z
x,1/2+y,-z
-x,y,z
x,1/2-y,z
1/2+x,1/2+y,1/2+z
1/2-x,-y,1/2+z
1/2+x,1/2-y,1/2-z
1/2-x,y,1/2-z
1/2-x,1/2-y,1/2-z
1/2+x,y,1/2-z
1/2-x,1/2+y,1/2+z
1/2+x,-y,1/2+z
loop_
_atom_site_type_symbol
_atom_site_label
_atom_site_fract_x
_atom_site_fract_y
_atom_site_fract_z
Si Si1 0.356786 0.750000 0.679141
Si Si2 0.908305 0.250000 0.280053
Si Si3 0.000000 0.250000 0.108915
Si Si4 0.338698 0.601036 0.458172
Si Si5 0.000000 0.488315 0.945481
Si Si6 0.275800 0.945699 0.800664
Si Si7 0.209502 0.605390 0.388057
Si Si8 0.591970 0.894388 0.035411
O O1 0.410009 0.750000 0.724847
O O2 0.418697 0.750000 0.637604
O O3 0.297867 0.869486 0.678047
O O4 0.858484 0.370570 0.297881
O O5 0.000000 0.250000 0.297837
O O6 0.000000 0.372811 0.076847
O O7 0.335336 0.500000 0.500000
O O8 0.323586 0.750000 0.473497
O O9 0.422485 0.591559 0.431668
O O10 0.275394 0.547167 0.421816
O O11 0.000000 0.500000 0.000000
O O12 0.250000 0.996034 0.750000
O O13 0.293417 0.057049 0.836046
O O14 0.232070 0.750000 0.382131
O O15 0.126172 0.582388 0.413504
O O16 0.500000 0.914287 0.040456
O O17 0.612917 0.750000 0.018094
O O18 0.626933 0.000000 0.000000
#
# Coordination Sequence:
#
# PCOD8300057 Si02
#       8
#     8   8   4  16   8  16  16  16
#     4   9  18  34  55  79 103 132 180 222 273 309
#     4   9  17  34  56  80 106 135 166 223 276 315
#     4  12  20  32  58  78  98 148 190 224 262 344
#     4  10  21  36  54  74 107 143 182 231 271 317
#     4  10  23  32  48  74 106 134 180 222 278 314
#     4   9  19  35  53  78 112 138 169 224 271 317
#     4  10  20  35  53  78 104 142 182 213 263 324
#     4   9  18  34  54  76 108 141 177 223 267 312
#
# _framework density 17.877500000000001
#
# number of rings (size 3 to 8) (size 9 to 14) (size 15 to 20)
#    0.000    2.435    0.435    2.870    4.870    1.043 
#    6.261    0.000    0.000    0.000    0.000    0.000 
#    0.000    0.000    0.000    0.000    0.000    0.000 
#
# Total GULP energy -569872.769128 kJ/mol
# GULP energy per Si atom -12388.538459 kJ/mol
# Density = 1.783681 g / cm^3
# Si number density = 17.877500 Si / 1000 Ang^3
#
#
#
# Elastic Constant Matrix: (Units=GPa)
#
#
# Indices 1 2 3 4 5 6 
#
# 1 105.4362 33.9555 45.3093 0.0000 0.0000 0.0000
# 2 33.9555 75.3985 58.7607 0.0000 0.0000 0.0000
# 3 45.3093 58.7607 115.1737 0.0000 0.0000 0.0000
# 4 0.0000 0.0000 0.0000 36.0751 0.0000 0.0000
# 5 0.0000 0.0000 0.0000 0.0000 21.2385 0.0000
# 6 0.0000 0.0000 0.0000 0.0000 0.0000 17.0094
#
#
#
# Elastic Compliance Matrix: (Units=1/GPa)
#
#
# Indices 1 2 3 4 5 6 
#
# 1 0.011761 -0.002807 -0.003195 0.000000 0.000000 0.000000
# 2 -0.002807 0.022687 -0.010470 0.000000 0.000000 0.000000
# 3 -0.003195 -0.010470 0.015281 0.000000 0.000000 0.000000
# 4 0.000000 0.000000 0.000000 0.027720 0.000000 0.000000
# 5 0.000000 0.000000 0.000000 0.000000 0.047084 0.000000
# 6 0.000000 0.000000 0.000000 0.000000 0.000000 0.058791
#
#
# Mechanical properties :
#
#
# Convention : Reuss Voigt Hill
#
# Bulk Modulus (GPa) = 59.57612 63.56213 61.56912
# Shear Modulus (GPa) = 22.53633 25.39682 23.96657
#
# Velocity S-wave (km/s) = 3.55434 3.77318 3.66539
# Velocity P-wave (km/s) = 7.08812 7.39012 7.24070
#
# Compressibility (1/GPa) = 0.01678525
#
# Stress axis : x y z
#
# Youngs Moduli (GPa) = 85.02484 44.07828 65.43921
#
# Poissons Ratio (x) = 0.12372 0.20907
# Poissons Ratio (y) = 0.23865 0.68518
# Poissons Ratio (z) = 0.27164 0.46152
#
# Static dielectric constant tensor:
#      x y z
#    x 3.702040 0.000000 0.000000 
#    y 0.000000 3.253450 0.000000 
#    z 0.000000 0.000000 3.214670 
# 
# 
# High freq. dielectric constant tensor:
#      x y z
#    x 1.710040 0.000000 0.000000 
#    y 0.000000 1.680870 0.000000 
#    z 0.000000 0.000000 1.677350 
# 
# From -- ./inp_files/67740.got.cif
#   From: 2010.03.12/outbox.cif.g09.slc.cpg/sg74_34_cif.got.tgz:67740.got - 2010.04.16 15:46:19.
