data_PCOD8300499
_publ_section_title
;
Structure prediction by ZEFSAII (Michael W. Deem and Ramdas Pophale) SiO2 
 PCOD8300499
Probable space group: I M M A
;
_chemical_formula_sum "Si O2"
_cell_formula_units_Z 64
_cell_length_a 11.573205
_cell_length_b 8.071429
_cell_length_c 35.701857
_cell_angle_alpha 90.000000
_cell_angle_beta 90.000000
_cell_angle_gamma 90.000000
_cell_volume 3334.992664
_symmetry_space_group_name_H-M "I M M A"
_symmetry_group_IT_number 74
_symmetry_cell_setting 'orthorhombic'
loop_
_space_group_symop_operation_xyz
x,y,z
-x,1/2-y,z
x,-y,-z
-x,1/2+y,-z
-x,-y,-z
x,1/2+y,-z
-x,y,z
x,1/2-y,z
1/2+x,1/2+y,1/2+z
1/2-x,-y,1/2+z
1/2+x,1/2-y,1/2-z
1/2-x,y,1/2-z
1/2-x,1/2-y,1/2-z
1/2+x,y,1/2-z
1/2-x,1/2+y,1/2+z
1/2+x,-y,1/2+z
loop_
_atom_site_type_symbol
_atom_site_label
_atom_site_fract_x
_atom_site_fract_y
_atom_site_fract_z
Si Si1 0.798165 0.563677 0.594975
Si Si2 0.138503 0.750000 0.722438
Si Si3 0.132420 0.934557 0.329244
Si Si4 0.635928 0.564181 0.460759
Si Si5 0.500000 0.055828 0.957312
O O1 0.821607 0.750000 0.608231
O O2 0.796505 0.453412 0.632397
O O3 0.675189 0.546672 0.574407
O O4 0.888603 0.511371 0.563673
O O5 0.250000 0.750000 0.750000
O O6 0.160414 0.580677 0.699740
O O7 0.000000 0.750000 0.737090
O O8 0.159521 0.750000 0.312308
O O9 0.000000 0.947618 0.341468
O O10 0.688359 0.500000 0.500000
O O11 0.500000 0.554366 0.462369
O O12 0.681435 0.750000 0.454578
O O13 0.500000 0.250000 0.955078
O O14 0.500000 0.000000 0.000000
#
# Coordination Sequence:
#
# PCOD8300499 Si02
#       5
#    16   8  16  16   8
#     4  12  22  35  56  82 113 150 197 249 300 358
#     4  10  22  42  68  98 130 164 204 248 312 380
#     4  10  20  37  62  92 123 159 198 242 299 369
#     4  10  21  37  54  73 103 148 201 253 306 360
#     4  12  24  36  50  78 116 156 198 251 309 350
#
# _framework density 19.190446999999999
#
# number of rings (size 3 to 8) (size 9 to 14) (size 15 to 20)
#    0.000    1.250    2.500    4.875    0.000    2.000 
#    0.000    1.250    0.000    1.500    0.000    0.000 
#    0.000    0.000    0.000    0.000    0.000    0.000 
#
# Total GULP energy -396575.398266 kJ/mol
# GULP energy per Si atom -12392.981196 kJ/mol
# Density = 1.914677 g / cm^3
# Si number density = 19.190447 Si / 1000 Ang^3
#
#
#
# Elastic Constant Matrix: (Units=GPa)
#
#
# Indices 1 2 3 4 5 6 
#
# 1 50.3588 29.7198 42.8516 0.0000 0.0000 0.0000
# 2 29.7198 150.7869 48.9262 0.0000 0.0000 0.0000
# 3 42.8516 48.9262 102.0292 0.0000 0.0000 0.0000
# 4 0.0000 0.0000 0.0000 28.6174 0.0000 0.0000
# 5 0.0000 0.0000 0.0000 0.0000 27.5020 0.0000
# 6 0.0000 0.0000 0.0000 0.0000 0.0000 20.1399
#
#
#
# Elastic Compliance Matrix: (Units=1/GPa)
#
#
# Indices 1 2 3 4 5 6 
#
# 1 0.031545 -0.002272 -0.012159 0.000000 0.000000 0.000000
# 2 -0.002272 0.008018 -0.002890 0.000000 0.000000 0.000000
# 3 -0.012159 -0.002890 0.016294 0.000000 0.000000 0.000000
# 4 0.000000 0.000000 0.000000 0.034944 0.000000 0.000000
# 5 0.000000 0.000000 0.000000 0.000000 0.036361 0.000000
# 6 0.000000 0.000000 0.000000 0.000000 0.000000 0.049653
#
#
# Mechanical properties :
#
#
# Convention : Reuss Voigt Hill
#
# Bulk Modulus (GPa) = 47.14065 60.68558 53.91312
# Shear Modulus (GPa) = 22.88034 27.36367 25.12200
#
# Velocity S-wave (km/s) = 3.45668 3.78021 3.62206
# Velocity P-wave (km/s) = 6.36785 7.12353 6.75627
#
# Compressibility (1/GPa) = 0.02121311
#
# Stress axis : x y z
#
# Youngs Moduli (GPa) = 31.70080 124.72615 61.37269
#
# Poissons Ratio (x) = 0.28340 0.74624
# Poissons Ratio (y) = 0.07203 0.17739
# Poissons Ratio (z) = 0.38545 0.36051
#
# Static dielectric constant tensor:
#      x y z
#    x 3.547370 0.000000 0.000000 
#    y 0.000000 3.926670 0.000000 
#    z 0.000000 0.000000 3.295880 
# 
# 
# High freq. dielectric constant tensor:
#      x y z
#    x 1.733950 0.000000 0.000000 
#    y 0.000000 1.771850 0.000000 
#    z 0.000000 0.000000 1.725550 
# 
# From -- ./inp_files/71302.got.cif
#   From: 2010.03.12/outbox.cif.g09.slc.cpg/sg74_36_cif.got.tgz:71302.got - 2010.04.16 15:46:19.
