data_PCOD8300932
_publ_section_title
;
Structure prediction by ZEFSAII (Michael W. Deem and Ramdas Pophale) SiO2 
 PCOD8300932
Probable space group: I M M A
;
_chemical_formula_sum "Si O2"
_cell_formula_units_Z 96
_cell_length_a 14.035129
_cell_length_b 15.865978
_cell_length_c 20.058144
_cell_angle_alpha 90.000000
_cell_angle_beta 90.000000
_cell_angle_gamma 90.000000
_cell_volume 4466.568526
_symmetry_space_group_name_H-M "I M M A"
_symmetry_group_IT_number 74
_symmetry_cell_setting 'orthorhombic'
loop_
_space_group_symop_operation_xyz
x,y,z
-x,1/2-y,z
x,-y,-z
-x,1/2+y,-z
-x,-y,-z
x,1/2+y,-z
-x,y,z
x,1/2-y,z
1/2+x,1/2+y,1/2+z
1/2-x,-y,1/2+z
1/2+x,1/2-y,1/2-z
1/2-x,y,1/2-z
1/2-x,1/2-y,1/2-z
1/2+x,y,1/2-z
1/2-x,1/2+y,1/2+z
1/2+x,-y,1/2+z
loop_
_atom_site_type_symbol
_atom_site_label
_atom_site_fract_x
_atom_site_fract_y
_atom_site_fract_z
Si Si1 0.390120 0.999531 0.300836
Si Si2 0.727016 0.841727 0.672968
Si Si3 0.393651 0.394079 0.080824
Si Si4 0.605489 0.845430 0.397414
Si Si5 0.300364 0.154562 0.949731
Si Si6 0.394555 0.940870 0.159762
O O1 0.500000 0.026223 0.293894
O O2 0.376518 0.912361 0.339326
O O3 0.347513 0.981747 0.226393
O O4 0.339406 0.076547 0.340459
O O5 0.678373 0.750000 0.656465
O O6 0.750000 0.843561 0.750000
O O7 0.823270 0.843694 0.629556
O O8 0.500000 0.353037 0.082204
O O9 0.401064 0.489758 0.102872
O O10 0.352571 0.398818 0.006123
O O11 0.500000 0.858910 0.428887
O O12 0.614500 0.750000 0.368048
O O13 0.685572 0.858569 0.454352
O O14 0.329239 0.250000 0.963755
O O15 0.331529 0.132263 0.873697
O O16 0.500000 0.905690 0.177539
#
# Coordination Sequence:
#
# PCOD8300932 Si02
#       6
#    16  16  16  16  16  16
#     4  10  21  40  64  89 122 161 201 252 304 353
#     4  11  23  38  61  89 117 157 204 249 299 356
#     4  11  23  41  62  86 120 160 200 244 300 362
#     4   9  20  39  63  90 119 156 203 251 303 359
#     4  11  23  37  58  88 121 158 198 245 299 359
#     4  10  21  37  59  86 119 160 200 243 296 356
#
# _framework density 21.493009000000001
#
# number of rings (size 3 to 8) (size 9 to 14) (size 15 to 20)
#    0.000    1.667    1.667    2.500    0.000    4.667 
#    0.000    5.833    0.000    6.000    0.000    0.000 
#    0.000    0.000    0.000    0.000    0.000    0.000 
#
# Total GULP energy -594868.875703 kJ/mol
# GULP energy per Si atom -12393.101577 kJ/mol
# Density = 2.144409 g / cm^3
# Si number density = 21.493009 Si / 1000 Ang^3
#
#
#
# Elastic Constant Matrix: (Units=GPa)
#
#
# Indices 1 2 3 4 5 6 
#
# 1 121.9946 49.4889 62.5337 0.0000 0.0000 0.0000
# 2 49.4889 95.3432 29.8848 0.0000 0.0000 0.0000
# 3 62.5337 29.8848 87.4422 0.0000 0.0000 0.0000
# 4 0.0000 0.0000 0.0000 385.8085 0.0000 0.0000
# 5 0.0000 0.0000 0.0000 0.0000 32.1736 0.0000
# 6 0.0000 0.0000 0.0000 0.0000 0.0000 27.0757
#
#
#
# Elastic Compliance Matrix: (Units=1/GPa)
#
#
# Indices 1 2 3 4 5 6 
#
# 1 0.014709 -0.004858 -0.008858 0.000000 0.000000 0.000000
# 2 -0.004858 0.013351 -0.001089 0.000000 0.000000 0.000000
# 3 -0.008858 -0.001089 0.018143 0.000000 0.000000 0.000000
# 4 0.000000 0.000000 0.000000 0.002592 0.000000 0.000000
# 5 0.000000 0.000000 0.000000 0.000000 0.031081 0.000000
# 6 0.000000 0.000000 0.000000 0.000000 0.000000 0.036933
#
#
# Mechanical properties :
#
#
# Convention : Reuss Voigt Hill
#
# Bulk Modulus (GPa) = 60.26780 65.39941 62.83360
# Shear Modulus (GPa) = 32.90522 99.86973 66.38748
#
# Velocity S-wave (km/s) = 3.91701 6.82400 5.56372
# Velocity P-wave (km/s) = 6.96842 9.62204 8.40067
#
# Compressibility (1/GPa) = 0.01659261
#
# Stress axis : x y z
#
# Youngs Moduli (GPa) = 67.98739 74.89891 55.11668
#
# Poissons Ratio (x) = 0.36386 0.48825
# Poissons Ratio (y) = 0.33028 0.06001
# Poissons Ratio (z) = 0.60226 0.08155
#
# Static dielectric constant tensor:
#      x y z
#    x 4.198150 0.000000 0.000000 
#    y 0.000000 4.030830 0.000000 
#    z 0.000000 0.000000 3.686480 
# 
# 
# High freq. dielectric constant tensor:
#      x y z
#    x 1.850290 0.000000 0.000000 
#    y 0.000000 1.847780 0.000000 
#    z 0.000000 0.000000 1.822490 
# 
# From -- ./inp_files/51896.got.cif
#   From: 2010.03.12/outbox.cif.g09.slc.cpg/sg74_26_cif.got.tgz:51896.got - 2010.04.16 15:46:19.
