data_PCOD8300228
_publ_section_title
;
Structure prediction by ZEFSAII (Michael W. Deem and Ramdas Pophale) SiO2 
 PCOD8300228
Probable space group: I M M A
;
_chemical_formula_sum "Si O2"
_cell_formula_units_Z 96
_cell_length_a 26.186403
_cell_length_b 18.058154
_cell_length_c 10.830763
_cell_angle_alpha 90.000000
_cell_angle_beta 90.000000
_cell_angle_gamma 90.000000
_cell_volume 5121.630608
_symmetry_space_group_name_H-M "I M M A"
_symmetry_group_IT_number 74
_symmetry_cell_setting 'orthorhombic'
loop_
_space_group_symop_operation_xyz
x,y,z
-x,1/2-y,z
x,-y,-z
-x,1/2+y,-z
-x,-y,-z
x,1/2+y,-z
-x,y,z
x,1/2-y,z
1/2+x,1/2+y,1/2+z
1/2-x,-y,1/2+z
1/2+x,1/2-y,1/2-z
1/2-x,y,1/2-z
1/2-x,1/2-y,1/2-z
1/2+x,y,1/2-z
1/2-x,1/2+y,1/2+z
1/2+x,-y,1/2+z
loop_
_atom_site_type_symbol
_atom_site_label
_atom_site_fract_x
_atom_site_fract_y
_atom_site_fract_z
Si Si1 0.309630 0.834163 0.241024
Si Si2 0.748415 0.437529 0.392296
Si Si3 0.556434 0.836786 0.900242
Si Si4 0.444654 0.837986 0.622997
Si Si5 0.160323 0.336423 0.016407
Si Si6 0.848897 0.085653 0.510340
O O1 0.321212 0.750000 0.197405
O O2 0.250000 0.847826 0.250000
O O3 0.333761 0.851071 0.372643
O O4 0.333238 0.893486 0.148798
O O5 0.743325 0.500000 0.500000
O O6 0.750000 0.468398 0.250000
O O7 0.701672 0.380773 0.403301
O O8 0.801814 0.394379 0.418369
O O9 0.500000 0.856497 0.952767
O O10 0.565079 0.750000 0.900836
O O11 0.561556 0.867950 0.761841
O O12 0.599645 0.871220 0.984141
O O13 0.500000 0.865495 0.569728
O O14 0.444722 0.750000 0.623435
O O15 0.396490 0.867163 0.545355
O O16 0.166954 0.250000 0.050146
O O17 0.861901 0.000000 0.500000
#
# Coordination Sequence:
#
# PCOD8300228 Si02
#       6
#    16  16  16  16  16  16
#     4  10  20  37  57  80 114 157 192 236 290 351
#     4  11  25  38  57  83 118 156 190 237 289 347
#     4   9  18  35  58  80 106 143 187 237 291 342
#     4   8  15  31  55  81 107 135 174 229 288 337
#     4  10  20  35  59  86 112 146 194 238 287 337
#     4  11  23  34  55  81 114 147 193 232 287 345
#
# _framework density 18.744031
#
# number of rings (size 3 to 8) (size 9 to 14) (size 15 to 20)
#    0.000    2.167    1.667    2.500    4.667    1.333 
#    0.000    0.833    0.000    3.500    0.000    0.000 
#    0.000    0.000    0.000    0.000    0.000    0.000 
#
# Total GULP energy -594917.573779 kJ/mol
# GULP energy per Si atom -12394.116120 kJ/mol
# Density = 1.870137 g / cm^3
# Si number density = 18.744031 Si / 1000 Ang^3
#
#
#
# Elastic Constant Matrix: (Units=GPa)
#
#
# Indices 1 2 3 4 5 6 
#
# 1 142.0480 30.2033 67.1147 0.0000 0.0000 0.0000
# 2 30.2033 48.3053 43.7664 0.0000 0.0000 0.0000
# 3 67.1147 43.7664 115.7585 0.0000 0.0000 0.0000
# 4 0.0000 0.0000 0.0000 49.1724 0.0000 0.0000
# 5 0.0000 0.0000 0.0000 0.0000 26.1953 0.0000
# 6 0.0000 0.0000 0.0000 0.0000 0.0000 25.4507
#
#
#
# Elastic Compliance Matrix: (Units=1/GPa)
#
#
# Indices 1 2 3 4 5 6 
#
# 1 0.009765 -0.001485 -0.005100 0.000000 0.000000 0.000000
# 2 -0.001485 0.031714 -0.011130 0.000000 0.000000 0.000000
# 3 -0.005100 -0.011130 0.015804 0.000000 0.000000 0.000000
# 4 0.000000 0.000000 0.000000 0.020337 0.000000 0.000000
# 5 0.000000 0.000000 0.000000 0.000000 0.038175 0.000000
# 6 0.000000 0.000000 0.000000 0.000000 0.000000 0.039292
#
#
# Mechanical properties :
#
#
# Convention : Reuss Voigt Hill
#
# Bulk Modulus (GPa) = 45.75953 65.36454 55.56203
# Shear Modulus (GPa) = 25.27800 31.16551 28.22176
#
# Velocity S-wave (km/s) = 3.67630 4.08203 3.88447
# Velocity P-wave (km/s) = 6.51813 7.56077 7.05873
#
# Compressibility (1/GPa) = 0.02185337
#
# Stress axis : x y z
#
# Youngs Moduli (GPa) = 102.40204 31.53189 63.27588
#
# Poissons Ratio (x) = 0.04682 0.32274
# Poissons Ratio (y) = 0.15204 0.70424
# Poissons Ratio (z) = 0.52230 0.35094
#
# Static dielectric constant tensor:
#      x y z
#    x 3.893320 0.000000 0.000000 
#    y 0.000000 3.208910 0.000000 
#    z 0.000000 0.000000 3.463140 
# 
# 
# High freq. dielectric constant tensor:
#      x y z
#    x 1.741880 0.000000 0.000000 
#    y 0.000000 1.702620 0.000000 
#    z 0.000000 0.000000 1.720100 
# 
# From -- ./inp_files/25184.got.cif
#   From: 2010.03.12/outbox.cif.g09.slc.cpg/sg74_13_cif.got.tgz:25184.got - 2010.04.16 15:46:19.
