data_PCOD8300414
_publ_section_title
;
Structure prediction by ZEFSAII (Michael W. Deem and Ramdas Pophale) SiO2 
 PCOD8300414
Probable space group: I M M A
;
_chemical_formula_sum "Si O2"
_cell_formula_units_Z 64
_cell_length_a 19.576595
_cell_length_b 16.674597
_cell_length_c 9.878005
_cell_angle_alpha 90.000000
_cell_angle_beta 90.000000
_cell_angle_gamma 90.000000
_cell_volume 3224.495271
_symmetry_space_group_name_H-M "I M M A"
_symmetry_group_IT_number 74
_symmetry_cell_setting 'orthorhombic'
loop_
_space_group_symop_operation_xyz
x,y,z
-x,1/2-y,z
x,-y,-z
-x,1/2+y,-z
-x,-y,-z
x,1/2+y,-z
-x,y,z
x,1/2-y,z
1/2+x,1/2+y,1/2+z
1/2-x,-y,1/2+z
1/2+x,1/2-y,1/2-z
1/2-x,y,1/2-z
1/2-x,1/2-y,1/2-z
1/2+x,y,1/2-z
1/2-x,1/2+y,1/2+z
1/2+x,-y,1/2+z
loop_
_atom_site_type_symbol
_atom_site_label
_atom_site_fract_x
_atom_site_fract_y
_atom_site_fract_z
Si Si1 0.000000 0.535327 0.356599
Si Si2 0.500000 0.426259 0.399973
Si Si3 0.738325 0.569495 0.096680
Si Si4 0.130887 0.838863 0.011190
Si Si5 0.887377 0.163335 0.676422
O O1 0.000000 0.500000 0.500000
O O2 0.933850 0.589275 0.355476
O O3 0.000000 0.463041 0.249745
O O4 0.500000 0.500000 0.500000
O O5 0.568715 0.374624 0.422226
O O6 0.750000 0.535652 0.250000
O O7 0.804591 0.601175 0.014470
O O8 0.687039 0.644071 0.115282
O O9 0.707617 0.500000 0.000000
O O10 0.149052 0.750000 0.952216
O O11 0.108093 0.827659 0.163858
O O12 0.909868 0.250000 0.614777
#
# Coordination Sequence:
#
# PCOD8300414 Si02
#       5
#     8   8  16  16  16
#     4  12  25  39  61  89 124 160 198 249 311 371
#     4  12  21  37  63  91 118 153 202 253 308 361
#     4  10  21  36  61  87 121 159 204 251 300 358
#     4  10  20  36  61  91 119 153 201 256 301 353
#     4  10  20  38  61  87 116 159 206 247 297 360
#
# _framework density 19.848068999999999
#
# number of rings (size 3 to 8) (size 9 to 14) (size 15 to 20)
#    0.000    1.500    2.500    3.000    3.500    5.000 
#    0.000    2.500    0.000    1.500    0.000    0.000 
#    0.000    0.000    0.000    0.000    0.000    0.000 
#
# Total GULP energy -396483.025742 kJ/mol
# GULP energy per Si atom -12390.094554 kJ/mol
# Density = 1.980289 g / cm^3
# Si number density = 19.848069 Si / 1000 Ang^3
#
#
#
# Elastic Constant Matrix: (Units=GPa)
#
#
# Indices 1 2 3 4 5 6 
#
# 1 104.5646 39.0106 39.1370 0.0000 0.0000 0.0000
# 2 39.0106 131.8297 62.6661 0.0000 0.0000 0.0000
# 3 39.1370 62.6661 88.8062 0.0000 0.0000 0.0000
# 4 0.0000 0.0000 0.0000 12.6263 0.0000 0.0000
# 5 0.0000 0.0000 0.0000 0.0000 47.4914 0.0000
# 6 0.0000 0.0000 0.0000 0.0000 0.0000 107.1349
#
#
#
# Elastic Compliance Matrix: (Units=1/GPa)
#
#
# Indices 1 2 3 4 5 6 
#
# 1 0.011650 -0.001515 -0.004065 0.000000 0.000000 0.000000
# 2 -0.001515 0.011611 -0.007526 0.000000 0.000000 0.000000
# 3 -0.004065 -0.007526 0.018363 0.000000 0.000000 0.000000
# 4 0.000000 0.000000 0.000000 0.079200 0.000000 0.000000
# 5 0.000000 0.000000 0.000000 0.000000 0.021056 0.000000
# 6 0.000000 0.000000 0.000000 0.000000 0.000000 0.009334
#
#
# Mechanical properties :
#
#
# Convention : Reuss Voigt Hill
#
# Bulk Modulus (GPa) = 64.88445 67.42532 66.15489
# Shear Modulus (GPa) = 27.38764 45.74296 36.56530
#
# Velocity S-wave (km/s) = 3.71868 4.80589 4.29681
# Velocity P-wave (km/s) = 7.15539 8.05232 7.61707
#
# Compressibility (1/GPa) = 0.01541201
#
# Stress axis : x y z
#
# Youngs Moduli (GPa) = 85.83512 86.12271 54.45853
#
# Poissons Ratio (x) = 0.13049 0.22138
# Poissons Ratio (y) = 0.13005 0.40985
# Poissons Ratio (z) = 0.34893 0.64815
#
# Static dielectric constant tensor:
#      x y z
#    x 3.723360 0.000000 0.000000 
#    y 0.000000 3.707000 0.000000 
#    z 0.000000 0.000000 3.463270 
# 
# 
# High freq. dielectric constant tensor:
#      x y z
#    x 1.779740 0.000000 0.000000 
#    y 0.000000 1.790940 0.000000 
#    z 0.000000 0.000000 1.741790 
# 
# From -- ./inp_files/10281.got.cif
#   From: 2010.03.12/outbox.cif.g09.slc.cpg/sg74_6_cif.got.tgz:10281.got - 2010.04.16 15:46:19.
