data_PCOD8301938
_publ_section_title
;
Structure prediction by ZEFSAII (Michael W. Deem and Ramdas Pophale) SiO2 
 PCOD8301938
Probable space group: P 41
;
_chemical_formula_sum "Si O2"
_cell_formula_units_Z 24
_cell_length_a 12.120584
_cell_length_b 12.120584
_cell_length_c 7.848640
_cell_angle_alpha 90.000000
_cell_angle_beta 90.000000
_cell_angle_gamma 90.000000
_cell_volume 1153.032373
_symmetry_space_group_name_H-M "P 41"
_symmetry_group_IT_number 76
_symmetry_cell_setting 'tetragonal'
loop_
_space_group_symop_operation_xyz
x,y,z
-y,x,1/4+z
-x,-y,1/2+z
y,-x,3/4+z
loop_
_atom_site_type_symbol
_atom_site_label
_atom_site_fract_x
_atom_site_fract_y
_atom_site_fract_z
Si Si1 0.454932 0.991531 0.337990
Si Si2 0.214464 0.780888 0.839146
Si Si3 0.373674 0.796822 0.544687
Si Si4 0.986811 0.675297 0.753642
Si Si5 0.594941 0.402566 0.830564
Si Si6 0.760629 0.428851 0.541210
O O1 0.399584 0.921159 0.488543
O O2 0.407401 0.949425 0.156470
O O3 0.589746 0.980472 0.350576
O O4 0.419260 0.117361 0.369001
O O5 0.260398 0.793863 0.648521
O O6 0.085145 0.754742 0.816702
O O7 0.240672 0.891120 0.946557
O O8 0.273186 0.681623 0.940297
O O9 0.365748 0.720480 0.377740
O O10 0.471231 0.751383 0.661273
O O11 0.472704 0.401653 0.753595
O O12 0.677136 0.453843 0.692781
#
# Coordination Sequence:
#
# PCOD8301938 Si02
#       6
#     4   4   4   4   4   4
#     4  11  22  41  70  95 125 172 229 265 322 388
#     4  11  23  44  64 100 133 169 224 274 333 386
#     4  12  23  40  66  95 128 169 221 276 324 392
#     4  11  23  43  71  98 135 178 220 282 331 395
#     4  12  26  39  58  91 136 173 206 261 346 414
#     4  11  23  41  67  91 129 169 218 278 324 391
#
# _framework density 20.814678000000001
#
# number of rings (size 3 to 8) (size 9 to 14) (size 15 to 20)
#    0.000    0.667    5.000    4.000    2.333    1.333 
#    0.000    3.333    0.000    0.000    0.000    0.000 
#    0.000    0.000    0.000    0.000    0.000    0.000 
#
# Total GULP energy -297625.910320 kJ/mol
# GULP energy per Si atom -12401.079597 kJ/mol
# Density = 2.076730 g / cm^3
# Si number density = 20.814678 Si / 1000 Ang^3
#
#
#
# Elastic Constant Matrix: (Units=GPa)
#
#
# Indices 1 2 3 4 5 6 
#
# 1 97.0917 29.8170 35.0455 0.0000 0.0000 -4.1560
# 2 29.8170 97.0917 35.0455 0.0000 0.0000 4.1560
# 3 35.0455 35.0455 81.4383 0.0000 0.0000 0.0000
# 4 0.0000 0.0000 0.0000 45.3036 0.0000 0.0000
# 5 0.0000 0.0000 0.0000 0.0000 45.3036 0.0000
# 6 -4.1560 4.1560 0.0000 0.0000 0.0000 32.5464
#
#
#
# Elastic Compliance Matrix: (Units=1/GPa)
#
#
# Indices 1 2 3 4 5 6 
#
# 1 0.012720 -0.002383 -0.004448 0.000000 0.000000 0.001929
# 2 -0.002383 0.012720 -0.004448 0.000000 0.000000 -0.001929
# 3 -0.004448 -0.004448 0.016108 0.000000 0.000000 0.000000
# 4 0.000000 0.000000 0.000000 0.022073 0.000000 0.000000
# 5 0.000000 0.000000 0.000000 0.000000 0.022073 0.000000
# 6 0.001929 -0.001929 0.000000 0.000000 0.000000 0.031218
#
#
# Mechanical properties :
#
#
# Convention : Reuss Voigt Hill
#
# Bulk Modulus (GPa) = 52.66494 52.82637 52.74566
# Shear Modulus (GPa) = 34.29381 36.34497 35.31939
#
# Velocity S-wave (km/s) = 4.06344 4.18320 4.12375
# Velocity P-wave (km/s) = 6.88274 6.98331 6.93321
#
# Compressibility (1/GPa) = 0.01898796
#
# Stress axis : x y z
#
# Youngs Moduli (GPa) = 78.61937 78.61937 62.08286
#
# Poissons Ratio (x) = 0.18737 0.27615
# Poissons Ratio (y) = 0.18737 0.27615
# Poissons Ratio (z) = 0.34970 0.34970
#
# Static dielectric constant tensor:
#      x y z
#    x 3.705670 0.000000 0.000000 
#    y 0.000000 3.705670 0.000000 
#    z 0.000000 0.000000 3.888810 
# 
# 
# High freq. dielectric constant tensor:
#      x y z
#    x 1.809590 0.000000 0.000000 
#    y 0.000000 1.809590 0.000000 
#    z 0.000000 0.000000 1.824890 
# 
# From -- ./inp_files/557.got.cif
#   From: 2010.03.12/outbox.cif.g09.slc.cpg/sg76_cif.got.tgz:557.got - 2010.04.16 16:34:25.
