data_PCOD8301466
_publ_section_title
;
Structure prediction by ZEFSAII (Michael W. Deem and Ramdas Pophale) SiO2 
 PCOD8301466
Probable space group: I M M A
;
_chemical_formula_sum "Si O2"
_cell_formula_units_Z 72
_cell_length_a 14.848101
_cell_length_b 10.294859
_cell_length_c 26.818106
_cell_angle_alpha 90.000000
_cell_angle_beta 90.000000
_cell_angle_gamma 90.000000
_cell_volume 4099.391713
_symmetry_space_group_name_H-M "I M M A"
_symmetry_group_IT_number 74
_symmetry_cell_setting 'orthorhombic'
loop_
_space_group_symop_operation_xyz
x,y,z
-x,1/2-y,z
x,-y,-z
-x,1/2+y,-z
-x,-y,-z
x,1/2+y,-z
-x,y,z
x,1/2-y,z
1/2+x,1/2+y,1/2+z
1/2-x,-y,1/2+z
1/2+x,1/2-y,1/2-z
1/2-x,y,1/2-z
1/2-x,1/2-y,1/2-z
1/2+x,y,1/2-z
1/2-x,1/2+y,1/2+z
1/2+x,-y,1/2+z
loop_
_atom_site_type_symbol
_atom_site_label
_atom_site_fract_x
_atom_site_fract_y
_atom_site_fract_z
Si Si1 0.355962 0.401473 0.369931
Si Si2 0.500000 0.099216 0.453889
Si Si3 0.897500 0.250000 0.451151
Si Si4 0.500000 0.095699 0.292685
Si Si5 0.000000 0.595165 0.679949
Si Si6 0.662190 0.016164 0.111648
Si Si7 0.897800 0.750000 0.431193
O O1 0.334282 0.250000 0.364867
O O2 0.411214 0.427694 0.420781
O O3 0.411818 0.453027 0.322264
O O4 0.262880 0.478856 0.367536
O O5 0.500000 0.250000 0.472222
O O6 0.500000 0.000000 0.500000
O O7 0.848330 0.121653 0.431982
O O8 0.894070 0.250000 0.509820
O O9 0.000000 0.250000 0.430892
O O10 0.500000 0.250000 0.294063
O O11 0.500000 0.042674 0.236555
O O12 0.909943 0.540422 0.654971
O O13 0.000000 0.750000 0.677570
O O14 0.652192 0.875102 0.088819
O O15 0.000000 0.750000 0.412055
#
# Coordination Sequence:
#
# PCOD8301466 Si02
#       7
#    16   8   8   8   8  16   8
#     4   9  18  36  57  80 114 143 180 232 281 319
#     4   9  19  36  56  80 110 149 185 225 273 322
#     4  11  20  36  54  76 110 146 186 225 268 321
#     4   8  18  34  58  87 108 138 180 239 287 318
#     4  11  19  33  58  86 110 138 187 230 279 337
#     4  12  20  36  56  81 114 144 186 230 272 330
#     4  11  24  36  52  78 114 158 182 217 278 335
#
# _framework density 17.563580999999999
#
# number of rings (size 3 to 8) (size 9 to 14) (size 15 to 20)
#    0.000    1.778    4.444    2.000    0.000    4.444 
#    2.000    3.333    0.000    4.000    0.000    0.000 
#    0.000    0.000    0.000    0.000    0.000    0.000 
#
# Total GULP energy -446422.316583 kJ/mol
# GULP energy per Si atom -12400.619905 kJ/mol
# Density = 1.752361 g / cm^3
# Si number density = 17.563581 Si / 1000 Ang^3
#
#
#
# Elastic Constant Matrix: (Units=GPa)
#
#
# Indices 1 2 3 4 5 6 
#
# 1 155.9554 42.5075 56.2523 0.0000 0.0000 0.0000
# 2 42.5075 102.6610 44.1097 0.0000 0.0000 0.0000
# 3 56.2523 44.1097 106.4287 0.0000 0.0000 0.0000
# 4 0.0000 0.0000 0.0000 6.5009 0.0000 0.0000
# 5 0.0000 0.0000 0.0000 0.0000 9.1178 0.0000
# 6 0.0000 0.0000 0.0000 0.0000 0.0000 24.7208
#
#
#
# Elastic Compliance Matrix: (Units=1/GPa)
#
#
# Indices 1 2 3 4 5 6 
#
# 1 0.008206 -0.001867 -0.003564 0.000000 0.000000 0.000000
# 2 -0.001867 0.012276 -0.004101 0.000000 0.000000 0.000000
# 3 -0.003564 -0.004101 0.012979 0.000000 0.000000 0.000000
# 4 0.000000 0.000000 0.000000 0.153826 0.000000 0.000000
# 5 0.000000 0.000000 0.000000 0.000000 0.109675 0.000000
# 6 0.000000 0.000000 0.000000 0.000000 0.000000 0.040452
#
#
# Mechanical properties :
#
#
# Convention : Reuss Voigt Hill
#
# Bulk Modulus (GPa) = 69.45262 72.30936 70.88099
# Shear Modulus (GPa) = 13.83980 22.87960 18.35970
#
# Velocity S-wave (km/s) = 2.81015 3.61317 3.23666
# Velocity P-wave (km/s) = 7.08228 7.65938 7.37647
#
# Compressibility (1/GPa) = 0.01439830
#
# Stress axis : x y z
#
# Youngs Moduli (GPa) = 121.85769 81.46096 77.04585
#
# Poissons Ratio (x) = 0.15206 0.27457
# Poissons Ratio (y) = 0.22747 0.31598
# Poissons Ratio (z) = 0.43427 0.33408
#
# Static dielectric constant tensor:
#      x y z
#    x 3.362340 0.000000 0.000000 
#    y 0.000000 3.065670 0.000000 
#    z 0.000000 0.000000 3.385840 
# 
# 
# High freq. dielectric constant tensor:
#      x y z
#    x 1.687960 0.000000 0.000000 
#    y 0.000000 1.654650 0.000000 
#    z 0.000000 0.000000 1.678070 
# 
# From -- ./inp_files/66836.got.cif
#   From: 2010.03.12/outbox.cif.g09.slc.cpg/sg74_34_cif.got.tgz:66836.got - 2010.04.16 15:46:19.
