data_PCOD8301374
_publ_section_title
;
Structure prediction by ZEFSAII (Michael W. Deem and Ramdas Pophale) SiO2 
 PCOD8301374
Probable space group: I M M A
;
_chemical_formula_sum "Si O2"
_cell_formula_units_Z 80
_cell_length_a 14.553862
_cell_length_b 16.353636
_cell_length_c 15.938403
_cell_angle_alpha 90.000000
_cell_angle_beta 90.000000
_cell_angle_gamma 90.000000
_cell_volume 3793.476371
_symmetry_space_group_name_H-M "I M M A"
_symmetry_group_IT_number 74
_symmetry_cell_setting 'orthorhombic'
loop_
_space_group_symop_operation_xyz
x,y,z
-x,1/2-y,z
x,-y,-z
-x,1/2+y,-z
-x,-y,-z
x,1/2+y,-z
-x,y,z
x,1/2-y,z
1/2+x,1/2+y,1/2+z
1/2-x,-y,1/2+z
1/2+x,1/2-y,1/2-z
1/2-x,y,1/2-z
1/2-x,1/2-y,1/2-z
1/2+x,y,1/2-z
1/2-x,1/2+y,1/2+z
1/2+x,-y,1/2+z
loop_
_atom_site_type_symbol
_atom_site_label
_atom_site_fract_x
_atom_site_fract_y
_atom_site_fract_z
Si Si1 0.849932 0.842340 0.789946
Si Si2 0.105625 0.657991 0.478519
Si Si3 0.102980 0.008701 0.098719
Si Si4 0.899858 0.938958 0.641370
Si Si5 0.230889 0.587181 0.339715
O O1 0.875629 0.750000 0.818361
O O2 0.750000 0.846495 0.750000
O O3 0.860489 0.902277 0.870286
O O4 0.914542 0.871089 0.713410
O O5 0.116458 0.750000 0.511354
O O6 0.136884 0.598960 0.554015
O O7 0.174754 0.646301 0.400991
O O8 0.000000 0.641210 0.451465
O O9 0.000000 0.995304 0.135248
O O10 0.168705 0.935606 0.127202
O O11 0.100781 0.000000 0.000000
O O12 0.000000 0.978419 0.623913
O O13 0.828867 0.005571 0.674614
O O14 0.250000 0.630214 0.250000
#
# Coordination Sequence:
#
# PCOD8301374 Si02
#       5
#    16  16  16  16  16
#     4  11  22  38  62  95 128 161 200 253 320 378
#     4  10  23  41  64  95 127 159 200 255 318 377
#     4  11  23  40  59  83 120 169 217 254 292 353
#     4  11  20  37  64  96 127 157 193 249 320 384
#     4  12  23  39  62  90 121 165 207 252 303 362
#
# _framework density 21.088835
#
# number of rings (size 3 to 8) (size 9 to 14) (size 15 to 20)
#    0.000    1.000    4.000    3.600    0.000    5.200 
#    0.000    0.000    0.000    1.800    0.000    0.000 
#    0.000    0.000    0.000    0.000    0.000    0.000 
#
# Total GULP energy -495807.587051 kJ/mol
# GULP energy per Si atom -12395.189676 kJ/mol
# Density = 2.104084 g / cm^3
# Si number density = 21.088835 Si / 1000 Ang^3
#
#
#
# Elastic Constant Matrix: (Units=GPa)
#
#
# Indices 1 2 3 4 5 6 
#
# 1 101.4934 13.0645 20.2413 0.0000 0.0000 0.0000
# 2 13.0645 63.1514 21.8478 0.0000 0.0000 0.0000
# 3 20.2413 21.8478 116.6644 0.0000 0.0000 0.0000
# 4 0.0000 0.0000 0.0000 31.2586 0.0000 0.0000
# 5 0.0000 0.0000 0.0000 0.0000 20.4532 0.0000
# 6 0.0000 0.0000 0.0000 0.0000 0.0000 13.7787
#
#
#
# Elastic Compliance Matrix: (Units=1/GPa)
#
#
# Indices 1 2 3 4 5 6 
#
# 1 0.010360 -0.001627 -0.001493 0.000000 0.000000 0.000000
# 2 -0.001627 0.017187 -0.002936 0.000000 0.000000 0.000000
# 3 -0.001493 -0.002936 0.009381 0.000000 0.000000 0.000000
# 4 0.000000 0.000000 0.000000 0.031991 0.000000 0.000000
# 5 0.000000 0.000000 0.000000 0.000000 0.048892 0.000000
# 6 0.000000 0.000000 0.000000 0.000000 0.000000 0.072576
#
#
# Mechanical properties :
#
#
# Convention : Reuss Voigt Hill
#
# Bulk Modulus (GPa) = 40.29688 43.51292 41.90490
# Shear Modulus (GPa) = 23.72244 28.17514 25.94879
#
# Velocity S-wave (km/s) = 3.35756 3.65913 3.51158
# Velocity P-wave (km/s) = 5.84642 6.20727 6.02955
#
# Compressibility (1/GPa) = 0.02481582
#
# Stress axis : x y z
#
# Youngs Moduli (GPa) = 96.52528 58.18213 106.60398
#
# Poissons Ratio (x) = 0.09465 0.15914
# Poissons Ratio (y) = 0.15703 0.31304
# Poissons Ratio (z) = 0.14409 0.17085
#
# Static dielectric constant tensor:
#      x y z
#    x 4.150730 0.000000 0.000000 
#    y 0.000000 3.653680 0.000000 
#    z 0.000000 0.000000 3.826140 
# 
# 
# High freq. dielectric constant tensor:
#      x y z
#    x 1.844690 0.000000 0.000000 
#    y 0.000000 1.797600 0.000000 
#    z 0.000000 0.000000 1.829740 
# 
# From -- ./inp_files/33963.got.cif
#   From: 2010.03.12/outbox.cif.g09.slc.cpg/sg74_17_cif.got.tgz:33963.got - 2010.04.16 15:46:19.
