data_PCOD8301442
_publ_section_title
;
Structure prediction by ZEFSAII (Michael W. Deem and Ramdas Pophale) SiO2 
 PCOD8301442
Probable space group: I M M A
;
_chemical_formula_sum "Si O2"
_cell_formula_units_Z 96
_cell_length_a 20.749316
_cell_length_b 18.536230
_cell_length_c 15.689765
_cell_angle_alpha 90.000000
_cell_angle_beta 90.000000
_cell_angle_gamma 90.000000
_cell_volume 6034.504746
_symmetry_space_group_name_H-M "I M M A"
_symmetry_group_IT_number 74
_symmetry_cell_setting 'orthorhombic'
loop_
_space_group_symop_operation_xyz
x,y,z
-x,1/2-y,z
x,-y,-z
-x,1/2+y,-z
-x,-y,-z
x,1/2+y,-z
-x,y,z
x,1/2-y,z
1/2+x,1/2+y,1/2+z
1/2-x,-y,1/2+z
1/2+x,1/2-y,1/2-z
1/2-x,y,1/2-z
1/2-x,1/2-y,1/2-z
1/2+x,y,1/2-z
1/2-x,1/2+y,1/2+z
1/2+x,-y,1/2+z
loop_
_atom_site_type_symbol
_atom_site_label
_atom_site_fract_x
_atom_site_fract_y
_atom_site_fract_z
Si Si1 0.875327 0.953289 0.584625
Si Si2 0.227836 0.832425 0.032858
Si Si3 0.811145 0.923302 0.189714
Si Si4 0.072147 0.424290 0.687293
Si Si5 0.233407 0.453470 0.084695
Si Si6 0.380522 0.667528 0.032926
O O1 0.804409 0.946950 0.627022
O O2 0.900902 0.874537 0.554381
O O3 0.870115 0.000000 0.500000
O O4 0.921117 0.993716 0.651736
O O5 0.206899 0.750000 0.021018
O O6 0.191524 0.864831 0.114318
O O7 0.304190 0.841371 0.047677
O O8 0.207516 0.874871 0.945603
O O9 0.750000 0.910560 0.250000
O O10 0.877930 0.909588 0.237298
O O11 0.811852 0.005262 0.152245
O O12 0.083134 0.365674 0.613607
O O13 0.000000 0.415398 0.723297
O O14 0.239727 0.500000 0.000000
O O15 0.401627 0.750000 0.022096
#
# Coordination Sequence:
#
# PCOD8301442 Si02
#       6
#    16  16  16  16  16  16
#     4   8  14  27  44  63  87 120 154 182 211 260
#     4   9  17  29  49  73  92 114 149 189 225 268
#     4  11  17  29  49  69  90 122 151 182 227 270
#     4  11  21  30  42  66  96 123 153 187 221 261
#     4   8  14  27  47  67  87 114 152 186 221 263
#     4   9  17  29  45  67  95 124 151 178 215 268
#
# _framework density 15.908514
#
# number of rings (size 3 to 8) (size 9 to 14) (size 15 to 20)
#    0.000    2.667    3.333    2.000    0.000    4.333 
#    0.000    0.000    0.000    6.000    0.000    0.000 
#    0.000    0.000    0.000    0.000    0.000    0.000 
#
# Total GULP energy -594781.935059 kJ/mol
# GULP energy per Si atom -12391.290314 kJ/mol
# Density = 1.587231 g / cm^3
# Si number density = 15.908514 Si / 1000 Ang^3
#
#
#
# Elastic Constant Matrix: (Units=GPa)
#
#
# Indices 1 2 3 4 5 6 
#
# 1 63.2956 25.1261 8.5923 0.0000 0.0000 0.0000
# 2 25.1261 127.2745 26.0539 0.0000 0.0000 0.0000
# 3 8.5923 26.0539 9.2614 0.0000 0.0000 0.0000
# 4 0.0000 0.0000 0.0000 19.3980 0.0000 0.0000
# 5 0.0000 0.0000 0.0000 0.0000 14.8881 0.0000
# 6 0.0000 0.0000 0.0000 0.0000 0.0000 9.3909
#
#
#
# Elastic Compliance Matrix: (Units=1/GPa)
#
#
# Indices 1 2 3 4 5 6 
#
# 1 0.018081 -0.000320 -0.015875 0.000000 0.000000 0.000000
# 2 -0.000320 0.018531 -0.051834 0.000000 0.000000 0.000000
# 3 -0.015875 -0.051834 0.268521 0.000000 0.000000 0.000000
# 4 0.000000 0.000000 0.000000 0.051552 0.000000 0.000000
# 5 0.000000 0.000000 0.000000 0.000000 0.067168 0.000000
# 6 0.000000 0.000000 0.000000 0.000000 0.000000 0.106486
#
#
# Mechanical properties :
#
#
# Convention : Reuss Voigt Hill
#
# Bulk Modulus (GPa) = 5.91453 35.48624 20.70039
# Shear Modulus (GPa) = 6.91798 18.07269 12.49534
#
# Velocity S-wave (km/s) = 2.08759 3.37417 2.80563
# Velocity P-wave (km/s) = 3.08814 6.12658 4.85137
#
# Compressibility (1/GPa) = 0.16907504
#
# Stress axis : x y z
#
# Youngs Moduli (GPa) = 55.30722 53.96389 3.72410
#
# Poissons Ratio (x) = 0.01725 0.05912
# Poissons Ratio (y) = 0.01768 0.19304
# Poissons Ratio (z) = 0.87801 2.79716
#
# Static dielectric constant tensor:
#      x y z
#    x 2.690970 0.000000 0.000000 
#    y 0.000000 3.443720 0.000000 
#    z 0.000000 0.000000 2.920300 
# 
# 
# High freq. dielectric constant tensor:
#      x y z
#    x 1.573230 0.000000 0.000000 
#    y 0.000000 1.612840 0.000000 
#    z 0.000000 0.000000 1.584500 
# 
# From -- ./inp_files/35632.got.cif
#   From: 2010.03.12/outbox.cif.g09.slc.cpg/sg74_18_cif.got.tgz:35632.got - 2010.04.16 15:46:19.
