data_PCOD8301143
_publ_section_title
;
Structure prediction by ZEFSAII (Michael W. Deem and Ramdas Pophale) SiO2 
 PCOD8301143
Probable space group: I M M A
;
_chemical_formula_sum "Si O2"
_cell_formula_units_Z 64
_cell_length_a 15.828087
_cell_length_b 27.711718
_cell_length_c 6.655359
_cell_angle_alpha 90.000000
_cell_angle_beta 90.000000
_cell_angle_gamma 90.000000
_cell_volume 2919.196748
_symmetry_space_group_name_H-M "I M M A"
_symmetry_group_IT_number 74
_symmetry_cell_setting 'orthorhombic'
loop_
_space_group_symop_operation_xyz
x,y,z
-x,1/2-y,z
x,-y,-z
-x,1/2+y,-z
-x,-y,-z
x,1/2+y,-z
-x,y,z
x,1/2-y,z
1/2+x,1/2+y,1/2+z
1/2-x,-y,1/2+z
1/2+x,1/2-y,1/2-z
1/2-x,y,1/2-z
1/2-x,1/2-y,1/2-z
1/2+x,y,1/2-z
1/2-x,1/2+y,1/2+z
1/2+x,-y,1/2+z
loop_
_atom_site_type_symbol
_atom_site_label
_atom_site_fract_x
_atom_site_fract_y
_atom_site_fract_z
Si Si1 0.250000 0.627542 0.250000
Si Si2 0.000000 0.450158 0.612874
Si Si3 0.500000 0.906070 0.708341
Si Si4 0.000000 0.197718 0.240982
Si Si5 0.138182 0.552413 0.053355
Si Si6 0.684337 0.804270 0.925162
O O1 0.207759 0.593125 0.083838
O O2 0.188948 0.661713 0.379468
O O3 0.000000 0.500000 0.500000
O O4 0.083224 0.447562 0.745799
O O5 0.000000 0.406237 0.451381
O O6 0.500000 0.851684 0.611300
O O7 0.582585 0.934226 0.638766
O O8 0.086017 0.194673 0.367076
O O9 0.000000 0.250000 0.123556
O O10 0.178330 0.500000 0.000000
O O11 0.710581 0.750000 0.986562
O O12 0.750000 0.821454 0.750000
#
# Coordination Sequence:
#
# PCOD8301143 Si02
#       6
#     8   8   8   8  16  16
#     4  12  25  40  60  90 132 174 211 264 326 390
#     4  11  19  39  69  84 114 164 211 270 339 374
#     4  11  20  41  67  86 122 161 209 267 329 388
#     4  10  21  39  67  99 126 163 214 264 327 402
#     4  11  24  40  57  92 123 162 219 264 316 398
#     4  10  22  44  69  96 129 168 217 275 339 405
#
# _framework density 21.923839999999998
#
# number of rings (size 3 to 8) (size 9 to 14) (size 15 to 20)
#    0.000    1.250    2.500    4.125    0.000    2.000 
#    6.750    2.500    0.000    7.500    0.000    0.000 
#    0.000    0.000    0.000    0.000    0.000    0.000 
#
# Total GULP energy -396529.336590 kJ/mol
# GULP energy per Si atom -12391.541768 kJ/mol
# Density = 2.187394 g / cm^3
# Si number density = 21.923840 Si / 1000 Ang^3
#
#
#
# Elastic Constant Matrix: (Units=GPa)
#
#
# Indices 1 2 3 4 5 6 
#
# 1 105.2130 22.4797 22.8960 0.0019 0.0093 -0.0074
# 2 22.4797 151.9700 32.0393 0.0140 -0.0103 0.0064
# 3 22.8960 32.0393 85.3265 0.1773 -0.0891 0.0066
# 4 0.0019 0.0140 0.1773 40.5474 -0.0457 0.0217
# 5 0.0093 -0.0103 -0.0891 -0.0457 -13.4158 -0.0037
# 6 -0.0074 0.0064 0.0066 0.0217 -0.0037 29.0688
#
#
#
# Elastic Compliance Matrix: (Units=1/GPa)
#
#
# Indices 1 2 3 4 5 6 
#
# 1 0.010236 -0.001015 -0.002365 0.000010 0.000024 0.000003
# 2 -0.001015 0.007247 -0.002449 0.000008 0.000010 -0.000001
# 3 -0.002365 -0.002449 0.013274 -0.000057 -0.000088 -0.000003
# 4 0.000010 0.000008 -0.000057 0.024663 -0.000084 -0.000018
# 5 0.000024 0.000010 -0.000088 -0.000084 -0.074538 -0.000009
# 6 0.000003 -0.000001 -0.000003 -0.000018 -0.000009 0.034401
#
#
# Mechanical properties :
#
#
# Convention : Reuss Voigt Hill
#
# Bulk Modulus (GPa) = 52.36198 55.25994 53.81096
# Shear Modulus (GPa) = 150.11550 28.91302 89.51426
#
# Velocity S-wave (km/s) = 8.28372 3.63546 6.39674
# Velocity P-wave (km/s) = 10.74378 6.54845 8.89694
#
# Compressibility (1/GPa) = 0.01909782
#
# Stress axis : x y z
#
# Youngs Moduli (GPa) = 97.69210 137.99417 75.33601
#
# Poissons Ratio (x) = 0.14013 0.17820
# Poissons Ratio (y) = 0.09920 0.18447
# Poissons Ratio (z) = 0.23108 0.33789
#
# Static dielectric constant tensor:
#      x y z
#    x 3.873630 -0.000070 -0.000170 
#    y -0.000070 4.528550 -0.000170 
#    z -0.000170 -0.000170 3.832540 
# 
# 
# High freq. dielectric constant tensor:
#      x y z
#    x 1.857580 0.000000 0.000000 
#    y 0.000000 1.892070 -0.000010 
#    z 0.000000 -0.000010 1.838070 
# 
# From -- ./inp_files/2406.got.cif
#   From: 2010.03.12/outbox.cif.g09.slc.cpg/sg74_2_cif.got.tgz:2406.got - 2010.04.16 15:46:19.
