data_PCOD8301401
_publ_section_title
;
Structure prediction by ZEFSAII (Michael W. Deem and Ramdas Pophale) SiO2 
 PCOD8301401
Probable space group: I M M A
;
_chemical_formula_sum "Si O2"
_cell_formula_units_Z 64
_cell_length_a 15.406251
_cell_length_b 8.405998
_cell_length_c 24.848056
_cell_angle_alpha 90.000000
_cell_angle_beta 90.000000
_cell_angle_gamma 90.000000
_cell_volume 3217.945383
_symmetry_space_group_name_H-M "I M M A"
_symmetry_group_IT_number 74
_symmetry_cell_setting 'orthorhombic'
loop_
_space_group_symop_operation_xyz
x,y,z
-x,1/2-y,z
x,-y,-z
-x,1/2+y,-z
-x,-y,-z
x,1/2+y,-z
-x,y,z
x,1/2-y,z
1/2+x,1/2+y,1/2+z
1/2-x,-y,1/2+z
1/2+x,1/2-y,1/2-z
1/2-x,y,1/2-z
1/2-x,1/2-y,1/2-z
1/2+x,y,1/2-z
1/2-x,1/2+y,1/2+z
1/2+x,-y,1/2+z
loop_
_atom_site_type_symbol
_atom_site_label
_atom_site_fract_x
_atom_site_fract_y
_atom_site_fract_z
Si Si1 0.284120 0.000000 0.500000
Si Si2 0.597221 0.750000 0.445992
Si Si3 0.703304 0.932664 0.693651
Si Si4 0.596094 0.750000 0.319324
Si Si5 0.500000 0.430773 0.940885
Si Si6 0.671078 0.924330 0.901677
O O1 0.348573 0.898736 0.464591
O O2 0.222785 0.910033 0.542075
O O3 0.500000 0.750000 0.470978
O O4 0.591599 0.750000 0.382797
O O5 0.665974 0.750000 0.680907
O O6 0.750000 0.919745 0.750000
O O7 0.768681 0.988319 0.646420
O O8 0.636839 0.080474 0.699376
O O9 0.500000 0.750000 0.294270
O O10 0.500000 0.250000 0.953425
O O11 0.414212 0.469100 0.906736
O O12 0.500000 0.500000 0.000000
O O13 0.637722 0.750000 0.886265
#
# Coordination Sequence:
#
# PCOD8301401 Si02
#       6
#     8   8  16   8   8  16
#     4  12  21  37  62  86 124 164 202 247 319 378
#     4  11  24  39  59  93 128 161 213 259 311 384
#     4  10  23  45  69  93 127 174 222 268 324 390
#     4  11  23  41  67  99 132 167 215 274 320 383
#     4  12  26  38  60  94 130 162 206 261 318 393
#     4  11  23  40  63  88 121 165 207 257 317 382
#
# _framework density 19.888466999999999
#
# number of rings (size 3 to 8) (size 9 to 14) (size 15 to 20)
#    0.000    1.000    5.000    1.875    3.500    0.500 
#    2.250    0.000    0.000    0.000    0.000    0.000 
#    0.000    0.000    0.000    0.000    0.000    0.000 
#
# Total GULP energy -396433.801229 kJ/mol
# GULP energy per Si atom -12388.556288 kJ/mol
# Density = 1.984320 g / cm^3
# Si number density = 19.888467 Si / 1000 Ang^3
#
#
#
# Elastic Constant Matrix: (Units=GPa)
#
#
# Indices 1 2 3 4 5 6 
#
# 1 121.5732 62.1638 24.6454 0.0000 0.0000 0.0000
# 2 62.1638 151.7963 11.6272 0.0000 0.0000 0.0000
# 3 24.6454 11.6272 82.2613 0.0000 0.0000 0.0000
# 4 0.0000 0.0000 0.0000 27.2264 0.0000 0.0000
# 5 0.0000 0.0000 0.0000 0.0000 17.2762 0.0000
# 6 0.0000 0.0000 0.0000 0.0000 0.0000 -7.6020
#
#
#
# Elastic Compliance Matrix: (Units=1/GPa)
#
#
# Indices 1 2 3 4 5 6 
#
# 1 0.010958 -0.004282 -0.002678 0.000000 0.000000 0.000000
# 2 -0.004282 0.008333 0.000105 0.000000 0.000000 0.000000
# 3 -0.002678 0.000105 0.012944 0.000000 0.000000 0.000000
# 4 0.000000 0.000000 0.000000 0.036729 0.000000 0.000000
# 5 0.000000 0.000000 0.000000 0.000000 0.057883 0.000000
# 6 0.000000 0.000000 0.000000 0.000000 0.000000 -0.131544
#
#
# Mechanical properties :
#
#
# Convention : Reuss Voigt Hill
#
# Bulk Modulus (GPa) = 53.98051 61.38931 57.68491
# Shear Modulus (GPa) = 329.18421 24.52640 176.85531
#
# Velocity S-wave (km/s) = 12.87923 3.51550 9.44016
# Velocity P-wave (km/s) = 15.75965 6.88565 12.16097
#
# Compressibility (1/GPa) = 0.01852520
#
# Stress axis : x y z
#
# Youngs Moduli (GPa) = 91.25697 119.99789 77.25725
#
# Poissons Ratio (x) = 0.51389 0.20687
# Poissons Ratio (y) = 0.39080 -0.00812
# Poissons Ratio (z) = 0.24436 -0.01261
#
# Static dielectric constant tensor:
#      x y z
#    x 3.829360 0.000000 0.000000 
#    y 0.000000 3.825300 0.000000 
#    z 0.000000 0.000000 3.596160 
# 
# 
# High freq. dielectric constant tensor:
#      x y z
#    x 1.769950 0.000000 0.000000 
#    y 0.000000 1.791610 0.000000 
#    z 0.000000 0.000000 1.775340 
# 
# From -- ./inp_files/56498.got.cif
#   From: 2010.03.12/outbox.cif.g09.slc.cpg/sg74_29_cif.got.tgz:56498.got - 2010.04.16 15:46:19.
