data_PCOD8301379
_publ_section_title
;
Structure prediction by ZEFSAII (Michael W. Deem and Ramdas Pophale) SiO2 
 PCOD8301379
Probable space group: I M M A
;
_chemical_formula_sum "Si O2"
_cell_formula_units_Z 112
_cell_length_a 15.654682
_cell_length_b 22.611031
_cell_length_c 14.737796
_cell_angle_alpha 90.000000
_cell_angle_beta 90.000000
_cell_angle_gamma 90.000000
_cell_volume 5216.715543
_symmetry_space_group_name_H-M "I M M A"
_symmetry_group_IT_number 74
_symmetry_cell_setting 'orthorhombic'
loop_
_space_group_symop_operation_xyz
x,y,z
-x,1/2-y,z
x,-y,-z
-x,1/2+y,-z
-x,-y,-z
x,1/2+y,-z
-x,y,z
x,1/2-y,z
1/2+x,1/2+y,1/2+z
1/2-x,-y,1/2+z
1/2+x,1/2-y,1/2-z
1/2-x,y,1/2-z
1/2-x,1/2-y,1/2-z
1/2+x,y,1/2-z
1/2-x,1/2+y,1/2+z
1/2+x,-y,1/2+z
loop_
_atom_site_type_symbol
_atom_site_label
_atom_site_fract_x
_atom_site_fract_y
_atom_site_fract_z
Si Si1 0.404194 0.427664 0.569733
Si Si2 0.100367 0.114674 0.664311
Si Si3 0.843655 0.504883 0.231937
Si Si4 0.599092 0.180927 0.015688
Si Si5 0.094196 0.903512 0.873558
Si Si6 0.254016 0.316665 0.356685
Si Si7 0.900344 0.685575 0.165642
O O1 0.500000 0.440280 0.607937
O O2 0.339390 0.460499 0.636308
O O3 0.398111 0.445407 0.463792
O O4 0.384358 0.357018 0.579279
O O5 0.124793 0.045912 0.684555
O O6 0.131744 0.139347 0.567172
O O7 0.140067 0.155365 0.743923
O O8 0.000000 0.119543 0.665563
O O9 0.750000 0.480729 0.250000
O O10 0.898458 0.445101 0.215605
O O11 0.500000 0.167027 0.042825
O O12 0.606673 0.250000 0.987970
O O13 0.662479 0.165032 0.099198
O O14 0.167078 0.855718 0.888651
O O15 0.000000 0.873415 0.871143
O O16 0.275501 0.250000 0.385300
O O17 0.250000 0.323829 0.250000
O O18 0.857560 0.750000 0.148567
O O19 0.000000 0.694348 0.183053
#
# Coordination Sequence:
#
# PCOD8301379 Si02
#       7
#    16  16  16  16  16  16  16
#     4   9  19  35  55  80 113 155 202 249 300 361
#     4   9  17  31  54  84 120 158 199 243 295 364
#     4  11  22  35  56  84 118 159 201 253 304 363
#     4   9  18  35  63  95 127 165 201 241 301 372
#     4  11  23  40  63  85 115 159 209 261 311 363
#     4  10  23  42  63  90 123 156 200 256 310 372
#     4   8  13  24  46  77 113 149 187 234 289 355
#
# _framework density 21.469448
#
# number of rings (size 3 to 8) (size 9 to 14) (size 15 to 20)
#    0.000    2.429    0.000    3.429    2.000    4.286 
#    0.000    2.857    0.000    2.143    0.000    5.000 
#    0.000    0.000    0.000    0.000    0.000    0.000 
#
# Total GULP energy -693850.954802 kJ/mol
# GULP energy per Si atom -12390.195621 kJ/mol
# Density = 2.142058 g / cm^3
# Si number density = 21.469448 Si / 1000 Ang^3
#
#
#
# Elastic Constant Matrix: (Units=GPa)
#
#
# Indices 1 2 3 4 5 6 
#
# 1 101.4169 39.0180 48.3042 0.0000 0.0000 0.0000
# 2 39.0180 56.3036 33.9547 0.0000 0.0000 0.0000
# 3 48.3042 33.9547 99.5502 -0.0001 0.0000 0.0000
# 4 0.0000 0.0000 -0.0001 31.6845 0.0000 0.0000
# 5 0.0000 0.0000 0.0000 0.0000 28.0706 0.0000
# 6 0.0000 0.0000 0.0000 0.0000 0.0000 31.0792
#
#
#
# Elastic Compliance Matrix: (Units=1/GPa)
#
#
# Indices 1 2 3 4 5 6 
#
# 1 0.015011 -0.007567 -0.004703 0.000000 0.000000 0.000000
# 2 -0.007567 0.026174 -0.005256 0.000000 0.000000 0.000000
# 3 -0.004703 -0.005256 0.014120 0.000000 0.000000 0.000000
# 4 0.000000 0.000000 0.000000 0.031561 0.000000 0.000000
# 5 0.000000 0.000000 0.000000 0.000000 0.035624 0.000000
# 6 0.000000 0.000000 0.000000 0.000000 0.000000 0.032176
#
#
# Mechanical properties :
#
#
# Convention : Reuss Voigt Hill
#
# Bulk Modulus (GPa) = 49.37252 55.53605 52.45428
# Shear Modulus (GPa) = 25.44924 27.23314 26.34119
#
# Velocity S-wave (km/s) = 3.44666 3.56541 3.50653
# Velocity P-wave (km/s) = 6.23585 6.54776 6.39371
#
# Compressibility (1/GPa) = 0.02025418
#
# Stress axis : x y z
#
# Youngs Moduli (GPa) = 66.61607 38.20570 70.82169
#
# Poissons Ratio (x) = 0.28908 0.33308
# Poissons Ratio (y) = 0.50405 0.37224
# Poissons Ratio (z) = 0.31330 0.20081
#
# Static dielectric constant tensor:
#      x y z
#    x 3.690880 0.000000 0.000000 
#    y 0.000000 3.984410 0.000000 
#    z 0.000000 0.000000 3.909920 
# 
# 
# High freq. dielectric constant tensor:
#      x y z
#    x 1.824530 0.000000 0.000000 
#    y 0.000000 1.840180 0.000000 
#    z 0.000000 0.000000 1.829350 
# 
# From -- ./inp_files/32687.got.cif
#   From: 2010.03.12/outbox.cif.g09.slc.cpg/sg74_17_cif.got.tgz:32687.got - 2010.04.16 15:46:19.
