data_PCOD8301038
_publ_section_title
;
Structure prediction by ZEFSAII (Michael W. Deem and Ramdas Pophale) SiO2 
 PCOD8301038
Probable space group: I M M A
;
_chemical_formula_sum "Si O2"
_cell_formula_units_Z 88
_cell_length_a 25.499497
_cell_length_b 27.507941
_cell_length_c 5.997020
_cell_angle_alpha 90.000000
_cell_angle_beta 90.000000
_cell_angle_gamma 90.000000
_cell_volume 4206.541667
_symmetry_space_group_name_H-M "I M M A"
_symmetry_group_IT_number 74
_symmetry_cell_setting 'orthorhombic'
loop_
_space_group_symop_operation_xyz
x,y,z
-x,1/2-y,z
x,-y,-z
-x,1/2+y,-z
-x,-y,-z
x,1/2+y,-z
-x,y,z
x,1/2-y,z
1/2+x,1/2+y,1/2+z
1/2-x,-y,1/2+z
1/2+x,1/2-y,1/2-z
1/2-x,y,1/2-z
1/2-x,1/2-y,1/2-z
1/2+x,y,1/2-z
1/2-x,1/2+y,1/2+z
1/2+x,-y,1/2+z
loop_
_atom_site_type_symbol
_atom_site_label
_atom_site_fract_x
_atom_site_fract_y
_atom_site_fract_z
Si Si1 0.123346 0.372463 0.806919
Si Si2 0.691876 0.891402 0.696706
Si Si3 0.347976 0.195467 0.068361
Si Si4 0.059720 0.695865 0.882975
Si Si5 0.398584 0.055360 0.055460
Si Si6 0.500000 0.972583 0.748341
O O1 0.153089 0.331217 0.666994
O O2 0.091075 0.413293 0.668508
O O3 0.171121 0.397726 0.944223
O O4 0.080052 0.346219 0.956473
O O5 0.750000 0.910718 0.750000
O O6 0.688422 0.834115 0.758615
O O7 0.654184 0.923084 0.848518
O O8 0.325907 0.250000 0.045850
O O9 0.408027 0.194406 0.153211
O O10 0.065622 0.750000 0.991922
O O11 0.000000 0.684615 0.820804
O O12 0.446869 0.059519 0.234396
O O13 0.387421 0.000000 0.000000
O O14 0.500000 0.000000 0.500000
O O15 0.500000 0.000000 0.000000
#
# Coordination Sequence:
#
# PCOD8301038 Si02
#       6
#    16  16  16  16  16   8
#     4  10  21  38  60  88 126 165 218 270 333 395
#     4  10  23  43  63  91 127 165 214 281 326 401
#     4   9  19  37  57  86 123 164 212 263 325 395
#     4   9  18  33  56  87 126 170 213 263 322 395
#     4  10  24  43  63  96 124 172 216 272 337 404
#     4  10  24  44  72 100 137 176 225 284 342 416
#
# _framework density 20.919798
#
# number of rings (size 3 to 8) (size 9 to 14) (size 15 to 20)
#    0.000    2.364    0.000    0.545    6.364    4.727 
#   16.364    2.727    0.000    0.000    0.000    0.000 
#    0.000    0.000    0.000    0.000    0.000    0.000 
#
# Total GULP energy -545122.410401 kJ/mol
# GULP energy per Si atom -12389.145691 kJ/mol
# Density = 2.087218 g / cm^3
# Si number density = 20.919798 Si / 1000 Ang^3
#
#
#
# Elastic Constant Matrix: (Units=GPa)
#
#
# Indices 1 2 3 4 5 6 
#
# 1 143.6763 30.1028 33.8609 0.0000 0.0000 0.0000
# 2 30.1028 108.6848 31.4126 0.0000 0.0000 0.0000
# 3 33.8609 31.4126 99.7671 0.0000 0.0000 0.0000
# 4 0.0000 0.0000 0.0000 26.6207 0.0000 0.0000
# 5 0.0000 0.0000 0.0000 0.0000 21.6144 0.0000
# 6 0.0000 0.0000 0.0000 0.0000 0.0000 19.3595
#
#
#
# Elastic Compliance Matrix: (Units=1/GPa)
#
#
# Indices 1 2 3 4 5 6 
#
# 1 0.007791 -0.001533 -0.002161 0.000000 0.000000 0.000000
# 2 -0.001533 0.010424 -0.002762 0.000000 0.000000 0.000000
# 3 -0.002161 -0.002762 0.011626 0.000000 0.000000 0.000000
# 4 0.000000 0.000000 0.000000 0.037565 0.000000 0.000000
# 5 0.000000 0.000000 0.000000 0.000000 0.046265 0.000000
# 6 0.000000 0.000000 0.000000 0.000000 0.000000 0.051654
#
#
# Mechanical properties :
#
#
# Convention : Reuss Voigt Hill
#
# Bulk Modulus (GPa) = 59.07213 60.32009 59.69611
# Shear Modulus (GPa) = 27.19157 30.63572 28.91365
#
# Velocity S-wave (km/s) = 3.60919 3.83095 3.72172
# Velocity P-wave (km/s) = 6.75774 6.96167 6.86046
#
# Compressibility (1/GPa) = 0.01692846
#
# Stress axis : x y z
#
# Youngs Moduli (GPa) = 128.35814 95.93487 86.01061
#
# Poissons Ratio (x) = 0.14708 0.18591
# Poissons Ratio (y) = 0.19679 0.23753
# Poissons Ratio (z) = 0.27744 0.26494
#
# Static dielectric constant tensor:
#      x y z
#    x 3.730050 0.000000 0.000000 
#    y 0.000000 3.985820 0.000000 
#    z 0.000000 0.000000 4.133390 
# 
# 
# High freq. dielectric constant tensor:
#      x y z
#    x 1.805310 0.000000 0.000000 
#    y 0.000000 1.822230 0.000000 
#    z 0.000000 0.000000 1.817620 
# 
# From -- ./inp_files/3938.got.cif
#   From: 2010.03.12/outbox.cif.g09.slc.cpg/sg74_2_cif.got.tgz:3938.got - 2010.04.16 15:46:19.
