data_PCOD8301816
_publ_section_title
;
Structure prediction by ZEFSAII (Michael W. Deem and Ramdas Pophale) SiO2 
 PCOD8301816
Probable space group: I M M A
;
_chemical_formula_sum "Si O2"
_cell_formula_units_Z 80
_cell_length_a 13.518658
_cell_length_b 9.873809
_cell_length_c 36.825253
_cell_angle_alpha 90.000000
_cell_angle_beta 90.000000
_cell_angle_gamma 90.000000
_cell_volume 4915.458597
_symmetry_space_group_name_H-M "I M M A"
_symmetry_group_IT_number 74
_symmetry_cell_setting 'orthorhombic'
loop_
_space_group_symop_operation_xyz
x,y,z
-x,1/2-y,z
x,-y,-z
-x,1/2+y,-z
-x,-y,-z
x,1/2+y,-z
-x,y,z
x,1/2-y,z
1/2+x,1/2+y,1/2+z
1/2-x,-y,1/2+z
1/2+x,1/2-y,1/2-z
1/2-x,y,1/2-z
1/2-x,1/2-y,1/2-z
1/2+x,y,1/2-z
1/2-x,1/2+y,1/2+z
1/2+x,-y,1/2+z
loop_
_atom_site_type_symbol
_atom_site_label
_atom_site_fract_x
_atom_site_fract_y
_atom_site_fract_z
Si Si1 0.389002 0.899563 0.667105
Si Si2 0.747264 0.903583 0.899884
Si Si3 0.112662 0.907328 0.965621
Si Si4 0.262912 0.594514 0.291816
Si Si5 0.114769 0.092629 0.644652
O O1 0.500000 0.930093 0.655696
O O2 0.376357 0.750000 0.684154
O O3 0.328488 0.913813 0.630773
O O4 0.356933 0.007794 0.696756
O O5 0.705818 0.750000 0.903430
O O6 0.804377 0.949066 0.936214
O O7 0.658123 0.004731 0.888948
O O8 0.124738 0.750000 0.976324
O O9 0.000000 0.933209 0.951462
O O10 0.135480 0.000000 0.000000
O O11 0.291094 0.750000 0.296987
O O12 0.250000 0.557750 0.250000
O O13 0.167785 0.557468 0.316866
O O14 0.129739 0.250000 0.634724
O O15 0.000000 0.055914 0.649562
#
# Coordination Sequence:
#
# PCOD8301816 Si02
#       5
#    16  16  16  16  16
#     4   9  17  29  45  65  89 117 147 179 218 263
#     4   9  17  30  48  68  91 119 151 186 221 262
#     4   9  17  29  46  70  99 127 151 177 216 267
#     4   9  18  31  46  65  89 117 149 185 226 272
#     4   9  18  32  48  66  89 118 153 193 234 271
#
# _framework density 16.275185
#
# number of rings (size 3 to 8) (size 9 to 14) (size 15 to 20)
#    0.000    3.000    0.000    0.600    0.000    5.200 
#    0.000    2.000    0.000    4.200    0.000    0.000 
#    0.000    0.000    0.000    0.000    0.000    0.000 
#
# Total GULP energy -495780.898858 kJ/mol
# GULP energy per Si atom -12394.522471 kJ/mol
# Density = 1.623814 g / cm^3
# Si number density = 16.275185 Si / 1000 Ang^3
#
#
#
# Elastic Constant Matrix: (Units=GPa)
#
#
# Indices 1 2 3 4 5 6 
#
# 1 84.9024 43.0641 36.8897 0.0000 0.0000 0.0000
# 2 43.0641 56.9737 48.2408 0.0000 0.0000 0.0000
# 3 36.8897 48.2408 87.1297 0.0000 0.0000 0.0000
# 4 0.0000 0.0000 0.0000 28.0369 0.0000 0.0000
# 5 0.0000 0.0000 0.0000 0.0000 14.7736 0.0000
# 6 0.0000 0.0000 0.0000 0.0000 0.0000 27.9322
#
#
#
# Elastic Compliance Matrix: (Units=1/GPa)
#
#
# Indices 1 2 3 4 5 6 
#
# 1 0.019103 -0.014290 -0.000176 0.000000 0.000000 0.000000
# 2 -0.014290 0.043732 -0.018163 0.000000 0.000000 0.000000
# 3 -0.000176 -0.018163 0.021608 0.000000 0.000000 0.000000
# 4 0.000000 0.000000 0.000000 0.035667 0.000000 0.000000
# 5 0.000000 0.000000 0.000000 0.000000 0.067688 0.000000
# 6 0.000000 0.000000 0.000000 0.000000 0.000000 0.035801
#
#
# Mechanical properties :
#
#
# Convention : Reuss Voigt Hill
#
# Bulk Modulus (GPa) = 52.12387 53.93279 53.02833
# Shear Modulus (GPa) = 16.93473 20.86930 18.90202
#
# Velocity S-wave (km/s) = 3.22922 3.58478 3.41163
# Velocity P-wave (km/s) = 6.78232 7.09536 6.94061
#
# Compressibility (1/GPa) = 0.01918507
#
# Stress axis : x y z
#
# Youngs Moduli (GPa) = 52.34807 22.86664 46.27990
#
# Poissons Ratio (x) = 0.32677 0.00815
# Poissons Ratio (y) = 0.74806 0.84056
# Poissons Ratio (z) = 0.00921 0.41532
#
# Static dielectric constant tensor:
#      x y z
#    x 3.108310 0.000000 0.000000 
#    y 0.000000 3.297560 0.000000 
#    z 0.000000 0.000000 3.045510 
# 
# 
# High freq. dielectric constant tensor:
#      x y z
#    x 1.616440 0.000000 0.000000 
#    y 0.000000 1.631350 0.000000 
#    z 0.000000 0.000000 1.613220 
# 
# From -- ./inp_files/71497.got.cif
#   From: 2010.03.12/outbox.cif.g09.slc.cpg/sg74_36_cif.got.tgz:71497.got - 2010.04.16 15:46:19.
