data_PCOD8301293
_publ_section_title
;
Structure prediction by ZEFSAII (Michael W. Deem and Ramdas Pophale) SiO2 
 PCOD8301293
Probable space group: I M M A
;
_chemical_formula_sum "Si O2"
_cell_formula_units_Z 72
_cell_length_a 25.718527
_cell_length_b 9.642919
_cell_length_c 13.039965
_cell_angle_alpha 90.000000
_cell_angle_beta 90.000000
_cell_angle_gamma 90.000000
_cell_volume 3233.933131
_symmetry_space_group_name_H-M "I M M A"
_symmetry_group_IT_number 74
_symmetry_cell_setting 'orthorhombic'
loop_
_space_group_symop_operation_xyz
x,y,z
-x,1/2-y,z
x,-y,-z
-x,1/2+y,-z
-x,-y,-z
x,1/2+y,-z
-x,y,z
x,1/2-y,z
1/2+x,1/2+y,1/2+z
1/2-x,-y,1/2+z
1/2+x,1/2-y,1/2-z
1/2-x,y,1/2-z
1/2-x,1/2-y,1/2-z
1/2+x,y,1/2-z
1/2-x,1/2+y,1/2+z
1/2+x,-y,1/2+z
loop_
_atom_site_type_symbol
_atom_site_label
_atom_site_fract_x
_atom_site_fract_y
_atom_site_fract_z
Si Si1 0.271975 0.000000 0.000000
Si Si2 0.688098 0.903449 0.344966
Si Si3 0.654257 0.593174 0.836618
Si Si4 0.442484 0.588560 0.181662
Si Si5 0.575378 0.596215 0.412524
O O1 0.237467 0.916910 0.081406
O O2 0.308995 0.103277 0.063964
O O3 0.689997 0.750000 0.293836
O O4 0.637571 0.916367 0.415656
O O5 0.685888 0.016945 0.254601
O O6 0.640273 0.750000 0.802282
O O7 0.601428 0.510123 0.867474
O O8 0.500000 0.559598 0.134178
O O9 0.426653 0.750000 0.166115
O O10 0.445531 0.551683 0.301752
O O11 0.550836 0.500000 0.500000
O O12 0.556410 0.750000 0.438351
#
# Coordination Sequence:
#
# PCOD8301293 Si02
#       5
#     8  16  16  16  16
#     4  12  24  40  63  90 123 166 210 252 300 360
#     4  10  22  40  61  86 124 169 206 246 302 363
#     4  11  25  41  62  95 127 156 203 259 305 361
#     4   9  20  41  64  84 115 160 204 251 309 366
#     4   9  17  31  53  84 117 152 195 241 291 356
#
# _framework density 22.263912999999999
#
# number of rings (size 3 to 8) (size 9 to 14) (size 15 to 20)
#    0.000    2.000    1.111    3.333    0.000   11.556 
#    0.000    0.556    0.000    0.000    0.000    0.000 
#    0.000    0.000    0.000    0.000    0.000    0.000 
#
# Total GULP energy -446210.187284 kJ/mol
# GULP energy per Si atom -12394.727425 kJ/mol
# Density = 2.221324 g / cm^3
# Si number density = 22.263913 Si / 1000 Ang^3
#
#
#
# Elastic Constant Matrix: (Units=GPa)
#
#
# Indices 1 2 3 4 5 6 
#
# 1 152.0076 54.8026 42.7052 0.0000 0.0000 0.0000
# 2 54.8026 136.3147 36.9897 0.0000 0.0000 0.0000
# 3 42.7052 36.9897 48.7345 0.0000 0.0000 0.0000
# 4 0.0000 0.0000 0.0000 26.5631 0.0000 0.0000
# 5 0.0000 0.0000 0.0000 0.0000 -11.4151 0.0000
# 6 0.0000 0.0000 0.0000 0.0000 0.0000 -70.9141
#
#
#
# Elastic Compliance Matrix: (Units=1/GPa)
#
#
# Indices 1 2 3 4 5 6 
#
# 1 0.009095 -0.001881 -0.006542 0.000000 0.000000 0.000000
# 2 -0.001881 0.009628 -0.005659 0.000000 0.000000 0.000000
# 3 -0.006542 -0.005659 0.030547 0.000000 0.000000 0.000000
# 4 0.000000 0.000000 0.000000 0.037646 0.000000 0.000000
# 5 0.000000 0.000000 0.000000 0.000000 -0.087603 0.000000
# 6 0.000000 0.000000 0.000000 0.000000 0.000000 -0.014102
#
#
# Mechanical properties :
#
#
# Convention : Reuss Voigt Hill
#
# Bulk Modulus (GPa) = 47.38094 67.33909 57.36002
# Shear Modulus (GPa) = 244.97963 2.35073 123.66518
#
# Velocity S-wave (km/s) = 10.50111 1.02866 7.46095
# Velocity P-wave (km/s) = 12.97531 5.63226 10.00203
#
# Compressibility (1/GPa) = 0.02110553
#
# Stress axis : x y z
#
# Youngs Moduli (GPa) = 109.95451 103.86469 32.73648
#
# Poissons Ratio (x) = 0.19539 0.21415
# Poissons Ratio (y) = 0.20685 0.18526
# Poissons Ratio (z) = 0.71928 0.58778
#
# Static dielectric constant tensor:
#      x y z
#    x 4.651350 0.000000 0.000000 
#    y 0.000000 3.811580 0.000000 
#    z 0.000000 0.000000 3.676120 
# 
# 
# High freq. dielectric constant tensor:
#      x y z
#    x 1.893270 0.000000 0.000000 
#    y 0.000000 1.864000 0.000000 
#    z 0.000000 0.000000 1.852850 
# 
# From -- ./inp_files/37071.got.cif
#   From: 2010.03.12/outbox.cif.g09.slc.cpg/sg74_19_cif.got.tgz:37071.got - 2010.04.16 15:46:19.
