data_PCOD8301048
_publ_section_title
;
Structure prediction by ZEFSAII (Michael W. Deem and Ramdas Pophale) SiO2 
 PCOD8301048
Probable space group: I M M A
;
_chemical_formula_sum "Si O2"
_cell_formula_units_Z 80
_cell_length_a 8.908776
_cell_length_b 24.796252
_cell_length_c 18.365178
_cell_angle_alpha 90.000000
_cell_angle_beta 90.000000
_cell_angle_gamma 90.000000
_cell_volume 4056.945959
_symmetry_space_group_name_H-M "I M M A"
_symmetry_group_IT_number 74
_symmetry_cell_setting 'orthorhombic'
loop_
_space_group_symop_operation_xyz
x,y,z
-x,1/2-y,z
x,-y,-z
-x,1/2+y,-z
-x,-y,-z
x,1/2+y,-z
-x,y,z
x,1/2-y,z
1/2+x,1/2+y,1/2+z
1/2-x,-y,1/2+z
1/2+x,1/2-y,1/2-z
1/2-x,y,1/2-z
1/2-x,1/2-y,1/2-z
1/2+x,y,1/2-z
1/2-x,1/2+y,1/2+z
1/2+x,-y,1/2+z
loop_
_atom_site_type_symbol
_atom_site_label
_atom_site_fract_x
_atom_site_fract_y
_atom_site_fract_z
Si Si1 0.826253 0.501102 0.172499
Si Si2 0.824272 0.689399 0.324380
Si Si3 0.326099 0.687083 0.824957
Si Si4 0.677259 0.407923 0.923834
Si Si5 0.827304 0.103680 0.076542
O O1 0.750000 0.495467 0.250000
O O2 0.740443 0.546184 0.127708
O O3 0.808072 0.444130 0.133491
O O4 0.000000 0.517507 0.180696
O O5 0.769237 0.750000 0.343800
O O6 0.750000 0.668440 0.250000
O O7 0.779122 0.650294 0.390435
O O8 0.000000 0.687950 0.310594
O O9 0.500000 0.672036 0.819735
O O10 0.299927 0.750000 0.838954
O O11 0.250000 0.668298 0.750000
O O12 0.253056 0.656748 0.892838
O O13 0.500000 0.415011 0.931350
O O14 0.751162 0.414259 0.002034
O O15 0.000000 0.117340 0.061644
#
# Coordination Sequence:
#
# PCOD8301048 Si02
#       5
#    16  16  16  16  16
#     4  11  24  41  61  85 114 149 191 239 289 344
#     4   9  19  36  57  82 112 146 186 231 278 331
#     4  10  21  38  61  88 118 153 194 240 289 343
#     4  11  23  38  59  86 117 153 191 236 291 347
#     4  11  24  40  59  85 118 154 193 239 290 345
#
# _framework density 19.719266999999999
#
# number of rings (size 3 to 8) (size 9 to 14) (size 15 to 20)
#    0.000    1.600    0.000    4.200    0.000   12.400 
#    0.000    2.000    0.000    0.000    0.000    0.000 
#    0.000    0.000    0.000    0.000    0.000    0.000 
#
# Total GULP energy -496227.330144 kJ/mol
# GULP energy per Si atom -12405.683254 kJ/mol
# Density = 1.967439 g / cm^3
# Si number density = 19.719267 Si / 1000 Ang^3
#
#
#
# Elastic Constant Matrix: (Units=GPa)
#
#
# Indices 1 2 3 4 5 6 
#
# 1 125.7922 57.6021 69.1165 0.0000 0.0000 0.0000
# 2 57.6021 75.4883 43.8369 -0.0001 0.0000 0.0000
# 3 69.1165 43.8369 136.7689 0.0001 0.0000 0.0000
# 4 0.0000 -0.0001 0.0001 98.8340 0.0000 0.0001
# 5 0.0000 0.0000 0.0000 0.0000 39.7073 0.0000
# 6 0.0000 0.0000 0.0000 0.0001 0.0000 28.6877
#
#
#
# Elastic Compliance Matrix: (Units=1/GPa)
#
#
# Indices 1 2 3 4 5 6 
#
# 1 0.014202 -0.008195 -0.004551 0.000000 0.000000 0.000000
# 2 -0.008195 0.021005 -0.002591 0.000000 0.000000 0.000000
# 3 -0.004551 -0.002591 0.010442 0.000000 0.000000 0.000000
# 4 0.000000 0.000000 0.000000 0.010118 0.000000 0.000000
# 5 0.000000 0.000000 0.000000 0.000000 0.025184 0.000000
# 6 0.000000 0.000000 0.000000 0.000000 0.000000 0.034858
#
#
# Mechanical properties :
#
#
# Convention : Reuss Voigt Hill
#
# Bulk Modulus (GPa) = 66.77376 75.46227 71.11802
# Shear Modulus (GPa) = 33.00876 44.61205 38.81041
#
# Velocity S-wave (km/s) = 4.09581 4.76159 4.44119
# Velocity P-wave (km/s) = 7.50355 8.28140 7.90205
#
# Compressibility (1/GPa) = 0.01497594
#
# Stress axis : x y z
#
# Youngs Moduli (GPa) = 70.41023 47.60794 95.76839
#
# Poissons Ratio (x) = 0.39013 0.43581
# Poissons Ratio (y) = 0.57699 0.24816
# Poissons Ratio (z) = 0.32042 0.12336
#
# Static dielectric constant tensor:
#      x y z
#    x 3.789280 0.000000 0.000000 
#    y 0.000000 3.800820 0.000000 
#    z 0.000000 0.000000 3.583070 
# 
# 
# High freq. dielectric constant tensor:
#      x y z
#    x 1.782200 0.000000 0.000000 
#    y 0.000000 1.779750 0.000000 
#    z 0.000000 0.000000 1.774180 
# 
# From -- ./inp_files/39705.got.cif
#   From: 2010.03.12/outbox.cif.g09.slc.cpg/sg74_20_cif.got.tgz:39705.got - 2010.04.16 15:46:19.
