data_PCOD8301469
_publ_section_title
;
Structure prediction by ZEFSAII (Michael W. Deem and Ramdas Pophale) SiO2 
 PCOD8301469
Probable space group: I M M A
;
_chemical_formula_sum "Si O2"
_cell_formula_units_Z 112
_cell_length_a 27.172987
_cell_length_b 13.913774
_cell_length_c 15.470296
_cell_angle_alpha 90.000000
_cell_angle_beta 90.000000
_cell_angle_gamma 90.000000
_cell_volume 5848.990948
_symmetry_space_group_name_H-M "I M M A"
_symmetry_group_IT_number 74
_symmetry_cell_setting 'orthorhombic'
loop_
_space_group_symop_operation_xyz
x,y,z
-x,1/2-y,z
x,-y,-z
-x,1/2+y,-z
-x,-y,-z
x,1/2+y,-z
-x,y,z
x,1/2-y,z
1/2+x,1/2+y,1/2+z
1/2-x,-y,1/2+z
1/2+x,1/2-y,1/2-z
1/2-x,y,1/2-z
1/2-x,1/2-y,1/2-z
1/2+x,y,1/2-z
1/2-x,1/2+y,1/2+z
1/2+x,-y,1/2+z
loop_
_atom_site_type_symbol
_atom_site_label
_atom_site_fract_x
_atom_site_fract_y
_atom_site_fract_z
Si Si1 0.765906 0.643581 0.652489
Si Si2 0.925932 0.356446 0.055246
Si Si3 0.322813 0.521946 0.098163
Si Si4 0.821101 0.395258 0.029276
Si Si5 0.228942 0.353433 0.864363
Si Si6 0.139067 0.364092 0.746252
Si Si7 0.554483 0.056007 0.631097
O O1 0.776708 0.750000 0.616547
O O2 0.750000 0.647176 0.750000
O O3 0.815790 0.582067 0.642648
O O4 0.722608 0.595522 0.597430
O O5 0.949230 0.250000 0.073942
O O6 0.867743 0.344805 0.072586
O O7 0.946215 0.440147 0.117471
O O8 0.936261 0.386036 0.956660
O O9 0.269648 0.572474 0.103984
O O10 0.362160 0.586780 0.150684
O O11 0.339729 0.500000 0.000000
O O12 0.838859 0.500000 0.000000
O O13 0.806760 0.335014 0.945079
O O14 0.253239 0.250000 0.840657
O O15 0.194161 0.387983 0.784232
O O16 0.129977 0.250000 0.740538
O O17 0.095988 0.413232 0.800826
O O18 0.500000 0.083280 0.666281
#
# Coordination Sequence:
#
# PCOD8301469 Si02
#       7
#    16  16  16  16  16  16  16
#     4  11  23  34  49  75 113 160 205 238 273 333
#     4  11  21  35  59  88 125 165 201 239 289 350
#     4  12  24  37  56  81 114 152 191 244 293 347
#     4  12  19  34  53  81 120 165 198 240 285 332
#     4  11  19  34  57  83 114 155 196 236 287 340
#     4  11  24  41  62  88 117 151 199 251 302 359
#     4  11  24  40  60  88 120 154 198 248 301 360
#
# _framework density 19.148602
#
# number of rings (size 3 to 8) (size 9 to 14) (size 15 to 20)
#    0.000    0.714    5.714    4.286    2.000    3.714 
#    0.000    0.000    0.000    0.429    0.000    0.000 
#    0.000    0.000    0.000    0.000    0.000    0.000 
#
# Total GULP energy -694038.948940 kJ/mol
# GULP energy per Si atom -12393.552660 kJ/mol
# Density = 1.910502 g / cm^3
# Si number density = 19.148602 Si / 1000 Ang^3
#
#
#
# Elastic Constant Matrix: (Units=GPa)
#
#
# Indices 1 2 3 4 5 6 
#
# 1 48.1273 42.5284 24.9084 0.0000 0.0000 0.0000
# 2 42.5284 123.7341 34.2857 0.0000 0.0000 0.0000
# 3 24.9084 34.2857 96.5259 0.0000 0.0000 0.0000
# 4 0.0000 0.0000 0.0000 26.3154 0.0000 0.0000
# 5 0.0000 0.0000 0.0000 0.0000 -3.5208 0.0000
# 6 0.0000 0.0000 0.0000 0.0000 0.0000 3.3501
#
#
#
# Elastic Compliance Matrix: (Units=1/GPa)
#
#
# Indices 1 2 3 4 5 6 
#
# 1 0.031715 -0.009575 -0.004783 0.000000 0.000000 0.000000
# 2 -0.009575 0.011855 -0.001740 0.000000 0.000000 0.000000
# 3 -0.004783 -0.001740 0.012212 0.000000 0.000000 0.000000
# 4 0.000000 0.000000 0.000000 0.038001 0.000000 0.000000
# 5 0.000000 0.000000 0.000000 0.000000 -0.284022 0.000000
# 6 0.000000 0.000000 0.000000 0.000000 0.000000 0.298500
#
#
# Mechanical properties :
#
#
# Convention : Reuss Voigt Hill
#
# Bulk Modulus (GPa) = 42.39837 52.42582 47.41210
# Shear Modulus (GPa) = 33.71104 16.33991 25.02547
#
# Velocity S-wave (km/s) = 4.20038 2.92434 3.61904
# Velocity P-wave (km/s) = 6.76122 6.23219 6.50209
#
# Compressibility (1/GPa) = 0.02358581
#
# Stress axis : x y z
#
# Youngs Moduli (GPa) = 31.53067 84.35165 81.88553
#
# Poissons Ratio (x) = 0.80770 0.39165
# Poissons Ratio (y) = 0.30192 0.14248
# Poissons Ratio (z) = 0.15081 0.14677
#
# Static dielectric constant tensor:
#      x y z
#    x 3.301060 0.000000 0.000000 
#    y 0.000000 3.999810 0.000000 
#    z 0.000000 0.000000 3.165350 
# 
# 
# High freq. dielectric constant tensor:
#      x y z
#    x 1.704440 0.000000 0.000000 
#    y 0.000000 1.772710 0.000000 
#    z 0.000000 0.000000 1.721140 
# 
# From -- ./inp_files/37364.got.cif
#   From: 2010.03.12/outbox.cif.g09.slc.cpg/sg74_19_cif.got.tgz:37364.got - 2010.04.16 15:46:19.
