data_PCOD8301762
_publ_section_title
;
Structure prediction by ZEFSAII (Michael W. Deem and Ramdas Pophale) SiO2 
 PCOD8301762
Probable space group: I M M A
;
_chemical_formula_sum "Si O2"
_cell_formula_units_Z 112
_cell_length_a 32.315109
_cell_length_b 9.511888
_cell_length_c 21.298361
_cell_angle_alpha 90.000000
_cell_angle_beta 90.000000
_cell_angle_gamma 90.000000
_cell_volume 6546.641165
_symmetry_space_group_name_H-M "I M M A"
_symmetry_group_IT_number 74
_symmetry_cell_setting 'orthorhombic'
loop_
_space_group_symop_operation_xyz
x,y,z
-x,1/2-y,z
x,-y,-z
-x,1/2+y,-z
-x,-y,-z
x,1/2+y,-z
-x,y,z
x,1/2-y,z
1/2+x,1/2+y,1/2+z
1/2-x,-y,1/2+z
1/2+x,1/2-y,1/2-z
1/2-x,y,1/2-z
1/2-x,1/2-y,1/2-z
1/2+x,y,1/2-z
1/2-x,1/2+y,1/2+z
1/2+x,-y,1/2+z
loop_
_atom_site_type_symbol
_atom_site_label
_atom_site_fract_x
_atom_site_fract_y
_atom_site_fract_z
Si Si1 0.453195 0.414603 0.803638
Si Si2 0.426960 0.587887 0.060962
Si Si3 0.189106 0.416180 0.797836
Si Si4 0.669829 0.589737 0.057257
Si Si5 0.723984 0.083163 0.831949
Si Si6 0.597370 0.082223 0.684261
Si Si7 0.951806 0.086288 0.938551
O O1 0.500000 0.447569 0.783309
O O2 0.444298 0.250000 0.809110
O O3 0.445503 0.475682 0.874055
O O4 0.423914 0.477239 0.748464
O O5 0.440269 0.750000 0.050106
O O6 0.378296 0.572554 0.070254
O O7 0.442368 0.500000 0.000000
O O8 0.183564 0.250000 0.794239
O O9 0.227562 0.458296 0.843435
O O10 0.203659 0.478646 0.731143
O O11 0.144527 0.477484 0.818923
O O12 0.681994 0.750000 0.044951
O O13 0.695631 0.522542 0.113624
O O14 0.685420 0.500000 0.000000
O O15 0.720856 0.250000 0.827392
O O16 0.595337 0.250000 0.685976
O O17 0.573441 0.029708 0.622020
O O18 0.942623 0.250000 0.951338
O O19 0.000000 0.060598 0.924189
O O20 0.937569 0.000000 0.000000
#
# Coordination Sequence:
#
# PCOD8301762 Si02
#       7
#    16  16  16  16  16  16  16
#     4   9  16  25  39  60  83 107 137 174 212 244
#     4   9  17  28  42  60  83 112 143 172 204 243
#     4   8  13  21  36  58  81 104 129 162 204 241
#     4   9  16  26  40  58  80 106 135 165 196 232
#     4   8  13  22  36  56  81 104 129 163 201 239
#     4   9  15  24  40  62  85 106 134 173 210 243
#     4   9  17  29  45  64  85 110 138 167 202 246
#
# _framework density 17.10801
#
# number of rings (size 3 to 8) (size 9 to 14) (size 15 to 20)
#    0.000    3.286    0.000    2.143    0.000    5.429 
#    0.000    0.714    0.000    0.857    0.000    3.000 
#    0.000    0.000    0.000    0.000    0.000    0.000 
#
# Total GULP energy -693775.447401 kJ/mol
# GULP energy per Si atom -12388.847275 kJ/mol
# Density = 1.706907 g / cm^3
# Si number density = 17.108010 Si / 1000 Ang^3
#
#
#
# Elastic Constant Matrix: (Units=GPa)
#
#
# Indices 1 2 3 4 5 6 
#
# 1 84.4378 12.4352 47.8693 0.0000 0.0000 0.0000
# 2 12.4352 18.8716 21.6420 0.0000 0.0000 0.0000
# 3 47.8693 21.6420 114.0082 0.0000 0.0000 0.0000
# 4 0.0000 0.0000 0.0000 21.4645 0.0000 0.0000
# 5 0.0000 0.0000 0.0000 0.0000 33.1935 0.0000
# 6 0.0000 0.0000 0.0000 0.0000 0.0000 7.7053
#
#
#
# Elastic Compliance Matrix: (Units=1/GPa)
#
#
# Indices 1 2 3 4 5 6 
#
# 1 0.015728 -0.003567 -0.005927 0.000000 0.000000 0.000000
# 2 -0.003567 0.068544 -0.011514 0.000000 0.000000 0.000000
# 3 -0.005927 -0.011514 0.013445 0.000000 0.000000 0.000000
# 4 0.000000 0.000000 0.000000 0.046589 0.000000 0.000000
# 5 0.000000 0.000000 0.000000 0.000000 0.030126 0.000000
# 6 0.000000 0.000000 0.000000 0.000000 0.000000 0.129780
#
#
# Mechanical properties :
#
#
# Convention : Reuss Voigt Hill
#
# Bulk Modulus (GPa) = 17.95252 42.35673 30.15463
# Shear Modulus (GPa) = 13.70627 21.49741 17.60184
#
# Velocity S-wave (km/s) = 2.83355 3.54866 3.21107
# Velocity P-wave (km/s) = 4.60671 6.45002 5.60467
#
# Compressibility (1/GPa) = 0.05570249
#
# Stress axis : x y z
#
# Youngs Moduli (GPa) = 63.57929 14.58909 74.37446
#
# Poissons Ratio (x) = 0.05204 0.44080
# Poissons Ratio (y) = 0.22680 0.85634
# Poissons Ratio (z) = 0.37682 0.16798
#
# Static dielectric constant tensor:
#      x y z
#    x 3.386400 0.000000 0.000000 
#    y 0.000000 2.640930 0.000000 
#    z 0.000000 0.000000 3.438820 
# 
# 
# High freq. dielectric constant tensor:
#      x y z
#    x 1.668910 0.000000 0.000000 
#    y 0.000000 1.586670 0.000000 
#    z 0.000000 0.000000 1.663460 
# 
# From -- ./inp_files/55402.got.cif
#   From: 2010.03.12/outbox.cif.g09.slc.cpg/sg74_28_cif.got.tgz:55402.got - 2010.04.16 15:46:19.
