data_PCOD8301614
_publ_section_title
;
Structure prediction by ZEFSAII (Michael W. Deem and Ramdas Pophale) SiO2 
 PCOD8301614
Probable space group: I M M A
;
_chemical_formula_sum "Si O2"
_cell_formula_units_Z 80
_cell_length_a 16.341794
_cell_length_b 8.547908
_cell_length_c 28.476300
_cell_angle_alpha 90.000000
_cell_angle_beta 90.000000
_cell_angle_gamma 90.000000
_cell_volume 3977.801713
_symmetry_space_group_name_H-M "I M M A"
_symmetry_group_IT_number 74
_symmetry_cell_setting 'orthorhombic'
loop_
_space_group_symop_operation_xyz
x,y,z
-x,1/2-y,z
x,-y,-z
-x,1/2+y,-z
-x,-y,-z
x,1/2+y,-z
-x,y,z
x,1/2-y,z
1/2+x,1/2+y,1/2+z
1/2-x,-y,1/2+z
1/2+x,1/2-y,1/2-z
1/2-x,y,1/2-z
1/2-x,1/2-y,1/2-z
1/2+x,y,1/2-z
1/2-x,1/2+y,1/2+z
1/2+x,-y,1/2+z
loop_
_atom_site_type_symbol
_atom_site_label
_atom_site_fract_x
_atom_site_fract_y
_atom_site_fract_z
Si Si1 0.728912 0.071094 0.136489
Si Si2 0.000000 0.575430 0.159174
Si Si3 0.675166 0.065638 0.547850
Si Si4 0.861882 0.572393 0.786982
Si Si5 0.095113 0.066824 0.691803
Si Si6 0.000000 0.930368 0.935832
O O1 0.710314 0.250000 0.124101
O O2 0.776802 0.054990 0.185797
O O3 0.780817 0.001584 0.093661
O O4 0.642924 0.979548 0.143707
O O5 0.921782 0.555698 0.191419
O O6 0.000000 0.441205 0.120264
O O7 0.000000 0.750000 0.137035
O O8 0.682943 0.250000 0.549306
O O9 0.716901 0.000000 0.500000
O O10 0.580325 0.016197 0.545417
O O11 0.894637 0.750000 0.792094
O O12 0.857387 0.529428 0.732261
O O13 0.102943 0.250000 0.701261
O O14 0.000000 0.016558 0.687780
O O15 0.000000 0.750000 0.951361
#
# Coordination Sequence:
#
# PCOD8301614 Si02
#       6
#    16   8  16  16  16   8
#     4  11  24  41  62  89 121 158 203 250 302 360
#     4  12  22  33  55  86 122 166 206 243 294 349
#     4  12  25  42  64  90 122 159 201 249 301 357
#     4  11  22  37  59  86 122 163 204 247 296 352
#     4  11  24  40  60  88 122 159 204 251 300 357
#     4  12  23  39  60  88 125 164 206 247 293 351
#
# _framework density 20.111609000000001
#
# number of rings (size 3 to 8) (size 9 to 14) (size 15 to 20)
#    0.000    0.600    3.000    6.300    0.000    6.000 
#    0.000    0.000    0.000    0.600    0.000    0.000 
#    0.000    0.000    0.000    0.000    0.000    0.000 
#
# Total GULP energy -495959.729528 kJ/mol
# GULP energy per Si atom -12398.993238 kJ/mol
# Density = 2.006583 g / cm^3
# Si number density = 20.111609 Si / 1000 Ang^3
#
#
#
# Elastic Constant Matrix: (Units=GPa)
#
#
# Indices 1 2 3 4 5 6 
#
# 1 92.6766 51.3846 62.1207 0.0000 0.0000 0.0000
# 2 51.3846 133.2542 36.1653 0.0000 0.0000 0.0000
# 3 62.1207 36.1653 100.1533 0.0000 0.0000 0.0000
# 4 0.0000 0.0000 0.0000 35.7155 0.0000 0.0000
# 5 0.0000 0.0000 0.0000 0.0000 2.3012 0.0000
# 6 0.0000 0.0000 0.0000 0.0000 0.0000 27.5995
#
#
#
# Elastic Compliance Matrix: (Units=1/GPa)
#
#
# Indices 1 2 3 4 5 6 
#
# 1 0.021199 -0.005107 -0.011305 0.000000 0.000000 0.000000
# 2 -0.005107 0.009550 -0.000281 0.000000 0.000000 0.000000
# 3 -0.011305 -0.000281 0.017098 0.000000 0.000000 0.000000
# 4 0.000000 0.000000 0.000000 0.027999 0.000000 0.000000
# 5 0.000000 0.000000 0.000000 0.000000 0.434552 0.000000
# 6 0.000000 0.000000 0.000000 0.000000 0.000000 0.036233
#
#
# Mechanical properties :
#
#
# Convention : Reuss Voigt Hill
#
# Bulk Modulus (GPa) = 69.14641 69.49170 69.31905
# Shear Modulus (GPa) = 8.54940 24.88414 16.71677
#
# Velocity S-wave (km/s) = 2.06403 3.52135 2.88618
# Velocity P-wave (km/s) = 6.33532 7.15271 6.75638
#
# Compressibility (1/GPa) = 0.01446207
#
# Stress axis : x y z
#
# Youngs Moduli (GPa) = 47.17163 104.71326 58.48576
#
# Poissons Ratio (x) = 0.53472 0.66118
# Poissons Ratio (y) = 0.24088 0.01644
# Poissons Ratio (z) = 0.53327 0.02944
#
# Static dielectric constant tensor:
#      x y z
#    x 3.566550 0.000000 0.000000 
#    y 0.000000 3.684870 0.000000 
#    z 0.000000 0.000000 3.751220 
# 
# 
# High freq. dielectric constant tensor:
#      x y z
#    x 1.768760 0.000000 0.000000 
#    y 0.000000 1.801160 0.000000 
#    z 0.000000 0.000000 1.780980 
# 
# From -- ./inp_files/67583.got.cif
#   From: 2010.03.12/outbox.cif.g09.slc.cpg/sg74_34_cif.got.tgz:67583.got - 2010.04.16 15:46:19.
