data_PCOD8301545
_publ_section_title
;
Structure prediction by ZEFSAII (Michael W. Deem and Ramdas Pophale) SiO2 
 PCOD8301545
Probable space group: I M M A
;
_chemical_formula_sum "Si O2"
_cell_formula_units_Z 64
_cell_length_a 17.001025
_cell_length_b 21.068997
_cell_length_c 8.983239
_cell_angle_alpha 90.000000
_cell_angle_beta 90.000000
_cell_angle_gamma 90.000000
_cell_volume 3217.747204
_symmetry_space_group_name_H-M "I M M A"
_symmetry_group_IT_number 74
_symmetry_cell_setting 'orthorhombic'
loop_
_space_group_symop_operation_xyz
x,y,z
-x,1/2-y,z
x,-y,-z
-x,1/2+y,-z
-x,-y,-z
x,1/2+y,-z
-x,y,z
x,1/2-y,z
1/2+x,1/2+y,1/2+z
1/2-x,-y,1/2+z
1/2+x,1/2-y,1/2-z
1/2-x,y,1/2-z
1/2-x,1/2-y,1/2-z
1/2+x,y,1/2-z
1/2-x,1/2+y,1/2+z
1/2+x,-y,1/2+z
loop_
_atom_site_type_symbol
_atom_site_label
_atom_site_fract_x
_atom_site_fract_y
_atom_site_fract_z
Si Si1 0.337329 0.631338 0.194996
Si Si2 0.093684 0.868306 0.627981
Si Si3 0.593222 0.750000 0.681021
Si Si4 0.587180 0.503783 0.177710
Si Si5 0.408812 0.250000 0.646103
O O1 0.250000 0.645498 0.250000
O O2 0.358864 0.559412 0.246751
O O3 0.389526 0.685990 0.266849
O O4 0.352254 0.635263 0.018697
O O5 0.122454 0.811647 0.731575
O O6 0.112095 0.932313 0.724590
O O7 0.000000 0.865643 0.585795
O O8 0.500000 0.750000 0.674014
O O9 0.631983 0.750000 0.516971
O O10 0.500000 0.519949 0.234865
O O11 0.589236 0.500000 0.000000
O O12 0.500000 0.250000 0.618084
#
# Coordination Sequence:
#
# PCOD8301545 Si02
#       5
#    16  16   8  16   8
#     4  11  21  34  53  82 112 139 174 220 272 324
#     4   9  17  35  61  81 102 141 189 224 256 316
#     4   9  19  35  56  80 102 133 182 231 268 308
#     4   8  15  31  56  80 100 132 180 223 255 302
#     4  11  22  37  55  78 109 141 178 227 276 316
#
# _framework density 19.889693000000001
#
# number of rings (size 3 to 8) (size 9 to 14) (size 15 to 20)
#    0.000    2.500    0.000    4.875    0.000    1.000 
#    0.000   11.250    0.000    6.000    0.000    0.000 
#    0.000    0.000    0.000    0.000    0.000    0.000 
#
# Total GULP energy -396485.624253 kJ/mol
# GULP energy per Si atom -12390.175758 kJ/mol
# Density = 1.984442 g / cm^3
# Si number density = 19.889693 Si / 1000 Ang^3
#
#
#
# Elastic Constant Matrix: (Units=GPa)
#
#
# Indices 1 2 3 4 5 6 
#
# 1 46.1305 18.9527 20.6925 0.0000 0.0000 0.0000
# 2 18.9527 188.8702 53.0966 0.0000 0.0000 0.0000
# 3 20.6925 53.0966 70.3293 0.0000 0.0000 0.0000
# 4 0.0000 0.0000 0.0000 46.5909 0.0000 0.0000
# 5 0.0000 0.0000 0.0000 0.0000 9.8053 0.0000
# 6 0.0000 0.0000 0.0000 0.0000 0.0000 16.2104
#
#
#
# Elastic Compliance Matrix: (Units=1/GPa)
#
#
# Indices 1 2 3 4 5 6 
#
# 1 0.025020 -0.000560 -0.006939 0.000000 0.000000 0.000000
# 2 -0.000560 0.006734 -0.004919 0.000000 0.000000 0.000000
# 3 -0.006939 -0.004919 0.019974 0.000000 0.000000 0.000000
# 4 0.000000 0.000000 0.000000 0.021463 0.000000 0.000000
# 5 0.000000 0.000000 0.000000 0.000000 0.101986 0.000000
# 6 0.000000 0.000000 0.000000 0.000000 0.000000 0.061689
#
#
# Mechanical properties :
#
#
# Convention : Reuss Voigt Hill
#
# Bulk Modulus (GPa) = 37.18510 54.53484 45.85997
# Shear Modulus (GPa) = 18.47299 28.69388 23.58343
#
# Velocity S-wave (km/s) = 3.05088 3.80234 3.44715
# Velocity P-wave (km/s) = 5.58093 6.83778 6.24107
#
# Compressibility (1/GPa) = 0.02689249
#
# Stress axis : x y z
#
# Youngs Moduli (GPa) = 39.96771 148.50676 50.06502
#
# Poissons Ratio (x) = 0.08317 0.34739
# Poissons Ratio (y) = 0.02238 0.24627
# Poissons Ratio (z) = 0.27732 0.73050
#
# Static dielectric constant tensor:
#      x y z
#    x 3.271080 0.000000 0.000000 
#    y 0.000000 4.392680 0.000000 
#    z 0.000000 0.000000 3.387070 
# 
# 
# High freq. dielectric constant tensor:
#      x y z
#    x 1.743690 0.000000 0.000000 
#    y 0.000000 1.808730 0.000000 
#    z 0.000000 0.000000 1.743520 
# 
# From -- ./inp_files/10308.got.cif
#   From: 2010.03.12/outbox.cif.g09.slc.cpg/sg74_6_cif.got.tgz:10308.got - 2010.04.16 15:46:19.
