data_PCOD8301598
_publ_section_title
;
Structure prediction by ZEFSAII (Michael W. Deem and Ramdas Pophale) SiO2 
 PCOD8301598
Probable space group: I M M A
;
_chemical_formula_sum "Si O2"
_cell_formula_units_Z 72
_cell_length_a 10.006080
_cell_length_b 28.605956
_cell_length_c 13.049173
_cell_angle_alpha 90.000000
_cell_angle_beta 90.000000
_cell_angle_gamma 90.000000
_cell_volume 3735.110254
_symmetry_space_group_name_H-M "I M M A"
_symmetry_group_IT_number 74
_symmetry_cell_setting 'orthorhombic'
loop_
_space_group_symop_operation_xyz
x,y,z
-x,1/2-y,z
x,-y,-z
-x,1/2+y,-z
-x,-y,-z
x,1/2+y,-z
-x,y,z
x,1/2-y,z
1/2+x,1/2+y,1/2+z
1/2-x,-y,1/2+z
1/2+x,1/2-y,1/2-z
1/2-x,y,1/2-z
1/2-x,1/2-y,1/2-z
1/2+x,y,1/2-z
1/2-x,1/2+y,1/2+z
1/2+x,-y,1/2+z
loop_
_atom_site_type_symbol
_atom_site_label
_atom_site_fract_x
_atom_site_fract_y
_atom_site_fract_z
Si Si1 0.656515 0.250000 0.151001
Si Si2 0.652028 0.575188 0.536654
Si Si3 0.732413 0.330202 0.995587
Si Si4 0.000000 0.693715 0.348721
Si Si5 0.150948 0.485781 0.838395
Si Si6 0.500000 0.695862 0.382282
O O1 0.500000 0.250000 0.182496
O O2 0.750000 0.250000 0.250000
O O3 0.688914 0.295807 0.085695
O O4 0.500000 0.591803 0.558201
O O5 0.755869 0.618123 0.544485
O O6 0.695887 0.536274 0.618615
O O7 0.659617 0.553683 0.423999
O O8 0.628636 0.327891 0.903087
O O9 0.874069 0.318312 0.948053
O O10 0.000000 0.674329 0.232304
O O11 0.000000 0.750000 0.358804
O O12 0.250000 0.470019 0.750000
O O13 0.000000 0.488858 0.796074
O O14 0.500000 0.750000 0.362365
#
# Coordination Sequence:
#
# PCOD8301598 Si02
#       6
#     8  16  16   8  16   8
#     4  12  28  46  65  89 122 168 211 257 303 348
#     4   9  20  38  62  85 118 161 197 243 303 359
#     4  12  21  42  61  89 129 158 208 254 299 365
#     4  11  22  40  58  89 130 164 200 256 307 360
#     4   9  19  40  61  85 118 153 198 247 300 363
#     4  11  22  34  64  91 118 168 202 240 315 374
#
# _framework density 19.276541000000002
#
# number of rings (size 3 to 8) (size 9 to 14) (size 15 to 20)
#    0.000    1.556    4.444    2.000    1.556    4.444 
#    4.000    3.333    0.000    0.000    0.000    0.000 
#    0.000    0.000    0.000    0.000    0.000    0.000 
#
# Total GULP energy -446396.470527 kJ/mol
# GULP energy per Si atom -12399.901959 kJ/mol
# Density = 1.923267 g / cm^3
# Si number density = 19.276541 Si / 1000 Ang^3
#
#
#
# Elastic Constant Matrix: (Units=GPa)
#
#
# Indices 1 2 3 4 5 6 
#
# 1 121.4664 21.1601 41.2339 0.0001 0.0000 0.0000
# 2 21.1601 90.9374 3.5793 0.0001 0.0000 0.0001
# 3 41.2339 3.5793 79.5063 0.0001 0.0001 0.0002
# 4 0.0001 0.0001 0.0001 11.3767 0.0000 0.0001
# 5 0.0000 0.0000 0.0001 0.0000 41.6047 0.0001
# 6 0.0000 0.0001 0.0002 0.0001 0.0001 22.7571
#
#
#
# Elastic Compliance Matrix: (Units=1/GPa)
#
#
# Indices 1 2 3 4 5 6 
#
# 1 0.010419 -0.002216 -0.005304 0.000000 0.000000 0.000000
# 2 -0.002216 0.011487 0.000632 0.000000 0.000000 0.000000
# 3 -0.005304 0.000632 0.015300 0.000000 0.000000 0.000000
# 4 0.000000 0.000000 0.000000 0.087899 0.000000 0.000000
# 5 0.000000 0.000000 0.000000 0.000000 0.024036 0.000000
# 6 0.000000 0.000000 0.000000 0.000000 0.000000 0.043942
#
#
# Mechanical properties :
#
#
# Convention : Reuss Voigt Hill
#
# Bulk Modulus (GPa) = 42.67827 47.09520 44.88674
# Shear Modulus (GPa) = 23.29169 30.21014 26.75092
#
# Velocity S-wave (km/s) = 3.47982 3.96308 3.72929
# Velocity P-wave (km/s) = 6.19141 6.73986 6.47145
#
# Compressibility (1/GPa) = 0.02343113
#
# Stress axis : x y z
#
# Youngs Moduli (GPa) = 95.97642 87.05297 65.35984
#
# Poissons Ratio (x) = 0.19288 0.34666
# Poissons Ratio (y) = 0.21265 -0.04130
# Poissons Ratio (z) = 0.50905 -0.05501
#
# Static dielectric constant tensor:
#      x y z
#    x 3.462220 0.000000 0.000000 
#    y 0.000000 3.753770 0.000000 
#    z 0.000000 0.000000 3.528560 
# 
# 
# High freq. dielectric constant tensor:
#      x y z
#    x 1.753300 0.000000 0.000000 
#    y 0.000000 1.753020 0.000000 
#    z 0.000000 0.000000 1.744810 
# 
# From -- ./inp_files/29451.got.cif
#   From: 2010.03.12/outbox.cif.g09.slc.cpg/sg74_15_cif.got.tgz:29451.got - 2010.04.16 15:46:19.
