data_PCOD8301386
_publ_section_title
;
Structure prediction by ZEFSAII (Michael W. Deem and Ramdas Pophale) SiO2 
 PCOD8301386
Probable space group: I M M A
;
_chemical_formula_sum "Si O2"
_cell_formula_units_Z 112
_cell_length_a 16.748732
_cell_length_b 29.275438
_cell_length_c 11.062595
_cell_angle_alpha 90.000000
_cell_angle_beta 90.000000
_cell_angle_gamma 90.000000
_cell_volume 5424.283103
_symmetry_space_group_name_H-M "I M M A"
_symmetry_group_IT_number 74
_symmetry_cell_setting 'orthorhombic'
loop_
_space_group_symop_operation_xyz
x,y,z
-x,1/2-y,z
x,-y,-z
-x,1/2+y,-z
-x,-y,-z
x,1/2+y,-z
-x,y,z
x,1/2-y,z
1/2+x,1/2+y,1/2+z
1/2-x,-y,1/2+z
1/2+x,1/2-y,1/2-z
1/2-x,y,1/2-z
1/2-x,1/2-y,1/2-z
1/2+x,y,1/2-z
1/2-x,1/2+y,1/2+z
1/2+x,-y,1/2+z
loop_
_atom_site_type_symbol
_atom_site_label
_atom_site_fract_x
_atom_site_fract_y
_atom_site_fract_z
Si Si1 0.905072 0.199744 0.999170
Si Si2 0.410192 0.463470 0.712862
Si Si3 0.593916 0.622311 0.936115
Si Si4 0.799747 0.598877 0.360405
Si Si5 0.155585 0.438560 0.234830
Si Si6 0.406878 0.799635 0.769793
Si Si7 0.355720 0.398785 0.514928
O O1 0.880578 0.250000 0.942397
O O2 0.871343 0.198898 0.135515
O O3 0.000000 0.195457 0.994787
O O4 0.868577 0.153933 0.938136
O O5 0.500000 0.463259 0.766388
O O6 0.346712 0.444725 0.809752
O O7 0.382126 0.514568 0.686752
O O8 0.412160 0.432659 0.591391
O O9 0.500000 0.625821 0.957422
O O10 0.615723 0.576096 0.862587
O O11 0.632214 0.663152 0.857231
O O12 0.634337 0.628370 0.068188
O O13 0.750000 0.623397 0.250000
O O14 0.734660 0.584432 0.459982
O O15 0.250000 0.442587 0.250000
O O16 0.130128 0.402615 0.129147
O O17 0.500000 0.810337 0.760439
O O18 0.390747 0.750000 0.827774
#
# Coordination Sequence:
#
# PCOD8301386 Si02
#       7
#    16  16  16  16  16  16  16
#     4   9  17  31  56  92 130 163 200 250 309 373
#     4  11  25  41  60  86 117 161 217 264 300 359
#     4  11  21  36  63  90 119 159 208 261 306 369
#     4  10  23  43  59  80 116 164 206 252 314 369
#     4  12  23  38  60  91 129 162 199 248 319 381
#     4   8  15  29  52  86 123 153 187 242 311 369
#     4  11  21  38  63  88 126 166 199 245 315 382
#
# _framework density 20.647888999999999
#
# number of rings (size 3 to 8) (size 9 to 14) (size 15 to 20)
#    0.000    1.714    2.857    3.857    0.000    2.857 
#    0.000    2.143    0.000   10.286    0.000    8.000 
#    0.000    0.000    0.000    0.000    0.000    0.000 
#
# Total GULP energy -693747.027296 kJ/mol
# GULP energy per Si atom -12388.339773 kJ/mol
# Density = 2.060089 g / cm^3
# Si number density = 20.647889 Si / 1000 Ang^3
#
#
#
# Elastic Constant Matrix: (Units=GPa)
#
#
# Indices 1 2 3 4 5 6 
#
# 1 95.4435 28.8197 25.2671 0.0008 0.0004 0.0001
# 2 28.8197 125.3820 25.6145 0.0021 0.0000 -0.0004
# 3 25.2671 25.6145 77.7932 -0.0037 -0.0010 -0.0001
# 4 0.0008 0.0021 -0.0037 23.6853 -0.0010 -0.0002
# 5 0.0004 0.0000 -0.0010 -0.0010 36.6063 0.0000
# 6 0.0001 -0.0004 -0.0001 -0.0002 0.0000 14.5652
#
#
#
# Elastic Compliance Matrix: (Units=1/GPa)
#
#
# Indices 1 2 3 4 5 6 
#
# 1 0.011956 -0.002096 -0.003193 -0.000001 0.000000 0.000000
# 2 -0.002096 0.008918 -0.002256 -0.000001 0.000000 0.000000
# 3 -0.003193 -0.002256 0.014634 0.000003 0.000000 0.000000
# 4 -0.000001 -0.000001 0.000003 0.042220 0.000001 0.000001
# 5 0.000000 0.000000 0.000000 0.000001 0.027318 0.000000
# 6 0.000000 0.000000 0.000000 0.000001 0.000000 0.068657
#
#
# Mechanical properties :
#
#
# Convention : Reuss Voigt Hill
#
# Bulk Modulus (GPa) = 48.97392 50.89125 49.93259
# Shear Modulus (GPa) = 25.56256 29.56584 27.56420
#
# Velocity S-wave (km/s) = 3.52237 3.78816 3.65768
# Velocity P-wave (km/s) = 6.34924 6.62074 6.48641
#
# Compressibility (1/GPa) = 0.02041903
#
# Stress axis : x y z
#
# Youngs Moduli (GPa) = 83.64325 112.13062 68.33190
#
# Poissons Ratio (x) = 0.23499 0.21819
# Poissons Ratio (y) = 0.17529 0.15414
# Poissons Ratio (z) = 0.26708 0.25294
#
# Static dielectric constant tensor:
#      x y z
#    x 3.671180 0.000000 0.000000 
#    y 0.000000 3.826380 0.000000 
#    z 0.000000 0.000000 3.762740 
# 
# 
# High freq. dielectric constant tensor:
#      x y z
#    x 1.803410 0.000000 0.000000 
#    y 0.000000 1.799960 0.000000 
#    z 0.000000 0.000000 1.788790 
# 
# From -- ./inp_files/21137.got.cif
#   From: 2010.03.12/outbox.cif.g09.slc.cpg/sg74_11_cif.got.tgz:21137.got - 2010.04.16 15:46:19.
