data_PCOD8301631
_publ_section_title
;
Structure prediction by ZEFSAII (Michael W. Deem and Ramdas Pophale) SiO2 
 PCOD8301631
Probable space group: I M M A
;
_chemical_formula_sum "Si O2"
_cell_formula_units_Z 96
_cell_length_a 22.615882
_cell_length_b 21.696686
_cell_length_c 9.773645
_cell_angle_alpha 90.000000
_cell_angle_beta 90.000000
_cell_angle_gamma 90.000000
_cell_volume 4795.826839
_symmetry_space_group_name_H-M "I M M A"
_symmetry_group_IT_number 74
_symmetry_cell_setting 'orthorhombic'
loop_
_space_group_symop_operation_xyz
x,y,z
-x,1/2-y,z
x,-y,-z
-x,1/2+y,-z
-x,-y,-z
x,1/2+y,-z
-x,y,z
x,1/2-y,z
1/2+x,1/2+y,1/2+z
1/2-x,-y,1/2+z
1/2+x,1/2-y,1/2-z
1/2-x,y,1/2-z
1/2-x,1/2-y,1/2-z
1/2+x,y,1/2-z
1/2-x,1/2+y,1/2+z
1/2+x,-y,1/2+z
loop_
_atom_site_type_symbol
_atom_site_label
_atom_site_fract_x
_atom_site_fract_y
_atom_site_fract_z
Si Si1 0.319469 0.820830 0.016517
Si Si2 0.069522 0.005330 0.662777
Si Si3 0.880728 0.629744 0.230758
Si Si4 0.500000 0.821038 0.653822
Si Si5 0.683447 0.323537 0.471462
Si Si6 0.000000 0.821219 0.148086
Si Si7 0.385274 0.624983 0.773660
O O1 0.330219 0.750000 0.979111
O O2 0.363115 0.862298 0.926636
O O3 0.334751 0.834372 0.173346
O O4 0.251662 0.838418 0.994030
O O5 0.097061 0.946255 0.738294
O O6 0.000000 0.013124 0.701324
O O7 0.076676 0.000000 0.500000
O O8 0.110157 0.059361 0.724026
O O9 0.855521 0.637915 0.078613
O O10 0.944392 0.661003 0.239792
O O11 0.500000 0.750000 0.623213
O O12 0.500000 0.853999 0.503157
O O13 0.556586 0.836322 0.743428
O O14 0.669794 0.250000 0.478824
O O15 0.667029 0.352458 0.325525
O O16 0.000000 0.750000 0.122030
#
# Coordination Sequence:
#
# PCOD8301631 Si02
#       7
#    16  16  16   8  16   8  16
#     4  11  24  42  67  98 132 174 222 269 326 393
#     4  11  24  45  64  92 137 178 215 274 327 382
#     4  12  23  42  67  96 130 176 220 263 330 391
#     4  11  22  38  63 100 138 163 206 279 340 391
#     4  11  24  44  67  98 138 172 210 275 336 385
#     4  11  22  38  63 100 138 163 206 279 340 391
#     4  12  23  42  67  96 130 176 220 263 330 391
#
# _framework density 20.017405
#
# number of rings (size 3 to 8) (size 9 to 14) (size 15 to 20)
#    0.000    0.667    5.000    4.000    0.000    4.000 
#    0.000    8.333    0.000    0.000    0.000    0.000 
#    0.000    0.000    0.000    0.000    0.000    0.000 
#
# Total GULP energy -595319.723822 kJ/mol
# GULP energy per Si atom -12402.494246 kJ/mol
# Density = 1.997184 g / cm^3
# Si number density = 20.017405 Si / 1000 Ang^3
#
#
#
# Elastic Constant Matrix: (Units=GPa)
#
#
# Indices 1 2 3 4 5 6 
#
# 1 107.2673 41.9545 12.9031 0.0000 0.0000 0.0000
# 2 41.9545 95.9636 22.9906 0.0000 0.0000 0.0000
# 3 12.9031 22.9906 58.0338 0.0000 0.0000 0.0000
# 4 0.0000 0.0000 0.0000 34.6804 0.0000 0.0000
# 5 0.0000 0.0000 0.0000 0.0000 48.3982 0.0000
# 6 0.0000 0.0000 0.0000 0.0000 0.0000 136.8606
#
#
#
# Elastic Compliance Matrix: (Units=1/GPa)
#
#
# Indices 1 2 3 4 5 6 
#
# 1 0.011265 -0.004778 -0.000612 0.000000 0.000000 0.000000
# 2 -0.004778 0.013540 -0.004302 0.000000 0.000000 0.000000
# 3 -0.000612 -0.004302 0.019071 0.000000 0.000000 0.000000
# 4 0.000000 0.000000 0.000000 0.028835 0.000000 0.000000
# 5 0.000000 0.000000 0.000000 0.000000 0.020662 0.000000
# 6 0.000000 0.000000 0.000000 0.000000 0.000000 0.007307
#
#
# Mechanical properties :
#
#
# Convention : Reuss Voigt Hill
#
# Bulk Modulus (GPa) = 40.82749 46.32902 43.57826
# Shear Modulus (GPa) = 38.99301 56.21560 47.60431
#
# Velocity S-wave (km/s) = 4.41835 5.30512 4.88191
# Velocity P-wave (km/s) = 6.81685 7.79233 7.32085
#
# Compressibility (1/GPa) = 0.02449330
#
# Stress axis : x y z
#
# Youngs Moduli (GPa) = 88.77030 73.85361 52.43437
#
# Poissons Ratio (x) = 0.35291 0.03207
# Poissons Ratio (y) = 0.42418 0.22556
# Poissons Ratio (z) = 0.05429 0.31769
#
# Static dielectric constant tensor:
#      x y z
#    x 3.644950 0.000000 0.000000 
#    y 0.000000 3.604450 0.000000 
#    z 0.000000 0.000000 3.665280 
# 
# 
# High freq. dielectric constant tensor:
#      x y z
#    x 1.793430 0.000000 0.000000 
#    y 0.000000 1.775460 0.000000 
#    z 0.000000 0.000000 1.789050 
# 
# From -- ./inp_files/15340.got.cif
#   From: 2010.03.12/outbox.cif.g09.slc.cpg/sg74_8_cif.got.tgz:15340.got - 2010.04.16 15:46:19.
