data_PCOD8301785
_publ_section_title
;
Structure prediction by ZEFSAII (Michael W. Deem and Ramdas Pophale) SiO2 
 PCOD8301785
Probable space group: I M M A
;
_chemical_formula_sum "Si O2"
_cell_formula_units_Z 104
_cell_length_a 27.423681
_cell_length_b 9.303328
_cell_length_c 24.204151
_cell_angle_alpha 90.000000
_cell_angle_beta 90.000000
_cell_angle_gamma 90.000000
_cell_volume 6175.241334
_symmetry_space_group_name_H-M "I M M A"
_symmetry_group_IT_number 74
_symmetry_cell_setting 'orthorhombic'
loop_
_space_group_symop_operation_xyz
x,y,z
-x,1/2-y,z
x,-y,-z
-x,1/2+y,-z
-x,-y,-z
x,1/2+y,-z
-x,y,z
x,1/2-y,z
1/2+x,1/2+y,1/2+z
1/2-x,-y,1/2+z
1/2+x,1/2-y,1/2-z
1/2-x,y,1/2-z
1/2-x,1/2-y,1/2-z
1/2+x,y,1/2-z
1/2-x,1/2+y,1/2+z
1/2+x,-y,1/2+z
loop_
_atom_site_type_symbol
_atom_site_label
_atom_site_fract_x
_atom_site_fract_y
_atom_site_fract_z
Si Si1 0.000000 0.413992 0.555133
Si Si2 0.820922 0.419000 0.652205
Si Si3 0.445032 0.414891 0.657914
Si Si4 0.557980 0.088447 0.448369
Si Si5 0.768321 0.087404 0.187666
Si Si6 0.894070 0.581650 0.442296
Si Si7 0.854225 0.585130 0.227247
O O1 0.000000 0.500000 0.500000
O O2 0.948197 0.448501 0.585110
O O3 0.000000 0.250000 0.537153
O O4 0.810113 0.250000 0.648727
O O5 0.769832 0.503602 0.648639
O O6 0.854496 0.472841 0.601822
O O7 0.848885 0.458932 0.708848
O O8 0.500000 0.457586 0.675585
O O9 0.443188 0.250000 0.637854
O O10 0.425536 0.511806 0.607863
O O11 0.410437 0.440585 0.710619
O O12 0.500000 0.090692 0.452164
O O13 0.579115 0.250000 0.449486
O O14 0.579822 0.000000 0.500000
O O15 0.773865 0.250000 0.165920
O O16 0.750000 0.082699 0.250000
O O17 0.820519 0.009104 0.186517
O O18 0.886488 0.500000 0.500000
O O19 0.887133 0.750000 0.454005
O O20 0.838378 0.750000 0.218795
#
# Coordination Sequence:
#
# PCOD8301785 Si02
#       7
#     8  16  16  16  16  16  16
#     4   8  14  26  42  62  88 120 156 192 227 268
#     4   9  17  30  47  69  93 119 154 193 235 281
#     4   9  17  29  44  65  94 124 152 183 222 271
#     4   9  16  26  42  63  85 113 149 186 219 253
#     4   9  17  29  47  69  89 112 146 188 227 267
#     4   9  17  29  46  68  94 125 160 198 238 280
#     4   9  17  30  47  67  93 125 155 187 230 277
#
# _framework density 16.841448
#
# number of rings (size 3 to 8) (size 9 to 14) (size 15 to 20)
#    0.000    3.077    0.000    0.923    0.000    4.923 
#    1.385    0.000    0.000    0.923    0.000    4.308 
#    0.000    0.000    0.000    0.000    0.000    0.000 
#
# Total GULP energy -644450.850718 kJ/mol
# GULP energy per Si atom -12393.285591 kJ/mol
# Density = 1.680312 g / cm^3
# Si number density = 16.841448 Si / 1000 Ang^3
#
#
#
# Elastic Constant Matrix: (Units=GPa)
#
#
# Indices 1 2 3 4 5 6 
#
# 1 104.3129 41.1582 51.9110 0.0000 0.0000 0.0000
# 2 41.1582 73.9686 36.7854 0.0000 0.0000 0.0000
# 3 51.9110 36.7854 75.2258 0.0000 0.0000 0.0000
# 4 0.0000 0.0000 0.0000 22.2559 0.0000 0.0000
# 5 0.0000 0.0000 0.0000 0.0000 26.1209 0.0000
# 6 0.0000 0.0000 0.0000 0.0000 0.0000 18.6842
#
#
#
# Elastic Compliance Matrix: (Units=1/GPa)
#
#
# Indices 1 2 3 4 5 6 
#
# 1 0.015614 -0.004400 -0.008623 0.000000 0.000000 0.000000
# 2 -0.004400 0.019103 -0.006305 0.000000 0.000000 0.000000
# 3 -0.008623 -0.006305 0.022327 0.000000 0.000000 0.000000
# 4 0.000000 0.000000 0.000000 0.044932 0.000000 0.000000
# 5 0.000000 0.000000 0.000000 0.000000 0.038284 0.000000
# 6 0.000000 0.000000 0.000000 0.000000 0.000000 0.053521
#
#
# Mechanical properties :
#
#
# Convention : Reuss Voigt Hill
#
# Bulk Modulus (GPa) = 54.38393 57.02404 55.70398
# Shear Modulus (GPa) = 20.95856 21.65572 21.30714
#
# Velocity S-wave (km/s) = 3.53152 3.58978 3.56077
# Velocity P-wave (km/s) = 6.99933 7.14946 7.07480
#
# Compressibility (1/GPa) = 0.01838779
#
# Stress axis : x y z
#
# Youngs Moduli (GPa) = 64.04615 52.34782 44.78835
#
# Poissons Ratio (x) = 0.23030 0.38622
# Poissons Ratio (y) = 0.28177 0.28241
# Poissons Ratio (z) = 0.55228 0.33007
#
# Static dielectric constant tensor:
#      x y z
#    x 3.325590 0.000000 0.000000 
#    y 0.000000 3.229060 0.000000 
#    z 0.000000 0.000000 2.888240 
# 
# 
# High freq. dielectric constant tensor:
#      x y z
#    x 1.638610 0.000000 0.000000 
#    y 0.000000 1.652550 0.000000 
#    z 0.000000 0.000000 1.617180 
# 
# From -- ./inp_files/62336.got.cif
#   From: 2010.03.12/outbox.cif.g09.slc.cpg/sg74_32_cif.got.tgz:62336.got - 2010.04.16 15:46:19.
