data_PCOD8301528
_publ_section_title
;
Structure prediction by ZEFSAII (Michael W. Deem and Ramdas Pophale) SiO2 
 PCOD8301528
Probable space group: I M M A
;
_chemical_formula_sum "Si O2"
_cell_formula_units_Z 112
_cell_length_a 27.910858
_cell_length_b 12.757052
_cell_length_c 16.169039
_cell_angle_alpha 90.000000
_cell_angle_beta 90.000000
_cell_angle_gamma 90.000000
_cell_volume 5757.152341
_symmetry_space_group_name_H-M "I M M A"
_symmetry_group_IT_number 74
_symmetry_cell_setting 'orthorhombic'
loop_
_space_group_symop_operation_xyz
x,y,z
-x,1/2-y,z
x,-y,-z
-x,1/2+y,-z
-x,-y,-z
x,1/2+y,-z
-x,y,z
x,1/2-y,z
1/2+x,1/2+y,1/2+z
1/2-x,-y,1/2+z
1/2+x,1/2-y,1/2-z
1/2-x,y,1/2-z
1/2-x,1/2-y,1/2-z
1/2+x,y,1/2-z
1/2-x,1/2+y,1/2+z
1/2+x,-y,1/2+z
loop_
_atom_site_type_symbol
_atom_site_label
_atom_site_fract_x
_atom_site_fract_y
_atom_site_fract_z
Si Si1 0.648081 0.873978 0.304691
Si Si2 0.720166 0.625550 0.635362
Si Si3 0.053094 0.126579 0.721862
Si Si4 0.799400 0.629692 0.355635
Si Si5 0.612912 0.524340 0.092427
Si Si6 0.823971 0.626659 0.697708
Si Si7 0.291633 0.125160 0.547476
O O1 0.652457 0.750000 0.293917
O O2 0.593152 0.908895 0.289029
O O3 0.684785 0.921041 0.233847
O O4 0.662340 0.907409 0.397435
O O5 0.722056 0.750000 0.629901
O O6 0.773800 0.588482 0.658003
O O7 0.679677 0.595304 0.703909
O O8 0.705528 0.575980 0.545426
O O9 0.054988 0.250000 0.706844
O O10 0.000000 0.091878 0.751660
O O11 0.065568 0.070302 0.635669
O O12 0.787181 0.750000 0.343138
O O13 0.845321 0.612501 0.414671
O O14 0.752877 0.578742 0.399077
O O15 0.632828 0.427059 0.147315
O O16 0.596757 0.500000 0.000000
O O17 0.831853 0.750000 0.688792
O O18 0.286969 0.250000 0.537382
#
# Coordination Sequence:
#
# PCOD8301528 Si02
#       7
#    16  16  16  16  16  16  16
#     4   8  14  25  43  70  96 121 155 192 242 299
#     4   8  15  29  47  65  92 136 178 203 226 267
#     4   9  19  37  56  72  96 126 156 200 259 314
#     4   9  17  29  44  66 101 135 158 192 242 290
#     4  11  21  31  49  75  97 124 167 204 241 293
#     4   9  18  33  48  65  97 138 172 200 234 274
#     4   9  14  23  44  70  97 128 162 201 236 277
#
# _framework density 19.454062
#
# number of rings (size 3 to 8) (size 9 to 14) (size 15 to 20)
#    0.000    3.000    0.000    3.429    0.000    4.286 
#   10.286    0.000    0.000    0.429    0.000    2.000 
#    0.000    3.429    0.000    0.000    0.000    0.000 
#
# Total GULP energy -693869.577927 kJ/mol
# GULP energy per Si atom -12390.528177 kJ/mol
# Density = 1.940978 g / cm^3
# Si number density = 19.454062 Si / 1000 Ang^3
#
#
#
# Elastic Constant Matrix: (Units=GPa)
#
#
# Indices 1 2 3 4 5 6 
#
# 1 123.0732 20.2965 71.5603 0.0000 0.0000 0.0000
# 2 20.2965 33.0085 33.2527 0.0000 0.0000 0.0000
# 3 71.5603 33.2527 162.8618 0.0000 0.0000 0.0000
# 4 0.0000 0.0000 0.0000 33.0763 0.0000 0.0000
# 5 0.0000 0.0000 0.0000 0.0000 16.0050 0.0000
# 6 0.0000 0.0000 0.0000 0.0000 0.0000 15.9831
#
#
#
# Elastic Compliance Matrix: (Units=1/GPa)
#
#
# Indices 1 2 3 4 5 6 
#
# 1 0.011062 -0.002399 -0.004371 0.000000 0.000000 0.000000
# 2 -0.002399 0.038660 -0.006840 0.000000 0.000000 0.000000
# 3 -0.004371 -0.006840 0.009457 0.000000 0.000000 0.000000
# 4 0.000000 0.000000 0.000000 0.030233 0.000000 0.000000
# 5 0.000000 0.000000 0.000000 0.000000 0.062481 0.000000
# 6 0.000000 0.000000 0.000000 0.000000 0.000000 0.062566
#
#
# Mechanical properties :
#
#
# Convention : Reuss Voigt Hill
#
# Bulk Modulus (GPa) = 31.28781 63.24026 47.26404
# Shear Modulus (GPa) = 19.81516 25.93513 22.87515
#
# Velocity S-wave (km/s) = 3.19495 3.65519 3.43279
# Velocity P-wave (km/s) = 5.45235 7.09873 6.32930
#
# Compressibility (1/GPa) = 0.03196132
#
# Stress axis : x y z
#
# Youngs Moduli (GPa) = 90.39726 25.86627 105.73945
#
# Poissons Ratio (x) = 0.06205 0.46218
# Poissons Ratio (y) = 0.21685 0.72321
# Poissons Ratio (z) = 0.39512 0.17691
#
# Static dielectric constant tensor:
#      x y z
#    x 3.334040 0.000000 0.000000 
#    y 0.000000 3.738970 0.000000 
#    z 0.000000 0.000000 3.870500 
# 
# 
# High freq. dielectric constant tensor:
#      x y z
#    x 1.700290 0.000000 0.000000 
#    y 0.000000 1.786700 0.000000 
#    z 0.000000 0.000000 1.758340 
# 
# From -- ./inp_files/37965.got.cif
#   From: 2010.03.12/outbox.cif.g09.slc.cpg/sg74_19_cif.got.tgz:37965.got - 2010.04.16 15:46:19.
