data_PCOD8301504
_publ_section_title
;
Structure prediction by ZEFSAII (Michael W. Deem and Ramdas Pophale) SiO2 
 PCOD8301504
Probable space group: I M M A
;
_chemical_formula_sum "Si O2"
_cell_formula_units_Z 80
_cell_length_a 14.511627
_cell_length_b 22.738869
_cell_length_c 11.756670
_cell_angle_alpha 90.000000
_cell_angle_beta 90.000000
_cell_angle_gamma 90.000000
_cell_volume 3879.442281
_symmetry_space_group_name_H-M "I M M A"
_symmetry_group_IT_number 74
_symmetry_cell_setting 'orthorhombic'
loop_
_space_group_symop_operation_xyz
x,y,z
-x,1/2-y,z
x,-y,-z
-x,1/2+y,-z
-x,-y,-z
x,1/2+y,-z
-x,y,z
x,1/2-y,z
1/2+x,1/2+y,1/2+z
1/2-x,-y,1/2+z
1/2+x,1/2-y,1/2-z
1/2-x,y,1/2-z
1/2-x,1/2-y,1/2-z
1/2+x,y,1/2-z
1/2-x,1/2+y,1/2+z
1/2+x,-y,1/2+z
loop_
_atom_site_type_symbol
_atom_site_label
_atom_site_fract_x
_atom_site_fract_y
_atom_site_fract_z
Si Si1 0.857365 0.910291 0.749162
Si Si2 0.396011 0.431733 0.998390
Si Si3 0.768296 0.626557 0.129763
Si Si4 0.897874 0.977780 0.119860
Si Si5 0.604610 0.317152 0.440716
O O1 0.750000 0.922233 0.750000
O O2 0.893369 0.901227 0.622052
O O3 0.881381 0.854440 0.826443
O O4 0.906955 0.968358 0.794408
O O5 0.500000 0.427180 0.949528
O O6 0.364282 0.500000 0.000000
O O7 0.329095 0.393882 0.919909
O O8 0.750000 0.660601 0.250000
O O9 0.829856 0.571052 0.167443
O O10 0.824074 0.665457 0.039527
O O11 0.000000 0.950837 0.101076
O O12 0.856810 0.000000 0.000000
O O13 0.500000 0.325757 0.485120
O O14 0.624012 0.250000 0.407199
#
# Coordination Sequence:
#
# PCOD8301504 Si02
#       5
#    16  16  16  16  16
#     4  12  21  39  66  94 129 165 203 259 325 389
#     4  11  23  39  59  93 135 168 200 249 318 389
#     4  12  24  40  63  91 128 169 215 261 320 389
#     4  11  20  33  60  96 131 162 203 256 316 389
#     4  11  25  45  68  93 123 166 222 277 324 376
#
# _framework density 20.621521999999999
#
# number of rings (size 3 to 8) (size 9 to 14) (size 15 to 20)
#    0.000    0.600    4.000    6.000    0.000    4.000 
#    0.000    0.000    0.000    0.600    0.000    0.000 
#    0.000    0.000    0.000    0.000    0.000    0.000 
#
# Total GULP energy -496051.568742 kJ/mol
# GULP energy per Si atom -12401.289219 kJ/mol
# Density = 2.057459 g / cm^3
# Si number density = 20.621522 Si / 1000 Ang^3
#
#
#
# Elastic Constant Matrix: (Units=GPa)
#
#
# Indices 1 2 3 4 5 6 
#
# 1 118.5190 25.1759 28.4277 -0.0001 0.0000 0.0001
# 2 25.1759 93.1681 36.8192 -0.0001 0.0001 -0.0001
# 3 28.4277 36.8192 129.8258 -0.0009 0.0003 -0.0002
# 4 -0.0001 -0.0001 -0.0009 13.4505 0.0001 -0.0003
# 5 0.0000 0.0001 0.0003 0.0001 11.4445 0.0001
# 6 0.0001 -0.0001 -0.0002 -0.0003 0.0001 -0.0863
#
#
#
# Elastic Compliance Matrix: (Units=1/GPa)
#
#
# Indices 1 2 3 4 5 6 
#
# 1 0.009195 -0.001902 -0.001474 0.000000 0.000000 0.000014
# 2 -0.001902 0.012482 -0.003123 0.000000 0.000000 -0.000015
# 3 -0.001474 -0.003123 0.008911 0.000001 0.000000 -0.000017
# 4 0.000000 0.000000 0.000001 0.074346 -0.000001 -0.000222
# 5 0.000000 0.000000 0.000000 -0.000001 0.087378 0.000099
# 6 0.000014 -0.000015 -0.000017 -0.000222 0.000099-11.586765
#
#
# Mechanical properties :
#
#
# Convention : Reuss Voigt Hill
#
# Bulk Modulus (GPa) = 56.85403 58.03982 57.44693
# Shear Modulus (GPa) = -0.43954 21.70109 10.63078
#
# Velocity S-wave (km/s) = -0.46218 3.24752 2.27297
# Velocity P-wave (km/s) = 5.22927 6.50140 5.89972
#
# Compressibility (1/GPa) = 0.01758890
#
# Stress axis : x y z
#
# Youngs Moduli (GPa) = 108.75388 80.11787 112.21875
#
# Poissons Ratio (x) = 0.15240 0.16541
# Poissons Ratio (y) = 0.20687 0.35050
# Poissons Ratio (z) = 0.16030 0.25023
#
# Static dielectric constant tensor:
#      x y z
#    x 3.982550 0.000000 0.000000 
#    y 0.000000 3.460720 0.000000 
#    z 0.000000 0.000000 3.874230 
# 
# 
# High freq. dielectric constant tensor:
#      x y z
#    x 1.831470 0.000000 0.000000 
#    y 0.000000 1.767120 0.000000 
#    z 0.000000 0.000000 1.814980 
# 
# From -- ./inp_files/20465.got.cif
#   From: 2010.03.12/outbox.cif.g09.slc.cpg/sg74_11_cif.got.tgz:20465.got - 2010.04.16 15:46:19.
