data_PCOD8301323
_publ_section_title
;
Structure prediction by ZEFSAII (Michael W. Deem and Ramdas Pophale) SiO2 
 PCOD8301323
Probable space group: I M M A
;
_chemical_formula_sum "Si O2"
_cell_formula_units_Z 112
_cell_length_a 15.540377
_cell_length_b 29.451710
_cell_length_c 10.992798
_cell_angle_alpha 90.000000
_cell_angle_beta 90.000000
_cell_angle_gamma 90.000000
_cell_volume 5031.301155
_symmetry_space_group_name_H-M "I M M A"
_symmetry_group_IT_number 74
_symmetry_cell_setting 'orthorhombic'
loop_
_space_group_symop_operation_xyz
x,y,z
-x,1/2-y,z
x,-y,-z
-x,1/2+y,-z
-x,-y,-z
x,1/2+y,-z
-x,y,z
x,1/2-y,z
1/2+x,1/2+y,1/2+z
1/2-x,-y,1/2+z
1/2+x,1/2-y,1/2-z
1/2-x,y,1/2-z
1/2-x,1/2-y,1/2-z
1/2+x,y,1/2-z
1/2-x,1/2+y,1/2+z
1/2+x,-y,1/2+z
loop_
_atom_site_type_symbol
_atom_site_label
_atom_site_fract_x
_atom_site_fract_y
_atom_site_fract_z
Si Si1 0.854514 0.452637 0.536948
Si Si2 0.094097 0.615014 0.787467
Si Si3 0.601543 0.945452 0.310890
Si Si4 0.241625 0.302221 0.610188
Si Si5 0.096880 0.855977 0.535857
Si Si6 0.094569 0.852985 0.051474
Si Si7 0.801429 0.970658 0.864273
O O1 0.902512 0.500000 0.500000
O O2 0.849715 0.445276 0.681549
O O3 0.904047 0.410220 0.481958
O O4 0.757014 0.457393 0.481841
O O5 0.124037 0.648982 0.677874
O O6 0.157287 0.573794 0.807319
O O7 0.000000 0.595654 0.751805
O O8 0.086911 0.643767 0.908042
O O9 0.500000 0.947817 0.287729
O O10 0.625435 0.900053 0.386635
O O11 0.629835 0.988908 0.393279
O O12 0.219311 0.250000 0.585414
O O13 0.250000 0.314622 0.750000
O O14 0.165609 0.331483 0.549905
O O15 0.336378 0.313287 0.563208
O O16 0.000000 0.837377 0.508684
O O17 0.000000 0.839129 0.104415
O O18 0.750000 0.991195 0.750000
#
# Coordination Sequence:
#
# PCOD8301323 Si02
#       7
#    16  16  16  16  16  16  16
#     4  12  24  38  60  95 131 179 235 288 344 414
#     4  10  22  41  64  93 134 179 227 277 338 418
#     4  11  25  42  61  90 132 183 237 294 356 424
#     4  11  26  46  72 104 135 173 226 288 355 426
#     4  11  24  44  70  99 136 182 228 285 347 412
#     4  10  24  44  69  97 132 176 223 281 352 425
#     4  12  23  36  56  92 130 183 231 289 347 404
#
# _framework density 22.260643000000002
#
# number of rings (size 3 to 8) (size 9 to 14) (size 15 to 20)
#    0.000    1.000    2.857    2.571    4.000    5.143 
#    0.000    5.000    0.000    2.571    0.000    0.000 
#    0.000    0.000    0.000    0.000    0.000    0.000 
#
# Total GULP energy -693921.632417 kJ/mol
# GULP energy per Si atom -12391.457722 kJ/mol
# Density = 2.220998 g / cm^3
# Si number density = 22.260643 Si / 1000 Ang^3
#
#
#
# Elastic Constant Matrix: (Units=GPa)
#
#
# Indices 1 2 3 4 5 6 
#
# 1 122.3952 47.6206 58.2094 -0.0009 -0.0033 0.0005
# 2 47.6206 72.3836 50.1101 0.0008 -0.0101 -0.0010
# 3 58.2094 50.1101 153.9600 0.0037 -0.0520 0.0042
# 4 -0.0009 0.0008 0.0037 24.0197 -0.0262 0.0132
# 5 -0.0033 -0.0101 -0.0520 -0.0262 -73.6220 0.0116
# 6 0.0005 -0.0010 0.0042 0.0132 0.0116 30.5764
#
#
#
# Elastic Compliance Matrix: (Units=1/GPa)
#
#
# Indices 1 2 3 4 5 6 
#
# 1 0.011665 -0.005965 -0.002469 0.000001 0.000002 0.000000
# 2 -0.005965 0.020884 -0.004542 0.000000 0.000001 0.000001
# 3 -0.002469 -0.004542 0.008907 -0.000001 -0.000006 -0.000001
# 4 0.000001 0.000000 -0.000001 0.041633 -0.000015 -0.000018
# 5 0.000002 0.000001 -0.000006 -0.000015 -0.013583 0.000005
# 6 0.000000 0.000001 -0.000001 -0.000018 0.000005 0.032705
#
#
# Mechanical properties :
#
#
# Convention : Reuss Voigt Hill
#
# Bulk Modulus (GPa) = 64.49885 73.40209 68.95047
# Shear Modulus (GPa) = 37.50056 9.04806 23.27431
#
# Velocity S-wave (km/s) = 4.10886 2.01827 3.23698
# Velocity P-wave (km/s) = 7.17966 6.20296 6.70911
#
# Compressibility (1/GPa) = 0.01550415
#
# Stress axis : x y z
#
# Youngs Moduli (GPa) = 85.72366 47.88323 112.27272
#
# Poissons Ratio (x) = 0.28564 0.27719
# Poissons Ratio (y) = 0.51138 0.50993
# Poissons Ratio (z) = 0.21164 0.21748
#
# Static dielectric constant tensor:
#      x y z
#    x 6.203040 0.000000 0.000000 
#    y 0.000000 3.688850 0.000000 
#    z 0.000000 0.000000 4.460070 
# 
# 
# High freq. dielectric constant tensor:
#      x y z
#    x 1.889170 0.000000 0.000000 
#    y 0.000000 1.837960 0.000000 
#    z 0.000000 0.000000 1.901990 
# 
# From -- ./inp_files/21155.got.cif
#   From: 2010.03.12/outbox.cif.g09.slc.cpg/sg74_11_cif.got.tgz:21155.got - 2010.04.16 15:46:19.
