data_PCOD8301370
_publ_section_title
;
Structure prediction by ZEFSAII (Michael W. Deem and Ramdas Pophale) SiO2 
 PCOD8301370
Probable space group: I M M A
;
_chemical_formula_sum "Si O2"
_cell_formula_units_Z 96
_cell_length_a 22.322990
_cell_length_b 14.092768
_cell_length_c 15.980371
_cell_angle_alpha 90.000000
_cell_angle_beta 90.000000
_cell_angle_gamma 90.000000
_cell_volume 5027.308366
_symmetry_space_group_name_H-M "I M M A"
_symmetry_group_IT_number 74
_symmetry_cell_setting 'orthorhombic'
loop_
_space_group_symop_operation_xyz
x,y,z
-x,1/2-y,z
x,-y,-z
-x,1/2+y,-z
-x,-y,-z
x,1/2+y,-z
-x,y,z
x,1/2-y,z
1/2+x,1/2+y,1/2+z
1/2-x,-y,1/2+z
1/2+x,1/2-y,1/2-z
1/2-x,y,1/2-z
1/2-x,1/2-y,1/2-z
1/2+x,y,1/2-z
1/2-x,1/2+y,1/2+z
1/2+x,-y,1/2+z
loop_
_atom_site_type_symbol
_atom_site_label
_atom_site_fract_x
_atom_site_fract_y
_atom_site_fract_z
Si Si1 0.380395 0.511416 0.374868
Si Si2 0.244939 0.504606 0.346377
Si Si3 0.147041 0.641312 0.614226
Si Si4 0.430092 0.857442 0.511219
Si Si5 0.149396 0.141102 0.582366
Si Si6 0.070766 0.487239 0.692195
O O1 0.310149 0.491294 0.385368
O O2 0.415496 0.418417 0.406376
O O3 0.395618 0.602612 0.430788
O O4 0.398754 0.534243 0.280762
O O5 0.250000 0.533500 0.250000
O O6 0.209138 0.406240 0.356752
O O7 0.210995 0.588737 0.394652
O O8 0.148272 0.750000 0.643214
O O9 0.137859 0.630648 0.515681
O O10 0.091286 0.590342 0.659596
O O11 0.500000 0.863979 0.491960
O O12 0.409275 0.750000 0.527381
O O13 0.154662 0.250000 0.609908
O O14 0.093057 0.093930 0.628954
O O15 0.000000 0.483665 0.699901
#
# Coordination Sequence:
#
# PCOD8301370 Si02
#       6
#    16  16  16  16  16  16
#     4  11  22  39  62  87 120 156 200 244 294 350
#     4  11  21  40  60  86 119 153 195 243 297 347
#     4  10  23  41  61  88 123 158 195 243 297 354
#     4  10  23  41  60  87 123 160 197 241 294 352
#     4  10  23  41  61  88 123 158 195 243 297 354
#     4  11  22  40  64  88 117 155 200 249 297 348
#
# _framework density 19.095704999999999
#
# number of rings (size 3 to 8) (size 9 to 14) (size 15 to 20)
#    0.000    1.500    3.333    4.000    4.667    5.333 
#    0.000    1.667    0.000    0.000    0.000    0.000 
#    0.000    0.000    0.000    0.000    0.000    0.000 
#
# Total GULP energy -595387.892234 kJ/mol
# GULP energy per Si atom -12403.914422 kJ/mol
# Density = 1.905224 g / cm^3
# Si number density = 19.095705 Si / 1000 Ang^3
#
#
#
# Elastic Constant Matrix: (Units=GPa)
#
#
# Indices 1 2 3 4 5 6 
#
# 1 118.5610 36.8005 13.4171 0.0000 0.0000 0.0000
# 2 36.8005 103.6290 4.7260 0.0000 0.0000 0.0000
# 3 13.4171 4.7260 61.0167 0.0000 0.0000 0.0000
# 4 0.0000 0.0000 0.0000 12.9624 0.0000 0.0000
# 5 0.0000 0.0000 0.0000 0.0000 31.5747 0.0000
# 6 0.0000 0.0000 0.0000 0.0000 0.0000 17.8566
#
#
#
# Elastic Compliance Matrix: (Units=1/GPa)
#
#
# Indices 1 2 3 4 5 6 
#
# 1 0.009687 -0.003355 -0.001870 0.000000 0.000000 0.000000
# 2 -0.003355 0.010846 -0.000102 0.000000 0.000000 0.000000
# 3 -0.001870 -0.000102 0.016808 0.000000 0.000000 0.000000
# 4 0.000000 0.000000 0.000000 0.077146 0.000000 0.000000
# 5 0.000000 0.000000 0.000000 0.000000 0.031671 0.000000
# 6 0.000000 0.000000 0.000000 0.000000 0.000000 0.056002
#
#
# Mechanical properties :
#
#
# Convention : Reuss Voigt Hill
#
# Bulk Modulus (GPa) = 37.47239 43.67710 40.57474
# Shear Modulus (GPa) = 22.55185 27.69626 25.12405
#
# Velocity S-wave (km/s) = 3.44028 3.81253 3.63118
# Velocity P-wave (km/s) = 5.95372 6.50407 6.23497
#
# Compressibility (1/GPa) = 0.02668631
#
# Stress axis : x y z
#
# Youngs Moduli (GPa) = 103.22608 92.20108 59.49492
#
# Poissons Ratio (x) = 0.30933 0.11128
# Poissons Ratio (y) = 0.34631 0.00609
# Poissons Ratio (z) = 0.19307 0.00944
#
# Static dielectric constant tensor:
#      x y z
#    x 3.581700 0.000000 0.000000 
#    y 0.000000 3.640000 0.000000 
#    z 0.000000 0.000000 3.570150 
# 
# 
# High freq. dielectric constant tensor:
#      x y z
#    x 1.747480 0.000000 0.000000 
#    y 0.000000 1.742810 0.000000 
#    z 0.000000 0.000000 1.755570 
# 
# From -- ./inp_files/35254.got.cif
#   From: 2010.03.12/outbox.cif.g09.slc.cpg/sg74_18_cif.got.tgz:35254.got - 2010.04.16 15:46:19.
