data_PCOD8301270
_publ_section_title
;
Structure prediction by ZEFSAII (Michael W. Deem and Ramdas Pophale) SiO2 
 PCOD8301270
Probable space group: I M M A
;
_chemical_formula_sum "Si O2"
_cell_formula_units_Z 72
_cell_length_a 20.884501
_cell_length_b 15.536201
_cell_length_c 10.473983
_cell_angle_alpha 90.000000
_cell_angle_beta 90.000000
_cell_angle_gamma 90.000000
_cell_volume 3398.449329
_symmetry_space_group_name_H-M "I M M A"
_symmetry_group_IT_number 74
_symmetry_cell_setting 'orthorhombic'
loop_
_space_group_symop_operation_xyz
x,y,z
-x,1/2-y,z
x,-y,-z
-x,1/2+y,-z
-x,-y,-z
x,1/2+y,-z
-x,y,z
x,1/2-y,z
1/2+x,1/2+y,1/2+z
1/2-x,-y,1/2+z
1/2+x,1/2-y,1/2-z
1/2-x,y,1/2-z
1/2-x,1/2-y,1/2-z
1/2+x,y,1/2-z
1/2-x,1/2+y,1/2+z
1/2+x,-y,1/2+z
loop_
_atom_site_type_symbol
_atom_site_label
_atom_site_fract_x
_atom_site_fract_y
_atom_site_fract_z
Si Si1 0.905635 0.918996 0.075829
Si Si2 0.000000 0.445271 0.707034
Si Si3 0.106031 0.750000 0.641938
Si Si4 0.500000 0.379831 0.076736
Si Si5 0.266296 0.750000 0.015007
Si Si6 0.881469 0.250000 0.060134
Si Si7 0.743394 0.566245 0.393333
O O1 0.918198 0.831099 0.000401
O O2 0.830861 0.928771 0.084437
O O3 0.937137 0.915378 0.215519
O O4 0.935772 0.000000 0.000000
O O5 0.000000 0.546522 0.682898
O O6 0.000000 0.402878 0.570397
O O7 0.066890 0.668030 0.594950
O O8 0.178906 0.750000 0.592429
O O9 0.105952 0.750000 0.792201
O O10 0.195415 0.750000 0.956163
O O11 0.275136 0.838139 0.097212
O O12 0.773019 0.500000 0.500000
O O13 0.750000 0.528985 0.250000
#
# Coordination Sequence:
#
# PCOD8301270 Si02
#       7
#    16   8   8   8   8   8  16
#     4  10  22  39  63  92 124 164 213 269 319 389
#     4  11  23  43  62  86 128 164 218 253 336 376
#     4  11  23  43  63  91 131 160 219 266 323 381
#     4  10  26  41  60  94 121 171 214 268 306 401
#     4  10  23  41  68  95 130 178 212 272 334 392
#     4  10  22  40  65  98 125 165 216 263 329 393
#     4  10  23  41  63  98 132 171 223 271 331 399
#
# _framework density 21.186133000000002
#
# number of rings (size 3 to 8) (size 9 to 14) (size 15 to 20)
#    0.000    1.778    0.000    2.333    3.111   11.111 
#    0.000    0.000    0.000    0.000    0.000    0.000 
#    0.000    0.000    0.000    0.000    0.000    0.000 
#
# Total GULP energy -446207.926275 kJ/mol
# GULP energy per Si atom -12394.664619 kJ/mol
# Density = 2.113791 g / cm^3
# Si number density = 21.186133 Si / 1000 Ang^3
#
#
#
# Elastic Constant Matrix: (Units=GPa)
#
#
# Indices 1 2 3 4 5 6 
#
# 1 51.7703 45.0404 19.7643 0.0000 0.0000 0.0000
# 2 45.0404 162.8313 68.3257 0.0000 0.0000 0.0000
# 3 19.7643 68.3257 78.6531 0.0000 0.0000 0.0000
# 4 0.0000 0.0000 0.0000 38.0128 0.0000 0.0000
# 5 0.0000 0.0000 0.0000 0.0000 29.4794 0.0000
# 6 0.0000 0.0000 0.0000 0.0000 0.0000 327.2819
#
#
#
# Elastic Compliance Matrix: (Units=1/GPa)
#
#
# Indices 1 2 3 4 5 6 
#
# 1 0.025447 -0.006854 -0.000440 0.000000 0.000000 0.000000
# 2 -0.006854 0.011510 -0.008276 0.000000 0.000000 0.000000
# 3 -0.000440 -0.008276 0.020014 0.000000 0.000000 0.000000
# 4 0.000000 0.000000 0.000000 0.026307 0.000000 0.000000
# 5 0.000000 0.000000 0.000000 0.000000 0.033922 0.000000
# 6 0.000000 0.000000 0.000000 0.000000 0.000000 0.003055
#
#
# Mechanical properties :
#
#
# Convention : Reuss Voigt Hill
#
# Bulk Modulus (GPa) = 38.71462 62.16837 50.44150
# Shear Modulus (GPa) = 31.24836 89.62975 60.43905
#
# Velocity S-wave (km/s) = 3.84467 6.51135 5.34692
# Velocity P-wave (km/s) = 6.16619 9.27027 7.87273
#
# Compressibility (1/GPa) = 0.02583003
#
# Stress axis : x y z
#
# Youngs Moduli (GPa) = 39.29678 86.87987 49.96386
#
# Poissons Ratio (x) = 0.59549 0.02200
# Poissons Ratio (y) = 0.26935 0.41353
# Poissons Ratio (z) = 0.01730 0.71906
#
# Static dielectric constant tensor:
#      x y z
#    x 3.639760 0.000000 0.000000 
#    y 0.000000 4.901200 0.000000 
#    z 0.000000 0.000000 4.032930 
# 
# 
# High freq. dielectric constant tensor:
#      x y z
#    x 1.829250 0.000000 0.000000 
#    y 0.000000 1.842190 0.000000 
#    z 0.000000 0.000000 1.837740 
# 
# From -- ./inp_files/13536.got.cif
#   From: 2010.03.12/outbox.cif.g09.slc.cpg/sg74_7_cif.got.tgz:13536.got - 2010.04.16 15:46:19.
