data_PCOD8301907
_publ_section_title
;
Structure prediction by ZEFSAII (Michael W. Deem and Ramdas Pophale) SiO2 
 PCOD8301907
Probable space group: P 41
;
_chemical_formula_sum "Si O2"
_cell_formula_units_Z 24
_cell_length_a 7.940037
_cell_length_b 7.940037
_cell_length_c 16.738190
_cell_angle_alpha 90.000000
_cell_angle_beta 90.000000
_cell_angle_gamma 90.000000
_cell_volume 1055.245590
_symmetry_space_group_name_H-M "P 41"
_symmetry_group_IT_number 76
_symmetry_cell_setting 'tetragonal'
loop_
_space_group_symop_operation_xyz
x,y,z
-y,x,1/4+z
-x,-y,1/2+z
y,-x,3/4+z
loop_
_atom_site_type_symbol
_atom_site_label
_atom_site_fract_x
_atom_site_fract_y
_atom_site_fract_z
Si Si1 0.157576 0.922653 0.514100
Si Si2 0.237497 0.955939 0.346023
Si Si3 0.958167 0.391411 0.117233
Si Si4 0.373186 0.658632 0.893787
Si Si5 0.536967 0.936809 0.545786
Si Si6 0.332849 0.712338 0.079268
O O1 0.113555 0.766429 0.569601
O O2 0.347162 0.976114 0.526596
O O3 0.141486 0.868943 0.421381
O O4 0.055424 0.099261 0.525621
O O5 0.272378 0.148810 0.366383
O O6 0.428967 0.882539 0.332985
O O7 0.913257 0.365535 0.211233
O O8 0.157630 0.380459 0.104341
O O9 0.227299 0.554480 0.850207
O O10 0.331486 0.662177 0.986514
O O11 0.558402 0.574844 0.877094
O O12 0.588562 0.104526 0.594092
#
# Coordination Sequence:
#
# PCOD8301907 Si02
#       6
#     4   4   4   4   4   4
#     4  11  24  41  66  96 131 174 218 276 341 400
#     4  10  24  42  65  98 128 172 228 271 338 404
#     4   9  22  42  62  95 132 166 225 274 323 408
#     4  10  22  41  70  91 130 180 215 274 338 390
#     4  10  23  40  63  96 132 170 218 271 334 397
#     4  10  23  44  66  96 133 170 226 276 328 409
#
# _framework density 22.743523
#
# number of rings (size 3 to 8) (size 9 to 14) (size 15 to 20)
#    0.000    2.000    0.000    2.000   11.667    2.667 
#    3.000    0.000    0.000    0.000    0.000    0.000 
#    0.000    0.000    0.000    0.000    0.000    0.000 
#
# Total GULP energy -297386.603180 kJ/mol
# GULP energy per Si atom -12391.108466 kJ/mol
# Density = 2.269176 g / cm^3
# Si number density = 22.743523 Si / 1000 Ang^3
#
#
#
# Elastic Constant Matrix: (Units=GPa)
#
#
# Indices 1 2 3 4 5 6 
#
# 1 79.9769 12.3460 18.1362 0.0000 0.0000 18.4585
# 2 12.3460 79.9769 18.1362 0.0000 0.0000 -18.4585
# 3 18.1362 18.1362 42.7015 0.0000 0.0000 0.0000
# 4 0.0000 0.0000 0.0000 18.2675 0.0000 0.0000
# 5 0.0000 0.0000 0.0000 0.0000 18.2675 0.0000
# 6 18.4585 -18.4585 0.0000 0.0000 0.0000 -70.3181
#
#
#
# Elastic Compliance Matrix: (Units=1/GPa)
#
#
# Indices 1 2 3 4 5 6 
#
# 1 0.012967 0.000034 -0.005522 0.000000 0.000000 0.003395
# 2 0.000034 0.012967 -0.005522 0.000000 0.000000 -0.003395
# 3 -0.005522 -0.005522 0.028109 0.000000 0.000000 0.000000
# 4 0.000000 0.000000 0.000000 0.054742 0.000000 0.000000
# 5 0.000000 0.000000 0.000000 0.000000 0.054742 0.000000
# 6 0.003395 -0.003395 0.000000 0.000000 0.000000 -0.012439
#
#
# Mechanical properties :
#
#
# Convention : Reuss Voigt Hill
#
# Bulk Modulus (GPa) = 31.22689 33.32131 32.27410
# Shear Modulus (GPa) = 27.20623 3.51253 15.35938
#
# Velocity S-wave (km/s) = 3.46239 1.24409 2.60153
# Velocity P-wave (km/s) = 5.45381 4.09224 4.82133
#
# Compressibility (1/GPa) = 0.03202368
#
# Stress axis : x y z
#
# Youngs Moduli (GPa) = 77.11894 77.11894 35.57602
#
# Poissons Ratio (x) = -0.00262 0.19644
# Poissons Ratio (y) = -0.00262 0.19644
# Poissons Ratio (z) = 0.42583 0.42583
#
# Static dielectric constant tensor:
#      x y z
#    x 4.194530 0.000000 0.000000 
#    y 0.000000 4.194530 0.000000 
#    z 0.000000 0.000000 4.284440 
# 
# 
# High freq. dielectric constant tensor:
#      x y z
#    x 1.897490 0.000000 0.000000 
#    y 0.000000 1.897490 0.000000 
#    z 0.000000 0.000000 1.891580 
# 
# From -- ./inp_files/1086.got.cif
#   From: 2010.03.12/outbox.cif.g09.slc.cpg/sg76_cif.got.tgz:1086.got - 2010.04.16 16:34:25.
