data_PCOD8301720
_publ_section_title
;
Structure prediction by ZEFSAII (Michael W. Deem and Ramdas Pophale) SiO2 
 PCOD8301720
Probable space group: I M M A
;
_chemical_formula_sum "Si O2"
_cell_formula_units_Z 52
_cell_length_a 13.387420
_cell_length_b 21.234181
_cell_length_c 7.514123
_cell_angle_alpha 90.000000
_cell_angle_beta 90.000000
_cell_angle_gamma 90.000000
_cell_volume 2136.046503
_symmetry_space_group_name_H-M "I M M A"
_symmetry_group_IT_number 74
_symmetry_cell_setting 'orthorhombic'
loop_
_space_group_symop_operation_xyz
x,y,z
-x,1/2-y,z
x,-y,-z
-x,1/2+y,-z
-x,-y,-z
x,1/2+y,-z
-x,y,z
x,1/2-y,z
1/2+x,1/2+y,1/2+z
1/2-x,-y,1/2+z
1/2+x,1/2-y,1/2-z
1/2-x,y,1/2-z
1/2-x,1/2-y,1/2-z
1/2+x,y,1/2-z
1/2-x,1/2+y,1/2+z
1/2+x,-y,1/2+z
loop_
_atom_site_type_symbol
_atom_site_label
_atom_site_fract_x
_atom_site_fract_y
_atom_site_fract_z
Si Si1 0.000000 0.872410 0.082321
Si Si2 0.500000 0.504640 0.278651
Si Si3 0.664512 0.000000 0.000000
Si Si4 0.500000 0.750000 0.190492
Si Si5 0.710391 0.250000 0.946145
Si Si6 0.215428 0.615189 0.939717
O O1 0.000000 0.919739 0.249839
O O2 0.000000 0.805219 0.168417
O O3 0.904135 0.884749 0.957433
O O4 0.500000 0.500000 0.500000
O O5 0.597851 0.479852 0.173619
O O6 0.732464 0.939321 0.060477
O O7 0.591224 0.750000 0.055039
O O8 0.750000 0.250000 0.750000
O O9 0.746721 0.186387 0.036698
O O10 0.250000 0.591874 0.750000
#
# Coordination Sequence:
#
# PCOD8301720 Si02
#       6
#     8   8   8   4   8  16
#     4  12  25  44  77 103 149 200 248 306 395 457
#     4  11  25  48  75 106 152 203 257 314 386 456
#     4  11  28  47  72 116 154 199 258 319 386 458
#     4  12  24  44  76 112 140 200 254 304 384 460
#     4  12  25  48  75 109 149 201 251 313 379 455
#     4  12  28  47  76 110 154 198 257 320 384 465
#
# _framework density 24.344038999999999
#
# number of rings (size 3 to 8) (size 9 to 14) (size 15 to 20)
#    0.000    0.308    3.077    4.154    6.462    3.692 
#    0.000    0.000    0.000    0.000    0.000    0.000 
#    0.000    0.000    0.000    0.000    0.000    0.000 
#
# Total GULP energy -322128.498494 kJ/mol
# GULP energy per Si atom -12389.557634 kJ/mol
# Density = 2.428863 g / cm^3
# Si number density = 24.344039 Si / 1000 Ang^3
#
#
#
# Elastic Constant Matrix: (Units=GPa)
#
#
# Indices 1 2 3 4 5 6 
#
# 1 241.8315 66.2387 50.6027 0.0006 0.0018 -0.0007
# 2 66.2387 170.4279 6.5430 0.0000 0.0014 -0.0003
# 3 50.6027 6.5430 91.2400 -0.0075 -0.0128 -0.0097
# 4 0.0006 0.0000 -0.0075 25.4450 -0.0028 0.0005
# 5 0.0018 0.0014 -0.0128 -0.0028 3.7138 0.0016
# 6 -0.0007 -0.0003 -0.0097 0.0005 0.0016 56.0081
#
#
#
# Elastic Compliance Matrix: (Units=1/GPa)
#
#
# Indices 1 2 3 4 5 6 
#
# 1 0.005244 -0.001932 -0.002770 -0.000001 -0.000011 0.000000
# 2 -0.001932 0.006595 0.000598 0.000000 0.000001 0.000000
# 3 -0.002770 0.000598 0.012453 0.000004 0.000044 0.000002
# 4 -0.000001 0.000000 0.000004 0.039300 0.000030 0.000000
# 5 -0.000011 0.000001 0.000044 0.000030 0.269269 -0.000008
# 6 0.000000 0.000000 0.000002 0.000000 -0.000008 0.017855
#
#
# Mechanical properties :
#
#
# Convention : Reuss Voigt Hill
#
# Bulk Modulus (GPa) = 62.16446 83.36315 72.76380
# Shear Modulus (GPa) = 13.72553 42.37438 28.04995
#
# Velocity S-wave (km/s) = 2.37705 4.17663 3.39814
# Velocity P-wave (km/s) = 5.75544 7.58796 6.73432
#
# Compressibility (1/GPa) = 0.01608636
#
# Stress axis : x y z
#
# Youngs Moduli (GPa) = 190.70226 151.62093 80.29987
#
# Poissons Ratio (x) = 0.29289 0.22241
# Poissons Ratio (y) = 0.36838 -0.04805
# Poissons Ratio (z) = 0.52819 -0.09073
#
# Static dielectric constant tensor:
#      x y z
#    x 4.713410 0.000010 -0.000020 
#    y 0.000010 5.333340 -0.000010 
#    z -0.000020 -0.000010 4.187480 
# 
# 
# High freq. dielectric constant tensor:
#      x y z
#    x 1.989410 0.000000 0.000000 
#    y 0.000000 1.996320 0.000000 
#    z 0.000000 0.000000 1.953260 
# 
# From -- ./inp_files/8634.got.cif
#   From: 2010.03.12/outbox.cif.g09.slc.cpg/sg74_5_cif.got.tgz:8634.got - 2010.04.16 15:46:19.
