data_PCOD8301682
_publ_section_title
;
Structure prediction by ZEFSAII (Michael W. Deem and Ramdas Pophale) SiO2 
 PCOD8301682
Probable space group: I M M A
;
_chemical_formula_sum "Si O2"
_cell_formula_units_Z 80
_cell_length_a 13.994208
_cell_length_b 22.671339
_cell_length_c 11.980078
_cell_angle_alpha 90.000000
_cell_angle_beta 90.000000
_cell_angle_gamma 90.000000
_cell_volume 3800.888601
_symmetry_space_group_name_H-M "I M M A"
_symmetry_group_IT_number 74
_symmetry_cell_setting 'orthorhombic'
loop_
_space_group_symop_operation_xyz
x,y,z
-x,1/2-y,z
x,-y,-z
-x,1/2+y,-z
-x,-y,-z
x,1/2+y,-z
-x,y,z
x,1/2-y,z
1/2+x,1/2+y,1/2+z
1/2-x,-y,1/2+z
1/2+x,1/2-y,1/2-z
1/2-x,y,1/2-z
1/2-x,1/2-y,1/2-z
1/2+x,y,1/2-z
1/2-x,1/2+y,1/2+z
1/2+x,-y,1/2+z
loop_
_atom_site_type_symbol
_atom_site_label
_atom_site_fract_x
_atom_site_fract_y
_atom_site_fract_z
Si Si1 0.388092 0.685552 0.718853
Si Si2 0.773928 0.413766 0.581980
Si Si3 0.609014 0.818169 0.969056
Si Si4 0.608627 0.451796 0.721064
Si Si5 0.814260 0.431480 0.143388
O O1 0.500000 0.691219 0.732565
O O2 0.348355 0.750000 0.678338
O O3 0.348270 0.671100 0.843782
O O4 0.363109 0.633267 0.632909
O O5 0.824561 0.351389 0.558279
O O6 0.674145 0.405891 0.650188
O O7 0.846386 0.454844 0.653913
O O8 0.748914 0.445310 0.465247
O O9 0.500000 0.841948 0.976772
O O10 0.612205 0.750000 0.000770
O O11 0.500000 0.428770 0.724948
O O12 0.609366 0.515926 0.661181
O O13 0.750000 0.432695 0.250000
#
# Coordination Sequence:
#
# PCOD8301682 Si02
#       5
#    16  16  16  16  16
#     4   9  19  35  57  91 130 164 198 243 311 383
#     4  11  23  41  66  90 122 163 213 255 304 373
#     4   9  18  35  62  96 130 163 201 251 312 373
#     4  11  26  45  63  87 125 171 213 261 307 357
#     4  12  22  37  61  94 129 157 201 253 311 375
#
# _framework density 21.047712000000001
#
# number of rings (size 3 to 8) (size 9 to 14) (size 15 to 20)
#    0.000    1.600    4.000    3.000    0.000    3.600 
#    0.000    3.000    0.000    1.800    0.000    2.800 
#    0.000    0.000    0.000    0.000    0.000    0.000 
#
# Total GULP energy -495713.701956 kJ/mol
# GULP energy per Si atom -12392.842549 kJ/mol
# Density = 2.099981 g / cm^3
# Si number density = 21.047712 Si / 1000 Ang^3
#
#
#
# Elastic Constant Matrix: (Units=GPa)
#
#
# Indices 1 2 3 4 5 6 
#
# 1 106.3196 31.8029 46.5991 0.0001 0.0000 0.0000
# 2 31.8029 119.4666 40.2274 0.0001 0.0000 0.0000
# 3 46.5991 40.2274 117.0095 0.0005 0.0001 0.0000
# 4 0.0001 0.0001 0.0005 24.5338 0.0001 0.0000
# 5 0.0000 0.0000 0.0001 0.0001 27.3042 0.0000
# 6 0.0000 0.0000 0.0000 0.0000 0.0000 32.7993
#
#
#
# Elastic Compliance Matrix: (Units=1/GPa)
#
#
# Indices 1 2 3 4 5 6 
#
# 1 0.011709 -0.001749 -0.004062 0.000000 0.000000 0.000000
# 2 -0.001749 0.009728 -0.002648 0.000000 0.000000 0.000000
# 3 -0.004062 -0.002648 0.011074 0.000000 0.000000 0.000000
# 4 0.000000 0.000000 0.000000 0.040760 0.000000 0.000000
# 5 0.000000 0.000000 0.000000 0.000000 0.036624 0.000000
# 6 0.000000 0.000000 0.000000 0.000000 0.000000 0.030488
#
#
# Mechanical properties :
#
#
# Convention : Reuss Voigt Hill
#
# Bulk Modulus (GPa) = 64.12935 64.45050 64.28993
# Shear Modulus (GPa) = 30.76935 31.87188 31.32062
#
# Velocity S-wave (km/s) = 3.82761 3.89558 3.86175
# Velocity P-wave (km/s) = 7.07593 7.13594 7.10600
#
# Compressibility (1/GPa) = 0.01559348
#
# Stress axis : x y z
#
# Youngs Moduli (GPa) = 85.40353 102.79841 90.30023
#
# Poissons Ratio (x) = 0.17983 0.36678
# Poissons Ratio (y) = 0.14940 0.23909
# Poissons Ratio (z) = 0.34689 0.27218
#
# Static dielectric constant tensor:
#      x y z
#    x 3.789230 0.000000 0.000000 
#    y 0.000000 4.564680 0.000000 
#    z 0.000000 0.000000 4.111250 
# 
# 
# High freq. dielectric constant tensor:
#      x y z
#    x 1.826880 0.000000 0.000000 
#    y 0.000000 1.816450 0.000000 
#    z 0.000000 0.000000 1.807230 
# 
# From -- ./inp_files/20502.got.cif
#   From: 2010.03.12/outbox.cif.g09.slc.cpg/sg74_11_cif.got.tgz:20502.got - 2010.04.16 15:46:19.
