data_PCOD8301384
_publ_section_title
;
Structure prediction by ZEFSAII (Michael W. Deem and Ramdas Pophale) SiO2 
 PCOD8301384
Probable space group: I M M A
;
_chemical_formula_sum "Si O2"
_cell_formula_units_Z 96
_cell_length_a 16.679679
_cell_length_b 11.268566
_cell_length_c 23.784392
_cell_angle_alpha 90.000000
_cell_angle_beta 90.000000
_cell_angle_gamma 90.000000
_cell_volume 4470.420697
_symmetry_space_group_name_H-M "I M M A"
_symmetry_group_IT_number 74
_symmetry_cell_setting 'orthorhombic'
loop_
_space_group_symop_operation_xyz
x,y,z
-x,1/2-y,z
x,-y,-z
-x,1/2+y,-z
-x,-y,-z
x,1/2+y,-z
-x,y,z
x,1/2-y,z
1/2+x,1/2+y,1/2+z
1/2-x,-y,1/2+z
1/2+x,1/2-y,1/2-z
1/2-x,y,1/2-z
1/2-x,1/2-y,1/2-z
1/2+x,y,1/2-z
1/2-x,1/2+y,1/2+z
1/2+x,-y,1/2+z
loop_
_atom_site_type_symbol
_atom_site_label
_atom_site_fract_x
_atom_site_fract_y
_atom_site_fract_z
Si Si1 0.093415 0.116361 0.764374
Si Si2 0.328402 0.487166 0.366437
Si Si3 0.093155 0.250000 0.131966
Si Si4 0.845691 0.750000 0.742900
Si Si5 0.349744 0.032952 0.169263
Si Si6 0.256655 0.380243 0.537498
Si Si7 0.413099 0.439634 0.939793
O O1 0.116691 0.250000 0.780655
O O2 0.117766 0.031608 0.815393
O O3 0.000000 0.100817 0.753325
O O4 0.138378 0.086462 0.705896
O O5 0.368666 0.370153 0.394526
O O6 0.242987 0.446218 0.343573
O O7 0.318194 0.592221 0.412026
O O8 0.110152 0.250000 0.198021
O O9 0.000000 0.250000 0.117748
O O10 0.750000 0.750000 0.750000
O O11 0.879249 0.638776 0.708497
O O12 0.400932 0.032677 0.111498
O O13 0.258461 0.500000 0.500000
O O14 0.280836 0.250000 0.510681
O O15 0.166111 0.357595 0.560938
O O16 0.500000 0.374463 0.930781
O O17 0.416717 0.500000 0.000000
#
# Coordination Sequence:
#
# PCOD8301384 Si02
#       7
#    16  16   8   8  16  16  16
#     4  11  23  37  56  86 122 162 207 258 321 385
#     4  11  22  39  62  91 124 163 208 258 320 389
#     4  12  24  38  64  96 128 166 204 259 329 401
#     4  12  20  38  60  96 132 164 210 265 331 392
#     4  11  21  36  61  88 123 164 215 264 317 382
#     4  10  23  42  68  98 127 169 220 269 326 389
#     4   9  20  40  60  88 130 174 219 268 321 379
#
# _framework density 21.474488999999998
#
# number of rings (size 3 to 8) (size 9 to 14) (size 15 to 20)
#    0.000    1.333    3.333    2.000    1.167    5.000 
#    9.000    0.000    0.000    2.000    0.000    0.000 
#    0.000    0.000    0.000    0.000    0.000    0.000 
#
# Total GULP energy -594697.718956 kJ/mol
# GULP energy per Si atom -12389.535812 kJ/mol
# Density = 2.142561 g / cm^3
# Si number density = 21.474489 Si / 1000 Ang^3
#
#
#
# Elastic Constant Matrix: (Units=GPa)
#
#
# Indices 1 2 3 4 5 6 
#
# 1 99.4673 36.5158 16.3290 0.0000 0.0000 0.0000
# 2 36.5158 138.6115 39.1629 0.0000 0.0000 0.0000
# 3 16.3290 39.1629 77.6963 0.0000 0.0000 0.0000
# 4 0.0000 0.0000 0.0000 29.5641 0.0000 0.0000
# 5 0.0000 0.0000 0.0000 0.0000 -74.1981 0.0000
# 6 0.0000 0.0000 0.0000 0.0000 0.0000 11.8737
#
#
#
# Elastic Compliance Matrix: (Units=1/GPa)
#
#
# Indices 1 2 3 4 5 6 
#
# 1 0.011198 -0.002664 -0.001010 0.000000 0.000000 0.000000
# 2 -0.002664 0.009046 -0.004000 0.000000 0.000000 0.000000
# 3 -0.001010 -0.004000 0.015099 0.000000 0.000000 0.000000
# 4 0.000000 0.000000 0.000000 0.033825 0.000000 0.000000
# 5 0.000000 0.000000 0.000000 0.000000 -0.013477 0.000000
# 6 0.000000 0.000000 0.000000 0.000000 0.000000 0.084220
#
#
# Mechanical properties :
#
#
# Convention : Reuss Voigt Hill
#
# Bulk Modulus (GPa) = 50.01546 55.53229 52.77387
# Shear Modulus (GPa) = 30.87864 8.36576 19.62220
#
# Velocity S-wave (km/s) = 3.79611 1.97589 3.02610
# Velocity P-wave (km/s) = 6.52343 5.57865 6.06945
#
# Compressibility (1/GPa) = 0.01999382
#
# Stress axis : x y z
#
# Youngs Moduli (GPa) = 89.30513 110.54057 66.22901
#
# Poissons Ratio (x) = 0.29453 0.06691
# Poissons Ratio (y) = 0.23795 0.26491
# Poissons Ratio (z) = 0.09023 0.44215
#
# Static dielectric constant tensor:
#      x y z
#    x 4.025290 0.000000 0.000000 
#    y 0.000000 3.764680 0.000000 
#    z 0.000000 0.000000 3.880100 
# 
# 
# High freq. dielectric constant tensor:
#      x y z
#    x 1.837930 0.000000 0.000000 
#    y 0.000000 1.839510 0.000000 
#    z 0.000000 0.000000 1.836070 
# 
# From -- ./inp_files/60810.got.cif
#   From: 2010.03.12/outbox.cif.g09.slc.cpg/sg74_31_cif.got.tgz:60810.got - 2010.04.16 15:46:19.
