data_PCOD8301189
_publ_section_title
;
Structure prediction by ZEFSAII (Michael W. Deem and Ramdas Pophale) SiO2 
 PCOD8301189
Probable space group: I M M A
;
_chemical_formula_sum "Si O2"
_cell_formula_units_Z 88
_cell_length_a 14.277384
_cell_length_b 10.989826
_cell_length_c 30.089233
_cell_angle_alpha 90.000000
_cell_angle_beta 90.000000
_cell_angle_gamma 90.000000
_cell_volume 4721.180167
_symmetry_space_group_name_H-M "I M M A"
_symmetry_group_IT_number 74
_symmetry_cell_setting 'orthorhombic'
loop_
_space_group_symop_operation_xyz
x,y,z
-x,1/2-y,z
x,-y,-z
-x,1/2+y,-z
-x,-y,-z
x,1/2+y,-z
-x,y,z
x,1/2-y,z
1/2+x,1/2+y,1/2+z
1/2-x,-y,1/2+z
1/2+x,1/2-y,1/2-z
1/2-x,y,1/2-z
1/2-x,1/2-y,1/2-z
1/2+x,y,1/2-z
1/2-x,1/2+y,1/2+z
1/2+x,-y,1/2+z
loop_
_atom_site_type_symbol
_atom_site_label
_atom_site_fract_x
_atom_site_fract_y
_atom_site_fract_z
Si Si1 0.107317 0.250000 0.415176
Si Si2 0.801337 0.605401 0.126877
Si Si3 0.313642 0.494628 0.791594
Si Si4 0.500000 0.390356 0.759909
Si Si5 0.000000 0.610772 0.464617
Si Si6 0.184489 0.501550 0.448212
Si Si7 0.500000 0.605845 0.338704
Si Si8 0.607980 0.750000 0.809899
O O1 0.161300 0.365302 0.434119
O O2 0.111320 0.250000 0.362597
O O3 0.000000 0.250000 0.431827
O O4 0.791494 0.750000 0.129605
O O5 0.735093 0.543753 0.163088
O O6 0.772175 0.555372 0.078647
O O7 0.907808 0.561766 0.135101
O O8 0.250000 0.457317 0.750000
O O9 0.410657 0.423541 0.789007
O O10 0.335892 0.636735 0.790469
O O11 0.500000 0.250000 0.750320
O O12 0.500000 0.453235 0.710921
O O13 0.000000 0.500000 0.500000
O O14 0.904818 0.589310 0.436922
O O15 0.000000 0.750000 0.483587
O O16 0.211497 0.500000 0.500000
O O17 0.500000 0.750000 0.335523
O O18 0.500000 0.750000 0.793313
#
# Coordination Sequence:
#
# PCOD8301189 Si02
#       8
#     8  16  16   8   8  16   8   8
#     4  11  22  39  59  85 121 172 198 236 304 362
#     4  11  23  40  62  92 119 154 199 252 306 360
#     4  12  23  39  62  88 123 159 199 248 293 359
#     4  11  22  36  60  94 122 156 192 241 302 354
#     4  10  22  35  56  89 127 161 197 248 303 370
#     4  11  24  37  62  87 124 159 205 252 300 364
#     4   9  20  40  63  83 118 156 195 243 304 366
#     4  11  23  41  57  83 124 164 204 237 291 354
#
# _framework density 18.639408
#
# number of rings (size 3 to 8) (size 9 to 14) (size 15 to 20)
#    0.000    1.091    5.455    1.364    6.364    1.455 
#    0.000    2.273    0.000    1.636    0.000    0.000 
#    0.000    0.000    0.000    0.000    0.000    0.000 
#
# Total GULP energy -545617.371664 kJ/mol
# GULP energy per Si atom -12400.394811 kJ/mol
# Density = 1.859698 g / cm^3
# Si number density = 18.639408 Si / 1000 Ang^3
#
#
#
# Elastic Constant Matrix: (Units=GPa)
#
#
# Indices 1 2 3 4 5 6 
#
# 1 146.8039 34.6315 53.7635 0.0000 0.0000 0.0000
# 2 34.6315 96.9321 7.6180 0.0000 0.0000 0.0000
# 3 53.7635 7.6180 82.7260 0.0000 0.0000 0.0000
# 4 0.0000 0.0000 0.0000 22.5121 0.0000 0.0000
# 5 0.0000 0.0000 0.0000 0.0000 32.9829 0.0000
# 6 0.0000 0.0000 0.0000 0.0000 0.0000 20.2623
#
#
#
# Elastic Compliance Matrix: (Units=1/GPa)
#
#
# Indices 1 2 3 4 5 6 
#
# 1 0.009736 -0.003003 -0.006051 0.000000 0.000000 0.000000
# 2 -0.003003 0.011318 0.000909 0.000000 0.000000 0.000000
# 3 -0.006051 0.000909 0.015937 0.000000 0.000000 0.000000
# 4 0.000000 0.000000 0.000000 0.044421 0.000000 0.000000
# 5 0.000000 0.000000 0.000000 0.000000 0.030319 0.000000
# 6 0.000000 0.000000 0.000000 0.000000 0.000000 0.049353
#
#
# Mechanical properties :
#
#
# Convention : Reuss Voigt Hill
#
# Bulk Modulus (GPa) = 48.30484 57.60978 52.95731
# Shear Modulus (GPa) = 27.13366 30.51473 28.82419
#
# Velocity S-wave (km/s) = 3.81952 4.05051 3.93671
# Velocity P-wave (km/s) = 6.73969 7.26981 7.00976
#
# Compressibility (1/GPa) = 0.02070186
#
# Stress axis : x y z
#
# Youngs Moduli (GPa) = 102.70863 88.35539 62.74732
#
# Poissons Ratio (x) = 0.26533 0.37969
# Poissons Ratio (y) = 0.30843 -0.05706
# Poissons Ratio (z) = 0.62150 -0.08035
#
# Static dielectric constant tensor:
#      x y z
#    x 3.671880 0.000000 0.000000 
#    y 0.000000 3.414010 0.000000 
#    z 0.000000 0.000000 3.489120 
# 
# 
# High freq. dielectric constant tensor:
#      x y z
#    x 1.720600 0.000000 0.000000 
#    y 0.000000 1.725540 0.000000 
#    z 0.000000 0.000000 1.720580 
# 
# From -- ./inp_files/72431.got.cif
#   From: 2010.03.12/outbox.cif.g09.slc.cpg/sg74_37_cif.got.tgz:72431.got - 2010.04.16 15:46:19.
