data_PCOD8301025
_publ_section_title
;
Structure prediction by ZEFSAII (Michael W. Deem and Ramdas Pophale) SiO2 
 PCOD8301025
Probable space group: I M M A
;
_chemical_formula_sum "Si O2"
_cell_formula_units_Z 80
_cell_length_a 13.240448
_cell_length_b 22.895407
_cell_length_c 12.264560
_cell_angle_alpha 90.000000
_cell_angle_beta 90.000000
_cell_angle_gamma 90.000000
_cell_volume 3717.945509
_symmetry_space_group_name_H-M "I M M A"
_symmetry_group_IT_number 74
_symmetry_cell_setting 'orthorhombic'
loop_
_space_group_symop_operation_xyz
x,y,z
-x,1/2-y,z
x,-y,-z
-x,1/2+y,-z
-x,-y,-z
x,1/2+y,-z
-x,y,z
x,1/2-y,z
1/2+x,1/2+y,1/2+z
1/2-x,-y,1/2+z
1/2+x,1/2-y,1/2-z
1/2-x,y,1/2-z
1/2-x,1/2-y,1/2-z
1/2+x,y,1/2-z
1/2-x,1/2+y,1/2+z
1/2+x,-y,1/2+z
loop_
_atom_site_type_symbol
_atom_site_label
_atom_site_fract_x
_atom_site_fract_y
_atom_site_fract_z
Si Si1 0.117383 0.583146 0.629661
Si Si2 0.762745 0.585273 0.410186
Si Si3 0.613686 0.466933 0.733573
Si Si4 0.384346 0.318064 0.527273
Si Si5 0.882967 0.814023 0.777900
O O1 0.185145 0.570795 0.524498
O O2 0.126706 0.529707 0.711959
O O3 0.163219 0.640027 0.691572
O O4 0.000000 0.591361 0.594733
O O5 0.681913 0.534736 0.376061
O O6 0.849631 0.584218 0.317138
O O7 0.699962 0.645908 0.406575
O O8 0.500000 0.454092 0.699188
O O9 0.500000 0.334467 0.560444
O O10 0.365425 0.250000 0.549133
O O11 0.366185 0.334318 0.401317
O O12 0.834830 0.750000 0.756641
O O13 0.000000 0.810848 0.753530
#
# Coordination Sequence:
#
# PCOD8301025 Si02
#       5
#    16  16  16  16  16
#     4  10  21  38  60  85 119 158 191 234 294 350
#     4  11  22  36  62  88 108 147 201 243 281 342
#     4  10  23  42  59  82 120 159 194 240 293 341
#     4   9  19  37  60  88 123 157 189 234 294 352
#     4   8  16  33  57  86 119 151 184 229 289 353
#
# _framework density 21.517261000000001
#
# number of rings (size 3 to 8) (size 9 to 14) (size 15 to 20)
#    0.000    2.400    0.000    3.000    0.000    8.000 
#    0.000    4.000    0.000   22.200    0.000    2.800 
#    0.000    0.000    0.000    0.000    0.000    0.000 
#
# Total GULP energy -495661.535805 kJ/mol
# GULP energy per Si atom -12391.538395 kJ/mol
# Density = 2.146829 g / cm^3
# Si number density = 21.517261 Si / 1000 Ang^3
#
#
#
# Elastic Constant Matrix: (Units=GPa)
#
#
# Indices 1 2 3 4 5 6 
#
# 1 94.1981 34.2537 23.8704 0.0001 0.0000 0.0000
# 2 34.2537 99.1315 54.6335 -0.0001 0.0000 0.0000
# 3 23.8704 54.6335 83.4465 0.0003 0.0000 0.0000
# 4 0.0001 -0.0001 0.0003 27.8704 0.0000 0.0000
# 5 0.0000 0.0000 0.0000 0.0000 41.7748 0.0000
# 6 0.0000 0.0000 0.0000 0.0000 0.0000 14.8873
#
#
#
# Elastic Compliance Matrix: (Units=1/GPa)
#
#
# Indices 1 2 3 4 5 6 
#
# 1 0.012211 -0.003589 -0.001143 0.000000 0.000000 0.000000
# 2 -0.003589 0.016837 -0.009997 0.000000 0.000000 0.000000
# 3 -0.001143 -0.009997 0.018856 0.000000 0.000000 0.000000
# 4 0.000000 0.000000 0.000000 0.035880 0.000000 0.000000
# 5 0.000000 0.000000 0.000000 0.000000 0.023938 0.000000
# 6 0.000000 0.000000 0.000000 0.000000 0.000000 0.067172
#
#
# Mechanical properties :
#
#
# Convention : Reuss Voigt Hill
#
# Bulk Modulus (GPa) = 54.21381 55.81014 55.01197
# Shear Modulus (GPa) = 23.75290 27.84107 25.79699
#
# Velocity S-wave (km/s) = 3.32610 3.60098 3.46627
# Velocity P-wave (km/s) = 6.32462 6.57899 6.45306
#
# Compressibility (1/GPa) = 0.01844548
#
# Stress axis : x y z
#
# Youngs Moduli (GPa) = 81.89485 59.39172 53.03416
#
# Poissons Ratio (x) = 0.21318 0.06062
# Poissons Ratio (y) = 0.29395 0.53018
# Poissons Ratio (z) = 0.09360 0.59373
#
# Static dielectric constant tensor:
#      x y z
#    x 4.218780 0.000000 0.000000 
#    y 0.000000 4.088070 0.000000 
#    z 0.000000 0.000000 3.768890 
# 
# 
# High freq. dielectric constant tensor:
#      x y z
#    x 1.867800 0.000000 0.000000 
#    y 0.000000 1.835240 0.000000 
#    z 0.000000 0.000000 1.826640 
# 
# From -- ./inp_files/20459.got.cif
#   From: 2010.03.12/outbox.cif.g09.slc.cpg/sg74_11_cif.got.tgz:20459.got - 2010.04.16 15:46:19.
