data_PCOD8301632
_publ_section_title
;
Structure prediction by ZEFSAII (Michael W. Deem and Ramdas Pophale) SiO2 
 PCOD8301632
Probable space group: I M M A
;
_chemical_formula_sum "Si O2"
_cell_formula_units_Z 56
_cell_length_a 16.974247
_cell_length_b 7.507209
_cell_length_c 21.548911
_cell_angle_alpha 90.000000
_cell_angle_beta 90.000000
_cell_angle_gamma 90.000000
_cell_volume 2745.960917
_symmetry_space_group_name_H-M "I M M A"
_symmetry_group_IT_number 74
_symmetry_cell_setting 'orthorhombic'
loop_
_space_group_symop_operation_xyz
x,y,z
-x,1/2-y,z
x,-y,-z
-x,1/2+y,-z
-x,-y,-z
x,1/2+y,-z
-x,y,z
x,1/2-y,z
1/2+x,1/2+y,1/2+z
1/2-x,-y,1/2+z
1/2+x,1/2-y,1/2-z
1/2-x,y,1/2-z
1/2-x,1/2-y,1/2-z
1/2+x,y,1/2-z
1/2-x,1/2+y,1/2+z
1/2+x,-y,1/2+z
loop_
_atom_site_type_symbol
_atom_site_label
_atom_site_fract_x
_atom_site_fract_y
_atom_site_fract_z
Si Si1 0.592396 0.750000 0.762864
Si Si2 0.797121 0.456833 0.930279
Si Si3 0.500000 0.541679 0.928189
Si Si4 0.352437 0.549807 0.149853
Si Si5 0.091790 0.250000 0.117822
O O1 0.500000 0.750000 0.778670
O O2 0.632332 0.574796 0.791270
O O3 0.609517 0.750000 0.690567
O O4 0.819213 0.250000 0.923080
O O5 0.725950 0.513278 0.885376
O O6 0.873059 0.572423 0.912702
O O7 0.770074 0.500000 0.000000
O O8 0.500000 0.750000 0.913766
O O9 0.423164 0.454163 0.898933
O O10 0.500000 0.500000 0.000000
O O11 0.342994 0.750000 0.175444
O O12 0.000000 0.250000 0.103116
#
# Coordination Sequence:
#
# PCOD8301632 Si02
#       5
#     8  16   8  16   8
#     4  11  23  43  65  95 136 178 229 266 308 389
#     4  11  24  43  67  99 133 166 213 277 338 395
#     4  12  22  34  56  95 135 182 225 254 310 388
#     4  11  22  38  64  95 134 178 214 263 322 381
#     4  11  27  47  71  94 125 178 222 277 341 385
#
# _framework density 20.393591000000001
#
# number of rings (size 3 to 8) (size 9 to 14) (size 15 to 20)
#    0.000    0.857    4.286    3.000    0.000    6.857 
#    0.000    5.714    0.000    0.000    0.000    0.000 
#    0.000    0.000    0.000    0.000    0.000    0.000 
#
# Total GULP energy -347388.704558 kJ/mol
# GULP energy per Si atom -12406.739448 kJ/mol
# Density = 2.034717 g / cm^3
# Si number density = 20.393591 Si / 1000 Ang^3
#
#
#
# Elastic Constant Matrix: (Units=GPa)
#
#
# Indices 1 2 3 4 5 6 
#
# 1 116.2804 48.9733 29.5411 0.0000 0.0000 0.0000
# 2 48.9733 133.6846 39.9532 0.0000 0.0000 0.0000
# 3 29.5411 39.9532 75.2591 0.0000 0.0000 0.0000
# 4 0.0000 0.0000 0.0000 27.3245 0.0000 0.0000
# 5 0.0000 0.0000 0.0000 0.0000 4.8068 0.0000
# 6 0.0000 0.0000 0.0000 0.0000 0.0000 11.9702
#
#
#
# Elastic Compliance Matrix: (Units=1/GPa)
#
#
# Indices 1 2 3 4 5 6 
#
# 1 0.010545 -0.003121 -0.002482 0.000000 0.000000 0.000000
# 2 -0.003121 0.009815 -0.003985 0.000000 0.000000 0.000000
# 3 -0.002482 -0.003985 0.016377 0.000000 0.000000 0.000000
# 4 0.000000 0.000000 0.000000 0.036597 0.000000 0.000000
# 5 0.000000 0.000000 0.000000 0.000000 0.208040 0.000000
# 6 0.000000 0.000000 0.000000 0.000000 0.000000 0.083541
#
#
# Mechanical properties :
#
#
# Convention : Reuss Voigt Hill
#
# Bulk Modulus (GPa) = 56.94799 62.46213 59.70506
# Shear Modulus (GPa) = 12.82229 22.60406 17.71318
#
# Velocity S-wave (km/s) = 2.51019 3.33286 2.95034
# Velocity P-wave (km/s) = 6.03212 6.74577 6.39890
#
# Compressibility (1/GPa) = 0.01755988
#
# Stress axis : x y z
#
# Youngs Moduli (GPa) = 94.83135 101.88770 61.05956
#
# Poissons Ratio (x) = 0.31801 0.15156
# Poissons Ratio (y) = 0.29598 0.24334
# Poissons Ratio (z) = 0.23539 0.40605
#
# Static dielectric constant tensor:
#      x y z
#    x 3.692020 0.000000 0.000000 
#    y 0.000000 3.883400 0.000000 
#    z 0.000000 0.000000 3.001520 
# 
# 
# High freq. dielectric constant tensor:
#      x y z
#    x 1.798450 0.000000 0.000000 
#    y 0.000000 1.814010 0.000000 
#    z 0.000000 0.000000 1.798520 
# 
# From -- ./inp_files/51394.got.cif
#   From: 2010.03.12/outbox.cif.g09.slc.cpg/sg74_26_cif.got.tgz:51394.got - 2010.04.16 15:46:19.
