data_PCOD8301763
_publ_section_title
;
Structure prediction by ZEFSAII (Michael W. Deem and Ramdas Pophale) SiO2 
 PCOD8301763
Probable space group: I M M A
;
_chemical_formula_sum "Si O2"
_cell_formula_units_Z 80
_cell_length_a 18.913762
_cell_length_b 9.374346
_cell_length_c 27.306984
_cell_angle_alpha 90.000000
_cell_angle_beta 90.000000
_cell_angle_gamma 90.000000
_cell_volume 4841.641564
_symmetry_space_group_name_H-M "I M M A"
_symmetry_group_IT_number 74
_symmetry_cell_setting 'orthorhombic'
loop_
_space_group_symop_operation_xyz
x,y,z
-x,1/2-y,z
x,-y,-z
-x,1/2+y,-z
-x,-y,-z
x,1/2+y,-z
-x,y,z
x,1/2-y,z
1/2+x,1/2+y,1/2+z
1/2-x,-y,1/2+z
1/2+x,1/2-y,1/2-z
1/2-x,y,1/2-z
1/2-x,1/2-y,1/2-z
1/2+x,y,1/2-z
1/2-x,1/2+y,1/2+z
1/2+x,-y,1/2+z
loop_
_atom_site_type_symbol
_atom_site_label
_atom_site_fract_x
_atom_site_fract_y
_atom_site_fract_z
Si Si1 0.421817 0.080696 0.649178
Si Si2 0.713936 0.418372 0.897128
Si Si3 0.717248 0.079615 0.700028
Si Si4 0.351821 0.082224 0.548601
Si Si5 0.078298 0.415694 0.549569
O O1 0.500000 0.019245 0.661985
O O2 0.422791 0.250000 0.650593
O O3 0.363582 0.027349 0.689126
O O4 0.400829 0.033840 0.594126
O O5 0.715134 0.250000 0.891957
O O6 0.733978 0.480776 0.843982
O O7 0.771279 0.462423 0.938152
O O8 0.636121 0.473637 0.911952
O O9 0.718522 0.250000 0.702098
O O10 0.750000 0.015146 0.750000
O O11 0.358730 0.250000 0.538608
O O12 0.376380 0.000000 0.500000
O O13 0.088276 0.500000 0.500000
O O14 0.091121 0.250000 0.537757
O O15 0.000000 0.441102 0.571781
#
# Coordination Sequence:
#
# PCOD8301763 Si02
#       5
#    16  16  16  16  16
#     4   8  14  24  36  51  73  99 124 152 188 225
#     4   8  14  24  36  51  73  99 125 154 189 225
#     4   8  13  22  36  52  71  97 126 153 185 227
#     4   9  16  25  38  55  76 103 130 154 182 218
#     4   9  16  25  37  53  75 102 127 152 185 223
#
# _framework density 16.523322
#
# number of rings (size 3 to 8) (size 9 to 14) (size 15 to 20)
#    0.000    3.600    0.000    3.000    0.000    0.400 
#    0.000    1.000    0.000    6.000    0.000    0.000 
#    0.000   20.000    0.000    2.000    0.000    1.600 
#
# Total GULP energy -495541.706707 kJ/mol
# GULP energy per Si atom -12388.542668 kJ/mol
# Density = 1.648571 g / cm^3
# Si number density = 16.523322 Si / 1000 Ang^3
#
#
#
# Elastic Constant Matrix: (Units=GPa)
#
#
# Indices 1 2 3 4 5 6 
#
# 1 162.9302 13.6800 73.9960 0.0000 0.0000 0.0000
# 2 13.6800 13.2571 14.9775 0.0000 0.0000 0.0000
# 3 73.9960 14.9775 110.5752 0.0000 0.0000 0.0000
# 4 0.0000 0.0000 0.0000 14.1238 0.0000 0.0000
# 5 0.0000 0.0000 0.0000 0.0000 21.1038 0.0000
# 6 0.0000 0.0000 0.0000 0.0000 0.0000 8.8069
#
#
#
# Elastic Compliance Matrix: (Units=1/GPa)
#
#
# Indices 1 2 3 4 5 6 
#
# 1 0.008911 -0.002902 -0.005570 0.000000 0.000000 0.000000
# 2 -0.002902 0.090005 -0.010249 0.000000 0.000000 0.000000
# 3 -0.005570 -0.010249 0.014159 0.000000 0.000000 0.000000
# 4 0.000000 0.000000 0.000000 0.070802 0.000000 0.000000
# 5 0.000000 0.000000 0.000000 0.000000 0.047385 0.000000
# 6 0.000000 0.000000 0.000000 0.000000 0.000000 0.113547
#
#
# Mechanical properties :
#
#
# Convention : Reuss Voigt Hill
#
# Bulk Modulus (GPa) = 13.22177 54.67438 33.94808
# Shear Modulus (GPa) = 12.27104 21.08086 16.67595
#
# Velocity S-wave (km/s) = 2.72812 3.57574 3.18030
# Velocity P-wave (km/s) = 4.23589 7.08583 5.83745
#
# Compressibility (1/GPa) = 0.07563282
#
# Stress axis : x y z
#
# Youngs Moduli (GPa) = 112.22161 11.11043 70.62525
#
# Poissons Ratio (x) = 0.03225 0.39338
# Poissons Ratio (y) = 0.32571 0.72384
# Poissons Ratio (z) = 0.62507 0.11387
#
# Static dielectric constant tensor:
#      x y z
#    x 3.659890 0.000000 0.000000 
#    y 0.000000 2.522740 0.000000 
#    z 0.000000 0.000000 3.273510 
# 
# 
# High freq. dielectric constant tensor:
#      x y z
#    x 1.648870 0.000000 0.000000 
#    y 0.000000 1.569160 0.000000 
#    z 0.000000 0.000000 1.623410 
# 
# From -- ./inp_files/63931.got.cif
#   From: 2010.03.12/outbox.cif.g09.slc.cpg/sg74_32_cif.got.tgz:63931.got - 2010.04.16 15:46:19.
