data_PCOD8301430
_publ_section_title
;
Structure prediction by ZEFSAII (Michael W. Deem and Ramdas Pophale) SiO2 
 PCOD8301430
Probable space group: I M M A
;
_chemical_formula_sum "Si O2"
_cell_formula_units_Z 72
_cell_length_a 8.521880
_cell_length_b 26.998245
_cell_length_c 14.557522
_cell_angle_alpha 90.000000
_cell_angle_beta 90.000000
_cell_angle_gamma 90.000000
_cell_volume 3349.333580
_symmetry_space_group_name_H-M "I M M A"
_symmetry_group_IT_number 74
_symmetry_cell_setting 'orthorhombic'
loop_
_space_group_symop_operation_xyz
x,y,z
-x,1/2-y,z
x,-y,-z
-x,1/2+y,-z
-x,-y,-z
x,1/2+y,-z
-x,y,z
x,1/2-y,z
1/2+x,1/2+y,1/2+z
1/2-x,-y,1/2+z
1/2+x,1/2-y,1/2-z
1/2-x,y,1/2-z
1/2-x,1/2-y,1/2-z
1/2+x,y,1/2-z
1/2-x,1/2+y,1/2+z
1/2+x,-y,1/2+z
loop_
_atom_site_type_symbol
_atom_site_label
_atom_site_fract_x
_atom_site_fract_y
_atom_site_fract_z
Si Si1 0.184805 0.620059 0.152893
Si Si2 0.816071 0.341167 0.476160
Si Si3 0.814229 0.750000 0.647000
Si Si4 0.682245 0.915929 0.657161
Si Si5 0.680897 0.013376 0.895072
O O1 0.250000 0.639686 0.250000
O O2 0.264220 0.568088 0.128605
O O3 0.000000 0.613260 0.157680
O O4 0.230365 0.660309 0.074973
O O5 0.753427 0.297558 0.409943
O O6 0.776051 0.393371 0.428704
O O7 0.000000 0.336726 0.493986
O O8 0.750000 0.750000 0.750000
O O9 0.000000 0.750000 0.653531
O O10 0.500000 0.903709 0.647178
O O11 0.750000 0.891124 0.750000
O O12 0.714238 0.974612 0.661992
O O13 0.500000 0.007415 0.866354
O O14 0.709079 0.000000 0.000000
#
# Coordination Sequence:
#
# PCOD8301430 Si02
#       5
#    16  16   8  16  16
#     4  12  25  42  65  93 127 170 215 262 314 373
#     4  11  23  43  66  94 127 162 207 260 316 376
#     4  10  24  44  71 100 131 164 201 254 316 380
#     4  12  24  38  59  89 125 166 210 257 310 371
#     4  11  22  38  61  88 125 169 211 260 312 367
#
# _framework density 21.496814000000001
#
# number of rings (size 3 to 8) (size 9 to 14) (size 15 to 20)
#    0.000    0.667    2.222    6.667    0.000    4.444 
#    0.000    0.556    0.000    0.000    0.000    0.000 
#    0.000    0.000    0.000    0.000    0.000    0.000 
#
# Total GULP energy -446570.432288 kJ/mol
# GULP energy per Si atom -12404.734230 kJ/mol
# Density = 2.144789 g / cm^3
# Si number density = 21.496814 Si / 1000 Ang^3
#
#
#
# Elastic Constant Matrix: (Units=GPa)
#
#
# Indices 1 2 3 4 5 6 
#
# 1 88.4377 8.6352 41.4274 0.0000 0.0000 0.0000
# 2 8.6352 81.2629 45.0227 0.0000 0.0000 0.0000
# 3 41.4274 45.0227 172.4262 0.0002 -0.0001 0.0000
# 4 0.0000 0.0000 0.0002 34.9874 -0.0001 0.0000
# 5 0.0000 0.0000 -0.0001 -0.0001 39.6745 0.0000
# 6 0.0000 0.0000 0.0000 0.0000 0.0000 22.3585
#
#
#
# Elastic Compliance Matrix: (Units=1/GPa)
#
#
# Indices 1 2 3 4 5 6 
#
# 1 0.012753 0.000400 -0.003168 0.000000 0.000000 0.000000
# 2 0.000400 0.014400 -0.003856 0.000000 0.000000 0.000000
# 3 -0.003168 -0.003856 0.007568 0.000000 0.000000 0.000000
# 4 0.000000 0.000000 0.000000 0.028582 0.000000 0.000000
# 5 0.000000 0.000000 0.000000 0.000000 0.025205 0.000000
# 6 0.000000 0.000000 0.000000 0.000000 0.000000 0.044726
#
#
# Mechanical properties :
#
#
# Convention : Reuss Voigt Hill
#
# Bulk Modulus (GPa) = 46.57362 59.14417 52.85890
# Shear Modulus (GPa) = 32.54403 35.87352 34.20877
#
# Velocity S-wave (km/s) = 3.89511 4.08951 3.99349
# Velocity P-wave (km/s) = 6.47623 7.06197 6.77543
#
# Compressibility (1/GPa) = 0.02147138
#
# Stress axis : x y z
#
# Youngs Moduli (GPa) = 78.41574 69.44623 132.14000
#
# Poissons Ratio (x) = -0.02780 0.41868
# Poissons Ratio (y) = -0.03139 0.50955
# Poissons Ratio (z) = 0.24846 0.26779
#
# Static dielectric constant tensor:
#      x y z
#    x 3.797360 0.000000 0.000000 
#    y 0.000000 3.789430 0.000000 
#    z 0.000000 0.000000 4.303430 
# 
# 
# High freq. dielectric constant tensor:
#      x y z
#    x 1.848420 0.000000 0.000000 
#    y 0.000000 1.820830 0.000000 
#    z 0.000000 0.000000 1.865560 
# 
# From -- ./inp_files/29190.got.cif
#   From: 2010.03.12/outbox.cif.g09.slc.cpg/sg74_15_cif.got.tgz:29190.got - 2010.04.16 15:46:19.
