data_PCOD8301688
_publ_section_title
;
Structure prediction by ZEFSAII (Michael W. Deem and Ramdas Pophale) SiO2 
 PCOD8301688
Probable space group: I M M A
;
_chemical_formula_sum "Si O2"
_cell_formula_units_Z 64
_cell_length_a 10.179431
_cell_length_b 27.961127
_cell_length_c 11.386421
_cell_angle_alpha 90.000000
_cell_angle_beta 90.000000
_cell_angle_gamma 90.000000
_cell_volume 3240.898369
_symmetry_space_group_name_H-M "I M M A"
_symmetry_group_IT_number 74
_symmetry_cell_setting 'orthorhombic'
loop_
_space_group_symop_operation_xyz
x,y,z
-x,1/2-y,z
x,-y,-z
-x,1/2+y,-z
-x,-y,-z
x,1/2+y,-z
-x,y,z
x,1/2-y,z
1/2+x,1/2+y,1/2+z
1/2-x,-y,1/2+z
1/2+x,1/2-y,1/2-z
1/2-x,y,1/2-z
1/2-x,1/2-y,1/2-z
1/2+x,y,1/2-z
1/2-x,1/2+y,1/2+z
1/2+x,-y,1/2+z
loop_
_atom_site_type_symbol
_atom_site_label
_atom_site_fract_x
_atom_site_fract_y
_atom_site_fract_z
Si Si1 0.500000 0.443514 0.996779
Si Si2 0.750000 0.166783 0.750000
Si Si3 0.252657 0.895625 0.610914
Si Si4 0.500000 0.102488 0.757794
Si Si5 0.500000 0.056461 0.501996
Si Si6 0.847433 0.803300 0.008957
O O1 0.500000 0.436999 0.857694
O O2 0.500000 0.500000 0.000000
O O3 0.623743 0.419530 0.058995
O O4 0.627623 0.133811 0.779511
O O5 0.714837 0.199362 0.638623
O O6 0.250000 0.896579 0.750000
O O7 0.373144 0.926406 0.566386
O O8 0.266835 0.840433 0.570361
O O9 0.500000 0.076617 0.633179
O O10 0.500000 0.000000 0.500000
O O11 0.836630 0.750000 0.954236
O O12 0.000000 0.819831 0.017275
#
# Coordination Sequence:
#
# PCOD8301688 Si02
#       6
#     8   8  16   8   8  16
#     4  12  27  44  65 102 133 172 219 277 326 382
#     4  12  19  42  62 100 132 166 214 278 331 386
#     4  12  25  45  67  96 137 173 222 272 325 391
#     4  12  22  40  73  90 134 168 219 278 330 376
#     4  12  25  46  69  96 129 182 227 265 332 398
#     4  11  23  42  68  97 130 175 220 270 337 396
#
# _framework density 19.747609000000001
#
# number of rings (size 3 to 8) (size 9 to 14) (size 15 to 20)
#    0.000    0.250    7.500    1.875    3.500    0.500 
#    0.000    1.875    0.000    0.000    0.000    0.000 
#    0.000    0.000    0.000    0.000    0.000    0.000 
#
# Total GULP energy -396853.415772 kJ/mol
# GULP energy per Si atom -12401.669243 kJ/mol
# Density = 1.970266 g / cm^3
# Si number density = 19.747609 Si / 1000 Ang^3
#
#
#
# Elastic Constant Matrix: (Units=GPa)
#
#
# Indices 1 2 3 4 5 6 
#
# 1 165.0388 72.1651 56.8762 -0.0003 -0.0003 -0.0001
# 2 72.1651 160.0470 60.8093 -0.0006 0.0004 0.0004
# 3 56.8762 60.8093 164.9182 -0.0020 0.0027 0.0042
# 4 -0.0003 -0.0006 -0.0020 26.4826 0.0007 0.0007
# 5 -0.0003 0.0004 0.0027 0.0007 16.4795 -0.0019
# 6 -0.0001 0.0004 0.0042 0.0007 -0.0019 18.1793
#
#
#
# Elastic Compliance Matrix: (Units=1/GPa)
#
#
# Indices 1 2 3 4 5 6 
#
# 1 0.007913 -0.002943 -0.001644 0.000000 0.000000 0.000000
# 2 -0.002943 0.008361 -0.002068 0.000000 0.000000 0.000000
# 3 -0.001644 -0.002068 0.007393 0.000001 -0.000001 -0.000002
# 4 0.000000 0.000000 0.000001 0.037761 -0.000002 -0.000002
# 5 0.000000 0.000000 -0.000001 -0.000002 0.060682 0.000006
# 6 0.000000 0.000000 -0.000002 -0.000002 0.000006 0.055007
#
#
# Mechanical properties :
#
#
# Convention : Reuss Voigt Hill
#
# Bulk Modulus (GPa) = 96.55278 96.63393 96.59336
# Shear Modulus (GPa) = 25.78943 32.23851 29.01397
#
# Velocity S-wave (km/s) = 3.61772 4.04484 3.83722
# Velocity P-wave (km/s) = 8.15169 8.41754 8.28568
#
# Compressibility (1/GPa) = 0.01035703
#
# Stress axis : x y z
#
# Youngs Moduli (GPa) = 126.38072 119.60353 135.26496
#
# Poissons Ratio (x) = 0.35203 0.22232
# Poissons Ratio (y) = 0.37198 0.27970
# Poissons Ratio (z) = 0.20772 0.24732
#
# Static dielectric constant tensor:
#      x y z
#    x 4.052830 0.000000 0.000000 
#    y 0.000000 3.795620 0.000000 
#    z 0.000000 0.000000 3.731990 
# 
# 
# High freq. dielectric constant tensor:
#      x y z
#    x 1.786220 0.000000 0.000000 
#    y 0.000000 1.782200 0.000000 
#    z 0.000000 0.000000 1.775050 
# 
# From -- ./inp_files/17644.got.cif
#   From: 2010.03.12/outbox.cif.g09.slc.cpg/sg74_9_cif.got.tgz:17644.got - 2010.04.16 15:46:19.
