data_PCOD8301843
_publ_section_title
;
Structure prediction by ZEFSAII (Michael W. Deem and Ramdas Pophale) SiO2 
 PCOD8301843
Probable space group: P 4
;
_chemical_formula_sum "Si O2"
_cell_formula_units_Z 22
_cell_length_a 8.152807
_cell_length_b 8.152807
_cell_length_c 14.401737
_cell_angle_alpha 90.000000
_cell_angle_beta 90.000000
_cell_angle_gamma 90.000000
_cell_volume 957.258428
_symmetry_space_group_name_H-M "P 4"
_symmetry_group_IT_number 75
_symmetry_cell_setting 'tetragonal'
loop_
_space_group_symop_operation_xyz
x,y,z
-y,x,z
-x,-y,z
y,-x,z
loop_
_atom_site_type_symbol
_atom_site_label
_atom_site_fract_x
_atom_site_fract_y
_atom_site_fract_z
Si Si1 0.500000 0.000000 0.279881
Si Si2 0.235218 0.455636 0.115168
Si Si3 0.413304 0.754324 0.798830
Si Si4 0.734546 0.029719 0.445718
Si Si5 0.758944 0.573497 0.587344
Si Si6 0.737420 0.070844 0.962649
O O1 0.473758 0.838547 0.217969
O O2 0.339073 0.992739 0.343342
O O3 0.368903 0.314684 0.098590
O O4 0.094968 0.399357 0.043021
O O5 0.296589 0.599475 0.819715
O O6 0.399433 0.816214 0.693209
O O7 0.354671 0.902503 0.864439
O O8 0.598199 0.082427 0.521443
O O9 0.859271 0.178231 0.461385
O O10 0.610220 0.698520 0.567207
O O11 0.886879 0.198572 0.971434
#
# Coordination Sequence:
#
# PCOD8301843 Si02
#       6
#     2   4   4   4   4   4
#     4  12  24  44  66  88 120 158 204 262 332 406
#     4  11  24  42  66  93 120 158 212 270 327 395
#     4   9  19  37  62  93 130 175 226 272 315 372
#     4  11  24  40  61  91 126 164 208 265 333 401
#     4   9  19  38  64  94 131 177 226 273 322 383
#     4  11  24  40  60  92 135 178 218 267 329 393
#
# _framework density 22.982298
#
# number of rings (size 3 to 8) (size 9 to 14) (size 15 to 20)
#    0.000    1.636    0.000    5.455    0.000    5.091 
#    0.000    9.091    0.000    0.000    0.000    0.000 
#    0.000    0.000    0.000    0.000    0.000    0.000 
#
# Total GULP energy -272645.226331 kJ/mol
# GULP energy per Si atom -12392.964833 kJ/mol
# Density = 2.292999 g / cm^3
# Si number density = 22.982298 Si / 1000 Ang^3
#
#
#
# Elastic Constant Matrix: (Units=GPa)
#
#
# Indices 1 2 3 4 5 6 
#
# 1 86.7137 44.6649 50.5185 0.0000 0.0000 7.4922
# 2 44.6649 86.7137 50.5185 0.0000 0.0000 -7.4922
# 3 50.5185 50.5185 154.6242 0.0000 0.0000 0.0000
# 4 0.0000 0.0000 0.0000 35.3269 0.0000 0.0000
# 5 0.0000 0.0000 0.0000 0.0000 35.3269 0.0000
# 6 7.4922 -7.4922 0.0000 0.0000 0.0000 44.9003
#
#
#
# Elastic Compliance Matrix: (Units=1/GPa)
#
#
# Indices 1 2 3 4 5 6 
#
# 1 0.017726 -0.007560 -0.003321 0.000000 0.000000 -0.004219
# 2 -0.007560 0.017726 -0.003321 0.000000 0.000000 0.004219
# 3 -0.003321 -0.003321 0.008638 0.000000 0.000000 0.000000
# 4 0.000000 0.000000 0.000000 0.028307 0.000000 0.000000
# 5 0.000000 0.000000 0.000000 0.000000 0.028307 0.000000
# 6 -0.004219 0.004219 0.000000 0.000000 0.000000 0.023680
#
#
# Mechanical properties :
#
#
# Convention : Reuss Voigt Hill
#
# Bulk Modulus (GPa) = 63.75971 68.82836 66.29403
# Shear Modulus (GPa) = 31.64240 35.26745 33.45492
#
# Velocity S-wave (km/s) = 3.71457 3.92158 3.81948
# Velocity P-wave (km/s) = 6.79710 7.10764 6.95410
#
# Compressibility (1/GPa) = 0.01568389
#
# Stress axis : x y z
#
# Youngs Moduli (GPa) = 56.41530 56.41530 115.77296
#
# Poissons Ratio (x) = 0.42649 0.38453
# Poissons Ratio (y) = 0.42649 0.38453
# Poissons Ratio (z) = 0.18738 0.18738
#
# Static dielectric constant tensor:
#      x y z
#    x 4.135210 0.000000 0.000000 
#    y 0.000000 4.135210 0.000000 
#    z 0.000000 0.000000 3.988240 
# 
# 
# High freq. dielectric constant tensor:
#      x y z
#    x 1.923500 0.000000 0.000000 
#    y 0.000000 1.923500 0.000000 
#    z 0.000000 0.000000 1.902500 
# 
# From -- ./inp_files/657.got.cif
#   From: 2010.03.12/outbox.cif.g09.slc.cpg/sg75_cif.got.tgz:657.got - 2010.04.16 16:33:55.
