data_PCOD8301706
_publ_section_title
;
Structure prediction by ZEFSAII (Michael W. Deem and Ramdas Pophale) SiO2 
 PCOD8301706
Probable space group: I M M A
;
_chemical_formula_sum "Si O2"
_cell_formula_units_Z 64
_cell_length_a 8.594429
_cell_length_b 20.355547
_cell_length_c 17.819144
_cell_angle_alpha 90.000000
_cell_angle_beta 90.000000
_cell_angle_gamma 90.000000
_cell_volume 3117.357735
_symmetry_space_group_name_H-M "I M M A"
_symmetry_group_IT_number 74
_symmetry_cell_setting 'orthorhombic'
loop_
_space_group_symop_operation_xyz
x,y,z
-x,1/2-y,z
x,-y,-z
-x,1/2+y,-z
-x,-y,-z
x,1/2+y,-z
-x,y,z
x,1/2-y,z
1/2+x,1/2+y,1/2+z
1/2-x,-y,1/2+z
1/2+x,1/2-y,1/2-z
1/2-x,y,1/2-z
1/2-x,1/2-y,1/2-z
1/2+x,y,1/2-z
1/2-x,1/2+y,1/2+z
1/2+x,-y,1/2+z
loop_
_atom_site_type_symbol
_atom_site_label
_atom_site_fract_x
_atom_site_fract_y
_atom_site_fract_z
Si Si1 0.318040 0.750000 0.667578
Si Si2 0.678834 0.996038 0.669318
Si Si3 0.321113 0.128908 0.577488
Si Si4 0.684091 0.250000 0.833128
Si Si5 0.317931 0.374286 0.085299
O O1 0.500000 0.750000 0.676247
O O2 0.250000 0.750000 0.750000
O O3 0.268203 0.686202 0.622653
O O4 0.500000 0.973306 0.676014
O O5 0.750000 0.010162 0.750000
O O6 0.777529 0.940193 0.629156
O O7 0.693935 0.062089 0.622688
O O8 0.500000 0.147589 0.562358
O O9 0.240409 0.185934 0.623939
O O10 0.233517 0.118582 0.499966
O O11 0.500000 0.250000 0.829072
O O12 0.750000 0.250000 0.750000
O O13 0.500000 0.361090 0.089487
#
# Coordination Sequence:
#
# PCOD8301706 Si02
#       5
#     8  16  16   8  16
#     4  12  25  44  67  92 126 164 208 258 311 370
#     4  11  24  42  65  93 126 165 209 257 311 370
#     4  11  24  43  66  93 127 166 210 259 312 369
#     4  12  25  42  65  94 128 166 210 258 313 372
#     4  12  25  42  65  94 128 165 208 256 311 372
#
# _framework density 20.530207999999998
#
# number of rings (size 3 to 8) (size 9 to 14) (size 15 to 20)
#    0.000    0.500    0.000    9.000    0.000    9.000 
#    0.000    0.000    0.000    0.000    0.000    0.000 
#    0.000    0.000    0.000    0.000    0.000    0.000 
#
# Total GULP energy -397047.149111 kJ/mol
# GULP energy per Si atom -12407.723410 kJ/mol
# Density = 2.048348 g / cm^3
# Si number density = 20.530208 Si / 1000 Ang^3
#
#
#
# Elastic Constant Matrix: (Units=GPa)
#
#
# Indices 1 2 3 4 5 6 
#
# 1 171.9350 51.3174 50.7557 0.0000 0.0000 0.0000
# 2 51.3174 103.3637 35.2025 0.0000 0.0000 0.0000
# 3 50.7557 35.2025 138.6658 0.0000 0.0000 0.0000
# 4 0.0000 0.0000 0.0000 -2.1775 0.0000 0.0000
# 5 0.0000 0.0000 0.0000 0.0000 29.0016 0.0000
# 6 0.0000 0.0000 0.0000 0.0000 0.0000 36.1563
#
#
#
# Elastic Compliance Matrix: (Units=1/GPa)
#
#
# Indices 1 2 3 4 5 6 
#
# 1 0.007261 -0.002955 -0.001908 0.000000 0.000000 0.000000
# 2 -0.002955 0.011793 -0.001912 0.000000 0.000000 0.000000
# 3 -0.001908 -0.001912 0.008395 0.000000 0.000000 0.000000
# 4 0.000000 0.000000 0.000000 -0.459240 0.000000 0.000000
# 5 0.000000 0.000000 0.000000 0.000000 0.034481 0.000000
# 6 0.000000 0.000000 0.000000 0.000000 0.000000 0.027658
#
#
# Mechanical properties :
#
#
# Convention : Reuss Voigt Hill
#
# Bulk Modulus (GPa) = 71.94517 76.50174 74.22346
# Shear Modulus (GPa) = -14.22603 31.04201 8.40799
#
# Velocity S-wave (km/s) = -2.63522 3.89268 2.02591
# Velocity P-wave (km/s) = 5.08532 7.58603 6.45788
#
# Compressibility (1/GPa) = 0.01389947
#
# Stress axis : x y z
#
# Youngs Moduli (GPa) = 137.71482 84.79564 119.11526
#
# Poissons Ratio (x) = 0.25061 0.22722
# Poissons Ratio (y) = 0.40700 0.22776
# Poissons Ratio (z) = 0.26270 0.16214
#
# Static dielectric constant tensor:
#      x y z
#    x 4.092750 0.000000 0.000000 
#    y 0.000000 3.942910 0.000000 
#    z 0.000000 0.000000 3.996130 
# 
# 
# High freq. dielectric constant tensor:
#      x y z
#    x 1.826110 0.000000 0.000000 
#    y 0.000000 1.823530 0.000000 
#    z 0.000000 0.000000 1.827230 
# 
# From -- ./inp_files/28859.got.cif
#   From: 2010.03.12/outbox.cif.g09.slc.cpg/sg74_15_cif.got.tgz:28859.got - 2010.04.16 15:46:19.
