data_PCOD8301893
_publ_section_title
;
Structure prediction by ZEFSAII (Michael W. Deem and Ramdas Pophale) SiO2 
 PCOD8301893
Probable space group: P 41
;
_chemical_formula_sum "Si O2"
_cell_formula_units_Z 28
_cell_length_a 15.936978
_cell_length_b 15.936978
_cell_length_c 5.212845
_cell_angle_alpha 90.000000
_cell_angle_beta 90.000000
_cell_angle_gamma 90.000000
_cell_volume 1323.996259
_symmetry_space_group_name_H-M "P 41"
_symmetry_group_IT_number 76
_symmetry_cell_setting 'tetragonal'
loop_
_space_group_symop_operation_xyz
x,y,z
-y,x,1/4+z
-x,-y,1/2+z
y,-x,3/4+z
loop_
_atom_site_type_symbol
_atom_site_label
_atom_site_fract_x
_atom_site_fract_y
_atom_site_fract_z
Si Si1 0.718747 0.671153 0.388940
Si Si2 0.069870 0.282462 0.437589
Si Si3 0.218804 0.407410 0.417080
Si Si4 0.165275 0.191180 0.036436
Si Si5 0.596207 0.807502 0.276382
Si Si6 0.939452 0.893800 0.186297
Si Si7 0.672149 0.881361 0.767231
O O1 0.732650 0.626977 0.665463
O O2 0.787452 0.745335 0.341038
O O3 0.628078 0.713927 0.347193
O O4 0.722673 0.602360 0.165974
O O5 0.134558 0.357279 0.482929
O O6 0.088398 0.243985 0.157864
O O7 0.078785 0.202563 0.622178
O O8 0.980123 0.322714 0.479422
O O9 0.196274 0.504583 0.401613
O O10 0.237219 0.162557 0.234713
O O11 0.123758 0.103490 0.930566
O O12 0.604447 0.855665 0.548407
O O13 0.647998 0.856090 0.055789
O O14 0.037691 0.909497 0.232930
#
# Coordination Sequence:
#
# PCOD8301893 Si02
#       7
#     4   4   4   4   4   4   4
#     4  10  21  40  68  95 124 172 206 264 324 403
#     4  11  24  40  61  87 128 180 226 272 347 385
#     4  11  23  42  70  97 131 169 219 266 328 415
#     4  10  22  41  61  86 122 176 231 265 328 391
#     4  11  24  43  65 103 129 166 224 269 334 402
#     4  12  27  38  57  89 130 174 236 292 324 366
#     4  11  25  38  66  89 136 175 220 292 329 388
#
# _framework density 21.148092999999999
#
# number of rings (size 3 to 8) (size 9 to 14) (size 15 to 20)
#    0.000    1.143    1.429    5.143   12.000    1.143 
#    0.000    0.000    0.000    1.714    0.000    0.000 
#    0.000    0.000    0.000    0.000    0.000    0.000 
#
# Total GULP energy -346873.398220 kJ/mol
# GULP energy per Si atom -12388.335651 kJ/mol
# Density = 2.109996 g / cm^3
# Si number density = 21.148093 Si / 1000 Ang^3
#
#
#
# Elastic Constant Matrix: (Units=GPa)
#
#
# Indices 1 2 3 4 5 6 
#
# 1 113.4768 42.2415 33.2778 0.0000 0.0000 -3.6734
# 2 42.2415 113.4768 33.2778 0.0000 0.0000 3.6734
# 3 33.2778 33.2778 107.3390 0.0000 0.0000 0.0000
# 4 0.0000 0.0000 0.0000 28.2925 0.0000 0.0000
# 5 0.0000 0.0000 0.0000 0.0000 28.2925 0.0000
# 6 -3.6734 3.6734 0.0000 0.0000 0.0000 18.1367
#
#
#
# Elastic Compliance Matrix: (Units=1/GPa)
#
#
# Indices 1 2 3 4 5 6 
#
# 1 0.010870 -0.003467 -0.002295 0.000000 0.000000 0.002904
# 2 -0.003467 0.010870 -0.002295 0.000000 0.000000 -0.002904
# 3 -0.002295 -0.002295 0.010739 0.000000 0.000000 0.000000
# 4 0.000000 0.000000 0.000000 0.035345 0.000000 0.000000
# 5 0.000000 0.000000 0.000000 0.000000 0.035345 0.000000
# 6 0.002904 -0.002904 0.000000 0.000000 0.000000 0.056313
#
#
# Mechanical properties :
#
#
# Convention : Reuss Voigt Hill
#
# Bulk Modulus (GPa) = 61.10717 61.32075 61.21396
# Shear Modulus (GPa) = 27.61627 29.97737 28.79682
#
# Velocity S-wave (km/s) = 3.61758 3.76905 3.69409
# Velocity P-wave (km/s) = 6.81225 6.92819 6.87047
#
# Compressibility (1/GPa) = 0.01636469
#
# Stress axis : x y z
#
# Youngs Moduli (GPa) = 91.99524 91.99524 93.11572
#
# Poissons Ratio (x) = 0.31898 0.21370
# Poissons Ratio (y) = 0.31898 0.21370
# Poissons Ratio (z) = 0.21113 0.21113
#
# Static dielectric constant tensor:
#      x y z
#    x 3.772120 0.000000 0.000000 
#    y 0.000000 3.772120 0.000000 
#    z 0.000000 0.000000 3.957780 
# 
# 
# High freq. dielectric constant tensor:
#      x y z
#    x 1.817690 0.000000 0.000000 
#    y 0.000000 1.817690 0.000000 
#    z 0.000000 0.000000 1.842770 
# 
# From -- ./inp_files/226.got.cif
#   From: 2010.03.12/outbox.cif.g09.slc.cpg/sg76_cif.got.tgz:226.got - 2010.04.16 16:34:25.
