data_PCOD8301357
_publ_section_title
;
Structure prediction by ZEFSAII (Michael W. Deem and Ramdas Pophale) SiO2 
 PCOD8301357
Probable space group: I M M A
;
_chemical_formula_sum "Si O2"
_cell_formula_units_Z 48
_cell_length_a 12.630135
_cell_length_b 9.194659
_cell_length_c 21.865704
_cell_angle_alpha 90.000000
_cell_angle_beta 90.000000
_cell_angle_gamma 90.000000
_cell_volume 2539.259492
_symmetry_space_group_name_H-M "I M M A"
_symmetry_group_IT_number 74
_symmetry_cell_setting 'orthorhombic'
loop_
_space_group_symop_operation_xyz
x,y,z
-x,1/2-y,z
x,-y,-z
-x,1/2+y,-z
-x,-y,-z
x,1/2+y,-z
-x,y,z
x,1/2-y,z
1/2+x,1/2+y,1/2+z
1/2-x,-y,1/2+z
1/2+x,1/2-y,1/2-z
1/2-x,y,1/2-z
1/2-x,1/2-y,1/2-z
1/2+x,y,1/2-z
1/2-x,1/2+y,1/2+z
1/2+x,-y,1/2+z
loop_
_atom_site_type_symbol
_atom_site_label
_atom_site_fract_x
_atom_site_fract_y
_atom_site_fract_z
Si Si1 0.281280 0.421947 0.937369
Si Si2 0.500000 0.578782 0.119771
Si Si3 0.000000 0.912896 0.743656
Si Si4 0.882799 0.913238 0.860477
O O1 0.276957 0.250000 0.946581
O O2 0.396928 0.476765 0.916359
O O3 0.196975 0.467116 0.886017
O O4 0.250309 0.500000 0.000000
O O5 0.500000 0.750000 0.124005
O O6 0.500000 0.524896 0.188927
O O7 0.104002 0.935114 0.786871
O O8 0.000000 0.750000 0.716284
O O9 0.840093 0.750000 0.874120
O O10 0.000000 0.931720 0.890848
#
# Coordination Sequence:
#
# PCOD8301357 Si02
#       4
#    16   8   8  16
#     4  11  23  38  57  81 111 149 188 229 275 326
#     4  10  23  39  55  81 115 148 185 228 276 326
#     4   8  18  37  60  85 111 144 182 224 275 328
#     4   8  18  38  59  84 113 142 181 226 275 330
#
# _framework density 18.903148999999999
#
# number of rings (size 3 to 8) (size 9 to 14) (size 15 to 20)
#    1.000    1.667    0.000    1.500    0.000    6.667 
#    0.000    6.667    0.000    0.000    0.000    0.000 
#    0.000    0.000    0.000    0.000    0.000    0.000 
#
# Total GULP energy -297446.767226 kJ/mol
# GULP energy per Si atom -12393.615301 kJ/mol
# Density = 1.886012 g / cm^3
# Si number density = 18.903149 Si / 1000 Ang^3
#
#
#
# Elastic Constant Matrix: (Units=GPa)
#
#
# Indices 1 2 3 4 5 6 
#
# 1 64.6059 30.4579 10.0235 0.0000 0.0000 0.0000
# 2 30.4579 56.3736 25.3181 0.0000 0.0000 0.0000
# 3 10.0235 25.3181 63.9501 0.0000 0.0000 0.0000
# 4 0.0000 0.0000 0.0000 38.1729 0.0000 0.0000
# 5 0.0000 0.0000 0.0000 0.0000 28.1565 0.0000
# 6 0.0000 0.0000 0.0000 0.0000 0.0000 27.2576
#
#
#
# Elastic Compliance Matrix: (Units=1/GPa)
#
#
# Indices 1 2 3 4 5 6 
#
# 1 0.020879 -0.011932 0.001452 0.000000 0.000000 0.000000
# 2 -0.011932 0.028394 -0.009371 0.000000 0.000000 0.000000
# 3 0.001452 -0.009371 0.019120 0.000000 0.000000 0.000000
# 4 0.000000 0.000000 0.000000 0.026197 0.000000 0.000000
# 5 0.000000 0.000000 0.000000 0.000000 0.035516 0.000000
# 6 0.000000 0.000000 0.000000 0.000000 0.000000 0.036687
#
#
# Mechanical properties :
#
#
# Convention : Reuss Voigt Hill
#
# Bulk Modulus (GPa) = 34.85675 35.16985 35.01330
# Shear Modulus (GPa) = 23.14181 26.65941 24.90061
#
# Velocity S-wave (km/s) = 3.50270 3.75949 3.63336
# Velocity P-wave (km/s) = 5.90239 6.12297 6.01369
#
# Compressibility (1/GPa) = 0.02868884
#
# Stress axis : x y z
#
# Youngs Moduli (GPa) = 47.89580 35.21823 52.30187
#
# Poissons Ratio (x) = 0.42024 -0.07592
# Poissons Ratio (y) = 0.57151 0.49013
# Poissons Ratio (z) = -0.06952 0.33004
#
# Static dielectric constant tensor:
#      x y z
#    x 3.465750 0.000000 0.000000 
#    y 0.000000 3.269770 0.000000 
#    z 0.000000 0.000000 3.229940 
# 
# 
# High freq. dielectric constant tensor:
#      x y z
#    x 1.729380 0.000000 0.000000 
#    y 0.000000 1.730970 0.000000 
#    z 0.000000 0.000000 1.726260 
# 
# From -- ./inp_files/56160.got.cif
#   From: 2010.03.12/outbox.cif.g09.slc.cpg/sg74_29_cif.got.tgz:56160.got - 2010.04.16 15:46:19.
