data_PCOD8301062
_publ_section_title
;
Structure prediction by ZEFSAII (Michael W. Deem and Ramdas Pophale) SiO2 
 PCOD8301062
Probable space group: I M M A
;
_chemical_formula_sum "Si O2"
_cell_formula_units_Z 88
_cell_length_a 12.076271
_cell_length_b 13.273513
_cell_length_c 23.787553
_cell_angle_alpha 90.000000
_cell_angle_beta 90.000000
_cell_angle_gamma 90.000000
_cell_volume 3813.014868
_symmetry_space_group_name_H-M "I M M A"
_symmetry_group_IT_number 74
_symmetry_cell_setting 'orthorhombic'
loop_
_space_group_symop_operation_xyz
x,y,z
-x,1/2-y,z
x,-y,-z
-x,1/2+y,-z
-x,-y,-z
x,1/2+y,-z
-x,y,z
x,1/2-y,z
1/2+x,1/2+y,1/2+z
1/2-x,-y,1/2+z
1/2+x,1/2-y,1/2-z
1/2-x,y,1/2-z
1/2-x,1/2-y,1/2-z
1/2+x,y,1/2-z
1/2-x,1/2+y,1/2+z
1/2+x,-y,1/2+z
loop_
_atom_site_type_symbol
_atom_site_label
_atom_site_fract_x
_atom_site_fract_y
_atom_site_fract_z
Si Si1 0.760183 0.869469 0.573589
Si Si2 0.250000 0.990020 0.250000
Si Si3 0.374564 0.865799 0.681863
Si Si4 0.500000 0.870048 0.960525
Si Si5 0.726732 0.868996 0.137592
Si Si6 0.000000 0.868219 0.415183
Si Si7 0.873584 0.129723 0.965733
O O1 0.753305 0.750000 0.569458
O O2 0.707683 0.904797 0.632630
O O3 0.688731 0.913534 0.521222
O O4 0.888409 0.906159 0.571446
O O5 0.353234 0.065163 0.263071
O O6 0.260129 0.916917 0.197865
O O7 0.500000 0.879224 0.660859
O O8 0.351051 0.750000 0.697799
O O9 0.500000 0.750000 0.965158
O O10 0.500000 0.918119 0.023112
O O11 0.739561 0.750000 0.144188
O O12 0.606743 0.903934 0.117966
O O13 0.813565 0.910477 0.090971
O O14 0.000000 0.750000 0.423326
O O15 0.867468 0.250000 0.966045
O O16 0.000000 0.091668 0.965955
#
# Coordination Sequence:
#
# PCOD8301062 Si02
#       7
#    16   8  16   8  16   8  16
#     4   9  16  31  59  94 124 156 198 252 317 377
#     4  12  26  42  64  88 122 164 224 262 304 360
#     4  10  23  45  68  90 120 159 208 266 321 370
#     4   9  14  26  57  97 129 154 197 247 302 386
#     4  10  21  38  61  92 130 169 206 250 305 365
#     4   9  16  32  59  91 128 166 200 243 306 372
#     4   9  16  29  55  90 125 162 203 247 305 375
#
# _framework density 23.078849999999999
#
# number of rings (size 3 to 8) (size 9 to 14) (size 15 to 20)
#    0.000    2.364    1.818    1.091    1.273    2.909 
#    1.636    0.909    0.000    3.273    0.000    0.000 
#    0.000    0.000    0.000    0.000    0.000    0.000 
#
# Total GULP energy -545505.356638 kJ/mol
# GULP energy per Si atom -12397.849015 kJ/mol
# Density = 2.302632 g / cm^3
# Si number density = 23.078850 Si / 1000 Ang^3
#
#
#
# Elastic Constant Matrix: (Units=GPa)
#
#
# Indices 1 2 3 4 5 6 
#
# 1 177.9125 13.9592 55.9896 0.0000 0.0000 0.0000
# 2 13.9592 49.9243 46.6692 0.0000 0.0000 0.0000
# 3 55.9896 46.6692 135.9683 0.0000 0.0000 0.0000
# 4 0.0000 0.0000 0.0000 38.5176 0.0000 0.0000
# 5 0.0000 0.0000 0.0000 0.0000 31.1689 0.0000
# 6 0.0000 0.0000 0.0000 0.0000 0.0000 -5.0630
#
#
#
# Elastic Compliance Matrix: (Units=1/GPa)
#
#
# Indices 1 2 3 4 5 6 
#
# 1 0.006492 0.001007 -0.003019 0.000000 0.000000 0.000000
# 2 0.001007 0.029650 -0.010591 0.000000 0.000000 0.000000
# 3 -0.003019 -0.010591 0.012233 0.000000 0.000000 0.000000
# 4 0.000000 0.000000 0.000000 0.025962 0.000000 0.000000
# 5 0.000000 0.000000 0.000000 0.000000 0.032083 0.000000
# 6 0.000000 0.000000 0.000000 0.000000 0.000000 -0.197512
#
#
# Mechanical properties :
#
#
# Convention : Reuss Voigt Hill
#
# Bulk Modulus (GPa) = 43.16346 66.33790 54.75068
# Shear Modulus (GPa) = -85.96640 29.40384 -28.28128
#
# Velocity S-wave (km/s) = -6.10982 3.57327 -3.50440
# Velocity P-wave (km/s) = 5.57045 6.76984 2.72037
#
# Compressibility (1/GPa) = 0.02316774
#
# Stress axis : x y z
#
# Youngs Moduli (GPa) = 154.04128 33.72721 81.74542
#
# Poissons Ratio (x) = -0.03396 0.24677
# Poissons Ratio (y) = -0.15509 0.86580
# Poissons Ratio (z) = 0.46502 0.35722
#
# Static dielectric constant tensor:
#      x y z
#    x 4.144370 0.000000 0.000000 
#    y 0.000000 4.139970 0.000000 
#    z 0.000000 0.000000 4.081780 
# 
# 
# High freq. dielectric constant tensor:
#      x y z
#    x 1.909180 0.000000 0.000000 
#    y 0.000000 1.940060 0.000000 
#    z 0.000000 0.000000 1.899790 
# 
# From -- ./inp_files/58680.got.cif
#   From: 2010.03.12/outbox.cif.g09.slc.cpg/sg74_30_cif.got.tgz:58680.got - 2010.04.16 15:46:19.
