data_PCOD8301052
_publ_section_title
;
Structure prediction by ZEFSAII (Michael W. Deem and Ramdas Pophale) SiO2 
 PCOD8301052
Probable space group: I M M A
;
_chemical_formula_sum "Si O2"
_cell_formula_units_Z 96
_cell_length_a 8.637689
_cell_length_b 27.412797
_cell_length_c 20.164994
_cell_angle_alpha 90.000000
_cell_angle_beta 90.000000
_cell_angle_gamma 90.000000
_cell_volume 4774.732112
_symmetry_space_group_name_H-M "I M M A"
_symmetry_group_IT_number 74
_symmetry_cell_setting 'orthorhombic'
loop_
_space_group_symop_operation_xyz
x,y,z
-x,1/2-y,z
x,-y,-z
-x,1/2+y,-z
-x,-y,-z
x,1/2+y,-z
-x,y,z
x,1/2-y,z
1/2+x,1/2+y,1/2+z
1/2-x,-y,1/2+z
1/2+x,1/2-y,1/2-z
1/2-x,y,1/2-z
1/2-x,1/2-y,1/2-z
1/2+x,y,1/2-z
1/2-x,1/2+y,1/2+z
1/2+x,-y,1/2+z
loop_
_atom_site_type_symbol
_atom_site_label
_atom_site_fract_x
_atom_site_fract_y
_atom_site_fract_z
Si Si1 0.818945 0.624612 0.320261
Si Si2 0.819049 0.693483 0.679202
Si Si3 0.317901 0.978534 0.320877
Si Si4 0.820384 0.862817 0.942234
Si Si5 0.181133 0.966016 0.560297
Si Si6 0.678567 0.193655 0.574272
O O1 0.750000 0.641258 0.250000
O O2 0.746166 0.573734 0.344627
O O3 0.785789 0.665956 0.373752
O O4 0.000000 0.616810 0.311971
O O5 0.786894 0.750000 0.663472
O O6 0.750000 0.679001 0.750000
O O7 0.730847 0.661024 0.626178
O O8 0.000000 0.681265 0.677949
O O9 0.500000 0.974883 0.314528
O O10 0.250000 0.993851 0.250000
O O11 0.272078 0.019498 0.373483
O O12 0.721387 0.910751 0.957878
O O13 0.000000 0.876985 0.938295
O O14 0.786139 0.824631 0.000451
O O15 0.000000 0.972029 0.573430
O O16 0.236570 0.000000 0.500000
O O17 0.500000 0.184915 0.593315
O O18 0.724139 0.250000 0.577241
#
# Coordination Sequence:
#
# PCOD8301052 Si02
#       6
#    16  16  16  16  16  16
#     4  11  22  38  61  88 119 155 195 239 289 346
#     4  10  21  38  61  88 119 155 195 240 290 345
#     4  11  22  39  63  89 119 154 194 239 289 347
#     4  11  23  39  61  88 118 154 195 240 291 347
#     4  11  24  41  61  87 119 154 194 241 291 345
#     4  10  22  40  61  86 118 155 195 241 292 346
#
# _framework density 20.105841000000002
#
# number of rings (size 3 to 8) (size 9 to 14) (size 15 to 20)
#    0.000    1.333    0.000    7.000    0.000    8.333 
#    0.000    3.333    0.000    0.000    0.000    0.000 
#    0.000    0.000    0.000    0.000    0.000    0.000 
#
# Total GULP energy -595570.600517 kJ/mol
# GULP energy per Si atom -12407.720844 kJ/mol
# Density = 2.006008 g / cm^3
# Si number density = 20.105841 Si / 1000 Ang^3
#
#
#
# Elastic Constant Matrix: (Units=GPa)
#
#
# Indices 1 2 3 4 5 6 
#
# 1 115.8983 26.6693 40.0207 0.0000 0.0000 0.0000
# 2 26.6693 59.9213 21.4700 0.0000 0.0000 0.0000
# 3 40.0207 21.4700 81.9286 -0.0001 0.0000 0.0000
# 4 0.0000 0.0000 -0.0001 50.0596 0.0000 0.0000
# 5 0.0000 0.0000 0.0000 0.0000 34.9357 0.0000
# 6 0.0000 0.0000 0.0000 0.0000 0.0000 34.4087
#
#
#
# Elastic Compliance Matrix: (Units=1/GPa)
#
#
# Indices 1 2 3 4 5 6 
#
# 1 0.010926 -0.003256 -0.004484 0.000000 0.000000 0.000000
# 2 -0.003256 0.019388 -0.003490 0.000000 0.000000 0.000000
# 3 -0.004484 -0.003490 0.015311 0.000000 0.000000 0.000000
# 4 0.000000 0.000000 0.000000 0.019976 0.000000 0.000000
# 5 0.000000 0.000000 0.000000 0.000000 0.028624 0.000000
# 6 0.000000 0.000000 0.000000 0.000000 0.000000 0.029062
#
#
# Mechanical properties :
#
#
# Convention : Reuss Voigt Hill
#
# Bulk Modulus (GPa) = 43.16980 48.22980 45.69980
# Shear Modulus (GPa) = 32.57979 35.18668 33.88324
#
# Velocity S-wave (km/s) = 4.02980 4.18793 4.10963
# Velocity P-wave (km/s) = 6.57041 6.88658 6.73035
#
# Compressibility (1/GPa) = 0.02316434
#
# Stress axis : x y z
#
# Youngs Moduli (GPa) = 91.52629 51.57733 65.31411
#
# Poissons Ratio (x) = 0.16795 0.29285
# Poissons Ratio (y) = 0.29803 0.22796
# Poissons Ratio (z) = 0.41038 0.18002
#
# Static dielectric constant tensor:
#      x y z
#    x 3.714680 0.000000 0.000000 
#    y 0.000000 3.622380 0.000000 
#    z 0.000000 0.000000 3.690800 
# 
# 
# High freq. dielectric constant tensor:
#      x y z
#    x 1.797060 0.000000 0.000000 
#    y 0.000000 1.785830 0.000000 
#    z 0.000000 0.000000 1.796620 
# 
# From -- ./inp_files/49055.got.cif
#   From: 2010.03.12/outbox.cif.g09.slc.cpg/sg74_25_cif.got.tgz:49055.got - 2010.04.16 15:46:19.
