data_PCOD8301471
_publ_section_title
;
Structure prediction by ZEFSAII (Michael W. Deem and Ramdas Pophale) SiO2 
 PCOD8301471
Probable space group: I M M A
;
_chemical_formula_sum "Si O2"
_cell_formula_units_Z 96
_cell_length_a 19.048813
_cell_length_b 24.672917
_cell_length_c 11.070013
_cell_angle_alpha 90.000000
_cell_angle_beta 90.000000
_cell_angle_gamma 90.000000
_cell_volume 5202.792998
_symmetry_space_group_name_H-M "I M M A"
_symmetry_group_IT_number 74
_symmetry_cell_setting 'orthorhombic'
loop_
_space_group_symop_operation_xyz
x,y,z
-x,1/2-y,z
x,-y,-z
-x,1/2+y,-z
-x,-y,-z
x,1/2+y,-z
-x,y,z
x,1/2-y,z
1/2+x,1/2+y,1/2+z
1/2-x,-y,1/2+z
1/2+x,1/2-y,1/2-z
1/2-x,y,1/2-z
1/2-x,1/2-y,1/2-z
1/2+x,y,1/2-z
1/2-x,1/2+y,1/2+z
1/2+x,-y,1/2+z
loop_
_atom_site_type_symbol
_atom_site_label
_atom_site_fract_x
_atom_site_fract_y
_atom_site_fract_z
Si Si1 0.419571 0.560608 0.152248
Si Si2 0.325281 0.343288 0.186753
Si Si3 0.418427 0.437156 0.127619
Si Si4 0.226489 0.689152 0.429740
Si Si5 0.921357 0.250000 0.930058
Si Si6 0.084950 0.750000 0.802152
Si Si7 0.853268 0.156564 0.792361
O O1 0.500000 0.575477 0.172266
O O2 0.405231 0.497492 0.177423
O O3 0.377925 0.597148 0.249280
O O4 0.399019 0.570911 0.013262
O O5 0.250000 0.342719 0.250000
O O6 0.364382 0.400631 0.203058
O O7 0.381153 0.301660 0.238720
O O8 0.312271 0.331060 0.047488
O O9 0.500000 0.421152 0.148425
O O10 0.257793 0.750000 0.445708
O O11 0.169283 0.690733 0.324305
O O12 0.289471 0.649128 0.388438
O O13 0.910401 0.194393 0.856290
O O14 0.000000 0.250000 0.971344
O O15 0.884301 0.250000 0.061306
O O16 0.000000 0.750000 0.785831
#
# Coordination Sequence:
#
# PCOD8301471 Si02
#       7
#    16  16  16  16   8   8  16
#     4   9  18  35  60  85 114 152 194 247 305 357
#     4  12  23  38  60  86 117 162 202 245 295 358
#     4   9  19  38  59  84 118 152 198 252 298 352
#     4  11  21  36  55  82 118 153 190 237 296 359
#     4  11  22  35  55  85 115 145 189 239 294 361
#     4  11  25  42  61  84 118 162 203 248 296 356
#     4  11  19  35  56  84 115 152 187 238 304 359
#
# _framework density 18.451627999999999
#
# number of rings (size 3 to 8) (size 9 to 14) (size 15 to 20)
#    0.000    1.500    4.167    3.750    0.000    0.000 
#    3.000    0.833    0.000    3.000    0.000   11.667 
#    0.000    0.000    0.000    0.000    0.000    0.000 
#
# Total GULP energy -594846.967656 kJ/mol
# GULP energy per Si atom -12392.645160 kJ/mol
# Density = 1.840963 g / cm^3
# Si number density = 18.451628 Si / 1000 Ang^3
#
#
#
# Elastic Constant Matrix: (Units=GPa)
#
#
# Indices 1 2 3 4 5 6 
#
# 1 102.0025 59.5063 43.8275 0.0000 0.0000 0.0000
# 2 59.5063 124.3879 42.5790 0.0000 0.0000 0.0000
# 3 43.8275 42.5790 79.2275 0.0000 0.0000 0.0000
# 4 0.0000 0.0000 0.0000 21.7330 0.0000 0.0000
# 5 0.0000 0.0000 0.0000 0.0000 29.3931 0.0000
# 6 0.0000 0.0000 0.0000 0.0000 0.0000 32.1202
#
#
#
# Elastic Compliance Matrix: (Units=1/GPa)
#
#
# Indices 1 2 3 4 5 6 
#
# 1 0.015379 -0.005447 -0.005580 0.000000 0.000000 0.000000
# 2 -0.005447 0.011781 -0.003318 0.000000 0.000000 0.000000
# 3 -0.005580 -0.003318 0.017492 0.000000 0.000000 0.000000
# 4 0.000000 0.000000 0.000000 0.046013 0.000000 0.000000
# 5 0.000000 0.000000 0.000000 0.000000 0.034022 0.000000
# 6 0.000000 0.000000 0.000000 0.000000 0.000000 0.031133
#
#
# Mechanical properties :
#
#
# Convention : Reuss Voigt Hill
#
# Bulk Modulus (GPa) = 62.65129 66.38261 64.51695
# Shear Modulus (GPa) = 26.33926 27.29627 26.81776
#
# Velocity S-wave (km/s) = 3.78229 3.85039 3.81650
# Velocity P-wave (km/s) = 7.28714 7.47142 7.37985
#
# Compressibility (1/GPa) = 0.01596136
#
# Stress axis : x y z
#
# Youngs Moduli (GPa) = 65.02377 84.88185 57.16919
#
# Poissons Ratio (x) = 0.46236 0.31900
# Poissons Ratio (y) = 0.35419 0.18970
# Poissons Ratio (z) = 0.36283 0.28166
#
# Static dielectric constant tensor:
#      x y z
#    x 3.402280 0.000000 0.000000 
#    y 0.000000 3.074020 0.000000 
#    z 0.000000 0.000000 3.403230 
# 
# 
# High freq. dielectric constant tensor:
#      x y z
#    x 1.721150 0.000000 0.000000 
#    y 0.000000 1.709120 0.000000 
#    z 0.000000 0.000000 1.710710 
# 
# From -- ./inp_files/24126.got.cif
#   From: 2010.03.12/outbox.cif.g09.slc.cpg/sg74_13_cif.got.tgz:24126.got - 2010.04.16 15:46:19.
