data_PCOD8301775
_publ_section_title
;
Structure prediction by ZEFSAII (Michael W. Deem and Ramdas Pophale) SiO2 
 PCOD8301775
Probable space group: I M M A
;
_chemical_formula_sum "Si O2"
_cell_formula_units_Z 72
_cell_length_a 9.458892
_cell_length_b 16.997775
_cell_length_c 28.264918
_cell_angle_alpha 90.000000
_cell_angle_beta 90.000000
_cell_angle_gamma 90.000000
_cell_volume 4544.436850
_symmetry_space_group_name_H-M "I M M A"
_symmetry_group_IT_number 74
_symmetry_cell_setting 'orthorhombic'
loop_
_space_group_symop_operation_xyz
x,y,z
-x,1/2-y,z
x,-y,-z
-x,1/2+y,-z
-x,-y,-z
x,1/2+y,-z
-x,y,z
x,1/2-y,z
1/2+x,1/2+y,1/2+z
1/2-x,-y,1/2+z
1/2+x,1/2-y,1/2-z
1/2-x,y,1/2-z
1/2-x,1/2-y,1/2-z
1/2+x,y,1/2-z
1/2-x,1/2+y,1/2+z
1/2+x,-y,1/2+z
loop_
_atom_site_type_symbol
_atom_site_label
_atom_site_fract_x
_atom_site_fract_y
_atom_site_fract_z
Si Si1 0.162269 0.338993 0.538259
Si Si2 0.336746 0.420738 0.797779
Si Si3 0.839892 0.425192 0.033780
Si Si4 0.840774 0.250000 0.704454
Si Si5 0.335192 0.516895 0.104171
O O1 0.188943 0.250000 0.556522
O O2 0.259594 0.354122 0.492325
O O3 0.200948 0.399110 0.580191
O O4 0.000000 0.350604 0.522526
O O5 0.500000 0.431053 0.783889
O O6 0.250000 0.437834 0.750000
O O7 0.309700 0.333285 0.821195
O O8 0.295244 0.479727 0.840118
O O9 0.758156 0.447136 0.082026
O O10 0.000000 0.399578 0.045783
O O11 0.836863 0.500000 0.000000
O O12 0.750000 0.250000 0.750000
O O13 0.000000 0.250000 0.722268
O O14 0.500000 0.496970 0.096980
#
# Coordination Sequence:
#
# PCOD8301775 Si02
#       5
#    16  16  16   8  16
#     4   9  17  28  44  64  84 108 140 176 210 248
#     4   9  17  27  40  57  80 109 141 177 211 243
#     4   9  17  29  43  59  82 110 137 170 213 255
#     4   8  14  24  36  50  72 102 134 168 206 238
#     4   9  17  28  43  61  82 111 145 177 209 247
#
# _framework density 15.843546
#
# number of rings (size 3 to 8) (size 9 to 14) (size 15 to 20)
#    0.000    3.111    0.000    0.667    1.556    4.000 
#    0.000    0.000    0.000    0.000    0.000    0.000 
#    0.000    0.889    0.000    2.889    0.000    3.556 
#
# Total GULP energy -445990.288311 kJ/mol
# GULP energy per Si atom -12388.619120 kJ/mol
# Density = 1.580749 g / cm^3
# Si number density = 15.843546 Si / 1000 Ang^3
#
#
#
# Elastic Constant Matrix: (Units=GPa)
#
#
# Indices 1 2 3 4 5 6 
#
# 1 70.5679 15.0583 43.2682 0.0000 0.0000 0.0000
# 2 15.0583 23.0874 15.4827 0.0000 0.0000 0.0000
# 3 43.2682 15.4827 91.3691 0.0000 0.0000 0.0000
# 4 0.0000 0.0000 0.0000 20.4241 0.0000 0.0000
# 5 0.0000 0.0000 0.0000 0.0000 23.2296 0.0000
# 6 0.0000 0.0000 0.0000 0.0000 0.0000 16.0787
#
#
#
# Elastic Compliance Matrix: (Units=1/GPa)
#
#
# Indices 1 2 3 4 5 6 
#
# 1 0.021204 -0.008006 -0.008685 0.000000 0.000000 0.000000
# 2 -0.008006 0.051889 -0.005002 0.000000 0.000000 0.000000
# 3 -0.008685 -0.005002 0.015905 0.000000 0.000000 0.000000
# 4 0.000000 0.000000 0.000000 0.048962 0.000000 0.000000
# 5 0.000000 0.000000 0.000000 0.000000 0.043049 0.000000
# 6 0.000000 0.000000 0.000000 0.000000 0.000000 0.062194
#
#
# Mechanical properties :
#
#
# Convention : Reuss Voigt Hill
#
# Bulk Modulus (GPa) = 21.92306 36.96031 29.44168
# Shear Modulus (GPa) = 16.56773 19.36081 17.96427
#
# Velocity S-wave (km/s) = 3.23725 3.49950 3.37093
# Velocity P-wave (km/s) = 5.27639 6.30140 5.81154
#
# Compressibility (1/GPa) = 0.04561407
#
# Stress axis : x y z
#
# Youngs Moduli (GPa) = 47.16081 19.27178 62.87409
#
# Poissons Ratio (x) = 0.15429 0.54604
# Poissons Ratio (y) = 0.37756 0.31447
# Poissons Ratio (z) = 0.40958 0.09639
#
# Static dielectric constant tensor:
#      x y z
#    x 3.097920 0.000000 0.000000 
#    y 0.000000 2.657870 0.000000 
#    z 0.000000 0.000000 2.799940 
# 
# 
# High freq. dielectric constant tensor:
#      x y z
#    x 1.611500 0.000000 0.000000 
#    y 0.000000 1.569020 0.000000 
#    z 0.000000 0.000000 1.588720 
# 
# From -- ./inp_files/63827.got.cif
#   From: 2010.03.12/outbox.cif.g09.slc.cpg/sg74_32_cif.got.tgz:63827.got - 2010.04.16 15:46:19.
