data_PCOD8301233
_publ_section_title
;
Structure prediction by ZEFSAII (Michael W. Deem and Ramdas Pophale) SiO2 
 PCOD8301233
Probable space group: I M M A
;
_chemical_formula_sum "Si O2"
_cell_formula_units_Z 80
_cell_length_a 24.865623
_cell_length_b 18.340641
_cell_length_c 8.855799
_cell_angle_alpha 90.000000
_cell_angle_beta 90.000000
_cell_angle_gamma 90.000000
_cell_volume 4038.700105
_symmetry_space_group_name_H-M "I M M A"
_symmetry_group_IT_number 74
_symmetry_cell_setting 'orthorhombic'
loop_
_space_group_symop_operation_xyz
x,y,z
-x,1/2-y,z
x,-y,-z
-x,1/2+y,-z
-x,-y,-z
x,1/2+y,-z
-x,y,z
x,1/2-y,z
1/2+x,1/2+y,1/2+z
1/2-x,-y,1/2+z
1/2+x,1/2-y,1/2-z
1/2-x,y,1/2-z
1/2-x,1/2-y,1/2-z
1/2+x,y,1/2-z
1/2-x,1/2+y,1/2+z
1/2+x,-y,1/2+z
loop_
_atom_site_type_symbol
_atom_site_label
_atom_site_fract_x
_atom_site_fract_y
_atom_site_fract_z
Si Si1 0.939303 0.667365 0.937425
Si Si2 0.374534 0.833475 0.859387
Si Si3 0.395995 0.553738 0.367548
Si Si4 0.807321 0.026254 0.327120
Si Si5 0.940178 0.574780 0.434258
O O1 0.940254 0.750000 0.989864
O O2 0.920931 0.659359 0.764860
O O3 0.000000 0.634423 0.951143
O O4 0.893833 0.630680 0.044747
O O5 0.352903 0.750000 0.872857
O O6 0.326916 0.889738 0.819908
O O7 0.402538 0.857816 0.016531
O O8 0.414478 0.500000 0.500000
O O9 0.342928 0.528365 0.277429
O O10 0.442974 0.564969 0.245244
O O11 0.750000 0.023977 0.250000
O O12 0.804021 0.000000 0.500000
O O13 0.914099 0.500000 0.500000
O O14 0.000000 0.586394 0.497941
#
# Coordination Sequence:
#
# PCOD8301233 Si02
#       5
#    16  16  16  16  16
#     4  10  22  38  59  93 136 175 209 248 306 379
#     4  11  22  42  66  92 130 168 212 260 314 379
#     4  12  21  39  63  94 125 167 210 263 311 365
#     4  12  25  46  70  93 118 157 216 270 328 379
#     4  11  21  36  59  90 128 169 214 254 300 368
#
# _framework density 19.808354000000001
#
# number of rings (size 3 to 8) (size 9 to 14) (size 15 to 20)
#    0.000    0.800    6.000    1.800    0.000    5.600 
#    0.000    0.000    0.000    1.200    0.000    0.000 
#    0.000    0.000    0.000    0.000    0.000    0.000 
#
# Total GULP energy -495629.839433 kJ/mol
# GULP energy per Si atom -12390.745986 kJ/mol
# Density = 1.976327 g / cm^3
# Si number density = 19.808354 Si / 1000 Ang^3
#
#
#
# Elastic Constant Matrix: (Units=GPa)
#
#
# Indices 1 2 3 4 5 6 
#
# 1 99.0072 64.2075 37.5447 0.0000 0.0000 0.0000
# 2 64.2075 125.0958 57.8889 0.0000 0.0000 0.0000
# 3 37.5447 57.8889 132.5467 0.0000 0.0000 0.0000
# 4 0.0000 0.0000 0.0000 35.0010 0.0000 0.0000
# 5 0.0000 0.0000 0.0000 0.0000 30.3827 0.0000
# 6 0.0000 0.0000 0.0000 0.0000 0.0000 16.0355
#
#
#
# Elastic Compliance Matrix: (Units=1/GPa)
#
#
# Indices 1 2 3 4 5 6 
#
# 1 0.015274 -0.007316 -0.001131 0.000000 0.000000 0.000000
# 2 -0.007316 0.013523 -0.003834 0.000000 0.000000 0.000000
# 3 -0.001131 -0.003834 0.009539 0.000000 0.000000 0.000000
# 4 0.000000 0.000000 0.000000 0.028571 0.000000 0.000000
# 5 0.000000 0.000000 0.000000 0.000000 0.032913 0.000000
# 6 0.000000 0.000000 0.000000 0.000000 0.000000 0.062362
#
#
# Mechanical properties :
#
#
# Convention : Reuss Voigt Hill
#
# Bulk Modulus (GPa) = 72.59984 75.10354 73.85169
# Shear Modulus (GPa) = 26.13212 29.41774 27.77493
#
# Velocity S-wave (km/s) = 3.63609 3.85790 3.74864
# Velocity P-wave (km/s) = 7.37284 7.60539 7.49002
#
# Compressibility (1/GPa) = 0.01377413
#
# Stress axis : x y z
#
# Youngs Moduli (GPa) = 65.47154 73.94759 104.82948
#
# Poissons Ratio (x) = 0.54101 0.11858
# Poissons Ratio (y) = 0.47900 0.40189
# Poissons Ratio (z) = 0.07406 0.28350
#
# Static dielectric constant tensor:
#      x y z
#    x 3.408830 0.000000 0.000000 
#    y 0.000000 3.862610 0.000000 
#    z 0.000000 0.000000 3.840560 
# 
# 
# High freq. dielectric constant tensor:
#      x y z
#    x 1.751980 0.000000 0.000000 
#    y 0.000000 1.769280 0.000000 
#    z 0.000000 0.000000 1.788690 
# 
# From -- ./inp_files/14901.got.cif
#   From: 2010.03.12/outbox.cif.g09.slc.cpg/sg74_8_cif.got.tgz:14901.got - 2010.04.16 15:46:19.
