data_PCOD8301490
_publ_section_title
;
Structure prediction by ZEFSAII (Michael W. Deem and Ramdas Pophale) SiO2 
 PCOD8301490
Probable space group: I M M A
;
_chemical_formula_sum "Si O2"
_cell_formula_units_Z 88
_cell_length_a 8.898689
_cell_length_b 28.098192
_cell_length_c 24.273330
_cell_angle_alpha 90.000000
_cell_angle_beta 90.000000
_cell_angle_gamma 90.000000
_cell_volume 6069.232363
_symmetry_space_group_name_H-M "I M M A"
_symmetry_group_IT_number 74
_symmetry_cell_setting 'orthorhombic'
loop_
_space_group_symop_operation_xyz
x,y,z
-x,1/2-y,z
x,-y,-z
-x,1/2+y,-z
-x,-y,-z
x,1/2+y,-z
-x,y,z
x,1/2-y,z
1/2+x,1/2+y,1/2+z
1/2-x,-y,1/2+z
1/2+x,1/2-y,1/2-z
1/2-x,y,1/2-z
1/2-x,1/2-y,1/2-z
1/2+x,y,1/2-z
1/2-x,1/2+y,1/2+z
1/2+x,-y,1/2+z
loop_
_atom_site_type_symbol
_atom_site_label
_atom_site_fract_x
_atom_site_fract_y
_atom_site_fract_z
Si Si1 0.674157 0.302507 0.498322
Si Si2 0.177916 0.327581 0.385828
Si Si3 0.831229 0.921378 0.910892
Si Si4 0.320232 0.750000 0.690138
Si Si5 0.331883 0.987967 0.064232
Si Si6 0.666587 0.101365 0.539614
O O1 0.500000 0.310482 0.479981
O O2 0.696200 0.250000 0.524503
O O3 0.779344 0.306789 0.445308
O O4 0.717194 0.342935 0.543820
O O5 0.229858 0.382419 0.379626
O O6 0.262914 0.297277 0.339997
O O7 0.000000 0.323869 0.377417
O O8 0.000000 0.919881 0.887249
O O9 0.765075 0.974191 0.901019
O O10 0.829516 0.910574 0.975316
O O11 0.500000 0.750000 0.692279
O O12 0.250000 0.750000 0.750000
O O13 0.500000 0.990528 0.086826
O O14 0.273302 0.934051 0.073695
O O15 0.323511 0.000000 0.000000
O O16 0.500000 0.094087 0.563627
#
# Coordination Sequence:
#
# PCOD8301490 Si02
#       6
#    16  16  16   8  16  16
#     4   9  16  26  39  52  69  94 120 147 177 211
#     4  11  20  30  43  60  74  87 109 139 174 215
#     4   9  16  26  39  52  67  89 110 134 166 205
#     4  12  24  38  50  60  74  92 114 142 180 222
#     4   9  15  22  32  48  68  88 109 137 169 203
#     4   8  14  22  32  47  66  90 116 139 168 206
#
# _framework density 14.499362
#
# number of rings (size 3 to 8) (size 9 to 14) (size 15 to 20)
#    0.000    2.545    0.909    4.636    0.000    6.545 
#    0.000    0.000    0.000    0.000    0.000    0.000 
#    0.000    0.000    0.000    0.000    0.000    0.000 
#
# Total GULP energy -545302.713117 kJ/mol
# GULP energy per Si atom -12393.243480 kJ/mol
# Density = 1.446636 g / cm^3
# Si number density = 14.499362 Si / 1000 Ang^3
#
#
#
# Elastic Constant Matrix: (Units=GPa)
#
#
# Indices 1 2 3 4 5 6 
#
# 1 110.7614 54.7817 15.2151 0.0000 0.0000 0.0000
# 2 54.7817 148.2710 21.8376 0.0000 0.0000 0.0000
# 3 15.2151 21.8376 13.9593 0.0000 0.0000 0.0000
# 4 0.0000 0.0000 0.0000 6.1638 0.0000 0.0000
# 5 0.0000 0.0000 0.0000 0.0000 10.9701 0.0000
# 6 0.0000 0.0000 0.0000 0.0000 0.0000 23.9985
#
#
#
# Elastic Compliance Matrix: (Units=1/GPa)
#
#
# Indices 1 2 3 4 5 6 
#
# 1 0.011660 -0.003165 -0.007756 0.000000 0.000000 0.000000
# 2 -0.003165 0.009623 -0.011604 0.000000 0.000000 0.000000
# 3 -0.007756 -0.011604 0.098243 0.000000 0.000000 0.000000
# 4 0.000000 0.000000 0.000000 0.162237 0.000000 0.000000
# 5 0.000000 0.000000 0.000000 0.000000 0.091157 0.000000
# 6 0.000000 0.000000 0.000000 0.000000 0.000000 0.041669
#
#
# Mechanical properties :
#
#
# Convention : Reuss Voigt Hill
#
# Bulk Modulus (GPa) = 13.42736 50.74005 32.08371
# Shear Modulus (GPa) = 10.32067 20.30365 15.31216
#
# Velocity S-wave (km/s) = 2.67086 3.74614 3.25323
# Velocity P-wave (km/s) = 4.33498 7.33362 6.02387
#
# Compressibility (1/GPa) = 0.07447479
#
# Stress axis : x y z
#
# Youngs Moduli (GPa) = 85.76683 103.91816 10.17879
#
# Poissons Ratio (x) = 0.32895 0.07895
# Poissons Ratio (y) = 0.27149 0.11811
# Poissons Ratio (z) = 0.66525 1.20583
#
# Static dielectric constant tensor:
#      x y z
#    x 2.972650 0.000000 0.000000 
#    y 0.000000 3.308500 0.000000 
#    z 0.000000 0.000000 2.161910 
# 
# 
# High freq. dielectric constant tensor:
#      x y z
#    x 1.568810 0.000000 0.000000 
#    y 0.000000 1.576930 0.000000 
#    z 0.000000 0.000000 1.449460 
# 
# From -- ./inp_files/40137.got.cif
#   From: 2010.03.12/outbox.cif.g09.slc.cpg/sg74_21_cif.got.tgz:40137.got - 2010.04.16 15:46:19.
