data_PCOD8301223
_publ_section_title
;
Structure prediction by ZEFSAII (Michael W. Deem and Ramdas Pophale) SiO2 
 PCOD8301223
Probable space group: I M M A
;
_chemical_formula_sum "Si O2"
_cell_formula_units_Z 72
_cell_length_a 10.390572
_cell_length_b 15.888124
_cell_length_c 24.548611
_cell_angle_alpha 90.000000
_cell_angle_beta 90.000000
_cell_angle_gamma 90.000000
_cell_volume 4052.649090
_symmetry_space_group_name_H-M "I M M A"
_symmetry_group_IT_number 74
_symmetry_cell_setting 'orthorhombic'
loop_
_space_group_symop_operation_xyz
x,y,z
-x,1/2-y,z
x,-y,-z
-x,1/2+y,-z
-x,-y,-z
x,1/2+y,-z
-x,y,z
x,1/2-y,z
1/2+x,1/2+y,1/2+z
1/2-x,-y,1/2+z
1/2+x,1/2-y,1/2-z
1/2-x,y,1/2-z
1/2-x,1/2-y,1/2-z
1/2+x,y,1/2-z
1/2-x,1/2+y,1/2+z
1/2+x,-y,1/2+z
loop_
_atom_site_type_symbol
_atom_site_label
_atom_site_fract_x
_atom_site_fract_y
_atom_site_fract_z
Si Si1 0.500000 0.848162 0.785668
Si Si2 0.788125 0.969975 0.442148
Si Si3 0.750000 0.550789 0.750000
Si Si4 0.500000 0.903241 0.908169
Si Si5 0.146688 0.750000 0.203208
Si Si6 0.500000 0.656838 0.024995
Si Si7 0.354598 0.431796 0.660627
O O1 0.500000 0.750000 0.769528
O O2 0.374019 0.890941 0.759609
O O3 0.500000 0.854584 0.851142
O O4 0.873794 0.888032 0.452268
O O5 0.669878 0.949781 0.402838
O O6 0.731494 0.000000 0.500000
O O7 0.873018 0.040483 0.412664
O O8 0.735566 0.489447 0.698204
O O9 0.500000 0.839627 0.959188
O O10 0.250000 0.750000 0.250000
O O11 0.172460 0.667044 0.167879
O O12 0.000000 0.750000 0.226372
O O13 0.500000 0.750000 0.048829
O O14 0.500000 0.455247 0.675403
#
# Coordination Sequence:
#
# PCOD8301223 Si02
#       7
#     8  16   8   8   8   8  16
#     4  12  24  39  60  89 114 147 195 243 286 343
#     4   9  19  35  56  82 110 144 193 230 278 354
#     4  12  23  39  62  84 114 158 192 233 297 346
#     4   9  17  35  58  80 111 144 180 230 289 335
#     4  10  22  38  56  88 122 154 192 241 284 341
#     4   9  18  32  53  86 113 140 179 238 287 334
#     4  11  22  38  59  83 117 154 193 236 287 352
#
# _framework density 17.766158000000001
#
# number of rings (size 3 to 8) (size 9 to 14) (size 15 to 20)
#    0.000    1.778    4.444    2.000    1.556    0.444 
#    4.000    0.000    0.000    0.000    0.000    0.000 
#    0.000    0.000    0.000    0.000    0.000    0.000 
#
# Total GULP energy -446334.974153 kJ/mol
# GULP energy per Si atom -12398.193726 kJ/mol
# Density = 1.772572 g / cm^3
# Si number density = 17.766158 Si / 1000 Ang^3
#
#
#
# Elastic Constant Matrix: (Units=GPa)
#
#
# Indices 1 2 3 4 5 6 
#
# 1 78.5932 45.0517 39.7100 0.0000 0.0000 0.0000
# 2 45.0517 129.6956 41.0671 0.0000 0.0000 0.0000
# 3 39.7100 41.0671 105.9066 0.0000 0.0000 0.0000
# 4 0.0000 0.0000 0.0000 24.2051 0.0000 0.0000
# 5 0.0000 0.0000 0.0000 0.0000 32.1307 0.0000
# 6 0.0000 0.0000 0.0000 0.0000 0.0000 17.0106
#
#
#
# Elastic Compliance Matrix: (Units=1/GPa)
#
#
# Indices 1 2 3 4 5 6 
#
# 1 0.017865 -0.004656 -0.004893 0.000000 0.000000 0.000000
# 2 -0.004656 0.010003 -0.002133 0.000000 0.000000 0.000000
# 3 -0.004893 -0.002133 0.012104 0.000000 0.000000 0.000000
# 4 0.000000 0.000000 0.000000 0.041314 0.000000 0.000000
# 5 0.000000 0.000000 0.000000 0.000000 0.031123 0.000000
# 6 0.000000 0.000000 0.000000 0.000000 0.000000 0.058787
#
#
# Mechanical properties :
#
#
# Convention : Reuss Voigt Hill
#
# Bulk Modulus (GPa) = 60.21327 62.87257 61.54292
# Shear Modulus (GPa) = 24.98797 27.22706 26.10752
#
# Velocity S-wave (km/s) = 3.75439 3.91899 3.83758
# Velocity P-wave (km/s) = 7.26358 7.47956 7.37236
#
# Compressibility (1/GPa) = 0.01660763
#
# Stress axis : x y z
#
# Youngs Moduli (GPa) = 55.97486 99.96769 82.61709
#
# Poissons Ratio (x) = 0.46549 0.40425
# Poissons Ratio (y) = 0.26064 0.17622
# Poissons Ratio (z) = 0.27389 0.21323
#
# Static dielectric constant tensor:
#      x y z
#    x 3.135350 0.000000 0.000000 
#    y 0.000000 2.619960 0.000000 
#    z 0.000000 0.000000 3.225550 
# 
# 
# High freq. dielectric constant tensor:
#      x y z
#    x 1.677020 0.000000 0.000000 
#    y 0.000000 1.691900 0.000000 
#    z 0.000000 0.000000 1.689030 
# 
# From -- ./inp_files/63742.got.cif
#   From: 2010.03.12/outbox.cif.g09.slc.cpg/sg74_32_cif.got.tgz:63742.got - 2010.04.16 15:46:19.
