data_PCOD8301086
_publ_section_title
;
Structure prediction by ZEFSAII (Michael W. Deem and Ramdas Pophale) SiO2 
 PCOD8301086
Probable space group: I M M A
;
_chemical_formula_sum "Si O2"
_cell_formula_units_Z 72
_cell_length_a 10.871680
_cell_length_b 15.630744
_cell_length_c 18.343065
_cell_angle_alpha 90.000000
_cell_angle_beta 90.000000
_cell_angle_gamma 90.000000
_cell_volume 3117.081920
_symmetry_space_group_name_H-M "I M M A"
_symmetry_group_IT_number 74
_symmetry_cell_setting 'orthorhombic'
loop_
_space_group_symop_operation_xyz
x,y,z
-x,1/2-y,z
x,-y,-z
-x,1/2+y,-z
-x,-y,-z
x,1/2+y,-z
-x,y,z
x,1/2-y,z
1/2+x,1/2+y,1/2+z
1/2-x,-y,1/2+z
1/2+x,1/2-y,1/2-z
1/2-x,y,1/2-z
1/2-x,1/2-y,1/2-z
1/2+x,y,1/2-z
1/2-x,1/2+y,1/2+z
1/2+x,-y,1/2+z
loop_
_atom_site_type_symbol
_atom_site_label
_atom_site_fract_x
_atom_site_fract_y
_atom_site_fract_z
Si Si1 0.762385 0.593781 0.421255
Si Si2 0.236800 0.398381 0.411153
Si Si3 0.500000 0.654476 0.591319
Si Si4 0.868394 0.347327 0.714963
Si Si5 0.500000 0.845829 0.419015
Si Si6 0.642340 0.250000 0.188029
O O1 0.773584 0.627985 0.503740
O O2 0.805638 0.496316 0.407467
O O3 0.853768 0.650224 0.372555
O O4 0.621991 0.604957 0.392316
O O5 0.377323 0.393164 0.382095
O O6 0.155287 0.334931 0.362141
O O7 0.500000 0.750000 0.623812
O O8 0.500000 0.656451 0.505165
O O9 0.870170 0.250000 0.741811
O O10 0.750000 0.396158 0.750000
O O11 0.000000 0.389192 0.737898
O O12 0.500000 0.750000 0.386540
O O13 0.500000 0.250000 0.218586
O O14 0.750000 0.250000 0.250000
#
# Coordination Sequence:
#
# PCOD8301086 Si02
#       6
#    16  16   8  16   8   8
#     4  10  21  38  66 103 135 176 225 287 347 400
#     4  10  22  41  67 100 136 172 230 289 345 409
#     4   9  15  31  63  93 130 168 208 265 332 387
#     4  10  23  41  62  90 128 172 214 260 325 400
#     4   9  17  29  57 104 143 175 215 269 340 416
#     4  12  30  50  72 102 137 192 240 293 360 433
#
# _framework density 23.098527000000001
#
# number of rings (size 3 to 8) (size 9 to 14) (size 15 to 20)
#    0.000    2.000    1.111    1.333    6.222    5.333 
#    0.000    2.222    0.000    0.000    0.000    0.000 
#    0.000    0.000    0.000    0.000    0.000    0.000 
#
# Total GULP energy -446032.931515 kJ/mol
# GULP energy per Si atom -12389.803653 kJ/mol
# Density = 2.304595 g / cm^3
# Si number density = 23.098527 Si / 1000 Ang^3
#
#
#
# Elastic Constant Matrix: (Units=GPa)
#
#
# Indices 1 2 3 4 5 6 
#
# 1 174.9071 17.4969 60.6617 0.0000 0.0000 0.0000
# 2 17.4969 73.8767 19.8997 0.0000 0.0000 0.0000
# 3 60.6617 19.8997 69.3768 0.0000 0.0000 0.0000
# 4 0.0000 0.0000 0.0000 21.1033 0.0000 0.0000
# 5 0.0000 0.0000 0.0000 0.0000 30.6648 0.0000
# 6 0.0000 0.0000 0.0000 0.0000 0.0000 26.2739
#
#
#
# Elastic Compliance Matrix: (Units=1/GPa)
#
#
# Indices 1 2 3 4 5 6 
#
# 1 0.008206 -0.000012 -0.007172 0.000000 0.000000 0.000000
# 2 -0.000012 0.014669 -0.004198 0.000000 0.000000 0.000000
# 3 -0.007172 -0.004198 0.021889 0.000000 0.000000 0.000000
# 4 0.000000 0.000000 0.000000 0.047386 0.000000 0.000000
# 5 0.000000 0.000000 0.000000 0.000000 0.032611 0.000000
# 6 0.000000 0.000000 0.000000 0.000000 0.000000 0.038061
#
#
# Mechanical properties :
#
#
# Convention : Reuss Voigt Hill
#
# Bulk Modulus (GPa) = 45.44956 57.14189 51.29572
# Shear Modulus (GPa) = 25.91789 30.28189 28.09989
#
# Velocity S-wave (km/s) = 3.35335 3.62468 3.49165
# Velocity P-wave (km/s) = 5.89172 6.50460 6.20573
#
# Compressibility (1/GPa) = 0.02200241
#
# Stress axis : x y z
#
# Youngs Moduli (GPa) = 121.86565 68.16868 45.68562
#
# Poissons Ratio (x) = 0.00080 0.32764
# Poissons Ratio (y) = 0.00142 0.19177
# Poissons Ratio (z) = 0.87397 0.28614
#
# Static dielectric constant tensor:
#      x y z
#    x 4.602840 0.000000 0.000000 
#    y 0.000000 3.881380 0.000000 
#    z 0.000000 0.000000 4.071220 
# 
# 
# High freq. dielectric constant tensor:
#      x y z
#    x 1.913620 0.000000 0.000000 
#    y 0.000000 1.886160 0.000000 
#    z 0.000000 0.000000 1.904700 
# 
# From -- ./inp_files/40996.got.cif
#   From: 2010.03.12/outbox.cif.g09.slc.cpg/sg74_21_cif.got.tgz:40996.got - 2010.04.16 15:46:19.
