data_PCOD8301885
_publ_section_title
;
Structure prediction by ZEFSAII (Michael W. Deem and Ramdas Pophale) SiO2 
 PCOD8301885
Probable space group: P 41
;
_chemical_formula_sum "Si O2"
_cell_formula_units_Z 28
_cell_length_a 11.648426
_cell_length_b 11.648426
_cell_length_c 9.809950
_cell_angle_alpha 90.000000
_cell_angle_beta 90.000000
_cell_angle_gamma 90.000000
_cell_volume 1331.071191
_symmetry_space_group_name_H-M "P 41"
_symmetry_group_IT_number 76
_symmetry_cell_setting 'tetragonal'
loop_
_space_group_symop_operation_xyz
x,y,z
-y,x,1/4+z
-x,-y,1/2+z
y,-x,3/4+z
loop_
_atom_site_type_symbol
_atom_site_label
_atom_site_fract_x
_atom_site_fract_y
_atom_site_fract_z
Si Si1 0.692449 0.023446 0.426800
Si Si2 0.074336 0.395470 0.466896
Si Si3 0.594983 0.553334 0.469593
Si Si4 0.604049 0.790298 0.320126
Si Si5 0.926706 0.931841 0.340977
Si Si6 0.544955 0.144993 0.212952
Si Si7 0.160740 0.290456 0.730287
O O1 0.636184 0.897637 0.415790
O O2 0.827973 0.010293 0.407287
O O3 0.665677 0.082590 0.571402
O O4 0.648999 0.109017 0.310663
O O5 0.170646 0.496168 0.477053
O O6 0.102601 0.300861 0.582329
O O7 0.943992 0.441157 0.485524
O O8 0.527327 0.535424 0.608810
O O9 0.579571 0.685212 0.421615
O O10 0.724856 0.511692 0.499146
O O11 0.706763 0.751767 0.217788
O O12 0.901972 0.797147 0.331891
O O13 0.035557 0.952219 0.435425
O O14 0.586499 0.146484 0.054786
#
# Coordination Sequence:
#
# PCOD8301885 Si02
#       7
#     4   4   4   4   4   4   4
#     4  10  21  39  64  93 121 158 215 266 312 376
#     4  11  21  37  69 100 121 161 226 268 306 384
#     4  11  23  40  63  87 128 174 211 259 330 391
#     4   9  20  40  65  88 125 171 204 262 326 382
#     4  11  24  42  63  89 131 172 208 259 327 382
#     4  10  20  42  62  90 126 169 213 261 320 385
#     4  10  21  40  64  93 128 165 209 261 327 378
#
# _framework density 21.035688
#
# number of rings (size 3 to 8) (size 9 to 14) (size 15 to 20)
#    0.000    1.714    1.429    4.286    2.000    1.143 
#    0.000    1.429    0.000    0.000    0.000    0.000 
#    0.000    0.000    0.000    0.000    0.000    0.000 
#
# Total GULP energy -347165.675873 kJ/mol
# GULP energy per Si atom -12398.774138 kJ/mol
# Density = 2.098781 g / cm^3
# Si number density = 21.035688 Si / 1000 Ang^3
#
#
#
# Elastic Constant Matrix: (Units=GPa)
#
#
# Indices 1 2 3 4 5 6 
#
# 1 62.3386 34.2316 35.7225 0.0000 0.0000 9.4709
# 2 34.2316 62.3386 35.7225 0.0000 0.0000 -9.4709
# 3 35.7225 35.7225 104.5027 0.0000 0.0000 0.0000
# 4 0.0000 0.0000 0.0000 30.6822 0.0000 0.0000
# 5 0.0000 0.0000 0.0000 0.0000 30.6822 0.0000
# 6 9.4709 -9.4709 0.0000 0.0000 0.0000 18.1101
#
#
#
# Elastic Compliance Matrix: (Units=1/GPa)
#
#
# Indices 1 2 3 4 5 6 
#
# 1 0.034401 -0.020541 -0.004738 0.000000 0.000000 -0.028733
# 2 -0.020541 0.034401 -0.004738 0.000000 0.000000 0.028733
# 3 -0.004738 -0.004738 0.012808 0.000000 0.000000 0.000000
# 4 0.000000 0.000000 0.000000 0.032592 0.000000 0.000000
# 5 0.000000 0.000000 0.000000 0.000000 0.032592 0.000000
# 6 -0.028733 0.028733 0.000000 0.000000 0.000000 0.085270
#
#
# Mechanical properties :
#
#
# Convention : Reuss Voigt Hill
#
# Bulk Modulus (GPa) = 46.34489 48.94809 47.64649
# Shear Modulus (GPa) = 16.70618 24.12848 20.41733
#
# Velocity S-wave (km/s) = 2.82118 3.39045 3.11883
# Velocity P-wave (km/s) = 5.71765 6.21663 5.97235
#
# Compressibility (1/GPa) = 0.02157735
#
# Stress axis : x y z
#
# Youngs Moduli (GPa) = 29.06883 29.06883 78.07436
#
# Poissons Ratio (x) = 0.59709 0.36991
# Poissons Ratio (y) = 0.59709 0.36991
# Poissons Ratio (z) = 0.13773 0.13773
#
# Static dielectric constant tensor:
#      x y z
#    x 3.782810 0.000000 0.000000 
#    y 0.000000 3.782810 0.000000 
#    z 0.000000 0.000000 3.612210 
# 
# 
# High freq. dielectric constant tensor:
#      x y z
#    x 1.820260 0.000000 0.000000 
#    y 0.000000 1.820260 0.000000 
#    z 0.000000 0.000000 1.817930 
# 
# From -- ./inp_files/632.got.cif
#   From: 2010.03.12/outbox.cif.g09.slc.cpg/sg76_cif.got.tgz:632.got - 2010.04.16 16:34:25.
