data_PCOD8301218
_publ_section_title
;
Structure prediction by ZEFSAII (Michael W. Deem and Ramdas Pophale) SiO2 
 PCOD8301218
Probable space group: I M M A
;
_chemical_formula_sum "Si O2"
_cell_formula_units_Z 80
_cell_length_a 9.922344
_cell_length_b 14.302580
_cell_length_c 28.506930
_cell_angle_alpha 90.000000
_cell_angle_beta 90.000000
_cell_angle_gamma 90.000000
_cell_volume 4045.564359
_symmetry_space_group_name_H-M "I M M A"
_symmetry_group_IT_number 74
_symmetry_cell_setting 'orthorhombic'
loop_
_space_group_symop_operation_xyz
x,y,z
-x,1/2-y,z
x,-y,-z
-x,1/2+y,-z
-x,-y,-z
x,1/2+y,-z
-x,y,z
x,1/2-y,z
1/2+x,1/2+y,1/2+z
1/2-x,-y,1/2+z
1/2+x,1/2-y,1/2-z
1/2-x,y,1/2-z
1/2-x,1/2-y,1/2-z
1/2+x,y,1/2-z
1/2-x,1/2+y,1/2+z
1/2+x,-y,1/2+z
loop_
_atom_site_type_symbol
_atom_site_label
_atom_site_fract_x
_atom_site_fract_y
_atom_site_fract_z
Si Si1 0.848382 0.638995 0.533537
Si Si2 0.653876 0.144159 0.650639
Si Si3 0.150829 0.639152 0.429736
Si Si4 0.154149 0.031158 0.207609
Si Si5 0.654525 0.859690 0.614299
O O1 0.835338 0.750000 0.531780
O O2 0.814374 0.598553 0.481531
O O3 0.746037 0.598323 0.572287
O O4 0.000000 0.609457 0.547744
O O5 0.500000 0.139794 0.633070
O O6 0.695635 0.250000 0.664447
O O7 0.743501 0.102035 0.608493
O O8 0.673992 0.078781 0.695965
O O9 0.160286 0.750000 0.431938
O O10 0.000000 0.608169 0.415047
O O11 0.250000 0.060701 0.250000
O O12 0.196379 0.091611 0.162633
O O13 0.000000 0.052009 0.222096
O O14 0.500000 0.882153 0.601596
O O15 0.679436 0.750000 0.620789
#
# Coordination Sequence:
#
# PCOD8301218 Si02
#       5
#    16  16  16  16  16
#     4   8  14  26  46  73 103 132 162 196 233 277
#     4   9  18  33  52  73  98 128 161 197 238 285
#     4   8  14  26  46  73 103 132 162 196 233 277
#     4  10  22  38  53  72  97 123 158 205 249 290
#     4   9  18  33  52  73  98 128 161 197 238 285
#
# _framework density 19.774743999999998
#
# number of rings (size 3 to 8) (size 9 to 14) (size 15 to 20)
#    0.000    3.200    0.000    1.200    0.000    3.200 
#    0.000    5.000    0.000    6.000    0.000    0.000 
#    0.000    0.000    0.000    0.000    0.000    0.000 
#
# Total GULP energy -495863.463456 kJ/mol
# GULP energy per Si atom -12396.586586 kJ/mol
# Density = 1.972974 g / cm^3
# Si number density = 19.774744 Si / 1000 Ang^3
#
#
#
# Elastic Constant Matrix: (Units=GPa)
#
#
# Indices 1 2 3 4 5 6 
#
# 1 93.6482 -2.4302 64.9189 0.0000 0.0000 0.0000
# 2 -2.4302 10.9803 -6.7300 0.0000 0.0000 0.0000
# 3 64.9189 -6.7300 94.0039 0.0000 0.0000 0.0000
# 4 0.0000 0.0000 0.0000 6.5589 0.0000 0.0000
# 5 0.0000 0.0000 0.0000 0.0000 45.5419 0.0000
# 6 0.0000 0.0000 0.0000 0.0000 0.0000 12.3322
#
#
#
# Elastic Compliance Matrix: (Units=1/GPa)
#
#
# Indices 1 2 3 4 5 6 
#
# 1 0.020684 -0.004369 -0.014597 0.000000 0.000000 0.000000
# 2 -0.004369 0.096175 0.009903 0.000000 0.000000 0.000000
# 3 -0.014597 0.009903 0.021427 0.000000 0.000000 0.000000
# 4 0.000000 0.000000 0.000000 0.152464 0.000000 0.000000
# 5 0.000000 0.000000 0.000000 0.000000 0.021958 0.000000
# 6 0.000000 0.000000 0.000000 0.000000 0.000000 0.081088
#
#
# Mechanical properties :
#
#
# Convention : Reuss Voigt Hill
#
# Bulk Modulus (GPa) = 8.32229 34.46109 21.39169
# Shear Modulus (GPa) = 11.06255 22.41154 16.73705
#
# Velocity S-wave (km/s) = 2.36779 3.37017 2.91243
# Velocity P-wave (km/s) = 3.41949 5.71040 4.70646
#
# Compressibility (1/GPa) = 0.12015926
#
# Stress axis : x y z
#
# Youngs Moduli (GPa) = 48.34704 10.39776 46.66917
#
# Poissons Ratio (x) = 0.04543 0.68123
# Poissons Ratio (y) = 0.21122 -0.46214
# Poissons Ratio (z) = 0.70572 -0.10296
#
# Static dielectric constant tensor:
#      x y z
#    x 3.698460 0.000000 0.000000 
#    y 0.000000 3.488750 0.000000 
#    z 0.000000 0.000000 3.602810 
# 
# 
# High freq. dielectric constant tensor:
#      x y z
#    x 1.766220 0.000000 0.000000 
#    y 0.000000 1.768080 0.000000 
#    z 0.000000 0.000000 1.755170 
# 
# From -- ./inp_files/14912.got.cif
#   From: 2010.03.12/outbox.cif.g09.slc.cpg/sg74_8_cif.got.tgz:14912.got - 2010.04.16 15:46:19.
