data_PCOD8301867
_publ_section_title
;
Structure prediction by ZEFSAII (Michael W. Deem and Ramdas Pophale) SiO2 
 PCOD8301867
Probable space group: P 41
;
_chemical_formula_sum "Si O2"
_cell_formula_units_Z 32
_cell_length_a 11.846003
_cell_length_b 11.846003
_cell_length_c 11.190438
_cell_angle_alpha 90.000000
_cell_angle_beta 90.000000
_cell_angle_gamma 90.000000
_cell_volume 1570.329401
_symmetry_space_group_name_H-M "P 41"
_symmetry_group_IT_number 76
_symmetry_cell_setting 'tetragonal'
loop_
_space_group_symop_operation_xyz
x,y,z
-y,x,1/4+z
-x,-y,1/2+z
y,-x,3/4+z
loop_
_atom_site_type_symbol
_atom_site_label
_atom_site_fract_x
_atom_site_fract_y
_atom_site_fract_z
Si Si1 0.692972 0.075145 0.181360
Si Si2 0.302493 0.720761 0.514635
Si Si3 0.641234 0.751288 0.712866
Si Si4 0.226426 0.553824 0.704259
Si Si5 0.999607 0.538307 0.234804
Si Si6 0.050554 0.747779 0.102880
Si Si7 0.177543 0.130642 0.597675
Si Si8 0.430092 0.797606 0.881575
O O1 0.733916 0.180775 0.104822
O O2 0.658850 0.120682 0.311976
O O3 0.580141 0.022399 0.120272
O O4 0.795855 0.984066 0.174584
O O5 0.279069 0.603974 0.583520
O O6 0.430887 0.721314 0.473506
O O7 0.226796 0.740972 0.399201
O O8 0.625729 0.747875 0.571033
O O9 0.717255 0.862153 0.745646
O O10 0.523307 0.745026 0.788209
O O11 0.710404 0.633406 0.720540
O O12 0.090679 0.554838 0.694401
O O13 0.978273 0.638412 0.139354
O O14 0.126318 0.494454 0.227896
O O15 0.128228 0.780916 0.212932
O O16 0.956998 0.845855 0.085231
#
# Coordination Sequence:
#
# PCOD8301867 Si02
#       8
#     4   4   4   4   4   4   4   4
#     4  10  19  38  63  89 122 169 209 264 316 391
#     4  11  21  38  69  95 126 176 220 262 330 388
#     4  11  22  40  67  93 134 167 220 272 326 390
#     4  11  19  39  67  94 127 172 217 268 318 401
#     4   9  19  37  62  89 116 173 214 256 326 382
#     4  10  23  40  63  90 134 170 210 280 319 387
#     4  11  20  44  62  91 131 168 216 270 331 373
#     4  11  21  40  65  95 128 169 216 270 330 392
#
# _framework density 20.377889
#
# number of rings (size 3 to 8) (size 9 to 14) (size 15 to 20)
#    0.000    1.500    7.500    0.750    0.000    1.000 
#    2.250    2.500   27.500    0.000    0.000    0.000 
#    0.000    0.000    0.000    0.000    0.000    0.000 
#
# Total GULP energy -396420.374616 kJ/mol
# GULP energy per Si atom -12388.136707 kJ/mol
# Density = 2.033151 g / cm^3
# Si number density = 20.377889 Si / 1000 Ang^3
#
#
#
# Elastic Constant Matrix: (Units=GPa)
#
#
# Indices 1 2 3 4 5 6 
#
# 1 91.3955 53.6921 20.6261 0.0000 0.0000 -1.7850
# 2 53.6921 91.3955 20.6261 0.0000 0.0000 1.7850
# 3 20.6261 20.6261 49.7366 0.0000 0.0000 0.0000
# 4 0.0000 0.0000 0.0000 27.5271 0.0000 0.0000
# 5 0.0000 0.0000 0.0000 0.0000 27.5271 0.0000
# 6 -1.7850 1.7850 0.0000 0.0000 0.0000 38.5302
#
#
#
# Elastic Compliance Matrix: (Units=1/GPa)
#
#
# Indices 1 2 3 4 5 6 
#
# 1 0.017227 -0.009413 -0.003240 0.000000 0.000000 0.001234
# 2 -0.009413 0.017227 -0.003240 0.000000 0.000000 -0.001234
# 3 -0.003240 -0.003240 0.022794 0.000000 0.000000 0.000000
# 4 0.000000 0.000000 0.000000 0.036328 0.000000 0.000000
# 5 0.000000 0.000000 0.000000 0.000000 0.036328 0.000000
# 6 0.001234 -0.001234 0.000000 0.000000 0.000000 0.026068
#
#
# Mechanical properties :
#
#
# Convention : Reuss Voigt Hill
#
# Bulk Modulus (GPa) = 39.27823 46.93512 43.10667
# Shear Modulus (GPa) = 25.47838 27.88908 26.68373
#
# Velocity S-wave (km/s) = 3.53979 3.70347 3.62255
# Velocity P-wave (km/s) = 6.00196 6.43195 6.22067
#
# Compressibility (1/GPa) = 0.02545940
#
# Stress axis : x y z
#
# Youngs Moduli (GPa) = 58.04938 58.04938 43.87207
#
# Poissons Ratio (x) = 0.54642 0.14216
# Poissons Ratio (y) = 0.54642 0.14216
# Poissons Ratio (z) = 0.18810 0.18810
#
# Static dielectric constant tensor:
#      x y z
#    x 3.834320 0.000000 0.000000 
#    y 0.000000 3.834320 0.000000 
#    z 0.000000 0.000000 3.575820 
# 
# 
# High freq. dielectric constant tensor:
#      x y z
#    x 1.793840 0.000000 0.000000 
#    y 0.000000 1.793840 0.000000 
#    z 0.000000 0.000000 1.781490 
# 
# From -- ./inp_files/939.got.cif
#   From: 2010.03.12/outbox.cif.g09.slc.cpg/sg76_cif.got.tgz:939.got - 2010.04.16 16:34:25.
