data_PCOD8301594
_publ_section_title
;
Structure prediction by ZEFSAII (Michael W. Deem and Ramdas Pophale) SiO2 
 PCOD8301594
Probable space group: I M M A
;
_chemical_formula_sum "Si O2"
_cell_formula_units_Z 96
_cell_length_a 13.611591
_cell_length_b 15.229000
_cell_length_c 20.888968
_cell_angle_alpha 90.000000
_cell_angle_beta 90.000000
_cell_angle_gamma 90.000000
_cell_volume 4330.093381
_symmetry_space_group_name_H-M "I M M A"
_symmetry_group_IT_number 74
_symmetry_cell_setting 'orthorhombic'
loop_
_space_group_symop_operation_xyz
x,y,z
-x,1/2-y,z
x,-y,-z
-x,1/2+y,-z
-x,-y,-z
x,1/2+y,-z
-x,y,z
x,1/2-y,z
1/2+x,1/2+y,1/2+z
1/2-x,-y,1/2+z
1/2+x,1/2-y,1/2-z
1/2-x,y,1/2-z
1/2-x,1/2-y,1/2-z
1/2+x,y,1/2-z
1/2-x,1/2+y,1/2+z
1/2+x,-y,1/2+z
loop_
_atom_site_type_symbol
_atom_site_label
_atom_site_fract_x
_atom_site_fract_y
_atom_site_fract_z
Si Si1 0.385534 0.028446 0.839204
Si Si2 0.617050 0.152973 0.212384
Si Si3 0.744004 0.348543 0.597042
Si Si4 0.388244 0.598556 0.653062
Si Si5 0.890293 0.404914 0.799950
Si Si6 0.390470 0.352634 0.482943
O O1 0.500000 0.028097 0.855002
O O2 0.332486 0.081727 0.895531
O O3 0.360798 0.079670 0.773574
O O4 0.344582 0.927295 0.832782
O O5 0.500000 0.137194 0.219307
O O6 0.640474 0.250000 0.183871
O O7 0.662434 0.145401 0.284773
O O8 0.783752 0.250000 0.581666
O O9 0.682376 0.339660 0.663262
O O10 0.678090 0.388498 0.539807
O O11 0.500000 0.632538 0.649217
O O12 0.382305 0.495087 0.661207
O O13 0.339242 0.625540 0.585538
O O14 0.000000 0.366105 0.803195
O O15 0.500000 0.395199 0.488666
O O16 0.399642 0.250000 0.492462
#
# Coordination Sequence:
#
# PCOD8301594 Si02
#       6
#    16  16  16  16  16  16
#     4   9  19  34  50  71 100 133 174 221 260 302
#     4   8  13  25  50  80 105 130 159 199 261 328
#     4  11  22  33  46  67 101 145 185 220 256 293
#     4   8  14  26  47  76 107 134 157 192 255 329
#     4   9  18  32  50  73  99 129 169 215 263 316
#     4   9  17  29  47  75 109 141 174 210 250 307
#
# _framework density 22.170423
#
# number of rings (size 3 to 8) (size 9 to 14) (size 15 to 20)
#    0.000    3.000    0.000    3.500    0.000    5.333 
#    0.000    4.167    0.000    9.000    0.000    3.500 
#    0.000    6.000    0.000    4.000    0.000    0.000 
#
# Total GULP energy -594891.855512 kJ/mol
# GULP energy per Si atom -12393.580323 kJ/mol
# Density = 2.211996 g / cm^3
# Si number density = 22.170423 Si / 1000 Ang^3
#
#
#
# Elastic Constant Matrix: (Units=GPa)
#
#
# Indices 1 2 3 4 5 6 
#
# 1 47.4737 36.7180 44.3177 0.0000 0.0000 0.0000
# 2 36.7180 96.9500 44.0188 0.0000 0.0000 0.0000
# 3 44.3177 44.0188 99.6529 0.0000 0.0000 0.0000
# 4 0.0000 0.0000 0.0000 26.4287 0.0000 0.0000
# 5 0.0000 0.0000 0.0000 0.0000 36.6510 0.0000
# 6 0.0000 0.0000 0.0000 0.0000 0.0000 27.0880
#
#
#
# Elastic Compliance Matrix: (Units=1/GPa)
#
#
# Indices 1 2 3 4 5 6 
#
# 1 0.041713 -0.009226 -0.014475 0.000000 0.000000 0.000000
# 2 -0.009226 0.014943 -0.002498 0.000000 0.000000 0.000000
# 3 -0.014475 -0.002498 0.017576 0.000000 0.000000 0.000000
# 4 0.000000 0.000000 0.000000 0.037838 0.000000 0.000000
# 5 0.000000 0.000000 0.000000 0.000000 0.027284 0.000000
# 6 0.000000 0.000000 0.000000 0.000000 0.000000 0.036917
#
#
# Mechanical properties :
#
#
# Convention : Reuss Voigt Hill
#
# Bulk Modulus (GPa) = 45.80068 54.90951 50.35509
# Shear Modulus (GPa) = 21.19135 25.96835 23.57985
#
# Velocity S-wave (km/s) = 3.09502 3.42615 3.26478
# Velocity P-wave (km/s) = 5.78580 6.36177 6.08061
#
# Compressibility (1/GPa) = 0.02183374
#
# Stress axis : x y z
#
# Youngs Moduli (GPa) = 23.97339 66.92256 56.89690
#
# Poissons Ratio (x) = 0.61740 0.82361
# Poissons Ratio (y) = 0.22117 0.14211
# Poissons Ratio (z) = 0.34703 0.16715
#
# Static dielectric constant tensor:
#      x y z
#    x 3.895440 0.000000 0.000000 
#    y 0.000000 3.825450 0.000000 
#    z 0.000000 0.000000 3.803840 
# 
# 
# High freq. dielectric constant tensor:
#      x y z
#    x 1.857080 0.000000 0.000000 
#    y 0.000000 1.865770 0.000000 
#    z 0.000000 0.000000 1.843320 
# 
# From -- ./inp_files/51861.got.cif
#   From: 2010.03.12/outbox.cif.g09.slc.cpg/sg74_26_cif.got.tgz:51861.got - 2010.04.16 15:46:19.
