data_PCOD8301075
_publ_section_title
;
Structure prediction by ZEFSAII (Michael W. Deem and Ramdas Pophale) SiO2 
 PCOD8301075
Probable space group: I M M A
;
_chemical_formula_sum "Si O2"
_cell_formula_units_Z 96
_cell_length_a 14.853713
_cell_length_b 20.445237
_cell_length_c 14.553845
_cell_angle_alpha 90.000000
_cell_angle_beta 90.000000
_cell_angle_gamma 90.000000
_cell_volume 4419.823461
_symmetry_space_group_name_H-M "I M M A"
_symmetry_group_IT_number 74
_symmetry_cell_setting 'orthorhombic'
loop_
_space_group_symop_operation_xyz
x,y,z
-x,1/2-y,z
x,-y,-z
-x,1/2+y,-z
-x,-y,-z
x,1/2+y,-z
-x,y,z
x,1/2-y,z
1/2+x,1/2+y,1/2+z
1/2-x,-y,1/2+z
1/2+x,1/2-y,1/2-z
1/2-x,y,1/2-z
1/2-x,1/2-y,1/2-z
1/2+x,y,1/2-z
1/2-x,1/2+y,1/2+z
1/2+x,-y,1/2+z
loop_
_atom_site_type_symbol
_atom_site_label
_atom_site_fract_x
_atom_site_fract_y
_atom_site_fract_z
Si Si1 0.102246 0.940544 0.816841
Si Si2 0.394868 0.825359 0.812163
Si Si3 0.344302 0.578440 0.288454
Si Si4 0.603818 0.113766 0.508621
Si Si5 0.401314 0.676030 0.149329
Si Si6 0.285400 0.175537 0.015416
O O1 0.131144 0.870257 0.775145
O O2 0.000000 0.954405 0.792202
O O3 0.152340 0.000907 0.767276
O O4 0.115087 0.939395 0.927302
O O5 0.500000 0.831776 0.838779
O O6 0.371312 0.750000 0.786875
O O7 0.332595 0.854307 0.894087
O O8 0.250000 0.605203 0.250000
O O9 0.366839 0.582060 0.396042
O O10 0.411876 0.626775 0.235571
O O11 0.500000 0.140330 0.510500
O O12 0.676997 0.170065 0.486226
O O13 0.500000 0.678941 0.102781
O O14 0.373462 0.750000 0.181552
O O15 0.330056 0.645180 0.076636
O O16 0.315553 0.250000 0.014742
#
# Coordination Sequence:
#
# PCOD8301075 Si02
#       6
#    16  16  16  16  16  16
#     4  10  23  42  65  93 128 169 213 257 310 377
#     4   9  19  39  67  97 129 164 206 261 319 373
#     4  12  24  41  65  93 123 164 212 262 316 373
#     4  11  24  42  62  88 127 172 211 254 310 372
#     4  10  21  40  66  93 123 161 206 259 320 378
#     4  10  21  38  62  94 130 167 208 257 313 374
#
# _framework density 21.720324999999999
#
# number of rings (size 3 to 8) (size 9 to 14) (size 15 to 20)
#    0.000    1.667    1.667    2.500    2.333    5.333 
#    0.000    4.167    0.000    3.000    0.000    0.000 
#    0.000    0.000    0.000    0.000    0.000    0.000 
#
# Total GULP energy -594741.349735 kJ/mol
# GULP energy per Si atom -12390.444786 kJ/mol
# Density = 2.167089 g / cm^3
# Si number density = 21.720325 Si / 1000 Ang^3
#
#
#
# Elastic Constant Matrix: (Units=GPa)
#
#
# Indices 1 2 3 4 5 6 
#
# 1 122.1882 33.6462 51.7634 0.0001 0.0000 0.0000
# 2 33.6462 86.0643 57.2648 0.0000 0.0000 0.0000
# 3 51.7634 57.2648 133.3669 0.0001 0.0000 0.0000
# 4 0.0001 0.0000 0.0001 23.4752 0.0000 0.0000
# 5 0.0000 0.0000 0.0000 0.0000 31.2562 0.0000
# 6 0.0000 0.0000 0.0000 0.0000 0.0000 26.7676
#
#
#
# Elastic Compliance Matrix: (Units=1/GPa)
#
#
# Indices 1 2 3 4 5 6 
#
# 1 0.010002 -0.001858 -0.003084 0.000000 0.000000 0.000000
# 2 -0.001858 0.016612 -0.006411 0.000000 0.000000 0.000000
# 3 -0.003084 -0.006411 0.011448 0.000000 0.000000 0.000000
# 4 0.000000 0.000000 0.000000 0.042598 0.000000 0.000000
# 5 0.000000 0.000000 0.000000 0.000000 0.031994 0.000000
# 6 0.000000 0.000000 0.000000 0.000000 0.000000 0.037359
#
#
# Mechanical properties :
#
#
# Convention : Reuss Voigt Hill
#
# Bulk Modulus (GPa) = 65.12832 69.66313 67.39573
# Shear Modulus (GPa) = 28.11536 29.56280 28.83908
#
# Velocity S-wave (km/s) = 3.60172 3.69327 3.64778
# Velocity P-wave (km/s) = 6.88088 7.09432 6.98842
#
# Compressibility (1/GPa) = 0.01535430
#
# Stress axis : x y z
#
# Youngs Moduli (GPa) = 99.97596 60.19871 87.34998
#
# Poissons Ratio (x) = 0.11185 0.26942
# Poissons Ratio (y) = 0.18576 0.56004
# Poissons Ratio (z) = 0.30836 0.38596
#
# Static dielectric constant tensor:
#      x y z
#    x 3.978890 0.000000 0.000000 
#    y 0.000000 3.650640 0.000000 
#    z 0.000000 0.000000 4.006070 
# 
# 
# High freq. dielectric constant tensor:
#      x y z
#    x 1.864690 0.000000 0.000000 
#    y 0.000000 1.830920 0.000000 
#    z 0.000000 0.000000 1.853040 
# 
# From -- ./inp_files/32339.got.cif
#   From: 2010.03.12/outbox.cif.g09.slc.cpg/sg74_17_cif.got.tgz:32339.got - 2010.04.16 15:46:19.
