data_PCOD8301787
_publ_section_title
;
Structure prediction by ZEFSAII (Michael W. Deem and Ramdas Pophale) SiO2 
 PCOD8301787
Probable space group: I M M A
;
_chemical_formula_sum "Si O2"
_cell_formula_units_Z 56
_cell_length_a 35.173851
_cell_length_b 9.588602
_cell_length_c 9.994282
_cell_angle_alpha 90.000000
_cell_angle_beta 90.000000
_cell_angle_gamma 90.000000
_cell_volume 3370.752082
_symmetry_space_group_name_H-M "I M M A"
_symmetry_group_IT_number 74
_symmetry_cell_setting 'orthorhombic'
loop_
_space_group_symop_operation_xyz
x,y,z
-x,1/2-y,z
x,-y,-z
-x,1/2+y,-z
-x,-y,-z
x,1/2+y,-z
-x,y,z
x,1/2-y,z
1/2+x,1/2+y,1/2+z
1/2-x,-y,1/2+z
1/2+x,1/2-y,1/2-z
1/2-x,y,1/2-z
1/2-x,1/2-y,1/2-z
1/2+x,y,1/2-z
1/2-x,1/2+y,1/2+z
1/2+x,-y,1/2+z
loop_
_atom_site_type_symbol
_atom_site_label
_atom_site_fract_x
_atom_site_fract_y
_atom_site_fract_z
Si Si1 0.224483 0.411091 0.873301
Si Si2 0.082590 0.412168 0.635402
Si Si3 0.363203 0.911901 0.371647
Si Si4 0.000000 0.406693 0.627104
O O1 0.231715 0.250000 0.907587
O O2 0.250000 0.460946 0.750000
O O3 0.180706 0.439666 0.836866
O O4 0.237612 0.500000 0.000000
O O5 0.087968 0.500000 0.500000
O O6 0.089534 0.250000 0.600200
O O7 0.112724 0.464475 0.744666
O O8 0.040221 0.434432 0.702414
O O9 0.371144 0.750000 0.402644
O O10 0.376087 0.000000 0.500000
O O11 0.000000 0.500000 0.500000
O O12 0.000000 0.250000 0.573230
#
# Coordination Sequence:
#
# PCOD8301787 Si02
#       4
#    16  16  16   8
#     4   9  18  32  48  66  89 116 146 180 217 258
#     4   9  17  29  46  67  89 114 146 182 218 257
#     4   9  18  32  47  64  89 119 147 177 216 260
#     4   8  14  26  43  62  86 114 142 176 217 256
#
# _framework density 16.613503999999999
#
# number of rings (size 3 to 8) (size 9 to 14) (size 15 to 20)
#    0.000    3.143    0.000    0.000    0.000    2.857 
#    0.000    0.714    0.000    0.000    0.000    0.000 
#    0.000    0.000    0.000    0.000    0.000    0.000 
#
# Total GULP energy -346984.708377 kJ/mol
# GULP energy per Si atom -12392.311013 kJ/mol
# Density = 1.657569 g / cm^3
# Si number density = 16.613504 Si / 1000 Ang^3
#
#
#
# Elastic Constant Matrix: (Units=GPa)
#
#
# Indices 1 2 3 4 5 6 
#
# 1 101.6652 44.2966 87.0246 0.0000 0.0000 0.0000
# 2 44.2966 52.7894 57.8015 0.0000 0.0000 0.0000
# 3 87.0246 57.8015 133.9849 0.0000 0.0000 0.0000
# 4 0.0000 0.0000 0.0000 31.3404 0.0000 0.0000
# 5 0.0000 0.0000 0.0000 0.0000 28.7935 0.0000
# 6 0.0000 0.0000 0.0000 0.0000 0.0000 18.8529
#
#
#
# Elastic Compliance Matrix: (Units=1/GPa)
#
#
# Indices 1 2 3 4 5 6 
#
# 1 0.022986 -0.005574 -0.012525 0.000000 0.000000 0.000000
# 2 -0.005574 0.037253 -0.012451 0.000000 0.000000 0.000000
# 3 -0.012525 -0.012451 0.020970 0.000000 0.000000 0.000000
# 4 0.000000 0.000000 0.000000 0.031908 0.000000 0.000000
# 5 0.000000 0.000000 0.000000 0.000000 0.034730 0.000000
# 6 0.000000 0.000000 0.000000 0.000000 0.000000 0.053042
#
#
# Mechanical properties :
#
#
# Convention : Reuss Voigt Hill
#
# Bulk Modulus (GPa) = 49.72688 74.07609 61.90148
# Shear Modulus (GPa) = 18.60855 22.41848 20.51352
#
# Velocity S-wave (km/s) = 3.35040 3.67742 3.51771
# Velocity P-wave (km/s) = 6.70548 7.91934 7.33755
#
# Compressibility (1/GPa) = 0.02010985
#
# Stress axis : x y z
#
# Youngs Moduli (GPa) = 43.50418 26.84312 47.68644
#
# Poissons Ratio (x) = 0.14961 0.59729
# Poissons Ratio (y) = 0.24248 0.59375
# Poissons Ratio (z) = 0.54490 0.33423
#
# Static dielectric constant tensor:
#      x y z
#    x 3.690720 0.000000 0.000000 
#    y 0.000000 3.127000 0.000000 
#    z 0.000000 0.000000 2.747120 
# 
# 
# High freq. dielectric constant tensor:
#      x y z
#    x 1.653660 0.000000 0.000000 
#    y 0.000000 1.640970 0.000000 
#    z 0.000000 0.000000 1.613070 
# 
# From -- ./inp_files/7101.got.cif
#   From: 2010.03.12/outbox.cif.g09.slc.cpg/sg74_4_cif.got.tgz:7101.got - 2010.04.16 15:46:19.
