data_PCOD8301975
_publ_section_title
;
Structure prediction by ZEFSAII (Michael W. Deem and Ramdas Pophale) SiO2 
 PCOD8301975
Probable space group: P 41
;
_chemical_formula_sum "Si O2"
_cell_formula_units_Z 28
_cell_length_a 14.085115
_cell_length_b 14.085115
_cell_length_c 6.781126
_cell_angle_alpha 90.000000
_cell_angle_beta 90.000000
_cell_angle_gamma 90.000000
_cell_volume 1345.310737
_symmetry_space_group_name_H-M "P 41"
_symmetry_group_IT_number 76
_symmetry_cell_setting 'tetragonal'
loop_
_space_group_symop_operation_xyz
x,y,z
-y,x,1/4+z
-x,-y,1/2+z
y,-x,3/4+z
loop_
_atom_site_type_symbol
_atom_site_label
_atom_site_fract_x
_atom_site_fract_y
_atom_site_fract_z
Si Si1 0.665768 0.247396 0.820000
Si Si2 0.406868 0.923092 0.109699
Si Si3 0.066022 0.605711 0.186397
Si Si4 0.505502 0.366160 0.011517
Si Si5 0.751902 0.350728 0.483318
Si Si6 0.271938 0.012544 0.797521
Si Si7 0.189738 0.205973 0.930121
O O1 0.647547 0.175165 0.640026
O O2 0.566441 0.284892 0.905082
O O3 0.719681 0.331726 0.708288
O O4 0.733129 0.199562 0.981661
O O5 0.409828 0.966688 0.328464
O O6 0.513199 0.899526 0.049523
O O7 0.358158 0.987251 0.942835
O O8 0.054976 0.690764 0.341642
O O9 0.137682 0.624960 0.006184
O O10 0.439911 0.423117 0.860884
O O11 0.439048 0.311520 0.165251
O O12 0.745808 0.263480 0.331390
O O13 0.207897 0.094223 0.895974
O O14 0.210735 0.917682 0.760501
#
# Coordination Sequence:
#
# PCOD8301975 Si02
#       7
#     4   4   4   4   4   4   4
#     4  12  27  45  70 102 144 189 233 290 353 414
#     4  12  26  41  71 107 142 181 236 296 357 420
#     4  12  26  41  71 107 142 181 236 296 357 420
#     4  12  28  46  68 102 146 196 242 280 340 428
#     4  12  27  45  70 102 144 189 233 290 353 414
#     4  12  26  48  72 104 144 182 238 296 360 438
#     4  12  26  50  72 106 138 188 236 296 364 432
#
# _framework density 20.813036
#
# number of rings (size 3 to 8) (size 9 to 14) (size 15 to 20)
#    0.000    0.000    8.571    0.857   10.000    0.000 
#    0.000    2.857    0.000    0.000    0.000    0.000 
#    0.000    0.000    0.000    0.000    0.000    0.000 
#
# Total GULP energy -347260.373386 kJ/mol
# GULP energy per Si atom -12402.156192 kJ/mol
# Density = 2.076566 g / cm^3
# Si number density = 20.813036 Si / 1000 Ang^3
#
#
#
# Elastic Constant Matrix: (Units=GPa)
#
#
# Indices 1 2 3 4 5 6 
#
# 1 96.2026 31.5542 20.6539 0.0000 0.0000 -1.2789
# 2 31.5542 96.2026 20.6539 0.0000 0.0000 1.2789
# 3 20.6539 20.6539 74.8376 0.0000 0.0000 0.0000
# 4 0.0000 0.0000 0.0000 41.4319 0.0000 0.0000
# 5 0.0000 0.0000 0.0000 0.0000 41.4319 0.0000
# 6 -1.2789 1.2789 0.0000 0.0000 0.0000 32.7720
#
#
#
# Elastic Compliance Matrix: (Units=1/GPa)
#
#
# Indices 1 2 3 4 5 6 
#
# 1 0.012043 -0.003449 -0.002372 0.000000 0.000000 0.000605
# 2 -0.003449 0.012043 -0.002372 0.000000 0.000000 -0.000605
# 3 -0.002372 -0.002372 0.014671 0.000000 0.000000 0.000000
# 4 0.000000 0.000000 0.000000 0.024136 0.000000 0.000000
# 5 0.000000 0.000000 0.000000 0.000000 0.024136 0.000000
# 6 0.000605 -0.000605 0.000000 0.000000 0.000000 0.030561
#
#
# Mechanical properties :
#
#
# Convention : Reuss Voigt Hill
#
# Bulk Modulus (GPa) = 44.69771 45.88521 45.29146
# Shear Modulus (GPa) = 35.35221 36.08588 35.71904
#
# Velocity S-wave (km/s) = 4.12583 4.16842 4.14718
# Velocity P-wave (km/s) = 6.64974 6.72770 6.68883
#
# Compressibility (1/GPa) = 0.02237251
#
# Stress axis : x y z
#
# Youngs Moduli (GPa) = 83.03416 83.03416 68.15948
#
# Poissons Ratio (x) = 0.28638 0.16167
# Poissons Ratio (y) = 0.28638 0.16167
# Poissons Ratio (z) = 0.19695 0.19695
#
# Static dielectric constant tensor:
#      x y z
#    x 3.744960 0.000000 0.000000 
#    y 0.000000 3.744960 0.000000 
#    z 0.000000 0.000000 3.827150 
# 
# 
# High freq. dielectric constant tensor:
#      x y z
#    x 1.818340 0.000000 0.000000 
#    y 0.000000 1.818340 0.000000 
#    z 0.000000 0.000000 1.830550 
# 
# From -- ./inp_files/252.got.cif
#   From: 2010.03.12/outbox.cif.g09.slc.cpg/sg76_cif.got.tgz:252.got - 2010.04.16 16:34:25.
