data_PCOD8301496
_publ_section_title
;
Structure prediction by ZEFSAII (Michael W. Deem and Ramdas Pophale) SiO2 
 PCOD8301496
Probable space group: I M M A
;
_chemical_formula_sum "Si O2"
_cell_formula_units_Z 64
_cell_length_a 19.523831
_cell_length_b 10.411256
_cell_length_c 19.356062
_cell_angle_alpha 90.000000
_cell_angle_beta 90.000000
_cell_angle_gamma 90.000000
_cell_volume 3934.460319
_symmetry_space_group_name_H-M "I M M A"
_symmetry_group_IT_number 74
_symmetry_cell_setting 'orthorhombic'
loop_
_space_group_symop_operation_xyz
x,y,z
-x,1/2-y,z
x,-y,-z
-x,1/2+y,-z
-x,-y,-z
x,1/2+y,-z
-x,y,z
x,1/2-y,z
1/2+x,1/2+y,1/2+z
1/2-x,-y,1/2+z
1/2+x,1/2-y,1/2-z
1/2-x,y,1/2-z
1/2-x,1/2-y,1/2-z
1/2+x,y,1/2-z
1/2-x,1/2+y,1/2+z
1/2+x,-y,1/2+z
loop_
_atom_site_type_symbol
_atom_site_label
_atom_site_fract_x
_atom_site_fract_y
_atom_site_fract_z
Si Si1 0.203908 0.000000 0.500000
Si Si2 0.639599 0.599628 0.749315
Si Si3 0.500000 0.988120 0.794804
Si Si4 0.000000 0.750000 0.375358
Si Si5 0.749571 0.900633 0.638401
Si Si6 0.000000 0.750000 0.603221
Si Si7 0.887205 0.750000 0.489191
O O1 0.251371 0.979992 0.567260
O O2 0.157767 0.876525 0.488204
O O3 0.623827 0.750000 0.752024
O O4 0.567949 0.524100 0.747960
O O5 0.680785 0.563889 0.679958
O O6 0.684202 0.560512 0.816269
O O7 0.500000 0.878709 0.852630
O O8 0.500000 0.126526 0.827910
O O9 0.932589 0.750000 0.421273
O O10 0.752148 0.750000 0.621744
O O11 0.931706 0.750000 0.558310
#
# Coordination Sequence:
#
# PCOD8301496 Si02
#       7
#     8  16   8   4  16   4   8
#     4  12  20  33  52  73 104 142 174 204 256 306
#     4   9  17  32  54  76  97 130 179 221 248 289
#     4  12  20  33  54  75 100 137 172 211 261 301
#     4  11  24  32  42  74 116 139 158 198 260 319
#     4   9  18  32  51  76 103 131 171 219 255 294
#     4  11  20  32  50  74 100 135 184 206 232 301
#     4  11  22  32  46  72 108 143 168 200 242 311
#
# _framework density 16.266525000000001
#
# number of rings (size 3 to 8) (size 9 to 14) (size 15 to 20)
#    0.000    1.750    2.500    6.000    0.000    2.000 
#    0.000    1.250    0.000    5.250    0.000    0.000 
#    0.000    0.000    0.000    0.000    0.000    0.000 
#
# Total GULP energy -396833.694793 kJ/mol
# GULP energy per Si atom -12401.052962 kJ/mol
# Density = 1.622950 g / cm^3
# Si number density = 16.266525 Si / 1000 Ang^3
#
#
#
# Elastic Constant Matrix: (Units=GPa)
#
#
# Indices 1 2 3 4 5 6 
#
# 1 120.5887 49.7062 66.5690 0.0000 0.0000 0.0000
# 2 49.7062 100.9427 51.4297 0.0000 0.0000 0.0000
# 3 66.5690 51.4297 122.1553 0.0000 0.0000 0.0000
# 4 0.0000 0.0000 0.0000 27.5407 0.0000 0.0000
# 5 0.0000 0.0000 0.0000 0.0000-1310.6216 0.0000
# 6 0.0000 0.0000 0.0000 0.0000 0.0000 14.6595
#
#
#
# Elastic Compliance Matrix: (Units=1/GPa)
#
#
# Indices 1 2 3 4 5 6 
#
# 1 0.012758 -0.003488 -0.005484 0.000000 0.000000 0.000000
# 2 -0.003488 0.013566 -0.003810 0.000000 0.000000 0.000000
# 3 -0.005484 -0.003810 0.012779 0.000000 0.000000 0.000000
# 4 0.000000 0.000000 0.000000 0.036310 0.000000 0.000000
# 5 0.000000 0.000000 0.000000 0.000000 -0.000763 0.000000
# 6 0.000000 0.000000 0.000000 0.000000 0.000000 0.068215
#
#
# Mechanical properties :
#
#
# Convention : Reuss Voigt Hill
#
# Bulk Modulus (GPa) = 73.86914 75.45516 74.66215
# Shear Modulus (GPa) = 28.91145 -241.95217 -106.52036
#
# Velocity S-wave (km/s) = 4.22045 -12.20923 -8.10102
# Velocity P-wave (km/s) = 8.32225 12.33962 6.44230
#
# Compressibility (1/GPa) = 0.01353745
#
# Stress axis : x y z
#
# Youngs Moduli (GPa) = 78.38412 73.71533 78.25351
#
# Poissons Ratio (x) = 0.25713 0.42912
# Poissons Ratio (y) = 0.27342 0.29818
# Poissons Ratio (z) = 0.42984 0.28089
#
# Static dielectric constant tensor:
#      x y z
#    x 3.168410 0.000000 0.000000 
#    y 0.000000 2.896520 0.000000 
#    z 0.000000 0.000000 3.111140 
# 
# 
# High freq. dielectric constant tensor:
#      x y z
#    x 1.620750 0.000000 0.000000 
#    y 0.000000 1.615060 0.000000 
#    z 0.000000 0.000000 1.616230 
# 
# From -- ./inp_files/43698.got.cif
#   From: 2010.03.12/outbox.cif.g09.slc.cpg/sg74_22_cif.got.tgz:43698.got - 2010.04.16 15:46:19.
