data_PCOD8301937
_publ_section_title
;
Structure prediction by ZEFSAII (Michael W. Deem and Ramdas Pophale) SiO2 
 PCOD8301937
Probable space group: P 41
;
_chemical_formula_sum "Si O2"
_cell_formula_units_Z 32
_cell_length_a 8.842056
_cell_length_b 8.842056
_cell_length_c 19.678153
_cell_angle_alpha 90.000000
_cell_angle_beta 90.000000
_cell_angle_gamma 90.000000
_cell_volume 1538.476459
_symmetry_space_group_name_H-M "P 41"
_symmetry_group_IT_number 76
_symmetry_cell_setting 'tetragonal'
loop_
_space_group_symop_operation_xyz
x,y,z
-y,x,1/4+z
-x,-y,1/2+z
y,-x,3/4+z
loop_
_atom_site_type_symbol
_atom_site_label
_atom_site_fract_x
_atom_site_fract_y
_atom_site_fract_z
Si Si1 0.122861 0.369212 0.986240
Si Si2 0.870566 0.993011 0.650522
Si Si3 0.377304 0.947320 0.584393
Si Si4 0.198326 0.386400 0.356967
Si Si5 0.502123 0.486853 0.144223
Si Si6 0.912183 0.947830 0.271945
Si Si7 0.762182 0.319120 0.475145
Si Si8 0.305225 0.547455 0.765233
O O1 0.140866 0.353401 0.904898
O O2 0.118188 0.550680 0.002095
O O3 0.271395 0.300654 0.021777
O O4 0.979338 0.269736 0.012740
O O5 0.734003 0.112611 0.654412
O O6 0.009178 0.035974 0.699157
O O7 0.800126 0.834985 0.674050
O O8 0.932271 0.981489 0.574276
O O9 0.218125 0.952900 0.547123
O O10 0.492226 0.860181 0.535028
O O11 0.454438 0.109479 0.598213
O O12 0.352879 0.420823 0.394986
O O13 0.224312 0.307654 0.285460
O O14 0.399911 0.370721 0.185268
O O15 0.525709 0.429476 0.067004
O O16 0.657222 0.502707 0.187717
#
# Coordination Sequence:
#
# PCOD8301937 Si02
#       8
#     4   4   4   4   4   4   4   4
#     4  11  22  46  70  97 136 182 233 289 337 424
#     4  12  25  44  69  97 141 184 231 282 350 427
#     4  12  26  44  65 103 144 183 226 293 355 417
#     4  12  25  43  69 104 145 176 226 294 351 420
#     4  11  22  40  71 100 134 170 233 288 338 410
#     4  12  27  44  67 101 141 184 234 284 355 415
#     4  11  23  44  71 100 131 185 235 282 347 420
#     4  11  22  43  70  98 130 184 238 278 345 417
#
# _framework density 20.799800000000001
#
# number of rings (size 3 to 8) (size 9 to 14) (size 15 to 20)
#    0.000    0.500    8.750    1.500    3.500    0.000 
#    0.000    1.250    0.000    0.000    0.000    0.000 
#    0.000    0.000    0.000    0.000    0.000    0.000 
#
# Total GULP energy -396724.884460 kJ/mol
# GULP energy per Si atom -12397.652639 kJ/mol
# Density = 2.075246 g / cm^3
# Si number density = 20.799800 Si / 1000 Ang^3
#
#
#
# Elastic Constant Matrix: (Units=GPa)
#
#
# Indices 1 2 3 4 5 6 
#
# 1 80.6838 29.6647 23.5581 0.0000 0.0000 3.3996
# 2 29.6647 80.6838 23.5581 0.0000 0.0000 -3.3996
# 3 23.5581 23.5581 75.6129 0.0000 0.0000 0.0000
# 4 0.0000 0.0000 0.0000 33.2082 0.0000 0.0000
# 5 0.0000 0.0000 0.0000 0.0000 33.2082 0.0000
# 6 3.3996 -3.3996 0.0000 0.0000 0.0000 27.4946
#
#
#
# Elastic Compliance Matrix: (Units=1/GPa)
#
#
# Indices 1 2 3 4 5 6 
#
# 1 0.015191 -0.004738 -0.003257 0.000000 0.000000 -0.002464
# 2 -0.004738 0.015191 -0.003257 0.000000 0.000000 0.002464
# 3 -0.003257 -0.003257 0.015255 0.000000 0.000000 0.000000
# 4 0.000000 0.000000 0.000000 0.030113 0.000000 0.000000
# 5 0.000000 0.000000 0.000000 0.000000 0.030113 0.000000
# 6 -0.002464 0.002464 0.000000 0.000000 0.000000 0.036980
#
#
# Mechanical properties :
#
#
# Convention : Reuss Voigt Hill
#
# Bulk Modulus (GPa) = 43.22771 43.39361 43.31066
# Shear Modulus (GPa) = 28.89231 29.46216 29.17724
#
# Velocity S-wave (km/s) = 3.73106 3.76768 3.74941
# Velocity P-wave (km/s) = 6.27606 6.31150 6.29380
#
# Compressibility (1/GPa) = 0.02313331
#
# Stress axis : x y z
#
# Youngs Moduli (GPa) = 65.82929 65.82929 65.55416
#
# Poissons Ratio (x) = 0.31190 0.21349
# Poissons Ratio (y) = 0.31190 0.21349
# Poissons Ratio (z) = 0.21438 0.21438
#
# Static dielectric constant tensor:
#      x y z
#    x 3.844980 0.000000 0.000000 
#    y 0.000000 3.844980 0.000000 
#    z 0.000000 0.000000 3.968570 
# 
# 
# High freq. dielectric constant tensor:
#      x y z
#    x 1.810600 0.000000 0.000000 
#    y 0.000000 1.810600 0.000000 
#    z 0.000000 0.000000 1.819270 
# 
# From -- ./inp_files/1454.got.cif
#   From: 2010.03.12/outbox.cif.g09.slc.cpg/sg76_cif.got.tgz:1454.got - 2010.04.16 16:34:25.
