data_PCOD8301901
_publ_section_title
;
Structure prediction by ZEFSAII (Michael W. Deem and Ramdas Pophale) SiO2 
 PCOD8301901
Probable space group: P 41
;
_chemical_formula_sum "Si O2"
_cell_formula_units_Z 28
_cell_length_a 11.250696
_cell_length_b 11.250696
_cell_length_c 8.414319
_cell_angle_alpha 90.000000
_cell_angle_beta 90.000000
_cell_angle_gamma 90.000000
_cell_volume 1065.069021
_symmetry_space_group_name_H-M "P 41"
_symmetry_group_IT_number 76
_symmetry_cell_setting 'tetragonal'
loop_
_space_group_symop_operation_xyz
x,y,z
-y,x,1/4+z
-x,-y,1/2+z
y,-x,3/4+z
loop_
_atom_site_type_symbol
_atom_site_label
_atom_site_fract_x
_atom_site_fract_y
_atom_site_fract_z
Si Si1 0.393467 0.996603 0.588130
Si Si2 0.233364 0.470430 0.983085
Si Si3 0.289710 0.105154 0.899330
Si Si4 0.957836 0.861207 0.256695
Si Si5 0.594976 0.676710 0.298413
Si Si6 0.331378 0.326945 0.465550
Si Si7 0.627046 0.118959 0.518391
O O1 0.475384 0.879105 0.613122
O O2 0.278847 0.985626 0.468959
O O3 0.340138 0.027740 0.756382
O O4 0.484258 0.095229 0.523066
O O5 0.343132 0.441106 0.866191
O O6 0.269982 0.590291 0.075873
O O7 0.203567 0.364954 0.111497
O O8 0.153591 0.143257 0.878381
O O9 0.377813 0.218222 0.926436
O O10 0.298338 0.003622 0.034912
O O11 0.068434 0.926043 0.345319
O O12 0.463103 0.635528 0.257801
O O13 0.655057 0.735090 0.137710
O O14 0.193777 0.323433 0.416601
#
# Coordination Sequence:
#
# PCOD8301901 Si02
#       7
#     4   4   4   4   4   4   4
#     4  10  21  45  75 101 148 194 247 305 386 446
#     4  11  26  45  74 108 152 201 247 325 384 462
#     4  10  22  46  71 102 149 193 244 310 377 454
#     4  10  22  46  73 108 144 191 251 312 378 455
#     4  12  27  45  76 106 156 205 249 320 394 454
#     4  12  27  46  70 116 155 194 271 305 390 475
#     4  11  25  47  73 111 146 198 261 313 377 476
#
# _framework density 26.289375
#
# number of rings (size 3 to 8) (size 9 to 14) (size 15 to 20)
#    0.000    1.143    4.286    0.000    6.000    0.000 
#    7.714    0.000    0.000    0.000    0.000    0.000 
#    0.000    0.000    0.000    0.000    0.000    0.000 
#
# Total GULP energy -346909.692062 kJ/mol
# GULP energy per Si atom -12389.631859 kJ/mol
# Density = 2.622954 g / cm^3
# Si number density = 26.289375 Si / 1000 Ang^3
#
#
#
# Elastic Constant Matrix: (Units=GPa)
#
#
# Indices 1 2 3 4 5 6 
#
# 1 94.4900 40.3181 14.1264 0.0000 0.0000 4.7595
# 2 40.3181 94.4900 14.1264 0.0000 0.0000 -4.7595
# 3 14.1264 14.1264 54.7912 0.0000 0.0000 0.0000
# 4 0.0000 0.0000 0.0000 30.0153 0.0000 0.0000
# 5 0.0000 0.0000 0.0000 0.0000 30.0153 0.0000
# 6 4.7595 -4.7595 0.0000 0.0000 0.0000 44.9927
#
#
#
# Elastic Compliance Matrix: (Units=1/GPa)
#
#
# Indices 1 2 3 4 5 6 
#
# 1 0.013326 -0.005484 -0.002022 0.000000 0.000000 -0.001990
# 2 -0.005484 0.013326 -0.002022 0.000000 0.000000 0.001990
# 3 -0.002022 -0.002022 0.019294 0.000000 0.000000 0.000000
# 4 0.000000 0.000000 0.000000 0.033316 0.000000 0.000000
# 5 0.000000 0.000000 0.000000 0.000000 0.033316 0.000000
# 6 -0.001990 0.001990 0.000000 0.000000 0.000000 0.022647
#
#
# Mechanical properties :
#
#
# Convention : Reuss Voigt Hill
#
# Bulk Modulus (GPa) = 37.18862 42.32363 39.75612
# Shear Modulus (GPa) = 30.62933 32.68468 31.65700
#
# Velocity S-wave (km/s) = 3.41704 3.52982 3.47389
# Velocity P-wave (km/s) = 5.45388 5.72250 5.58980
#
# Compressibility (1/GPa) = 0.02688995
#
# Stress axis : x y z
#
# Youngs Moduli (GPa) = 75.04391 75.04391 51.83060
#
# Poissons Ratio (x) = 0.41153 0.10479
# Poissons Ratio (y) = 0.41153 0.10479
# Poissons Ratio (z) = 0.15172 0.15172
#
# Static dielectric constant tensor:
#      x y z
#    x 4.844520 0.000000 0.000000 
#    y 0.000000 4.844520 0.000000 
#    z 0.000000 0.000000 4.691070 
# 
# 
# High freq. dielectric constant tensor:
#      x y z
#    x 2.057490 0.000000 0.000000 
#    y 0.000000 2.057490 0.000000 
#    z 0.000000 0.000000 2.038050 
# 
# From -- ./inp_files/603.got.cif
#   From: 2010.03.12/outbox.cif.g09.slc.cpg/sg76_cif.got.tgz:603.got - 2010.04.16 16:34:25.
