data_PCOD8301913
_publ_section_title
;
Structure prediction by ZEFSAII (Michael W. Deem and Ramdas Pophale) SiO2 
 PCOD8301913
Probable space group: P 41
;
_chemical_formula_sum "Si O2"
_cell_formula_units_Z 28
_cell_length_a 12.701307
_cell_length_b 12.701307
_cell_length_c 7.472424
_cell_angle_alpha 90.000000
_cell_angle_beta 90.000000
_cell_angle_gamma 90.000000
_cell_volume 1205.475348
_symmetry_space_group_name_H-M "P 41"
_symmetry_group_IT_number 76
_symmetry_cell_setting 'tetragonal'
loop_
_space_group_symop_operation_xyz
x,y,z
-y,x,1/4+z
-x,-y,1/2+z
y,-x,3/4+z
loop_
_atom_site_type_symbol
_atom_site_label
_atom_site_fract_x
_atom_site_fract_y
_atom_site_fract_z
Si Si1 0.490514 0.223875 0.489050
Si Si2 0.070453 0.482327 0.563726
Si Si3 0.695121 0.900193 0.899974
Si Si4 0.898299 0.084856 0.491791
Si Si5 0.794142 0.607682 0.369249
Si Si6 0.288213 0.984086 0.745392
Si Si7 0.424335 0.395999 0.742853
O O1 0.526774 0.129747 0.622914
O O2 0.370693 0.206152 0.425589
O O3 0.560109 0.232413 0.313098
O O4 0.492200 0.333286 0.596019
O O5 0.151014 0.475701 0.731651
O O6 0.988099 0.385350 0.569305
O O7 0.011461 0.595666 0.578431
O O8 0.793590 0.868150 0.777192
O O9 0.742089 0.933133 0.092457
O O10 0.806871 0.023565 0.384028
O O11 0.015213 0.086861 0.415372
O O12 0.870774 0.705707 0.398854
O O13 0.688507 0.656609 0.284334
O O14 0.486214 0.402325 0.927725
#
# Coordination Sequence:
#
# PCOD8301913 Si02
#       7
#     4   4   4   4   4   4   4
#     4  11  24  43  73 108 136 184 240 294 356 411
#     4  10  22  48  74 106 142 172 250 308 340 402
#     4  10  24  44  76 104 137 181 238 304 347 414
#     4  12  28  44  68 102 148 194 230 284 362 440
#     4  11  24  43  73 108 136 184 240 294 356 411
#     4  10  24  44  76 104 137 181 238 304 347 414
#     4  12  26  46  66 100 152 194 224 282 348 442
#
# _framework density 23.227353999999998
#
# number of rings (size 3 to 8) (size 9 to 14) (size 15 to 20)
#    0.000    1.143    2.857    1.714    4.000    6.857 
#    0.000    0.000    0.000    0.000    0.000    0.000 
#    0.000    0.000    0.000    0.000    0.000    0.000 
#
# Total GULP energy -347064.126758 kJ/mol
# GULP energy per Si atom -12395.147384 kJ/mol
# Density = 2.317449 g / cm^3
# Si number density = 23.227354 Si / 1000 Ang^3
#
#
#
# Elastic Constant Matrix: (Units=GPa)
#
#
# Indices 1 2 3 4 5 6 
#
# 1 64.7641 -10.0495 5.4775 0.0000 0.0000 -4.4716
# 2 -10.0495 64.7641 5.4775 0.0000 0.0000 4.4716
# 3 5.4775 5.4775 83.3643 0.0000 0.0000 0.0000
# 4 0.0000 0.0000 0.0000 39.9054 0.0000 0.0000
# 5 0.0000 0.0000 0.0000 0.0000 39.9054 0.0000
# 6 -4.4716 4.4716 0.0000 0.0000 0.0000 19.1574
#
#
#
# Elastic Compliance Matrix: (Units=1/GPa)
#
#
# Indices 1 2 3 4 5 6 
#
# 1 0.016135 0.002385 -0.001217 0.000000 0.000000 0.003210
# 2 0.002385 0.016135 -0.001217 0.000000 0.000000 -0.003210
# 3 -0.001217 -0.001217 0.012155 0.000000 0.000000 0.000000
# 4 0.000000 0.000000 0.000000 0.025059 0.000000 0.000000
# 5 0.000000 0.000000 0.000000 0.000000 0.025059 0.000000
# 6 0.003210 -0.003210 0.000000 0.000000 0.000000 0.053697
#
#
# Mechanical properties :
#
#
# Convention : Reuss Voigt Hill
#
# Bulk Modulus (GPa) = 22.55883 23.85594 23.20739
# Shear Modulus (GPa) = 30.65313 33.92611 32.28962
#
# Velocity S-wave (km/s) = 3.63671 3.82594 3.73252
# Velocity P-wave (km/s) = 5.23139 5.45985 5.34684
#
# Compressibility (1/GPa) = 0.04432853
#
# Stress axis : x y z
#
# Youngs Moduli (GPa) = 61.97602 61.97602 82.26761
#
# Poissons Ratio (x) = -0.14782 0.10011
# Poissons Ratio (y) = -0.14782 0.10011
# Poissons Ratio (z) = 0.07542 0.07542
#
# Static dielectric constant tensor:
#      x y z
#    x 4.128710 0.000000 0.000000 
#    y 0.000000 4.128710 0.000000 
#    z 0.000000 0.000000 4.312320 
# 
# 
# High freq. dielectric constant tensor:
#      x y z
#    x 1.912720 0.000000 0.000000 
#    y 0.000000 1.912720 0.000000 
#    z 0.000000 0.000000 1.928070 
# 
# From -- ./inp_files/584.got.cif
#   From: 2010.03.12/outbox.cif.g09.slc.cpg/sg76_cif.got.tgz:584.got - 2010.04.16 16:34:25.
