data_PCOD8301640
_publ_section_title
;
Structure prediction by ZEFSAII (Michael W. Deem and Ramdas Pophale) SiO2 
 PCOD8301640
Probable space group: I M M A
;
_chemical_formula_sum "Si O2"
_cell_formula_units_Z 96
_cell_length_a 20.770606
_cell_length_b 14.582908
_cell_length_c 14.571114
_cell_angle_alpha 90.000000
_cell_angle_beta 90.000000
_cell_angle_gamma 90.000000
_cell_volume 4413.529762
_symmetry_space_group_name_H-M "I M M A"
_symmetry_group_IT_number 74
_symmetry_cell_setting 'orthorhombic'
loop_
_space_group_symop_operation_xyz
x,y,z
-x,1/2-y,z
x,-y,-z
-x,1/2+y,-z
-x,-y,-z
x,1/2+y,-z
-x,y,z
x,1/2-y,z
1/2+x,1/2+y,1/2+z
1/2-x,-y,1/2+z
1/2+x,1/2-y,1/2-z
1/2-x,y,1/2-z
1/2-x,1/2-y,1/2-z
1/2+x,y,1/2-z
1/2-x,1/2+y,1/2+z
1/2+x,-y,1/2+z
loop_
_atom_site_type_symbol
_atom_site_label
_atom_site_fract_x
_atom_site_fract_y
_atom_site_fract_z
Si Si1 0.387572 0.005922 0.220792
Si Si2 0.194084 0.105865 0.012227
Si Si3 0.186322 0.349251 0.808468
Si Si4 0.568792 0.405945 0.949374
Si Si5 0.071095 0.145889 0.134443
Si Si6 0.827531 0.349858 0.411010
O O1 0.430177 0.077886 0.277770
O O2 0.340612 0.066992 0.158041
O O3 0.353935 0.941383 0.295032
O O4 0.423592 0.931174 0.157831
O O5 0.125228 0.121026 0.060322
O O6 0.251602 0.147718 0.071617
O O7 0.198469 0.157913 0.916310
O O8 0.208548 0.000000 0.000000
O O9 0.154951 0.250000 0.779802
O O10 0.250000 0.363001 0.750000
O O11 0.500000 0.351598 0.959908
O O12 0.560496 0.500000 0.000000
O O13 0.629857 0.354683 0.994646
O O14 0.082138 0.250000 0.169271
O O15 0.000000 0.137093 0.088455
O O16 0.842709 0.250000 0.366872
#
# Coordination Sequence:
#
# PCOD8301640 Si02
#       6
#    16  16  16  16  16  16
#     4  11  22  40  63  96 133 171 217 268 331 394
#     4  12  23  44  68  93 127 171 221 272 328 394
#     4  11  23  40  63  93 130 171 218 272 330 388
#     4   9  19  37  60  88 126 170 216 261 315 387
#     4  11  25  44  67  96 132 174 220 274 336 401
#     4  11  23  39  65  98 134 174 218 271 332 396
#
# _framework density 21.751298999999999
#
# number of rings (size 3 to 8) (size 9 to 14) (size 15 to 20)
#    0.000    1.167    1.667    6.000    0.000    3.333 
#    0.000    1.667    0.000    2.500    0.000    0.000 
#    0.000    0.000    0.000    0.000    0.000    0.000 
#
# Total GULP energy -594645.226427 kJ/mol
# GULP energy per Si atom -12388.442217 kJ/mol
# Density = 2.170179 g / cm^3
# Si number density = 21.751299 Si / 1000 Ang^3
#
#
#
# Elastic Constant Matrix: (Units=GPa)
#
#
# Indices 1 2 3 4 5 6 
#
# 1 128.5567 21.2507 32.6868 0.0000 0.0000 0.0000
# 2 21.2507 132.4051 9.0251 0.0000 0.0000 0.0000
# 3 32.6868 9.0251 84.2530 0.0000 0.0000 0.0000
# 4 0.0000 0.0000 0.0000 -18.1282 0.0000 0.0000
# 5 0.0000 0.0000 0.0000 0.0000 29.6635 0.0000
# 6 0.0000 0.0000 0.0000 0.0000 0.0000 43.9440
#
#
#
# Elastic Compliance Matrix: (Units=1/GPa)
#
#
# Indices 1 2 3 4 5 6 
#
# 1 0.008812 -0.001190 -0.003291 0.000000 0.000000 0.000000
# 2 -0.001190 0.007769 -0.000371 0.000000 0.000000 0.000000
# 3 -0.003291 -0.000371 0.013186 0.000000 0.000000 0.000000
# 4 0.000000 0.000000 0.000000 -0.055163 0.000000 0.000000
# 5 0.000000 0.000000 0.000000 0.000000 0.033711 0.000000
# 6 0.000000 0.000000 0.000000 0.000000 0.000000 0.022756
#
#
# Mechanical properties :
#
#
# Convention : Reuss Voigt Hill
#
# Bulk Modulus (GPa) = 49.84302 52.34888 51.09595
# Shear Modulus (GPa) = 105.34503 29.91267 67.62885
#
# Velocity S-wave (km/s) = 6.96683 3.71241 5.58206
# Velocity P-wave (km/s) = 9.36378 6.51884 8.06770
#
# Compressibility (1/GPa) = 0.02006299
#
# Stress axis : x y z
#
# Youngs Moduli (GPa) = 113.47865 128.71956 75.84030
#
# Poissons Ratio (x) = 0.15318 0.24961
# Poissons Ratio (y) = 0.13504 0.02810
# Poissons Ratio (z) = 0.37349 0.04769
#
# Static dielectric constant tensor:
#      x y z
#    x 4.118650 0.000000 0.000000 
#    y 0.000000 4.099690 0.000000 
#    z 0.000000 0.000000 6.813630 
# 
# 
# High freq. dielectric constant tensor:
#      x y z
#    x 1.845560 0.000000 0.000000 
#    y 0.000000 1.873120 0.000000 
#    z 0.000000 0.000000 1.844130 
# 
# From -- ./inp_files/35263.got.cif
#   From: 2010.03.12/outbox.cif.g09.slc.cpg/sg74_18_cif.got.tgz:35263.got - 2010.04.16 15:46:19.
