data_PCOD8301715
_publ_section_title
;
Structure prediction by ZEFSAII (Michael W. Deem and Ramdas Pophale) SiO2 
 PCOD8301715
Probable space group: I M M A
;
_chemical_formula_sum "Si O2"
_cell_formula_units_Z 52
_cell_length_a 18.493387
_cell_length_b 13.508222
_cell_length_c 9.375077
_cell_angle_alpha 90.000000
_cell_angle_beta 90.000000
_cell_angle_gamma 90.000000
_cell_volume 2342.014021
_symmetry_space_group_name_H-M "I M M A"
_symmetry_group_IT_number 74
_symmetry_cell_setting 'orthorhombic'
loop_
_space_group_symop_operation_xyz
x,y,z
-x,1/2-y,z
x,-y,-z
-x,1/2+y,-z
-x,-y,-z
x,1/2+y,-z
-x,y,z
x,1/2-y,z
1/2+x,1/2+y,1/2+z
1/2-x,-y,1/2+z
1/2+x,1/2-y,1/2-z
1/2-x,y,1/2-z
1/2-x,1/2-y,1/2-z
1/2+x,y,1/2-z
1/2-x,1/2+y,1/2+z
1/2+x,-y,1/2+z
loop_
_atom_site_type_symbol
_atom_site_label
_atom_site_fract_x
_atom_site_fract_y
_atom_site_fract_z
Si Si1 0.500000 0.250000 0.493779
Si Si2 0.000000 0.949725 0.147662
Si Si3 0.750000 0.905834 0.750000
Si Si4 0.844331 0.250000 0.079578
Si Si5 0.374226 0.537948 0.146870
Si Si6 0.665863 0.750000 0.242966
O O1 0.500000 0.334476 0.614624
O O2 0.430615 0.250000 0.383502
O O3 0.070820 0.988052 0.228084
O O4 0.000000 0.000000 0.000000
O O5 0.800517 0.843712 0.858760
O O6 0.699724 0.976507 0.842724
O O7 0.855207 0.250000 0.908896
O O8 0.360991 0.655776 0.152056
O O9 0.410116 0.500000 0.000000
O O10 0.750000 0.750000 0.250000
#
# Coordination Sequence:
#
# PCOD8301715 Si02
#       6
#     4   8   8   8  16   8
#     4  12  22  46  76 104 144 192 252 298 360 458
#     4  12  25  45  73 106 142 194 243 297 371 443
#     4  11  26  43  70 108 152 189 248 305 370 438
#     4  11  24  45  72 112 143 191 250 305 368 444
#     4  12  26  44  71 105 149 188 244 306 365 439
#     4  12  23  43  75  98 145 193 243 295 377 432
#
# _framework density 22.203112999999998
#
# number of rings (size 3 to 8) (size 9 to 14) (size 15 to 20)
#    0.000    0.308    4.615    4.154    0.000    1.231 
#    0.000    1.538    0.000    0.000    0.000    0.000 
#    0.000    0.000    0.000    0.000    0.000    0.000 
#
# Total GULP energy -322212.736983 kJ/mol
# GULP energy per Si atom -12392.797576 kJ/mol
# Density = 2.215258 g / cm^3
# Si number density = 22.203113 Si / 1000 Ang^3
#
#
#
# Elastic Constant Matrix: (Units=GPa)
#
#
# Indices 1 2 3 4 5 6 
#
# 1 159.5431 55.0369 56.8301 0.0000 0.0000 0.0000
# 2 55.0369 158.6285 82.1798 0.0000 0.0000 0.0000
# 3 56.8301 82.1798 153.2808 0.0000 0.0000 0.0000
# 4 0.0000 0.0000 0.0000 40.3116 0.0000 0.0000
# 5 0.0000 0.0000 0.0000 0.0000 42.8865 0.0000
# 6 0.0000 0.0000 0.0000 0.0000 0.0000 42.7771
#
#
#
# Elastic Compliance Matrix: (Units=1/GPa)
#
#
# Indices 1 2 3 4 5 6 
#
# 1 0.007507 -0.001610 -0.001920 0.000000 0.000000 0.000000
# 2 -0.001610 0.009074 -0.004268 0.000000 0.000000 0.000000
# 3 -0.001920 -0.004268 0.009524 0.000000 0.000000 0.000000
# 4 0.000000 0.000000 0.000000 0.024807 0.000000 0.000000
# 5 0.000000 0.000000 0.000000 0.000000 0.023317 0.000000
# 6 0.000000 0.000000 0.000000 0.000000 0.000000 0.023377
#
#
# Mechanical properties :
#
#
# Convention : Reuss Voigt Hill
#
# Bulk Modulus (GPa) = 95.15645 95.50510 95.33077
# Shear Modulus (GPa) = 42.84306 43.68874 43.26590
#
# Velocity S-wave (km/s) = 4.39748 4.44067 4.41913
# Velocity P-wave (km/s) = 8.29060 8.33069 8.31067
#
# Compressibility (1/GPa) = 0.01050901
#
# Stress axis : x y z
#
# Youngs Moduli (GPa) = 133.20453 110.20984 104.99695
#
# Poissons Ratio (x) = 0.17742 0.20162
# Poissons Ratio (y) = 0.21444 0.44811
# Poissons Ratio (z) = 0.25579 0.47036
#
# Static dielectric constant tensor:
#      x y z
#    x 4.476430 0.000000 0.000000 
#    y 0.000000 3.999550 0.000000 
#    z 0.000000 0.000000 4.021180 
# 
# 
# High freq. dielectric constant tensor:
#      x y z
#    x 1.895400 0.000000 0.000000 
#    y 0.000000 1.885710 0.000000 
#    z 0.000000 0.000000 1.866310 
# 
# From -- ./inp_files/11622.got.cif
#   From: 2010.03.12/outbox.cif.g09.slc.cpg/sg74_6_cif.got.tgz:11622.got - 2010.04.16 15:46:19.
