data_PCOD8301237
_publ_section_title
;
Structure prediction by ZEFSAII (Michael W. Deem and Ramdas Pophale) SiO2 
 PCOD8301237
Probable space group: I M M A
;
_chemical_formula_sum "Si O2"
_cell_formula_units_Z 112
_cell_length_a 26.544414
_cell_length_b 15.075008
_cell_length_c 12.768696
_cell_angle_alpha 90.000000
_cell_angle_beta 90.000000
_cell_angle_gamma 90.000000
_cell_volume 5109.486321
_symmetry_space_group_name_H-M "I M M A"
_symmetry_group_IT_number 74
_symmetry_cell_setting 'orthorhombic'
loop_
_space_group_symop_operation_xyz
x,y,z
-x,1/2-y,z
x,-y,-z
-x,1/2+y,-z
-x,-y,-z
x,1/2+y,-z
-x,y,z
x,1/2-y,z
1/2+x,1/2+y,1/2+z
1/2-x,-y,1/2+z
1/2+x,1/2-y,1/2-z
1/2-x,y,1/2-z
1/2-x,1/2-y,1/2-z
1/2+x,y,1/2-z
1/2-x,1/2+y,1/2+z
1/2+x,-y,1/2+z
loop_
_atom_site_type_symbol
_atom_site_label
_atom_site_fract_x
_atom_site_fract_y
_atom_site_fract_z
Si Si1 0.753416 0.857236 0.509649
Si Si2 0.944261 0.149013 0.554660
Si Si3 0.885662 0.056153 0.189167
Si Si4 0.717909 0.007070 0.649991
Si Si5 0.057172 0.649365 0.993178
Si Si6 0.638047 0.853942 0.901560
Si Si7 0.442352 0.895085 0.278338
O O1 0.743048 0.750000 0.510332
O O2 0.717096 0.914734 0.583872
O O3 0.809229 0.883577 0.547737
O O4 0.742099 0.902242 0.396920
O O5 0.950341 0.250000 0.520551
O O6 0.906682 0.102067 0.471314
O O7 0.919340 0.145751 0.671409
O O8 0.000000 0.103255 0.551218
O O9 0.841559 0.982536 0.172156
O O10 0.902557 0.102809 0.082146
O O11 0.867556 0.122776 0.279549
O O12 0.933921 0.000723 0.227920
O O13 0.750000 0.983534 0.750000
O O14 0.054706 0.750000 0.956825
O O15 0.000000 0.608451 0.985739
O O16 0.079275 0.642243 0.111518
O O17 0.635016 0.750000 0.911453
O O18 0.500000 0.868178 0.277004
#
# Coordination Sequence:
#
# PCOD8301237 Si02
#       7
#    16  16  16  16  16  16  16
#     4  10  24  45  68  93 128 171 219 270 326 393
#     4   9  19  37  61  90 122 158 207 259 308 375
#     4  12  24  39  60  93 128 163 206 264 318 390
#     4  11  25  44  66  96 130 170 215 270 331 387
#     4  10  22  41  64  89 124 169 213 262 320 382
#     4  10  22  41  65  91 122 167 210 257 322 388
#     4  10  22  38  60  89 124 165 207 256 317 378
#
# _framework density 21.920010999999999
#
# number of rings (size 3 to 8) (size 9 to 14) (size 15 to 20)
#    0.000    1.714    1.429    1.714    6.000    6.286 
#    0.000    3.571    0.000    0.000    0.000    0.000 
#    0.000    0.000    0.000    0.000    0.000    0.000 
#
# Total GULP energy -693734.923435 kJ/mol
# GULP energy per Si atom -12388.123633 kJ/mol
# Density = 2.187012 g / cm^3
# Si number density = 21.920011 Si / 1000 Ang^3
#
#
#
# Elastic Constant Matrix: (Units=GPa)
#
#
# Indices 1 2 3 4 5 6 
#
# 1 69.5147 10.0408 43.6439 0.0000 0.0000 0.0000
# 2 10.0408 65.1373 2.8881 0.0000 0.0000 0.0000
# 3 43.6439 2.8881 109.7122 0.0000 0.0000 0.0000
# 4 0.0000 0.0000 0.0000 20.0360 0.0000 0.0000
# 5 0.0000 0.0000 0.0000 0.0000 32.0742 0.0000
# 6 0.0000 0.0000 0.0000 0.0000 0.0000 21.8593
#
#
#
# Elastic Compliance Matrix: (Units=1/GPa)
#
#
# Indices 1 2 3 4 5 6 
#
# 1 0.019632 -0.002683 -0.007739 0.000000 0.000000 0.000000
# 2 -0.002683 0.015737 0.000653 0.000000 0.000000 0.000000
# 3 -0.007739 0.000653 0.012176 0.000000 0.000000 0.000000
# 4 0.000000 0.000000 0.000000 0.049910 0.000000 0.000000
# 5 0.000000 0.000000 0.000000 0.000000 0.031178 0.000000
# 6 0.000000 0.000000 0.000000 0.000000 0.000000 0.045747
#
#
# Mechanical properties :
#
#
# Convention : Reuss Voigt Hill
#
# Bulk Modulus (GPa) = 35.70556 39.72331 37.71444
# Shear Modulus (GPa) = 24.59986 27.31334 25.95660
#
# Velocity S-wave (km/s) = 3.35364 3.53377 3.44488
# Velocity P-wave (km/s) = 5.59645 5.90011 5.75029
#
# Compressibility (1/GPa) = 0.02800685
#
# Stress axis : x y z
#
# Youngs Moduli (GPa) = 50.93776 63.54525 82.12773
#
# Poissons Ratio (x) = 0.17050 0.63558
# Poissons Ratio (y) = 0.13667 -0.05363
# Poissons Ratio (z) = 0.39421 -0.04150
#
# Static dielectric constant tensor:
#      x y z
#    x 4.206430 0.000000 0.000000 
#    y 0.000000 3.726430 0.000000 
#    z 0.000000 0.000000 4.176800 
# 
# 
# High freq. dielectric constant tensor:
#      x y z
#    x 1.860660 0.000000 0.000000 
#    y 0.000000 1.845840 0.000000 
#    z 0.000000 0.000000 1.871570 
# 
# From -- ./inp_files/27207.got.cif
#   From: 2010.03.12/outbox.cif.g09.slc.cpg/sg74_14_cif.got.tgz:27207.got - 2010.04.16 15:46:19.
