data_PCOD8301112
_publ_section_title
;
Structure prediction by ZEFSAII (Michael W. Deem and Ramdas Pophale) SiO2 
 PCOD8301112
Probable space group: I M M A
;
_chemical_formula_sum "Si O2"
_cell_formula_units_Z 56
_cell_length_a 7.283993
_cell_length_b 14.904883
_cell_length_c 28.714382
_cell_angle_alpha 90.000000
_cell_angle_beta 90.000000
_cell_angle_gamma 90.000000
_cell_volume 3117.436132
_symmetry_space_group_name_H-M "I M M A"
_symmetry_group_IT_number 74
_symmetry_cell_setting 'orthorhombic'
loop_
_space_group_symop_operation_xyz
x,y,z
-x,1/2-y,z
x,-y,-z
-x,1/2+y,-z
-x,-y,-z
x,1/2+y,-z
-x,y,z
x,1/2-y,z
1/2+x,1/2+y,1/2+z
1/2-x,-y,1/2+z
1/2+x,1/2-y,1/2-z
1/2-x,y,1/2-z
1/2-x,1/2-y,1/2-z
1/2+x,y,1/2-z
1/2-x,1/2+y,1/2+z
1/2+x,-y,1/2+z
loop_
_atom_site_type_symbol
_atom_site_label
_atom_site_fract_x
_atom_site_fract_y
_atom_site_fract_z
Si Si1 0.712436 0.647801 0.696714
Si Si2 0.500000 0.416457 0.033840
Si Si3 0.300035 0.352609 0.527379
Si Si4 0.500000 0.143829 0.898249
Si Si5 0.000000 0.463052 0.358651
O O1 0.500000 0.637096 0.684655
O O2 0.779033 0.750000 0.687060
O O3 0.750000 0.622787 0.750000
O O4 0.819956 0.577458 0.665062
O O5 0.500000 0.436455 0.087682
O O6 0.500000 0.500000 0.000000
O O7 0.312372 0.364204 0.020823
O O8 0.500000 0.402648 0.526245
O O9 0.341450 0.250000 0.534015
O O10 0.178893 0.383141 0.571555
O O11 0.500000 0.250000 0.883259
O O12 0.500000 0.073082 0.854953
#
# Coordination Sequence:
#
# PCOD8301112 Si02
#       5
#    16   8  16   8   8
#     4  10  21  39  62  88 118 149 184 235 295 353
#     4  11  21  35  47  80 119 149 183 244 283 324
#     4   9  18  34  54  72 106 156 195 233 284 332
#     4   9  19  37  55  80 114 151 197 240 279 328
#     4  12  22  35  60  89 111 156 198 231 288 357
#
# _framework density 17.963481000000002
#
# number of rings (size 3 to 8) (size 9 to 14) (size 15 to 20)
#    0.000    2.000    4.286    1.714    0.000    5.143 
#    0.000    2.857    0.000    0.857    0.000    0.000 
#    0.000    0.000    0.000    0.000    0.000    0.000 
#
# Total GULP energy -346901.346573 kJ/mol
# GULP energy per Si atom -12389.333806 kJ/mol
# Density = 1.792259 g / cm^3
# Si number density = 17.963481 Si / 1000 Ang^3
#
#
#
# Elastic Constant Matrix: (Units=GPa)
#
#
# Indices 1 2 3 4 5 6 
#
# 1 151.2879 43.4587 43.6064 0.0000 0.0000 0.0000
# 2 43.4587 97.6366 61.7530 0.0000 0.0000 0.0000
# 3 43.6064 61.7530 98.1683 0.0000 0.0000 0.0000
# 4 0.0000 0.0000 0.0000 32.2005 0.0000 0.0000
# 5 0.0000 0.0000 0.0000 0.0000 -197.6700 0.0000
# 6 0.0000 0.0000 0.0000 0.0000 0.0000 16.1991
#
#
#
# Elastic Compliance Matrix: (Units=1/GPa)
#
#
# Indices 1 2 3 4 5 6 
#
# 1 0.007840 -0.002137 -0.002138 0.000000 0.000000 0.000000
# 2 -0.002137 0.017592 -0.010117 0.000000 0.000000 0.000000
# 3 -0.002138 -0.010117 0.017500 0.000000 0.000000 0.000000
# 4 0.000000 0.000000 0.000000 0.031055 0.000000 0.000000
# 5 0.000000 0.000000 0.000000 0.000000 -0.005059 0.000000
# 6 0.000000 0.000000 0.000000 0.000000 0.000000 0.061732
#
#
# Mechanical properties :
#
#
# Convention : Reuss Voigt Hill
#
# Bulk Modulus (GPa) = 70.68197 71.63655 71.15926
# Shear Modulus (GPa) = 30.45773 -16.63577 6.91098
#
# Velocity S-wave (km/s) = 4.12216 -3.04647 1.96357
# Velocity P-wave (km/s) = 7.87967 5.25271 6.69627
#
# Compressibility (1/GPa) = 0.01414788
#
# Stress axis : x y z
#
# Youngs Moduli (GPa) = 127.54826 56.84329 57.14146
#
# Poissons Ratio (x) = 0.12150 0.12217
# Poissons Ratio (y) = 0.27263 0.57810
# Poissons Ratio (z) = 0.27270 0.57508
#
# Static dielectric constant tensor:
#      x y z
#    x 5.664290 0.000000 0.000000 
#    y 0.000000 3.493150 0.000000 
#    z 0.000000 0.000000 3.333210 
# 
# 
# High freq. dielectric constant tensor:
#      x y z
#    x 1.716400 0.000000 0.000000 
#    y 0.000000 1.692100 0.000000 
#    z 0.000000 0.000000 1.659300 
# 
# From -- ./inp_files/63455.got.cif
#   From: 2010.03.12/outbox.cif.g09.slc.cpg/sg74_32_cif.got.tgz:63455.got - 2010.04.16 15:46:19.
