data_PCOD8301902
_publ_section_title
;
Structure prediction by ZEFSAII (Michael W. Deem and Ramdas Pophale) SiO2 
 PCOD8301902
Probable space group: P 41
;
_chemical_formula_sum "Si O2"
_cell_formula_units_Z 32
_cell_length_a 14.021919
_cell_length_b 14.021919
_cell_length_c 8.221630
_cell_angle_alpha 90.000000
_cell_angle_beta 90.000000
_cell_angle_gamma 90.000000
_cell_volume 1616.489307
_symmetry_space_group_name_H-M "P 41"
_symmetry_group_IT_number 76
_symmetry_cell_setting 'tetragonal'
loop_
_space_group_symop_operation_xyz
x,y,z
-y,x,1/4+z
-x,-y,1/2+z
y,-x,3/4+z
loop_
_atom_site_type_symbol
_atom_site_label
_atom_site_fract_x
_atom_site_fract_y
_atom_site_fract_z
Si Si1 0.852298 0.311745 0.852980
Si Si2 0.911556 0.441919 0.402386
Si Si3 0.980530 0.118791 0.330268
Si Si4 0.278226 0.338730 0.221538
Si Si5 0.379691 0.963717 0.446289
Si Si6 0.270554 0.162995 0.975769
Si Si7 0.447567 0.254068 0.391173
Si Si8 0.745109 0.140542 0.712333
O O1 0.802006 0.411395 0.801974
O O2 0.819405 0.226278 0.735913
O O3 0.964354 0.321033 0.812736
O O4 0.822903 0.288326 0.035419
O O5 0.920843 0.537833 0.303349
O O6 0.911416 0.350461 0.285674
O O7 0.810662 0.450368 0.484130
O O8 0.992493 0.428043 0.536164
O O9 0.888056 0.168566 0.249497
O O10 0.042014 0.059485 0.204450
O O11 0.044766 0.199270 0.415339
O O12 0.276266 0.264064 0.070545
O O13 0.368091 0.332139 0.344588
O O14 0.292387 0.446290 0.161320
O O15 0.177974 0.325806 0.319386
O O16 0.310558 0.880129 0.381064
#
# Coordination Sequence:
#
# PCOD8301902 Si02
#       8
#     4   4   4   4   4   4   4   4
#     4  10  24  40  62  92 128 161 215 265 317 384
#     4  10  22  36  61  94 126 158 214 265 317 381
#     4  12  26  43  61  88 128 178 219 266 318 387
#     4  10  22  44  67  92 129 169 210 267 334 392
#     4  11  22  38  63  96 125 167 212 270 322 382
#     4  11  23  43  61  92 127 167 212 266 317 386
#     4   9  22  43  65  92 127 165 203 265 324 388
#     4  11  23  41  64  86 130 169 213 264 327 384
#
# _framework density 19.795988000000001
#
# number of rings (size 3 to 8) (size 9 to 14) (size 15 to 20)
#    0.000    1.500    2.500    2.250    8.750    2.000 
#    0.000    1.250    0.000    0.000    0.000    0.000 
#    0.000    0.000    0.000    0.000    0.000    0.000 
#
# Total GULP energy -396694.314645 kJ/mol
# GULP energy per Si atom -12396.697333 kJ/mol
# Density = 1.975093 g / cm^3
# Si number density = 19.795988 Si / 1000 Ang^3
#
#
#
# Elastic Constant Matrix: (Units=GPa)
#
#
# Indices 1 2 3 4 5 6 
#
# 1 91.8868 40.8231 28.7663 0.0000 0.0000 2.1635
# 2 40.8231 91.8868 28.7663 0.0000 0.0000 -2.1635
# 3 28.7663 28.7663 92.6431 0.0000 0.0000 0.0000
# 4 0.0000 0.0000 0.0000 11.1555 0.0000 0.0000
# 5 0.0000 0.0000 0.0000 0.0000 11.1555 0.0000
# 6 2.1635 -2.1635 0.0000 0.0000 0.0000 24.2864
#
#
#
# Elastic Compliance Matrix: (Units=1/GPa)
#
#
# Indices 1 2 3 4 5 6 
#
# 1 0.014220 -0.005513 -0.002704 0.000000 0.000000 -0.001758
# 2 -0.005513 0.014220 -0.002704 0.000000 0.000000 0.001758
# 3 -0.002704 -0.002704 0.012473 0.000000 0.000000 0.000000
# 4 0.000000 0.000000 0.000000 0.089642 0.000000 0.000000
# 5 0.000000 0.000000 0.000000 0.000000 0.089642 0.000000
# 6 -0.001758 0.001758 0.000000 0.000000 0.000000 0.041488
#
#
# Mechanical properties :
#
#
# Convention : Reuss Voigt Hill
#
# Bulk Modulus (GPa) = 52.42995 52.56979 52.49987
# Shear Modulus (GPa) = 17.24839 21.19022 19.21930
#
# Velocity S-wave (km/s) = 2.95499 3.27529 3.11926
# Velocity P-wave (km/s) = 6.17942 6.39663 6.28896
#
# Compressibility (1/GPa) = 0.01907307
#
# Stress axis : x y z
#
# Youngs Moduli (GPa) = 70.32428 70.32428 80.17228
#
# Poissons Ratio (x) = 0.38766 0.21676
# Poissons Ratio (y) = 0.38766 0.21676
# Poissons Ratio (z) = 0.19013 0.19013
#
# Static dielectric constant tensor:
#      x y z
#    x 3.840160 0.000000 0.000000 
#    y 0.000000 3.840160 0.000000 
#    z 0.000000 0.000000 3.627010 
# 
# 
# High freq. dielectric constant tensor:
#      x y z
#    x 1.771300 0.000000 0.000000 
#    y 0.000000 1.771300 0.000000 
#    z 0.000000 0.000000 1.775660 
# 
# From -- ./inp_files/714.got.cif
#   From: 2010.03.12/outbox.cif.g09.slc.cpg/sg76_cif.got.tgz:714.got - 2010.04.16 16:34:25.
