data_PCOD8301765
_publ_section_title
;
Structure prediction by ZEFSAII (Michael W. Deem and Ramdas Pophale) SiO2 
 PCOD8301765
Probable space group: I M M A
;
_chemical_formula_sum "Si O2"
_cell_formula_units_Z 128
_cell_length_a 25.907785
_cell_length_b 9.795185
_cell_length_c 29.042506
_cell_angle_alpha 90.000000
_cell_angle_beta 90.000000
_cell_angle_gamma 90.000000
_cell_volume 7370.161677
_symmetry_space_group_name_H-M "I M M A"
_symmetry_group_IT_number 74
_symmetry_cell_setting 'orthorhombic'
loop_
_space_group_symop_operation_xyz
x,y,z
-x,1/2-y,z
x,-y,-z
-x,1/2+y,-z
-x,-y,-z
x,1/2+y,-z
-x,y,z
x,1/2-y,z
1/2+x,1/2+y,1/2+z
1/2-x,-y,1/2+z
1/2+x,1/2-y,1/2-z
1/2-x,y,1/2-z
1/2-x,1/2-y,1/2-z
1/2+x,y,1/2-z
1/2-x,1/2+y,1/2+z
1/2+x,-y,1/2+z
loop_
_atom_site_type_symbol
_atom_site_label
_atom_site_fract_x
_atom_site_fract_y
_atom_site_fract_z
Si Si1 0.057046 0.412745 0.640301
Si Si2 0.061070 0.099113 0.538396
Si Si3 0.848768 0.413028 0.802206
Si Si4 0.151989 0.412919 0.698356
Si Si5 0.557390 0.587692 0.361960
Si Si6 0.776511 0.406303 0.958014
Si Si7 0.750250 0.587727 0.142605
Si Si8 0.898054 0.593657 0.041719
O O1 0.055299 0.250000 0.640251
O O2 0.073597 0.460540 0.589057
O O3 0.098667 0.468854 0.676595
O O4 0.000000 0.469428 0.653335
O O5 0.085504 0.250000 0.532144
O O6 0.000000 0.109259 0.532048
O O7 0.085779 0.000000 0.500000
O O8 0.848400 0.250000 0.802400
O O9 0.844087 0.468922 0.750233
O O10 0.902002 0.468992 0.824416
O O11 0.800699 0.470848 0.831481
O O12 0.152597 0.250000 0.697886
O O13 0.199693 0.469772 0.668348
O O14 0.500000 0.532718 0.350138
O O15 0.558605 0.750000 0.360902
O O16 0.573441 0.538958 0.412810
O O17 0.761806 0.250000 0.969319
O O18 0.749356 0.457434 0.910890
O O19 0.837313 0.421287 0.950090
O O20 0.756919 0.500000 0.000000
O O21 0.752171 0.750000 0.145112
O O22 0.912837 0.750000 0.030694
O O23 0.917428 0.500000 0.000000
#
# Coordination Sequence:
#
# PCOD8301765 Si02
#       8
#    16  16  16  16  16  16  16  16
#     4   8  14  24  35  50  76 105 130 161 203 247
#     4   8  13  22  37  55  76 103 132 161 194 234
#     4   9  15  24  36  53  78 107 137 171 209 250
#     4   9  16  23  36  56  77 105 139 170 206 254
#     4   9  16  25  37  55  81 112 142 173 213 256
#     4   9  16  27  44  63  87 117 145 174 212 257
#     4   9  15  25  39  56  80 107 135 172 213 247
#     4   9  16  27  42  60  84 115 147 177 212 254
#
# _framework density 17.367325999999998
#
# number of rings (size 3 to 8) (size 9 to 14) (size 15 to 20)
#    0.000    3.250    1.250    1.125    0.000    2.250 
#    0.000    3.125    0.000    0.000    0.000    0.000 
#    0.000    5.000    0.000    2.875    0.000    3.000 
#
# Total GULP energy -793232.092463 kJ/mol
# GULP energy per Si atom -12394.251445 kJ/mol
# Density = 1.732780 g / cm^3
# Si number density = 17.367326 Si / 1000 Ang^3
#
#
#
# Elastic Constant Matrix: (Units=GPa)
#
#
# Indices 1 2 3 4 5 6 
#
# 1 106.2952 14.4179 79.5884 0.0000 0.0000 0.0000
# 2 14.4179 24.1450 31.6756 0.0000 0.0000 0.0000
# 3 79.5884 31.6756 167.3065 0.0000 0.0000 0.0000
# 4 0.0000 0.0000 0.0000 18.4186 0.0000 0.0000
# 5 0.0000 0.0000 0.0000 0.0000 24.6263 0.0000
# 6 0.0000 0.0000 0.0000 0.0000 0.0000 5.4854
#
#
#
# Elastic Compliance Matrix: (Units=1/GPa)
#
#
# Indices 1 2 3 4 5 6 
#
# 1 0.014617 0.000524 -0.007053 0.000000 0.000000 0.000000
# 2 0.000524 0.055121 -0.010685 0.000000 0.000000 0.000000
# 3 -0.007053 -0.010685 0.011355 0.000000 0.000000 0.000000
# 4 0.000000 0.000000 0.000000 0.054293 0.000000 0.000000
# 5 0.000000 0.000000 0.000000 0.000000 0.040607 0.000000
# 6 0.000000 0.000000 0.000000 0.000000 0.000000 0.182302
#
#
# Mechanical properties :
#
#
# Convention : Reuss Voigt Hill
#
# Bulk Modulus (GPa) = 21.42898 61.01228 41.22063
# Shear Modulus (GPa) = 12.24653 21.17704 16.71179
#
# Velocity S-wave (km/s) = 2.65834 3.49572 3.10539
# Velocity P-wave (km/s) = 4.66775 7.17636 6.05343
#
# Compressibility (1/GPa) = 0.04666577
#
# Stress axis : x y z
#
# Youngs Moduli (GPa) = 68.41130 18.14176 88.06655
#
# Poissons Ratio (x) = -0.00950 0.62111
# Poissons Ratio (y) = -0.03583 0.94100
# Poissons Ratio (z) = 0.48249 0.19385
#
# Static dielectric constant tensor:
#      x y z
#    x 3.322230 0.000000 0.000000 
#    y 0.000000 2.680570 0.000000 
#    z 0.000000 0.000000 3.465280 
# 
# 
# High freq. dielectric constant tensor:
#      x y z
#    x 1.664560 0.000000 0.000000 
#    y 0.000000 1.586370 0.000000 
#    z 0.000000 0.000000 1.683670 
# 
# From -- ./inp_files/59309.got.cif
#   From: 2010.03.12/outbox.cif.g09.slc.cpg/sg74_30_cif.got.tgz:59309.got - 2010.04.16 15:46:19.
