data_PCOD8301857
_publ_section_title
;
Structure prediction by ZEFSAII (Michael W. Deem and Ramdas Pophale) SiO2 
 PCOD8301857
Probable space group: P 41
;
_chemical_formula_sum "Si O2"
_cell_formula_units_Z 32
_cell_length_a 7.732505
_cell_length_b 7.732505
_cell_length_c 26.387140
_cell_angle_alpha 90.000000
_cell_angle_beta 90.000000
_cell_angle_gamma 90.000000
_cell_volume 1577.730206
_symmetry_space_group_name_H-M "P 41"
_symmetry_group_IT_number 76
_symmetry_cell_setting 'tetragonal'
loop_
_space_group_symop_operation_xyz
x,y,z
-y,x,1/4+z
-x,-y,1/2+z
y,-x,3/4+z
loop_
_atom_site_type_symbol
_atom_site_label
_atom_site_fract_x
_atom_site_fract_y
_atom_site_fract_z
Si Si1 0.882012 0.034267 0.298470
Si Si2 0.311152 0.061496 0.892634
Si Si3 0.375818 0.020397 0.003725
Si Si4 0.569700 0.183037 0.812867
Si Si5 0.124181 0.479601 0.003725
Si Si6 0.438504 0.811153 0.642634
Si Si7 0.534269 0.617990 0.548470
Si Si8 0.683036 0.930299 0.062867
O O1 0.008350 0.195824 0.285283
O O2 0.716492 0.054204 0.261620
O O3 0.827158 0.043762 0.358057
O O4 0.962182 0.844137 0.289252
O O5 0.482503 0.085670 0.859677
O O6 0.249999 0.250000 0.908801
O O7 0.345515 0.965221 0.945432
O O8 0.445794 0.216491 0.011620
O O9 0.532616 0.896855 0.021404
O O10 0.462181 0.344139 0.789252
O O11 0.749999 0.250001 0.833725
O O12 0.603144 0.032617 0.771404
O O13 0.304174 0.508348 0.035283
O O14 0.154485 0.534778 0.945432
O O15 0.543762 0.672843 0.608058
O O16 0.414333 0.982504 0.609677
#
# Coordination Sequence:
#
# PCOD8301857 Si02
#       8
#     4   4   4   4   4   4   4   4
#     4   9  19  35  59  88 109 151 213 243 284 371
#     4   9  17  35  61  84 106 154 204 243 298 356
#     4  10  18  37  64  82 115 161 198 251 300 351
#     4  10  22  36  53  87 127 150 196 254 300 368
#     4  10  18  37  64  82 115 161 198 251 300 351
#     4   9  17  35  61  84 106 154 204 243 298 356
#     4   9  19  35  59  88 109 151 213 243 284 371
#     4  10  22  36  53  87 127 150 196 254 300 368
#
# _framework density 20.282302000000001
#
# number of rings (size 3 to 8) (size 9 to 14) (size 15 to 20)
#    0.000    2.500    2.500    2.250    0.000    3.000 
#    0.000   10.000    0.000    0.000    0.000    0.000 
#    0.000    0.000    0.000    0.000    0.000    0.000 
#
# Total GULP energy -396468.934740 kJ/mol
# GULP energy per Si atom -12389.654211 kJ/mol
# Density = 2.023614 g / cm^3
# Si number density = 20.282302 Si / 1000 Ang^3
#
#
#
# Elastic Constant Matrix: (Units=GPa)
#
#
# Indices 1 2 3 4 5 6 
#
# 1 77.9619 22.7766 41.5616 0.0000 0.0000 -1.7459
# 2 22.7766 77.9619 41.5616 0.0000 0.0000 1.7459
# 3 41.5616 41.5616 158.1007 0.0000 0.0000 0.0000
# 4 0.0000 0.0000 0.0000 14.9204 0.0000 0.0000
# 5 0.0000 0.0000 0.0000 0.0000 14.9204 0.0000
# 6 -1.7459 1.7459 0.0000 0.0000 0.0000 24.4572
#
#
#
# Elastic Compliance Matrix: (Units=1/GPa)
#
#
# Indices 1 2 3 4 5 6 
#
# 1 0.015440 -0.002763 -0.003332 0.000000 0.000000 0.001299
# 2 -0.002763 0.015440 -0.003332 0.000000 0.000000 -0.001299
# 3 -0.003332 -0.003332 0.008077 0.000000 0.000000 0.000000
# 4 0.000000 0.000000 0.000000 0.067022 0.000000 0.000000
# 5 0.000000 0.000000 0.000000 0.000000 0.067022 0.000000
# 6 0.001299 -0.001299 0.000000 0.000000 0.000000 0.041073
#
#
# Mechanical properties :
#
#
# Convention : Reuss Voigt Hill
#
# Bulk Modulus (GPa) = 49.75034 58.42490 54.08762
# Shear Modulus (GPa) = 20.86541 24.73456 22.79998
#
# Velocity S-wave (km/s) = 3.21089 3.49594 3.35645
# Velocity P-wave (km/s) = 6.19101 6.72041 6.46113
#
# Compressibility (1/GPa) = 0.02010036
#
# Stress axis : x y z
#
# Youngs Moduli (GPa) = 64.76819 64.76819 123.80653
#
# Poissons Ratio (x) = 0.17897 0.41257
# Poissons Ratio (y) = 0.17897 0.41257
# Poissons Ratio (z) = 0.21583 0.21583
#
# Static dielectric constant tensor:
#      x y z
#    x 3.731760 0.000000 0.000000 
#    y 0.000000 3.731760 0.000000 
#    z 0.000000 0.000000 3.614550 
# 
# 
# High freq. dielectric constant tensor:
#      x y z
#    x 1.779730 0.000000 0.000000 
#    y 0.000000 1.779730 0.000000 
#    z 0.000000 0.000000 1.777430 
# 
# From -- ./inp_files/1652.got.cif
#   From: 2010.03.12/outbox.cif.g09.slc.cpg/sg76_cif.got.tgz:1652.got - 2010.04.16 16:34:25.
