data_PCOD8301732
_publ_section_title
;
Structure prediction by ZEFSAII (Michael W. Deem and Ramdas Pophale) SiO2 
 PCOD8301732
Probable space group: I M M A
;
_chemical_formula_sum "Si O2"
_cell_formula_units_Z 80
_cell_length_a 8.712660
_cell_length_b 23.536646
_cell_length_c 26.230220
_cell_angle_alpha 90.000000
_cell_angle_beta 90.000000
_cell_angle_gamma 90.000000
_cell_volume 5378.947125
_symmetry_space_group_name_H-M "I M M A"
_symmetry_group_IT_number 74
_symmetry_cell_setting 'orthorhombic'
loop_
_space_group_symop_operation_xyz
x,y,z
-x,1/2-y,z
x,-y,-z
-x,1/2+y,-z
-x,-y,-z
x,1/2+y,-z
-x,y,z
x,1/2-y,z
1/2+x,1/2+y,1/2+z
1/2-x,-y,1/2+z
1/2+x,1/2-y,1/2-z
1/2-x,y,1/2-z
1/2-x,1/2-y,1/2-z
1/2+x,y,1/2-z
1/2-x,1/2+y,1/2+z
1/2+x,-y,1/2+z
loop_
_atom_site_type_symbol
_atom_site_label
_atom_site_fract_x
_atom_site_fract_y
_atom_site_fract_z
Si Si1 0.181500 0.965911 0.046559
Si Si2 0.676268 0.565638 0.611050
Si Si3 0.177376 0.750000 0.542616
Si Si4 0.679842 0.363929 0.196632
Si Si5 0.176241 0.860313 0.990715
Si Si6 0.319023 0.250000 0.347365
O O1 0.000000 0.969618 0.040091
O O2 0.225418 0.999699 0.098552
O O3 0.227854 0.899441 0.039695
O O4 0.259146 0.000000 0.000000
O O5 0.500000 0.568894 0.629545
O O6 0.785950 0.587171 0.655611
O O7 0.698178 0.604345 0.561188
O O8 0.215715 0.805369 0.509188
O O9 0.278882 0.750000 0.593274
O O10 0.000000 0.750000 0.558153
O O11 0.500000 0.355164 0.201968
O O12 0.750000 0.383936 0.250000
O O13 0.753930 0.304962 0.180054
O O14 0.000000 0.840750 0.996247
O O15 0.500000 0.250000 0.341521
#
# Coordination Sequence:
#
# PCOD8301732 Si02
#       6
#    16  16   8  16  16   8
#     4   7  12  24  44  67  84 105 139 175 209 255
#     4   9  16  29  48  66  85 109 141 179 219 258
#     4  12  22  29  41  64  92 118 146 183 220 255
#     4  12  24  36  48  64  85 111 146 186 226 264
#     4   9  16  28  46  64  85 114 146 175 211 258
#     4  12  23  37  50  60  79 112 150 189 229 263
#
# _framework density 14.8728
#
# number of rings (size 3 to 8) (size 9 to 14) (size 15 to 20)
#    0.000    2.200    2.000    6.300    0.000    0.000 
#    0.000    1.000    0.000    3.600    0.000    0.000 
#    0.000    0.000    0.000    0.900    0.000   10.000 
#
# Total GULP energy -495634.079329 kJ/mol
# GULP energy per Si atom -12390.851983 kJ/mol
# Density = 1.483895 g / cm^3
# Si number density = 14.872800 Si / 1000 Ang^3
#
#
#
# Elastic Constant Matrix: (Units=GPa)
#
#
# Indices 1 2 3 4 5 6 
#
# 1 84.8291 34.9114 29.2451 0.0000 0.0000 0.0000
# 2 34.9114 85.0761 49.4495 0.0000 0.0000 0.0000
# 3 29.2451 49.4495 56.8641 0.0000 0.0000 0.0000
# 4 0.0000 0.0000 0.0000 -39.9497 0.0000 0.0000
# 5 0.0000 0.0000 0.0000 0.0000 18.1769 0.0000
# 6 0.0000 0.0000 0.0000 0.0000 0.0000 14.8572
#
#
#
# Elastic Compliance Matrix: (Units=1/GPa)
#
#
# Indices 1 2 3 4 5 6 
#
# 1 0.014781 -0.003330 -0.004706 0.000000 0.000000 0.000000
# 2 -0.003330 0.024518 -0.019608 0.000000 0.000000 0.000000
# 3 -0.004706 -0.019608 0.037057 0.000000 0.000000 0.000000
# 4 0.000000 0.000000 0.000000 -0.025031 0.000000 0.000000
# 5 0.000000 0.000000 0.000000 0.000000 0.055015 0.000000
# 6 0.000000 0.000000 0.000000 0.000000 0.000000 0.067308
#
#
# Mechanical properties :
#
#
# Convention : Reuss Voigt Hill
#
# Bulk Modulus (GPa) = 47.46574 50.44237 48.95406
# Shear Modulus (GPa) = 21.19013 6.16109 13.67561
#
# Velocity S-wave (km/s) = 3.77869 2.03753 3.03562
# Velocity P-wave (km/s) = 7.14295 6.28688 6.72854
#
# Compressibility (1/GPa) = 0.02106783
#
# Stress axis : x y z
#
# Youngs Moduli (GPa) = 67.65256 40.78676 26.98519
#
# Poissons Ratio (x) = 0.13583 0.12699
# Poissons Ratio (y) = 0.22531 0.52913
# Poissons Ratio (z) = 0.31837 0.79975
#
# Static dielectric constant tensor:
#      x y z
#    x 2.749490 0.000000 0.000000 
#    y 0.000000 3.174890 0.000000 
#    z 0.000000 0.000000 2.786420 
# 
# 
# High freq. dielectric constant tensor:
#      x y z
#    x 1.561060 0.000000 0.000000 
#    y 0.000000 1.564010 0.000000 
#    z 0.000000 0.000000 1.528090 
# 
# From -- ./inp_files/48986.got.cif
#   From: 2010.03.12/outbox.cif.g09.slc.cpg/sg74_25_cif.got.tgz:48986.got - 2010.04.16 15:46:19.
