data_PCOD8301770
_publ_section_title
;
Structure prediction by ZEFSAII (Michael W. Deem and Ramdas Pophale) SiO2 
 PCOD8301770
Probable space group: I M M A
;
_chemical_formula_sum "Si O2"
_cell_formula_units_Z 96
_cell_length_a 14.118924
_cell_length_b 14.276332
_cell_length_c 21.602938
_cell_angle_alpha 90.000000
_cell_angle_beta 90.000000
_cell_angle_gamma 90.000000
_cell_volume 4354.427447
_symmetry_space_group_name_H-M "I M M A"
_symmetry_group_IT_number 74
_symmetry_cell_setting 'orthorhombic'
loop_
_space_group_symop_operation_xyz
x,y,z
-x,1/2-y,z
x,-y,-z
-x,1/2+y,-z
-x,-y,-z
x,1/2+y,-z
-x,y,z
x,1/2-y,z
1/2+x,1/2+y,1/2+z
1/2-x,-y,1/2+z
1/2+x,1/2-y,1/2-z
1/2-x,y,1/2-z
1/2-x,1/2-y,1/2-z
1/2+x,y,1/2-z
1/2-x,1/2+y,1/2+z
1/2+x,-y,1/2+z
loop_
_atom_site_type_symbol
_atom_site_label
_atom_site_fract_x
_atom_site_fract_y
_atom_site_fract_z
Si Si1 0.396179 0.138839 0.967655
Si Si2 0.789153 0.638710 0.972652
Si Si3 0.613019 0.145033 0.831304
Si Si4 0.889002 0.358558 0.905398
Si Si5 0.111205 0.536850 0.214600
Si Si6 0.889780 0.855473 0.849847
O O1 0.500000 0.095359 0.982684
O O2 0.404914 0.250000 0.966702
O O3 0.356928 0.108990 0.899672
O O4 0.321090 0.106677 0.020136
O O5 0.799805 0.750000 0.972869
O O6 0.832495 0.602728 0.908404
O O7 0.844335 0.597802 0.032125
O O8 0.500000 0.145707 0.829464
O O9 0.651054 0.250000 0.818047
O O10 0.655875 0.074759 0.778943
O O11 0.862650 0.250000 0.898972
O O12 0.845645 0.408852 0.844685
O O13 0.000000 0.375926 0.910213
O O14 0.130578 0.425118 0.207671
O O15 0.000000 0.558096 0.216106
O O16 0.858285 0.750000 0.831322
O O17 0.000000 0.857312 0.868422
#
# Coordination Sequence:
#
# PCOD8301770 Si02
#       6
#    16  16  16  16  16  16
#     4   8  14  25  42  63  87 117 150 182 220 268
#     4   9  16  26  39  57  86 121 151 180 217 262
#     4   8  13  23  40  62  90 121 148 178 220 269
#     4   9  16  25  38  59  88 119 149 179 212 261
#     4   9  16  25  39  59  85 120 154 180 215 264
#     4   9  17  28  41  60  90 125 155 183 216 259
#
# _framework density 22.046527000000001
#
# number of rings (size 3 to 8) (size 9 to 14) (size 15 to 20)
#    0.000    3.333    0.000    2.000    0.000    4.667 
#    0.000    3.333    0.000    4.000    0.000    2.333 
#    0.000    8.000    0.000    2.667    0.000    1.667 
#
# Total GULP energy -594868.012575 kJ/mol
# GULP energy per Si atom -12393.083595 kJ/mol
# Density = 2.199635 g / cm^3
# Si number density = 22.046527 Si / 1000 Ang^3
#
#
#
# Elastic Constant Matrix: (Units=GPa)
#
#
# Indices 1 2 3 4 5 6 
#
# 1 45.2730 17.1450 34.4470 0.0000 0.0000 0.0000
# 2 17.1450 63.4901 35.6035 0.0000 0.0000 0.0000
# 3 34.4470 35.6035 79.2982 0.0000 0.0000 0.0000
# 4 0.0000 0.0000 0.0000 22.8128 0.0000 0.0000
# 5 0.0000 0.0000 0.0000 0.0000 1.0582 0.0000
# 6 0.0000 0.0000 0.0000 0.0000 0.0000 6.2724
#
#
#
# Elastic Compliance Matrix: (Units=1/GPa)
#
#
# Indices 1 2 3 4 5 6 
#
# 1 0.033058 -0.001168 -0.013836 0.000000 0.000000 0.000000
# 2 -0.001168 0.021092 -0.008962 0.000000 0.000000 0.000000
# 3 -0.013836 -0.008962 0.022645 0.000000 0.000000 0.000000
# 4 0.000000 0.000000 0.000000 0.043835 0.000000 0.000000
# 5 0.000000 0.000000 0.000000 0.000000 0.944957 0.000000
# 6 0.000000 0.000000 0.000000 0.000000 0.000000 0.159429
#
#
# Mechanical properties :
#
#
# Convention : Reuss Voigt Hill
#
# Bulk Modulus (GPa) = 34.64801 40.27248 37.46024
# Shear Modulus (GPa) = 3.89843 12.75308 8.32575
#
# Velocity S-wave (km/s) = 1.33121 2.40773 1.94542
# Velocity P-wave (km/s) = 4.25591 5.10257 4.69835
#
# Compressibility (1/GPa) = 0.02886169
#
# Stress axis : x y z
#
# Youngs Moduli (GPa) = 30.24999 47.41181 44.16034
#
# Poissons Ratio (x) = 0.05539 0.61099
# Poissons Ratio (y) = 0.03534 0.39578
# Poissons Ratio (z) = 0.41853 0.42492
#
# Static dielectric constant tensor:
#      x y z
#    x 3.912200 0.000000 0.000000 
#    y 0.000000 3.775260 0.000000 
#    z 0.000000 0.000000 4.026560 
# 
# 
# High freq. dielectric constant tensor:
#      x y z
#    x 1.857780 0.000000 0.000000 
#    y 0.000000 1.847660 0.000000 
#    z 0.000000 0.000000 1.846510 
# 
# From -- ./inp_files/51855.got.cif
#   From: 2010.03.12/outbox.cif.g09.slc.cpg/sg74_26_cif.got.tgz:51855.got - 2010.04.16 15:46:19.
