data_PCOD8301188
_publ_section_title
;
Structure prediction by ZEFSAII (Michael W. Deem and Ramdas Pophale) SiO2 
 PCOD8301188
Probable space group: I M M A
;
_chemical_formula_sum "Si O2"
_cell_formula_units_Z 88
_cell_length_a 24.939862
_cell_length_b 15.139110
_cell_length_c 11.687699
_cell_angle_alpha 90.000000
_cell_angle_beta 90.000000
_cell_angle_gamma 90.000000
_cell_volume 4412.893121
_symmetry_space_group_name_H-M "I M M A"
_symmetry_group_IT_number 74
_symmetry_cell_setting 'orthorhombic'
loop_
_space_group_symop_operation_xyz
x,y,z
-x,1/2-y,z
x,-y,-z
-x,1/2+y,-z
-x,-y,-z
x,1/2+y,-z
-x,y,z
x,1/2-y,z
1/2+x,1/2+y,1/2+z
1/2-x,-y,1/2+z
1/2+x,1/2-y,1/2-z
1/2-x,y,1/2-z
1/2-x,1/2-y,1/2-z
1/2+x,y,1/2-z
1/2-x,1/2+y,1/2+z
1/2+x,-y,1/2+z
loop_
_atom_site_type_symbol
_atom_site_label
_atom_site_fract_x
_atom_site_fract_y
_atom_site_fract_z
Si Si1 0.123605 0.250000 0.916792
Si Si2 0.251385 0.250000 0.615945
Si Si3 0.438180 0.750000 0.178702
Si Si4 0.358059 0.349681 0.199609
Si Si5 0.140140 0.909988 0.939470
Si Si6 0.266142 0.596397 0.960669
Si Si7 0.062090 0.396814 0.493532
O O1 0.187096 0.250000 0.915034
O O2 0.098199 0.250000 0.791359
O O3 0.107566 0.163204 0.988269
O O4 0.250000 0.250000 0.750000
O O5 0.221219 0.335600 0.564166
O O6 0.500000 0.750000 0.216927
O O7 0.425511 0.659835 0.108213
O O8 0.350974 0.250000 0.244476
O O9 0.377495 0.409157 0.306817
O O10 0.300915 0.380989 0.150489
O O11 0.404137 0.352575 0.105885
O O12 0.203884 0.896649 0.931932
O O13 0.123854 0.000000 0.000000
O O14 0.283880 0.500000 0.000000
O O15 0.078735 0.500000 0.500000
O O16 0.000000 0.387592 0.461232
#
# Coordination Sequence:
#
# PCOD8301188 Si02
#       7
#     8   8   8  16  16  16  16
#     4  10  22  38  59  81 119 159 194 235 301 347
#     4  10  22  35  56  85 125 157 192 247 294 350
#     4  10  22  41  65  88 117 153 193 247 301 362
#     4  12  22  37  66  87 120 160 204 246 300 355
#     4  10  23  40  57  88 123 162 200 245 290 353
#     4  10  22  38  57  89 122 161 206 242 294 350
#     4  10  23  42  63  90 118 148 193 252 309 351
#
# _framework density 19.941566999999999
#
# number of rings (size 3 to 8) (size 9 to 14) (size 15 to 20)
#    0.000    1.636    2.727    1.091    5.091    5.091 
#    0.000    0.909    0.000    1.091    0.000    0.000 
#    0.000    0.000    0.000    0.000    0.000    0.000 
#
# Total GULP energy -545519.440183 kJ/mol
# GULP energy per Si atom -12398.169095 kJ/mol
# Density = 1.989618 g / cm^3
# Si number density = 19.941567 Si / 1000 Ang^3
#
#
#
# Elastic Constant Matrix: (Units=GPa)
#
#
# Indices 1 2 3 4 5 6 
#
# 1 40.1017 26.4618 24.4242 0.0000 0.0000 0.0000
# 2 26.4618 164.5945 72.4229 0.0000 0.0000 0.0000
# 3 24.4242 72.4229 148.2651 0.0000 0.0000 0.0000
# 4 0.0000 0.0000 0.0000 33.4072 0.0000 0.0000
# 5 0.0000 0.0000 0.0000 0.0000 22.3554 0.0000
# 6 0.0000 0.0000 0.0000 0.0000 0.0000 12.9321
#
#
#
# Elastic Compliance Matrix: (Units=1/GPa)
#
#
# Indices 1 2 3 4 5 6 
#
# 1 0.029033 -0.003265 -0.003188 0.000000 0.000000 0.000000
# 2 -0.003265 0.008106 -0.003422 0.000000 0.000000 0.000000
# 3 -0.003188 -0.003422 0.008941 0.000000 0.000000 0.000000
# 4 0.000000 0.000000 0.000000 0.029934 0.000000 0.000000
# 5 0.000000 0.000000 0.000000 0.000000 0.044732 0.000000
# 6 0.000000 0.000000 0.000000 0.000000 0.000000 0.077327
#
#
# Mechanical properties :
#
#
# Convention : Reuss Voigt Hill
#
# Bulk Modulus (GPa) = 37.97814 66.61990 52.29902
# Shear Modulus (GPa) = 22.06551 29.04910 25.55731
#
# Velocity S-wave (km/s) = 3.33003 3.82083 3.58384
# Velocity P-wave (km/s) = 5.81993 7.27634 6.58850
#
# Compressibility (1/GPa) = 0.02633094
#
# Stress axis : x y z
#
# Youngs Moduli (GPa) = 34.44411 123.36530 111.84171
#
# Poissons Ratio (x) = 0.40277 0.35653
# Poissons Ratio (y) = 0.11246 0.38269
# Poissons Ratio (z) = 0.10980 0.42212
#
# Static dielectric constant tensor:
#      x y z
#    x 3.329800 0.000000 0.000000 
#    y 0.000000 4.093820 0.000000 
#    z 0.000000 0.000000 3.244200 
# 
# 
# High freq. dielectric constant tensor:
#      x y z
#    x 1.754610 0.000000 0.000000 
#    y 0.000000 1.794680 0.000000 
#    z 0.000000 0.000000 1.779950 
# 
# From -- ./inp_files/26184.got.cif
#   From: 2010.03.12/outbox.cif.g09.slc.cpg/sg74_14_cif.got.tgz:26184.got - 2010.04.16 15:46:19.
