data_PCOD8301990
_publ_section_title
;
Structure prediction by ZEFSAII (Michael W. Deem and Ramdas Pophale) SiO2 
 PCOD8301990
Probable space group: P 42
;
_chemical_formula_sum "Si O2"
_cell_formula_units_Z 26
_cell_length_a 12.170773
_cell_length_b 12.170773
_cell_length_c 8.775789
_cell_angle_alpha 90.000000
_cell_angle_beta 90.000000
_cell_angle_gamma 90.000000
_cell_volume 1299.937576
_symmetry_space_group_name_H-M "P 42"
_symmetry_group_IT_number 77
_symmetry_cell_setting 'tetragonal'
loop_
_space_group_symop_operation_xyz
x,y,z
-y,x,1/2+z
-x,-y,z
y,-x,1/2+z
loop_
_atom_site_type_symbol
_atom_site_label
_atom_site_fract_x
_atom_site_fract_y
_atom_site_fract_z
Si Si1 0.267619 0.459596 0.867300
Si Si2 0.926739 0.146894 0.213922
Si Si3 0.853106 0.926739 0.352982
Si Si4 0.500000 0.500000 0.783452
Si Si5 0.323254 0.218662 0.854380
Si Si6 0.540404 0.267619 0.699604
Si Si7 0.676746 0.781338 0.212524
O O1 0.394742 0.491406 0.892337
O O2 0.265524 0.334115 0.805143
O O3 0.212066 0.546634 0.752518
O O4 0.210284 0.466919 0.033452
O O5 0.877051 0.264019 0.260420
O O6 0.051946 0.143509 0.270970
O O7 0.856490 0.051946 0.295934
O O8 0.923419 0.130234 0.033452
O O9 0.735981 0.877051 0.306484
O O10 0.508594 0.394742 0.674567
O O11 0.453366 0.212066 0.814387
O O12 0.310691 0.198990 0.033452
O O13 0.665885 0.265524 0.761761
#
# Coordination Sequence:
#
# PCOD8301990 Si02
#       7
#     4   4   4   2   4   4   4
#     4   9  17  29  48  75 108 145 180 217 262 312
#     4  11  22  39  62  83 105 134 175 222 268 318
#     4  11  22  39  62  83 105 134 175 222 268 318
#     4   8  14  24  44  70 102 140 184 222 254 304
#     4  10  20  34  53  80 113 145 181 221 264 315
#     4   9  17  29  48  75 108 145 180 217 262 312
#     4  10  20  34  53  80 113 145 181 221 264 315
#
# _framework density 20.000962000000001
#
# number of rings (size 3 to 8) (size 9 to 14) (size 15 to 20)
#    0.000    2.154    0.000    5.077    0.000    8.615 
#    0.000    1.538    0.000    9.231    0.000    0.000 
#    0.000    0.000    0.000    0.000    0.000    0.000 
#
# Total GULP energy -322253.252852 kJ/mol
# GULP energy per Si atom -12394.355879 kJ/mol
# Density = 1.995544 g / cm^3
# Si number density = 20.000962 Si / 1000 Ang^3
#
#
#
# Elastic Constant Matrix: (Units=GPa)
#
#
# Indices 1 2 3 4 5 6 
#
# 1 21.1261 -7.2792 8.5642 0.0000 0.0000 0.9289
# 2 -7.2792 21.1261 8.5642 0.0000 0.0000 -0.9289
# 3 8.5642 8.5642 107.4300 0.0000 0.0000 0.0000
# 4 0.0000 0.0000 0.0000 26.5258 0.0000 0.0000
# 5 0.0000 0.0000 0.0000 0.0000 26.5258 0.0000
# 6 0.9289 -0.9289 0.0000 0.0000 0.0000 33.2924
#
#
#
# Elastic Compliance Matrix: (Units=1/GPa)
#
#
# Indices 1 2 3 4 5 6 
#
# 1 0.057694 0.022425 -0.006387 0.000000 0.000000 -0.000984
# 2 0.022425 0.057694 -0.006387 0.000000 0.000000 0.000984
# 3 -0.006387 -0.006387 0.010327 0.000000 0.000000 0.000000
# 4 0.000000 0.000000 0.000000 0.037699 0.000000 0.000000
# 5 0.000000 0.000000 0.000000 0.000000 0.037699 0.000000
# 6 -0.000984 0.000984 0.000000 0.000000 0.000000 0.030092
#
#
# Mechanical properties :
#
#
# Convention : Reuss Voigt Hill
#
# Bulk Modulus (GPa) = 6.89577 18.82007 12.85792
# Shear Modulus (GPa) = 19.21293 26.59101 22.90197
#
# Velocity S-wave (km/s) = 3.10272 3.65017 3.38752
# Velocity P-wave (km/s) = 4.03621 5.21488 4.66294
#
# Compressibility (1/GPa) = 0.14501635
#
# Stress axis : x y z
#
# Youngs Moduli (GPa) = 17.33286 17.33286 96.83625
#
# Poissons Ratio (x) = -0.38869 0.61849
# Poissons Ratio (y) = -0.38869 0.61849
# Poissons Ratio (z) = 0.11070 0.11070
#
# Static dielectric constant tensor:
#      x y z
#    x 3.496720 0.000000 0.000000 
#    y 0.000000 3.496720 0.000000 
#    z 0.000000 0.000000 3.485870 
# 
# 
# High freq. dielectric constant tensor:
#      x y z
#    x 1.761360 0.000000 0.000000 
#    y 0.000000 1.761360 0.000000 
#    z 0.000000 0.000000 1.784910 
# 
# From -- ./inp_files/470.got.cif
#   From: 2010.03.12/outbox.cif.g09.slc.cpg/sg77_cif.got.tgz:470.got - 2010.04.16 16:36:19.
