data_PCOD8301658
_publ_section_title
;
Structure prediction by ZEFSAII (Michael W. Deem and Ramdas Pophale) SiO2 
 PCOD8301658
Probable space group: I M M A
;
_chemical_formula_sum "Si O2"
_cell_formula_units_Z 56
_cell_length_a 8.824099
_cell_length_b 36.343805
_cell_length_c 9.041986
_cell_angle_alpha 90.000000
_cell_angle_beta 90.000000
_cell_angle_gamma 90.000000
_cell_volume 2899.776966
_symmetry_space_group_name_H-M "I M M A"
_symmetry_group_IT_number 74
_symmetry_cell_setting 'orthorhombic'
loop_
_space_group_symop_operation_xyz
x,y,z
-x,1/2-y,z
x,-y,-z
-x,1/2+y,-z
-x,-y,-z
x,1/2+y,-z
-x,y,z
x,1/2-y,z
1/2+x,1/2+y,1/2+z
1/2-x,-y,1/2+z
1/2+x,1/2-y,1/2-z
1/2-x,y,1/2-z
1/2-x,1/2-y,1/2-z
1/2+x,y,1/2-z
1/2-x,1/2+y,1/2+z
1/2+x,-y,1/2+z
loop_
_atom_site_type_symbol
_atom_site_label
_atom_site_fract_x
_atom_site_fract_y
_atom_site_fract_z
Si Si1 0.325516 0.036603 0.594241
Si Si2 0.679490 0.899208 0.909535
Si Si3 0.178576 0.829386 0.410807
Si Si4 0.676762 0.750000 0.092617
O O1 0.500000 0.048334 0.614372
O O2 0.250000 0.028081 0.750000
O O3 0.234775 0.069185 0.517773
O O4 0.310280 0.000000 0.500000
O O5 0.500000 0.901060 0.895177
O O6 0.750000 0.905168 0.750000
O O7 0.736408 0.860231 0.975559
O O8 0.250000 0.835513 0.250000
O O9 0.223486 0.789099 0.482646
O O10 0.000000 0.832924 0.388639
O O11 0.500000 0.750000 0.117897
O O12 0.750000 0.750000 0.250000
#
# Coordination Sequence:
#
# PCOD8301658 Si02
#       4
#    16  16  16   8
#     4  11  24  41  62  87 114 145 181 222 269 322
#     4  11  23  38  56  80 111 147 186 228 275 325
#     4   9  18  32  53  79 106 139 179 224 272 324
#     4   8  14  28  49  74 104 136 174 220 269 320
#
# _framework density 19.311831999999999
#
# number of rings (size 3 to 8) (size 9 to 14) (size 15 to 20)
#    0.000    2.000    0.000    3.429    0.000    9.143 
#    0.000    0.714    0.000    0.000    0.000    0.000 
#    0.000    0.000    0.000    0.000    0.000    0.000 
#
# Total GULP energy -347027.105591 kJ/mol
# GULP energy per Si atom -12393.825200 kJ/mol
# Density = 1.926788 g / cm^3
# Si number density = 19.311832 Si / 1000 Ang^3
#
#
#
# Elastic Constant Matrix: (Units=GPa)
#
#
# Indices 1 2 3 4 5 6 
#
# 1 64.7040 42.0688 37.0966 0.0005 0.0004 0.0004
# 2 42.0688 127.6398 37.6786 0.0033 -0.0005 0.0010
# 3 37.0966 37.6786 103.2212 0.0038 -0.0012 0.0003
# 4 0.0005 0.0033 0.0038 27.2668 0.0008 0.0021
# 5 0.0004 -0.0005 -0.0012 0.0008 26.8847 -0.0013
# 6 0.0004 0.0010 0.0003 0.0021 -0.0013 47.1275
#
#
#
# Elastic Compliance Matrix: (Units=1/GPa)
#
#
# Indices 1 2 3 4 5 6 
#
# 1 0.022611 -0.005664 -0.006059 0.000001 -0.000001 0.000000
# 2 -0.005664 0.010199 -0.001688 -0.000001 0.000000 0.000000
# 3 -0.006059 -0.001688 0.012481 -0.000001 0.000001 0.000000
# 4 0.000001 -0.000001 -0.000001 0.036675 -0.000001 -0.000002
# 5 -0.000001 0.000000 0.000001 -0.000001 0.037196 0.000001
# 6 0.000000 0.000000 0.000000 -0.000002 0.000001 0.021219
#
#
# Mechanical properties :
#
#
# Convention : Reuss Voigt Hill
#
# Bulk Modulus (GPa) = 54.13704 58.80590 56.47147
# Shear Modulus (GPa) = 28.84187 32.17053 30.50620
#
# Velocity S-wave (km/s) = 3.86875 4.08590 3.97881
# Velocity P-wave (km/s) = 6.93183 7.26473 7.10023
#
# Compressibility (1/GPa) = 0.01847164
#
# Stress axis : x y z
#
# Youngs Moduli (GPa) = 44.22601 98.04442 80.11937
#
# Poissons Ratio (x) = 0.55531 0.48542
# Poissons Ratio (y) = 0.25049 0.13520
# Poissons Ratio (z) = 0.26795 0.16545
#
# Static dielectric constant tensor:
#      x y z
#    x 3.583400 0.000000 0.000000 
#    y 0.000000 4.347860 0.000000 
#    z 0.000000 0.000000 3.358550 
# 
# 
# High freq. dielectric constant tensor:
#      x y z
#    x 1.757090 0.000000 0.000000 
#    y 0.000000 1.781870 0.000000 
#    z 0.000000 0.000000 1.731650 
# 
# From -- ./inp_files/17469.got.cif
#   From: 2010.03.12/outbox.cif.g09.slc.cpg/sg74_9_cif.got.tgz:17469.got - 2010.04.16 15:46:19.
