data_PCOD8301637
_publ_section_title
;
Structure prediction by ZEFSAII (Michael W. Deem and Ramdas Pophale) SiO2 
 PCOD8301637
Probable space group: I M M A
;
_chemical_formula_sum "Si O2"
_cell_formula_units_Z 96
_cell_length_a 19.129006
_cell_length_b 25.126549
_cell_length_c 9.776071
_cell_angle_alpha 90.000000
_cell_angle_beta 90.000000
_cell_angle_gamma 90.000000
_cell_volume 4698.828509
_symmetry_space_group_name_H-M "I M M A"
_symmetry_group_IT_number 74
_symmetry_cell_setting 'orthorhombic'
loop_
_space_group_symop_operation_xyz
x,y,z
-x,1/2-y,z
x,-y,-z
-x,1/2+y,-z
-x,-y,-z
x,1/2+y,-z
-x,y,z
x,1/2-y,z
1/2+x,1/2+y,1/2+z
1/2-x,-y,1/2+z
1/2+x,1/2-y,1/2-z
1/2-x,y,1/2-z
1/2-x,1/2-y,1/2-z
1/2+x,y,1/2-z
1/2-x,1/2+y,1/2+z
1/2+x,-y,1/2+z
loop_
_atom_site_type_symbol
_atom_site_label
_atom_site_fract_x
_atom_site_fract_y
_atom_site_fract_z
Si Si1 0.677788 0.858654 0.811763
Si Si2 0.847998 0.351964 0.859718
Si Si3 0.697151 0.812031 0.086604
Si Si4 0.578969 0.190210 0.394553
Si Si5 0.417402 0.466349 0.637506
Si Si6 0.815670 0.982411 0.657272
O O1 0.750000 0.836956 0.750000
O O2 0.618081 0.851669 0.700331
O O3 0.682227 0.919445 0.852208
O O4 0.659190 0.822888 0.943421
O O5 0.767320 0.347643 0.906923
O O6 0.855581 0.332131 0.703959
O O7 0.876302 0.411269 0.880158
O O8 0.893487 0.312260 0.951135
O O9 0.715471 0.750000 0.106007
O O10 0.500000 0.171237 0.393203
O O11 0.588431 0.250000 0.338965
O O12 0.403883 0.500000 0.500000
O O13 0.500000 0.456921 0.661587
O O14 0.386184 0.495907 0.771138
O O15 0.750000 0.001891 0.750000
O O16 0.808310 0.000000 0.500000
#
# Coordination Sequence:
#
# PCOD8301637 Si02
#       6
#    16  16  16  16  16  16
#     4  11  23  40  63  97 125 168 214 269 324 380
#     4  11  22  39  63  95 128 168 216 263 315 384
#     4  11  23  39  64  97 133 169 212 270 328 380
#     4  11  23  40  64  92 128 172 215 264 321 384
#     4  11  25  43  66  95 133 177 217 266 325 390
#     4  11  25  41  65  96 128 168 216 273 326 382
#
# _framework density 20.430624000000002
#
# number of rings (size 3 to 8) (size 9 to 14) (size 15 to 20)
#    0.000    1.000    1.667    5.500    7.000    3.000 
#    0.000    3.333    0.000    4.000    0.000    0.000 
#    0.000    0.000    0.000    0.000    0.000    0.000 
#
# Total GULP energy -595328.459128 kJ/mol
# GULP energy per Si atom -12402.676232 kJ/mol
# Density = 2.038412 g / cm^3
# Si number density = 20.430624 Si / 1000 Ang^3
#
#
#
# Elastic Constant Matrix: (Units=GPa)
#
#
# Indices 1 2 3 4 5 6 
#
# 1 121.6748 50.8881 70.4129 0.0000 0.0000 0.0000
# 2 50.8881 92.3312 56.4942 0.0000 0.0000 0.0000
# 3 70.4129 56.4942 170.1097 0.0000 0.0000 0.0000
# 4 0.0000 0.0000 0.0000 37.2970 0.0000 0.0000
# 5 0.0000 0.0000 0.0000 0.0000 28.4225 0.0000
# 6 0.0000 0.0000 0.0000 0.0000 0.0000 21.3057
#
#
#
# Elastic Compliance Matrix: (Units=1/GPa)
#
#
# Indices 1 2 3 4 5 6 
#
# 1 0.012159 -0.004545 -0.003523 0.000000 0.000000 0.000000
# 2 -0.004545 0.015292 -0.003197 0.000000 0.000000 0.000000
# 3 -0.003523 -0.003197 0.008399 0.000000 0.000000 0.000000
# 4 0.000000 0.000000 0.000000 0.026812 0.000000 0.000000
# 5 0.000000 0.000000 0.000000 0.000000 0.035183 0.000000
# 6 0.000000 0.000000 0.000000 0.000000 0.000000 0.046936
#
#
# Mechanical properties :
#
#
# Convention : Reuss Voigt Hill
#
# Bulk Modulus (GPa) = 75.08747 82.18956 78.63851
# Shear Modulus (GPa) = 29.11198 31.15975 30.13587
#
# Velocity S-wave (km/s) = 3.77891 3.90955 3.84478
# Velocity P-wave (km/s) = 7.47478 7.79073 7.63439
#
# Compressibility (1/GPa) = 0.01331780
#
# Stress axis : x y z
#
# Youngs Moduli (GPa) = 82.24686 65.39391 119.06678
#
# Poissons Ratio (x) = 0.29724 0.41949
# Poissons Ratio (y) = 0.37385 0.38066
# Poissons Ratio (z) = 0.28977 0.20907
#
# Static dielectric constant tensor:
#      x y z
#    x 3.682530 0.000000 0.000000 
#    y 0.000000 3.694910 0.000000 
#    z 0.000000 0.000000 3.924810 
# 
# 
# High freq. dielectric constant tensor:
#      x y z
#    x 1.783760 0.000000 0.000000 
#    y 0.000000 1.810160 0.000000 
#    z 0.000000 0.000000 1.814090 
# 
# From -- ./inp_files/12699.got.cif
#   From: 2010.03.12/outbox.cif.g09.slc.cpg/sg74_7_cif.got.tgz:12699.got - 2010.04.16 15:46:19.
