data_PCOD8301741
_publ_section_title
;
Structure prediction by ZEFSAII (Michael W. Deem and Ramdas Pophale) SiO2 
 PCOD8301741
Probable space group: I M M A
;
_chemical_formula_sum "Si O2"
_cell_formula_units_Z 88
_cell_length_a 19.261458
_cell_length_b 9.286329
_cell_length_c 27.918302
_cell_angle_alpha 90.000000
_cell_angle_beta 90.000000
_cell_angle_gamma 90.000000
_cell_volume 4993.697431
_symmetry_space_group_name_H-M "I M M A"
_symmetry_group_IT_number 74
_symmetry_cell_setting 'orthorhombic'
loop_
_space_group_symop_operation_xyz
x,y,z
-x,1/2-y,z
x,-y,-z
-x,1/2+y,-z
-x,-y,-z
x,1/2+y,-z
-x,y,z
x,1/2-y,z
1/2+x,1/2+y,1/2+z
1/2-x,-y,1/2+z
1/2+x,1/2-y,1/2-z
1/2-x,y,1/2-z
1/2-x,1/2-y,1/2-z
1/2+x,y,1/2-z
1/2-x,1/2+y,1/2+z
1/2+x,-y,1/2+z
loop_
_atom_site_type_symbol
_atom_site_label
_atom_site_fract_x
_atom_site_fract_y
_atom_site_fract_z
Si Si1 0.000000 0.418756 0.049247
Si Si2 0.685402 0.920342 0.149735
Si Si3 0.877400 0.590723 0.086393
Si Si4 0.577833 0.920678 0.226369
Si Si5 0.675247 0.911241 0.308268
Si Si6 0.226935 0.416839 0.547485
O O1 0.931607 0.464756 0.077412
O O2 0.000000 0.250000 0.041431
O O3 0.000000 0.500000 0.000000
O O4 0.699862 0.750000 0.146522
O O5 0.612558 0.958695 0.174931
O O6 0.749282 0.985218 0.181993
O O7 0.686099 0.977107 0.094744
O O8 0.905128 0.750000 0.071344
O O9 0.866274 0.589878 0.142675
O O10 0.808252 0.556732 0.056532
O O11 0.500000 0.987531 0.228098
O O12 0.572320 0.750000 0.233033
O O13 0.626974 0.988780 0.268109
O O14 0.688337 0.750000 0.289040
O O15 0.202167 0.500000 0.500000
O O16 0.210172 0.250000 0.539001
#
# Coordination Sequence:
#
# PCOD8301741 Si02
#       6
#     8  16  16  16  16  16
#     4  12  24  34  44  60  86 122 156 188 231 270
#     4   8  14  25  38  57  89 120 146 180 225 270
#     4   9  18  31  46  64  88 116 149 188 226 267
#     4   9  15  21  35  62  92 120 147 178 221 273
#     4   8  14  24  40  61  86 118 148 178 219 267
#     4   9  17  29  46  66  86 114 149 188 231 269
#
# _framework density 17.622214
#
# number of rings (size 3 to 8) (size 9 to 14) (size 15 to 20)
#    0.000    3.091    0.000    4.091    1.273    4.364 
#    0.000    0.000    0.000    0.545    0.000    1.273 
#    0.000    5.818    0.000    0.000    0.000    0.000 
#
# Total GULP energy -545146.277457 kJ/mol
# GULP energy per Si atom -12389.688124 kJ/mol
# Density = 1.758210 g / cm^3
# Si number density = 17.622214 Si / 1000 Ang^3
#
#
#
# Elastic Constant Matrix: (Units=GPa)
#
#
# Indices 1 2 3 4 5 6 
#
# 1 90.4515 15.6312 60.8224 0.0000 0.0000 0.0000
# 2 15.6312 39.7146 17.6058 0.0000 0.0000 0.0000
# 3 60.8224 17.6058 122.1889 0.0000 0.0000 0.0000
# 4 0.0000 0.0000 0.0000 17.2604 0.0000 0.0000
# 5 0.0000 0.0000 0.0000 0.0000 16.6920 0.0000
# 6 0.0000 0.0000 0.0000 0.0000 0.0000 7.0262
#
#
#
# Elastic Compliance Matrix: (Units=1/GPa)
#
#
# Indices 1 2 3 4 5 6 
#
# 1 0.016976 -0.003136 -0.007998 0.000000 0.000000 0.000000
# 2 -0.003136 0.027477 -0.002398 0.000000 0.000000 0.000000
# 3 -0.007998 -0.002398 0.012511 0.000000 0.000000 0.000000
# 4 0.000000 0.000000 0.000000 0.057936 0.000000 0.000000
# 5 0.000000 0.000000 0.000000 0.000000 0.059909 0.000000
# 6 0.000000 0.000000 0.000000 0.000000 0.000000 0.142324
#
#
# Mechanical properties :
#
#
# Convention : Reuss Voigt Hill
#
# Bulk Modulus (GPa) = 33.44559 48.94152 41.19355
# Shear Modulus (GPa) = 14.11776 18.74878 16.43327
#
# Velocity S-wave (km/s) = 2.83350 3.26533 3.05705
# Velocity P-wave (km/s) = 5.45210 6.48455 5.99061
#
# Compressibility (1/GPa) = 0.02989931
#
# Stress axis : x y z
#
# Youngs Moduli (GPa) = 58.90714 36.39408 79.93008
#
# Poissons Ratio (x) = 0.11412 0.63931
# Poissons Ratio (y) = 0.18472 0.19169
# Poissons Ratio (z) = 0.47116 0.08728
#
# Static dielectric constant tensor:
#      x y z
#    x 3.220650 0.000000 0.000000 
#    y 0.000000 2.817150 0.000000 
#    z 0.000000 0.000000 3.399070 
# 
# 
# High freq. dielectric constant tensor:
#      x y z
#    x 1.667340 0.000000 0.000000 
#    y 0.000000 1.606790 0.000000 
#    z 0.000000 0.000000 1.694780 
# 
# From -- ./inp_files/70211.got.cif
#   From: 2010.03.12/outbox.cif.g09.slc.cpg/sg74_36_cif.got.tgz:70211.got - 2010.04.16 15:46:19.
