data_PCOD8301268
_publ_section_title
;
Structure prediction by ZEFSAII (Michael W. Deem and Ramdas Pophale) SiO2 
 PCOD8301268
Probable space group: I M M A
;
_chemical_formula_sum "Si O2"
_cell_formula_units_Z 72
_cell_length_a 17.666494
_cell_length_b 8.779771
_cell_length_c 23.624806
_cell_angle_alpha 90.000000
_cell_angle_beta 90.000000
_cell_angle_gamma 90.000000
_cell_volume 3664.391015
_symmetry_space_group_name_H-M "I M M A"
_symmetry_group_IT_number 74
_symmetry_cell_setting 'orthorhombic'
loop_
_space_group_symop_operation_xyz
x,y,z
-x,1/2-y,z
x,-y,-z
-x,1/2+y,-z
-x,-y,-z
x,1/2+y,-z
-x,y,z
x,1/2-y,z
1/2+x,1/2+y,1/2+z
1/2-x,-y,1/2+z
1/2+x,1/2-y,1/2-z
1/2-x,y,1/2-z
1/2-x,1/2-y,1/2-z
1/2+x,y,1/2-z
1/2-x,1/2+y,1/2+z
1/2+x,-y,1/2+z
loop_
_atom_site_type_symbol
_atom_site_label
_atom_site_fract_x
_atom_site_fract_y
_atom_site_fract_z
Si Si1 0.162543 0.074627 0.238152
Si Si2 0.912203 0.926349 0.344356
Si Si3 0.858835 0.428663 0.879268
Si Si4 0.795328 0.428727 0.561272
Si Si5 0.000000 0.428509 0.060835
O O1 0.145695 0.250000 0.222922
O O2 0.250000 0.046987 0.250000
O O3 0.112452 0.028505 0.291710
O O4 0.140274 0.965758 0.186844
O O5 0.894866 0.750000 0.330206
O O6 0.865847 0.978748 0.399740
O O7 0.000000 0.954119 0.357482
O O8 0.871864 0.250000 0.887939
O O9 0.781313 0.485311 0.908384
O O10 0.925848 0.521420 0.906679
O O11 0.805085 0.500000 0.500000
O O12 0.792869 0.250000 0.553023
O O13 0.000000 0.250000 0.054227
O O14 0.000000 0.500000 0.000000
#
# Coordination Sequence:
#
# PCOD8301268 Si02
#       5
#    16  16  16  16   8
#     4  11  23  39  62  92 124 159 202 257 314 368
#     4  10  22  41  63  89 123 164 207 253 306 371
#     4  11  23  41  65  91 122 166 211 254 312 374
#     4  10  22  39  62  90 119 158 206 253 304 367
#     4  12  26  44  64  92 130 166 209 260 311 374
#
# _framework density 19.648558000000001
#
# number of rings (size 3 to 8) (size 9 to 14) (size 15 to 20)
#    0.000    1.333    2.222    3.000    1.556    6.222 
#    0.000    0.000    0.000    0.000    0.000    0.000 
#    0.000    0.000    0.000    0.000    0.000    0.000 
#
# Total GULP energy -446602.200201 kJ/mol
# GULP energy per Si atom -12405.616672 kJ/mol
# Density = 1.960384 g / cm^3
# Si number density = 19.648558 Si / 1000 Ang^3
#
#
#
# Elastic Constant Matrix: (Units=GPa)
#
#
# Indices 1 2 3 4 5 6 
#
# 1 147.6619 48.4495 65.2053 0.0000 0.0000 0.0000
# 2 48.4495 80.8682 41.2957 0.0000 0.0000 0.0000
# 3 65.2053 41.2957 151.8962 0.0000 0.0000 0.0000
# 4 0.0000 0.0000 0.0000 41.6092 0.0000 0.0000
# 5 0.0000 0.0000 0.0000 0.0000 52.2582 0.0000
# 6 0.0000 0.0000 0.0000 0.0000 0.0000 107.7450
#
#
#
# Elastic Compliance Matrix: (Units=1/GPa)
#
#
# Indices 1 2 3 4 5 6 
#
# 1 0.009423 -0.004157 -0.002915 0.000000 0.000000 0.000000
# 2 -0.004157 0.016193 -0.002618 0.000000 0.000000 0.000000
# 3 -0.002915 -0.002618 0.008547 0.000000 0.000000 0.000000
# 4 0.000000 0.000000 0.000000 0.024033 0.000000 0.000000
# 5 0.000000 0.000000 0.000000 0.000000 0.019136 0.000000
# 6 0.000000 0.000000 0.000000 0.000000 0.000000 0.009281
#
#
# Mechanical properties :
#
#
# Convention : Reuss Voigt Hill
#
# Bulk Modulus (GPa) = 67.64498 76.70304 72.17401
# Shear Modulus (GPa) = 45.07704 55.35421 50.21563
#
# Velocity S-wave (km/s) = 4.79494 5.31350 5.06087
# Velocity P-wave (km/s) = 8.07202 8.76166 8.42390
#
# Compressibility (1/GPa) = 0.01478306
#
# Stress axis : x y z
#
# Youngs Moduli (GPa) = 106.11770 61.75414 117.00666
#
# Poissons Ratio (x) = 0.25672 0.34108
# Poissons Ratio (y) = 0.44115 0.30631
# Poissons Ratio (z) = 0.30934 0.16166
#
# Static dielectric constant tensor:
#      x y z
#    x 3.777720 0.000000 0.000000 
#    y 0.000000 3.585190 0.000000 
#    z 0.000000 0.000000 3.137190 
# 
# 
# High freq. dielectric constant tensor:
#      x y z
#    x 1.778040 0.000000 0.000000 
#    y 0.000000 1.767030 0.000000 
#    z 0.000000 0.000000 1.777340 
# 
# From -- ./inp_files/60609.got.cif
#   From: 2010.03.12/outbox.cif.g09.slc.cpg/sg74_31_cif.got.tgz:60609.got - 2010.04.16 15:46:19.
