data_PCOD8301577
_publ_section_title
;
Structure prediction by ZEFSAII (Michael W. Deem and Ramdas Pophale) SiO2 
 PCOD8301577
Probable space group: I M M A
;
_chemical_formula_sum "Si O2"
_cell_formula_units_Z 96
_cell_length_a 19.212732
_cell_length_b 25.096441
_cell_length_c 10.447900
_cell_angle_alpha 90.000000
_cell_angle_beta 90.000000
_cell_angle_gamma 90.000000
_cell_volume 5037.676429
_symmetry_space_group_name_H-M "I M M A"
_symmetry_group_IT_number 74
_symmetry_cell_setting 'orthorhombic'
loop_
_space_group_symop_operation_xyz
x,y,z
-x,1/2-y,z
x,-y,-z
-x,1/2+y,-z
-x,-y,-z
x,1/2+y,-z
-x,y,z
x,1/2-y,z
1/2+x,1/2+y,1/2+z
1/2-x,-y,1/2+z
1/2+x,1/2-y,1/2-z
1/2-x,y,1/2-z
1/2-x,1/2-y,1/2-z
1/2+x,y,1/2-z
1/2-x,1/2+y,1/2+z
1/2+x,-y,1/2+z
loop_
_atom_site_type_symbol
_atom_site_label
_atom_site_fract_x
_atom_site_fract_y
_atom_site_fract_z
Si Si1 0.419961 0.190279 0.115157
Si Si2 0.421627 0.510215 0.146150
Si Si3 0.223982 0.060870 0.043895
Si Si4 0.150911 0.089041 0.304564
Si Si5 0.829705 0.097933 0.789968
Si Si6 0.420776 0.188582 0.818312
O O1 0.500000 0.187030 0.157052
O O2 0.391437 0.250000 0.138353
O O3 0.375034 0.149909 0.200543
O O4 0.412560 0.174017 0.967068
O O5 0.500000 0.532131 0.164903
O O6 0.414914 0.450781 0.202586
O O7 0.368589 0.550121 0.216405
O O8 0.402129 0.500000 0.000000
O O9 0.193416 0.073007 0.181215
O O10 0.303912 0.080700 0.063563
O O11 0.174853 0.091446 0.942845
O O12 0.225048 0.000000 0.000000
O O13 0.750000 0.099001 0.750000
O O14 0.868190 0.153385 0.764289
O O15 0.500000 0.177156 0.774970
O O16 0.401625 0.250000 0.794133
#
# Coordination Sequence:
#
# PCOD8301577 Si02
#       6
#    16  16  16  16  16  16
#     4   9  18  36  62  89 115 148 196 249 298 349
#     4  11  22  35  56  85 114 148 197 247 291 356
#     4  11  23  39  55  83 116 158 196 241 304 360
#     4  11  21  38  60  80 115 156 198 241 301 362
#     4  12  22  36  58  85 116 152 194 242 300 360
#     4   9  19  37  60  86 118 153 193 246 301 349
#
# _framework density 19.056404000000001
#
# number of rings (size 3 to 8) (size 9 to 14) (size 15 to 20)
#    0.000    1.500    1.667    6.500    0.000    3.000 
#    0.000    7.500    0.000    2.000    0.000    0.000 
#    0.000    0.000    0.000    0.000    0.000    0.000 
#
# Total GULP energy -594786.221974 kJ/mol
# GULP energy per Si atom -12391.379624 kJ/mol
# Density = 1.901303 g / cm^3
# Si number density = 19.056404 Si / 1000 Ang^3
#
#
#
# Elastic Constant Matrix: (Units=GPa)
#
#
# Indices 1 2 3 4 5 6 
#
# 1 106.3176 61.2340 43.0737 0.0000 0.0000 0.0000
# 2 61.2340 134.6770 41.9508 0.0000 0.0000 0.0000
# 3 43.0737 41.9508 80.7798 0.0000 0.0000 0.0000
# 4 0.0000 0.0000 0.0000 32.4846 0.0000 0.0000
# 5 0.0000 0.0000 0.0000 0.0000 10.5726 0.0000
# 6 0.0000 0.0000 0.0000 0.0000 0.0000 48.1880
#
#
#
# Elastic Compliance Matrix: (Units=1/GPa)
#
#
# Indices 1 2 3 4 5 6 
#
# 1 0.014292 -0.004920 -0.005066 0.000000 0.000000 0.000000
# 2 -0.004920 0.010552 -0.002856 0.000000 0.000000 0.000000
# 3 -0.005066 -0.002856 0.016564 0.000000 0.000000 0.000000
# 4 0.000000 0.000000 0.000000 0.030784 0.000000 0.000000
# 5 0.000000 0.000000 0.000000 0.000000 0.094584 0.000000
# 6 0.000000 0.000000 0.000000 0.000000 0.000000 0.020752
#
#
# Mechanical properties :
#
#
# Convention : Reuss Voigt Hill
#
# Bulk Modulus (GPa) = 63.59951 68.25461 65.92706
# Shear Modulus (GPa) = 22.88823 29.95009 26.41916
#
# Velocity S-wave (km/s) = 3.46942 3.96871 3.72743
# Velocity P-wave (km/s) = 7.03534 7.54293 7.29355
#
# Compressibility (1/GPa) = 0.01572339
#
# Stress axis : x y z
#
# Youngs Moduli (GPa) = 69.96966 94.76878 60.37275
#
# Poissons Ratio (x) = 0.46629 0.30582
# Poissons Ratio (y) = 0.34427 0.17244
# Poissons Ratio (z) = 0.35444 0.27069
#
# Static dielectric constant tensor:
#      x y z
#    x 3.696760 0.000000 0.000000 
#    y 0.000000 3.507320 0.000000 
#    z 0.000000 0.000000 3.727670 
# 
# 
# High freq. dielectric constant tensor:
#      x y z
#    x 1.745510 0.000000 0.000000 
#    y 0.000000 1.744400 0.000000 
#    z 0.000000 0.000000 1.723850 
# 
# From -- ./inp_files/22625.got.cif
#   From: 2010.03.12/outbox.cif.g09.slc.cpg/sg74_12_cif.got.tgz:22625.got - 2010.04.16 15:46:19.
