data_PCOD8301711
_publ_section_title
;
Structure prediction by ZEFSAII (Michael W. Deem and Ramdas Pophale) SiO2 
 PCOD8301711
Probable space group: I M M A
;
_chemical_formula_sum "Si O2"
_cell_formula_units_Z 64
_cell_length_a 28.060374
_cell_length_b 10.128602
_cell_length_c 11.379336
_cell_angle_alpha 90.000000
_cell_angle_beta 90.000000
_cell_angle_gamma 90.000000
_cell_volume 3234.147942
_symmetry_space_group_name_H-M "I M M A"
_symmetry_group_IT_number 74
_symmetry_cell_setting 'orthorhombic'
loop_
_space_group_symop_operation_xyz
x,y,z
-x,1/2-y,z
x,-y,-z
-x,1/2+y,-z
-x,-y,-z
x,1/2+y,-z
-x,y,z
x,1/2-y,z
1/2+x,1/2+y,1/2+z
1/2-x,-y,1/2+z
1/2+x,1/2-y,1/2-z
1/2-x,y,1/2-z
1/2-x,1/2-y,1/2-z
1/2+x,y,1/2-z
1/2-x,1/2+y,1/2+z
1/2+x,-y,1/2+z
loop_
_atom_site_type_symbol
_atom_site_label
_atom_site_fract_x
_atom_site_fract_y
_atom_site_fract_z
Si Si1 0.553578 0.750000 0.767338
Si Si2 0.944332 0.250000 0.755225
Si Si3 0.911818 0.250000 0.022940
Si Si4 0.393284 0.996603 0.139156
Si Si5 0.804349 0.094662 0.766808
Si Si6 0.650595 0.000000 0.500000
O O1 0.500000 0.750000 0.819368
O O2 0.548733 0.750000 0.625485
O O3 0.583000 0.626451 0.811582
O O4 0.921807 0.376570 0.695498
O O5 0.000000 0.250000 0.730720
O O6 0.934921 0.250000 0.894483
O O7 0.881414 0.380937 0.046776
O O8 0.337823 0.985378 0.176296
O O9 0.397046 0.000000 0.000000
O O10 0.812589 0.250000 0.746238
O O11 0.750000 0.052185 0.750000
O O12 0.816225 0.056602 0.898957
#
# Coordination Sequence:
#
# PCOD8301711 Si02
#       6
#     8   8   8  16  16   8
#     4  12  26  42  65  99 133 169 217 277 327 382
#     4  12  24  44  69  93 129 181 225 265 333 398
#     4  12  21  42  68  96 134 162 222 272 331 386
#     4  12  25  44  64  96 134 172 223 271 323 393
#     4  11  24  44  69  98 131 175 218 270 338 396
#     4  12  20  42  69  96 132 170 209 280 330 380
#
# _framework density 19.788829
#
# number of rings (size 3 to 8) (size 9 to 14) (size 15 to 20)
#    0.000    0.250    7.500    1.875    1.750    3.000 
#    0.000    6.250    0.000    0.000    0.000    0.000 
#    0.000    0.000    0.000    0.000    0.000    0.000 
#
# Total GULP energy -396872.973333 kJ/mol
# GULP energy per Si atom -12402.280417 kJ/mol
# Density = 1.974379 g / cm^3
# Si number density = 19.788829 Si / 1000 Ang^3
#
#
#
# Elastic Constant Matrix: (Units=GPa)
#
#
# Indices 1 2 3 4 5 6 
#
# 1 162.7046 71.9203 50.9630 0.0000 0.0000 0.0000
# 2 71.9203 139.2254 30.8708 0.0000 0.0000 0.0000
# 3 50.9630 30.8708 148.9011 0.0000 0.0000 0.0000
# 4 0.0000 0.0000 0.0000 31.2296 0.0000 0.0000
# 5 0.0000 0.0000 0.0000 0.0000 -7.1403 0.0000
# 6 0.0000 0.0000 0.0000 0.0000 0.0000 62.4512
#
#
#
# Elastic Compliance Matrix: (Units=1/GPa)
#
#
# Indices 1 2 3 4 5 6 
#
# 1 0.008553 -0.003951 -0.002108 0.000000 0.000000 0.000000
# 2 -0.003951 0.009354 -0.000587 0.000000 0.000000 0.000000
# 3 -0.002108 -0.000587 0.007559 0.000000 0.000000 0.000000
# 4 0.000000 0.000000 0.000000 0.032021 0.000000 0.000000
# 5 0.000000 0.000000 0.000000 0.000000 -0.140051 0.000000
# 6 0.000000 0.000000 0.000000 0.000000 0.000000 0.016012
#
#
# Mechanical properties :
#
#
# Convention : Reuss Voigt Hill
#
# Bulk Modulus (GPa) = 82.14501 84.25990 83.20245
# Shear Modulus (GPa) = -101.62198 37.11324 -32.25437
#
# Velocity S-wave (km/s) = -7.17389 4.33536 -4.04162
# Velocity P-wave (km/s) = 5.19795 8.22997 4.51186
#
# Compressibility (1/GPa) = 0.01217359
#
# Stress axis : x y z
#
# Youngs Moduli (GPa) = 116.92119 106.91077 132.29029
#
# Poissons Ratio (x) = 0.42237 0.27889
# Poissons Ratio (y) = 0.46192 0.07766
# Poissons Ratio (z) = 0.24649 0.06276
#
# Static dielectric constant tensor:
#      x y z
#    x 3.747840 0.000000 0.000000 
#    y 0.000000 3.515190 0.000000 
#    z 0.000000 0.000000 3.870530 
# 
# 
# High freq. dielectric constant tensor:
#      x y z
#    x 1.777840 0.000000 0.000000 
#    y 0.000000 1.786570 0.000000 
#    z 0.000000 0.000000 1.785290 
# 
# From -- ./inp_files/17639.got.cif
#   From: 2010.03.12/outbox.cif.g09.slc.cpg/sg74_9_cif.got.tgz:17639.got - 2010.04.16 15:46:19.
