data_PCOD8301804
_publ_section_title
;
Structure prediction by ZEFSAII (Michael W. Deem and Ramdas Pophale) SiO2 
 PCOD8301804
Probable space group: I M M A
;
_chemical_formula_sum "Si O2"
_cell_formula_units_Z 80
_cell_length_a 16.027015
_cell_length_b 9.474794
_cell_length_c 29.386541
_cell_angle_alpha 90.000000
_cell_angle_beta 90.000000
_cell_angle_gamma 90.000000
_cell_volume 4462.424582
_symmetry_space_group_name_H-M "I M M A"
_symmetry_group_IT_number 74
_symmetry_cell_setting 'orthorhombic'
loop_
_space_group_symop_operation_xyz
x,y,z
-x,1/2-y,z
x,-y,-z
-x,1/2+y,-z
-x,-y,-z
x,1/2+y,-z
-x,y,z
x,1/2-y,z
1/2+x,1/2+y,1/2+z
1/2-x,-y,1/2+z
1/2+x,1/2-y,1/2-z
1/2-x,y,1/2-z
1/2-x,1/2-y,1/2-z
1/2+x,y,1/2-z
1/2-x,1/2+y,1/2+z
1/2+x,-y,1/2+z
loop_
_atom_site_type_symbol
_atom_site_label
_atom_site_fract_x
_atom_site_fract_y
_atom_site_fract_z
Si Si1 0.093673 0.917797 0.863688
Si Si2 0.632741 0.913107 0.956765
Si Si3 0.000000 0.418634 0.283925
Si Si4 0.673875 0.085751 0.456158
Si Si5 0.000000 0.583581 0.614777
Si Si6 0.162641 0.081933 0.230509
O O1 0.094653 0.750000 0.865093
O O2 0.127633 0.975313 0.911722
O O3 0.151227 0.969615 0.821732
O O4 0.000000 0.974186 0.856180
O O5 0.614150 0.750000 0.967111
O O6 0.729133 0.941576 0.947131
O O7 0.582426 0.965018 0.912448
O O8 0.600674 0.000000 0.000000
O O9 0.916294 0.475053 0.259326
O O10 0.000000 0.250000 0.283143
O O11 0.000000 0.482853 0.334902
O O12 0.654338 0.250000 0.464595
O O13 0.641834 0.000000 0.500000
O O14 0.000000 0.750000 0.620778
O O15 0.164517 0.250000 0.232931
O O16 0.250000 0.020377 0.250000
#
# Coordination Sequence:
#
# PCOD8301804 Si02
#       6
#    16  16   8  16   8  16
#     4   9  16  27  41  58  83 114 144 176 216 260
#     4   9  17  29  43  61  86 116 147 179 215 257
#     4   9  16  25  35  56  85 111 143 179 214 261
#     4   9  18  30  45  64  88 115 146 182 218 258
#     4   9  17  25  38  58  84 115 145 177 216 257
#     4   9  16  24  37  56  82 115 145 175 215 263
#
# _framework density 17.927474
#
# number of rings (size 3 to 8) (size 9 to 14) (size 15 to 20)
#    0.000    3.000    1.000    0.300    2.800    0.400 
#    0.000    0.000    0.000    0.000    0.000    0.000 
#    0.000    4.000    0.000    0.000    0.000    0.000 
#
# Total GULP energy -495830.584373 kJ/mol
# GULP energy per Si atom -12395.764609 kJ/mol
# Density = 1.788667 g / cm^3
# Si number density = 17.927474 Si / 1000 Ang^3
#
#
#
# Elastic Constant Matrix: (Units=GPa)
#
#
# Indices 1 2 3 4 5 6 
#
# 1 121.9473 14.5899 84.6459 0.0000 0.0000 0.0000
# 2 14.5899 15.7069 24.8382 0.0000 0.0000 0.0000
# 3 84.6459 24.8382 191.8769 0.0000 0.0000 0.0000
# 4 0.0000 0.0000 0.0000 18.7225 0.0000 0.0000
# 5 0.0000 0.0000 0.0000 0.0000 36.0641 0.0000
# 6 0.0000 0.0000 0.0000 0.0000 0.0000 8.2182
#
#
#
# Elastic Compliance Matrix: (Units=1/GPa)
#
#
# Indices 1 2 3 4 5 6 
#
# 1 0.011969 -0.003481 -0.004829 0.000000 0.000000 0.000000
# 2 -0.003481 0.081066 -0.008958 0.000000 0.000000 0.000000
# 3 -0.004829 -0.008958 0.008502 0.000000 0.000000 0.000000
# 4 0.000000 0.000000 0.000000 0.053412 0.000000 0.000000
# 5 0.000000 0.000000 0.000000 0.000000 0.027728 0.000000
# 6 0.000000 0.000000 0.000000 0.000000 0.000000 0.121681
#
#
# Mechanical properties :
#
#
# Convention : Reuss Voigt Hill
#
# Bulk Modulus (GPa) = 14.92543 64.18655 39.55599
# Shear Modulus (GPa) = 13.84168 26.29812 20.06990
#
# Velocity S-wave (km/s) = 2.78167 3.83419 3.34953
# Velocity P-wave (km/s) = 4.31977 7.44866 6.08864
#
# Compressibility (1/GPa) = 0.06699976
#
# Stress axis : x y z
#
# Youngs Moduli (GPa) = 83.54969 12.33562 117.62155
#
# Poissons Ratio (x) = 0.04294 0.56805
# Poissons Ratio (y) = 0.29081 1.05370
# Poissons Ratio (z) = 0.40350 0.11051
#
# Static dielectric constant tensor:
#      x y z
#    x 3.478830 0.000000 0.000000 
#    y 0.000000 2.672890 0.000000 
#    z 0.000000 0.000000 3.656890 
# 
# 
# High freq. dielectric constant tensor:
#      x y z
#    x 1.704090 0.000000 0.000000 
#    y 0.000000 1.610790 0.000000 
#    z 0.000000 0.000000 1.709630 
# 
# From -- ./inp_files/60703.got.cif
#   From: 2010.03.12/outbox.cif.g09.slc.cpg/sg74_31_cif.got.tgz:60703.got - 2010.04.16 15:46:19.
