data_PCOD8301088
_publ_section_title
;
Structure prediction by ZEFSAII (Michael W. Deem and Ramdas Pophale) SiO2 
 PCOD8301088
Probable space group: I M M A
;
_chemical_formula_sum "Si O2"
_cell_formula_units_Z 104
_cell_length_a 26.120148
_cell_length_b 16.564082
_cell_length_c 12.143299
_cell_angle_alpha 90.000000
_cell_angle_beta 90.000000
_cell_angle_gamma 90.000000
_cell_volume 5253.874491
_symmetry_space_group_name_H-M "I M M A"
_symmetry_group_IT_number 74
_symmetry_cell_setting 'orthorhombic'
loop_
_space_group_symop_operation_xyz
x,y,z
-x,1/2-y,z
x,-y,-z
-x,1/2+y,-z
-x,-y,-z
x,1/2+y,-z
-x,y,z
x,1/2-y,z
1/2+x,1/2+y,1/2+z
1/2-x,-y,1/2+z
1/2+x,1/2-y,1/2-z
1/2-x,y,1/2-z
1/2-x,1/2-y,1/2-z
1/2+x,y,1/2-z
1/2-x,1/2+y,1/2+z
1/2+x,-y,1/2+z
loop_
_atom_site_type_symbol
_atom_site_label
_atom_site_fract_x
_atom_site_fract_y
_atom_site_fract_z
Si Si1 0.360584 0.653650 0.714402
Si Si2 0.441070 0.914849 0.553057
Si Si3 0.850409 0.844727 0.307475
Si Si4 0.724209 0.560176 0.583302
Si Si5 0.822516 0.843856 0.547634
Si Si6 0.055957 0.157198 0.828145
Si Si7 0.250000 0.566067 0.250000
O O1 0.364439 0.750000 0.699179
O O2 0.409856 0.609412 0.662701
O O3 0.311414 0.619793 0.651181
O O4 0.354047 0.629021 0.843154
O O5 0.500000 0.916094 0.590250
O O6 0.430003 0.849724 0.457252
O O7 0.424465 0.000000 0.500000
O O8 0.847847 0.750000 0.285031
O O9 0.854948 0.863795 0.437727
O O10 0.900671 0.883279 0.248923
O O11 0.800771 0.879952 0.246737
O O12 0.693053 0.500000 0.500000
O O13 0.767547 0.615413 0.528313
O O14 0.756151 0.494283 0.649429
O O15 0.810661 0.750000 0.558160
O O16 0.051965 0.250000 0.796364
O O17 0.000000 0.115616 0.807229
#
# Coordination Sequence:
#
# PCOD8301088 Si02
#       7
#    16  16  16  16  16  16   8
#     4  11  23  38  59  83 113 154 192 230 280 345
#     4  10  22  39  60  86 115 144 182 238 290 335
#     4  10  22  38  57  84 117 152 192 238 290 345
#     4  12  23  37  55  83 113 151 192 235 282 340
#     4  10  21  39  56  78 116 154 188 231 283 338
#     4   9  19  37  60  84 112 148 186 228 283 342
#     4  12  23  36  57  84 116 152 190 242 289 338
#
# _framework density 19.794916000000001
#
# number of rings (size 3 to 8) (size 9 to 14) (size 15 to 20)
#    0.000    1.538    3.077    1.615    4.308    2.154 
#    0.000    0.769    0.000    2.769    0.000    4.308 
#    0.000    0.000    0.000    0.000    0.000    0.000 
#
# Total GULP energy -644333.557710 kJ/mol
# GULP energy per Si atom -12391.029956 kJ/mol
# Density = 1.974986 g / cm^3
# Si number density = 19.794916 Si / 1000 Ang^3
#
#
#
# Elastic Constant Matrix: (Units=GPa)
#
#
# Indices 1 2 3 4 5 6 
#
# 1 127.0707 30.1004 48.5595 0.0000 0.0000 0.0000
# 2 30.1004 53.8706 20.9767 0.0000 0.0000 0.0000
# 3 48.5595 20.9767 73.5646 0.0000 0.0000 0.0000
# 4 0.0000 0.0000 0.0000 23.5373 0.0000 0.0000
# 5 0.0000 0.0000 0.0000 0.0000 34.0371 0.0000
# 6 0.0000 0.0000 0.0000 0.0000 0.0000 24.6206
#
#
#
# Elastic Compliance Matrix: (Units=1/GPa)
#
#
# Indices 1 2 3 4 5 6 
#
# 1 0.011173 -0.003792 -0.006294 0.000000 0.000000 0.000000
# 2 -0.003792 0.022169 -0.003818 0.000000 0.000000 0.000000
# 3 -0.006294 -0.003818 0.018837 0.000000 0.000000 0.000000
# 4 0.000000 0.000000 0.000000 0.042486 0.000000 0.000000
# 5 0.000000 0.000000 0.000000 0.000000 0.029380 0.000000
# 6 0.000000 0.000000 0.000000 0.000000 0.000000 0.040616
#
#
# Mechanical properties :
#
#
# Convention : Reuss Voigt Hill
#
# Bulk Modulus (GPa) = 41.03401 50.41989 45.72695
# Shear Modulus (GPa) = 24.92618 26.76363 25.84490
#
# Velocity S-wave (km/s) = 3.55240 3.68101 3.61727
# Velocity P-wave (km/s) = 6.13194 6.60249 6.37156
#
# Compressibility (1/GPa) = 0.02437003
#
# Stress axis : x y z
#
# Youngs Moduli (GPa) = 89.50038 45.10873 53.08752
#
# Poissons Ratio (x) = 0.17106 0.33413
# Poissons Ratio (y) = 0.33940 0.20269
# Poissons Ratio (z) = 0.56331 0.17223
#
# Static dielectric constant tensor:
#      x y z
#    x 3.645260 0.000000 0.000000 
#    y 0.000000 3.696590 0.000000 
#    z 0.000000 0.000000 3.085940 
# 
# 
# High freq. dielectric constant tensor:
#      x y z
#    x 1.759630 0.000000 0.000000 
#    y 0.000000 1.778230 0.000000 
#    z 0.000000 0.000000 1.773000 
# 
# From -- ./inp_files/26344.got.cif
#   From: 2010.03.12/outbox.cif.g09.slc.cpg/sg74_14_cif.got.tgz:26344.got - 2010.04.16 15:46:19.
