data_PCOD8301134
_publ_section_title
;
Structure prediction by ZEFSAII (Michael W. Deem and Ramdas Pophale) SiO2 
 PCOD8301134
Probable space group: I M M A
;
_chemical_formula_sum "Si O2"
_cell_formula_units_Z 88
_cell_length_a 16.776029
_cell_length_b 11.912171
_cell_length_c 20.145233
_cell_angle_alpha 90.000000
_cell_angle_beta 90.000000
_cell_angle_gamma 90.000000
_cell_volume 4025.801730
_symmetry_space_group_name_H-M "I M M A"
_symmetry_group_IT_number 74
_symmetry_cell_setting 'orthorhombic'
loop_
_space_group_symop_operation_xyz
x,y,z
-x,1/2-y,z
x,-y,-z
-x,1/2+y,-z
-x,-y,-z
x,1/2+y,-z
-x,y,z
x,1/2-y,z
1/2+x,1/2+y,1/2+z
1/2-x,-y,1/2+z
1/2+x,1/2-y,1/2-z
1/2-x,y,1/2-z
1/2-x,1/2-y,1/2-z
1/2+x,y,1/2-z
1/2-x,1/2+y,1/2+z
1/2+x,-y,1/2+z
loop_
_atom_site_type_symbol
_atom_site_label
_atom_site_fract_x
_atom_site_fract_y
_atom_site_fract_z
Si Si1 0.167324 0.875854 0.719719
Si Si2 0.094581 0.750000 0.257786
Si Si3 0.500000 0.380509 0.958349
Si Si4 0.355808 0.577786 0.137885
Si Si5 0.906604 0.750000 0.102818
Si Si6 0.911801 0.877115 0.853987
Si Si7 0.805760 0.452779 0.928991
O O1 0.181350 0.750000 0.693492
O O2 0.250000 0.923396 0.750000
O O3 0.098418 0.881172 0.774731
O O4 0.139364 0.946099 0.655572
O O5 0.133529 0.641659 0.292289
O O6 0.117730 0.750000 0.180484
O O7 0.000000 0.750000 0.267913
O O8 0.500000 0.250000 0.991270
O O9 0.421989 0.384017 0.913558
O O10 0.500000 0.500000 0.000000
O O11 0.270329 0.603662 0.105813
O O12 0.873291 0.641463 0.065176
O O13 0.000000 0.750000 0.093384
O O14 0.905467 0.750000 0.879937
O O15 0.000000 0.926459 0.870176
O O16 0.840965 0.944823 0.887293
O O17 0.779900 0.500000 0.000000
#
# Coordination Sequence:
#
# PCOD8301134 Si02
#       7
#    16   8   8  16   8  16  16
#     4  10  21  39  65 101 140 172 226 292 359 435
#     4  11  23  45  77 105 142 168 231 310 378 437
#     4  12  28  52  74 108 150 198 248 300 369 457
#     4  12  23  44  72 102 137 184 231 296 370 422
#     4  11  27  45  69 106 135 180 230 295 361 427
#     4  10  22  41  65  96 133 179 226 284 359 419
#     4  12  27  44  64  96 135 184 238 284 341 432
#
# _framework density 21.859000000000002
#
# number of rings (size 3 to 8) (size 9 to 14) (size 15 to 20)
#    0.000    0.909    3.636    2.727    2.545    4.364 
#    0.000    0.000    0.000    0.000    0.000    0.000 
#    0.000    0.000    0.000    0.000    0.000    0.000 
#
# Total GULP energy -545520.158123 kJ/mol
# GULP energy per Si atom -12398.185412 kJ/mol
# Density = 2.180925 g / cm^3
# Si number density = 21.859000 Si / 1000 Ang^3
#
#
#
# Elastic Constant Matrix: (Units=GPa)
#
#
# Indices 1 2 3 4 5 6 
#
# 1 128.2759 32.6694 19.1591 0.0000 0.0000 0.0000
# 2 32.6694 118.6196 29.2084 0.0000 0.0000 0.0000
# 3 19.1591 29.2084 52.3428 0.0000 0.0000 0.0000
# 4 0.0000 0.0000 0.0000 34.7844 0.0000 0.0000
# 5 0.0000 0.0000 0.0000 0.0000 18.8604 0.0000
# 6 0.0000 0.0000 0.0000 0.0000 0.0000 33.6475
#
#
#
# Elastic Compliance Matrix: (Units=1/GPa)
#
#
# Indices 1 2 3 4 5 6 
#
# 1 0.008581 -0.001843 -0.002112 0.000000 0.000000 0.000000
# 2 -0.001843 0.010169 -0.005000 0.000000 0.000000 0.000000
# 3 -0.002112 -0.005000 0.022668 0.000000 0.000000 0.000000
# 4 0.000000 0.000000 0.000000 0.028749 0.000000 0.000000
# 5 0.000000 0.000000 0.000000 0.000000 0.053021 0.000000
# 6 0.000000 0.000000 0.000000 0.000000 0.000000 0.029720
#
#
# Mechanical properties :
#
#
# Convention : Reuss Voigt Hill
#
# Bulk Modulus (GPa) = 42.54031 51.25690 46.89860
# Shear Modulus (GPa) = 27.98710 32.00520 29.99615
#
# Velocity S-wave (km/s) = 3.58208 3.83059 3.70842
# Velocity P-wave (km/s) = 6.05077 6.56235 6.31174
#
# Compressibility (1/GPa) = 0.02350712
#
# Stress axis : x y z
#
# Youngs Moduli (GPa) = 116.54217 98.33724 44.11491
#
# Poissons Ratio (x) = 0.18124 0.09318
# Poissons Ratio (y) = 0.21480 0.22057
# Poissons Ratio (z) = 0.24617 0.49168
#
# Static dielectric constant tensor:
#      x y z
#    x 4.032300 0.000000 0.000000 
#    y 0.000000 4.338630 0.000000 
#    z 0.000000 0.000000 3.771150 
# 
# 
# High freq. dielectric constant tensor:
#      x y z
#    x 1.871520 0.000000 0.000000 
#    y 0.000000 1.873080 0.000000 
#    z 0.000000 0.000000 1.835380 
# 
# From -- ./inp_files/52899.got.cif
#   From: 2010.03.12/outbox.cif.g09.slc.cpg/sg74_27_cif.got.tgz:52899.got - 2010.04.16 15:46:19.
