data_PCOD8301869
_publ_section_title
;
Structure prediction by ZEFSAII (Michael W. Deem and Ramdas Pophale) SiO2 
 PCOD8301869
Probable space group: P 41
;
_chemical_formula_sum "Si O2"
_cell_formula_units_Z 32
_cell_length_a 8.790637
_cell_length_b 8.790637
_cell_length_c 19.245668
_cell_angle_alpha 90.000000
_cell_angle_beta 90.000000
_cell_angle_gamma 90.000000
_cell_volume 1487.214747
_symmetry_space_group_name_H-M "P 41"
_symmetry_group_IT_number 76
_symmetry_cell_setting 'tetragonal'
loop_
_space_group_symop_operation_xyz
x,y,z
-y,x,1/4+z
-x,-y,1/2+z
y,-x,3/4+z
loop_
_atom_site_type_symbol
_atom_site_label
_atom_site_fract_x
_atom_site_fract_y
_atom_site_fract_z
Si Si1 0.190497 0.409460 0.794070
Si Si2 0.006337 0.824716 0.365982
Si Si3 0.298333 0.838256 0.733338
Si Si4 0.409635 0.499105 0.457718
Si Si5 0.294580 0.333316 0.584105
Si Si6 0.751180 0.415397 0.432622
Si Si7 0.180630 0.889182 0.877449
Si Si8 0.424445 0.122104 0.918022
O O1 0.120993 0.243831 0.813077
O O2 0.356117 0.408797 0.758904
O O3 0.191576 0.514857 0.860638
O O4 0.076085 0.483014 0.737335
O O5 0.992122 0.747741 0.442440
O O6 0.174004 0.795246 0.337669
O O7 0.969338 0.004758 0.377369
O O8 0.481655 0.828236 0.743870
O O9 0.200129 0.815170 0.801888
O O10 0.258981 0.694086 0.683570
O O11 0.327658 0.366252 0.502537
O O12 0.331634 0.553757 0.384540
O O13 0.570280 0.422447 0.439282
O O14 0.180746 0.464371 0.608467
O O15 0.821892 0.244863 0.435176
O O16 0.336033 0.978380 0.889810
#
# Coordination Sequence:
#
# PCOD8301869 Si02
#       8
#     4   4   4   4   4   4   4   4
#     4  10  19  41  63  91 124 172 226 262 327 412
#     4  10  25  39  63  94 131 185 217 266 341 419
#     4  10  20  40  66  92 122 177 223 263 334 418
#     4  11  20  37  69 102 127 169 224 296 327 390
#     4  11  23  40  68  99 137 173 235 278 344 402
#     4  11  19  37  67  99 124 159 224 283 329 388
#     4  11  23  39  66  94 132 173 220 279 343 412
#     4  10  21  39  66  91 127 180 225 269 327 405
#
# _framework density 21.516734
#
# number of rings (size 3 to 8) (size 9 to 14) (size 15 to 20)
#    0.000    1.500    5.000    1.500    7.000    0.000 
#    0.000    2.500    5.500    0.000    0.000    0.000 
#    0.000    0.000    0.000    0.000    0.000    0.000 
#
# Total GULP energy -396440.343669 kJ/mol
# GULP energy per Si atom -12388.760740 kJ/mol
# Density = 2.146776 g / cm^3
# Si number density = 21.516734 Si / 1000 Ang^3
#
#
#
# Elastic Constant Matrix: (Units=GPa)
#
#
# Indices 1 2 3 4 5 6 
#
# 1 112.3509 42.6329 14.1816 0.0000 0.0000 -2.1284
# 2 42.6329 112.3509 14.1816 0.0000 0.0000 2.1284
# 3 14.1816 14.1816 49.3751 0.0000 0.0000 0.0000
# 4 0.0000 0.0000 0.0000 25.6299 0.0000 0.0000
# 5 0.0000 0.0000 0.0000 0.0000 25.6299 0.0000
# 6 -2.1284 2.1284 0.0000 0.0000 0.0000 24.4193
#
#
#
# Elastic Compliance Matrix: (Units=1/GPa)
#
#
# Indices 1 2 3 4 5 6 
#
# 1 0.010615 -0.003805 -0.001956 0.000000 0.000000 0.001257
# 2 -0.003805 0.010615 -0.001956 0.000000 0.000000 -0.001257
# 3 -0.001956 -0.001956 0.021377 0.000000 0.000000 0.000000
# 4 0.000000 0.000000 0.000000 0.039017 0.000000 0.000000
# 5 0.000000 0.000000 0.000000 0.000000 0.039017 0.000000
# 6 0.001257 -0.001257 0.000000 0.000000 0.000000 0.041170
#
#
# Mechanical properties :
#
#
# Convention : Reuss Voigt Hill
#
# Bulk Modulus (GPa) = 36.80112 46.22988 41.51550
# Shear Modulus (GPa) = 26.83793 28.67452 27.75623
#
# Velocity S-wave (km/s) = 3.53555 3.65452 3.59553
# Velocity P-wave (km/s) = 5.81442 6.27213 6.04760
#
# Compressibility (1/GPa) = 0.02717308
#
# Stress axis : x y z
#
# Youngs Moduli (GPa) = 94.20410 94.20410 46.77972
#
# Poissons Ratio (x) = 0.35845 0.09150
# Poissons Ratio (y) = 0.35845 0.09150
# Poissons Ratio (z) = 0.18427 0.18427
#
# Static dielectric constant tensor:
#      x y z
#    x 3.876660 0.000000 0.000000 
#    y 0.000000 3.876660 0.000000 
#    z 0.000000 0.000000 4.262670 
# 
# 
# High freq. dielectric constant tensor:
#      x y z
#    x 1.828280 0.000000 0.000000 
#    y 0.000000 1.828280 0.000000 
#    z 0.000000 0.000000 1.842100 
# 
# From -- ./inp_files/1457.got.cif
#   From: 2010.03.12/outbox.cif.g09.slc.cpg/sg76_cif.got.tgz:1457.got - 2010.04.16 16:34:25.
