data_PCOD8301578
_publ_section_title
;
Structure prediction by ZEFSAII (Michael W. Deem and Ramdas Pophale) SiO2 
 PCOD8301578
Probable space group: I M M A
;
_chemical_formula_sum "Si O2"
_cell_formula_units_Z 64
_cell_length_a 16.019817
_cell_length_b 21.120966
_cell_length_c 9.288045
_cell_angle_alpha 90.000000
_cell_angle_beta 90.000000
_cell_angle_gamma 90.000000
_cell_volume 3142.647273
_symmetry_space_group_name_H-M "I M M A"
_symmetry_group_IT_number 74
_symmetry_cell_setting 'orthorhombic'
loop_
_space_group_symop_operation_xyz
x,y,z
-x,1/2-y,z
x,-y,-z
-x,1/2+y,-z
-x,-y,-z
x,1/2+y,-z
-x,y,z
x,1/2-y,z
1/2+x,1/2+y,1/2+z
1/2-x,-y,1/2+z
1/2+x,1/2-y,1/2-z
1/2-x,y,1/2-z
1/2-x,1/2-y,1/2-z
1/2+x,y,1/2-z
1/2-x,1/2+y,1/2+z
1/2+x,-y,1/2+z
loop_
_atom_site_type_symbol
_atom_site_label
_atom_site_fract_x
_atom_site_fract_y
_atom_site_fract_z
Si Si1 0.179719 0.548922 0.126411
Si Si2 0.500000 0.405625 0.049623
Si Si3 0.000000 0.477672 0.742488
Si Si4 0.315575 0.678580 0.534529
Si Si5 0.633109 0.819368 0.839261
O O1 0.250000 0.539515 0.250000
O O2 0.084912 0.532704 0.169280
O O3 0.206103 0.500000 0.000000
O O4 0.177493 0.623144 0.082793
O O5 0.500000 0.451958 0.184267
O O6 0.416428 0.365990 0.059360
O O7 0.500000 0.432194 0.892110
O O8 0.333760 0.750000 0.470386
O O9 0.376463 0.663375 0.669391
O O10 0.226019 0.678187 0.605543
O O11 0.595091 0.750000 0.860886
#
# Coordination Sequence:
#
# PCOD8301578 Si02
#       5
#    16   8   8  16  16
#     4  12  27  43  68  95 132 174 223 270 344 398
#     4  11  21  38  63  84 131 159 217 263 324 392
#     4  11  27  42  59  94 130 174 213 275 331 392
#     4   9  20  39  63  91 128 167 216 266 322 389
#     4   9  18  35  63  94 120 163 212 264 317 384
#
# _framework density 20.364996999999999
#
# number of rings (size 3 to 8) (size 9 to 14) (size 15 to 20)
#    0.000    1.750    0.000    5.250   10.500    1.500 
#    0.000    4.375    0.000    0.000    0.000    0.000 
#    0.000    0.000    0.000    0.000    0.000    0.000 
#
# Total GULP energy -396489.267270 kJ/mol
# GULP energy per Si atom -12390.289602 kJ/mol
# Density = 2.031865 g / cm^3
# Si number density = 20.364997 Si / 1000 Ang^3
#
#
#
# Elastic Constant Matrix: (Units=GPa)
#
#
# Indices 1 2 3 4 5 6 
#
# 1 87.4838 24.9289 30.7206 0.0000 0.0000 0.0000
# 2 24.9289 115.3634 50.3816 0.0000 0.0000 0.0000
# 3 30.7206 50.3816 104.8627 0.0000 0.0000 0.0000
# 4 0.0000 0.0000 0.0000 56.5851 0.0000 0.0000
# 5 0.0000 0.0000 0.0000 0.0000 30.1027 0.0000
# 6 0.0000 0.0000 0.0000 0.0000 0.0000 33.0706
#
#
#
# Elastic Compliance Matrix: (Units=1/GPa)
#
#
# Indices 1 2 3 4 5 6 
#
# 1 0.012928 -0.001442 -0.003095 0.000000 0.000000 0.000000
# 2 -0.001442 0.011131 -0.004925 0.000000 0.000000 0.000000
# 3 -0.003095 -0.004925 0.012809 0.000000 0.000000 0.000000
# 4 0.000000 0.000000 0.000000 0.017672 0.000000 0.000000
# 5 0.000000 0.000000 0.000000 0.000000 0.033220 0.000000
# 6 0.000000 0.000000 0.000000 0.000000 0.000000 0.030238
#
#
# Mechanical properties :
#
#
# Convention : Reuss Voigt Hill
#
# Bulk Modulus (GPa) = 55.72827 57.75245 56.74036
# Shear Modulus (GPa) = 34.98835 37.39694 36.19265
#
# Velocity S-wave (km/s) = 4.14945 4.28990 4.22026
# Velocity P-wave (km/s) = 7.09798 7.27721 7.18816
#
# Compressibility (1/GPa) = 0.01794421
#
# Stress axis : x y z
#
# Youngs Moduli (GPa) = 77.34946 89.83980 78.06842
#
# Poissons Ratio (x) = 0.12957 0.24159
# Poissons Ratio (y) = 0.11156 0.38452
# Poissons Ratio (z) = 0.23936 0.44249
#
# Static dielectric constant tensor:
#      x y z
#    x 3.542630 0.000000 0.000000 
#    y 0.000000 4.175780 0.000000 
#    z 0.000000 0.000000 3.740860 
# 
# 
# High freq. dielectric constant tensor:
#      x y z
#    x 1.798020 0.000000 0.000000 
#    y 0.000000 1.815110 0.000000 
#    z 0.000000 0.000000 1.785260 
# 
# From -- ./inp_files/8851.got.cif
#   From: 2010.03.12/outbox.cif.g09.slc.cpg/sg74_5_cif.got.tgz:8851.got - 2010.04.16 15:46:19.
