data_PCOD8301120
_publ_section_title
;
Structure prediction by ZEFSAII (Michael W. Deem and Ramdas Pophale) SiO2 
 PCOD8301120
Probable space group: I M M A
;
_chemical_formula_sum "Si O2"
_cell_formula_units_Z 96
_cell_length_a 13.987728
_cell_length_b 14.824795
_cell_length_c 23.122101
_cell_angle_alpha 90.000000
_cell_angle_beta 90.000000
_cell_angle_gamma 90.000000
_cell_volume 4794.719101
_symmetry_space_group_name_H-M "I M M A"
_symmetry_group_IT_number 74
_symmetry_cell_setting 'orthorhombic'
loop_
_space_group_symop_operation_xyz
x,y,z
-x,1/2-y,z
x,-y,-z
-x,1/2+y,-z
-x,-y,-z
x,1/2+y,-z
-x,y,z
x,1/2-y,z
1/2+x,1/2+y,1/2+z
1/2-x,-y,1/2+z
1/2+x,1/2-y,1/2-z
1/2-x,y,1/2-z
1/2-x,1/2-y,1/2-z
1/2+x,y,1/2-z
1/2-x,1/2+y,1/2+z
1/2+x,-y,1/2+z
loop_
_atom_site_type_symbol
_atom_site_label
_atom_site_fract_x
_atom_site_fract_y
_atom_site_fract_z
Si Si1 0.269704 0.497632 0.816753
Si Si2 0.610636 0.649019 0.119050
Si Si3 0.389350 0.647911 0.871019
Si Si4 0.606313 0.106104 0.004374
Si Si5 0.112805 0.001578 0.091012
Si Si6 0.387292 0.351813 0.501086
O O1 0.250000 0.484130 0.750000
O O2 0.330860 0.413181 0.838120
O O3 0.330182 0.588309 0.826251
O O4 0.167981 0.503179 0.848603
O O5 0.500000 0.616160 0.116964
O O6 0.618604 0.750000 0.143083
O O7 0.655499 0.644607 0.053783
O O8 0.500000 0.616079 0.871293
O O9 0.379495 0.750000 0.849789
O O10 0.343991 0.636757 0.935794
O O11 0.500000 0.146479 0.006469
O O12 0.608126 0.000000 0.000000
O O13 0.000000 0.004002 0.103644
O O14 0.142090 0.909390 0.057675
O O15 0.145554 0.089719 0.054464
O O16 0.500000 0.343318 0.499435
O O17 0.342561 0.250000 0.501393
#
# Coordination Sequence:
#
# PCOD8301120 Si02
#       6
#    16  16  16  16  16  16
#     4  12  26  40  57  80 116 159 205 249 278 325
#     4  10  21  39  63  90 120 152 187 234 294 355
#     4  10  21  39  63  90 120 152 187 234 294 355
#     4   9  15  29  58  92 123 147 175 220 287 363
#     4   9  20  37  57  85 115 146 187 233 288 348
#     4   8  15  33  61  87 111 139 177 234 299 354
#
# _framework density 20.022027999999999
#
# number of rings (size 3 to 8) (size 9 to 14) (size 15 to 20)
#    0.000    2.333    1.667    2.000    0.000    8.000 
#    0.000    0.000    0.000    4.000    0.000    0.000 
#    0.000    0.000    0.000    0.000    0.000    0.000 
#
# Total GULP energy -594999.566908 kJ/mol
# GULP energy per Si atom -12395.824311 kJ/mol
# Density = 1.997646 g / cm^3
# Si number density = 20.022028 Si / 1000 Ang^3
#
#
#
# Elastic Constant Matrix: (Units=GPa)
#
#
# Indices 1 2 3 4 5 6 
#
# 1 64.8518 22.8014 20.0583 0.0000 0.0000 0.0000
# 2 22.8014 119.1995 13.5808 0.0000 0.0000 0.0000
# 3 20.0583 13.5808 78.6563 0.0000 0.0000 0.0000
# 4 0.0000 0.0000 0.0000 2.6931 0.0000 0.0000
# 5 0.0000 0.0000 0.0000 0.0000 31.9517 0.0000
# 6 0.0000 0.0000 0.0000 0.0000 0.0000 20.7280
#
#
#
# Elastic Compliance Matrix: (Units=1/GPa)
#
#
# Indices 1 2 3 4 5 6 
#
# 1 0.017688 -0.002927 -0.004005 0.000000 0.000000 0.000000
# 2 -0.002927 0.009042 -0.000815 0.000000 0.000000 0.000000
# 3 -0.004005 -0.000815 0.013876 0.000000 0.000000 0.000000
# 4 0.000000 0.000000 0.000000 0.371322 0.000000 0.000000
# 5 0.000000 0.000000 0.000000 0.000000 0.031297 0.000000
# 6 0.000000 0.000000 0.000000 0.000000 0.000000 0.048244
#
#
# Mechanical properties :
#
#
# Convention : Reuss Voigt Hill
#
# Bulk Modulus (GPa) = 39.82280 41.73205 40.77743
# Shear Modulus (GPa) = 9.70247 24.82571 17.26409
#
# Velocity S-wave (km/s) = 2.20373 3.52507 2.93960
# Velocity P-wave (km/s) = 5.13886 6.12017 5.65086
#
# Compressibility (1/GPa) = 0.02511124
#
# Stress axis : x y z
#
# Youngs Moduli (GPa) = 56.53643 110.59445 72.06901
#
# Poissons Ratio (x) = 0.32372 0.28865
# Poissons Ratio (y) = 0.16549 0.05872
# Poissons Ratio (z) = 0.22644 0.09011
#
# Static dielectric constant tensor:
#      x y z
#    x 3.533190 0.000000 0.000000 
#    y 0.000000 3.909280 0.000000 
#    z 0.000000 0.000000 3.317360 
# 
# 
# High freq. dielectric constant tensor:
#      x y z
#    x 1.779380 0.000000 0.000000 
#    y 0.000000 1.793230 0.000000 
#    z 0.000000 0.000000 1.744660 
# 
# From -- ./inp_files/51902.got.cif
#   From: 2010.03.12/outbox.cif.g09.slc.cpg/sg74_26_cif.got.tgz:51902.got - 2010.04.16 15:46:19.
