data_PCOD8301358
_publ_section_title
;
Structure prediction by ZEFSAII (Michael W. Deem and Ramdas Pophale) SiO2 
 PCOD8301358
Probable space group: I M M A
;
_chemical_formula_sum "Si O2"
_cell_formula_units_Z 112
_cell_length_a 15.242526
_cell_length_b 28.546590
_cell_length_c 13.129294
_cell_angle_alpha 90.000000
_cell_angle_beta 90.000000
_cell_angle_gamma 90.000000
_cell_volume 5712.846506
_symmetry_space_group_name_H-M "I M M A"
_symmetry_group_IT_number 74
_symmetry_cell_setting 'orthorhombic'
loop_
_space_group_symop_operation_xyz
x,y,z
-x,1/2-y,z
x,-y,-z
-x,1/2+y,-z
-x,-y,-z
x,1/2+y,-z
-x,y,z
x,1/2-y,z
1/2+x,1/2+y,1/2+z
1/2-x,-y,1/2+z
1/2+x,1/2-y,1/2-z
1/2-x,y,1/2-z
1/2-x,1/2-y,1/2-z
1/2+x,y,1/2-z
1/2-x,1/2+y,1/2+z
1/2+x,-y,1/2+z
loop_
_atom_site_type_symbol
_atom_site_label
_atom_site_fract_x
_atom_site_fract_y
_atom_site_fract_z
Si Si1 0.158827 0.952144 0.544236
Si Si2 0.402923 0.520479 0.745979
Si Si3 0.394949 0.143752 0.531269
Si Si4 0.344642 0.919567 0.291720
Si Si5 0.302519 0.605753 0.653628
Si Si6 0.095076 0.374842 0.601761
Si Si7 0.254701 0.803012 0.129720
O O1 0.095046 0.969160 0.634059
O O2 0.234227 0.917817 0.579158
O O3 0.105761 0.922677 0.461475
O O4 0.200527 0.000000 0.500000
O O5 0.500000 0.510848 0.705799
O O6 0.345941 0.475594 0.714921
O O7 0.366224 0.565967 0.692841
O O8 0.500000 0.152330 0.534113
O O9 0.366218 0.096592 0.592894
O O10 0.361777 0.141171 0.413359
O O11 0.341898 0.186217 0.584013
O O12 0.250000 0.902748 0.250000
O O13 0.411806 0.892465 0.218408
O O14 0.250000 0.629565 0.750000
O O15 0.170824 0.336586 0.580872
O O16 0.000000 0.352337 0.574944
O O17 0.279911 0.750000 0.101145
O O18 0.250000 0.809984 0.250000
#
# Coordination Sequence:
#
# PCOD8301358 Si02
#       7
#    16  16  16  16  16  16  16
#     4  11  21  35  57  83 121 168 212 247 300 360
#     4  11  23  35  51  87 122 162 220 263 301 361
#     4  12  23  40  65  92 123 165 213 263 322 380
#     4  12  21  36  55  84 130 175 212 256 307 367
#     4  10  23  39  58  82 118 166 208 260 317 367
#     4  12  22  37  61  90 124 167 213 257 304 360
#     4  11  24  43  66  94 130 164 199 252 315 378
#
# _framework density 19.604937
#
# number of rings (size 3 to 8) (size 9 to 14) (size 15 to 20)
#    0.000    0.714    5.714    3.429    2.000    1.143 
#    0.000    2.857    0.000    0.429    0.000    0.000 
#    0.000    0.000    0.000    0.000    0.000    0.000 
#
# Total GULP energy -694100.771115 kJ/mol
# GULP energy per Si atom -12394.656627 kJ/mol
# Density = 1.956032 g / cm^3
# Si number density = 19.604937 Si / 1000 Ang^3
#
#
#
# Elastic Constant Matrix: (Units=GPa)
#
#
# Indices 1 2 3 4 5 6 
#
# 1 127.6767 23.5261 34.1758 0.0001 0.0011 0.0000
# 2 23.5261 88.9760 33.2790 -0.0001 0.0009 0.0000
# 3 34.1758 33.2790 91.1755 -0.0012 -0.0022 -0.0002
# 4 0.0001 -0.0001 -0.0012 15.1196 -0.0004 -0.0002
# 5 0.0011 0.0009 -0.0022 -0.0004 5.4314 -0.0005
# 6 0.0000 0.0000 -0.0002 -0.0002 -0.0005 12.5726
#
#
#
# Elastic Compliance Matrix: (Units=1/GPa)
#
#
# Indices 1 2 3 4 5 6 
#
# 1 0.008828 -0.001270 -0.002846 0.000000 -0.000003 0.000000
# 2 -0.001270 0.013199 -0.004341 0.000000 -0.000004 0.000000
# 3 -0.002846 -0.004341 0.013619 0.000001 0.000007 0.000000
# 4 0.000000 0.000000 0.000001 0.066139 0.000005 0.000001
# 5 -0.000003 -0.000004 0.000007 0.000005 0.184115 0.000007
# 6 0.000000 0.000000 0.000000 0.000001 0.000007 0.079538
#
#
# Mechanical properties :
#
#
# Convention : Reuss Voigt Hill
#
# Bulk Modulus (GPa) = 53.38504 54.42110 53.90307
# Shear Modulus (GPa) = 12.86684 21.08121 16.97402
#
# Velocity S-wave (km/s) = 2.56463 3.28274 2.94565
# Velocity P-wave (km/s) = 6.00494 6.49520 6.25487
#
# Compressibility (1/GPa) = 0.01873184
#
# Stress axis : x y z
#
# Youngs Moduli (GPa) = 113.27651 75.76586 73.42638
#
# Poissons Ratio (x) = 0.09622 0.20894
# Poissons Ratio (y) = 0.14385 0.31878
# Poissons Ratio (z) = 0.32233 0.32893
#
# Static dielectric constant tensor:
#      x y z
#    x 3.660400 0.000000 0.000020 
#    y 0.000000 3.175410 0.000060 
#    z 0.000020 0.000060 5.637970 
# 
# 
# High freq. dielectric constant tensor:
#      x y z
#    x 1.772720 0.000000 0.000000 
#    y 0.000000 1.729180 0.000000 
#    z 0.000000 0.000000 1.762730 
# 
# From -- ./inp_files/21167.got.cif
#   From: 2010.03.12/outbox.cif.g09.slc.cpg/sg74_11_cif.got.tgz:21167.got - 2010.04.16 15:46:19.
