data_PCOD8301440
_publ_section_title
;
Structure prediction by ZEFSAII (Michael W. Deem and Ramdas Pophale) SiO2 
 PCOD8301440
Probable space group: I M M A
;
_chemical_formula_sum "Si O2"
_cell_formula_units_Z 112
_cell_length_a 20.183146
_cell_length_b 27.705613
_cell_length_c 11.441646
_cell_angle_alpha 90.000000
_cell_angle_beta 90.000000
_cell_angle_gamma 90.000000
_cell_volume 6398.013205
_symmetry_space_group_name_H-M "I M M A"
_symmetry_group_IT_number 74
_symmetry_cell_setting 'orthorhombic'
loop_
_space_group_symop_operation_xyz
x,y,z
-x,1/2-y,z
x,-y,-z
-x,1/2+y,-z
-x,-y,-z
x,1/2+y,-z
-x,y,z
x,1/2-y,z
1/2+x,1/2+y,1/2+z
1/2-x,-y,1/2+z
1/2+x,1/2-y,1/2-z
1/2-x,y,1/2-z
1/2-x,1/2-y,1/2-z
1/2+x,y,1/2-z
1/2-x,1/2+y,1/2+z
1/2+x,-y,1/2+z
loop_
_atom_site_type_symbol
_atom_site_label
_atom_site_fract_x
_atom_site_fract_y
_atom_site_fract_z
Si Si1 0.305532 0.115504 0.402414
Si Si2 0.649906 0.193568 0.814894
Si Si3 0.802862 0.458043 0.915353
Si Si4 0.844885 0.026775 0.661561
Si Si5 0.841884 0.586115 0.658967
Si Si6 0.710584 0.194680 0.572073
Si Si7 0.922520 0.888152 0.446808
O O1 0.328239 0.090307 0.522657
O O2 0.234742 0.093347 0.369638
O O3 0.353937 0.105444 0.292160
O O4 0.304429 0.170747 0.445301
O O5 0.631518 0.250000 0.836350
O O6 0.658195 0.183654 0.676056
O O7 0.717338 0.179363 0.881357
O O8 0.594249 0.157747 0.864903
O O9 0.843629 0.463672 0.798248
O O10 0.724065 0.457584 0.896251
O O11 0.825051 0.500000 0.000000
O O12 0.901654 0.060604 0.608945
O O13 0.859847 0.970312 0.640903
O O14 0.887499 0.617675 0.573245
O O15 0.709191 0.250000 0.540326
O O16 0.000000 0.888869 0.467825
#
# Coordination Sequence:
#
# PCOD8301440 Si02
#       7
#    16  16  16  16  16  16  16
#     4  11  18  31  52  79 113 137 170 221 272 328
#     4   9  18  36  58  84 111 135 169 219 276 325
#     4  11  16  29  53  81 103 132 168 223 278 323
#     4  11  20  32  51  78 111 137 180 222 269 322
#     4  11  21  32  48  74 109 150 176 211 265 319
#     4   9  17  32  59  88 113 134 159 216 290 331
#     4  12  24  37  53  75 106 148 190 223 258 310
#
# _framework density 17.505434000000001
#
# number of rings (size 3 to 8) (size 9 to 14) (size 15 to 20)
#    0.000    1.429    5.714    3.000    0.000    3.714 
#    0.000    2.143    0.000    3.857    0.000    0.000 
#    0.000    0.000    0.000    0.000    0.000    0.000 
#
# Total GULP energy -694101.050021 kJ/mol
# GULP energy per Si atom -12394.661608 kJ/mol
# Density = 1.746559 g / cm^3
# Si number density = 17.505434 Si / 1000 Ang^3
#
#
#
# Elastic Constant Matrix: (Units=GPa)
#
#
# Indices 1 2 3 4 5 6 
#
# 1 57.3491 18.7573 23.8421 0.0000 0.0000 0.0000
# 2 18.7573 83.7853 41.5696 0.0000 0.0000 0.0000
# 3 23.8421 41.5696 106.4434 0.0000 0.0000 0.0000
# 4 0.0000 0.0000 0.0000 26.7755 0.0000 0.0000
# 5 0.0000 0.0000 0.0000 0.0000 14.4940 0.0000
# 6 0.0000 0.0000 0.0000 0.0000 0.0000 24.0321
#
#
#
# Elastic Compliance Matrix: (Units=1/GPa)
#
#
# Indices 1 2 3 4 5 6 
#
# 1 0.019729 -0.002759 -0.003342 0.000000 0.000000 0.000000
# 2 -0.002759 0.015189 -0.005314 0.000000 0.000000 0.000000
# 3 -0.003342 -0.005314 0.012218 0.000000 0.000000 0.000000
# 4 0.000000 0.000000 0.000000 0.037348 0.000000 0.000000
# 5 0.000000 0.000000 0.000000 0.000000 0.068994 0.000000
# 6 0.000000 0.000000 0.000000 0.000000 0.000000 0.041611
#
#
# Mechanical properties :
#
#
# Convention : Reuss Voigt Hill
#
# Bulk Modulus (GPa) = 41.13930 46.21286 43.67608
# Shear Modulus (GPa) = 22.12190 23.95425 23.03807
#
# Velocity S-wave (km/s) = 3.55874 3.70319 3.63168
# Velocity P-wave (km/s) = 6.35909 6.68889 6.52607
#
# Compressibility (1/GPa) = 0.02430766
#
# Stress axis : x y z
#
# Youngs Moduli (GPa) = 50.68776 65.83533 81.84362
#
# Poissons Ratio (x) = 0.18163 0.27349
# Poissons Ratio (y) = 0.13984 0.43492
# Poissons Ratio (z) = 0.16938 0.34985
#
# Static dielectric constant tensor:
#      x y z
#    x 2.718300 0.000000 0.000000 
#    y 0.000000 3.068840 0.000000 
#    z 0.000000 0.000000 3.571840 
# 
# 
# High freq. dielectric constant tensor:
#      x y z
#    x 1.609630 0.000000 0.000000 
#    y 0.000000 1.684300 0.000000 
#    z 0.000000 0.000000 1.695220 
# 
# From -- ./inp_files/24351.got.cif
#   From: 2010.03.12/outbox.cif.g09.slc.cpg/sg74_13_cif.got.tgz:24351.got - 2010.04.16 15:46:19.
