data_PCOD8301890
_publ_section_title
;
Structure prediction by ZEFSAII (Michael W. Deem and Ramdas Pophale) SiO2 
 PCOD8301890
Probable space group: P 41
;
_chemical_formula_sum "Si O2"
_cell_formula_units_Z 24
_cell_length_a 15.808737
_cell_length_b 15.808737
_cell_length_c 5.232497
_cell_angle_alpha 90.000000
_cell_angle_beta 90.000000
_cell_angle_gamma 90.000000
_cell_volume 1307.685586
_symmetry_space_group_name_H-M "P 41"
_symmetry_group_IT_number 76
_symmetry_cell_setting 'tetragonal'
loop_
_space_group_symop_operation_xyz
x,y,z
-y,x,1/4+z
-x,-y,1/2+z
y,-x,3/4+z
loop_
_atom_site_type_symbol
_atom_site_label
_atom_site_fract_x
_atom_site_fract_y
_atom_site_fract_z
Si Si1 0.717335 0.864651 0.246190
Si Si2 0.871992 0.748832 0.268196
Si Si3 0.770208 0.961292 0.762594
Si Si4 0.564924 0.092520 0.166893
Si Si5 0.894678 0.463222 0.921878
Si Si6 0.070726 0.094373 0.047158
O O1 0.777555 0.782904 0.202543
O O2 0.732653 0.915819 0.510559
O O3 0.619401 0.835812 0.220990
O O4 0.725722 0.929021 0.013831
O O5 0.867487 0.658364 0.405896
O O6 0.907435 0.810497 0.484638
O O7 0.936218 0.753228 0.020980
O O8 0.871103 0.940376 0.782589
O O9 0.512705 0.127799 0.410485
O O10 0.568272 0.991462 0.176977
O O11 0.523902 0.124876 0.906525
O O12 0.970489 0.094063 0.073921
#
# Coordination Sequence:
#
# PCOD8301890 Si02
#       6
#     4   4   4   4   4   4
#     4  11  23  37  58  81 113 146 188 233 279 323
#     4  11  22  36  57  83 109 146 192 239 270 329
#     4  11  22  36  54  77 112 147 193 229 267 313
#     4  10  22  35  60  76 107 140 195 227 278 323
#     4  10  21  39  55  80 103 148 184 233 275 336
#     4  11  22  35  50  73 110 155 190 225 267 306
#
# _framework density 18.353037
#
# number of rings (size 3 to 8) (size 9 to 14) (size 15 to 20)
#    0.000    1.333    1.667    5.000    4.667    4.000 
#    0.000    0.000    0.000    0.000    0.000    0.000 
#    0.000    2.667    0.000    0.000    0.000    0.000 
#
# Total GULP energy -297333.347065 kJ/mol
# GULP energy per Si atom -12388.889461 kJ/mol
# Density = 1.831126 g / cm^3
# Si number density = 18.353037 Si / 1000 Ang^3
#
#
#
# Elastic Constant Matrix: (Units=GPa)
#
#
# Indices 1 2 3 4 5 6 
#
# 1 115.3463 44.8201 37.0255 0.0000 0.0000 -5.3415
# 2 44.8201 115.3463 37.0255 0.0000 0.0000 5.3415
# 3 37.0255 37.0255 112.7073 0.0000 0.0000 0.0000
# 4 0.0000 0.0000 0.0000 14.1728 0.0000 0.0000
# 5 0.0000 0.0000 0.0000 0.0000 14.1728 0.0000
# 6 -5.3415 5.3415 0.0000 0.0000 0.0000 14.8314
#
#
#
# Elastic Compliance Matrix: (Units=1/GPa)
#
#
# Indices 1 2 3 4 5 6 
#
# 1 0.011179 -0.003818 -0.002418 0.000000 0.000000 0.005401
# 2 -0.003818 0.011179 -0.002418 0.000000 0.000000 -0.005401
# 3 -0.002418 -0.002418 0.010461 0.000000 0.000000 0.000000
# 4 0.000000 0.000000 0.000000 0.070558 0.000000 0.000000
# 5 0.000000 0.000000 0.000000 0.000000 0.070558 0.000000
# 6 0.005401 -0.005401 0.000000 0.000000 0.000000 0.071315
#
#
# Mechanical properties :
#
#
# Convention : Reuss Voigt Hill
#
# Bulk Modulus (GPa) = 64.46949 64.57136 64.52042
# Shear Modulus (GPa) = 18.67550 23.60398 21.13974
#
# Velocity S-wave (km/s) = 3.19340 3.59012 3.39756
# Velocity P-wave (km/s) = 6.98575 7.24187 7.11496
#
# Compressibility (1/GPa) = 0.01551121
#
# Stress axis : x y z
#
# Youngs Moduli (GPa) = 89.44978 89.44978 95.58900
#
# Poissons Ratio (x) = 0.34151 0.23117
# Poissons Ratio (y) = 0.34151 0.23117
# Poissons Ratio (z) = 0.21632 0.21632
#
# Static dielectric constant tensor:
#      x y z
#    x 3.521710 0.000000 0.000000 
#    y 0.000000 3.521710 0.000000 
#    z 0.000000 0.000000 3.490990 
# 
# 
# High freq. dielectric constant tensor:
#      x y z
#    x 1.682200 0.000000 0.000000 
#    y 0.000000 1.682200 0.000000 
#    z 0.000000 0.000000 1.727750 
# 
# From -- ./inp_files/205.got.cif
#   From: 2010.03.12/outbox.cif.g09.slc.cpg/sg76_cif.got.tgz:205.got - 2010.04.16 16:34:25.
