data_PCOD8301429
_publ_section_title
;
Structure prediction by ZEFSAII (Michael W. Deem and Ramdas Pophale) SiO2 
 PCOD8301429
Probable space group: I M M A
;
_chemical_formula_sum "Si O2"
_cell_formula_units_Z 88
_cell_length_a 8.575937
_cell_length_b 22.122304
_cell_length_c 22.955316
_cell_angle_alpha 90.000000
_cell_angle_beta 90.000000
_cell_angle_gamma 90.000000
_cell_volume 4355.070739
_symmetry_space_group_name_H-M "I M M A"
_symmetry_group_IT_number 74
_symmetry_cell_setting 'orthorhombic'
loop_
_space_group_symop_operation_xyz
x,y,z
-x,1/2-y,z
x,-y,-z
-x,1/2+y,-z
-x,-y,-z
x,1/2+y,-z
-x,y,z
x,1/2-y,z
1/2+x,1/2+y,1/2+z
1/2-x,-y,1/2+z
1/2+x,1/2-y,1/2-z
1/2-x,y,1/2-z
1/2-x,1/2-y,1/2-z
1/2+x,y,1/2-z
1/2-x,1/2+y,1/2+z
1/2+x,-y,1/2+z
loop_
_atom_site_type_symbol
_atom_site_label
_atom_site_fract_x
_atom_site_fract_y
_atom_site_fract_z
Si Si1 0.316971 0.316770 0.191397
Si Si2 0.183505 0.750000 0.315205
Si Si3 0.683515 0.990348 0.311484
Si Si4 0.817250 0.432505 0.983767
Si Si5 0.684281 0.914751 0.898674
Si Si6 0.684028 0.378116 0.866377
O O1 0.500000 0.314292 0.196813
O O2 0.246106 0.250000 0.181639
O O3 0.250000 0.346149 0.250000
O O4 0.263402 0.358206 0.139215
O O5 0.250000 0.750000 0.250000
O O6 0.237010 0.809276 0.352046
O O7 0.000000 0.750000 0.308367
O O8 0.500000 0.999562 0.311960
O O9 0.750000 0.014661 0.250000
O O10 0.729280 0.920282 0.319197
O O11 0.756553 0.024443 0.367168
O O12 0.773882 0.397297 0.042336
O O13 0.000000 0.432796 0.969443
O O14 0.755935 0.500000 0.000000
O O15 0.730319 0.399024 0.931238
O O16 0.500000 0.920155 0.908894
O O17 0.500000 0.385763 0.858719
#
# Coordination Sequence:
#
# PCOD8301429 Si02
#       6
#    16   8  16  16  16  16
#     4   9  19  36  57  83 115 151 192 238 291 349
#     4  10  24  44  68  98 128 164 209 260 315 378
#     4  12  24  38  58  89 124 157 198 249 304 364
#     4  11  23  40  62  89 122 158 199 248 302 361
#     4  11  22  37  60  87 117 157 201 248 304 362
#     4  11  23  42  66  92 123 161 206 253 311 371
#
# _framework density 20.206330999999999
#
# number of rings (size 3 to 8) (size 9 to 14) (size 15 to 20)
#    0.000    1.273    1.818    4.364    0.000    6.545 
#    1.636    0.000    0.000    0.000    0.000    0.000 
#    0.000    0.000    0.000    0.000    0.000    0.000 
#
# Total GULP energy -545564.039736 kJ/mol
# GULP energy per Si atom -12399.182721 kJ/mol
# Density = 2.016034 g / cm^3
# Si number density = 20.206331 Si / 1000 Ang^3
#
#
#
# Elastic Constant Matrix: (Units=GPa)
#
#
# Indices 1 2 3 4 5 6 
#
# 1 35.2965 21.8828 15.9567 0.0000 0.0000 0.0000
# 2 21.8828 101.8771 44.1460 0.0000 0.0000 0.0000
# 3 15.9567 44.1460 130.7116 0.0000 0.0000 0.0000
# 4 0.0000 0.0000 0.0000 29.3552 0.0000 0.0000
# 5 0.0000 0.0000 0.0000 0.0000 38.4829 0.0000
# 6 0.0000 0.0000 0.0000 0.0000 0.0000 8.3391
#
#
#
# Elastic Compliance Matrix: (Units=1/GPa)
#
#
# Indices 1 2 3 4 5 6 
#
# 1 0.033090 -0.006276 -0.001920 0.000000 0.000000 0.000000
# 2 -0.006276 0.012689 -0.003519 0.000000 0.000000 0.000000
# 3 -0.001920 -0.003519 0.009073 0.000000 0.000000 0.000000
# 4 0.000000 0.000000 0.000000 0.034065 0.000000 0.000000
# 5 0.000000 0.000000 0.000000 0.000000 0.025986 0.000000
# 6 0.000000 0.000000 0.000000 0.000000 0.000000 0.119918
#
#
# Mechanical properties :
#
#
# Convention : Reuss Voigt Hill
#
# Bulk Modulus (GPa) = 31.82451 47.98403 39.90427
# Shear Modulus (GPa) = 18.60638 27.62876 23.11757
#
# Velocity S-wave (km/s) = 3.03779 3.70176 3.38609
# Velocity P-wave (km/s) = 5.29983 6.48608 5.92273
#
# Compressibility (1/GPa) = 0.03142232
#
# Stress axis : x y z
#
# Youngs Moduli (GPa) = 30.22052 78.80991 110.21204
#
# Poissons Ratio (x) = 0.49458 0.21161
# Poissons Ratio (y) = 0.18965 0.38787
# Poissons Ratio (z) = 0.05802 0.27736
#
# Static dielectric constant tensor:
#      x y z
#    x 3.574700 0.000000 0.000000 
#    y 0.000000 4.140130 0.000000 
#    z 0.000000 0.000000 3.831140 
# 
# 
# High freq. dielectric constant tensor:
#      x y z
#    x 1.790620 0.000000 0.000000 
#    y 0.000000 1.787940 0.000000 
#    z 0.000000 0.000000 1.801430 
# 
# From -- ./inp_files/48762.got.cif
#   From: 2010.03.12/outbox.cif.g09.slc.cpg/sg74_25_cif.got.tgz:48762.got - 2010.04.16 15:46:19.
