data_PCOD8301562
_publ_section_title
;
Structure prediction by ZEFSAII (Michael W. Deem and Ramdas Pophale) SiO2 
 PCOD8301562
Probable space group: I M M A
;
_chemical_formula_sum "Si O2"
_cell_formula_units_Z 52
_cell_length_a 13.786067
_cell_length_b 23.119412
_cell_length_c 8.875268
_cell_angle_alpha 90.000000
_cell_angle_beta 90.000000
_cell_angle_gamma 90.000000
_cell_volume 2828.776564
_symmetry_space_group_name_H-M "I M M A"
_symmetry_group_IT_number 74
_symmetry_cell_setting 'orthorhombic'
loop_
_space_group_symop_operation_xyz
x,y,z
-x,1/2-y,z
x,-y,-z
-x,1/2+y,-z
-x,-y,-z
x,1/2+y,-z
-x,y,z
x,1/2-y,z
1/2+x,1/2+y,1/2+z
1/2-x,-y,1/2+z
1/2+x,1/2-y,1/2-z
1/2-x,y,1/2-z
1/2-x,1/2-y,1/2-z
1/2+x,y,1/2-z
1/2-x,1/2+y,1/2+z
1/2+x,-y,1/2+z
loop_
_atom_site_type_symbol
_atom_site_label
_atom_site_fract_x
_atom_site_fract_y
_atom_site_fract_z
Si Si1 0.156822 0.531880 0.653788
Si Si2 0.500000 0.375881 0.072220
Si Si3 0.000000 0.529763 0.158244
Si Si4 0.000000 0.250000 0.455567
Si Si5 0.000000 0.346775 0.776591
Si Si6 0.363624 0.250000 0.768110
O O1 0.188167 0.500000 0.500000
O O2 0.250000 0.550288 0.750000
O O3 0.095110 0.485635 0.747398
O O4 0.095533 0.590054 0.625276
O O5 0.500000 0.309823 0.141205
O O6 0.500000 0.371205 0.893006
O O7 0.000000 0.597766 0.116444
O O8 0.000000 0.500000 0.000000
O O9 0.903090 0.250000 0.560042
O O10 0.095059 0.307971 0.810574
O O11 0.250000 0.250000 0.750000
#
# Coordination Sequence:
#
# PCOD8301562 Si02
#       6
#    16   8   8   4   8   8
#     4  11  21  36  57  83 114 149 188 234 286 344
#     4   9  17  39  58  75 113 150 190 231 288 335
#     4  11  21  37  53  83 115 153 188 230 284 342
#     4   8  18  34  58  80 102 154 194 224 288 340
#     4   9  17  34  56  77 115 155 182 236 288 332
#     4   8  16  30  52  85 105 142 199 233 276 328
#
# _framework density 18.382507
#
# number of rings (size 3 to 8) (size 9 to 14) (size 15 to 20)
#    0.000    2.769    3.077    1.846    0.000    1.231 
#   11.077    0.769    0.000    7.385    0.000    0.000 
#    0.000    0.000    0.000    0.000    0.000    0.000 
#
# Total GULP energy -322226.175905 kJ/mol
# GULP energy per Si atom -12393.314458 kJ/mol
# Density = 1.834067 g / cm^3
# Si number density = 18.382507 Si / 1000 Ang^3
#
#
#
# Elastic Constant Matrix: (Units=GPa)
#
#
# Indices 1 2 3 4 5 6 
#
# 1 165.4348 66.8998 41.9958 0.0000 0.0000 0.0000
# 2 66.8998 196.2440 41.5832 -0.0002 0.0000 0.0000
# 3 41.9958 41.5832 80.0524 -0.0008 0.0003 -0.0001
# 4 0.0000 -0.0002 -0.0008 27.5804 0.0001 0.0000
# 5 0.0000 0.0000 0.0003 0.0001 19.7565 0.0000
# 6 0.0000 0.0000 -0.0001 0.0000 0.0000 8.1800
#
#
#
# Elastic Compliance Matrix: (Units=1/GPa)
#
#
# Indices 1 2 3 4 5 6 
#
# 1 0.007589 -0.001959 -0.002964 0.000000 0.000000 0.000000
# 2 -0.001959 0.006232 -0.002209 0.000000 0.000000 0.000000
# 3 -0.002964 -0.002209 0.015194 0.000000 0.000000 0.000000
# 4 0.000000 0.000000 0.000000 0.036258 0.000000 0.000000
# 5 0.000000 0.000000 0.000000 0.000000 0.050616 0.000000
# 6 0.000000 0.000000 0.000000 0.000000 0.000000 0.122249
#
#
# Mechanical properties :
#
#
# Convention : Reuss Voigt Hill
#
# Bulk Modulus (GPa) = 67.79239 82.52100 75.15669
# Shear Modulus (GPa) = 19.43107 30.52019 24.97563
#
# Velocity S-wave (km/s) = 3.25474 4.07908 3.69000
# Velocity P-wave (km/s) = 7.14726 8.19596 7.68951
#
# Compressibility (1/GPa) = 0.01475092
#
# Stress axis : x y z
#
# Youngs Moduli (GPa) = 131.76468 160.46913 65.81471
#
# Poissons Ratio (x) = 0.31439 0.19505
# Poissons Ratio (y) = 0.25815 0.14540
# Poissons Ratio (z) = 0.39051 0.35452
#
# Static dielectric constant tensor:
#      x y z
#    x 3.239040 0.000000 0.000000 
#    y 0.000000 3.947310 0.000000 
#    z 0.000000 0.000000 3.238630 
# 
# 
# High freq. dielectric constant tensor:
#      x y z
#    x 1.705540 0.000000 0.000000 
#    y 0.000000 1.731000 0.000000 
#    z 0.000000 0.000000 1.679420 
# 
# From -- ./inp_files/8635.got.cif
#   From: 2010.03.12/outbox.cif.g09.slc.cpg/sg74_5_cif.got.tgz:8635.got - 2010.04.16 15:46:19.
