data_PCOD8301259
_publ_section_title
;
Structure prediction by ZEFSAII (Michael W. Deem and Ramdas Pophale) SiO2 
 PCOD8301259
Probable space group: I M M A
;
_chemical_formula_sum "Si O2"
_cell_formula_units_Z 64
_cell_length_a 10.111080
_cell_length_b 13.918666
_cell_length_c 26.856863
_cell_angle_alpha 90.000000
_cell_angle_beta 90.000000
_cell_angle_gamma 90.000000
_cell_volume 3779.640063
_symmetry_space_group_name_H-M "I M M A"
_symmetry_group_IT_number 74
_symmetry_cell_setting 'orthorhombic'
loop_
_space_group_symop_operation_xyz
x,y,z
-x,1/2-y,z
x,-y,-z
-x,1/2+y,-z
-x,-y,-z
x,1/2+y,-z
-x,y,z
x,1/2-y,z
1/2+x,1/2+y,1/2+z
1/2-x,-y,1/2+z
1/2+x,1/2-y,1/2-z
1/2-x,y,1/2-z
1/2-x,1/2-y,1/2-z
1/2+x,y,1/2-z
1/2-x,1/2+y,1/2+z
1/2+x,-y,1/2+z
loop_
_atom_site_type_symbol
_atom_site_label
_atom_site_fract_x
_atom_site_fract_y
_atom_site_fract_z
Si Si1 0.500000 0.250000 0.977086
Si Si2 0.000000 0.250000 0.973523
Si Si3 0.746971 0.750000 0.544570
Si Si4 0.654869 0.861074 0.796588
Si Si5 0.500000 0.541750 0.054888
Si Si6 0.000000 0.538224 0.057653
Si Si7 0.753822 0.055351 0.396794
O O1 0.500000 0.343254 0.942550
O O2 0.376900 0.250000 0.012790
O O3 0.000000 0.346120 0.940355
O O4 0.126148 0.250000 0.007850
O O5 0.742928 0.841585 0.578917
O O6 0.500000 0.887746 0.785772
O O7 0.662133 0.750000 0.813356
O O8 0.750000 0.879517 0.750000
O O9 0.718181 0.929413 0.838554
O O10 0.371704 0.506588 0.082299
O O11 0.500000 0.500000 0.000000
O O12 0.122975 0.502912 0.090009
O O13 0.000000 0.500000 0.000000
#
# Coordination Sequence:
#
# PCOD8301259 Si02
#       7
#     4   4   8  16   8   8  16
#     4  12  24  32  56  82 114 154 196 240 280 324
#     4  12  24  40  52  78 122 160 202 242 270 328
#     4  12  20  34  57  80 119 158 190 235 278 339
#     4  10  22  39  60  88 119 150 190 240 292 351
#     4  12  22  36  55  83 115 153 197 237 282 341
#     4  12  24  38  55  83 117 161 201 233 280 341
#     4  12  22  37  58  85 117 159 194 229 288 352
#
# _framework density 16.932829999999999
#
# number of rings (size 3 to 8) (size 9 to 14) (size 15 to 20)
#    0.000    0.500    7.500    2.250    1.750    0.000 
#    0.000    0.000    0.000    0.000    0.000    5.250 
#    0.000    0.000    0.000    0.000    0.000    0.000 
#
# Total GULP energy -396742.158249 kJ/mol
# GULP energy per Si atom -12398.192445 kJ/mol
# Density = 1.689429 g / cm^3
# Si number density = 16.932830 Si / 1000 Ang^3
#
#
#
# Elastic Constant Matrix: (Units=GPa)
#
#
# Indices 1 2 3 4 5 6 
#
# 1 174.3099 56.1917 73.4583 0.0000 0.0000 0.0000
# 2 56.1917 141.5958 52.7743 0.0000 0.0000 0.0000
# 3 73.4583 52.7743 114.1991 0.0000 0.0000 0.0000
# 4 0.0000 0.0000 0.0000 32.3646 0.0000 0.0000
# 5 0.0000 0.0000 0.0000 0.0000 33.9327 0.0000
# 6 0.0000 0.0000 0.0000 0.0000 0.0000 35.1712
#
#
#
# Elastic Compliance Matrix: (Units=1/GPa)
#
#
# Indices 1 2 3 4 5 6 
#
# 1 0.008141 -0.001545 -0.004523 0.000000 0.000000 0.000000
# 2 -0.001545 0.008825 -0.003084 0.000000 0.000000 0.000000
# 3 -0.004523 -0.003084 0.013091 0.000000 0.000000 0.000000
# 4 0.000000 0.000000 0.000000 0.030898 0.000000 0.000000
# 5 0.000000 0.000000 0.000000 0.000000 0.029470 0.000000
# 6 0.000000 0.000000 0.000000 0.000000 0.000000 0.028432
#
#
# Mechanical properties :
#
#
# Convention : Reuss Voigt Hill
#
# Bulk Modulus (GPa) = 85.08482 88.32817 86.70649
# Shear Modulus (GPa) = 35.44098 36.80573 36.12336
#
# Velocity S-wave (km/s) = 4.57993 4.66728 4.62381
# Velocity P-wave (km/s) = 8.85015 9.01786 8.93440
#
# Compressibility (1/GPa) = 0.01175298
#
# Stress axis : x y z
#
# Youngs Moduli (GPa) = 122.83618 113.31289 76.38712
#
# Poissons Ratio (x) = 0.17508 0.34547
# Poissons Ratio (y) = 0.18979 0.23561
# Poissons Ratio (z) = 0.55554 0.34951
#
# Static dielectric constant tensor:
#      x y z
#    x 3.506650 0.000000 0.000000 
#    y 0.000000 3.381190 0.000000 
#    z 0.000000 0.000000 3.068480 
# 
# 
# High freq. dielectric constant tensor:
#      x y z
#    x 1.681810 0.000000 0.000000 
#    y 0.000000 1.649260 0.000000 
#    z 0.000000 0.000000 1.634600 
# 
# From -- ./inp_files/63589.got.cif
#   From: 2010.03.12/outbox.cif.g09.slc.cpg/sg74_32_cif.got.tgz:63589.got - 2010.04.16 15:46:19.
