data_PCOD8301133
_publ_section_title
;
Structure prediction by ZEFSAII (Michael W. Deem and Ramdas Pophale) SiO2 
 PCOD8301133
Probable space group: I M M A
;
_chemical_formula_sum "Si O2"
_cell_formula_units_Z 104
_cell_length_a 25.303085
_cell_length_b 9.464461
_cell_length_c 19.338488
_cell_angle_alpha 90.000000
_cell_angle_beta 90.000000
_cell_angle_gamma 90.000000
_cell_volume 4631.182289
_symmetry_space_group_name_H-M "I M M A"
_symmetry_group_IT_number 74
_symmetry_cell_setting 'orthorhombic'
loop_
_space_group_symop_operation_xyz
x,y,z
-x,1/2-y,z
x,-y,-z
-x,1/2+y,-z
-x,-y,-z
x,1/2+y,-z
-x,y,z
x,1/2-y,z
1/2+x,1/2+y,1/2+z
1/2-x,-y,1/2+z
1/2+x,1/2-y,1/2-z
1/2-x,y,1/2-z
1/2-x,1/2-y,1/2-z
1/2+x,y,1/2-z
1/2-x,1/2+y,1/2+z
1/2+x,-y,1/2+z
loop_
_atom_site_type_symbol
_atom_site_label
_atom_site_fract_x
_atom_site_fract_y
_atom_site_fract_z
Si Si1 0.154593 0.407938 0.061128
Si Si2 0.877292 0.598461 0.247394
Si Si3 0.387790 0.085761 0.125717
Si Si4 0.500000 0.590153 0.932282
Si Si5 0.722734 0.497708 0.680381
Si Si6 0.701261 0.086991 0.937362
Si Si7 0.560417 0.911219 0.384946
O O1 0.144531 0.250000 0.034096
O O2 0.192703 0.394348 0.128599
O O3 0.098108 0.480984 0.074863
O O4 0.182095 0.500000 0.000000
O O5 0.883189 0.750000 0.286923
O O6 0.874812 0.464411 0.297115
O O7 0.822492 0.610411 0.204620
O O8 0.926656 0.578550 0.196424
O O9 0.371902 0.250000 0.118331
O O10 0.449319 0.057025 0.114066
O O11 0.354914 0.991340 0.072160
O O12 0.500000 0.750000 0.958080
O O13 0.500000 0.500000 0.000000
O O14 0.750000 0.565750 0.750000
O O15 0.766725 0.418056 0.634657
O O16 0.693184 0.250000 0.958931
O O17 0.729335 0.000000 0.000000
O O18 0.500000 0.958446 0.396749
O O19 0.569627 0.750000 0.410499
#
# Coordination Sequence:
#
# PCOD8301133 Si02
#       7
#    16  16  16   8  16  16  16
#     4  11  25  44  67  98 134 177 222 273 332 393
#     4  10  21  39  64  96 131 170 216 266 325 388
#     4  11  24  42  64  94 131 170 215 268 326 389
#     4  10  24  44  64  88 122 166 213 262 321 384
#     4  11  24  44  68  98 131 172 220 271 326 395
#     4  12  26  45  69  99 134 174 220 272 330 393
#     4   9  20  40  66  97 134 174 219 270 325 392
#
# _framework density 22.456468999999998
#
# number of rings (size 3 to 8) (size 9 to 14) (size 15 to 20)
#    0.000    1.385    1.538    2.769    1.077   10.769 
#    0.000    0.000    0.000    0.000    0.000    0.000 
#    0.000    0.000    0.000    0.000    0.000    0.000 
#
# Total GULP energy -644475.624647 kJ/mol
# GULP energy per Si atom -12393.762012 kJ/mol
# Density = 2.240536 g / cm^3
# Si number density = 22.456469 Si / 1000 Ang^3
#
#
#
# Elastic Constant Matrix: (Units=GPa)
#
#
# Indices 1 2 3 4 5 6 
#
# 1 132.2103 50.9224 41.5689 0.0000 0.0000 0.0000
# 2 50.9224 164.5330 56.8236 0.0000 0.0000 0.0000
# 3 41.5689 56.8236 129.5291 0.0000 0.0000 0.0000
# 4 0.0000 0.0000 0.0000 33.2973 0.0000 0.0000
# 5 0.0000 0.0000 0.0000 0.0000 23.4246 0.0000
# 6 0.0000 0.0000 0.0000 0.0000 0.0000 4.8178
#
#
#
# Elastic Compliance Matrix: (Units=1/GPa)
#
#
# Indices 1 2 3 4 5 6 
#
# 1 0.008991 -0.002105 -0.001962 0.000000 0.000000 0.000000
# 2 -0.002105 0.007656 -0.002683 0.000000 0.000000 0.000000
# 3 -0.001962 -0.002683 0.009527 0.000000 0.000000 0.000000
# 4 0.000000 0.000000 0.000000 0.030032 0.000000 0.000000
# 5 0.000000 0.000000 0.000000 0.000000 0.042690 0.000000
# 6 0.000000 0.000000 0.000000 0.000000 0.000000 0.207565
#
#
# Mechanical properties :
#
#
# Convention : Reuss Voigt Hill
#
# Bulk Modulus (GPa) = 78.90248 80.54471 79.72360
# Shear Modulus (GPa) = 15.42319 30.77177 23.09748
#
# Velocity S-wave (km/s) = 2.62354 3.70575 3.21057
# Velocity P-wave (km/s) = 6.66253 7.36580 7.02297
#
# Compressibility (1/GPa) = 0.01267387
#
# Stress axis : x y z
#
# Youngs Moduli (GPa) = 111.21687 130.61691 104.96535
#
# Poissons Ratio (x) = 0.27498 0.20594
# Poissons Ratio (y) = 0.23414 0.28162
# Poissons Ratio (z) = 0.21821 0.35045
#
# Static dielectric constant tensor:
#      x y z
#    x 4.140630 0.000000 0.000000 
#    y 0.000000 3.803970 0.000000 
#    z 0.000000 0.000000 4.317530 
# 
# 
# High freq. dielectric constant tensor:
#      x y z
#    x 1.894660 0.000000 0.000000 
#    y 0.000000 1.870750 0.000000 
#    z 0.000000 0.000000 1.888610 
# 
# From -- ./inp_files/55209.got.cif
#   From: 2010.03.12/outbox.cif.g09.slc.cpg/sg74_28_cif.got.tgz:55209.got - 2010.04.16 15:46:19.
