data_PCOD8301655
_publ_section_title
;
Structure prediction by ZEFSAII (Michael W. Deem and Ramdas Pophale) SiO2 
 PCOD8301655
Probable space group: I M M A
;
_chemical_formula_sum "Si O2"
_cell_formula_units_Z 96
_cell_length_a 14.197747
_cell_length_b 19.160733
_cell_length_c 18.629705
_cell_angle_alpha 90.000000
_cell_angle_beta 90.000000
_cell_angle_gamma 90.000000
_cell_volume 5068.010780
_symmetry_space_group_name_H-M "I M M A"
_symmetry_group_IT_number 74
_symmetry_cell_setting 'orthorhombic'
loop_
_space_group_symop_operation_xyz
x,y,z
-x,1/2-y,z
x,-y,-z
-x,1/2+y,-z
-x,-y,-z
x,1/2+y,-z
-x,y,z
x,1/2-y,z
1/2+x,1/2+y,1/2+z
1/2-x,-y,1/2+z
1/2+x,1/2-y,1/2-z
1/2-x,y,1/2-z
1/2-x,1/2-y,1/2-z
1/2+x,y,1/2-z
1/2-x,1/2+y,1/2+z
1/2+x,-y,1/2+z
loop_
_atom_site_type_symbol
_atom_site_label
_atom_site_fract_x
_atom_site_fract_y
_atom_site_fract_z
Si Si1 0.608773 0.559989 0.158076
Si Si2 0.746866 0.471457 0.422054
Si Si3 0.250634 0.329729 0.133087
Si Si4 0.608726 0.946969 0.326631
Si Si5 0.102300 0.329935 0.250055
Si Si6 0.254862 0.673307 0.333949
O O1 0.500000 0.568395 0.137565
O O2 0.654222 0.500258 0.108464
O O3 0.622849 0.540383 0.241694
O O4 0.660855 0.633053 0.140142
O O5 0.723682 0.500000 0.500000
O O6 0.751334 0.386849 0.430343
O O7 0.662647 0.491079 0.367416
O O8 0.267307 0.250000 0.105599
O O9 0.150366 0.335544 0.172573
O O10 0.330838 0.358296 0.187290
O O11 0.500000 0.946798 0.348735
O O12 0.653097 0.873078 0.351904
O O13 0.086202 0.250000 0.268867
O O14 0.000000 0.368819 0.249315
O O15 0.261375 0.750000 0.371329
O O16 0.250000 0.684977 0.250000
#
# Coordination Sequence:
#
# PCOD8301655 Si02
#       6
#    16  16  16  16  16  16
#     4   9  19  35  55  78 105 141 183 227 278 333
#     4  11  23  37  52  75 111 149 184 226 274 339
#     4   9  19  34  53  77 106 139 179 226 275 328
#     4   9  19  35  55  78 105 141 183 227 278 333
#     4   8  15  29  52  83 109 128 161 217 280 332
#     4   8  14  27  50  79 108 134 169 223 274 315
#
# _framework density 18.942343000000001
#
# number of rings (size 3 to 8) (size 9 to 14) (size 15 to 20)
#    0.000    3.000    0.000    2.500    4.667    2.667 
#    0.000    6.667    0.000    0.000    0.000    0.000 
#    0.000    0.000    0.000    0.000    0.000    0.000 
#
# Total GULP energy -594788.184614 kJ/mol
# GULP energy per Si atom -12391.420513 kJ/mol
# Density = 1.889923 g / cm^3
# Si number density = 18.942343 Si / 1000 Ang^3
#
#
#
# Elastic Constant Matrix: (Units=GPa)
#
#
# Indices 1 2 3 4 5 6 
#
# 1 132.6034 21.2085 6.2894 0.0000 0.0000 0.0000
# 2 21.2085 132.2515 22.7520 0.0000 0.0000 0.0000
# 3 6.2894 22.7520 38.8269 0.0000 0.0000 0.0000
# 4 0.0000 0.0000 0.0000 19.6248 0.0000 0.0000
# 5 0.0000 0.0000 0.0000 0.0000 9.8161 0.0000
# 6 0.0000 0.0000 0.0000 0.0000 0.0000 13.3608
#
#
#
# Elastic Compliance Matrix: (Units=1/GPa)
#
#
# Indices 1 2 3 4 5 6 
#
# 1 0.007752 -0.001142 -0.000586 0.000000 0.000000 0.000000
# 2 -0.001142 0.008577 -0.004841 0.000000 0.000000 0.000000
# 3 -0.000586 -0.004841 0.028687 0.000000 0.000000 0.000000
# 4 0.000000 0.000000 0.000000 0.050956 0.000000 0.000000
# 5 0.000000 0.000000 0.000000 0.000000 0.101874 0.000000
# 6 0.000000 0.000000 0.000000 0.000000 0.000000 0.074846
#
#
# Mechanical properties :
#
#
# Convention : Reuss Voigt Hill
#
# Bulk Modulus (GPa) = 31.37079 44.90906 38.13993
# Shear Modulus (GPa) = 16.86587 25.45580 21.16084
#
# Velocity S-wave (km/s) = 2.98716 3.66984 3.34596
# Velocity P-wave (km/s) = 5.33804 6.45885 5.92501
#
# Compressibility (1/GPa) = 0.03187678
#
# Stress axis : x y z
#
# Youngs Moduli (GPa) = 129.00255 116.58566 34.85883
#
# Poissons Ratio (x) = 0.13317 0.02044
# Poissons Ratio (y) = 0.14735 0.16876
# Poissons Ratio (z) = 0.07564 0.56441
#
# Static dielectric constant tensor:
#      x y z
#    x 3.939550 0.000000 0.000000 
#    y 0.000000 3.644690 0.000000 
#    z 0.000000 0.000000 2.988550 
# 
# 
# High freq. dielectric constant tensor:
#      x y z
#    x 1.739830 0.000000 0.000000 
#    y 0.000000 1.740480 0.000000 
#    z 0.000000 0.000000 1.682920 
# 
# From -- ./inp_files/32372.got.cif
#   From: 2010.03.12/outbox.cif.g09.slc.cpg/sg74_17_cif.got.tgz:32372.got - 2010.04.16 15:46:19.
