data_PCOD8301170
_publ_section_title
;
Structure prediction by ZEFSAII (Michael W. Deem and Ramdas Pophale) SiO2 
 PCOD8301170
Probable space group: I M M A
;
_chemical_formula_sum "Si O2"
_cell_formula_units_Z 80
_cell_length_a 24.310663
_cell_length_b 18.931629
_cell_length_c 8.884669
_cell_angle_alpha 90.000000
_cell_angle_beta 90.000000
_cell_angle_gamma 90.000000
_cell_volume 4089.084082
_symmetry_space_group_name_H-M "I M M A"
_symmetry_group_IT_number 74
_symmetry_cell_setting 'orthorhombic'
loop_
_space_group_symop_operation_xyz
x,y,z
-x,1/2-y,z
x,-y,-z
-x,1/2+y,-z
-x,-y,-z
x,1/2+y,-z
-x,y,z
x,1/2-y,z
1/2+x,1/2+y,1/2+z
1/2-x,-y,1/2+z
1/2+x,1/2-y,1/2-z
1/2-x,y,1/2-z
1/2-x,1/2-y,1/2-z
1/2+x,y,1/2-z
1/2-x,1/2+y,1/2+z
1/2+x,-y,1/2+z
loop_
_atom_site_type_symbol
_atom_site_label
_atom_site_fract_x
_atom_site_fract_y
_atom_site_fract_z
Si Si1 0.209899 0.328285 0.888122
Si Si2 0.776968 0.429987 0.404668
Si Si3 0.000000 0.056335 0.228948
Si Si4 0.500000 0.098773 0.615345
Si Si5 0.099895 0.166741 0.738709
Si Si6 0.399781 0.079062 0.058146
O O1 0.197559 0.250000 0.953576
O O2 0.250000 0.322524 0.750000
O O3 0.154617 0.363504 0.820302
O O4 0.237059 0.372813 0.020598
O O5 0.780227 0.500000 0.500000
O O6 0.750000 0.452575 0.250000
O O7 0.839045 0.401288 0.378699
O O8 0.945823 0.086559 0.312396
O O9 0.000000 0.970925 0.221586
O O10 0.000000 0.083157 0.060057
O O11 0.448024 0.147307 0.647721
O O12 0.104896 0.250000 0.712675
O O13 0.087795 0.132021 0.577817
O O14 0.402078 0.000000 0.000000
#
# Coordination Sequence:
#
# PCOD8301170 Si02
#       6
#    16  16   8   8  16  16
#     4  10  21  41  65  91 126 166 207 251 308 376
#     4  11  25  38  62  96 129 163 206 261 314 372
#     4  11  24  40  64  95 126 162 205 269 317 370
#     4  11  24  41  63  96 125 162 212 260 324 372
#     4  11  23  42  68  92 125 170 213 257 310 380
#     4  11  22  41  64  93 124 165 211 258 308 378
#
# _framework density 19.564283
#
# number of rings (size 3 to 8) (size 9 to 14) (size 15 to 20)
#    0.000    1.200    4.000    1.800    5.600    0.400 
#    0.000    2.000    0.000    0.000    0.000    0.000 
#    0.000    0.000    0.000    0.000    0.000    0.000 
#
# Total GULP energy -496007.957432 kJ/mol
# GULP energy per Si atom -12400.198936 kJ/mol
# Density = 1.951975 g / cm^3
# Si number density = 19.564283 Si / 1000 Ang^3
#
#
#
# Elastic Constant Matrix: (Units=GPa)
#
#
# Indices 1 2 3 4 5 6 
#
# 1 162.7205 36.1799 70.7653 0.0000 0.0000 0.0000
# 2 36.1799 72.9211 34.8247 0.0000 0.0000 0.0000
# 3 70.7653 34.8247 108.2569 0.0000 0.0000 0.0000
# 4 0.0000 0.0000 0.0000 25.3224 0.0000 0.0000
# 5 0.0000 0.0000 0.0000 0.0000 38.7868 0.0000
# 6 0.0000 0.0000 0.0000 0.0000 0.0000 29.4532
#
#
#
# Elastic Compliance Matrix: (Units=1/GPa)
#
#
# Indices 1 2 3 4 5 6 
#
# 1 0.008807 -0.001914 -0.005141 0.000000 0.000000 0.000000
# 2 -0.001914 0.016619 -0.004095 0.000000 0.000000 0.000000
# 3 -0.005141 -0.004095 0.013915 0.000000 0.000000 0.000000
# 4 0.000000 0.000000 0.000000 0.039491 0.000000 0.000000
# 5 0.000000 0.000000 0.000000 0.000000 0.025782 0.000000
# 6 0.000000 0.000000 0.000000 0.000000 0.000000 0.033952
#
#
# Mechanical properties :
#
#
# Convention : Reuss Voigt Hill
#
# Bulk Modulus (GPa) = 58.68341 69.71538 64.19939
# Shear Modulus (GPa) = 30.02174 32.18774 31.10474
#
# Velocity S-wave (km/s) = 3.92154 4.06054 3.99165
# Velocity P-wave (km/s) = 7.11090 7.59575 7.35732
#
# Compressibility (1/GPa) = 0.01704059
#
# Stress axis : x y z
#
# Youngs Moduli (GPa) = 113.54659 60.17309 71.86436
#
# Poissons Ratio (x) = 0.11519 0.36946
# Poissons Ratio (y) = 0.21737 0.29426
# Poissons Ratio (z) = 0.58375 0.24639
#
# Static dielectric constant tensor:
#      x y z
#    x 3.990120 0.000000 0.000000 
#    y 0.000000 3.661140 0.000000 
#    z 0.000000 0.000000 3.258540 
# 
# 
# High freq. dielectric constant tensor:
#      x y z
#    x 1.784660 0.000000 0.000000 
#    y 0.000000 1.755130 0.000000 
#    z 0.000000 0.000000 1.756360 
# 
# From -- ./inp_files/14972.got.cif
#   From: 2010.03.12/outbox.cif.g09.slc.cpg/sg74_8_cif.got.tgz:14972.got - 2010.04.16 15:46:19.
