data_PCOD8301851
_publ_section_title
;
Structure prediction by ZEFSAII (Michael W. Deem and Ramdas Pophale) SiO2 
 PCOD8301851
Probable space group: P 41
;
_chemical_formula_sum "Si O2"
_cell_formula_units_Z 32
_cell_length_a 9.182403
_cell_length_b 9.182403
_cell_length_c 20.443154
_cell_angle_alpha 90.000000
_cell_angle_beta 90.000000
_cell_angle_gamma 90.000000
_cell_volume 1723.695702
_symmetry_space_group_name_H-M "P 41"
_symmetry_group_IT_number 76
_symmetry_cell_setting 'tetragonal'
loop_
_space_group_symop_operation_xyz
x,y,z
-y,x,1/4+z
-x,-y,1/2+z
y,-x,3/4+z
loop_
_atom_site_type_symbol
_atom_site_label
_atom_site_fract_x
_atom_site_fract_y
_atom_site_fract_z
Si Si1 0.673233 0.861295 0.056640
Si Si2 0.332470 0.852199 0.055348
Si Si3 0.177624 0.153331 0.044298
Si Si4 0.176199 0.343818 0.164258
Si Si5 0.833889 0.331877 0.657660
Si Si6 0.157373 0.169828 0.796328
Si Si7 0.171871 0.324460 0.661181
Si Si8 0.832371 0.341857 0.168587
O O1 0.501761 0.896142 0.064563
O O2 0.722670 0.734526 0.105082
O O3 0.768268 0.003981 0.071732
O O4 0.707022 0.809022 0.983313
O O5 0.277267 0.762842 0.116657
O O6 0.230600 0.991211 0.053228
O O7 0.311398 0.760798 0.987309
O O8 0.234710 0.235974 0.109085
O O9 0.003734 0.153676 0.038301
O O10 0.249114 0.229608 0.980240
O O11 0.215899 0.505169 0.141595
O O12 0.004486 0.330334 0.173311
O O13 0.003567 0.307388 0.639034
O O14 0.203252 0.237496 0.727448
O O15 0.275364 0.220744 0.849947
O O16 0.217131 0.491260 0.673622
#
# Coordination Sequence:
#
# PCOD8301851 Si02
#       8
#     4   4   4   4   4   4   4   4
#     4  10  21  36  53  78 109 141 178 218 266 321
#     4  10  20  35  54  77 108 139 175 221 265 316
#     4  10  18  33  57  81 103 134 175 219 266 315
#     4   8  18  35  52  75 105 134 169 216 266 312
#     4   9  19  36  54  74 103 138 174 216 261 312
#     4  10  19  34  58  82 106 138 179 223 269 323
#     4  10  20  36  56  78 107 140 177 221 266 317
#     4   9  19  35  54  79 109 136 171 222 271 314
#
# _framework density 18.564762000000002
#
# number of rings (size 3 to 8) (size 9 to 14) (size 15 to 20)
#    0.000    2.500    0.000    3.750    0.000    7.000 
#    0.000   11.250    0.000    0.000    0.000    0.000 
#    0.000    0.000    0.000    0.000    0.000    0.000 
#
# Total GULP energy -396706.528914 kJ/mol
# GULP energy per Si atom -12397.079029 kJ/mol
# Density = 1.852251 g / cm^3
# Si number density = 18.564762 Si / 1000 Ang^3
#
#
#
# Elastic Constant Matrix: (Units=GPa)
#
#
# Indices 1 2 3 4 5 6 
#
# 1 81.9715 33.5277 58.6833 0.0000 0.0000 -0.7122
# 2 33.5277 81.9715 58.6833 0.0000 0.0000 0.7122
# 3 58.6833 58.6833 126.8444 0.0000 0.0000 0.0000
# 4 0.0000 0.0000 0.0000 21.6851 0.0000 0.0000
# 5 0.0000 0.0000 0.0000 0.0000 21.6851 0.0000
# 6 -0.7122 0.7122 0.0000 0.0000 0.0000 5.7616
#
#
#
# Elastic Compliance Matrix: (Units=1/GPa)
#
#
# Indices 1 2 3 4 5 6 
#
# 1 0.018529 -0.002189 -0.007559 0.000000 0.000000 0.002561
# 2 -0.002189 0.018529 -0.007559 0.000000 0.000000 -0.002561
# 3 -0.007559 -0.007559 0.014878 0.000000 0.000000 0.000000
# 4 0.000000 0.000000 0.000000 0.046115 0.000000 0.000000
# 5 0.000000 0.000000 0.000000 0.000000 0.046115 0.000000
# 6 0.002561 -0.002561 0.000000 0.000000 0.000000 0.174195
#
#
# Mechanical properties :
#
#
# Convention : Reuss Voigt Hill
#
# Bulk Modulus (GPa) = 57.73662 65.84178 61.78920
# Shear Modulus (GPa) = 13.93730 19.15256 16.54493
#
# Velocity S-wave (km/s) = 2.74294 3.21543 2.98854
# Velocity P-wave (km/s) = 6.41866 7.02341 6.72784
#
# Compressibility (1/GPa) = 0.01732003
#
# Stress axis : x y z
#
# Youngs Moduli (GPa) = 53.97023 53.97023 67.21233
#
# Poissons Ratio (x) = 0.11814 0.50808
# Poissons Ratio (y) = 0.11814 0.50808
# Poissons Ratio (z) = 0.40798 0.40798
#
# Static dielectric constant tensor:
#      x y z
#    x 3.326610 0.000000 0.000000 
#    y 0.000000 3.326610 0.000000 
#    z 0.000000 0.000000 3.742340 
# 
# 
# High freq. dielectric constant tensor:
#      x y z
#    x 1.707210 0.000000 0.000000 
#    y 0.000000 1.707210 0.000000 
#    z 0.000000 0.000000 1.737400 
# 
# From -- ./inp_files/1441.got.cif
#   From: 2010.03.12/outbox.cif.g09.slc.cpg/sg76_cif.got.tgz:1441.got - 2010.04.16 16:34:25.
