data_PCOD8301489
_publ_section_title
;
Structure prediction by ZEFSAII (Michael W. Deem and Ramdas Pophale) SiO2 
 PCOD8301489
Probable space group: I M M A
;
_chemical_formula_sum "Si O2"
_cell_formula_units_Z 80
_cell_length_a 12.411627
_cell_length_b 18.084261
_cell_length_c 22.802173
_cell_angle_alpha 90.000000
_cell_angle_beta 90.000000
_cell_angle_gamma 90.000000
_cell_volume 5118.064069
_symmetry_space_group_name_H-M "I M M A"
_symmetry_group_IT_number 74
_symmetry_cell_setting 'orthorhombic'
loop_
_space_group_symop_operation_xyz
x,y,z
-x,1/2-y,z
x,-y,-z
-x,1/2+y,-z
-x,-y,-z
x,1/2+y,-z
-x,y,z
x,1/2-y,z
1/2+x,1/2+y,1/2+z
1/2-x,-y,1/2+z
1/2+x,1/2-y,1/2-z
1/2-x,y,1/2-z
1/2-x,1/2-y,1/2-z
1/2+x,y,1/2-z
1/2-x,1/2+y,1/2+z
1/2+x,-y,1/2+z
loop_
_atom_site_type_symbol
_atom_site_label
_atom_site_fract_x
_atom_site_fract_y
_atom_site_fract_z
Si Si1 0.000000 0.628692 0.166701
Si Si2 0.377779 0.119140 0.016539
Si Si3 0.292394 0.250000 0.844260
Si Si4 0.500000 0.250000 0.567725
Si Si5 0.276407 0.589082 0.315605
Si Si6 0.500000 0.750000 0.234265
Si Si7 0.741233 0.250000 0.522876
Si Si8 0.879509 0.485016 0.594576
O O1 0.000000 0.677457 0.107847
O O2 0.100384 0.572345 0.167698
O O3 0.000000 0.677117 0.226284
O O4 0.500000 0.151993 0.020886
O O5 0.284042 0.180117 0.014002
O O6 0.368543 0.070617 0.958758
O O7 0.353634 0.068113 0.073151
O O8 0.228005 0.322281 0.824544
O O9 0.404400 0.250000 0.811872
O O10 0.302511 0.250000 0.914558
O O11 0.610289 0.250000 0.528659
O O12 0.250000 0.566289 0.250000
O O13 0.200692 0.539468 0.355124
O O14 0.000000 0.481313 0.620517
#
# Coordination Sequence:
#
# PCOD8301489 Si02
#       8
#     8  16   8   4  16   4   8  16
#     4  11  20  32  41  61 102 134 173 196 222 272
#     4   9  18  33  52  72  93 121 161 210 249 284
#     4  12  21  30  44  71 101 132 171 198 229 277
#     4  11  20  30  42  66 102 132 154 199 234 272
#     4  12  22  32  46  68  98 140 168 199 235 282
#     4  11  22  28  40  66 102 132 168 211 232 256
#     4  12  20  31  51  72  96 127 167 196 241 297
#     4   9  19  34  49  69  98 126 159 204 250 284
#
# _framework density 15.63091
#
# number of rings (size 3 to 8) (size 9 to 14) (size 15 to 20)
#    0.000    1.400    6.000    2.400    4.200    0.000 
#    0.000    1.000    0.000    3.600    0.000    0.700 
#    0.000    0.000    0.000    0.000    0.000    0.000 
#
# Total GULP energy -495833.311647 kJ/mol
# GULP energy per Si atom -12395.832791 kJ/mol
# Density = 1.559533 g / cm^3
# Si number density = 15.630910 Si / 1000 Ang^3
#
#
#
# Elastic Constant Matrix: (Units=GPa)
#
#
# Indices 1 2 3 4 5 6 
#
# 1 151.4204 59.0869 57.0264 0.0000 0.0000 0.0000
# 2 59.0869 63.3420 38.1391 0.0000 0.0000 0.0000
# 3 57.0264 38.1391 75.2958 0.0000 0.0000 0.0000
# 4 0.0000 0.0000 0.0000 8.8747 0.0000 0.0000
# 5 0.0000 0.0000 0.0000 0.0000 14.5093 0.0000
# 6 0.0000 0.0000 0.0000 0.0000 0.0000 -2.4296
#
#
#
# Elastic Compliance Matrix: (Units=1/GPa)
#
#
# Indices 1 2 3 4 5 6 
#
# 1 0.011427 -0.007839 -0.004684 0.000000 0.000000 0.000000
# 2 -0.007839 0.028093 -0.008293 0.000000 0.000000 0.000000
# 3 -0.004684 -0.008293 0.021029 0.000000 0.000000 0.000000
# 4 0.000000 0.000000 0.000000 0.112680 0.000000 0.000000
# 5 0.000000 0.000000 0.000000 0.000000 0.068921 0.000000
# 6 0.000000 0.000000 0.000000 0.000000 0.000000 -0.411595
#
#
# Mechanical properties :
#
#
# Convention : Reuss Voigt Hill
#
# Bulk Modulus (GPa) = 52.86079 66.50699 59.68389
# Shear Modulus (GPa) = -41.14968 13.24460 -13.95254
#
# Velocity S-wave (km/s) = -5.13644 2.91406 -2.99092
# Velocity P-wave (km/s) = 1.13392 7.34596 5.13212
#
# Compressibility (1/GPa) = 0.01891761
#
# Stress axis : x y z
#
# Youngs Moduli (GPa) = 87.51126 35.59582 47.55430
#
# Poissons Ratio (x) = 0.27905 0.22273
# Poissons Ratio (y) = 0.68603 0.39435
# Poissons Ratio (z) = 0.40987 0.29518
#
# Static dielectric constant tensor:
#      x y z
#    x 3.243010 0.000000 0.000000 
#    y 0.000000 2.955210 0.000000 
#    z 0.000000 0.000000 3.008310 
# 
# 
# High freq. dielectric constant tensor:
#      x y z
#    x 1.615180 0.000000 0.000000 
#    y 0.000000 1.563420 0.000000 
#    z 0.000000 0.000000 1.576490 
# 
# From -- ./inp_files/58821.got.cif
#   From: 2010.03.12/outbox.cif.g09.slc.cpg/sg74_30_cif.got.tgz:58821.got - 2010.04.16 15:46:19.
