data_PCOD8301599
_publ_section_title
;
Structure prediction by ZEFSAII (Michael W. Deem and Ramdas Pophale) SiO2 
 PCOD8301599
Probable space group: I M M A
;
_chemical_formula_sum "Si O2"
_cell_formula_units_Z 96
_cell_length_a 17.773520
_cell_length_b 18.558854
_cell_length_c 16.293917
_cell_angle_alpha 90.000000
_cell_angle_beta 90.000000
_cell_angle_gamma 90.000000
_cell_volume 5374.648938
_symmetry_space_group_name_H-M "I M M A"
_symmetry_group_IT_number 74
_symmetry_cell_setting 'orthorhombic'
loop_
_space_group_symop_operation_xyz
x,y,z
-x,1/2-y,z
x,-y,-z
-x,1/2+y,-z
-x,-y,-z
x,1/2+y,-z
-x,y,z
x,1/2-y,z
1/2+x,1/2+y,1/2+z
1/2-x,-y,1/2+z
1/2+x,1/2-y,1/2-z
1/2-x,y,1/2-z
1/2-x,1/2-y,1/2-z
1/2+x,y,1/2-z
1/2-x,1/2+y,1/2+z
1/2+x,-y,1/2+z
loop_
_atom_site_type_symbol
_atom_site_label
_atom_site_fract_x
_atom_site_fract_y
_atom_site_fract_z
Si Si1 0.911339 0.170734 0.669359
Si Si2 0.588793 0.473838 0.910304
Si Si3 0.587090 0.166003 0.330268
Si Si4 0.910773 0.588072 0.170451
Si Si5 0.410707 0.329683 0.513677
Si Si6 0.838406 0.458926 0.255003
O O1 0.875567 0.250000 0.650210
O O2 0.887950 0.110439 0.601862
O O3 0.884718 0.144001 0.759051
O O4 0.000000 0.179014 0.669624
O O5 0.500000 0.483807 0.894802
O O6 0.632725 0.523122 0.845860
O O7 0.612958 0.500000 0.000000
O O8 0.500000 0.146850 0.316111
O O9 0.601648 0.250000 0.314824
O O10 0.612193 0.144264 0.422797
O O11 0.637569 0.122415 0.265980
O O12 0.875099 0.510587 0.186848
O O13 0.000000 0.578798 0.170494
O O14 0.879687 0.616069 0.082958
O O15 0.500000 0.325308 0.519791
O O16 0.377536 0.250000 0.530493
O O17 0.750000 0.467470 0.250000
#
# Coordination Sequence:
#
# PCOD8301599 Si02
#       6
#    16  16  16  16  16  16
#     4   8  13  23  45  75 100 123 158 207 257 301
#     4   9  18  35  56  73  96 133 176 223 266 301
#     4   9  18  34  55  77 102 132 170 214 254 298
#     4   9  16  28  49  75 103 133 166 202 245 301
#     4   8  14  26  48  79 107 129 157 197 247 299
#     4  11  22  35  49  74 101 137 171 210 259 315
#
# _framework density 17.861632
#
# number of rings (size 3 to 8) (size 9 to 14) (size 15 to 20)
#    0.000    3.000    0.000    4.000    0.000    3.000 
#    3.000    3.333    0.000   15.500    0.000    0.000 
#    0.000    0.000    0.000    0.000    0.000    0.000 
#
# Total GULP energy -594956.557647 kJ/mol
# GULP energy per Si atom -12394.928284 kJ/mol
# Density = 1.782098 g / cm^3
# Si number density = 17.861632 Si / 1000 Ang^3
#
#
#
# Elastic Constant Matrix: (Units=GPa)
#
#
# Indices 1 2 3 4 5 6 
#
# 1 46.7050 30.2847 36.0664 0.0000 0.0000 0.0000
# 2 30.2847 112.8310 70.0349 0.0000 0.0000 0.0000
# 3 36.0664 70.0349 116.0600 0.0000 0.0000 0.0000
# 4 0.0000 0.0000 0.0000 31.0230 0.0000 0.0000
# 5 0.0000 0.0000 0.0000 0.0000 10.3567 0.0000
# 6 0.0000 0.0000 0.0000 0.0000 0.0000 5.5482
#
#
#
# Elastic Compliance Matrix: (Units=1/GPa)
#
#
# Indices 1 2 3 4 5 6 
#
# 1 0.029012 -0.003503 -0.006902 0.000000 0.000000 0.000000
# 2 -0.003503 0.014593 -0.007718 0.000000 0.000000 0.000000
# 3 -0.006902 -0.007718 0.015418 0.000000 0.000000 0.000000
# 4 0.000000 0.000000 0.000000 0.032234 0.000000 0.000000
# 5 0.000000 0.000000 0.000000 0.000000 0.096556 0.000000
# 6 0.000000 0.000000 0.000000 0.000000 0.000000 0.180239
#
#
# Mechanical properties :
#
#
# Convention : Reuss Voigt Hill
#
# Bulk Modulus (GPa) = 43.90067 60.92978 52.41522
# Shear Modulus (GPa) = 12.13914 18.66625 15.40269
#
# Velocity S-wave (km/s) = 2.60978 3.23623 2.93974
# Velocity P-wave (km/s) = 5.80628 6.93905 6.39778
#
# Compressibility (1/GPa) = 0.02277869
#
# Stress axis : x y z
#
# Youngs Moduli (GPa) = 34.46824 68.52391 64.85867
#
# Poissons Ratio (x) = 0.24004 0.44765
# Poissons Ratio (y) = 0.12074 0.50056
# Poissons Ratio (z) = 0.23790 0.52884
#
# Static dielectric constant tensor:
#      x y z
#    x 2.831160 0.000000 0.000000 
#    y 0.000000 3.501670 0.000000 
#    z 0.000000 0.000000 3.352080 
# 
# 
# High freq. dielectric constant tensor:
#      x y z
#    x 1.641190 0.000000 0.000000 
#    y 0.000000 1.697860 0.000000 
#    z 0.000000 0.000000 1.685710 
# 
# From -- ./inp_files/44104.got.cif
#   From: 2010.03.12/outbox.cif.g09.slc.cpg/sg74_23_cif.got.tgz:44104.got - 2010.04.16 15:46:19.
