data_PCOD8301315
_publ_section_title
;
Structure prediction by ZEFSAII (Michael W. Deem and Ramdas Pophale) SiO2 
 PCOD8301315
Probable space group: I M M A
;
_chemical_formula_sum "Si O2"
_cell_formula_units_Z 96
_cell_length_a 23.097571
_cell_length_b 18.809586
_cell_length_c 12.109210
_cell_angle_alpha 90.000000
_cell_angle_beta 90.000000
_cell_angle_gamma 90.000000
_cell_volume 5260.915890
_symmetry_space_group_name_H-M "I M M A"
_symmetry_group_IT_number 74
_symmetry_cell_setting 'orthorhombic'
loop_
_space_group_symop_operation_xyz
x,y,z
-x,1/2-y,z
x,-y,-z
-x,1/2+y,-z
-x,-y,-z
x,1/2+y,-z
-x,y,z
x,1/2-y,z
1/2+x,1/2+y,1/2+z
1/2-x,-y,1/2+z
1/2+x,1/2-y,1/2-z
1/2-x,y,1/2-z
1/2-x,1/2-y,1/2-z
1/2+x,y,1/2-z
1/2-x,1/2+y,1/2+z
1/2+x,-y,1/2+z
loop_
_atom_site_type_symbol
_atom_site_label
_atom_site_fract_x
_atom_site_fract_y
_atom_site_fract_z
Si Si1 0.500000 0.984845 0.871095
Si Si2 0.310815 0.394695 0.200160
Si Si3 0.879231 0.538284 0.288028
Si Si4 0.292707 0.918975 0.037616
Si Si5 0.336166 0.575103 0.442247
Si Si6 0.884907 0.828592 0.869806
Si Si7 0.000000 0.834560 0.741102
O O1 0.500000 0.898138 0.851670
O O2 0.445543 0.026910 0.820497
O O3 0.500000 0.000000 0.000000
O O4 0.250000 0.418955 0.250000
O O5 0.352055 0.461038 0.217273
O O6 0.336544 0.330918 0.272902
O O7 0.306549 0.371683 0.071542
O O8 0.844001 0.589727 0.372927
O O9 0.874249 0.574227 0.168305
O O10 0.229352 0.897097 0.084191
O O11 0.292062 0.000000 0.000000
O O12 0.330119 0.500000 0.500000
O O13 0.370455 0.623945 0.526199
O O14 0.887461 0.750000 0.917358
O O15 0.945613 0.850798 0.817623
O O16 0.000000 0.750000 0.697990
#
# Coordination Sequence:
#
# PCOD8301315 Si02
#       7
#     8  16  16  16  16  16   8
#     4  12  22  37  59  91 119 145 198 252 283 332
#     4  11  17  33  54  82 113 142 189 236 293 341
#     4  11  21  32  55  85 116 150 189 238 290 346
#     4   9  18  30  52  82 115 148 179 236 296 345
#     4  11  18  35  57  81 113 147 195 237 285 353
#     4  11  23  37  57  85 117 154 193 240 294 349
#     4  10  22  41  59  81 123 161 185 233 302 353
#
# _framework density 18.247772999999999
#
# number of rings (size 3 to 8) (size 9 to 14) (size 15 to 20)
#    0.000    1.333    5.000    4.000    0.000    1.000 
#    0.000    1.667    0.000    4.000    0.000    0.000 
#    0.000    0.000    0.000    0.000    0.000    0.000 
#
# Total GULP energy -594895.499085 kJ/mol
# GULP energy per Si atom -12393.656231 kJ/mol
# Density = 1.820624 g / cm^3
# Si number density = 18.247773 Si / 1000 Ang^3
#
#
#
# Elastic Constant Matrix: (Units=GPa)
#
#
# Indices 1 2 3 4 5 6 
#
# 1 147.6968 33.8995 71.7773 0.0000 0.0000 0.0000
# 2 33.8995 56.2663 45.1463 0.0000 0.0000 0.0000
# 3 71.7773 45.1463 152.7332 0.0000 0.0000 0.0000
# 4 0.0000 0.0000 0.0000 17.1129 0.0000 0.0000
# 5 0.0000 0.0000 0.0000 0.0000 8.3040 0.0000
# 6 0.0000 0.0000 0.0000 0.0000 0.0000 12.6269
#
#
#
# Elastic Compliance Matrix: (Units=1/GPa)
#
#
# Indices 1 2 3 4 5 6 
#
# 1 0.009073 -0.002681 -0.003471 0.000000 0.000000 0.000000
# 2 -0.002681 0.024091 -0.005861 0.000000 0.000000 0.000000
# 3 -0.003471 -0.005861 0.009911 0.000000 0.000000 0.000000
# 4 0.000000 0.000000 0.000000 0.058436 0.000000 0.000000
# 5 0.000000 0.000000 0.000000 0.000000 0.120424 0.000000
# 6 0.000000 0.000000 0.000000 0.000000 0.000000 0.079196
#
#
# Mechanical properties :
#
#
# Convention : Reuss Voigt Hill
#
# Bulk Modulus (GPa) = 52.49890 73.14918 62.82404
# Shear Modulus (GPa) = 15.08267 21.33362 18.20815
#
# Velocity S-wave (km/s) = 2.87809 3.42293 3.16227
# Velocity P-wave (km/s) = 6.31483 7.46965 6.91638
#
# Compressibility (1/GPa) = 0.01904802
#
# Stress axis : x y z
#
# Youngs Moduli (GPa) = 110.21721 41.51005 100.89596
#
# Poissons Ratio (x) = 0.11129 0.35025
# Poissons Ratio (y) = 0.29549 0.59135
# Poissons Ratio (z) = 0.38261 0.24329
#
# Static dielectric constant tensor:
#      x y z
#    x 0.889300 0.000000 0.000000 
#    y 0.000000 3.284120 0.000000 
#    z 0.000000 0.000000 3.822760 
# 
# 
# High freq. dielectric constant tensor:
#      x y z
#    x 1.722990 0.000000 0.000000 
#    y 0.000000 1.659300 0.000000 
#    z 0.000000 0.000000 1.711770 
# 
# From -- ./inp_files/23958.got.cif
#   From: 2010.03.12/outbox.cif.g09.slc.cpg/sg74_12_cif.got.tgz:23958.got - 2010.04.16 15:46:19.
