data_PCOD8301455
_publ_section_title
;
Structure prediction by ZEFSAII (Michael W. Deem and Ramdas Pophale) SiO2 
 PCOD8301455
Probable space group: I M M A
;
_chemical_formula_sum "Si O2"
_cell_formula_units_Z 80
_cell_length_a 19.538127
_cell_length_b 9.108975
_cell_length_c 32.663178
_cell_angle_alpha 90.000000
_cell_angle_beta 90.000000
_cell_angle_gamma 90.000000
_cell_volume 5813.141253
_symmetry_space_group_name_H-M "I M M A"
_symmetry_group_IT_number 74
_symmetry_cell_setting 'orthorhombic'
loop_
_space_group_symop_operation_xyz
x,y,z
-x,1/2-y,z
x,-y,-z
-x,1/2+y,-z
-x,-y,-z
x,1/2+y,-z
-x,y,z
x,1/2-y,z
1/2+x,1/2+y,1/2+z
1/2-x,-y,1/2+z
1/2+x,1/2-y,1/2-z
1/2-x,y,1/2-z
1/2-x,1/2-y,1/2-z
1/2+x,y,1/2-z
1/2-x,1/2+y,1/2+z
1/2+x,-y,1/2+z
loop_
_atom_site_type_symbol
_atom_site_label
_atom_site_fract_x
_atom_site_fract_y
_atom_site_fract_z
Si Si1 0.000000 0.585950 0.761083
Si Si2 0.922087 0.920659 0.459925
Si Si3 0.628810 0.576920 0.127181
Si Si4 0.852900 0.576034 0.767672
Si Si5 0.500000 0.584248 0.835807
Si Si6 0.221957 0.076663 0.314067
O O1 0.070992 0.507734 0.776002
O O2 0.000000 0.750000 0.779182
O O3 0.000000 0.589669 0.712560
O O4 0.920739 0.750000 0.469346
O O5 0.874840 0.959974 0.421090
O O6 0.000000 0.972713 0.450680
O O7 0.892106 0.000000 0.500000
O O8 0.624684 0.750000 0.134798
O O9 0.566537 0.500856 0.149952
O O10 0.699192 0.511150 0.145388
O O11 0.859165 0.750000 0.763361
O O12 0.823221 0.520268 0.724313
O O13 0.801316 0.536202 0.804625
O O14 0.500000 0.750000 0.853600
O O15 0.212847 0.250000 0.321359
#
# Coordination Sequence:
#
# PCOD8301455 Si02
#       6
#     8  16  16  16   8  16
#     4   9  14  23  41  60  74  99 136 175 206 224
#     4   9  18  31  42  55  76 101 128 161 198 233
#     4  11  20  30  41  57  83 105 127 167 209 238
#     4   8  14  24  39  58  80 100 133 176 201 222
#     4  11  19  27  42  60  75 101 142 171 195 236
#     4   9  16  27  41  58  77 103 136 168 197 233
#
# _framework density 13.761922
#
# number of rings (size 3 to 8) (size 9 to 14) (size 15 to 20)
#    0.000    2.600    3.000    2.100    0.000    1.600 
#    0.000    2.000    0.000    0.000    0.000    0.000 
#    0.000    0.000    0.000    0.900    0.000    9.400 
#
# Total GULP energy -495674.933020 kJ/mol
# GULP energy per Si atom -12391.873325 kJ/mol
# Density = 1.373060 g / cm^3
# Si number density = 13.761922 Si / 1000 Ang^3
#
#
#
# Elastic Constant Matrix: (Units=GPa)
#
#
# Indices 1 2 3 4 5 6 
#
# 1 111.9692 27.2631 47.7127 0.0000 0.0000 0.0000
# 2 27.2631 44.3370 35.2155 0.0000 0.0000 0.0000
# 3 47.7127 35.2155 81.7389 0.0000 0.0000 0.0000
# 4 0.0000 0.0000 0.0000 21.0221 0.0000 0.0000
# 5 0.0000 0.0000 0.0000 0.0000 19.1822 0.0000
# 6 0.0000 0.0000 0.0000 0.0000 0.0000 13.4824
#
#
#
# Elastic Compliance Matrix: (Units=1/GPa)
#
#
# Indices 1 2 3 4 5 6 
#
# 1 0.012110 -0.002785 -0.005869 0.000000 0.000000 0.000000
# 2 -0.002785 0.034928 -0.013422 0.000000 0.000000 0.000000
# 3 -0.005869 -0.013422 0.021443 0.000000 0.000000 0.000000
# 4 0.000000 0.000000 0.000000 0.047569 0.000000 0.000000
# 5 0.000000 0.000000 0.000000 0.000000 0.052132 0.000000
# 6 0.000000 0.000000 0.000000 0.000000 0.000000 0.074171
#
#
# Mechanical properties :
#
#
# Convention : Reuss Voigt Hill
#
# Bulk Modulus (GPa) = 41.10488 50.93642 46.02065
# Shear Modulus (GPa) = 16.97135 19.26093 18.11614
#
# Velocity S-wave (km/s) = 3.51552 3.74516 3.63215
# Velocity P-wave (km/s) = 6.81263 7.46957 7.14865
#
# Compressibility (1/GPa) = 0.02432801
#
# Stress axis : x y z
#
# Youngs Moduli (GPa) = 82.57588 28.63039 46.63587
#
# Poissons Ratio (x) = 0.07973 0.27371
# Poissons Ratio (y) = 0.22997 0.62596
# Poissons Ratio (z) = 0.48464 0.38429
#
# Static dielectric constant tensor:
#      x y z
#    x 3.063840 0.000000 0.000000 
#    y 0.000000 2.577820 0.000000 
#    z 0.000000 0.000000 2.613730 
# 
# 
# High freq. dielectric constant tensor:
#      x y z
#    x 1.509530 0.000000 0.000000 
#    y 0.000000 1.507970 0.000000 
#    z 0.000000 0.000000 1.496560 
# 
# From -- ./inp_files/73239.got.cif
#   From: 2010.03.12/outbox.cif.g09.slc.cpg/sg74_37_cif.got.tgz:73239.got - 2010.04.16 15:46:19.
