data_PCOD8301079
_publ_section_title
;
Structure prediction by ZEFSAII (Michael W. Deem and Ramdas Pophale) SiO2 
 PCOD8301079
Probable space group: I M M A
;
_chemical_formula_sum "Si O2"
_cell_formula_units_Z 96
_cell_length_a 14.134067
_cell_length_b 20.966099
_cell_length_c 14.495246
_cell_angle_alpha 90.000000
_cell_angle_beta 90.000000
_cell_angle_gamma 90.000000
_cell_volume 4295.466813
_symmetry_space_group_name_H-M "I M M A"
_symmetry_group_IT_number 74
_symmetry_cell_setting 'orthorhombic'
loop_
_space_group_symop_operation_xyz
x,y,z
-x,1/2-y,z
x,-y,-z
-x,1/2+y,-z
-x,-y,-z
x,1/2+y,-z
-x,y,z
x,1/2-y,z
1/2+x,1/2+y,1/2+z
1/2-x,-y,1/2+z
1/2+x,1/2-y,1/2-z
1/2-x,y,1/2-z
1/2-x,1/2-y,1/2-z
1/2+x,y,1/2-z
1/2-x,1/2+y,1/2+z
1/2+x,-y,1/2+z
loop_
_atom_site_type_symbol
_atom_site_label
_atom_site_fract_x
_atom_site_fract_y
_atom_site_fract_z
Si Si1 0.394567 0.566366 0.729471
Si Si2 0.833729 0.936037 0.183221
Si Si3 0.104543 0.320138 0.697280
Si Si4 0.388265 0.941135 0.934841
Si Si5 0.609424 0.179432 0.397485
Si Si6 0.256624 0.142537 0.959275
O O1 0.500000 0.589995 0.748262
O O2 0.396683 0.499812 0.672960
O O3 0.348615 0.551523 0.830065
O O4 0.348332 0.624950 0.671644
O O5 0.750000 0.956495 0.250000
O O6 0.887391 0.874662 0.225413
O O7 0.796748 0.919178 0.081814
O O8 0.109855 0.250000 0.744377
O O9 0.190540 0.321082 0.624134
O O10 0.000000 0.329290 0.650885
O O11 0.500000 0.932486 0.937602
O O12 0.339815 0.877556 0.972002
O O13 0.358135 0.000000 0.000000
O O14 0.500000 0.163897 0.425661
O O15 0.614264 0.250000 0.351328
O O16 0.676610 0.182896 0.487816
#
# Coordination Sequence:
#
# PCOD8301079 Si02
#       6
#    16  16  16  16  16  16
#     4  10  22  41  64  86 119 163 210 265 314 376
#     4  10  22  36  59  91 125 164 203 257 312 380
#     4  10  21  39  63  93 130 167 209 260 318 384
#     4  10  21  38  63  94 126 162 205 258 321 379
#     4  10  24  44  63  87 123 171 220 265 318 379
#     4  11  23  37  62  92 128 166 207 263 313 376
#
# _framework density 22.349143000000002
#
# number of rings (size 3 to 8) (size 9 to 14) (size 15 to 20)
#    0.000    1.833    0.000    3.500    4.667    6.333 
#    0.000    5.833    0.000    4.000    0.000    0.000 
#    0.000    0.000    0.000    0.000    0.000    0.000 
#
# Total GULP energy -594712.518553 kJ/mol
# GULP energy per Si atom -12389.844137 kJ/mol
# Density = 2.229828 g / cm^3
# Si number density = 22.349143 Si / 1000 Ang^3
#
#
#
# Elastic Constant Matrix: (Units=GPa)
#
#
# Indices 1 2 3 4 5 6 
#
# 1 74.5779 36.5006 24.4394 0.0003 0.0000 0.0001
# 2 36.5006 162.3028 51.3426 0.0008 -0.0002 0.0004
# 3 24.4394 51.3426 88.2220 0.0008 -0.0004 0.0006
# 4 0.0003 0.0008 0.0008 12.9808 -0.0002 0.0003
# 5 0.0000 -0.0002 -0.0004 -0.0002 28.1324 0.0001
# 6 0.0001 0.0004 0.0006 0.0003 0.0001 -4.0331
#
#
#
# Elastic Compliance Matrix: (Units=1/GPa)
#
#
# Indices 1 2 3 4 5 6 
#
# 1 0.015610 -0.002626 -0.002796 0.000000 0.000000 0.000000
# 2 -0.002626 0.007993 -0.003924 0.000000 0.000000 0.000000
# 3 -0.002796 -0.003924 0.014394 -0.000001 0.000000 0.000002
# 4 0.000000 0.000000 -0.000001 0.077037 0.000001 0.000006
# 5 0.000000 0.000000 0.000000 0.000001 0.035546 0.000001
# 6 0.000000 0.000000 0.000002 0.000006 0.000001 -0.247948
#
#
# Mechanical properties :
#
#
# Convention : Reuss Voigt Hill
#
# Bulk Modulus (GPa) = 51.80271 61.07420 56.43846
# Shear Modulus (GPa) = -69.21374 21.60402 -23.80486
#
# Velocity S-wave (km/s) = -5.57104 3.11249 -3.26718
# Velocity P-wave (km/s) = 4.26062 6.34850 3.32795
#
# Compressibility (1/GPa) = 0.01930401
#
# Stress axis : x y z
#
# Youngs Moduli (GPa) = 64.05986 125.10387 69.47577
#
# Poissons Ratio (x) = 0.32854 0.19426
# Poissons Ratio (y) = 0.16823 0.27265
# Poissons Ratio (z) = 0.17912 0.49096
#
# Static dielectric constant tensor:
#      x y z
#    x 4.107060 0.000000 0.000000 
#    y 0.000000 3.944260 0.000000 
#    z 0.000000 0.000000 3.926190 
# 
# 
# High freq. dielectric constant tensor:
#      x y z
#    x 1.888750 0.000000 0.000000 
#    y 0.000000 1.879280 0.000000 
#    z 0.000000 0.000000 1.855340 
# 
# From -- ./inp_files/32407.got.cif
#   From: 2010.03.12/outbox.cif.g09.slc.cpg/sg74_17_cif.got.tgz:32407.got - 2010.04.16 15:46:19.
