data_PCOD8301238
_publ_section_title
;
Structure prediction by ZEFSAII (Michael W. Deem and Ramdas Pophale) SiO2 
 PCOD8301238
Probable space group: I M M A
;
_chemical_formula_sum "Si O2"
_cell_formula_units_Z 88
_cell_length_a 27.363317
_cell_length_b 14.030278
_cell_length_c 10.811152
_cell_angle_alpha 90.000000
_cell_angle_beta 90.000000
_cell_angle_gamma 90.000000
_cell_volume 4150.562820
_symmetry_space_group_name_H-M "I M M A"
_symmetry_group_IT_number 74
_symmetry_cell_setting 'orthorhombic'
loop_
_space_group_symop_operation_xyz
x,y,z
-x,1/2-y,z
x,-y,-z
-x,1/2+y,-z
-x,-y,-z
x,1/2+y,-z
-x,y,z
x,1/2-y,z
1/2+x,1/2+y,1/2+z
1/2-x,-y,1/2+z
1/2+x,1/2-y,1/2-z
1/2-x,y,1/2-z
1/2-x,1/2-y,1/2-z
1/2+x,y,1/2-z
1/2-x,1/2+y,1/2+z
1/2+x,-y,1/2+z
loop_
_atom_site_type_symbol
_atom_site_label
_atom_site_fract_x
_atom_site_fract_y
_atom_site_fract_z
Si Si1 0.905318 0.142589 0.424738
Si Si2 0.696153 0.887827 0.004385
Si Si3 0.865393 0.250000 0.976654
Si Si4 0.306495 0.750000 0.220091
Si Si5 0.767634 0.750000 0.889970
Si Si6 0.554543 0.601400 0.438848
Si Si7 0.944157 0.544924 0.336143
O O1 0.926249 0.250000 0.403846
O O2 0.846716 0.143267 0.409684
O O3 0.914302 0.104888 0.563763
O O4 0.928491 0.067000 0.329210
O O5 0.682775 0.845811 0.140198
O O6 0.746813 0.843805 0.957094
O O7 0.702641 0.000000 0.000000
O O8 0.839049 0.250000 0.843491
O O9 0.901475 0.338790 0.996206
O O10 0.826188 0.250000 0.088782
O O11 0.250000 0.750000 0.250000
O O12 0.750000 0.750000 0.750000
O O13 0.556503 0.500000 0.500000
O O14 0.500000 0.645749 0.460285
O O15 0.564714 0.594470 0.293546
O O16 0.000000 0.548424 0.377458
#
# Coordination Sequence:
#
# PCOD8301238 Si02
#       7
#    16  16   8   8   8  16  16
#     4  11  20  36  62  93 132 173 215 266 337 394
#     4  11  22  41  65  92 127 176 214 266 335 379
#     4  12  24  45  74  98 131 176 224 272 347 389
#     4  11  22  43  65  98 133 167 232 278 312 408
#     4  11  27  47  61  97 135 162 220 280 318 408
#     4  10  24  46  69  98 134 172 226 278 328 400
#     4  10  22  38  61 100 133 167 221 277 327 399
#
# _framework density 21.201944000000001
#
# number of rings (size 3 to 8) (size 9 to 14) (size 15 to 20)
#    0.000    1.273    5.455    2.455    1.273    4.364 
#    1.636    0.000    0.000    0.000    0.000    0.000 
#    0.000    0.000    0.000    0.000    0.000    0.000 
#
# Total GULP energy -545407.921873 kJ/mol
# GULP energy per Si atom -12395.634588 kJ/mol
# Density = 2.115369 g / cm^3
# Si number density = 21.201944 Si / 1000 Ang^3
#
#
#
# Elastic Constant Matrix: (Units=GPa)
#
#
# Indices 1 2 3 4 5 6 
#
# 1 140.4342 42.1971 33.4144 0.0000 0.0000 0.0000
# 2 42.1971 153.4360 14.1609 0.0000 0.0000 0.0000
# 3 33.4144 14.1609 61.5744 0.0000 0.0000 0.0000
# 4 0.0000 0.0000 0.0000 14.7310 0.0000 0.0000
# 5 0.0000 0.0000 0.0000 0.0000 31.6597 0.0000
# 6 0.0000 0.0000 0.0000 0.0000 0.0000 39.2451
#
#
#
# Elastic Compliance Matrix: (Units=1/GPa)
#
#
# Indices 1 2 3 4 5 6 
#
# 1 0.008744 -0.002009 -0.004283 0.000000 0.000000 0.000000
# 2 -0.002009 0.007120 -0.000547 0.000000 0.000000 0.000000
# 3 -0.004283 -0.000547 0.018690 0.000000 0.000000 0.000000
# 4 0.000000 0.000000 0.000000 0.067884 0.000000 0.000000
# 5 0.000000 0.000000 0.000000 0.000000 0.031586 0.000000
# 6 0.000000 0.000000 0.000000 0.000000 0.000000 0.025481
#
#
# Mechanical properties :
#
#
# Convention : Reuss Voigt Hill
#
# Bulk Modulus (GPa) = 47.90186 59.44324 53.67255
# Shear Modulus (GPa) = 27.75582 34.83865 31.29723
#
# Velocity S-wave (km/s) = 3.62210 4.05802 3.84624
# Velocity P-wave (km/s) = 6.33522 7.07490 6.71525
#
# Compressibility (1/GPa) = 0.02087602
#
# Stress axis : x y z
#
# Youngs Moduli (GPa) = 114.37014 140.44019 53.50324
#
# Poissons Ratio (x) = 0.28219 0.22914
# Poissons Ratio (y) = 0.22981 0.02928
# Poissons Ratio (z) = 0.48982 0.07684
#
# Static dielectric constant tensor:
#      x y z
#    x 4.080350 0.000000 0.000000 
#    y 0.000000 -27.910260 0.000000 
#    z 0.000000 0.000000 3.784280 
# 
# 
# High freq. dielectric constant tensor:
#      x y z
#    x 1.846660 0.000000 0.000000 
#    y 0.000000 1.833600 0.000000 
#    z 0.000000 0.000000 1.812590 
# 
# From -- ./inp_files/25022.got.cif
#   From: 2010.03.12/outbox.cif.g09.slc.cpg/sg74_13_cif.got.tgz:25022.got - 2010.04.16 15:46:19.
