data_PCOD8301322
_publ_section_title
;
Structure prediction by ZEFSAII (Michael W. Deem and Ramdas Pophale) SiO2 
 PCOD8301322
Probable space group: I M M A
;
_chemical_formula_sum "Si O2"
_cell_formula_units_Z 64
_cell_length_a 13.240862
_cell_length_b 8.656793
_cell_length_c 27.215869
_cell_angle_alpha 90.000000
_cell_angle_beta 90.000000
_cell_angle_gamma 90.000000
_cell_volume 3119.575479
_symmetry_space_group_name_H-M "I M M A"
_symmetry_group_IT_number 74
_symmetry_cell_setting 'orthorhombic'
loop_
_space_group_symop_operation_xyz
x,y,z
-x,1/2-y,z
x,-y,-z
-x,1/2+y,-z
-x,-y,-z
x,1/2+y,-z
-x,y,z
x,1/2-y,z
1/2+x,1/2+y,1/2+z
1/2-x,-y,1/2+z
1/2+x,1/2-y,1/2-z
1/2-x,y,1/2-z
1/2-x,1/2-y,1/2-z
1/2+x,y,1/2-z
1/2-x,1/2+y,1/2+z
1/2+x,-y,1/2+z
loop_
_atom_site_type_symbol
_atom_site_label
_atom_site_fract_x
_atom_site_fract_y
_atom_site_fract_z
Si Si1 0.885306 0.429559 0.373635
Si Si2 0.207813 0.932909 0.947151
Si Si3 0.140379 0.081669 0.730823
Si Si4 0.500000 0.930889 0.406228
Si Si5 0.000000 0.574130 0.802394
O O1 0.870624 0.250000 0.361809
O O2 0.801321 0.485096 0.412710
O O3 0.865537 0.522840 0.324370
O O4 0.000000 0.461287 0.393000
O O5 0.199191 0.750000 0.949660
O O6 0.100705 0.997061 0.929094
O O7 0.233982 0.000000 0.000000
O O8 0.086155 0.250000 0.732854
O O9 0.250000 0.105765 0.750000
O O10 0.094990 0.956926 0.767907
O O11 0.500000 0.750000 0.417315
O O12 0.500000 0.959887 0.348286
O O13 0.000000 0.750000 0.821420
#
# Coordination Sequence:
#
# PCOD8301322 Si02
#       5
#    16  16  16   8   8
#     4  10  22  41  64  92 127 169 214 262 316 380
#     4  11  24  43  67  95 128 167 215 266 326 385
#     4  11  23  38  59  90 126 164 209 258 309 368
#     4  12  25  43  66  94 129 165 213 270 327 384
#     4  12  24  39  61  90 125 165 207 248 307 376
#
# _framework density 20.515612999999998
#
# number of rings (size 3 to 8) (size 9 to 14) (size 15 to 20)
#    0.000    1.000    1.250    5.625    0.000    8.500 
#    0.000    0.000    0.000    0.000    0.000    0.000 
#    0.000    0.000    0.000    0.000    0.000    0.000 
#
# Total GULP energy -396711.690405 kJ/mol
# GULP energy per Si atom -12397.240325 kJ/mol
# Density = 2.046892 g / cm^3
# Si number density = 20.515613 Si / 1000 Ang^3
#
#
#
# Elastic Constant Matrix: (Units=GPa)
#
#
# Indices 1 2 3 4 5 6 
#
# 1 159.6723 39.8755 55.5766 0.0000 0.0000 0.0000
# 2 39.8755 88.8688 29.7068 0.0000 0.0000 0.0000
# 3 55.5766 29.7068 117.1100 0.0000 0.0000 0.0000
# 4 0.0000 0.0000 0.0000 42.1220 0.0000 0.0000
# 5 0.0000 0.0000 0.0000 0.0000 34.6334 0.0000
# 6 0.0000 0.0000 0.0000 0.0000 0.0000 119.0782
#
#
#
# Elastic Compliance Matrix: (Units=1/GPa)
#
#
# Indices 1 2 3 4 5 6 
#
# 1 0.007992 -0.002533 -0.003150 0.000000 0.000000 0.000000
# 2 -0.002533 0.013098 -0.002120 0.000000 0.000000 0.000000
# 3 -0.003150 -0.002120 0.010572 0.000000 0.000000 0.000000
# 4 0.000000 0.000000 0.000000 0.023741 0.000000 0.000000
# 5 0.000000 0.000000 0.000000 0.000000 0.028874 0.000000
# 6 0.000000 0.000000 0.000000 0.000000 0.000000 0.008398
#
#
# Mechanical properties :
#
#
# Convention : Reuss Voigt Hill
#
# Bulk Modulus (GPa) = 62.28778 68.44100 65.36439
# Shear Modulus (GPa) = 44.00154 55.19952 49.60053
#
# Velocity S-wave (km/s) = 4.63620 5.19274 4.92234
# Velocity P-wave (km/s) = 7.68676 8.32980 8.01473
#
# Compressibility (1/GPa) = 0.01605451
#
# Stress axis : x y z
#
# Youngs Moduli (GPa) = 125.12750 76.34827 94.59104
#
# Poissons Ratio (x) = 0.19338 0.29798
# Poissons Ratio (y) = 0.31694 0.20057
# Poissons Ratio (z) = 0.39417 0.16189
#
# Static dielectric constant tensor:
#      x y z
#    x 4.082420 0.000000 0.000000 
#    y 0.000000 3.856170 0.000000 
#    z 0.000000 0.000000 3.815700 
# 
# 
# High freq. dielectric constant tensor:
#      x y z
#    x 1.824080 0.000000 0.000000 
#    y 0.000000 1.812940 0.000000 
#    z 0.000000 0.000000 1.805400 
# 
# From -- ./inp_files/59526.got.cif
#   From: 2010.03.12/outbox.cif.g09.slc.cpg/sg74_30_cif.got.tgz:59526.got - 2010.04.16 15:46:19.
