data_PCOD8301793
_publ_section_title
;
Structure prediction by ZEFSAII (Michael W. Deem and Ramdas Pophale) SiO2 
 PCOD8301793
Probable space group: I M M A
;
_chemical_formula_sum "Si O2"
_cell_formula_units_Z 80
_cell_length_a 26.816458
_cell_length_b 26.816402
_cell_length_c 6.360298
_cell_angle_alpha 90.000000
_cell_angle_beta 90.000000
_cell_angle_gamma 90.000000
_cell_volume 4573.823336
_symmetry_space_group_name_H-M "I M M A"
_symmetry_group_IT_number 74
_symmetry_cell_setting 'orthorhombic'
loop_
_space_group_symop_operation_xyz
x,y,z
-x,1/2-y,z
x,-y,-z
-x,1/2+y,-z
-x,-y,-z
x,1/2+y,-z
-x,y,z
x,1/2-y,z
1/2+x,1/2+y,1/2+z
1/2-x,-y,1/2+z
1/2+x,1/2-y,1/2-z
1/2-x,y,1/2-z
1/2-x,1/2-y,1/2-z
1/2+x,y,1/2-z
1/2-x,1/2+y,1/2+z
1/2+x,-y,1/2+z
loop_
_atom_site_type_symbol
_atom_site_label
_atom_site_fract_x
_atom_site_fract_y
_atom_site_fract_z
Si Si1 0.807464 0.359741 0.254499
Si Si2 0.109610 0.192462 0.494521
Si Si3 0.359268 0.442560 0.004590
Si Si4 0.875568 0.125294 0.874878
Si Si5 0.557513 0.390874 0.244921
O O1 0.750000 0.345012 0.250000
O O2 0.837417 0.316858 0.379835
O O3 0.815950 0.412513 0.372625
O O4 0.827395 0.363206 0.016951
O O5 0.095028 0.250000 0.490964
O O6 0.066794 0.161775 0.372256
O O7 0.112860 0.173830 0.734377
O O8 0.363694 0.422802 0.767136
O O9 0.344407 0.500000 0.000000
O O10 0.411713 0.434117 0.125168
O O11 0.924023 0.113336 0.015326
O O12 0.500000 0.405590 0.241480
#
# Coordination Sequence:
#
# PCOD8301793 Si02
#       5
#    16  16  16  16  16
#     4   9  19  35  51  74 103 132 166 212 251 300
#     4   9  19  34  52  74 101 133 168 209 252 300
#     4   9  19  35  51  74 103 132 166 212 251 300
#     4   8  18  34  52  69 104 134 164 206 258 296
#     4   9  19  34  52  74 101 133 168 209 252 300
#
# _framework density 17.490838
#
# number of rings (size 3 to 8) (size 9 to 14) (size 15 to 20)
#    0.000    4.000    0.000    0.000    0.000   14.000 
#    3.600    2.000    0.000    0.000    0.000    0.000 
#    0.000    0.000    0.000    0.000    0.000    0.000 
#
# Total GULP energy -495850.945518 kJ/mol
# GULP energy per Si atom -12396.273638 kJ/mol
# Density = 1.745103 g / cm^3
# Si number density = 17.490838 Si / 1000 Ang^3
#
#
#
# Elastic Constant Matrix: (Units=GPa)
#
#
# Indices 1 2 3 4 5 6 
#
# 1 72.6241 -46.2987 6.7095 0.0000 0.0000 0.0000
# 2 -46.2987 72.6857 6.7998 0.0000 0.0000 0.0000
# 3 6.7095 6.7998 120.3212 0.0000 0.0000 0.0000
# 4 0.0000 0.0000 0.0000 12.0652 0.0000 0.0000
# 5 0.0000 0.0000 0.0000 0.0000 11.6287 0.0000
# 6 0.0000 0.0000 0.0000 0.0000 0.0000 13.2660
#
#
#
# Elastic Compliance Matrix: (Units=1/GPa)
#
#
# Indices 1 2 3 4 5 6 
#
# 1 0.023745 0.015330 -0.002190 0.000000 0.000000 0.000000
# 2 0.015330 0.023728 -0.002196 0.000000 0.000000 0.000000
# 3 -0.002190 -0.002196 0.008557 0.000000 0.000000 0.000000
# 4 0.000000 0.000000 0.000000 0.082883 0.000000 0.000000
# 5 0.000000 0.000000 0.000000 0.000000 0.085994 0.000000
# 6 0.000000 0.000000 0.000000 0.000000 0.000000 0.075381
#
#
# Mechanical properties :
#
#
# Convention : Reuss Voigt Hill
#
# Bulk Modulus (GPa) = 12.83424 22.22803 17.53113
# Shear Modulus (GPa) = 16.42721 27.28667 21.85694
#
# Velocity S-wave (km/s) = 3.06794 3.95404 3.53883
# Velocity P-wave (km/s) = 4.46131 5.79499 5.17132
#
# Compressibility (1/GPa) = 0.07791659
#
# Stress axis : x y z
#
# Youngs Moduli (GPa) = 42.11471 42.14467 116.85900
#
# Poissons Ratio (x) = -0.64606 0.25597
# Poissons Ratio (y) = -0.64560 0.25660
# Poissons Ratio (z) = 0.09225 0.09254
#
# Static dielectric constant tensor:
#      x y z
#    x 2.961940 0.000000 0.000000 
#    y 0.000000 2.962960 0.000000 
#    z 0.000000 0.000000 3.392820 
# 
# 
# High freq. dielectric constant tensor:
#      x y z
#    x 1.656760 0.000000 0.000000 
#    y 0.000000 1.656760 0.000000 
#    z 0.000000 0.000000 1.693800 
# 
# From -- ./inp_files/4521.got.cif
#   From: 2010.03.12/outbox.cif.g09.slc.cpg/sg74_3_cif.got.tgz:4521.got - 2010.04.16 15:46:19.
