data_PCOD8301341
_publ_section_title
;
Structure prediction by ZEFSAII (Michael W. Deem and Ramdas Pophale) SiO2 
 PCOD8301341
Probable space group: I M M A
;
_chemical_formula_sum "Si O2"
_cell_formula_units_Z 112
_cell_length_a 15.596247
_cell_length_b 21.772810
_cell_length_c 15.019757
_cell_angle_alpha 90.000000
_cell_angle_beta 90.000000
_cell_angle_gamma 90.000000
_cell_volume 5100.320806
_symmetry_space_group_name_H-M "I M M A"
_symmetry_group_IT_number 74
_symmetry_cell_setting 'orthorhombic'
loop_
_space_group_symop_operation_xyz
x,y,z
-x,1/2-y,z
x,-y,-z
-x,1/2+y,-z
-x,-y,-z
x,1/2+y,-z
-x,y,z
x,1/2-y,z
1/2+x,1/2+y,1/2+z
1/2-x,-y,1/2+z
1/2+x,1/2-y,1/2-z
1/2-x,y,1/2-z
1/2-x,1/2-y,1/2-z
1/2+x,y,1/2-z
1/2-x,1/2+y,1/2+z
1/2+x,-y,1/2+z
loop_
_atom_site_type_symbol
_atom_site_label
_atom_site_fract_x
_atom_site_fract_y
_atom_site_fract_z
Si Si1 0.405574 0.095385 0.604938
Si Si2 0.402473 0.819486 0.752788
Si Si3 0.190150 0.117749 0.408589
Si Si4 0.746884 0.011799 0.855487
Si Si5 0.849899 0.678954 0.261320
Si Si6 0.401766 0.900494 0.083736
Si Si7 0.143136 0.820657 0.944765
O O1 0.500000 0.063787 0.606323
O O2 0.331267 0.044439 0.605175
O O3 0.400899 0.138926 0.690562
O O4 0.400597 0.137290 0.518018
O O5 0.500000 0.824077 0.784319
O O6 0.367881 0.750000 0.764113
O O7 0.346460 0.864809 0.812419
O O8 0.394875 0.840156 0.650700
O O9 0.113733 0.112798 0.479735
O O10 0.254546 0.169742 0.444428
O O11 0.243678 0.054987 0.399667
O O12 0.750000 0.008118 0.750000
O O13 0.659490 0.045581 0.882280
O O14 0.869693 0.750000 0.244891
O O15 0.750000 0.663549 0.250000
O O16 0.881126 0.660852 0.359958
O O17 0.500000 0.921253 0.096294
O O18 0.122535 0.750000 0.967095
#
# Coordination Sequence:
#
# PCOD8301341 Si02
#       7
#    16  16  16  16  16  16  16
#     4  12  24  43  69 100 136 180 229 282 346 407
#     4  10  22  42  67 101 138 172 226 290 346 412
#     4  12  25  44  68  95 136 182 231 274 344 409
#     4  12  25  47  68  97 137 181 230 285 335 403
#     4  11  22  42  71 103 142 184 226 279 347 418
#     4  12  25  43  68  99 138 180 227 282 337 403
#     4  11  23  42  69 100 133 175 225 285 350 412
#
# _framework density 21.959403999999999
#
# number of rings (size 3 to 8) (size 9 to 14) (size 15 to 20)
#    0.000    0.571    4.286    3.857    0.000    7.714 
#    0.000    3.571    0.000    0.000    0.000    0.000 
#    0.000    0.000    0.000    0.000    0.000    0.000 
#
# Total GULP energy -694710.749553 kJ/mol
# GULP energy per Si atom -12405.549099 kJ/mol
# Density = 2.190942 g / cm^3
# Si number density = 21.959404 Si / 1000 Ang^3
#
#
#
# Elastic Constant Matrix: (Units=GPa)
#
#
# Indices 1 2 3 4 5 6 
#
# 1 155.1539 52.6608 40.1119 -0.0001 0.0000 0.0000
# 2 52.6608 87.5486 52.8232 0.0003 0.0000 0.0000
# 3 40.1119 52.8232 132.3387 0.0005 0.0000 -0.0001
# 4 -0.0001 0.0003 0.0005 30.8002 0.0000 0.0000
# 5 0.0000 0.0000 0.0000 0.0000 33.3951 0.0000
# 6 0.0000 0.0000 -0.0001 0.0000 0.0000 11.2466
#
#
#
# Elastic Compliance Matrix: (Units=1/GPa)
#
#
# Indices 1 2 3 4 5 6 
#
# 1 0.008144 -0.004491 -0.000676 0.000000 0.000000 0.000000
# 2 -0.004491 0.017522 -0.005633 0.000000 0.000000 0.000000
# 3 -0.000676 -0.005633 0.010010 0.000000 0.000000 0.000000
# 4 0.000000 0.000000 0.000000 0.032467 0.000000 0.000000
# 5 0.000000 0.000000 0.000000 0.000000 0.029944 0.000000
# 6 0.000000 0.000000 0.000000 0.000000 0.000000 0.088916
#
#
# Mechanical properties :
#
#
# Convention : Reuss Voigt Hill
#
# Bulk Modulus (GPa) = 71.03989 74.02589 72.53289
# Shear Modulus (GPa) = 23.44166 30.38473 26.91319
#
# Velocity S-wave (km/s) = 3.27081 3.72382 3.50464
# Velocity P-wave (km/s) = 6.83264 7.22998 7.03412
#
# Compressibility (1/GPa) = 0.01407660
#
# Stress axis : x y z
#
# Youngs Moduli (GPa) = 122.78611 57.07062 99.90427
#
# Poissons Ratio (x) = 0.25630 0.06753
# Poissons Ratio (y) = 0.55143 0.56274
# Poissons Ratio (z) = 0.08300 0.32147
#
# Static dielectric constant tensor:
#      x y z
#    x 3.987050 0.000000 0.000000 
#    y 0.000000 3.963340 0.000000 
#    z 0.000000 0.000000 4.133510 
# 
# 
# High freq. dielectric constant tensor:
#      x y z
#    x 1.869240 0.000000 0.000000 
#    y 0.000000 1.854750 0.000000 
#    z 0.000000 0.000000 1.880710 
# 
# From -- ./inp_files/32771.got.cif
#   From: 2010.03.12/outbox.cif.g09.slc.cpg/sg74_17_cif.got.tgz:32771.got - 2010.04.16 15:46:19.
