data_PCOD8301759
_publ_section_title
;
Structure prediction by ZEFSAII (Michael W. Deem and Ramdas Pophale) SiO2 
 PCOD8301759
Probable space group: I M M A
;
_chemical_formula_sum "Si O2"
_cell_formula_units_Z 80
_cell_length_a 9.909737
_cell_length_b 9.828533
_cell_length_c 51.510744
_cell_angle_alpha 90.000000
_cell_angle_beta 90.000000
_cell_angle_gamma 90.000000
_cell_volume 5017.052568
_symmetry_space_group_name_H-M "I M M A"
_symmetry_group_IT_number 74
_symmetry_cell_setting 'orthorhombic'
loop_
_space_group_symop_operation_xyz
x,y,z
-x,1/2-y,z
x,-y,-z
-x,1/2+y,-z
-x,-y,-z
x,1/2+y,-z
-x,y,z
x,1/2-y,z
1/2+x,1/2+y,1/2+z
1/2-x,-y,1/2+z
1/2+x,1/2-y,1/2-z
1/2-x,y,1/2-z
1/2-x,1/2-y,1/2-z
1/2+x,y,1/2-z
1/2-x,1/2+y,1/2+z
1/2+x,-y,1/2+z
loop_
_atom_site_type_symbol
_atom_site_label
_atom_site_fract_x
_atom_site_fract_y
_atom_site_fract_z
Si Si1 0.155813 0.907857 0.024369
Si Si2 0.349734 0.087842 0.228280
Si Si3 0.349989 0.588338 0.069802
Si Si4 0.839275 0.098621 0.329068
Si Si5 0.660401 0.098596 0.873027
O O1 0.186898 0.750000 0.017882
O O2 0.244388 0.962857 0.048354
O O3 0.000000 0.927897 0.031926
O O4 0.196075 0.000000 0.000000
O O5 0.500000 0.030089 0.233501
O O6 0.353310 0.250000 0.229633
O O7 0.250000 0.026281 0.250000
O O8 0.297934 0.044618 0.199588
O O9 0.500000 0.531143 0.063321
O O10 0.355724 0.750000 0.070338
O O11 0.301726 0.539768 0.098418
O O12 0.780869 0.250000 0.333895
O O13 0.000000 0.103415 0.330734
O O14 0.777618 0.999297 0.350950
O O15 0.500000 0.105092 0.870738
O O16 0.720688 0.250000 0.868974
#
# Coordination Sequence:
#
# PCOD8301759 Si02
#       5
#    16  16  16  16  16
#     4   9  17  29  44  60  78 102 131 159 187 222
#     4   8  13  21  34  52  72  95 124 155 185 219
#     4   8  14  25  41  60  80 101 126 157 190 223
#     4   8  13  21  34  53  75  96 120 153 189 221
#     4   8  13  22  37  55  73  95 124 154 183 219
#
# _framework density 15.945617
#
# number of rings (size 3 to 8) (size 9 to 14) (size 15 to 20)
#    0.000    3.800    0.000    2.400    0.000    0.400 
#    0.000    1.000    0.000    3.000    0.000    0.000 
#    0.000    0.000    0.000    0.000    0.000    0.000 
#
# Total GULP energy -495641.212012 kJ/mol
# GULP energy per Si atom -12391.030300 kJ/mol
# Density = 1.590932 g / cm^3
# Si number density = 15.945617 Si / 1000 Ang^3
#
#
#
# Elastic Constant Matrix: (Units=GPa)
#
#
# Indices 1 2 3 4 5 6 
#
# 1 48.3942 22.2060 63.1168 0.0000 0.0000 0.0000
# 2 22.2060 46.0385 55.8558 0.0000 0.0000 0.0000
# 3 63.1168 55.8558 174.0496 0.0000 0.0000 0.0000
# 4 0.0000 0.0000 0.0000 25.9594 0.0000 0.0000
# 5 0.0000 0.0000 0.0000 0.0000 21.7262 0.0000
# 6 0.0000 0.0000 0.0000 0.0000 0.0000 8.5217
#
#
#
# Elastic Compliance Matrix: (Units=1/GPa)
#
#
# Indices 1 2 3 4 5 6 
#
# 1 0.039416 -0.002735 -0.013416 0.000000 0.000000 0.000000
# 2 -0.002735 0.035760 -0.010484 0.000000 0.000000 0.000000
# 3 -0.013416 -0.010484 0.013975 0.000000 0.000000 0.000000
# 4 0.000000 0.000000 0.000000 0.038522 0.000000 0.000000
# 5 0.000000 0.000000 0.000000 0.000000 0.046027 0.000000
# 6 0.000000 0.000000 0.000000 0.000000 0.000000 0.117347
#
#
# Mechanical properties :
#
#
# Convention : Reuss Voigt Hill
#
# Bulk Modulus (GPa) = 27.86993 61.20438 44.53715
# Shear Modulus (GPa) = 14.03397 19.72838 16.88117
#
# Velocity S-wave (km/s) = 2.96989 3.52124 3.25725
# Velocity P-wave (km/s) = 5.41077 7.41611 6.49134
#
# Compressibility (1/GPa) = 0.03588097
#
# Stress axis : x y z
#
# Youngs Moduli (GPa) = 25.37038 27.96418 71.55501
#
# Poissons Ratio (x) = 0.07648 0.95999
# Poissons Ratio (y) = 0.06938 0.75021
# Poissons Ratio (z) = 0.34037 0.29319
#
# Static dielectric constant tensor:
#      x y z
#    x 2.839550 0.000000 0.000000 
#    y 0.000000 2.872170 0.000000 
#    z 0.000000 0.000000 3.421980 
# 
# 
# High freq. dielectric constant tensor:
#      x y z
#    x 1.569560 0.000000 0.000000 
#    y 0.000000 1.571550 0.000000 
#    z 0.000000 0.000000 1.626290 
# 
# From -- ./inp_files/71509.got.cif
#   From: 2010.03.12/outbox.cif.g09.slc.cpg/sg74_36_cif.got.tgz:71509.got - 2010.04.16 15:46:19.
