data_PCOD8301047
_publ_section_title
;
Structure prediction by ZEFSAII (Michael W. Deem and Ramdas Pophale) SiO2 
 PCOD8301047
Probable space group: I M M A
;
_chemical_formula_sum "Si O2"
_cell_formula_units_Z 112
_cell_length_a 15.140345
_cell_length_b 28.038165
_cell_length_c 12.661604
_cell_angle_alpha 90.000000
_cell_angle_beta 90.000000
_cell_angle_gamma 90.000000
_cell_volume 5374.945749
_symmetry_space_group_name_H-M "I M M A"
_symmetry_group_IT_number 74
_symmetry_cell_setting 'orthorhombic'
loop_
_space_group_symop_operation_xyz
x,y,z
-x,1/2-y,z
x,-y,-z
-x,1/2+y,-z
-x,-y,-z
x,1/2+y,-z
-x,y,z
x,1/2-y,z
1/2+x,1/2+y,1/2+z
1/2-x,-y,1/2+z
1/2+x,1/2-y,1/2-z
1/2-x,y,1/2-z
1/2-x,1/2-y,1/2-z
1/2+x,y,1/2-z
1/2-x,1/2+y,1/2+z
1/2+x,-y,1/2+z
loop_
_atom_site_type_symbol
_atom_site_label
_atom_site_fract_x
_atom_site_fract_y
_atom_site_fract_z
Si Si1 0.759732 0.803019 0.628636
Si Si2 0.102871 0.196820 0.976716
Si Si3 0.854889 0.474026 0.768395
Si Si4 0.599504 0.077065 0.338568
Si Si5 0.099486 0.378503 0.380099
Si Si6 0.654390 0.949683 0.046328
Si Si7 0.831247 0.600135 0.065994
O O1 0.796712 0.750000 0.607855
O O2 0.750000 0.814307 0.750000
O O3 0.661038 0.808074 0.582415
O O4 0.831354 0.838985 0.577279
O O5 0.115377 0.250000 0.926010
O O6 0.000000 0.188296 0.004831
O O7 0.140287 0.154403 0.901755
O O8 0.750000 0.480151 0.750000
O O9 0.895193 0.521393 0.816222
O O10 0.898882 0.461334 0.654594
O O11 0.883472 0.434005 0.853660
O O12 0.500000 0.091759 0.363451
O O13 0.633716 0.104853 0.234994
O O14 0.654337 0.091099 0.441504
O O15 0.094872 0.423981 0.458516
O O16 0.000000 0.357518 0.373828
O O17 0.728942 0.911824 0.081747
O O18 0.692116 0.000000 0.000000
#
# Coordination Sequence:
#
# PCOD8301047 Si02
#       7
#    16  16  16  16  16  16  16
#     4  10  21  38  61  88 120 162 201 243 304 360
#     4  10  21  38  61  88 118 152 194 247 308 369
#     4  10  22  37  57  85 117 156 204 247 297 351
#     4  11  23  36  54  85 122 159 199 245 300 357
#     4  11  24  38  59  90 122 164 208 246 292 353
#     4  11  21  39  62  83 119 167 204 243 293 358
#     4  11  21  36  59  88 120 153 197 253 305 355
#
# _framework density 20.837419000000001
#
# number of rings (size 3 to 8) (size 9 to 14) (size 15 to 20)
#    0.000    1.429    2.857    3.429    0.000    4.571 
#    0.000    1.429    0.000    4.714    0.000    0.000 
#    0.000    0.000    0.000    0.000    0.000    0.000 
#
# Total GULP energy -693947.593019 kJ/mol
# GULP energy per Si atom -12391.921304 kJ/mol
# Density = 2.078999 g / cm^3
# Si number density = 20.837419 Si / 1000 Ang^3
#
#
#
# Elastic Constant Matrix: (Units=GPa)
#
#
# Indices 1 2 3 4 5 6 
#
# 1 72.2056 40.6244 -2.8964 0.0000 0.0000 0.0000
# 2 40.6244 149.7036 23.4386 -0.0002 0.0000 0.0000
# 3 -2.8964 23.4386 77.7170 -0.0008 0.0000 0.0003
# 4 0.0000 -0.0002 -0.0008 27.0312 -0.0001 0.0002
# 5 0.0000 0.0000 0.0000 -0.0001 8.8115 0.0000
# 6 0.0000 0.0000 0.0003 0.0002 0.0000 24.0263
#
#
#
# Elastic Compliance Matrix: (Units=1/GPa)
#
#
# Indices 1 2 3 4 5 6 
#
# 1 0.016660 -0.004847 0.002083 0.000000 0.000000 0.000000
# 2 -0.004847 0.008421 -0.002720 0.000000 0.000000 0.000000
# 3 0.002083 -0.002720 0.013765 0.000000 0.000000 0.000000
# 4 0.000000 0.000000 0.000000 0.036994 0.000000 0.000000
# 5 0.000000 0.000000 0.000000 0.000000 0.113488 0.000000
# 6 0.000000 0.000000 0.000000 0.000000 0.000000 0.041621
#
#
# Mechanical properties :
#
#
# Convention : Reuss Voigt Hill
#
# Bulk Modulus (GPa) = 35.87198 46.88437 41.37818
# Shear Modulus (GPa) = 19.90356 27.87109 23.88733
#
# Velocity S-wave (km/s) = 3.09396 3.66122 3.38948
# Velocity P-wave (km/s) = 5.47868 6.35780 5.93454
#
# Compressibility (1/GPa) = 0.02787691
#
# Stress axis : x y z
#
# Youngs Moduli (GPa) = 60.02433 118.74942 72.64675
#
# Poissons Ratio (x) = 0.57558 -0.15130
# Poissons Ratio (y) = 0.29094 0.19762
# Poissons Ratio (z) = -0.12501 0.32304
#
# Static dielectric constant tensor:
#      x y z
#    x 3.563220 0.000000 0.000000 
#    y 0.000000 4.195190 0.000000 
#    z 0.000000 0.000000 3.862280 
# 
# 
# High freq. dielectric constant tensor:
#      x y z
#    x 1.803540 0.000000 0.000000 
#    y 0.000000 1.826520 0.000000 
#    z 0.000000 0.000000 1.795360 
# 
# From -- ./inp_files/21189.got.cif
#   From: 2010.03.12/outbox.cif.g09.slc.cpg/sg74_11_cif.got.tgz:21189.got - 2010.04.16 15:46:19.
