data_PCOD8301895
_publ_section_title
;
Structure prediction by ZEFSAII (Michael W. Deem and Ramdas Pophale) SiO2 
 PCOD8301895
Probable space group: P 41
;
_chemical_formula_sum "Si O2"
_cell_formula_units_Z 24
_cell_length_a 10.287958
_cell_length_b 10.287958
_cell_length_c 9.541320
_cell_angle_alpha 90.000000
_cell_angle_beta 90.000000
_cell_angle_gamma 90.000000
_cell_volume 1009.873153
_symmetry_space_group_name_H-M "P 41"
_symmetry_group_IT_number 76
_symmetry_cell_setting 'tetragonal'
loop_
_space_group_symop_operation_xyz
x,y,z
-y,x,1/4+z
-x,-y,1/2+z
y,-x,3/4+z
loop_
_atom_site_type_symbol
_atom_site_label
_atom_site_fract_x
_atom_site_fract_y
_atom_site_fract_z
Si Si1 0.652343 0.926743 0.367750
Si Si2 0.146908 0.386913 0.749229
Si Si3 0.682940 0.777129 0.081802
Si Si4 0.293089 0.795079 0.778077
Si Si5 0.370677 0.470593 0.193252
Si Si6 0.973986 0.128942 0.741283
O O1 0.509333 0.933829 0.440646
O O2 0.643248 0.873135 0.209146
O O3 0.750486 0.843658 0.462670
O O4 0.717472 0.068226 0.358896
O O5 0.265996 0.360987 0.642727
O O6 0.072605 0.248487 0.767272
O O7 0.198589 0.407693 0.908189
O O8 0.558449 0.752896 0.986191
O O9 0.796410 0.835652 0.980372
O O10 0.334114 0.684615 0.888093
O O11 0.462062 0.455562 0.325298
O O12 0.022344 0.040629 0.614201
#
# Coordination Sequence:
#
# PCOD8301895 Si02
#       6
#     4   4   4   4   4   4
#     4  11  23  44  76 106 147 189 251 307 373 447
#     4  10  21  41  71 103 145 191 241 309 365 437
#     4  10  22  42  71 104 144 196 240 306 376 429
#     4  11  25  43  75 105 144 192 243 303 377 438
#     4  12  28  47  74 110 145 192 251 305 368 442
#     4  10  21  43  73 108 151 198 250 302 371 439
#
# _framework density 23.765363000000001
#
# number of rings (size 3 to 8) (size 9 to 14) (size 15 to 20)
#    0.000    1.333    1.667    3.000    7.000    0.000 
#    3.000    0.000   11.000    0.000    0.000    0.000 
#    0.000    0.000    0.000    0.000    0.000    0.000 
#
# Total GULP energy -297430.336919 kJ/mol
# GULP energy per Si atom -12392.930705 kJ/mol
# Density = 2.371127 g / cm^3
# Si number density = 23.765363 Si / 1000 Ang^3
#
#
#
# Elastic Constant Matrix: (Units=GPa)
#
#
# Indices 1 2 3 4 5 6 
#
# 1 94.3426 55.6032 53.1696 0.0000 0.0000 -0.4789
# 2 55.6032 94.3426 53.1696 0.0000 0.0000 0.4789
# 3 53.1696 53.1696 100.5133 0.0000 0.0000 0.0000
# 4 0.0000 0.0000 0.0000 36.4668 0.0000 0.0000
# 5 0.0000 0.0000 0.0000 0.0000 36.4668 0.0000
# 6 -0.4789 0.4789 0.0000 0.0000 0.0000 35.5652
#
#
#
# Elastic Compliance Matrix: (Units=1/GPa)
#
#
# Indices 1 2 3 4 5 6 
#
# 1 0.018248 -0.007575 -0.005646 0.000000 0.000000 0.000348
# 2 -0.007575 0.018248 -0.005646 0.000000 0.000000 -0.000348
# 3 -0.005646 -0.005646 0.015922 0.000000 0.000000 0.000000
# 4 0.000000 0.000000 0.000000 0.027422 0.000000 0.000000
# 5 0.000000 0.000000 0.000000 0.000000 0.027422 0.000000
# 6 0.000348 -0.000348 0.000000 0.000000 0.000000 0.028127
#
#
# Mechanical properties :
#
#
# Convention : Reuss Voigt Hill
#
# Bulk Modulus (GPa) = 68.09795 68.12040 68.10917
# Shear Modulus (GPa) = 28.08746 30.18351 29.13548
#
# Velocity S-wave (km/s) = 3.44156 3.56766 3.50518
# Velocity P-wave (km/s) = 6.67150 6.75995 6.71587
#
# Compressibility (1/GPa) = 0.01468473
#
# Stress axis : x y z
#
# Youngs Moduli (GPa) = 54.80191 54.80191 62.80626
#
# Poissons Ratio (x) = 0.41510 0.35459
# Poissons Ratio (y) = 0.41510 0.35459
# Poissons Ratio (z) = 0.30940 0.30940
#
# Static dielectric constant tensor:
#      x y z
#    x 4.300680 0.000000 0.000000 
#    y 0.000000 4.300680 0.000000 
#    z 0.000000 0.000000 4.449290 
# 
# 
# High freq. dielectric constant tensor:
#      x y z
#    x 1.941140 0.000000 0.000000 
#    y 0.000000 1.941140 0.000000 
#    z 0.000000 0.000000 1.939510 
# 
# From -- ./inp_files/573.got.cif
#   From: 2010.03.12/outbox.cif.g09.slc.cpg/sg76_cif.got.tgz:573.got - 2010.04.16 16:34:25.
