data_PCOD8301060
_publ_section_title
;
Structure prediction by ZEFSAII (Michael W. Deem and Ramdas Pophale) SiO2 
 PCOD8301060
Probable space group: I M M A
;
_chemical_formula_sum "Si O2"
_cell_formula_units_Z 104
_cell_length_a 22.464799
_cell_length_b 26.227802
_cell_length_c 8.254706
_cell_angle_alpha 90.000000
_cell_angle_beta 90.000000
_cell_angle_gamma 90.000000
_cell_volume 4863.691762
_symmetry_space_group_name_H-M "I M M A"
_symmetry_group_IT_number 74
_symmetry_cell_setting 'orthorhombic'
loop_
_space_group_symop_operation_xyz
x,y,z
-x,1/2-y,z
x,-y,-z
-x,1/2+y,-z
-x,-y,-z
x,1/2+y,-z
-x,y,z
x,1/2-y,z
1/2+x,1/2+y,1/2+z
1/2-x,-y,1/2+z
1/2+x,1/2-y,1/2-z
1/2-x,y,1/2-z
1/2-x,1/2-y,1/2-z
1/2+x,y,1/2-z
1/2-x,1/2+y,1/2+z
1/2+x,-y,1/2+z
loop_
_atom_site_type_symbol
_atom_site_label
_atom_site_fract_x
_atom_site_fract_y
_atom_site_fract_z
Si Si1 0.067011 0.905337 0.204366
Si Si2 0.896000 0.000000 0.000000
Si Si3 0.862098 0.380932 0.490976
Si Si4 0.686022 0.939381 0.694993
Si Si5 0.878838 0.691964 0.042779
Si Si6 0.266046 0.865486 0.424830
Si Si7 0.066471 0.307622 0.296802
O O1 0.068385 0.950597 0.067846
O O2 0.115032 0.912241 0.350803
O O3 0.079853 0.849601 0.129938
O O4 0.000000 0.905323 0.274043
O O5 0.853556 0.986990 0.851152
O O6 0.853375 0.417447 0.339447
O O7 0.798584 0.351608 0.504830
O O8 0.912461 0.339770 0.451155
O O9 0.750000 0.959450 0.750000
O O10 0.695453 0.903057 0.538730
O O11 0.896475 0.750000 0.093487
O O12 0.808973 0.683797 0.089450
O O13 0.888003 0.684633 0.851063
O O14 0.250000 0.890094 0.250000
O O15 0.066101 0.250000 0.357194
O O16 0.000000 0.324627 0.243643
#
# Coordination Sequence:
#
# PCOD8301060 Si02
#       7
#    16   8  16  16  16  16  16
#     4  12  26  44  67  96 131 176 227 279 333 401
#     4  12  23  46  68  96 134 172 223 278 336 394
#     4  11  22  41  65  93 137 169 220 273 339 399
#     4  10  23  39  67  99 131 170 214 268 338 405
#     4  11  23  42  68  97 132 176 222 274 334 399
#     4  11  20  41  65  95 133 171 220 270 335 398
#     4  10  21  38  61  90 128 178 227 271 327 396
#
# _framework density 21.382933999999999
#
# number of rings (size 3 to 8) (size 9 to 14) (size 15 to 20)
#    0.000    1.077    4.615    1.154    0.000    6.154 
#    0.000    4.615    0.000    0.000    0.000    0.000 
#    0.000    0.000    0.000    0.000    0.000    0.000 
#
# Total GULP energy -644313.860993 kJ/mol
# GULP energy per Si atom -12390.651173 kJ/mol
# Density = 2.133427 g / cm^3
# Si number density = 21.382934 Si / 1000 Ang^3
#
#
#
# Elastic Constant Matrix: (Units=GPa)
#
#
# Indices 1 2 3 4 5 6 
#
# 1 120.7603 49.7808 20.7458 0.0000 0.0000 0.0000
# 2 49.7808 93.6544 41.0865 0.0000 0.0000 0.0000
# 3 20.7458 41.0865 92.4835 0.0000 0.0000 0.0000
# 4 0.0000 0.0000 0.0000 29.1518 0.0000 0.0000
# 5 0.0000 0.0000 0.0000 0.0000 34.0501 0.0000
# 6 0.0000 0.0000 0.0000 0.0000 0.0000 57.3811
#
#
#
# Elastic Compliance Matrix: (Units=1/GPa)
#
#
# Indices 1 2 3 4 5 6 
#
# 1 0.010606 -0.005706 0.000156 0.000000 0.000000 0.000000
# 2 -0.005706 0.016332 -0.005976 0.000000 0.000000 0.000000
# 3 0.000156 -0.005976 0.013433 0.000000 0.000000 0.000000
# 4 0.000000 0.000000 0.000000 0.034303 0.000000 0.000000
# 5 0.000000 0.000000 0.000000 0.000000 0.029368 0.000000
# 6 0.000000 0.000000 0.000000 0.000000 0.000000 0.017427
#
#
# Mechanical properties :
#
#
# Convention : Reuss Voigt Hill
#
# Bulk Modulus (GPa) = 57.73989 58.90271 58.32130
# Shear Modulus (GPa) = 33.26798 37.13561 35.20179
#
# Velocity S-wave (km/s) = 3.94867 4.17189 4.06181
# Velocity P-wave (km/s) = 6.91742 7.12829 7.02365
#
# Compressibility (1/GPa) = 0.01731905
#
# Stress axis : x y z
#
# Youngs Moduli (GPa) = 94.28397 61.22943 74.44599
#
# Poissons Ratio (x) = 0.34937 -0.01159
# Poissons Ratio (y) = 0.53798 0.44487
# Poissons Ratio (z) = -0.01468 0.36589
#
# Static dielectric constant tensor:
#      x y z
#    x 3.988460 0.000000 0.000000 
#    y 0.000000 3.659680 0.000000 
#    z 0.000000 0.000000 4.448800 
# 
# 
# High freq. dielectric constant tensor:
#      x y z
#    x 1.851600 0.000000 0.000000 
#    y 0.000000 1.816230 0.000000 
#    z 0.000000 0.000000 1.843360 
# 
# From -- ./inp_files/12758.got.cif
#   From: 2010.03.12/outbox.cif.g09.slc.cpg/sg74_7_cif.got.tgz:12758.got - 2010.04.16 15:46:19.
