data_PCOD8301724
_publ_section_title
;
Structure prediction by ZEFSAII (Michael W. Deem and Ramdas Pophale) SiO2 
 PCOD8301724
Probable space group: I M M A
;
_chemical_formula_sum "Si O2"
_cell_formula_units_Z 72
_cell_length_a 13.927121
_cell_length_b 24.888922
_cell_length_c 9.341598
_cell_angle_alpha 90.000000
_cell_angle_beta 90.000000
_cell_angle_gamma 90.000000
_cell_volume 3238.087720
_symmetry_space_group_name_H-M "I M M A"
_symmetry_group_IT_number 74
_symmetry_cell_setting 'orthorhombic'
loop_
_space_group_symop_operation_xyz
x,y,z
-x,1/2-y,z
x,-y,-z
-x,1/2+y,-z
-x,-y,-z
x,1/2+y,-z
-x,y,z
x,1/2-y,z
1/2+x,1/2+y,1/2+z
1/2-x,-y,1/2+z
1/2+x,1/2-y,1/2-z
1/2-x,y,1/2-z
1/2-x,1/2-y,1/2-z
1/2+x,y,1/2-z
1/2-x,1/2+y,1/2+z
1/2+x,-y,1/2+z
loop_
_atom_site_type_symbol
_atom_site_label
_atom_site_fract_x
_atom_site_fract_y
_atom_site_fract_z
Si Si1 0.299167 0.128406 0.398649
Si Si2 0.500000 0.035326 0.753535
Si Si3 0.309084 0.955532 0.384792
Si Si4 0.000000 0.405661 0.214497
Si Si5 0.500000 0.375070 0.963824
Si Si6 0.306749 0.311864 0.890993
O O1 0.250000 0.114565 0.250000
O O2 0.255722 0.091629 0.528574
O O3 0.411121 0.115807 0.380151
O O4 0.263771 0.184930 0.466198
O O5 0.411692 0.062153 0.672349
O O6 0.500000 0.061990 0.912276
O O7 0.500000 0.970000 0.744884
O O8 0.250000 0.977943 0.250000
O O9 0.328251 0.000000 0.500000
O O10 0.000000 0.374863 0.364341
O O11 0.405518 0.344365 0.909633
O O12 0.334658 0.250000 0.870537
O O13 0.250000 0.333306 0.750000
#
# Coordination Sequence:
#
# PCOD8301724 Si02
#       6
#    16   8  16   8   8  16
#     4  12  24  45  68 102 145 184 238 297 355 429
#     4  12  25  43  66  97 150 187 239 283 349 420
#     4  12  25  41  65  97 141 193 237 284 351 424
#     4  12  26  43  66 108 151 189 240 288 353 443
#     4  12  24  47  73 108 142 193 235 300 368 432
#     4  11  26  50  77 106 139 185 245 307 366 431
#
# _framework density 22.235346
#
# number of rings (size 3 to 8) (size 9 to 14) (size 15 to 20)
#    0.000    0.222    4.444    5.667    0.000    1.333 
#    0.000    1.667    0.000    0.000    0.000    0.000 
#    0.000    0.000    0.000    0.000    0.000    0.000 
#
# Total GULP energy -446047.944439 kJ/mol
# GULP energy per Si atom -12390.220679 kJ/mol
# Density = 2.218474 g / cm^3
# Si number density = 22.235346 Si / 1000 Ang^3
#
#
#
# Elastic Constant Matrix: (Units=GPa)
#
#
# Indices 1 2 3 4 5 6 
#
# 1 142.3046 42.1079 61.0987 0.0001 0.0000 0.0002
# 2 42.1079 67.9250 28.9950 -0.0005 0.0001 -0.0004
# 3 61.0987 28.9950 134.4078 -0.0054 0.0008 -0.0030
# 4 0.0001 -0.0005 -0.0054 27.3914 0.0002 -0.0002
# 5 0.0000 0.0001 0.0008 0.0002 36.3289 -0.0002
# 6 0.0002 -0.0004 -0.0030 -0.0002 -0.0002 39.4746
#
#
#
# Elastic Compliance Matrix: (Units=1/GPa)
#
#
# Indices 1 2 3 4 5 6 
#
# 1 0.009905 -0.004646 -0.003500 -0.000001 0.000000 0.000000
# 2 -0.004646 0.018395 -0.001856 0.000000 0.000000 0.000000
# 3 -0.003500 -0.001856 0.009432 0.000002 0.000000 0.000001
# 4 -0.000001 0.000000 0.000002 0.036508 0.000000 0.000000
# 5 0.000000 0.000000 0.000000 0.000000 0.027526 0.000000
# 6 0.000000 0.000000 0.000001 0.000000 0.000000 0.025333
#
#
# Mechanical properties :
#
#
# Convention : Reuss Voigt Hill
#
# Bulk Modulus (GPa) = 56.41392 67.67117 62.04255
# Shear Modulus (GPa) = 32.67733 34.80138 33.73935
#
# Velocity S-wave (km/s) = 3.83771 3.96047 3.89958
# Velocity P-wave (km/s) = 6.71295 7.17035 6.94542
#
# Compressibility (1/GPa) = 0.01772612
#
# Stress axis : x y z
#
# Youngs Moduli (GPa) = 100.96165 54.36381 106.02663
#
# Poissons Ratio (x) = 0.25257 0.37112
# Poissons Ratio (y) = 0.46907 0.19681
# Poissons Ratio (z) = 0.35339 0.10091
#
# Static dielectric constant tensor:
#      x y z
#    x 4.209380 0.000000 0.000000 
#    y 0.000000 4.368740 0.000000 
#    z 0.000000 0.000000 4.315300 
# 
# 
# High freq. dielectric constant tensor:
#      x y z
#    x 1.887430 0.000000 0.000000 
#    y 0.000000 1.857340 0.000000 
#    z 0.000000 0.000000 1.902220 
# 
# From -- ./inp_files/9217.got.cif
#   From: 2010.03.12/outbox.cif.g09.slc.cpg/sg74_5_cif.got.tgz:9217.got - 2010.04.16 15:46:19.
