data_PCOD8301749
_publ_section_title
;
Structure prediction by ZEFSAII (Michael W. Deem and Ramdas Pophale) SiO2 
 PCOD8301749
Probable space group: I M M A
;
_chemical_formula_sum "Si O2"
_cell_formula_units_Z 64
_cell_length_a 14.822288
_cell_length_b 9.209739
_cell_length_c 28.355801
_cell_angle_alpha 90.000000
_cell_angle_beta 90.000000
_cell_angle_gamma 90.000000
_cell_volume 3870.833491
_symmetry_space_group_name_H-M "I M M A"
_symmetry_group_IT_number 74
_symmetry_cell_setting 'orthorhombic'
loop_
_space_group_symop_operation_xyz
x,y,z
-x,1/2-y,z
x,-y,-z
-x,1/2+y,-z
-x,-y,-z
x,1/2+y,-z
-x,y,z
x,1/2-y,z
1/2+x,1/2+y,1/2+z
1/2-x,-y,1/2+z
1/2+x,1/2-y,1/2-z
1/2-x,y,1/2-z
1/2-x,1/2-y,1/2-z
1/2+x,y,1/2-z
1/2-x,1/2+y,1/2+z
1/2+x,-y,1/2+z
loop_
_atom_site_type_symbol
_atom_site_label
_atom_site_fract_x
_atom_site_fract_y
_atom_site_fract_z
Si Si1 0.898356 0.420539 0.778471
Si Si2 0.400948 0.922773 0.173526
Si Si3 0.103708 0.079911 0.952458
Si Si4 0.783625 0.577085 0.135827
O O1 0.881713 0.250000 0.776687
O O2 0.879416 0.483763 0.726110
O O3 0.832292 0.488865 0.817723
O O4 0.000000 0.456531 0.794184
O O5 0.500000 0.979366 0.156507
O O6 0.403610 0.750000 0.176349
O O7 0.321653 0.972801 0.137762
O O8 0.118278 0.250000 0.960277
O O9 0.168049 0.017525 0.911129
O O10 0.000000 0.045583 0.939116
O O11 0.132907 0.000000 0.000000
O O12 0.792722 0.750000 0.136039
#
# Coordination Sequence:
#
# PCOD8301749 Si02
#       4
#    16  16  16  16
#     4   8  12  17  26  43  68  95 120 145 176 217
#     4   8  13  19  27  43  69  98 123 147 178 216
#     4   9  17  28  41  57  76  97 122 153 188 223
#     4   9  14  20  32  48  68  96 125 149 178 219
#
# _framework density 16.533906999999999
#
# number of rings (size 3 to 8) (size 9 to 14) (size 15 to 20)
#    0.000    3.500    0.000    3.000    0.000    6.000 
#    0.000    0.000    0.000    0.750    0.000    0.000 
#    0.000    4.000    0.000    6.000    0.000    5.000 
#
# Total GULP energy -396430.788878 kJ/mol
# GULP energy per Si atom -12388.462152 kJ/mol
# Density = 1.649627 g / cm^3
# Si number density = 16.533907 Si / 1000 Ang^3
#
#
#
# Elastic Constant Matrix: (Units=GPa)
#
#
# Indices 1 2 3 4 5 6 
#
# 1 133.8739 10.8485 86.8173 0.0000 0.0000 0.0000
# 2 10.8485 5.4184 12.5456 0.0000 0.0000 0.0000
# 3 86.8173 12.5456 112.5548 0.0000 0.0000 0.0000
# 4 0.0000 0.0000 0.0000 13.5804 0.0000 0.0000
# 5 0.0000 0.0000 0.0000 0.0000 31.8115 0.0000
# 6 0.0000 0.0000 0.0000 0.0000 0.0000 5.3155
#
#
#
# Elastic Compliance Matrix: (Units=1/GPa)
#
#
# Indices 1 2 3 4 5 6 
#
# 1 0.015022 -0.004378 -0.011099 0.000000 0.000000 0.000000
# 2 -0.004378 0.250032 -0.024492 0.000000 0.000000 0.000000
# 3 -0.011099 -0.024492 0.020176 0.000000 0.000000 0.000000
# 4 0.000000 0.000000 0.000000 0.073636 0.000000 0.000000
# 5 0.000000 0.000000 0.000000 0.000000 0.031435 0.000000
# 6 0.000000 0.000000 0.000000 0.000000 0.000000 0.188130
#
#
# Mechanical properties :
#
#
# Convention : Reuss Voigt Hill
#
# Bulk Modulus (GPa) = 4.87113 52.47444 28.67279
# Shear Modulus (GPa) = 6.87946 19.58385 13.23166
#
# Velocity S-wave (km/s) = 2.04202 3.44534 2.83198
# Velocity P-wave (km/s) = 2.91759 6.90171 5.29839
#
# Compressibility (1/GPa) = 0.20529103
#
# Stress axis : x y z
#
# Youngs Moduli (GPa) = 66.56732 3.99948 49.56442
#
# Poissons Ratio (x) = 0.01751 0.55013
# Poissons Ratio (y) = 0.29145 1.21394
# Poissons Ratio (z) = 0.73885 0.09796
#
# Static dielectric constant tensor:
#      x y z
#    x 3.449570 0.000000 0.000000 
#    y 0.000000 2.355900 0.000000 
#    z 0.000000 0.000000 3.309870 
# 
# 
# High freq. dielectric constant tensor:
#      x y z
#    x 1.646970 0.000000 0.000000 
#    y 0.000000 1.547770 0.000000 
#    z 0.000000 0.000000 1.623740 
# 
# From -- ./inp_files/42413.got.cif
#   From: 2010.03.12/outbox.cif.g09.slc.cpg/sg74_22_cif.got.tgz:42413.got - 2010.04.16 15:46:19.
