data_PCOD8301653
_publ_section_title
;
Structure prediction by ZEFSAII (Michael W. Deem and Ramdas Pophale) SiO2 
 PCOD8301653
Probable space group: I M M A
;
_chemical_formula_sum "Si O2"
_cell_formula_units_Z 80
_cell_length_a 17.761658
_cell_length_b 7.553324
_cell_length_c 31.177220
_cell_angle_alpha 90.000000
_cell_angle_beta 90.000000
_cell_angle_gamma 90.000000
_cell_volume 4182.722044
_symmetry_space_group_name_H-M "I M M A"
_symmetry_group_IT_number 74
_symmetry_cell_setting 'orthorhombic'
loop_
_space_group_symop_operation_xyz
x,y,z
-x,1/2-y,z
x,-y,-z
-x,1/2+y,-z
-x,-y,-z
x,1/2+y,-z
-x,y,z
x,1/2-y,z
1/2+x,1/2+y,1/2+z
1/2-x,-y,1/2+z
1/2+x,1/2-y,1/2-z
1/2-x,y,1/2-z
1/2-x,1/2-y,1/2-z
1/2+x,y,1/2-z
1/2-x,1/2+y,1/2+z
1/2+x,-y,1/2+z
loop_
_atom_site_type_symbol
_atom_site_label
_atom_site_fract_x
_atom_site_fract_y
_atom_site_fract_z
Si Si1 0.731842 0.543476 0.547193
Si Si2 0.809863 0.545356 0.631655
Si Si3 0.848881 0.952636 0.825883
Si Si4 0.918158 0.540538 0.915318
Si Si5 0.086977 0.250000 0.667826
Si Si6 0.587637 0.750000 0.268618
O O1 0.763098 0.500000 0.500000
O O2 0.724591 0.750000 0.555165
O O3 0.788658 0.474390 0.583723
O O4 0.647654 0.461493 0.553901
O O5 0.835848 0.750000 0.630817
O O6 0.738575 0.520514 0.662792
O O7 0.877942 0.427546 0.648205
O O8 0.864623 0.750000 0.812636
O O9 0.899211 0.009491 0.866454
O O10 0.871749 0.074946 0.786335
O O11 0.921166 0.750000 0.919948
O O12 0.000000 0.458643 0.927520
O O13 0.099959 0.250000 0.718243
O O14 0.000000 0.250000 0.655313
O O15 0.500000 0.750000 0.281058
#
# Coordination Sequence:
#
# PCOD8301653 Si02
#       6
#    16  16  16  16   8   8
#     4   9  18  31  51  80 104 135 181 221 266 320
#     4   9  20  39  60  83 109 143 185 225 273 335
#     4   9  18  34  56  79 109 151 195 231 265 308
#     4   8  14  27  46  69 107 153 187 217 256 304
#     4  11  25  41  59  83 111 143 175 225 297 350
#     4  11  23  35  51  83 117 147 193 235 267 323
#
# _framework density 19.126301000000002
#
# number of rings (size 3 to 8) (size 9 to 14) (size 15 to 20)
#    0.000    2.800    0.000    3.600    1.400    4.400 
#    1.800    4.000    0.000    0.600    0.000    0.000 
#    0.000    0.000    0.000    0.000    0.000    0.000 
#
# Total GULP energy -495815.873085 kJ/mol
# GULP energy per Si atom -12395.396827 kJ/mol
# Density = 1.908277 g / cm^3
# Si number density = 19.126301 Si / 1000 Ang^3
#
#
#
# Elastic Constant Matrix: (Units=GPa)
#
#
# Indices 1 2 3 4 5 6 
#
# 1 103.6834 50.4476 67.6679 0.0000 0.0000 0.0000
# 2 50.4476 86.1376 46.8213 0.0000 0.0000 0.0000
# 3 67.6679 46.8213 114.1163 0.0000 0.0000 0.0000
# 4 0.0000 0.0000 0.0000 26.2747 0.0000 0.0000
# 5 0.0000 0.0000 0.0000 0.0000 17.8845 0.0000
# 6 0.0000 0.0000 0.0000 0.0000 0.0000 25.3780
#
#
#
# Elastic Compliance Matrix: (Units=1/GPa)
#
#
# Indices 1 2 3 4 5 6 
#
# 1 0.017899 -0.006067 -0.008124 0.000000 0.000000 0.000000
# 2 -0.006067 0.016998 -0.003377 0.000000 0.000000 0.000000
# 3 -0.008124 -0.003377 0.014966 0.000000 0.000000 0.000000
# 4 0.000000 0.000000 0.000000 0.038059 0.000000 0.000000
# 5 0.000000 0.000000 0.000000 0.000000 0.055914 0.000000
# 6 0.000000 0.000000 0.000000 0.000000 0.000000 0.039404
#
#
# Mechanical properties :
#
#
# Convention : Reuss Voigt Hill
#
# Bulk Modulus (GPa) = 67.90212 70.42342 69.16277
# Shear Modulus (GPa) = 22.39289 23.17413 22.78351
#
# Velocity S-wave (km/s) = 3.42539 3.48463 3.45514
# Velocity P-wave (km/s) = 7.15706 7.28631 7.22197
#
# Compressibility (1/GPa) = 0.01472708
#
# Stress axis : x y z
#
# Youngs Moduli (GPa) = 55.86981 58.83124 66.81792
#
# Poissons Ratio (x) = 0.35690 0.54286
# Poissons Ratio (y) = 0.33893 0.22563
# Poissons Ratio (z) = 0.45391 0.19866
#
# Static dielectric constant tensor:
#      x y z
#    x 3.462730 0.000000 0.000000 
#    y 0.000000 3.294050 0.000000 
#    z 0.000000 0.000000 3.651970 
# 
# 
# High freq. dielectric constant tensor:
#      x y z
#    x 1.723140 0.000000 0.000000 
#    y 0.000000 1.740520 0.000000 
#    z 0.000000 0.000000 1.732970 
# 
# From -- ./inp_files/72909.got.cif
#   From: 2010.03.12/outbox.cif.g09.slc.cpg/sg74_37_cif.got.tgz:72909.got - 2010.04.16 15:46:19.
