data_PCOD8301882
_publ_section_title
;
Structure prediction by ZEFSAII (Michael W. Deem and Ramdas Pophale) SiO2 
 PCOD8301882
Probable space group: P 41
;
_chemical_formula_sum "Si O2"
_cell_formula_units_Z 32
_cell_length_a 9.538434
_cell_length_b 9.538434
_cell_length_c 17.832629
_cell_angle_alpha 90.000000
_cell_angle_beta 90.000000
_cell_angle_gamma 90.000000
_cell_volume 1622.443315
_symmetry_space_group_name_H-M "P 41"
_symmetry_group_IT_number 76
_symmetry_cell_setting 'tetragonal'
loop_
_space_group_symop_operation_xyz
x,y,z
-y,x,1/4+z
-x,-y,1/2+z
y,-x,3/4+z
loop_
_atom_site_type_symbol
_atom_site_label
_atom_site_fract_x
_atom_site_fract_y
_atom_site_fract_z
Si Si1 0.988022 0.359571 0.344300
Si Si2 0.852954 0.095415 0.853341
Si Si3 0.659745 0.667612 0.583465
Si Si4 0.438458 0.860127 0.421231
Si Si5 0.018580 0.894580 0.946382
Si Si6 0.626107 0.343124 0.167940
Si Si7 0.340869 0.928835 0.588295
Si Si8 0.086523 0.336597 0.185226
O O1 0.832213 0.324363 0.312912
O O2 0.986480 0.516773 0.378094
O O3 0.030686 0.250891 0.408503
O O4 0.096860 0.353667 0.275126
O O5 0.689893 0.133779 0.862770
O O6 0.871695 0.986337 0.785223
O O7 0.944375 0.232886 0.838896
O O8 0.909040 0.016849 0.926955
O O9 0.684982 0.586218 0.505199
O O10 0.509757 0.633183 0.617783
O O11 0.769351 0.618285 0.646217
O O12 0.511534 0.710059 0.413254
O O13 0.377765 0.883493 0.503906
O O14 0.559677 0.971246 0.400485
O O15 0.172268 0.943269 0.918804
O O16 0.711011 0.207889 0.134869
#
# Coordination Sequence:
#
# PCOD8301882 Si02
#       8
#     4   4   4   4   4   4   4   4
#     4   9  19  41  61  90 129 162 206 270 314 378
#     4  12  24  40  63  97 129 164 217 268 326 380
#     4  10  22  37  69  93 122 166 219 260 313 390
#     4  11  23  44  62  90 132 169 209 269 318 385
#     4  11  22  39  65  96 125 168 214 265 324 387
#     4  11  20  46  63  93 125 168 215 263 313 389
#     4  10  22  42  66  88 128 167 216 259 322 386
#     4  10  20  39  65  91 122 168 206 258 322 371
#
# _framework density 19.723337999999998
#
# number of rings (size 3 to 8) (size 9 to 14) (size 15 to 20)
#    0.000    1.500    6.250    0.750    0.000    3.000 
#    9.000    0.000    0.000    0.000    0.000    0.000 
#    0.000    0.000    0.000    0.000    0.000    0.000 
#
# Total GULP energy -396727.091391 kJ/mol
# GULP energy per Si atom -12397.721606 kJ/mol
# Density = 1.967845 g / cm^3
# Si number density = 19.723338 Si / 1000 Ang^3
#
#
#
# Elastic Constant Matrix: (Units=GPa)
#
#
# Indices 1 2 3 4 5 6 
#
# 1 108.1746 51.1122 44.0494 0.0000 0.0000 -4.0956
# 2 51.1122 108.1746 44.0494 0.0000 0.0000 4.0956
# 3 44.0494 44.0494 93.1264 0.0000 0.0000 0.0000
# 4 0.0000 0.0000 0.0000 32.5313 0.0000 0.0000
# 5 0.0000 0.0000 0.0000 0.0000 32.5313 0.0000
# 6 -4.0956 4.0956 0.0000 0.0000 0.0000 23.4995
#
#
#
# Elastic Compliance Matrix: (Units=1/GPa)
#
#
# Indices 1 2 3 4 5 6 
#
# 1 0.013238 -0.004736 -0.004022 0.000000 0.000000 0.003133
# 2 -0.004736 0.013238 -0.004022 0.000000 0.000000 -0.003133
# 3 -0.004022 -0.004022 0.014543 0.000000 0.000000 0.000000
# 4 0.000000 0.000000 0.000000 0.030740 0.000000 0.000000
# 5 0.000000 0.000000 0.000000 0.000000 0.030740 0.000000
# 6 0.003133 -0.003133 0.000000 0.000000 0.000000 0.043646
#
#
# Mechanical properties :
#
#
# Convention : Reuss Voigt Hill
#
# Bulk Modulus (GPa) = 64.68038 65.32195 65.00116
# Shear Modulus (GPa) = 28.27147 29.06339 28.66743
#
# Velocity S-wave (km/s) = 3.79014 3.84285 3.81659
# Velocity P-wave (km/s) = 7.21239 7.27194 7.24222
#
# Compressibility (1/GPa) = 0.01546064
#
# Stress axis : x y z
#
# Youngs Moduli (GPa) = 75.53829 75.53829 68.76349
#
# Poissons Ratio (x) = 0.35775 0.27654
# Poissons Ratio (y) = 0.35775 0.27654
# Poissons Ratio (z) = 0.30379 0.30379
#
# Static dielectric constant tensor:
#      x y z
#    x 3.624300 0.000000 0.000000 
#    y 0.000000 3.624300 0.000000 
#    z 0.000000 0.000000 3.525560 
# 
# 
# High freq. dielectric constant tensor:
#      x y z
#    x 1.762840 0.000000 0.000000 
#    y 0.000000 1.762840 0.000000 
#    z 0.000000 0.000000 1.765890 
# 
# From -- ./inp_files/1481.got.cif
#   From: 2010.03.12/outbox.cif.g09.slc.cpg/sg76_cif.got.tgz:1481.got - 2010.04.16 16:34:25.
