data_PCOD8301585
_publ_section_title
;
Structure prediction by ZEFSAII (Michael W. Deem and Ramdas Pophale) SiO2 
 PCOD8301585
Probable space group: I M M A
;
_chemical_formula_sum "Si O2"
_cell_formula_units_Z 96
_cell_length_a 23.062014
_cell_length_b 17.900372
_cell_length_c 11.654492
_cell_angle_alpha 90.000000
_cell_angle_beta 90.000000
_cell_angle_gamma 90.000000
_cell_volume 4811.191417
_symmetry_space_group_name_H-M "I M M A"
_symmetry_group_IT_number 74
_symmetry_cell_setting 'orthorhombic'
loop_
_space_group_symop_operation_xyz
x,y,z
-x,1/2-y,z
x,-y,-z
-x,1/2+y,-z
-x,-y,-z
x,1/2+y,-z
-x,y,z
x,1/2-y,z
1/2+x,1/2+y,1/2+z
1/2-x,-y,1/2+z
1/2+x,1/2-y,1/2-z
1/2-x,y,1/2-z
1/2-x,1/2-y,1/2-z
1/2+x,y,1/2-z
1/2-x,1/2+y,1/2+z
1/2+x,-y,1/2+z
loop_
_atom_site_type_symbol
_atom_site_label
_atom_site_fract_x
_atom_site_fract_y
_atom_site_fract_z
Si Si1 0.500000 0.661697 0.876279
Si Si2 0.814671 0.391685 0.300906
Si Si3 0.000000 0.337685 0.122229
Si Si4 0.697738 0.571403 0.417194
Si Si5 0.117135 0.665360 0.502699
Si Si6 0.676592 0.441825 0.840510
Si Si7 0.125498 0.662586 0.918221
O O1 0.500000 0.750000 0.866657
O O2 0.500000 0.625507 0.749174
O O3 0.442441 0.635640 0.942136
O O4 0.750000 0.381415 0.250000
O O5 0.831453 0.333645 0.401156
O O6 0.822661 0.470060 0.369110
O O7 0.858148 0.382881 0.195558
O O8 0.941428 0.359965 0.053443
O O9 0.000000 0.250000 0.140803
O O10 0.691941 0.500000 0.500000
O O11 0.666806 0.558634 0.296039
O O12 0.763660 0.592989 0.388556
O O13 0.666688 0.641452 0.476440
O O14 0.112001 0.750000 0.454856
O O15 0.126869 0.607693 0.398301
O O16 0.132837 0.750000 0.892970
#
# Coordination Sequence:
#
# PCOD8301585 Si02
#       7
#     8  16   8  16  16  16  16
#     4   9  18  38  61  84 125 167 197 251 316 352
#     4  12  21  37  62  89 122 162 199 247 310 365
#     4   9  18  38  61  89 123 160 199 255 323 351
#     4  11  21  41  62  84 124 168 201 244 306 371
#     4  11  23  38  61  93 124 158 206 253 300 362
#     4  11  23  39  62  87 125 171 200 238 312 377
#     4  11  22  37  64  93 119 155 210 262 301 353
#
# _framework density 19.953476999999999
#
# number of rings (size 3 to 8) (size 9 to 14) (size 15 to 20)
#    0.000    1.167    5.000    3.000    0.000    4.000 
#    0.000    5.417    0.000    3.000    0.000    0.000 
#    0.000    0.000    0.000    0.000    0.000    0.000 
#
# Total GULP energy -594943.796870 kJ/mol
# GULP energy per Si atom -12394.662435 kJ/mol
# Density = 1.990806 g / cm^3
# Si number density = 19.953477 Si / 1000 Ang^3
#
#
#
# Elastic Constant Matrix: (Units=GPa)
#
#
# Indices 1 2 3 4 5 6 
#
# 1 97.9603 49.5436 46.2887 0.0000 0.0000 0.0000
# 2 49.5436 58.4393 28.8912 0.0000 0.0000 0.0000
# 3 46.2887 28.8912 104.4169 0.0000 0.0000 0.0000
# 4 0.0000 0.0000 0.0000 39.0418 0.0000 0.0000
# 5 0.0000 0.0000 0.0000 0.0000 25.6628 0.0000
# 6 0.0000 0.0000 0.0000 0.0000 0.0000 5.1517
#
#
#
# Elastic Compliance Matrix: (Units=1/GPa)
#
#
# Indices 1 2 3 4 5 6 
#
# 1 0.019729 -0.014367 -0.004771 0.000000 0.000000 0.000000
# 2 -0.014367 0.030286 -0.002011 0.000000 0.000000 0.000000
# 3 -0.004771 -0.002011 0.012248 0.000000 0.000000 0.000000
# 4 0.000000 0.000000 0.000000 0.025614 0.000000 0.000000
# 5 0.000000 0.000000 0.000000 0.000000 0.038967 0.000000
# 6 0.000000 0.000000 0.000000 0.000000 0.000000 0.194110
#
#
# Mechanical properties :
#
#
# Convention : Reuss Voigt Hill
#
# Bulk Modulus (GPa) = 50.08554 56.69594 53.39074
# Shear Modulus (GPa) = 13.51697 23.04414 18.28056
#
# Velocity S-wave (km/s) = 2.60556 3.40206 3.03010
# Velocity P-wave (km/s) = 5.84873 6.62629 6.24961
#
# Compressibility (1/GPa) = 0.01996584
#
# Stress axis : x y z
#
# Youngs Moduli (GPa) = 50.68795 33.01869 81.64452
#
# Poissons Ratio (x) = 0.47438 0.38949
# Poissons Ratio (y) = 0.72823 0.16417
# Poissons Ratio (z) = 0.24181 0.06640
#
# Static dielectric constant tensor:
#      x y z
#    x 3.866810 0.000000 0.000000 
#    y 0.000000 3.464750 0.000000 
#    z 0.000000 0.000000 3.687910 
# 
# 
# High freq. dielectric constant tensor:
#      x y z
#    x 1.776460 0.000000 0.000000 
#    y 0.000000 1.757800 0.000000 
#    z 0.000000 0.000000 1.777680 
# 
# From -- ./inp_files/25216.got.cif
#   From: 2010.03.12/outbox.cif.g09.slc.cpg/sg74_13_cif.got.tgz:25216.got - 2010.04.16 15:46:19.
