data_PCOD8301643
_publ_section_title
;
Structure prediction by ZEFSAII (Michael W. Deem and Ramdas Pophale) SiO2 
 PCOD8301643
Probable space group: I M M A
;
_chemical_formula_sum "Si O2"
_cell_formula_units_Z 60
_cell_length_a 10.808052
_cell_length_b 14.682408
_cell_length_c 18.692292
_cell_angle_alpha 90.000000
_cell_angle_beta 90.000000
_cell_angle_gamma 90.000000
_cell_volume 2966.246716
_symmetry_space_group_name_H-M "I M M A"
_symmetry_group_IT_number 74
_symmetry_cell_setting 'orthorhombic'
loop_
_space_group_symop_operation_xyz
x,y,z
-x,1/2-y,z
x,-y,-z
-x,1/2+y,-z
-x,-y,-z
x,1/2+y,-z
-x,y,z
x,1/2-y,z
1/2+x,1/2+y,1/2+z
1/2-x,-y,1/2+z
1/2+x,1/2-y,1/2-z
1/2-x,y,1/2-z
1/2-x,1/2-y,1/2-z
1/2+x,y,1/2-z
1/2-x,1/2+y,1/2+z
1/2+x,-y,1/2+z
loop_
_atom_site_type_symbol
_atom_site_label
_atom_site_fract_x
_atom_site_fract_y
_atom_site_fract_z
Si Si1 0.752818 0.940396 0.832970
Si Si2 0.145541 0.250000 0.375446
Si Si3 0.639463 0.938232 0.062713
Si Si4 0.000000 0.947889 0.921917
Si Si5 0.263259 0.750000 0.033944
Si Si6 0.000000 0.250000 0.022242
O O1 0.750000 0.963589 0.750000
O O2 0.716936 0.835632 0.843018
O O3 0.879246 0.970425 0.873883
O O4 0.645019 0.003769 0.864996
O O5 0.161068 0.250000 0.460225
O O6 0.000000 0.250000 0.355074
O O7 0.500000 0.917422 0.039820
O O8 0.705022 0.841812 0.076116
O O9 0.703139 0.000000 0.000000
O O10 0.000000 0.839225 0.929130
O O11 0.000000 0.000000 0.000000
O O12 0.117187 0.750000 0.028362
#
# Coordination Sequence:
#
# PCOD8301643 Si02
#       6
#    16   8  16   8   8   4
#     4  12  26  42  64  99 135 177 219 271 340 401
#     4  12  23  40  67  95 135 169 215 270 339 408
#     4  11  22  40  66  93 128 167 219 273 325 395
#     4  12  24  44  68  94 135 177 226 274 326 407
#     4  12  22  39  65 102 121 171 221 279 324 388
#     4  12  20  38  64  90 136 160 218 270 320 388
#
# _framework density 20.227582000000002
#
# number of rings (size 3 to 8) (size 9 to 14) (size 15 to 20)
#    0.000    0.267    5.333    4.800    3.733    0.000 
#    0.000    0.667    0.000    0.000    0.000    0.000 
#    0.000    0.000    0.000    0.000    0.000    0.000 
#
# Total GULP energy -371931.722745 kJ/mol
# GULP energy per Si atom -12397.724091 kJ/mol
# Density = 2.018154 g / cm^3
# Si number density = 20.227582 Si / 1000 Ang^3
#
#
#
# Elastic Constant Matrix: (Units=GPa)
#
#
# Indices 1 2 3 4 5 6 
#
# 1 110.8733 22.1897 29.7515 0.0000 0.0000 0.0000
# 2 22.1897 140.2907 48.0300 0.0000 0.0000 0.0000
# 3 29.7515 48.0300 137.4062 0.0000 0.0000 0.0000
# 4 0.0000 0.0000 0.0000 7.3394 0.0000 0.0000
# 5 0.0000 0.0000 0.0000 0.0000 25.8134 0.0000
# 6 0.0000 0.0000 0.0000 0.0000 0.0000 31.8229
#
#
#
# Elastic Compliance Matrix: (Units=1/GPa)
#
#
# Indices 1 2 3 4 5 6 
#
# 1 0.009680 -0.000924 -0.001773 0.000000 0.000000 0.000000
# 2 -0.000924 0.008185 -0.002661 0.000000 0.000000 0.000000
# 3 -0.001773 -0.002661 0.008592 0.000000 0.000000 0.000000
# 4 0.000000 0.000000 0.000000 0.136251 0.000000 0.000000
# 5 0.000000 0.000000 0.000000 0.000000 0.038740 0.000000
# 6 0.000000 0.000000 0.000000 0.000000 0.000000 0.031424
#
#
# Mechanical properties :
#
#
# Convention : Reuss Voigt Hill
#
# Bulk Modulus (GPa) = 63.52899 65.39029 64.45964
# Shear Modulus (GPa) = 20.09368 32.23509 26.16439
#
# Velocity S-wave (km/s) = 3.15521 3.99635 3.60043
# Velocity P-wave (km/s) = 6.68948 7.32747 7.01573
#
# Compressibility (1/GPa) = 0.01574085
#
# Stress axis : x y z
#
# Youngs Moduli (GPa) = 103.30594 122.17092 116.39106
#
# Poissons Ratio (x) = 0.11290 0.20635
# Poissons Ratio (y) = 0.09547 0.30972
# Poissons Ratio (z) = 0.18315 0.32510
#
# Static dielectric constant tensor:
#      x y z
#    x 3.895120 0.000000 0.000000 
#    y 0.000000 4.665200 0.000000 
#    z 0.000000 0.000000 3.449270 
# 
# 
# High freq. dielectric constant tensor:
#      x y z
#    x 1.807490 0.000000 0.000000 
#    y 0.000000 1.801520 0.000000 
#    z 0.000000 0.000000 1.757230 
# 
# From -- ./inp_files/40650.got.cif
#   From: 2010.03.12/outbox.cif.g09.slc.cpg/sg74_21_cif.got.tgz:40650.got - 2010.04.16 15:46:19.
