data_PCOD8301877
_publ_section_title
;
Structure prediction by ZEFSAII (Michael W. Deem and Ramdas Pophale) SiO2 
 PCOD8301877
Probable space group: P 41
;
_chemical_formula_sum "Si O2"
_cell_formula_units_Z 32
_cell_length_a 9.289955
_cell_length_b 9.289955
_cell_length_c 18.722578
_cell_angle_alpha 90.000000
_cell_angle_beta 90.000000
_cell_angle_gamma 90.000000
_cell_volume 1615.819590
_symmetry_space_group_name_H-M "P 41"
_symmetry_group_IT_number 76
_symmetry_cell_setting 'tetragonal'
loop_
_space_group_symop_operation_xyz
x,y,z
-y,x,1/4+z
-x,-y,1/2+z
y,-x,3/4+z
loop_
_atom_site_type_symbol
_atom_site_label
_atom_site_fract_x
_atom_site_fract_y
_atom_site_fract_z
Si Si1 0.952154 0.587952 0.005840
Si Si2 0.824910 0.272271 0.752469
Si Si3 0.273437 0.476234 0.157260
Si Si4 0.861649 0.659186 0.244091
Si Si5 0.726563 0.476234 0.496964
Si Si6 0.272270 0.824910 0.651755
Si Si7 0.587953 0.952154 0.398384
Si Si8 0.659186 0.861649 0.160133
O O1 0.913758 0.500000 0.077112
O O2 0.881041 0.745575 0.008294
O O3 0.888594 0.501659 0.938493
O O4 0.122958 0.610709 0.998662
O O5 0.747934 0.368024 0.692654
O O6 0.817683 0.356083 0.827738
O O7 0.992415 0.246687 0.732785
O O8 0.389316 0.389317 0.202112
O O9 0.122958 0.389291 0.155563
O O10 0.332163 0.500000 0.077112
O O11 0.817681 0.643918 0.326485
O O12 0.888594 0.498341 0.215732
O O13 0.732273 0.732272 0.202111
O O14 0.747934 0.631976 0.461570
O O15 0.118959 0.745575 0.645931
O O16 0.246687 0.992415 0.671438
#
# Coordination Sequence:
#
# PCOD8301877 Si02
#       8
#     4   4   4   4   4   4   4   4
#     4  10  20  38  61  84 118 156 192 241 293 339
#     4  10  22  37  59  86 114 154 193 238 291 343
#     4  10  24  42  59  85 121 154 193 241 290 349
#     4  10  20  37  58  85 116 147 196 243 284 346
#     4  10  24  42  59  85 121 154 193 241 290 349
#     4  10  22  37  59  86 114 154 193 238 291 343
#     4  10  20  38  61  84 118 156 192 241 293 339
#     4  10  20  37  58  85 116 147 196 243 284 346
#
# _framework density 19.804189999999998
#
# number of rings (size 3 to 8) (size 9 to 14) (size 15 to 20)
#    0.000    2.000    2.500    0.000    3.500    3.000 
#    0.000    0.000    0.000    0.000    0.000    0.000 
#    0.000    0.000    0.000    0.000    0.000    0.000 
#
# Total GULP energy -396870.584504 kJ/mol
# GULP energy per Si atom -12402.205766 kJ/mol
# Density = 1.975912 g / cm^3
# Si number density = 19.804190 Si / 1000 Ang^3
#
#
#
# Elastic Constant Matrix: (Units=GPa)
#
#
# Indices 1 2 3 4 5 6 
#
# 1 51.5088 28.3732 22.1876 0.0000 0.0000 0.0000
# 2 28.3732 51.5088 22.1876 0.0000 0.0000 0.0000
# 3 22.1876 22.1876 120.7482 0.0000 0.0000 0.0000
# 4 0.0000 0.0000 0.0000 27.2166 0.0000 0.0000
# 5 0.0000 0.0000 0.0000 0.0000 27.2166 0.0000
# 6 0.0000 0.0000 0.0000 0.0000 0.0000 35.2975
#
#
#
# Elastic Compliance Matrix: (Units=1/GPa)
#
#
# Indices 1 2 3 4 5 6 
#
# 1 0.028583 -0.014641 -0.002562 0.000000 0.000000 0.000000
# 2 -0.014641 0.028583 -0.002562 0.000000 0.000000 0.000000
# 3 -0.002562 -0.002562 0.009223 0.000000 0.000000 0.000000
# 4 0.000000 0.000000 0.000000 0.036742 0.000000 0.000000
# 5 0.000000 0.000000 0.000000 0.000000 0.036742 0.000000
# 6 0.000000 0.000000 0.000000 0.000000 0.000000 0.028331
#
#
# Mechanical properties :
#
#
# Convention : Reuss Voigt Hill
#
# Bulk Modulus (GPa) = 37.23125 41.02919 39.13022
# Shear Modulus (GPa) = 23.07493 28.01397 25.54445
#
# Velocity S-wave (km/s) = 3.41714 3.76513 3.59535
# Velocity P-wave (km/s) = 5.86597 6.29793 6.08579
#
# Compressibility (1/GPa) = 0.02685916
#
# Stress axis : x y z
#
# Youngs Moduli (GPa) = 34.98641 34.98641 108.42274
#
# Poissons Ratio (x) = 0.51224 0.27775
# Poissons Ratio (y) = 0.51224 0.27775
# Poissons Ratio (z) = 0.08963 0.08963
#
# Static dielectric constant tensor:
#      x y z
#    x 3.443360 0.000000 0.000000 
#    y 0.000000 3.443360 0.000000 
#    z 0.000000 0.000000 3.847940 
# 
# 
# High freq. dielectric constant tensor:
#      x y z
#    x 1.757830 0.000000 0.000000 
#    y 0.000000 1.757830 0.000000 
#    z 0.000000 0.000000 1.789870 
# 
# From -- ./inp_files/1419.got.cif
#   From: 2010.03.12/outbox.cif.g09.slc.cpg/sg76_cif.got.tgz:1419.got - 2010.04.16 16:34:25.
