data_PCOD8301550
_publ_section_title
;
Structure prediction by ZEFSAII (Michael W. Deem and Ramdas Pophale) SiO2 
 PCOD8301550
Probable space group: I M M A
;
_chemical_formula_sum "Si O2"
_cell_formula_units_Z 96
_cell_length_a 8.772725
_cell_length_b 20.176117
_cell_length_c 28.641987
_cell_angle_alpha 90.000000
_cell_angle_beta 90.000000
_cell_angle_gamma 90.000000
_cell_volume 5069.618123
_symmetry_space_group_name_H-M "I M M A"
_symmetry_group_IT_number 74
_symmetry_cell_setting 'orthorhombic'
loop_
_space_group_symop_operation_xyz
x,y,z
-x,1/2-y,z
x,-y,-z
-x,1/2+y,-z
-x,-y,-z
x,1/2+y,-z
-x,y,z
x,1/2-y,z
1/2+x,1/2+y,1/2+z
1/2-x,-y,1/2+z
1/2+x,1/2-y,1/2-z
1/2-x,y,1/2-z
1/2-x,1/2-y,1/2-z
1/2+x,y,1/2-z
1/2-x,1/2+y,1/2+z
1/2+x,-y,1/2+z
loop_
_atom_site_type_symbol
_atom_site_label
_atom_site_fract_x
_atom_site_fract_y
_atom_site_fract_z
Si Si1 0.677732 0.179095 0.700195
Si Si2 0.830365 0.399558 0.463655
Si Si3 0.677844 0.672739 0.620247
Si Si4 0.170397 0.052442 0.560717
Si Si5 0.677420 0.047414 0.654878
Si Si6 0.680669 0.917595 0.801165
O O1 0.500000 0.167763 0.706100
O O2 0.710779 0.250000 0.674463
O O3 0.750000 0.181907 0.750000
O O4 0.745953 0.116308 0.673708
O O5 0.718131 0.359308 0.429872
O O6 0.780025 0.397989 0.518347
O O7 0.834461 0.476392 0.452954
O O8 0.000000 0.369352 0.457315
O O9 0.500000 0.661152 0.629097
O O10 0.720530 0.750000 0.619139
O O11 0.767620 0.639277 0.662932
O O12 0.298124 0.055640 0.600067
O O13 0.000000 0.072656 0.577912
O O14 0.500000 0.035253 0.665378
O O15 0.770648 0.988406 0.678530
O O16 0.500000 0.915627 0.796816
O O17 0.750000 0.904774 0.750000
#
# Coordination Sequence:
#
# PCOD8301550 Si02
#       6
#    16  16  16  16  16  16
#     4   9  19  35  53  75 106 145 186 226 273 332
#     4   9  18  35  58  84 113 148 188 230 278 334
#     4  11  24  41  61  87 119 153 194 243 295 353
#     4   9  18  33  56  85 115 146 184 231 279 330
#     4  11  21  34  56  87 118 151 189 235 290 342
#     4  12  25  41  61  85 116 152 195 246 295 349
#
# _framework density 18.936337000000002
#
# number of rings (size 3 to 8) (size 9 to 14) (size 15 to 20)
#    0.000    1.833    1.667    4.000    0.000    5.000 
#    0.000    2.500    0.000    3.000    0.000    0.000 
#    0.000    0.000    0.000    0.000    0.000    0.000 
#
# Total GULP energy -594815.429163 kJ/mol
# GULP energy per Si atom -12391.988108 kJ/mol
# Density = 1.889324 g / cm^3
# Si number density = 18.936337 Si / 1000 Ang^3
#
#
#
# Elastic Constant Matrix: (Units=GPa)
#
#
# Indices 1 2 3 4 5 6 
#
# 1 86.9558 46.6906 38.6012 0.0000 0.0000 0.0000
# 2 46.6906 117.4358 48.8907 0.0000 0.0000 0.0000
# 3 38.6012 48.8907 86.9566 0.0000 0.0000 0.0000
# 4 0.0000 0.0000 0.0000 14.3279 0.0000 0.0000
# 5 0.0000 0.0000 0.0000 0.0000 28.9408 0.0000
# 6 0.0000 0.0000 0.0000 0.0000 0.0000 31.7012
#
#
#
# Elastic Compliance Matrix: (Units=1/GPa)
#
#
# Indices 1 2 3 4 5 6 
#
# 1 0.015904 -0.004418 -0.004576 0.000000 0.000000 0.000000
# 2 -0.004418 0.012345 -0.004980 0.000000 0.000000 0.000000
# 3 -0.004576 -0.004980 0.016331 0.000000 0.000000 0.000000
# 4 0.000000 0.000000 0.000000 0.069794 0.000000 0.000000
# 5 0.000000 0.000000 0.000000 0.000000 0.034553 0.000000
# 6 0.000000 0.000000 0.000000 0.000000 0.000000 0.031545
#
#
# Mechanical properties :
#
#
# Convention : Reuss Voigt Hill
#
# Bulk Modulus (GPa) = 60.12283 62.19036 61.15659
# Shear Modulus (GPa) = 23.36858 25.47170 24.42014
#
# Velocity S-wave (km/s) = 3.51673 3.67157 3.59498
# Velocity P-wave (km/s) = 6.95045 7.13351 7.04258
#
# Compressibility (1/GPa) = 0.01663262
#
# Stress axis : x y z
#
# Youngs Moduli (GPa) = 62.87876 81.00488 61.23318
#
# Poissons Ratio (x) = 0.35788 0.28019
# Poissons Ratio (y) = 0.27780 0.30492
# Poissons Ratio (z) = 0.28772 0.40337
#
# Static dielectric constant tensor:
#      x y z
#    x 3.351190 0.000000 0.000000 
#    y 0.000000 3.908840 0.000000 
#    z 0.000000 0.000000 3.042370 
# 
# 
# High freq. dielectric constant tensor:
#      x y z
#    x 1.736940 0.000000 0.000000 
#    y 0.000000 1.730920 0.000000 
#    z 0.000000 0.000000 1.738810 
# 
# From -- ./inp_files/64258.got.cif
#   From: 2010.03.12/outbox.cif.g09.slc.cpg/sg74_33_cif.got.tgz:64258.got - 2010.04.16 15:46:19.
