data_PCOD8301761
_publ_section_title
;
Structure prediction by ZEFSAII (Michael W. Deem and Ramdas Pophale) SiO2 
 PCOD8301761
Probable space group: I M M A
;
_chemical_formula_sum "Si O2"
_cell_formula_units_Z 96
_cell_length_a 9.518952
_cell_length_b 24.223426
_cell_length_c 24.305024
_cell_angle_alpha 90.000000
_cell_angle_beta 90.000000
_cell_angle_gamma 90.000000
_cell_volume 5604.292036
_symmetry_space_group_name_H-M "I M M A"
_symmetry_group_IT_number 74
_symmetry_cell_setting 'orthorhombic'
loop_
_space_group_symop_operation_xyz
x,y,z
-x,1/2-y,z
x,-y,-z
-x,1/2+y,-z
-x,-y,-z
x,1/2+y,-z
-x,y,z
x,1/2-y,z
1/2+x,1/2+y,1/2+z
1/2-x,-y,1/2+z
1/2+x,1/2-y,1/2-z
1/2-x,y,1/2-z
1/2-x,1/2-y,1/2-z
1/2+x,y,1/2-z
1/2-x,1/2+y,1/2+z
1/2+x,-y,1/2+z
loop_
_atom_site_type_symbol
_atom_site_label
_atom_site_fract_x
_atom_site_fract_y
_atom_site_fract_z
Si Si1 0.661586 0.015570 0.097043
Si Si2 0.332989 0.893289 0.097916
Si Si3 0.839450 0.405410 0.302188
Si Si4 0.835397 0.313803 0.695269
Si Si5 0.332633 0.113199 0.024543
Si Si6 0.167406 0.689064 0.620058
O O1 0.500000 0.005022 0.082696
O O2 0.680563 0.045895 0.154596
O O3 0.724892 0.053868 0.047698
O O4 0.731777 0.955120 0.103561
O O5 0.500000 0.893366 0.102093
O O6 0.276861 0.851998 0.145291
O O7 0.283430 0.873296 0.037354
O O8 0.750000 0.421697 0.250000
O O9 0.784600 0.347882 0.328220
O O10 0.000000 0.399809 0.283843
O O11 0.808393 0.250000 0.679118
O O12 0.750000 0.329927 0.750000
O O13 0.000000 0.324338 0.706548
O O14 0.500000 0.110662 0.029034
O O15 0.275620 0.162241 0.063432
O O16 0.232463 0.750000 0.626468
O O17 0.000000 0.690907 0.618104
#
# Coordination Sequence:
#
# PCOD8301761 Si02
#       6
#    16  16  16  16  16  16
#     4   8  14  24  37  56  83 109 131 161 204 246
#     4   9  15  23  39  61  82 106 135 165 198 240
#     4   9  17  28  41  58  81 109 139 169 200 235
#     4   9  18  31  44  60  84 110 135 166 202 237
#     4   8  13  21  35  57  84 109 130 159 203 247
#     4   8  14  24  37  55  81 109 133 162 204 246
#
# _framework density 17.129728
#
# number of rings (size 3 to 8) (size 9 to 14) (size 15 to 20)
#    0.000    3.500    0.000    2.500    0.000    3.667 
#    0.000    3.333    0.000    0.000    0.000    4.667 
#    0.000    6.667    0.000    0.000    0.000    0.000 
#
# Total GULP energy -594699.078186 kJ/mol
# GULP energy per Si atom -12389.564129 kJ/mol
# Density = 1.709074 g / cm^3
# Si number density = 17.129728 Si / 1000 Ang^3
#
#
#
# Elastic Constant Matrix: (Units=GPa)
#
#
# Indices 1 2 3 4 5 6 
#
# 1 16.2374 7.8017 23.1324 0.0000 0.0000 0.0000
# 2 7.8017 62.8903 20.9171 0.0000 0.0000 0.0000
# 3 23.1324 20.9171 99.8552 0.0000 0.0000 0.0000
# 4 0.0000 0.0000 0.0000 18.5387 0.0000 0.0000
# 5 0.0000 0.0000 0.0000 0.0000 18.9229 0.0000
# 6 0.0000 0.0000 0.0000 0.0000 0.0000 7.7696
#
#
#
# Elastic Compliance Matrix: (Units=1/GPa)
#
#
# Indices 1 2 3 4 5 6 
#
# 1 0.093204 -0.004709 -0.020605 0.000000 0.000000 0.000000
# 2 -0.004709 0.017329 -0.002539 0.000000 0.000000 0.000000
# 3 -0.020605 -0.002539 0.015320 0.000000 0.000000 0.000000
# 4 0.000000 0.000000 0.000000 0.053941 0.000000 0.000000
# 5 0.000000 0.000000 0.000000 0.000000 0.052846 0.000000
# 6 0.000000 0.000000 0.000000 0.000000 0.000000 0.128707
#
#
# Mechanical properties :
#
#
# Convention : Reuss Voigt Hill
#
# Bulk Modulus (GPa) = 14.25592 31.40946 22.83269
# Shear Modulus (GPa) = 11.35239 17.52168 14.43703
#
# Velocity S-wave (km/s) = 2.57715 3.20172 2.90626
# Velocity P-wave (km/s) = 4.14680 5.66075 4.96186
#
# Compressibility (1/GPa) = 0.07014632
#
# Stress axis : x y z
#
# Youngs Moduli (GPa) = 10.72919 57.70543 65.27516
#
# Poissons Ratio (x) = 0.27173 1.34500
# Poissons Ratio (y) = 0.05052 0.16575
# Poissons Ratio (z) = 0.22108 0.14652
#
# Static dielectric constant tensor:
#      x y z
#    x 2.496780 0.000000 0.000000 
#    y 0.000000 3.601900 0.000000 
#    z 0.000000 0.000000 3.280410 
# 
# 
# High freq. dielectric constant tensor:
#      x y z
#    x 1.576260 0.000000 0.000000 
#    y 0.000000 1.671950 0.000000 
#    z 0.000000 0.000000 1.669060 
# 
# From -- ./inp_files/50900.got.cif
#   From: 2010.03.12/outbox.cif.g09.slc.cpg/sg74_26_cif.got.tgz:50900.got - 2010.04.16 15:46:19.
