data_PCOD8301331
_publ_section_title
;
Structure prediction by ZEFSAII (Michael W. Deem and Ramdas Pophale) SiO2 
 PCOD8301331
Probable space group: I M M A
;
_chemical_formula_sum "Si O2"
_cell_formula_units_Z 96
_cell_length_a 20.964311
_cell_length_b 13.457999
_cell_length_c 16.091393
_cell_angle_alpha 90.000000
_cell_angle_beta 90.000000
_cell_angle_gamma 90.000000
_cell_volume 4539.988232
_symmetry_space_group_name_H-M "I M M A"
_symmetry_group_IT_number 74
_symmetry_cell_setting 'orthorhombic'
loop_
_space_group_symop_operation_xyz
x,y,z
-x,1/2-y,z
x,-y,-z
-x,1/2+y,-z
-x,-y,-z
x,1/2+y,-z
-x,y,z
x,1/2-y,z
1/2+x,1/2+y,1/2+z
1/2-x,-y,1/2+z
1/2+x,1/2-y,1/2-z
1/2-x,y,1/2-z
1/2-x,1/2-y,1/2-z
1/2+x,y,1/2-z
1/2-x,1/2+y,1/2+z
1/2+x,-y,1/2+z
loop_
_atom_site_type_symbol
_atom_site_label
_atom_site_fract_x
_atom_site_fract_y
_atom_site_fract_z
Si Si1 0.368391 0.250000 0.906506
Si Si2 0.929288 0.109430 0.469855
Si Si3 0.250000 0.441761 0.250000
Si Si4 0.776692 0.250000 0.873687
Si Si5 0.698320 0.960552 0.413336
Si Si6 0.606311 0.750000 0.271234
Si Si7 0.070366 0.967667 0.165520
Si Si8 0.885305 0.362940 0.284710
O O1 0.298824 0.250000 0.866043
O O2 0.412806 0.250000 0.825336
O O3 0.382239 0.345007 0.962106
O O4 0.895704 0.121995 0.381966
O O5 0.000000 0.159295 0.467161
O O6 0.937961 0.000000 0.500000
O O7 0.260037 0.510285 0.332005
O O8 0.189506 0.372103 0.264722
O O9 0.799501 0.156520 0.926723
O O10 0.816505 0.250000 0.786740
O O11 0.624816 0.995231 0.401308
O O12 0.726491 0.000000 0.500000
O O13 0.577413 0.647328 0.306645
O O14 0.000000 0.979680 0.126157
O O15 0.075743 0.048864 0.239730
O O16 0.906453 0.250000 0.258773
#
# Coordination Sequence:
#
# PCOD8301331 Si02
#       8
#     8  16   8   8  16   8  16  16
#     4  12  24  34  61  91 121 165 210 266 324 384
#     4  11  25  40  56  87 128 170 218 262 320 392
#     4  10  25  41  68  94 130 171 222 265 328 404
#     4  10  25  38  64  94 127 165 211 269 333 388
#     4  10  24  43  65  97 133 166 213 274 325 390
#     4  10  22  42  63  93 130 160 216 277 334 391
#     4  10  22  41  67  94 121 170 217 265 328 387
#     4  11  23  41  62  90 131 174 215 271 324 393
#
# _framework density 21.145429
#
# number of rings (size 3 to 8) (size 9 to 14) (size 15 to 20)
#    0.000    1.500    0.833    2.500   11.667    4.000 
#    6.000    0.000    0.000    0.000    0.000    0.000 
#    0.000    0.000    0.000    0.000    0.000    0.000 
#
# Total GULP energy -594736.776810 kJ/mol
# GULP energy per Si atom -12390.349517 kJ/mol
# Density = 2.109730 g / cm^3
# Si number density = 21.145429 Si / 1000 Ang^3
#
#
#
# Elastic Constant Matrix: (Units=GPa)
#
#
# Indices 1 2 3 4 5 6 
#
# 1 101.7387 12.4481 15.6632 0.0000 0.0000 0.0000
# 2 12.4481 140.0803 38.7053 0.0000 0.0000 0.0000
# 3 15.6632 38.7053 119.7772 0.0000 0.0000 0.0000
# 4 0.0000 0.0000 0.0000 24.1748 0.0000 0.0000
# 5 0.0000 0.0000 0.0000 0.0000 18.2411 0.0000
# 6 0.0000 0.0000 0.0000 0.0000 0.0000 27.7334
#
#
#
# Elastic Compliance Matrix: (Units=1/GPa)
#
#
# Indices 1 2 3 4 5 6 
#
# 1 0.010074 -0.000583 -0.001129 0.000000 0.000000 0.000000
# 2 -0.000583 0.007872 -0.002468 0.000000 0.000000 0.000000
# 3 -0.001129 -0.002468 0.009294 0.000000 0.000000 0.000000
# 4 0.000000 0.000000 0.000000 0.041365 0.000000 0.000000
# 5 0.000000 0.000000 0.000000 0.000000 0.054821 0.000000
# 6 0.000000 0.000000 0.000000 0.000000 0.000000 0.036058
#
#
# Mechanical properties :
#
#
# Convention : Reuss Voigt Hill
#
# Bulk Modulus (GPa) = 52.96380 55.02548 53.99464
# Shear Modulus (GPa) = 28.71283 33.68184 31.19733
#
# Velocity S-wave (km/s) = 3.68893 3.99540 3.84522
# Velocity P-wave (km/s) = 6.57617 6.88209 6.73087
#
# Compressibility (1/GPa) = 0.01888082
#
# Stress axis : x y z
#
# Youngs Moduli (GPa) = 99.26277 127.02562 107.59785
#
# Poissons Ratio (x) = 0.07410 0.12147
# Poissons Ratio (y) = 0.05790 0.26551
# Poissons Ratio (z) = 0.11206 0.31345
#
# Static dielectric constant tensor:
#      x y z
#    x 3.973620 0.000000 0.000000 
#    y 0.000000 3.985270 0.000000 
#    z 0.000000 0.000000 3.606140 
# 
# 
# High freq. dielectric constant tensor:
#      x y z
#    x 1.835040 0.000000 0.000000 
#    y 0.000000 1.842950 0.000000 
#    z 0.000000 0.000000 1.811900 
# 
# From -- ./inp_files/35363.got.cif
#   From: 2010.03.12/outbox.cif.g09.slc.cpg/sg74_18_cif.got.tgz:35363.got - 2010.04.16 15:46:19.
