data_PCOD8301750
_publ_section_title
;
Structure prediction by ZEFSAII (Michael W. Deem and Ramdas Pophale) SiO2 
 PCOD8301750
Probable space group: I M M A
;
_chemical_formula_sum "Si O2"
_cell_formula_units_Z 80
_cell_length_a 9.951070
_cell_length_b 13.860834
_cell_length_c 44.549887
_cell_angle_alpha 90.000000
_cell_angle_beta 90.000000
_cell_angle_gamma 90.000000
_cell_volume 6144.771678
_symmetry_space_group_name_H-M "I M M A"
_symmetry_group_IT_number 74
_symmetry_cell_setting 'orthorhombic'
loop_
_space_group_symop_operation_xyz
x,y,z
-x,1/2-y,z
x,-y,-z
-x,1/2+y,-z
-x,-y,-z
x,1/2+y,-z
-x,y,z
x,1/2-y,z
1/2+x,1/2+y,1/2+z
1/2-x,-y,1/2+z
1/2+x,1/2-y,1/2-z
1/2-x,y,1/2-z
1/2-x,1/2-y,1/2-z
1/2+x,y,1/2-z
1/2-x,1/2+y,1/2+z
1/2+x,-y,1/2+z
loop_
_atom_site_type_symbol
_atom_site_label
_atom_site_fract_x
_atom_site_fract_y
_atom_site_fract_z
Si Si1 0.344563 0.636269 0.393424
Si Si2 0.840069 0.143718 0.014410
Si Si3 0.150464 0.635402 0.341548
Si Si4 0.650547 0.635221 0.225155
Si Si5 0.659468 0.044669 0.545446
O O1 0.500000 0.610658 0.387302
O O2 0.325897 0.750000 0.398260
O O3 0.258138 0.596046 0.365487
O O4 0.285614 0.582766 0.422825
O O5 0.782390 0.250000 0.022291
O O6 0.000000 0.146046 0.013380
O O7 0.793507 0.066037 0.039531
O O8 0.785985 0.111505 0.981657
O O9 0.152486 0.750000 0.341755
O O10 0.191121 0.598742 0.308203
O O11 0.000000 0.599080 0.349699
O O12 0.500000 0.600811 0.232911
O O13 0.658365 0.750000 0.225993
O O14 0.750000 0.589726 0.250000
O O15 0.500000 0.051743 0.545957
#
# Coordination Sequence:
#
# PCOD8301750 Si02
#       5
#    16  16  16  16  16
#     4   9  15  21  30  44  61  80 102 130 161 187
#     4   8  12  18  28  41  59  82 103 125 158 195
#     4   8  14  23  31  40  57  80 104 129 156 185
#     4   8  13  20  29  40  54  73  98 128 157 181
#     4   8  13  19  27  42  62  80 100 128 159 190
#
# _framework density 13.019197
#
# number of rings (size 3 to 8) (size 9 to 14) (size 15 to 20)
#    0.000    3.800    0.000    3.000    0.000    3.200 
#    0.000    4.000    0.000    0.000    0.000    2.800 
#    0.000    2.400    0.000    0.000    0.000    1.000 
#
# Total GULP energy -495536.958572 kJ/mol
# GULP energy per Si atom -12388.423964 kJ/mol
# Density = 1.298956 g / cm^3
# Si number density = 13.019197 Si / 1000 Ang^3
#
#
#
# Elastic Constant Matrix: (Units=GPa)
#
#
# Indices 1 2 3 4 5 6 
#
# 1 46.7072 15.0069 54.9705 0.0000 0.0000 0.0000
# 2 15.0069 50.9078 30.5493 0.0000 0.0000 0.0000
# 3 54.9705 30.5493 123.6497 0.0000 0.0000 0.0000
# 4 0.0000 0.0000 0.0000 10.5757 0.0000 0.0000
# 5 0.0000 0.0000 0.0000 0.0000 16.5751 0.0000
# 6 0.0000 0.0000 0.0000 0.0000 0.0000 3.0224
#
#
#
# Elastic Compliance Matrix: (Units=1/GPa)
#
#
# Indices 1 2 3 4 5 6 
#
# 1 0.045000 -0.001480 -0.019640 0.000000 0.000000 0.000000
# 2 -0.001480 0.023111 -0.005052 0.000000 0.000000 0.000000
# 3 -0.019640 -0.005052 0.018067 0.000000 0.000000 0.000000
# 4 0.000000 0.000000 0.000000 0.094557 0.000000 0.000000
# 5 0.000000 0.000000 0.000000 0.000000 0.060331 0.000000
# 6 0.000000 0.000000 0.000000 0.000000 0.000000 0.330861
#
#
# Mechanical properties :
#
#
# Convention : Reuss Voigt Hill
#
# Bulk Modulus (GPa) = 29.55548 46.92424 38.23986
# Shear Modulus (GPa) = 7.86722 14.08384 10.97553
#
# Velocity S-wave (km/s) = 2.46087 3.29260 2.90664
# Velocity P-wave (km/s) = 5.55205 7.11165 6.37969
#
# Compressibility (1/GPa) = 0.03383467
#
# Stress axis : x y z
#
# Youngs Moduli (GPa) = 22.22223 43.26893 55.35007
#
# Poissons Ratio (x) = 0.06402 1.08707
# Poissons Ratio (y) = 0.03288 0.27964
# Poissons Ratio (z) = 0.43644 0.21860
#
# Static dielectric constant tensor:
#      x y z
#    x 2.453200 0.000000 0.000000 
#    y 0.000000 2.412710 0.000000 
#    z 0.000000 0.000000 2.916830 
# 
# 
# High freq. dielectric constant tensor:
#      x y z
#    x 1.463440 0.000000 0.000000 
#    y 0.000000 1.440420 0.000000 
#    z 0.000000 0.000000 1.500030 
# 
# From -- ./inp_files/71691.got.cif
#   From: 2010.03.12/outbox.cif.g09.slc.cpg/sg74_36_cif.got.tgz:71691.got - 2010.04.16 15:46:19.
