data_PCOD8301059
_publ_section_title
;
Structure prediction by ZEFSAII (Michael W. Deem and Ramdas Pophale) SiO2 
 PCOD8301059
Probable space group: I M M A
;
_chemical_formula_sum "Si O2"
_cell_formula_units_Z 88
_cell_length_a 27.432119
_cell_length_b 8.755526
_cell_length_c 17.903950
_cell_angle_alpha 90.000000
_cell_angle_beta 90.000000
_cell_angle_gamma 90.000000
_cell_volume 4300.217819
_symmetry_space_group_name_H-M "I M M A"
_symmetry_group_IT_number 74
_symmetry_cell_setting 'orthorhombic'
loop_
_space_group_symop_operation_xyz
x,y,z
-x,1/2-y,z
x,-y,-z
-x,1/2+y,-z
-x,-y,-z
x,1/2+y,-z
-x,y,z
x,1/2-y,z
1/2+x,1/2+y,1/2+z
1/2-x,-y,1/2+z
1/2+x,1/2-y,1/2-z
1/2-x,y,1/2-z
1/2-x,1/2-y,1/2-z
1/2+x,y,1/2-z
1/2-x,1/2+y,1/2+z
1/2+x,-y,1/2+z
loop_
_atom_site_type_symbol
_atom_site_label
_atom_site_fract_x
_atom_site_fract_y
_atom_site_fract_z
Si Si1 0.443993 0.073623 0.182207
Si Si2 0.856883 0.572767 0.580019
Si Si3 0.500000 0.570799 0.580161
Si Si4 0.587319 0.429002 0.668854
Si Si5 0.733072 0.926933 0.828757
Si Si6 0.828045 0.572403 0.919184
O O1 0.500000 0.029197 0.165109
O O2 0.440091 0.250000 0.208142
O O3 0.411991 0.044074 0.108279
O O4 0.421152 0.965306 0.244710
O O5 0.849958 0.500000 0.500000
O O6 0.845403 0.750000 0.570623
O O7 0.817615 0.502939 0.639385
O O8 0.500000 0.750000 0.573027
O O9 0.500000 0.500000 0.500000
O O10 0.547634 0.519182 0.622492
O O11 0.582113 0.250000 0.654561
O O12 0.639798 0.487343 0.642838
O O13 0.724214 0.750000 0.811242
O O14 0.750000 0.004844 0.750000
O O15 0.772715 0.951861 0.893595
O O16 0.842461 0.750000 0.922437
O O17 0.836639 0.500000 0.000000
#
# Coordination Sequence:
#
# PCOD8301059 Si02
#       6
#    16  16   8  16  16  16
#     4  10  21  39  63  88 117 158 205 251 302 361
#     4  10  21  38  61  90 123 160 203 252 306 362
#     4  12  24  40  60  84 117 156 199 246 296 354
#     4  12  24  39  59  87 119 154 198 248 300 356
#     4   9  18  35  60  87 116 155 203 249 298 358
#     4  11  22  37  58  84 118 159 200 246 297 355
#
# _framework density 20.464081
#
# number of rings (size 3 to 8) (size 9 to 14) (size 15 to 20)
#    0.000    1.455    0.909    5.182    0.000    4.000 
#    0.000    0.909    0.000    3.818    0.000    0.000 
#    0.000    0.000    0.000    0.000    0.000    0.000 
#
# Total GULP energy -545673.005777 kJ/mol
# GULP energy per Si atom -12401.659222 kJ/mol
# Density = 2.041750 g / cm^3
# Si number density = 20.464081 Si / 1000 Ang^3
#
#
#
# Elastic Constant Matrix: (Units=GPa)
#
#
# Indices 1 2 3 4 5 6 
#
# 1 128.9604 33.5951 59.5869 0.0000 0.0000 0.0000
# 2 33.5951 97.9582 35.5353 0.0000 0.0000 0.0000
# 3 59.5869 35.5353 135.1532 0.0000 0.0000 0.0000
# 4 0.0000 0.0000 0.0000 34.7973 0.0000 0.0000
# 5 0.0000 0.0000 0.0000 0.0000 35.3495 0.0000
# 6 0.0000 0.0000 0.0000 0.0000 0.0000 22.8816
#
#
#
# Elastic Compliance Matrix: (Units=1/GPa)
#
#
# Indices 1 2 3 4 5 6 
#
# 1 0.010095 -0.002042 -0.003914 0.000000 0.000000 0.000000
# 2 -0.002042 0.011698 -0.002175 0.000000 0.000000 0.000000
# 3 -0.003914 -0.002175 0.009696 0.000000 0.000000 0.000000
# 4 0.000000 0.000000 0.000000 0.028738 0.000000 0.000000
# 5 0.000000 0.000000 0.000000 0.000000 0.028289 0.000000
# 6 0.000000 0.000000 0.000000 0.000000 0.000000 0.043703
#
#
# Mechanical properties :
#
#
# Convention : Reuss Voigt Hill
#
# Bulk Modulus (GPa) = 65.67434 68.83404 67.25419
# Shear Modulus (GPa) = 32.56121 34.16265 33.36193
#
# Velocity S-wave (km/s) = 3.99324 4.09026 4.04204
# Velocity P-wave (km/s) = 7.30913 7.48442 7.39729
#
# Compressibility (1/GPa) = 0.01522665
#
# Stress axis : x y z
#
# Youngs Moduli (GPa) = 99.06234 85.48501 103.13110
#
# Poissons Ratio (x) = 0.17459 0.40361
# Poissons Ratio (y) = 0.20231 0.22434
# Poissons Ratio (z) = 0.38769 0.18595
#
# Static dielectric constant tensor:
#      x y z
#    x 3.949610 0.000000 0.000000 
#    y 0.000000 3.497370 0.000000 
#    z 0.000000 0.000000 3.708810 
# 
# 
# High freq. dielectric constant tensor:
#      x y z
#    x 1.816950 0.000000 0.000000 
#    y 0.000000 1.777990 0.000000 
#    z 0.000000 0.000000 1.805060 
# 
# From -- ./inp_files/47008.got.cif
#   From: 2010.03.12/outbox.cif.g09.slc.cpg/sg74_24_cif.got.tgz:47008.got - 2010.04.16 15:46:19.
