data_PCOD8301412
_publ_section_title
;
Structure prediction by ZEFSAII (Michael W. Deem and Ramdas Pophale) SiO2 
 PCOD8301412
Probable space group: I M M A
;
_chemical_formula_sum "Si O2"
_cell_formula_units_Z 52
_cell_length_a 15.569008
_cell_length_b 11.198501
_cell_length_c 14.832905
_cell_angle_alpha 90.000000
_cell_angle_beta 90.000000
_cell_angle_gamma 90.000000
_cell_volume 2586.110337
_symmetry_space_group_name_H-M "I M M A"
_symmetry_group_IT_number 74
_symmetry_cell_setting 'orthorhombic'
loop_
_space_group_symop_operation_xyz
x,y,z
-x,1/2-y,z
x,-y,-z
-x,1/2+y,-z
-x,-y,-z
x,1/2+y,-z
-x,y,z
x,1/2-y,z
1/2+x,1/2+y,1/2+z
1/2-x,-y,1/2+z
1/2+x,1/2-y,1/2-z
1/2-x,y,1/2-z
1/2-x,1/2-y,1/2-z
1/2+x,y,1/2-z
1/2-x,1/2+y,1/2+z
1/2+x,-y,1/2+z
loop_
_atom_site_type_symbol
_atom_site_label
_atom_site_fract_x
_atom_site_fract_y
_atom_site_fract_z
Si Si1 0.832380 0.250000 0.453541
Si Si2 0.762574 0.000000 0.000000
Si Si3 0.103477 0.250000 0.250932
Si Si4 0.000000 0.250000 0.569194
Si Si5 0.667122 0.007000 0.309890
Si Si6 0.500000 0.121089 0.758154
O O1 0.787735 0.123294 0.477600
O O2 0.853598 0.250000 0.348481
O O3 0.918856 0.250000 0.507376
O O4 0.819728 0.031961 0.913131
O O5 0.142063 0.355712 0.192283
O O6 0.000000 0.250000 0.256868
O O7 0.000000 0.132118 0.632766
O O8 0.750000 0.974790 0.250000
O O9 0.586348 0.941737 0.268879
O O10 0.500000 0.250000 0.710630
#
# Coordination Sequence:
#
# PCOD8301412 Si02
#       6
#     8   8   8   4  16   8
#     4  12  25  43  71 107 139 178 242 296 361 424
#     4  12  28  42  72 104 136 196 238 283 352 427
#     4  12  24  46  73 105 139 184 232 308 355 415
#     4  10  24  40  68 104 142 172 230 306 368 414
#     4  12  24  47  70  99 147 183 239 287 351 425
#     4  10  26  43  64 104 140 187 226 289 361 408
#
# _framework density 20.107417000000002
#
# number of rings (size 3 to 8) (size 9 to 14) (size 15 to 20)
#    0.462    0.000    5.385    3.231    2.154    1.846 
#    0.000    0.000    0.000    0.000    0.000    0.000 
#    0.000    0.000    0.000    0.000    0.000    0.000 
#
# Total GULP energy -322192.805630 kJ/mol
# GULP energy per Si atom -12392.030986 kJ/mol
# Density = 2.006165 g / cm^3
# Si number density = 20.107417 Si / 1000 Ang^3
#
#
#
# Elastic Constant Matrix: (Units=GPa)
#
#
# Indices 1 2 3 4 5 6 
#
# 1 110.7692 47.1834 13.1215 0.0000 0.0000 0.0000
# 2 47.1834 74.1404 20.8312 0.0000 0.0000 0.0000
# 3 13.1215 20.8312 103.2157 0.0000 0.0000 0.0000
# 4 0.0000 0.0000 0.0000 36.0379 0.0000 0.0000
# 5 0.0000 0.0000 0.0000 0.0000 80.2305 0.0000
# 6 0.0000 0.0000 0.0000 0.0000 0.0000 48.6342
#
#
#
# Elastic Compliance Matrix: (Units=1/GPa)
#
#
# Indices 1 2 3 4 5 6 
#
# 1 0.012385 -0.007887 0.000017 0.000000 0.000000 0.000000
# 2 -0.007887 0.019321 -0.002897 0.000000 0.000000 0.000000
# 3 0.000017 -0.002897 0.010271 0.000000 0.000000 0.000000
# 4 0.000000 0.000000 0.000000 0.027749 0.000000 0.000000
# 5 0.000000 0.000000 0.000000 0.000000 0.012464 0.000000
# 6 0.000000 0.000000 0.000000 0.000000 0.000000 0.020562
#
#
# Mechanical properties :
#
#
# Convention : Reuss Voigt Hill
#
# Bulk Modulus (GPa) = 48.91321 50.04418 49.47870
# Shear Modulus (GPa) = 38.13906 46.77982 42.45944
#
# Velocity S-wave (km/s) = 4.35991 4.82861 4.60023
# Velocity P-wave (km/s) = 7.05152 7.48530 7.27164
#
# Compressibility (1/GPa) = 0.02044437
#
# Stress axis : x y z
#
# Youngs Moduli (GPa) = 80.74118 51.75684 97.36257
#
# Poissons Ratio (x) = 0.40820 -0.00168
# Poissons Ratio (y) = 0.63680 0.28204
# Poissons Ratio (z) = -0.00139 0.14993
#
# Static dielectric constant tensor:
#      x y z
#    x 5.016150 0.000000 0.000000 
#    y 0.000000 3.603520 0.000000 
#    z 0.000000 0.000000 3.819080 
# 
# 
# High freq. dielectric constant tensor:
#      x y z
#    x 1.799220 0.000000 0.000000 
#    y 0.000000 1.800540 0.000000 
#    z 0.000000 0.000000 1.794010 
# 
# From -- ./inp_files/29978.got.cif
#   From: 2010.03.12/outbox.cif.g09.slc.cpg/sg74_15_cif.got.tgz:29978.got - 2010.04.16 15:46:19.
