data_PCOD8301437
_publ_section_title
;
Structure prediction by ZEFSAII (Michael W. Deem and Ramdas Pophale) SiO2 
 PCOD8301437
Probable space group: I M M A
;
_chemical_formula_sum "Si O2"
_cell_formula_units_Z 68
_cell_length_a 20.349541
_cell_length_b 13.970231
_cell_length_c 10.804677
_cell_angle_alpha 90.000000
_cell_angle_beta 90.000000
_cell_angle_gamma 90.000000
_cell_volume 3071.637730
_symmetry_space_group_name_H-M "I M M A"
_symmetry_group_IT_number 74
_symmetry_cell_setting 'orthorhombic'
loop_
_space_group_symop_operation_xyz
x,y,z
-x,1/2-y,z
x,-y,-z
-x,1/2+y,-z
-x,-y,-z
x,1/2+y,-z
-x,y,z
x,1/2-y,z
1/2+x,1/2+y,1/2+z
1/2-x,-y,1/2+z
1/2+x,1/2-y,1/2-z
1/2-x,y,1/2-z
1/2-x,1/2-y,1/2-z
1/2+x,y,1/2-z
1/2-x,1/2+y,1/2+z
1/2+x,-y,1/2+z
loop_
_atom_site_type_symbol
_atom_site_label
_atom_site_fract_x
_atom_site_fract_y
_atom_site_fract_z
Si Si1 0.311879 0.357612 0.038413
Si Si2 0.671999 0.899514 0.439377
Si Si3 0.572282 0.250000 0.465686
Si Si4 0.500000 0.250000 0.225351
Si Si5 0.000000 0.459710 0.362294
Si Si6 0.361038 0.472110 0.819343
O O1 0.333489 0.250000 0.078154
O O2 0.239337 0.350279 0.981255
O O3 0.361622 0.400256 0.936369
O O4 0.317001 0.431867 0.153748
O O5 0.609965 0.842416 0.487816
O O6 0.670873 0.912370 0.291829
O O7 0.665231 0.000000 0.500000
O O8 0.500000 0.250000 0.528138
O O9 0.564490 0.250000 0.315680
O O10 0.500000 0.156255 0.138367
O O11 0.000000 0.500000 0.500000
O O12 0.935806 0.497546 0.289804
#
# Coordination Sequence:
#
# PCOD8301437 Si02
#       6
#    16  16   8   4   8  16
#     4  11  24  45  69 104 144 189 240 294 364 442
#     4  12  24  45  72 103 147 188 238 304 360 432
#     4  10  26  48  69 109 136 197 246 291 372 420
#     4  10  26  48  74 104 150 186 250 300 348 456
#     4  12  24  47  72 105 143 194 237 304 363 431
#     4  11  26  44  70 107 143 192 240 301 370 427
#
# _framework density 22.138027999999998
#
# number of rings (size 3 to 8) (size 9 to 14) (size 15 to 20)
#    0.353    0.471    5.882    2.118    4.941    1.412 
#    2.118    1.176    0.000    0.000    0.000    0.000 
#    0.000    0.000    0.000    0.000    0.000    0.000 
#
# Total GULP energy -421541.243521 kJ/mol
# GULP energy per Si atom -12398.271868 kJ/mol
# Density = 2.208764 g / cm^3
# Si number density = 22.138028 Si / 1000 Ang^3
#
#
#
# Elastic Constant Matrix: (Units=GPa)
#
#
# Indices 1 2 3 4 5 6 
#
# 1 132.2647 21.6795 10.8604 0.0000 0.0000 0.0000
# 2 21.6795 144.9572 31.2457 0.0000 0.0000 0.0000
# 3 10.8604 31.2457 84.4762 0.0000 0.0000 0.0000
# 4 0.0000 0.0000 0.0000 33.6769 0.0000 0.0000
# 5 0.0000 0.0000 0.0000 0.0000 18.7436 0.0000
# 6 0.0000 0.0000 0.0000 0.0000 0.0000 44.0015
#
#
#
# Elastic Compliance Matrix: (Units=1/GPa)
#
#
# Indices 1 2 3 4 5 6 
#
# 1 0.007780 -0.001030 -0.000619 0.000000 0.000000 0.000000
# 2 -0.001030 0.007633 -0.002691 0.000000 0.000000 0.000000
# 3 -0.000619 -0.002691 0.012912 0.000000 0.000000 0.000000
# 4 0.000000 0.000000 0.000000 0.029694 0.000000 0.000000
# 5 0.000000 0.000000 0.000000 0.000000 0.053352 0.000000
# 6 0.000000 0.000000 0.000000 0.000000 0.000000 0.022727
#
#
# Mechanical properties :
#
#
# Convention : Reuss Voigt Hill
#
# Bulk Modulus (GPa) = 50.90275 54.36327 52.63301
# Shear Modulus (GPa) = 33.48381 39.14523 36.31452
#
# Velocity S-wave (km/s) = 3.89331 4.20960 4.05454
# Velocity P-wave (km/s) = 6.57676 6.94532 6.76355
#
# Compressibility (1/GPa) = 0.01964531
#
# Stress axis : x y z
#
# Youngs Moduli (GPa) = 128.52991 131.01633 77.44446
#
# Poissons Ratio (x) = 0.13496 0.04796
# Poissons Ratio (y) = 0.13240 0.20838
# Poissons Ratio (z) = 0.07959 0.35252
#
# Static dielectric constant tensor:
#      x y z
#    x 4.340920 0.000000 0.000000 
#    y 0.000000 3.897010 0.000000 
#    z 0.000000 0.000000 11.488400 
# 
# 
# High freq. dielectric constant tensor:
#      x y z
#    x 1.880290 0.000000 0.000000 
#    y 0.000000 1.880180 0.000000 
#    z 0.000000 0.000000 1.854850 
# 
# From -- ./inp_files/23428.got.cif
#   From: 2010.03.12/outbox.cif.g09.slc.cpg/sg74_12_cif.got.tgz:23428.got - 2010.04.16 15:46:19.
