data_PCOD8301014
_publ_section_title
;
Structure prediction by ZEFSAII (Michael W. Deem and Ramdas Pophale) SiO2 
 PCOD8301014
Probable space group: I M M A
;
_chemical_formula_sum "Si O2"
_cell_formula_units_Z 72
_cell_length_a 26.760118
_cell_length_b 16.470918
_cell_length_c 8.121566
_cell_angle_alpha 90.000000
_cell_angle_beta 90.000000
_cell_angle_gamma 90.000000
_cell_volume 3579.691555
_symmetry_space_group_name_H-M "I M M A"
_symmetry_group_IT_number 74
_symmetry_cell_setting 'orthorhombic'
loop_
_space_group_symop_operation_xyz
x,y,z
-x,1/2-y,z
x,-y,-z
-x,1/2+y,-z
-x,-y,-z
x,1/2+y,-z
-x,y,z
x,1/2-y,z
1/2+x,1/2+y,1/2+z
1/2-x,-y,1/2+z
1/2+x,1/2-y,1/2-z
1/2-x,y,1/2-z
1/2-x,1/2-y,1/2-z
1/2+x,y,1/2-z
1/2-x,1/2+y,1/2+z
1/2+x,-y,1/2+z
loop_
_atom_site_type_symbol
_atom_site_label
_atom_site_fract_x
_atom_site_fract_y
_atom_site_fract_z
Si Si1 0.324905 0.340086 0.436276
Si Si2 0.731915 0.087858 0.932624
Si Si3 0.112254 0.500000 0.000000
Si Si4 0.056861 0.952474 0.670843
Si Si5 0.858920 0.839573 0.578627
O O1 0.344604 0.250000 0.496090
O O2 0.266307 0.346557 0.475717
O O3 0.355565 0.416585 0.513457
O O4 0.325546 0.343216 0.240665
O O5 0.750000 0.089362 0.750000
O O6 0.672665 0.108660 0.945098
O O7 0.743143 0.000000 0.000000
O O8 0.079488 0.501722 0.831459
O O9 0.086612 0.871005 0.628932
O O10 0.000000 0.930271 0.714199
O O11 0.060523 0.000000 0.500000
O O12 0.866278 0.750000 0.506413
#
# Coordination Sequence:
#
# PCOD8301014 Si02
#       5
#    16  16   8  16  16
#     4  10  21  38  59  88 123 163 206 250 312 381
#     4  12  24  36  57  87 122 164 206 250 307 377
#     4  10  21  40  64  92 124 166 203 260 316 380
#     4  10  22  40  64  90 118 160 210 258 315 377
#     4  10  22  39  60  85 119 159 201 257 314 374
#
# _framework density 20.113464
#
# number of rings (size 3 to 8) (size 9 to 14) (size 15 to 20)
#    0.000    1.556    1.111    3.667    6.222    4.000 
#    0.000    0.000    0.000    3.333    0.000    0.000 
#    0.000    0.000    0.000    0.000    0.000    0.000 
#
# Total GULP energy -446043.746234 kJ/mol
# GULP energy per Si atom -12390.104062 kJ/mol
# Density = 2.006769 g / cm^3
# Si number density = 20.113464 Si / 1000 Ang^3
#
#
#
# Elastic Constant Matrix: (Units=GPa)
#
#
# Indices 1 2 3 4 5 6 
#
# 1 120.2857 55.7891 39.4433 0.0000 0.0000 0.0000
# 2 55.7891 141.3223 42.8029 0.0000 0.0000 0.0000
# 3 39.4433 42.8029 72.7516 0.0000 0.0000 0.0000
# 4 0.0000 0.0000 0.0000 16.3618 0.0000 0.0000
# 5 0.0000 0.0000 0.0000 0.0000 37.3185 0.0000
# 6 0.0000 0.0000 0.0000 0.0000 0.0000 16.2090
#
#
#
# Elastic Compliance Matrix: (Units=1/GPa)
#
#
# Indices 1 2 3 4 5 6 
#
# 1 0.011141 -0.003126 -0.004201 0.000000 0.000000 0.000000
# 2 -0.003126 0.009487 -0.003887 0.000000 0.000000 0.000000
# 3 -0.004201 -0.003887 0.018310 0.000000 0.000000 0.000000
# 4 0.000000 0.000000 0.000000 0.061118 0.000000 0.000000
# 5 0.000000 0.000000 0.000000 0.000000 0.026796 0.000000
# 6 0.000000 0.000000 0.000000 0.000000 0.000000 0.061694
#
#
# Mechanical properties :
#
#
# Convention : Reuss Voigt Hill
#
# Bulk Modulus (GPa) = 60.56849 67.82559 64.19704
# Shear Modulus (GPa) = 23.09702 27.06615 25.08158
#
# Velocity S-wave (km/s) = 3.39239 3.67232 3.53513
# Velocity P-wave (km/s) = 6.74709 7.19555 6.97492
#
# Compressibility (1/GPa) = 0.01651024
#
# Stress axis : x y z
#
# Youngs Moduli (GPa) = 89.75985 105.40507 54.61444
#
# Poissons Ratio (x) = 0.32945 0.22945
# Poissons Ratio (y) = 0.28055 0.21230
# Poissons Ratio (z) = 0.37711 0.40973
#
# Static dielectric constant tensor:
#      x y z
#    x 3.820210 0.000000 0.000000 
#    y 0.000000 3.905300 0.000000 
#    z 0.000000 0.000000 3.790150 
# 
# 
# High freq. dielectric constant tensor:
#      x y z
#    x 1.778650 0.000000 0.000000 
#    y 0.000000 1.786020 0.000000 
#    z 0.000000 0.000000 1.791050 
# 
# From -- ./inp_files/13478.got.cif
#   From: 2010.03.12/outbox.cif.g09.slc.cpg/sg74_7_cif.got.tgz:13478.got - 2010.04.16 15:46:19.
