data_PCOD8301840
_publ_section_title
;
Structure prediction by ZEFSAII (Michael W. Deem and Ramdas Pophale) SiO2 
 PCOD8301840
Probable space group: P 4
;
_chemical_formula_sum "Si O2"
_cell_formula_units_Z 28
_cell_length_a 8.485281
_cell_length_b 8.485281
_cell_length_c 17.833578
_cell_angle_alpha 90.000000
_cell_angle_beta 90.000000
_cell_angle_gamma 90.000000
_cell_volume 1284.017503
_symmetry_space_group_name_H-M "P 4"
_symmetry_group_IT_number 75
_symmetry_cell_setting 'tetragonal'
loop_
_space_group_symop_operation_xyz
x,y,z
-y,x,z
-x,-y,z
y,-x,z
loop_
_atom_site_type_symbol
_atom_site_label
_atom_site_fract_x
_atom_site_fract_y
_atom_site_fract_z
Si Si1 0.223041 0.869999 0.073840
Si Si2 0.887967 0.765408 0.520137
Si Si3 0.223036 0.869991 0.244264
Si Si4 0.380772 0.729384 0.936408
Si Si5 0.111992 0.234612 0.797971
Si Si6 0.729366 0.619261 0.381696
Si Si7 0.263280 0.391343 0.659057
O O1 0.277407 0.839434 0.159052
O O2 0.055549 0.788919 0.058068
O O3 0.353343 0.794662 0.019981
O O4 0.855555 0.685026 0.440402
O O5 0.836424 0.648130 0.585555
O O6 0.072914 0.792798 0.527459
O O7 0.353331 0.794635 0.298120
O O8 0.055542 0.788913 0.260035
O O9 0.290688 0.565693 0.923941
O O10 0.315057 0.855574 0.877690
O O11 0.163465 0.351834 0.732518
O O12 0.927050 0.207189 0.790672
O O13 0.565664 0.709326 0.394165
O O14 0.423804 0.293656 0.659077
#
# Coordination Sequence:
#
# PCOD8301840 Si02
#       7
#     4   4   4   4   4   4   4
#     4   9  19  37  60  85 113 147 190 238 286 340
#     4  11  24  41  62  88 116 149 193 239 282 335
#     4   9  19  37  60  85 113 147 190 238 286 340
#     4  11  24  39  56  83 118 153 191 236 286 340
#     4  11  24  41  62  88 116 149 193 239 282 335
#     4  11  24  39  56  83 118 153 191 236 286 340
#     4  11  24  41  62  90 122 153 188 231 280 336
#
# _framework density 21.806554999999999
#
# number of rings (size 3 to 8) (size 9 to 14) (size 15 to 20)
#    0.000    1.571    0.000    5.143    0.000   16.000 
#    0.000    4.286    0.000    0.000    0.000    0.000 
#    0.000    0.000    0.000    0.000    0.000    0.000 
#
# Total GULP energy -347397.573261 kJ/mol
# GULP energy per Si atom -12407.056188 kJ/mol
# Density = 2.175692 g / cm^3
# Si number density = 21.806555 Si / 1000 Ang^3
#
#
#
# Elastic Constant Matrix: (Units=GPa)
#
#
# Indices 1 2 3 4 5 6 
#
# 1 12.5026 -4.9070 9.4923 0.0000 0.0000 0.5369
# 2 -4.9070 12.5026 9.4923 0.0000 0.0000 -0.5369
# 3 9.4923 9.4923 116.2945 0.0000 0.0000 0.0000
# 4 0.0000 0.0000 0.0000 15.2049 0.0000 0.0000
# 5 0.0000 0.0000 0.0000 0.0000 15.2049 0.0000
# 6 0.5369 -0.5369 0.0000 0.0000 0.0000 35.2525
#
#
#
# Elastic Compliance Matrix: (Units=1/GPa)
#
#
# Indices 1 2 3 4 5 6 
#
# 1 0.111445 0.053952 -0.013500 0.000000 0.000000 -0.000876
# 2 0.053952 0.111445 -0.013500 0.000000 0.000000 0.000876
# 3 -0.013500 -0.013500 0.010803 0.000000 0.000000 0.000000
# 4 0.000000 0.000000 0.000000 0.065768 0.000000 0.000000
# 5 0.000000 0.000000 0.000000 0.000000 0.065768 0.000000
# 6 -0.000876 0.000876 0.000000 0.000000 0.000000 0.028393
#
#
# Mechanical properties :
#
#
# Convention : Reuss Voigt Hill
#
# Bulk Modulus (GPa) = 3.47710 18.82833 11.15272
# Shear Modulus (GPa) = 11.47880 21.61395 16.54638
#
# Velocity S-wave (km/s) = 2.29681 3.15170 2.75758
# Velocity P-wave (km/s) = 2.93799 4.67945 3.90698
#
# Compressibility (1/GPa) = 0.28759592
#
# Stress axis : x y z
#
# Youngs Moduli (GPa) = 8.97301 8.97301 92.56942
#
# Poissons Ratio (x) = -0.48411 1.24970
# Poissons Ratio (y) = -0.48411 1.24970
# Poissons Ratio (z) = 0.12114 0.12114
#
# Static dielectric constant tensor:
#      x y z
#    x 3.884900 0.000000 0.000000 
#    y 0.000000 3.884900 0.000000 
#    z 0.000000 0.000000 3.936830 
# 
# 
# High freq. dielectric constant tensor:
#      x y z
#    x 1.859460 0.000000 0.000000 
#    y 0.000000 1.859460 0.000000 
#    z 0.000000 0.000000 1.868230 
# 
# From -- ./inp_files/739.got.cif
#   From: 2010.03.12/outbox.cif.g09.slc.cpg/sg75_cif.got.tgz:739.got - 2010.04.16 16:33:55.
