data_PCOD8301250
_publ_section_title
;
Structure prediction by ZEFSAII (Michael W. Deem and Ramdas Pophale) SiO2 
 PCOD8301250
Probable space group: I M M A
;
_chemical_formula_sum "Si O2"
_cell_formula_units_Z 112
_cell_length_a 13.901072
_cell_length_b 26.792577
_cell_length_c 16.918281
_cell_angle_alpha 90.000000
_cell_angle_beta 90.000000
_cell_angle_gamma 90.000000
_cell_volume 6301.138336
_symmetry_space_group_name_H-M "I M M A"
_symmetry_group_IT_number 74
_symmetry_cell_setting 'orthorhombic'
loop_
_space_group_symop_operation_xyz
x,y,z
-x,1/2-y,z
x,-y,-z
-x,1/2+y,-z
-x,-y,-z
x,1/2+y,-z
-x,y,z
x,1/2-y,z
1/2+x,1/2+y,1/2+z
1/2-x,-y,1/2+z
1/2+x,1/2-y,1/2-z
1/2-x,y,1/2-z
1/2-x,1/2-y,1/2-z
1/2+x,y,1/2-z
1/2-x,1/2+y,1/2+z
1/2+x,-y,1/2+z
loop_
_atom_site_type_symbol
_atom_site_label
_atom_site_fract_x
_atom_site_fract_y
_atom_site_fract_z
Si Si1 0.772890 0.849829 0.367242
Si Si2 0.703933 0.807866 0.527141
Si Si3 0.610351 0.442418 0.906500
Si Si4 0.389310 0.307490 0.735121
Si Si5 0.500000 0.309384 0.417212
Si Si6 0.109477 0.444814 0.407623
Si Si7 0.000000 0.808871 0.739117
Si Si8 0.690165 0.851888 0.828583
O O1 0.760908 0.836306 0.458637
O O2 0.815219 0.905906 0.361750
O O3 0.670440 0.844161 0.322777
O O4 0.849922 0.813423 0.324507
O O5 0.703569 0.750000 0.505506
O O6 0.594187 0.827908 0.535245
O O7 0.756441 0.816148 0.609873
O O8 0.500000 0.430333 0.881753
O O9 0.637837 0.498897 0.883222
O O10 0.621388 0.435842 0.999777
O O11 0.500000 0.323594 0.730739
O O12 0.375997 0.250000 0.708518
O O13 0.500000 0.250000 0.411095
O O14 0.500000 0.331658 0.328043
O O15 0.179795 0.407589 0.362247
O O16 0.000000 0.434307 0.382125
O O17 0.910427 0.826703 0.688809
O O18 0.000000 0.750000 0.744931
O O19 0.750000 0.855912 0.750000
#
# Coordination Sequence:
#
# PCOD8301250 Si02
#       8
#    16  16  16  16   8  16   8  16
#     4  11  20  36  59  83 107 140 184 231 278 332
#     4  11  22  35  55  83 110 145 189 229 269 327
#     4   9  18  34  60  84 106 137 181 237 285 329
#     4  10  22  39  57  80 115 150 178 219 281 347
#     4   9  20  36  52  74 108 150 192 224 256 318
#     4   9  18  36  56  79 107 141 185 232 283 331
#     4  11  22  36  52  75 117 163 191 226 275 319
#     4  12  22  35  55  81 115 152 191 230 274 321
#
# _framework density 17.774567000000001
#
# number of rings (size 3 to 8) (size 9 to 14) (size 15 to 20)
#    0.000    1.714    3.571    3.429    1.000    0.571 
#    3.857    0.000    0.000    0.000    1.857    2.000 
#    0.000    0.000    0.000    0.000    0.000    0.000 
#
# Total GULP energy -694367.056183 kJ/mol
# GULP energy per Si atom -12399.411718 kJ/mol
# Density = 1.773411 g / cm^3
# Si number density = 17.774567 Si / 1000 Ang^3
#
#
#
# Elastic Constant Matrix: (Units=GPa)
#
#
# Indices 1 2 3 4 5 6 
#
# 1 119.6001 42.8014 30.4834 0.0000 0.0000 0.0000
# 2 42.8014 75.0209 19.8509 0.0002 0.0000 0.0001
# 3 30.4834 19.8509 66.8338 0.0003 0.0000 0.0001
# 4 0.0000 0.0002 0.0003 26.3662 0.0000 0.0001
# 5 0.0000 0.0000 0.0000 0.0000 27.2251 0.0000
# 6 0.0000 0.0001 0.0001 0.0001 0.0000 29.6744
#
#
#
# Elastic Compliance Matrix: (Units=1/GPa)
#
#
# Indices 1 2 3 4 5 6 
#
# 1 0.011208 -0.005472 -0.003487 0.000000 0.000000 0.000000
# 2 -0.005472 0.017138 -0.002595 0.000000 0.000000 0.000000
# 3 -0.003487 -0.002595 0.017324 0.000000 0.000000 0.000000
# 4 0.000000 0.000000 0.000000 0.037927 0.000000 0.000000
# 5 0.000000 0.000000 0.000000 0.000000 0.036731 0.000000
# 6 0.000000 0.000000 0.000000 0.000000 0.000000 0.033699
#
#
# Mechanical properties :
#
#
# Convention : Reuss Voigt Hill
#
# Bulk Modulus (GPa) = 44.32024 49.74736 47.03380
# Shear Modulus (GPa) = 27.07759 27.87441 27.47600
#
# Velocity S-wave (km/s) = 3.90730 3.96437 3.93594
# Velocity P-wave (km/s) = 6.73385 7.00026 6.86835
#
# Compressibility (1/GPa) = 0.02256305
#
# Stress axis : x y z
#
# Youngs Moduli (GPa) = 89.22065 58.34980 57.72505
#
# Poissons Ratio (x) = 0.31929 0.20128
# Poissons Ratio (y) = 0.48821 0.14977
# Poissons Ratio (z) = 0.31110 0.15139
#
# Static dielectric constant tensor:
#      x y z
#    x 3.316200 0.000000 0.000000 
#    y 0.000000 3.208680 0.000000 
#    z 0.000000 0.000000 3.364640 
# 
# 
# High freq. dielectric constant tensor:
#      x y z
#    x 1.691670 0.000000 0.000000 
#    y 0.000000 1.673100 0.000000 
#    z 0.000000 0.000000 1.685630 
# 
# From -- ./inp_files/33015.got.cif
#   From: 2010.03.12/outbox.cif.g09.slc.cpg/sg74_17_cif.got.tgz:33015.got - 2010.04.16 15:46:19.
