data_PCOD8301963
_publ_section_title
;
Structure prediction by ZEFSAII (Michael W. Deem and Ramdas Pophale) SiO2 
 PCOD8301963
Probable space group: P 41
;
_chemical_formula_sum "Si O2"
_cell_formula_units_Z 28
_cell_length_a 8.616934
_cell_length_b 8.616934
_cell_length_c 16.061534
_cell_angle_alpha 90.000000
_cell_angle_beta 90.000000
_cell_angle_gamma 90.000000
_cell_volume 1192.593820
_symmetry_space_group_name_H-M "P 41"
_symmetry_group_IT_number 76
_symmetry_cell_setting 'tetragonal'
loop_
_space_group_symop_operation_xyz
x,y,z
-y,x,1/4+z
-x,-y,1/2+z
y,-x,3/4+z
loop_
_atom_site_type_symbol
_atom_site_label
_atom_site_fract_x
_atom_site_fract_y
_atom_site_fract_z
Si Si1 0.746256 0.334502 0.366060
Si Si2 0.816280 0.002050 0.358923
Si Si3 0.169403 0.078383 0.681357
Si Si4 0.318508 0.585996 0.051891
Si Si5 0.336551 0.675872 0.340050
Si Si6 0.866549 0.277050 0.690976
Si Si7 0.890987 0.466436 0.206750
O O1 0.858164 0.183372 0.376566
O O2 0.581557 0.269428 0.335262
O O3 0.720108 0.416719 0.454388
O O4 0.811366 0.456903 0.298134
O O5 0.757225 0.993964 0.264427
O O6 0.701022 0.946299 0.429894
O O7 0.951800 0.873340 0.362426
O O8 0.306966 0.190826 0.652159
O O9 0.998178 0.148979 0.695370
O O10 0.499920 0.613925 0.072803
O O11 0.210232 0.711305 0.099017
O O12 0.277829 0.754310 0.253892
O O13 0.473261 0.772420 0.384997
O O14 0.952148 0.436239 0.716514
#
# Coordination Sequence:
#
# PCOD8301963 Si02
#       7
#     4   4   4   4   4   4   4
#     4  12  27  45  76 105 144 191 241 304 360 436
#     4  12  24  46  68 106 147 189 242 294 365 430
#     4  11  26  44  73 105 150 189 240 301 358 439
#     4  12  25  47  74 105 147 187 242 297 366 433
#     4  11  25  46  74 104 142 189 238 305 351 436
#     4  11  25  48  68 109 143 189 245 290 374 429
#     4  11  26  46  73 106 143 190 242 297 366 433
#
# _framework density 23.478235000000002
#
# number of rings (size 3 to 8) (size 9 to 14) (size 15 to 20)
#    0.000    0.571    5.714    0.857    4.000    5.714 
#    0.000    0.000    0.000    0.000    0.000    0.000 
#    0.000    0.000    0.000    0.000    0.000    0.000 
#
# Total GULP energy -347002.399618 kJ/mol
# GULP energy per Si atom -12392.942844 kJ/mol
# Density = 2.342480 g / cm^3
# Si number density = 23.478235 Si / 1000 Ang^3
#
#
#
# Elastic Constant Matrix: (Units=GPa)
#
#
# Indices 1 2 3 4 5 6 
#
# 1 42.3305 -5.6148 19.2782 0.0000 0.0000 1.0011
# 2 -5.6148 42.3305 19.2782 0.0000 0.0000 -1.0011
# 3 19.2782 19.2782 171.1762 0.0000 0.0000 0.0000
# 4 0.0000 0.0000 0.0000 36.6476 0.0000 0.0000
# 5 0.0000 0.0000 0.0000 0.0000 36.6476 0.0000
# 6 1.0011 -1.0011 0.0000 0.0000 0.0000 29.1667
#
#
#
# Elastic Compliance Matrix: (Units=1/GPa)
#
#
# Indices 1 2 3 4 5 6 
#
# 1 0.025888 0.005001 -0.003479 0.000000 0.000000 -0.000717
# 2 0.005001 0.025888 -0.003479 0.000000 0.000000 0.000717
# 3 -0.003479 -0.003479 0.006626 0.000000 0.000000 0.000000
# 4 0.000000 0.000000 0.000000 0.027287 0.000000 0.000000
# 5 0.000000 0.000000 0.000000 0.000000 0.027287 0.000000
# 6 -0.000717 0.000717 0.000000 0.000000 0.000000 0.034335
#
#
# Mechanical properties :
#
#
# Convention : Reuss Voigt Hill
#
# Bulk Modulus (GPa) = 18.35227 35.74670 27.04949
# Shear Modulus (GPa) = 29.51826 35.35210 32.43518
#
# Velocity S-wave (km/s) = 3.54963 3.88460 3.72089
# Velocity P-wave (km/s) = 4.96322 5.94799 5.47778
#
# Compressibility (1/GPa) = 0.05448918
#
# Stress axis : x y z
#
# Youngs Moduli (GPa) = 38.62753 38.62753 150.93155
#
# Poissons Ratio (x) = -0.19318 0.52507
# Poissons Ratio (y) = -0.19318 0.52507
# Poissons Ratio (z) = 0.13438 0.13438
#
# Static dielectric constant tensor:
#      x y z
#    x 4.397020 0.000000 0.000000 
#    y 0.000000 4.397020 0.000000 
#    z 0.000000 0.000000 4.352790 
# 
# 
# High freq. dielectric constant tensor:
#      x y z
#    x 1.924690 0.000000 0.000000 
#    y 0.000000 1.924690 0.000000 
#    z 0.000000 0.000000 1.946290 
# 
# From -- ./inp_files/1103.got.cif
#   From: 2010.03.12/outbox.cif.g09.slc.cpg/sg76_cif.got.tgz:1103.got - 2010.04.16 16:34:25.
