data_PCOD8301829
_publ_section_title
;
Structure prediction by ZEFSAII (Michael W. Deem and Ramdas Pophale) SiO2 
 PCOD8301829
Probable space group: I M M A
;
_chemical_formula_sum "Si O2"
_cell_formula_units_Z 52
_cell_length_a 9.000000
_cell_length_b 21.000000
_cell_length_c 27.000000
_cell_angle_alpha 90.000000
_cell_angle_beta 90.000000
_cell_angle_gamma 90.000000
_cell_volume 5103.000000
_symmetry_space_group_name_H-M "I M M A"
_symmetry_group_IT_number 74
_symmetry_cell_setting 'orthorhombic'
loop_
_space_group_symop_operation_xyz
x,y,z
-x,1/2-y,z
x,-y,-z
-x,1/2+y,-z
-x,-y,-z
x,1/2+y,-z
-x,y,z
x,1/2-y,z
1/2+x,1/2+y,1/2+z
1/2-x,-y,1/2+z
1/2+x,1/2-y,1/2-z
1/2-x,y,1/2-z
1/2-x,1/2-y,1/2-z
1/2+x,y,1/2-z
1/2-x,1/2+y,1/2+z
1/2+x,-y,1/2+z
loop_
_atom_site_type_symbol
_atom_site_label
_atom_site_fract_x
_atom_site_fract_y
_atom_site_fract_z
Si Si1 0.672205 0.175960 0.976537
Si Si2 0.173171 0.434731 0.362131
Si Si3 0.170332 0.320383 0.298044
Si Si4 0.678737 0.536094 0.302618
Si Si5 0.675482 0.561712 0.533039
Si Si6 0.176048 0.250000 0.802659
Si Si7 0.826019 0.141117 0.637094
O O1 0.500000 0.167657 0.991144
O O2 0.720743 0.250000 0.984284
O O3 0.698629 0.156051 0.920109
O O4 0.769283 0.128142 0.009488
O O5 0.190102 0.360457 0.348572
O O6 0.268387 0.465917 0.317380
O O7 0.242503 0.449274 0.415249
O O8 0.000000 0.456598 0.361504
O O9 0.234033 0.250000 0.309573
O O10 0.250000 0.350484 0.250000
O O11 0.000000 0.317775 0.282861
O O12 0.500000 0.543409 0.300809
O O13 0.750000 0.556964 0.250000
O O14 0.754229 0.574094 0.348340
O O15 0.715809 0.500000 0.500000
O O16 0.500000 0.566698 0.541646
O O17 0.250000 0.250000 0.750000
O O18 0.229177 0.311211 0.831279
O O19 0.000000 0.250000 0.797185
O O20 0.000000 0.145040 0.651093
#
# Coordination Sequence:
#
# PCOD8301829 Si02
#       7
#    16  16  16  16  16   8  16
#     4  10  22  42  67  94 124 163 210 263 320 382
#     4  11  23  40  63  90 121 161 205 255 312 372
#     4   9  19  36  59  88 121 156 195 239 292 357
#     4  12  25  41  61  90 126 165 209 258 313 375
#     4  11  25  43  63  91 126 163 208 264 320 380
#     4  12  24  38  58  86 122 162 204 252 305 360
#     4  11  22  41  64  89 122 161 208 257 309 369
#
# _framework density 10.190084000000001
#
# number of rings (size 3 to 8) (size 9 to 14) (size 15 to 20)
#    0.000    1.231    0.769    5.308    0.000    8.308 
#    0.000    1.538    0.000    0.000    0.000    0.000 
#    0.000    0.000    0.000    0.000    0.000    0.000 
#
# Total GULP energy -644711.319155 kJ/mol
# GULP energy per Si atom -12398.294599 kJ/mol
# Density = 1.016689 g / cm^3
# Si number density = 10.190084 Si / 1000 Ang^3
#
#
#
# Elastic Constant Matrix: (Units=GPa)
#
#
# Indices 1 2 3 4 5 6 
#
# 1 140.1015 36.8559 46.5566 0.0000 0.0000 0.0000
# 2 36.8559 95.7236 33.0977 0.0000 0.0000 0.0000
# 3 46.5566 33.0977 90.3804 0.0000 0.0000 0.0000
# 4 0.0000 0.0000 0.0000 29.4585 0.0000 0.0000
# 5 0.0000 0.0000 0.0000 0.0000 39.5647 0.0000
# 6 0.0000 0.0000 0.0000 0.0000 0.0000 38.4066
#
#
#
# Elastic Compliance Matrix: (Units=1/GPa)
#
#
# Indices 1 2 3 4 5 6 
#
# 1 0.008974 -0.002126 -0.003844 0.000000 0.000000 0.000000
# 2 -0.002126 0.012465 -0.003470 0.000000 0.000000 0.000000
# 3 -0.003844 -0.003470 0.014315 0.000000 0.000000 0.000000
# 4 0.000000 0.000000 0.000000 0.033946 0.000000 0.000000
# 5 0.000000 0.000000 0.000000 0.000000 0.025275 0.000000
# 6 0.000000 0.000000 0.000000 0.000000 0.000000 0.026037
#
#
# Mechanical properties :
#
#
# Convention : Reuss Voigt Hill
#
# Bulk Modulus (GPa) = 59.26039 62.13621 60.69830
# Shear Modulus (GPa) = 34.36002 35.46563 34.91283
#
# Velocity S-wave (km/s) = 4.11049 4.17610 4.14343
# Velocity P-wave (km/s) = 7.18810 7.33538 7.26211
#
# Compressibility (1/GPa) = 0.01687468
#
# Stress axis : x y z
#
# Youngs Moduli (GPa) = 111.42689 80.22457 69.85590
#
# Poissons Ratio (x) = 0.17057 0.26855
# Poissons Ratio (y) = 0.23691 0.24237
# Poissons Ratio (z) = 0.42836 0.27834
#
# Static dielectric constant tensor:
#      x y z
#    x 3.882640 0.000000 0.000000 
#    y 0.000000 7.159750 0.000000 
#    z 0.000000 0.000000 3.674370 
# 
# 
# High freq. dielectric constant tensor:
#      x y z
#    x 1.809830 0.000000 0.000000 
#    y 0.000000 1.812780 0.000000 
#    z 0.000000 0.000000 1.801830 
# 
# From -- ./inp_files/64418.got.cif
#   From: 2010.03.12/outbox.ucp.g09.slc.cvg/sg74_33_cif.got.tgz:64418.got - 2010.05.04 20:08:06.
