data_PCOD8301327
_publ_section_title
;
Structure prediction by ZEFSAII (Michael W. Deem and Ramdas Pophale) SiO2 
 PCOD8301327
Probable space group: I M M A
;
_chemical_formula_sum "Si O2"
_cell_formula_units_Z 96
_cell_length_a 17.949865
_cell_length_b 27.191348
_cell_length_c 9.640233
_cell_angle_alpha 90.000000
_cell_angle_beta 90.000000
_cell_angle_gamma 90.000000
_cell_volume 4705.214811
_symmetry_space_group_name_H-M "I M M A"
_symmetry_group_IT_number 74
_symmetry_cell_setting 'orthorhombic'
loop_
_space_group_symop_operation_xyz
x,y,z
-x,1/2-y,z
x,-y,-z
-x,1/2+y,-z
-x,-y,-z
x,1/2+y,-z
-x,y,z
x,1/2-y,z
1/2+x,1/2+y,1/2+z
1/2-x,-y,1/2+z
1/2+x,1/2-y,1/2-z
1/2-x,y,1/2-z
1/2-x,1/2-y,1/2-z
1/2+x,y,1/2-z
1/2-x,1/2+y,1/2+z
1/2+x,-y,1/2+z
loop_
_atom_site_type_symbol
_atom_site_label
_atom_site_fract_x
_atom_site_fract_y
_atom_site_fract_z
Si Si1 0.912553 0.124092 0.743355
Si Si2 0.816116 0.191195 0.558291
Si Si3 0.412451 0.016785 0.851771
Si Si4 0.811531 0.470465 0.140739
Si Si5 0.329207 0.632793 0.516458
Si Si6 0.160826 0.303620 0.258187
O O1 0.867682 0.169909 0.679379
O O2 0.888687 0.073537 0.668946
O O3 0.890759 0.118183 0.904165
O O4 0.000000 0.134630 0.730492
O O5 0.803638 0.250000 0.578447
O O6 0.736291 0.163901 0.557872
O O7 0.859634 0.179543 0.414187
O O8 0.500000 0.011451 0.855390
O O9 0.387661 0.982097 0.723523
O O10 0.377807 0.000000 0.000000
O O11 0.750000 0.488588 0.250000
O O12 0.806663 0.500000 0.000000
O O13 0.798323 0.414254 0.098675
O O14 0.372290 0.662950 0.636634
O O15 0.127542 0.250000 0.230819
O O16 0.250000 0.303491 0.250000
#
# Coordination Sequence:
#
# PCOD8301327 Si02
#       6
#    16  16  16  16  16  16
#     4  11  25  42  61  90 126 165 211 264 315 373
#     4  10  22  41  66  92 124 165 210 258 316 386
#     4  10  24  45  65  87 126 177 220 258 315 388
#     4  12  25  38  62  96 130 164 206 270 321 373
#     4  11  22  38  63  93 124 161 206 258 317 385
#     4   8  16  34  60  88 116 150 199 254 301 364
#
# _framework density 20.402892999999999
#
# number of rings (size 3 to 8) (size 9 to 14) (size 15 to 20)
#    0.000    1.667    1.667    4.000    7.000    3.333 
#    0.000    0.833    0.000    1.000    0.000    0.000 
#    0.000    0.000    0.000    0.000    0.000    0.000 
#
# Total GULP energy -595029.438391 kJ/mol
# GULP energy per Si atom -12396.446633 kJ/mol
# Density = 2.035646 g / cm^3
# Si number density = 20.402893 Si / 1000 Ang^3
#
#
#
# Elastic Constant Matrix: (Units=GPa)
#
#
# Indices 1 2 3 4 5 6 
#
# 1 40.1192 37.2817 30.5767 0.0001 0.0000 0.0001
# 2 37.2817 113.5018 55.9599 0.0001 0.0000 0.0001
# 3 30.5767 55.9599 152.7964 0.0009 0.0001 0.0001
# 4 0.0001 0.0001 0.0009 41.1305 0.0000 0.0001
# 5 0.0000 0.0000 0.0001 0.0000 27.6747 0.0000
# 6 0.0001 0.0001 0.0001 0.0001 0.0000 11.7989
#
#
#
# Elastic Compliance Matrix: (Units=1/GPa)
#
#
# Indices 1 2 3 4 5 6 
#
# 1 0.037474 -0.010509 -0.003650 0.000000 0.000000 0.000000
# 2 -0.010509 0.013699 -0.002914 0.000000 0.000000 0.000000
# 3 -0.003650 -0.002914 0.008342 0.000000 0.000000 0.000000
# 4 0.000000 0.000000 0.000000 0.024313 0.000000 0.000000
# 5 0.000000 0.000000 0.000000 0.000000 0.036134 0.000000
# 6 0.000000 0.000000 0.000000 0.000000 0.000000 0.084754
#
#
# Mechanical properties :
#
#
# Convention : Reuss Voigt Hill
#
# Bulk Modulus (GPa) = 39.41952 61.56156 50.49054
# Shear Modulus (GPa) = 20.21684 28.29409 24.25546
#
# Velocity S-wave (km/s) = 3.15124 3.72797 3.45167
# Velocity P-wave (km/s) = 5.70990 6.98347 6.37855
#
# Compressibility (1/GPa) = 0.02536814
#
# Stress axis : x y z
#
# Youngs Moduli (GPa) = 26.68550 72.99741 119.87027
#
# Poissons Ratio (x) = 0.76715 0.43754
# Poissons Ratio (y) = 0.28044 0.34931
# Poissons Ratio (z) = 0.09740 0.21272
#
# Static dielectric constant tensor:
#      x y z
#    x 3.287710 0.000000 0.000000 
#    y 0.000000 3.989380 0.000000 
#    z 0.000000 0.000000 4.199880 
# 
# 
# High freq. dielectric constant tensor:
#      x y z
#    x 1.757340 0.000000 0.000000 
#    y 0.000000 1.806010 0.000000 
#    z 0.000000 0.000000 1.822320 
# 
# From -- ./inp_files/12704.got.cif
#   From: 2010.03.12/outbox.cif.g09.slc.cpg/sg74_7_cif.got.tgz:12704.got - 2010.04.16 15:46:19.
