data_PCOD8301416
_publ_section_title
;
Structure prediction by ZEFSAII (Michael W. Deem and Ramdas Pophale) SiO2 
 PCOD8301416
Probable space group: I M M A
;
_chemical_formula_sum "Si O2"
_cell_formula_units_Z 96
_cell_length_a 16.410190
_cell_length_b 14.206833
_cell_length_c 21.272307
_cell_angle_alpha 90.000000
_cell_angle_beta 90.000000
_cell_angle_gamma 90.000000
_cell_volume 4959.358196
_symmetry_space_group_name_H-M "I M M A"
_symmetry_group_IT_number 74
_symmetry_cell_setting 'orthorhombic'
loop_
_space_group_symop_operation_xyz
x,y,z
-x,1/2-y,z
x,-y,-z
-x,1/2+y,-z
-x,-y,-z
x,1/2+y,-z
-x,y,z
x,1/2-y,z
1/2+x,1/2+y,1/2+z
1/2-x,-y,1/2+z
1/2+x,1/2-y,1/2-z
1/2-x,y,1/2-z
1/2-x,1/2-y,1/2-z
1/2+x,y,1/2-z
1/2-x,1/2+y,1/2+z
1/2+x,-y,1/2+z
loop_
_atom_site_type_symbol
_atom_site_label
_atom_site_fract_x
_atom_site_fract_y
_atom_site_fract_z
Si Si1 0.402878 0.250000 0.129358
Si Si2 0.500000 0.890003 0.490788
Si Si3 0.000000 0.354539 0.133789
Si Si4 0.848244 0.857010 0.096478
Si Si5 0.144972 0.476928 0.187011
Si Si6 0.669331 0.057159 0.173511
Si Si7 0.404804 0.250000 0.987737
Si Si8 0.822952 0.068145 0.558111
O O1 0.500000 0.250000 0.131965
O O2 0.369420 0.340889 0.164917
O O3 0.368010 0.250000 0.058256
O O4 0.500000 0.842898 0.558773
O O5 0.578795 0.857254 0.452904
O O6 0.500000 0.000000 0.500000
O O7 0.919899 0.407654 0.156469
O O8 0.000000 0.250000 0.163270
O O9 0.831151 0.750000 0.118386
O O10 0.770698 0.901191 0.061960
O O11 0.867753 0.918920 0.158184
O O12 0.233086 0.433030 0.172252
O O13 0.134540 0.485881 0.261809
O O14 0.642996 0.985084 0.119297
O O15 0.500000 0.250000 0.993939
O O16 0.377958 0.340744 0.949417
O O17 0.834716 0.000000 0.500000
#
# Coordination Sequence:
#
# PCOD8301416 Si02
#       8
#     8   8   8  16  16  16   8  16
#     4  11  24  39  65  94 119 162 208 254 323 382
#     4  12  22  41  61  98 133 165 204 254 307 366
#     4  12  26  39  62  95 133 168 207 260 310 373
#     4  11  22  40  67  90 127 169 211 254 306 374
#     4  10  24  43  59  92 128 167 211 253 311 369
#     4  10  24  42  64  89 127 168 207 260 310 376
#     4  11  24  42  63  95 123 153 206 268 323 373
#     4  11  22  42  65  93 123 163 208 261 318 373
#
# _framework density 19.357344000000001
#
# number of rings (size 3 to 8) (size 9 to 14) (size 15 to 20)
#    0.000    1.167    4.167    1.250    5.833    1.667 
#    1.500    1.667    0.000    0.000    0.000    0.000 
#    0.000    0.000    0.000    0.000    0.000    0.000 
#
# Total GULP energy -595393.578537 kJ/mol
# GULP energy per Si atom -12404.032886 kJ/mol
# Density = 1.931329 g / cm^3
# Si number density = 19.357344 Si / 1000 Ang^3
#
#
#
# Elastic Constant Matrix: (Units=GPa)
#
#
# Indices 1 2 3 4 5 6 
#
# 1 70.7592 37.2515 46.3743 0.0000 0.0000 0.0000
# 2 37.2515 162.5067 67.5566 0.0000 0.0000 0.0000
# 3 46.3743 67.5566 159.1323 0.0000 0.0000 0.0000
# 4 0.0000 0.0000 0.0000 16.5960 0.0000 0.0000
# 5 0.0000 0.0000 0.0000 0.0000 24.1543 0.0000
# 6 0.0000 0.0000 0.0000 0.0000 0.0000 50.7524
#
#
#
# Elastic Compliance Matrix: (Units=1/GPa)
#
#
# Indices 1 2 3 4 5 6 
#
# 1 0.018202 -0.002389 -0.004290 0.000000 0.000000 0.000000
# 2 -0.002389 0.007786 -0.002609 0.000000 0.000000 0.000000
# 3 -0.004290 -0.002609 0.008642 0.000000 0.000000 0.000000
# 4 0.000000 0.000000 0.000000 0.060255 0.000000 0.000000
# 5 0.000000 0.000000 0.000000 0.000000 0.041401 0.000000
# 6 0.000000 0.000000 0.000000 0.000000 0.000000 0.019704
#
#
# Mechanical properties :
#
#
# Convention : Reuss Voigt Hill
#
# Bulk Modulus (GPa) = 62.29317 77.19591 69.74454
# Shear Modulus (GPa) = 27.79061 34.38157 31.08609
#
# Velocity S-wave (km/s) = 3.79312 4.21901 4.01172
# Velocity P-wave (km/s) = 7.17177 7.98119 7.58728
#
# Compressibility (1/GPa) = 0.01605312
#
# Stress axis : x y z
#
# Youngs Moduli (GPa) = 54.93958 128.43762 115.71382
#
# Poissons Ratio (x) = 0.30683 0.49644
# Poissons Ratio (y) = 0.13125 0.30192
# Poissons Ratio (z) = 0.23570 0.33512
#
# Static dielectric constant tensor:
#      x y z
#    x 3.448730 0.000000 0.000000 
#    y 0.000000 3.679700 0.000000 
#    z 0.000000 0.000000 3.828870 
# 
# 
# High freq. dielectric constant tensor:
#      x y z
#    x 1.756860 0.000000 0.000000 
#    y 0.000000 1.765680 0.000000 
#    z 0.000000 0.000000 1.758960 
# 
# From -- ./inp_files/51980.got.cif
#   From: 2010.03.12/outbox.cif.g09.slc.cpg/sg74_26_cif.got.tgz:51980.got - 2010.04.16 15:46:19.
