data_PCOD8301411
_publ_section_title
;
Structure prediction by ZEFSAII (Michael W. Deem and Ramdas Pophale) SiO2 
 PCOD8301411
Probable space group: I M M A
;
_chemical_formula_sum "Si O2"
_cell_formula_units_Z 72
_cell_length_a 16.634796
_cell_length_b 22.511002
_cell_length_c 8.702784
_cell_angle_alpha 90.000000
_cell_angle_beta 90.000000
_cell_angle_gamma 90.000000
_cell_volume 3258.896070
_symmetry_space_group_name_H-M "I M M A"
_symmetry_group_IT_number 74
_symmetry_cell_setting 'orthorhombic'
loop_
_space_group_symop_operation_xyz
x,y,z
-x,1/2-y,z
x,-y,-z
-x,1/2+y,-z
-x,-y,-z
x,1/2+y,-z
-x,y,z
x,1/2-y,z
1/2+x,1/2+y,1/2+z
1/2-x,-y,1/2+z
1/2+x,1/2-y,1/2-z
1/2-x,y,1/2-z
1/2-x,1/2-y,1/2-z
1/2+x,y,1/2-z
1/2-x,1/2+y,1/2+z
1/2+x,-y,1/2+z
loop_
_atom_site_type_symbol
_atom_site_label
_atom_site_fract_x
_atom_site_fract_y
_atom_site_fract_z
Si Si1 0.628603 0.250000 0.757778
Si Si2 0.407954 0.088995 0.172127
Si Si3 0.335082 0.984513 0.321002
Si Si4 0.736404 0.750000 0.501308
Si Si5 0.250000 0.153422 0.250000
Si Si6 0.088008 0.618991 0.324283
O O1 0.647054 0.250000 0.573684
O O2 0.582162 0.189826 0.800476
O O3 0.708372 0.250000 0.855096
O O4 0.500000 0.112062 0.207460
O O5 0.334682 0.118643 0.268360
O O6 0.402991 0.020111 0.223253
O O7 0.385909 0.100743 0.995754
O O8 0.250000 0.003044 0.250000
O O9 0.351686 0.914116 0.294232
O O10 0.338183 0.000000 0.500000
O O11 0.754965 0.691869 0.597428
O O12 0.000000 0.593482 0.291564
#
# Coordination Sequence:
#
# PCOD8301411 Si02
#       6
#     8  16  16   8   8  16
#     4  11  23  42  67 101 131 185 227 287 337 410
#     4  11  24  44  72 103 139 182 231 286 350 416
#     4  12  27  44  71 103 137 182 232 286 352 415
#     4  10  24  40  67  95 141 178 238 275 340 411
#     4  11  22  46  66 106 136 187 226 288 346 409
#     4  11  25  45  69 100 140 182 232 285 346 418
#
# _framework density 22.093373
#
# number of rings (size 3 to 8) (size 9 to 14) (size 15 to 20)
#    0.000    0.889    3.333    3.000    6.222    3.556 
#    0.000    3.333    0.000    0.000    0.000    0.000 
#    0.000    0.000    0.000    0.000    0.000    0.000 
#
# Total GULP energy -446103.101407 kJ/mol
# GULP energy per Si atom -12391.752817 kJ/mol
# Density = 2.204309 g / cm^3
# Si number density = 22.093373 Si / 1000 Ang^3
#
#
#
# Elastic Constant Matrix: (Units=GPa)
#
#
# Indices 1 2 3 4 5 6 
#
# 1 126.7091 39.1564 35.5790 0.0000 0.0000 0.0000
# 2 39.1564 125.9156 49.4285 0.0000 0.0000 0.0000
# 3 35.5790 49.4285 101.5150 0.0000 0.0000 0.0000
# 4 0.0000 0.0000 0.0000 0.3017 0.0000 0.0000
# 5 0.0000 0.0000 0.0000 0.0000 20.2248 0.0000
# 6 0.0000 0.0000 0.0000 0.0000 0.0000 32.8573
#
#
#
# Elastic Compliance Matrix: (Units=1/GPa)
#
#
# Indices 1 2 3 4 5 6 
#
# 1 0.009127 -0.001957 -0.002246 0.000000 0.000000 0.000000
# 2 -0.001957 0.010238 -0.004299 0.000000 0.000000 0.000000
# 3 -0.002246 -0.004299 0.012731 0.000000 0.000000 0.000000
# 4 0.000000 0.000000 0.000000 3.314562 0.000000 0.000000
# 5 0.000000 0.000000 0.000000 0.000000 0.049444 0.000000
# 6 0.000000 0.000000 0.000000 0.000000 0.000000 0.030435
#
#
# Mechanical properties :
#
#
# Convention : Reuss Voigt Hill
#
# Bulk Modulus (GPa) = 66.25780 66.94085 66.59933
# Shear Modulus (GPa) = 1.44988 26.00848 13.72918
#
# Velocity S-wave (km/s) = 0.81097 3.43477 2.49553
# Velocity P-wave (km/s) = 5.56165 6.78933 6.20592
#
# Compressibility (1/GPa) = 0.01509256
#
# Stress axis : x y z
#
# Youngs Moduli (GPa) = 109.55917 97.67594 78.54620
#
# Poissons Ratio (x) = 0.19111 0.17644
# Poissons Ratio (y) = 0.21436 0.33768
# Poissons Ratio (z) = 0.24610 0.41993
#
# Static dielectric constant tensor:
#      x y z
#    x 3.992660 0.000000 0.000000 
#    y 0.000000 4.115760 0.000000 
#    z 0.000000 0.000000 3.892700 
# 
# 
# High freq. dielectric constant tensor:
#      x y z
#    x 1.873650 0.000000 0.000000 
#    y 0.000000 1.875060 0.000000 
#    z 0.000000 0.000000 1.866020 
# 
# From -- ./inp_files/10713.got.cif
#   From: 2010.03.12/outbox.cif.g09.slc.cpg/sg74_6_cif.got.tgz:10713.got - 2010.04.16 15:46:19.
