data_PCOD8301635
_publ_section_title
;
Structure prediction by ZEFSAII (Michael W. Deem and Ramdas Pophale) SiO2 
 PCOD8301635
Probable space group: I M M A
;
_chemical_formula_sum "Si O2"
_cell_formula_units_Z 72
_cell_length_a 8.048081
_cell_length_b 17.563281
_cell_length_c 26.270475
_cell_angle_alpha 90.000000
_cell_angle_beta 90.000000
_cell_angle_gamma 90.000000
_cell_volume 3713.350244
_symmetry_space_group_name_H-M "I M M A"
_symmetry_group_IT_number 74
_symmetry_cell_setting 'orthorhombic'
loop_
_space_group_symop_operation_xyz
x,y,z
-x,1/2-y,z
x,-y,-z
-x,1/2+y,-z
-x,-y,-z
x,1/2+y,-z
-x,y,z
x,1/2-y,z
1/2+x,1/2+y,1/2+z
1/2-x,-y,1/2+z
1/2+x,1/2-y,1/2-z
1/2-x,y,1/2-z
1/2-x,1/2-y,1/2-z
1/2+x,y,1/2-z
1/2-x,1/2+y,1/2+z
1/2+x,-y,1/2+z
loop_
_atom_site_type_symbol
_atom_site_label
_atom_site_fract_x
_atom_site_fract_y
_atom_site_fract_z
Si Si1 0.000000 0.166347 0.526801
Si Si2 0.319799 0.037871 0.804406
Si Si3 0.000000 0.835356 0.353495
Si Si4 0.803082 0.750000 0.808818
Si Si5 0.814433 0.085477 0.019051
Si Si6 0.195995 0.400187 0.367941
O O1 0.000000 0.167873 0.586782
O O2 0.170627 0.129155 0.509851
O O3 0.000000 0.250000 0.502893
O O4 0.500000 0.001207 0.794321
O O5 0.250000 0.058132 0.750000
O O6 0.335694 0.118038 0.835052
O O7 0.226836 0.972078 0.836339
O O8 0.000000 0.750000 0.330385
O O9 0.750000 0.750000 0.750000
O O10 0.729800 0.823578 0.836849
O O11 0.000000 0.750000 0.813099
O O12 0.792276 0.097119 0.079100
O O13 0.000000 0.116046 0.005236
O O14 0.796854 0.000000 0.000000
O O15 0.000000 0.408847 0.379460
#
# Coordination Sequence:
#
# PCOD8301635 Si02
#       6
#     8  16   8   8  16  16
#     4  11  23  41  67  89 130 172 210 265 329 384
#     4   9  20  36  59  89 117 161 201 256 308 377
#     4   9  20  39  63  92 122 165 206 255 325 384
#     4  12  26  42  60  90 130 176 224 283 321 389
#     4  11  24  40  64  96 127 170 218 272 325 389
#     4  11  22  39  63  89 127 170 219 263 328 384
#
# _framework density 19.389500000000002
#
# number of rings (size 3 to 8) (size 9 to 14) (size 15 to 20)
#    0.667    0.889    1.111    4.000    1.556    4.444 
#    0.000    1.111    0.000    1.333    0.000    0.000 
#    0.000    0.000    0.000    0.000    0.000    0.000 
#
# Total GULP energy -446066.875276 kJ/mol
# GULP energy per Si atom -12390.746535 kJ/mol
# Density = 1.934537 g / cm^3
# Si number density = 19.389500 Si / 1000 Ang^3
#
#
#
# Elastic Constant Matrix: (Units=GPa)
#
#
# Indices 1 2 3 4 5 6 
#
# 1 114.4655 39.7379 23.3610 0.0000 0.0000 0.0000
# 2 39.7379 155.5380 48.2899 0.0000 0.0000 0.0000
# 3 23.3610 48.2899 94.4789 0.0000 0.0000 0.0000
# 4 0.0000 0.0000 0.0000 32.6517 0.0000 0.0000
# 5 0.0000 0.0000 0.0000 0.0000 19.2447 0.0000
# 6 0.0000 0.0000 0.0000 0.0000 0.0000 16.7887
#
#
#
# Elastic Compliance Matrix: (Units=1/GPa)
#
#
# Indices 1 2 3 4 5 6 
#
# 1 0.009729 -0.002067 -0.001349 0.000000 0.000000 0.000000
# 2 -0.002067 0.008081 -0.003619 0.000000 0.000000 0.000000
# 3 -0.001349 -0.003619 0.012768 0.000000 0.000000 0.000000
# 4 0.000000 0.000000 0.000000 0.030626 0.000000 0.000000
# 5 0.000000 0.000000 0.000000 0.000000 0.051962 0.000000
# 6 0.000000 0.000000 0.000000 0.000000 0.000000 0.059564
#
#
# Mechanical properties :
#
#
# Convention : Reuss Voigt Hill
#
# Bulk Modulus (GPa) = 60.57918 65.25112 62.91515
# Shear Modulus (GPa) = 26.00051 30.60991 28.30521
#
# Velocity S-wave (km/s) = 3.66588 3.97758 3.82491
# Velocity P-wave (km/s) = 7.01636 7.40410 7.21284
#
# Compressibility (1/GPa) = 0.01650732
#
# Stress axis : x y z
#
# Youngs Moduli (GPa) = 102.78417 123.74682 78.32143
#
# Poissons Ratio (x) = 0.25575 0.10568
# Poissons Ratio (y) = 0.21243 0.28347
# Poissons Ratio (z) = 0.13868 0.44788
#
# Static dielectric constant tensor:
#      x y z
#    x 3.606310 0.000000 0.000000 
#    y 0.000000 3.782910 0.000000 
#    z 0.000000 0.000000 3.615050 
# 
# 
# High freq. dielectric constant tensor:
#      x y z
#    x 1.748160 0.000000 0.000000 
#    y 0.000000 1.760070 0.000000 
#    z 0.000000 0.000000 1.767760 
# 
# From -- ./inp_files/63868.got.cif
#   From: 2010.03.12/outbox.cif.g09.slc.cpg/sg74_32_cif.got.tgz:63868.got - 2010.04.16 15:46:19.
