data_PCOD8301625
_publ_section_title
;
Structure prediction by ZEFSAII (Michael W. Deem and Ramdas Pophale) SiO2 
 PCOD8301625
Probable space group: I M M A
;
_chemical_formula_sum "Si O2"
_cell_formula_units_Z 88
_cell_length_a 22.475068
_cell_length_b 8.593649
_cell_length_c 24.234244
_cell_angle_alpha 90.000000
_cell_angle_beta 90.000000
_cell_angle_gamma 90.000000
_cell_volume 4680.670848
_symmetry_space_group_name_H-M "I M M A"
_symmetry_group_IT_number 74
_symmetry_cell_setting 'orthorhombic'
loop_
_space_group_symop_operation_xyz
x,y,z
-x,1/2-y,z
x,-y,-z
-x,1/2+y,-z
-x,-y,-z
x,1/2+y,-z
-x,y,z
x,1/2-y,z
1/2+x,1/2+y,1/2+z
1/2-x,-y,1/2+z
1/2+x,1/2-y,1/2-z
1/2-x,y,1/2-z
1/2-x,1/2-y,1/2-z
1/2+x,y,1/2-z
1/2-x,1/2+y,1/2+z
1/2+x,-y,1/2+z
loop_
_atom_site_type_symbol
_atom_site_label
_atom_site_fract_x
_atom_site_fract_y
_atom_site_fract_z
Si Si1 0.068837 0.429785 0.231480
Si Si2 0.500000 0.932905 0.560817
Si Si3 0.930773 0.570599 0.643285
Si Si4 0.217180 0.565963 0.940503
Si Si5 0.388798 0.431226 0.624865
Si Si6 0.844342 0.931727 0.442265
O O1 0.079717 0.250000 0.216939
O O2 0.088767 0.465001 0.293993
O O3 0.107047 0.535766 0.190249
O O4 0.000000 0.472350 0.223822
O O5 0.500000 0.750000 0.556273
O O6 0.500000 0.000000 0.500000
O O7 0.558463 0.983854 0.593046
O O8 0.917767 0.750000 0.628610
O O9 0.893951 0.458257 0.603829
O O10 0.000000 0.532976 0.635167
O O11 0.211160 0.750000 0.941342
O O12 0.174364 0.495106 0.894634
O O13 0.283944 0.517743 0.924646
O O14 0.198646 0.500000 0.000000
O O15 0.393447 0.250000 0.612743
O O16 0.831177 0.750000 0.449245
O O17 0.868232 0.000000 0.500000
#
# Coordination Sequence:
#
# PCOD8301625 Si02
#       6
#    16   8  16  16  16  16
#     4   9  18  35  58  82 112 151 191 231 280 338
#     4  12  24  38  54  78 112 148 191 240 289 334
#     4   9  19  37  61  88 117 150 187 229 279 338
#     4  11  22  39  60  81 110 149 190 234 283 342
#     4  12  23  36  55  83 114 148 190 236 284 335
#     4  11  22  38  60  86 116 149 186 231 281 339
#
# _framework density 18.800723999999999
#
# number of rings (size 3 to 8) (size 9 to 14) (size 15 to 20)
#    0.000    1.455    0.909    8.455    0.000    1.455 
#    0.000    2.727    0.000    5.455    0.000    0.000 
#    0.000    0.000    0.000    0.000    0.000    0.000 
#
# Total GULP energy -545804.642704 kJ/mol
# GULP energy per Si atom -12404.650971 kJ/mol
# Density = 1.875793 g / cm^3
# Si number density = 18.800724 Si / 1000 Ang^3
#
#
#
# Elastic Constant Matrix: (Units=GPa)
#
#
# Indices 1 2 3 4 5 6 
#
# 1 72.2834 30.1067 56.8867 0.0000 0.0000 0.0000
# 2 30.1067 129.8409 44.4498 0.0000 0.0000 0.0000
# 3 56.8867 44.4498 114.9825 0.0000 0.0000 0.0000
# 4 0.0000 0.0000 0.0000 35.1701 0.0000 0.0000
# 5 0.0000 0.0000 0.0000 0.0000 31.6970 0.0000
# 6 0.0000 0.0000 0.0000 0.0000 0.0000 31.2053
#
#
#
# Elastic Compliance Matrix: (Units=1/GPa)
#
#
# Indices 1 2 3 4 5 6 
#
# 1 0.022960 -0.001654 -0.010720 0.000000 0.000000 0.000000
# 2 -0.001654 0.008996 -0.002659 0.000000 0.000000 0.000000
# 3 -0.010720 -0.002659 0.015029 0.000000 0.000000 0.000000
# 4 0.000000 0.000000 0.000000 0.028433 0.000000 0.000000
# 5 0.000000 0.000000 0.000000 0.000000 0.031549 0.000000
# 6 0.000000 0.000000 0.000000 0.000000 0.000000 0.032046
#
#
# Mechanical properties :
#
#
# Convention : Reuss Voigt Hill
#
# Bulk Modulus (GPa) = 59.10886 64.44370 61.77628
# Shear Modulus (GPa) = 28.61773 31.99206 30.30489
#
# Velocity S-wave (km/s) = 3.90572 4.12957 4.01920
# Velocity P-wave (km/s) = 7.20052 7.55576 7.38027
#
# Compressibility (1/GPa) = 0.01691794
#
# Stress axis : x y z
#
# Youngs Moduli (GPa) = 43.55446 111.16544 66.54019
#
# Poissons Ratio (x) = 0.18386 0.71330
# Poissons Ratio (y) = 0.07204 0.17695
# Poissons Ratio (z) = 0.46689 0.29561
#
# Static dielectric constant tensor:
#      x y z
#    x 3.310240 0.000000 0.000000 
#    y 0.000000 3.492470 0.000000 
#    z 0.000000 0.000000 3.541380 
# 
# 
# High freq. dielectric constant tensor:
#      x y z
#    x 1.720180 0.000000 0.000000 
#    y 0.000000 1.740530 0.000000 
#    z 0.000000 0.000000 1.735100 
# 
# From -- ./inp_files/61438.got.cif
#   From: 2010.03.12/outbox.cif.g09.slc.cpg/sg74_31_cif.got.tgz:61438.got - 2010.04.16 15:46:19.
