data_PCOD8301222
_publ_section_title
;
Structure prediction by ZEFSAII (Michael W. Deem and Ramdas Pophale) SiO2 
 PCOD8301222
Probable space group: I M M A
;
_chemical_formula_sum "Si O2"
_cell_formula_units_Z 96
_cell_length_a 9.885863
_cell_length_b 16.590822
_cell_length_c 29.435519
_cell_angle_alpha 90.000000
_cell_angle_beta 90.000000
_cell_angle_gamma 90.000000
_cell_volume 4827.854679
_symmetry_space_group_name_H-M "I M M A"
_symmetry_group_IT_number 74
_symmetry_cell_setting 'orthorhombic'
loop_
_space_group_symop_operation_xyz
x,y,z
-x,1/2-y,z
x,-y,-z
-x,1/2+y,-z
-x,-y,-z
x,1/2+y,-z
-x,y,z
x,1/2-y,z
1/2+x,1/2+y,1/2+z
1/2-x,-y,1/2+z
1/2+x,1/2-y,1/2-z
1/2-x,y,1/2-z
1/2-x,1/2-y,1/2-z
1/2+x,y,1/2-z
1/2-x,1/2+y,1/2+z
1/2+x,-y,1/2+z
loop_
_atom_site_type_symbol
_atom_site_label
_atom_site_fract_x
_atom_site_fract_y
_atom_site_fract_z
Si Si1 0.854923 0.158095 0.950342
Si Si2 0.655317 0.426850 0.464583
Si Si3 0.841474 0.657481 0.607028
Si Si4 0.149735 0.154128 0.619910
Si Si5 0.846039 0.075367 0.710882
Si Si6 0.654592 0.886032 0.791189
O O1 0.861129 0.250000 0.935807
O O2 0.741018 0.115422 0.919898
O O3 0.000000 0.116068 0.939602
O O4 0.825856 0.151903 0.003836
O O5 0.694108 0.500000 0.500000
O O6 0.500000 0.436430 0.447188
O O7 0.754581 0.408548 0.421994
O O8 0.811999 0.750000 0.591844
O O9 0.802105 0.651396 0.660393
O O10 0.000000 0.636231 0.600404
O O11 0.149296 0.250000 0.619588
O O12 0.207534 0.121779 0.666887
O O13 0.000000 0.119631 0.611730
O O14 0.750000 0.108229 0.750000
O O15 0.000000 0.098999 0.722451
O O16 0.829255 0.981074 0.703352
O O17 0.500000 0.862100 0.779280
O O18 0.750000 0.854021 0.750000
#
# Coordination Sequence:
#
# PCOD8301222 Si02
#       6
#    16  16  16  16  16  16
#     4   9  18  33  51  71 100 137 173 213 261 312
#     4  10  22  38  56  83 114 146 185 228 275 330
#     4  10  22  39  59  85 116 149 188 234 282 336
#     4   9  18  31  48  72 100 132 173 218 263 316
#     4   9  18  32  49  70  99 135 172 215 268 321
#     4   9  19  36  56  80 110 144 183 228 279 334
#
# _framework density 19.884608
#
# number of rings (size 3 to 8) (size 9 to 14) (size 15 to 20)
#    0.000    2.667    0.000    0.500    2.333    4.000 
#    0.000    1.667    0.000    0.000    0.000    0.000 
#    0.000    0.000    0.000    0.000    0.000    0.000 
#
# Total GULP energy -594689.706074 kJ/mol
# GULP energy per Si atom -12389.368877 kJ/mol
# Density = 1.983935 g / cm^3
# Si number density = 19.884608 Si / 1000 Ang^3
#
#
#
# Elastic Constant Matrix: (Units=GPa)
#
#
# Indices 1 2 3 4 5 6 
#
# 1 101.2231 30.4272 84.3923 0.0000 0.0000 0.0000
# 2 30.4272 25.7048 28.8888 0.0000 0.0000 0.0000
# 3 84.3923 28.8888 130.7801 0.0000 0.0000 0.0000
# 4 0.0000 0.0000 0.0000 30.5919 0.0000 0.0000
# 5 0.0000 0.0000 0.0000 0.0000 43.5825 0.0000
# 6 0.0000 0.0000 0.0000 0.0000 0.0000 10.2027
#
#
#
# Elastic Compliance Matrix: (Units=1/GPa)
#
#
# Indices 1 2 3 4 5 6 
#
# 1 0.025267 -0.015410 -0.012901 0.000000 0.000000 0.000000
# 2 -0.015410 0.061149 -0.003563 0.000000 0.000000 0.000000
# 3 -0.012901 -0.003563 0.016758 0.000000 0.000000 0.000000
# 4 0.000000 0.000000 0.000000 0.032688 0.000000 0.000000
# 5 0.000000 0.000000 0.000000 0.000000 0.022945 0.000000
# 6 0.000000 0.000000 0.000000 0.000000 0.000000 0.098013
#
#
# Mechanical properties :
#
#
# Convention : Reuss Voigt Hill
#
# Bulk Modulus (GPa) = 25.36395 60.56938 42.96667
# Shear Modulus (GPa) = 14.98294 24.47539 19.72916
#
# Velocity S-wave (km/s) = 2.74796 3.51218 3.15331
# Velocity P-wave (km/s) = 4.78034 6.85374 5.90870
#
# Compressibility (1/GPa) = 0.03942603
#
# Stress axis : x y z
#
# Youngs Moduli (GPa) = 39.57707 16.35337 59.67148
#
# Poissons Ratio (x) = 0.25201 0.76981
# Poissons Ratio (y) = 0.60990 0.21263
# Poissons Ratio (z) = 0.51058 0.05827
#
# Static dielectric constant tensor:
#      x y z
#    x -0.751860 0.000000 0.000000 
#    y 0.000000 3.511150 0.000000 
#    z 0.000000 0.000000 3.720990 
# 
# 
# High freq. dielectric constant tensor:
#      x y z
#    x 1.772190 0.000000 0.000000 
#    y 0.000000 1.770350 0.000000 
#    z 0.000000 0.000000 1.773100 
# 
# From -- ./inp_files/64358.got.cif
#   From: 2010.03.12/outbox.cif.g09.slc.cpg/sg74_33_cif.got.tgz:64358.got - 2010.04.16 15:46:19.
