data_PCOD8301952
_publ_section_title
;
Structure prediction by ZEFSAII (Michael W. Deem and Ramdas Pophale) SiO2 
 PCOD8301952
Probable space group: P 41
;
_chemical_formula_sum "Si O2"
_cell_formula_units_Z 20
_cell_length_a 4.999250
_cell_length_b 4.999250
_cell_length_c 26.902887
_cell_angle_alpha 90.000000
_cell_angle_beta 90.000000
_cell_angle_gamma 90.000000
_cell_volume 672.370418
_symmetry_space_group_name_H-M "P 41"
_symmetry_group_IT_number 76
_symmetry_cell_setting 'tetragonal'
loop_
_space_group_symop_operation_xyz
x,y,z
-y,x,1/4+z
-x,-y,1/2+z
y,-x,3/4+z
loop_
_atom_site_type_symbol
_atom_site_label
_atom_site_fract_x
_atom_site_fract_y
_atom_site_fract_z
Si Si1 0.181552 0.090818 0.340190
Si Si2 0.507454 0.106739 0.506329
Si Si3 0.318727 0.456766 0.426701
Si Si4 0.745642 0.176388 0.197889
Si Si5 0.673777 0.889068 0.293823
O O1 0.216488 0.347230 0.304567
O O2 0.250327 0.197469 0.394495
O O3 0.388527 0.853195 0.322630
O O4 0.880378 0.979750 0.337780
O O5 0.309312 0.339767 0.484354
O O6 0.717407 0.046596 0.459920
O O7 0.358967 0.821205 0.516075
O O8 0.610378 0.575245 0.416118
O O9 0.105408 0.701757 0.418806
O O10 0.632251 0.128309 0.254016
#
# Coordination Sequence:
#
# PCOD8301952 Si02
#       5
#     4   4   4   4   4
#     4  11  26  44  75 115 153 205 265 334 396 482
#     4  11  26  45  77 103 157 207 263 324 404 479
#     4  12  25  46  75 113 158 202 269 327 404 475
#     4  11  24  44  74 108 149 202 257 314 392 471
#     4  11  23  47  73 111 151 206 258 319 398 473
#
# _framework density 29.745508000000001
#
# number of rings (size 3 to 8) (size 9 to 14) (size 15 to 20)
#    0.000    0.800    4.000    2.400    2.800    3.200 
#    0.000    0.000    4.400    0.000    0.000    0.000 
#    0.000    0.000    0.000    0.000    0.000    0.000 
#
# Total GULP energy -247854.244927 kJ/mol
# GULP energy per Si atom -12392.712246 kJ/mol
# Density = 2.967781 g / cm^3
# Si number density = 29.745508 Si / 1000 Ang^3
#
#
#
# Elastic Constant Matrix: (Units=GPa)
#
#
# Indices 1 2 3 4 5 6 
#
# 1 13.8663 115.0202 -5.2313 0.0000 0.0000 11.4069
# 2 115.0202 13.8663 -5.2313 0.0000 0.0000 -11.4069
# 3 -5.2313 -5.2313 30.4041 0.0000 0.0000 0.0000
# 4 0.0000 0.0000 0.0000 22.4567 0.0000 0.0000
# 5 0.0000 0.0000 0.0000 0.0000 22.4567 0.0000
# 6 11.4069 -11.4069 0.0000 0.0000 0.0000 37.0880
#
#
#
# Elastic Compliance Matrix: (Units=1/GPa)
#
#
# Indices 1 2 3 4 5 6 
#
# 1 -0.000688 0.008557 0.001354 0.000000 0.000000 0.002843
# 2 0.008557 -0.000688 0.001354 0.000000 0.000000 -0.002843
# 3 0.001354 0.001354 0.033356 0.000000 0.000000 0.000000
# 4 0.000000 0.000000 0.000000 0.044530 0.000000 0.000000
# 5 0.000000 0.000000 0.000000 0.000000 0.044530 0.000000
# 6 0.002843 -0.002843 0.000000 0.000000 0.000000 0.025214
#
#
# Mechanical properties :
#
#
# Convention : Reuss Voigt Hill
#
# Bulk Modulus (GPa) = 18.34557 29.69464 24.02011
# Shear Modulus (GPa) = 35.23723 13.30554 24.27138
#
# Velocity S-wave (km/s) = 3.44557 2.11727 2.85961
# Velocity P-wave (km/s) = 4.69150 3.99771 4.35843
#
# Compressibility (1/GPa) = 0.05450908
#
# Stress axis : x y z
#
# Youngs Moduli (GPa) = -1453.50823 -1453.50823 29.97942
#
# Poissons Ratio (x) = 12.43717 -0.04059
# Poissons Ratio (y) = 12.43717 -0.04059
# Poissons Ratio (z) = 1.96788 1.96788
#
# Static dielectric constant tensor:
#      x y z
#    x 5.426910 0.000000 0.000000 
#    y 0.000000 5.426910 0.000000 
#    z 0.000000 0.000000 5.157040 
# 
# 
# High freq. dielectric constant tensor:
#      x y z
#    x 2.219200 0.000000 0.000000 
#    y 0.000000 2.219200 0.000000 
#    z 0.000000 0.000000 2.207590 
# 
# From -- ./inp_files/1672.got.cif
#   From: 2010.03.12/outbox.cif.g09.slc.cpg/sg76_cif.got.tgz:1672.got - 2010.04.16 16:34:25.
