data_PCOD8301951
_publ_section_title
;
Structure prediction by ZEFSAII (Michael W. Deem and Ramdas Pophale) SiO2 
 PCOD8301951
Probable space group: P 41
;
_chemical_formula_sum "Si O2"
_cell_formula_units_Z 32
_cell_length_a 9.156301
_cell_length_b 9.156301
_cell_length_c 17.776699
_cell_angle_alpha 90.000000
_cell_angle_beta 90.000000
_cell_angle_gamma 90.000000
_cell_volume 1490.360189
_symmetry_space_group_name_H-M "P 41"
_symmetry_group_IT_number 76
_symmetry_cell_setting 'tetragonal'
loop_
_space_group_symop_operation_xyz
x,y,z
-y,x,1/4+z
-x,-y,1/2+z
y,-x,3/4+z
loop_
_atom_site_type_symbol
_atom_site_label
_atom_site_fract_x
_atom_site_fract_y
_atom_site_fract_z
Si Si1 0.754208 0.834347 0.304970
Si Si2 0.933323 0.206567 0.747896
Si Si3 0.334347 0.254208 0.219154
Si Si4 0.330318 0.340288 0.949907
Si Si5 0.840441 0.932605 0.824137
Si Si6 0.566677 0.706567 0.026228
Si Si7 0.840288 0.830318 0.574217
Si Si8 0.659559 0.432605 0.949987
O O1 0.684184 0.735896 0.369684
O O2 0.673824 0.789477 0.227441
O O3 0.923267 0.795989 0.298500
O O4 0.740582 0.007096 0.321682
O O5 0.969578 0.180001 0.661151
O O6 0.863558 0.363558 0.762062
O O7 0.823544 0.082492 0.777995
O O8 0.507096 0.240582 0.202442
O O9 0.289477 0.173824 0.296683
O O10 0.295989 0.423267 0.225624
O O11 0.235896 0.184184 0.154440
O O12 0.501136 0.362979 0.967042
O O13 0.268104 0.231896 0.012062
O O14 0.998864 0.862979 0.807083
O O15 0.530422 0.680001 0.112973
O O16 0.676456 0.582492 0.996130
#
# Coordination Sequence:
#
# PCOD8301951 Si02
#       8
#     4   4   4   4   4   4   4   4
#     4  11  25  44  71  98 135 175 224 280 336 402
#     4  11  25  42  69  95 136 174 228 277 341 401
#     4  11  25  44  71  98 135 175 224 280 336 402
#     4  11  25  43  71  99 136 175 225 274 338 398
#     4  11  23  47  65  98 134 179 220 282 337 398
#     4  11  25  42  69  95 136 174 228 277 341 401
#     4  11  25  43  71  99 136 175 225 274 338 398
#     4  11  23  47  65  98 134 179 220 282 337 398
#
# _framework density 21.471322000000001
#
# number of rings (size 3 to 8) (size 9 to 14) (size 15 to 20)
#    0.000    1.000    2.500    3.000   14.000    4.000 
#    0.000    0.000    0.000    0.000    0.000    0.000 
#    0.000    0.000    0.000    0.000    0.000    0.000 
#
# Total GULP energy -396974.832776 kJ/mol
# GULP energy per Si atom -12405.463524 kJ/mol
# Density = 2.142245 g / cm^3
# Si number density = 21.471322 Si / 1000 Ang^3
#
#
#
# Elastic Constant Matrix: (Units=GPa)
#
#
# Indices 1 2 3 4 5 6 
#
# 1 39.2440 0.7681 7.2976 0.0000 0.0000 0.0000
# 2 0.7681 39.2440 7.2976 0.0000 0.0000 0.0000
# 3 7.2976 7.2976 103.4745 0.0000 0.0000 0.0000
# 4 0.0000 0.0000 0.0000 33.7352 0.0000 0.0000
# 5 0.0000 0.0000 0.0000 0.0000 33.7352 0.0000
# 6 0.0000 0.0000 0.0000 0.0000 0.0000 33.8942
#
#
#
# Elastic Compliance Matrix: (Units=1/GPa)
#
#
# Indices 1 2 3 4 5 6 
#
# 1 0.025821 -0.000169 -0.001809 0.000000 0.000000 0.000000
# 2 -0.000169 0.025821 -0.001809 0.000000 0.000000 0.000000
# 3 -0.001809 -0.001809 0.009919 0.000000 0.000000 0.000000
# 4 0.000000 0.000000 0.000000 0.029643 0.000000 0.000000
# 5 0.000000 0.000000 0.000000 0.000000 0.029643 0.000000
# 6 0.000000 0.000000 0.000000 0.000000 0.000000 0.029504
#
#
# Mechanical properties :
#
#
# Convention : Reuss Voigt Hill
#
# Bulk Modulus (GPa) = 18.52281 23.63212 21.07747
# Shear Modulus (GPa) = 28.42181 31.37954 29.90067
#
# Velocity S-wave (km/s) = 3.64223 3.82706 3.73579
# Velocity P-wave (km/s) = 5.13160 5.52800 5.33348
#
# Compressibility (1/GPa) = 0.05398749
#
# Stress axis : x y z
#
# Youngs Moduli (GPa) = 38.72769 38.72769 100.81256
#
# Poissons Ratio (x) = 0.00654 0.18238
# Poissons Ratio (y) = 0.00654 0.18238
# Poissons Ratio (z) = 0.07006 0.07006
#
# Static dielectric constant tensor:
#      x y z
#    x 3.917730 0.000000 0.000000 
#    y 0.000000 3.917730 0.000000 
#    z 0.000000 0.000000 3.898650 
# 
# 
# High freq. dielectric constant tensor:
#      x y z
#    x 1.844550 0.000000 0.000000 
#    y 0.000000 1.844550 0.000000 
#    z 0.000000 0.000000 1.856030 
# 
# From -- ./inp_files/1317.got.cif
#   From: 2010.03.12/outbox.cif.g09.slc.cpg/sg76_cif.got.tgz:1317.got - 2010.04.16 16:34:25.
