data_PCOD8301168
_publ_section_title
;
Structure prediction by ZEFSAII (Michael W. Deem and Ramdas Pophale) SiO2 
 PCOD8301168
Probable space group: I M M A
;
_chemical_formula_sum "Si O2"
_cell_formula_units_Z 96
_cell_length_a 19.291938
_cell_length_b 29.122634
_cell_length_c 9.137696
_cell_angle_alpha 90.000000
_cell_angle_beta 90.000000
_cell_angle_gamma 90.000000
_cell_volume 5133.850472
_symmetry_space_group_name_H-M "I M M A"
_symmetry_group_IT_number 74
_symmetry_cell_setting 'orthorhombic'
loop_
_space_group_symop_operation_xyz
x,y,z
-x,1/2-y,z
x,-y,-z
-x,1/2+y,-z
-x,-y,-z
x,1/2+y,-z
-x,y,z
x,1/2-y,z
1/2+x,1/2+y,1/2+z
1/2-x,-y,1/2+z
1/2+x,1/2-y,1/2-z
1/2-x,y,1/2-z
1/2-x,1/2-y,1/2-z
1/2+x,y,1/2-z
1/2-x,1/2+y,1/2+z
1/2+x,-y,1/2+z
loop_
_atom_site_type_symbol
_atom_site_label
_atom_site_fract_x
_atom_site_fract_y
_atom_site_fract_z
Si Si1 0.180813 0.019595 0.843200
Si Si2 0.695936 0.302742 0.465774
Si Si3 0.152697 0.198181 0.359967
Si Si4 0.671698 0.622635 0.300879
Si Si5 0.919992 0.876714 0.482307
Si Si6 0.921563 0.032736 0.362509
O O1 0.250000 0.017833 0.750000
O O2 0.155046 0.071970 0.863364
O O3 0.122598 0.987739 0.770025
O O4 0.199565 0.000000 0.000000
O O5 0.691446 0.250000 0.523625
O O6 0.775613 0.317073 0.437645
O O7 0.655458 0.307215 0.313967
O O8 0.659530 0.337653 0.578634
O O9 0.136255 0.250000 0.403597
O O10 0.089499 0.168122 0.418865
O O11 0.750000 0.626401 0.250000
O O12 0.620224 0.630971 0.167652
O O13 0.890504 0.919145 0.578494
O O14 0.000000 0.885220 0.444262
O O15 0.000000 0.038872 0.304156
O O16 0.919014 0.000000 0.500000
#
# Coordination Sequence:
#
# PCOD8301168 Si02
#       6
#    16  16  16  16  16  16
#     4  11  25  38  58  90 121 152 194 246 294 346
#     4   9  19  36  60  89 118 151 192 243 296 347
#     4   9  19  37  60  88 118 150 196 244 291 352
#     4  11  22  37  57  89 120 152 194 244 291 346
#     4  11  23  39  61  87 118 158 199 241 295 352
#     4  10  21  41  62  81 117 161 196 235 289 351
#
# _framework density 18.699415999999999
#
# number of rings (size 3 to 8) (size 9 to 14) (size 15 to 20)
#    0.000    1.833    3.333    1.500    4.667    1.667 
#    0.000    0.833    0.000    1.000    0.000    0.000 
#    0.000    0.000    0.000    0.000    0.000    0.000 
#
# Total GULP energy -595212.350786 kJ/mol
# GULP energy per Si atom -12400.257308 kJ/mol
# Density = 1.865686 g / cm^3
# Si number density = 18.699416 Si / 1000 Ang^3
#
#
#
# Elastic Constant Matrix: (Units=GPa)
#
#
# Indices 1 2 3 4 5 6 
#
# 1 62.1200 37.0454 36.7514 0.0000 0.0000 0.0000
# 2 37.0454 136.2155 74.3082 0.0000 0.0000 0.0000
# 3 36.7514 74.3082 105.3952 0.0002 0.0001 0.0000
# 4 0.0000 0.0000 0.0002 41.1801 0.0000 0.0000
# 5 0.0000 0.0000 0.0001 0.0000 27.1348 0.0000
# 6 0.0000 0.0000 0.0000 0.0000 0.0000 27.9452
#
#
#
# Elastic Compliance Matrix: (Units=1/GPa)
#
#
# Indices 1 2 3 4 5 6 
#
# 1 0.020909 -0.002777 -0.005333 0.000000 0.000000 0.000000
# 2 -0.002777 0.012299 -0.007703 0.000000 0.000000 0.000000
# 3 -0.005333 -0.007703 0.016778 0.000000 0.000000 0.000000
# 4 0.000000 0.000000 0.000000 0.024284 0.000000 0.000000
# 5 0.000000 0.000000 0.000000 0.000000 0.036853 0.000000
# 6 0.000000 0.000000 0.000000 0.000000 0.000000 0.035784
#
#
# Mechanical properties :
#
#
# Convention : Reuss Voigt Hill
#
# Bulk Modulus (GPa) = 54.46475 66.66006 60.56241
# Shear Modulus (GPa) = 27.07786 29.62707 28.35246
#
# Velocity S-wave (km/s) = 3.80947 3.98475 3.89809
# Velocity P-wave (km/s) = 6.96700 7.54298 7.26070
#
# Compressibility (1/GPa) = 0.01836050
#
# Stress axis : x y z
#
# Youngs Moduli (GPa) = 47.82584 81.31064 59.60062
#
# Poissons Ratio (x) = 0.22582 0.31785
# Poissons Ratio (y) = 0.13283 0.45908
# Poissons Ratio (z) = 0.25505 0.62630
#
# Static dielectric constant tensor:
#      x y z
#    x 3.306720 0.000000 0.000000 
#    y 0.000000 3.772280 0.000000 
#    z 0.000000 0.000000 4.240470 
# 
# 
# High freq. dielectric constant tensor:
#      x y z
#    x 1.705500 0.000000 0.000000 
#    y 0.000000 1.742630 0.000000 
#    z 0.000000 0.000000 1.722710 
# 
# From -- ./inp_files/12635.got.cif
#   From: 2010.03.12/outbox.cif.g09.slc.cpg/sg74_7_cif.got.tgz:12635.got - 2010.04.16 15:46:19.
