data_PCOD8301499
_publ_section_title
;
Structure prediction by ZEFSAII (Michael W. Deem and Ramdas Pophale) SiO2 
 PCOD8301499
Probable space group: I M M A
;
_chemical_formula_sum "Si O2"
_cell_formula_units_Z 80
_cell_length_a 9.802695
_cell_length_b 22.869845
_cell_length_c 21.626916
_cell_angle_alpha 90.000000
_cell_angle_beta 90.000000
_cell_angle_gamma 90.000000
_cell_volume 4848.454282
_symmetry_space_group_name_H-M "I M M A"
_symmetry_group_IT_number 74
_symmetry_cell_setting 'orthorhombic'
loop_
_space_group_symop_operation_xyz
x,y,z
-x,1/2-y,z
x,-y,-z
-x,1/2+y,-z
-x,-y,-z
x,1/2+y,-z
-x,y,z
x,1/2-y,z
1/2+x,1/2+y,1/2+z
1/2-x,-y,1/2+z
1/2+x,1/2-y,1/2-z
1/2-x,y,1/2-z
1/2-x,1/2-y,1/2-z
1/2+x,y,1/2-z
1/2-x,1/2+y,1/2+z
1/2+x,-y,1/2+z
loop_
_atom_site_type_symbol
_atom_site_label
_atom_site_fract_x
_atom_site_fract_y
_atom_site_fract_z
Si Si1 0.500000 0.870377 0.657146
Si Si2 0.000000 0.750000 0.641193
Si Si3 0.000000 0.122528 0.301130
Si Si4 0.347748 0.625869 0.011150
Si Si5 0.227791 0.073505 0.383440
Si Si6 0.000000 0.750000 0.898915
Si Si7 0.154979 0.535091 0.063830
Si Si8 0.281054 0.250000 0.035751
O O1 0.500000 0.887414 0.728368
O O2 0.370745 0.894013 0.620692
O O3 0.500000 0.801585 0.650087
O O4 0.000000 0.808416 0.682939
O O5 0.133353 0.750000 0.598973
O O6 0.134013 0.089166 0.325229
O O7 0.500000 0.618018 0.038774
O O8 0.236693 0.595739 0.055930
O O9 0.349131 0.595941 0.944074
O O10 0.314249 0.694161 0.006098
O O11 0.261318 0.004185 0.386653
O O12 0.124882 0.750000 0.945752
O O13 0.000000 0.548139 0.086336
O O14 0.150515 0.500000 0.000000
#
# Coordination Sequence:
#
# PCOD8301499 Si02
#       8
#     8   4   8  16  16   4  16   8
#     4  12  23  36  48  73  95 135 181 224 257 284
#     4  12  19  40  46  64 100 138 170 228 253 270
#     4  12  23  34  54  69  95 135 185 218 255 296
#     4  11  20  33  52  73  96 129 167 203 255 311
#     4  11  20  36  50  68  99 127 164 220 260 298
#     4  12  23  32  50  68  96 142 182 220 253 286
#     4   9  20  32  51  73  94 120 159 208 258 311
#     4  12  20  32  51  70 104 134 167 210 254 293
#
# _framework density 16.500104
#
# number of rings (size 3 to 8) (size 9 to 14) (size 15 to 20)
#    0.000    1.000    7.000    0.900    4.200    1.200 
#    0.000    3.000    0.000    0.000    0.000    0.000 
#    0.000    0.000    0.000    5.400    0.000    0.100 
#
# Total GULP energy -496032.819598 kJ/mol
# GULP energy per Si atom -12400.820490 kJ/mol
# Density = 1.646255 g / cm^3
# Si number density = 16.500104 Si / 1000 Ang^3
#
#
#
# Elastic Constant Matrix: (Units=GPa)
#
#
# Indices 1 2 3 4 5 6 
#
# 1 125.0597 39.0364 14.0469 0.0000 0.0000 0.0000
# 2 39.0364 103.8494 28.5957 0.0000 0.0000 0.0000
# 3 14.0469 28.5957 27.9041 0.0000 0.0000 0.0000
# 4 0.0000 0.0000 0.0000 16.4204 0.0000 0.0000
# 5 0.0000 0.0000 0.0000 0.0000 13.3561 0.0000
# 6 0.0000 0.0000 0.0000 0.0000 0.0000 24.6855
#
#
#
# Elastic Compliance Matrix: (Units=1/GPa)
#
#
# Indices 1 2 3 4 5 6 
#
# 1 0.009104 -0.003009 -0.001499 0.000000 0.000000 0.000000
# 2 -0.003009 0.014409 -0.013252 0.000000 0.000000 0.000000
# 3 -0.001499 -0.013252 0.050172 0.000000 0.000000 0.000000
# 4 0.000000 0.000000 0.000000 0.060900 0.000000 0.000000
# 5 0.000000 0.000000 0.000000 0.000000 0.074872 0.000000
# 6 0.000000 0.000000 0.000000 0.000000 0.000000 0.040510
#
#
# Mechanical properties :
#
#
# Convention : Reuss Voigt Hill
#
# Bulk Modulus (GPa) = 26.20196 46.68568 36.44382
# Shear Modulus (GPa) = 16.76679 22.56802 19.66740
#
# Velocity S-wave (km/s) = 3.19119 3.70232 3.45622
# Velocity P-wave (km/s) = 5.43071 6.82875 6.16946
#
# Compressibility (1/GPa) = 0.03816509
#
# Stress axis : x y z
#
# Youngs Moduli (GPa) = 109.84307 69.39867 19.93155
#
# Poissons Ratio (x) = 0.20885 0.02988
# Poissons Ratio (y) = 0.33056 0.26413
# Poissons Ratio (z) = 0.16465 0.91965
#
# Static dielectric constant tensor:
#      x y z
#    x 3.350830 0.000000 0.000000 
#    y 0.000000 3.276270 0.000000 
#    z 0.000000 0.000000 2.665220 
# 
# 
# High freq. dielectric constant tensor:
#      x y z
#    x 1.663580 0.000000 0.000000 
#    y 0.000000 1.632860 0.000000 
#    z 0.000000 0.000000 1.573490 
# 
# From -- ./inp_files/48682.got.cif
#   From: 2010.03.12/outbox.cif.g09.slc.cpg/sg74_25_cif.got.tgz:48682.got - 2010.04.16 15:46:19.
