data_PCOD8301641
_publ_section_title
;
Structure prediction by ZEFSAII (Michael W. Deem and Ramdas Pophale) SiO2 
 PCOD8301641
Probable space group: I M M A
;
_chemical_formula_sum "Si O2"
_cell_formula_units_Z 60
_cell_length_a 21.112418
_cell_length_b 15.300236
_cell_length_c 8.900684
_cell_angle_alpha 90.000000
_cell_angle_beta 90.000000
_cell_angle_gamma 90.000000
_cell_volume 2875.143253
_symmetry_space_group_name_H-M "I M M A"
_symmetry_group_IT_number 74
_symmetry_cell_setting 'orthorhombic'
loop_
_space_group_symop_operation_xyz
x,y,z
-x,1/2-y,z
x,-y,-z
-x,1/2+y,-z
-x,-y,-z
x,1/2+y,-z
-x,y,z
x,1/2-y,z
1/2+x,1/2+y,1/2+z
1/2-x,-y,1/2+z
1/2+x,1/2-y,1/2-z
1/2-x,y,1/2-z
1/2-x,1/2-y,1/2-z
1/2+x,y,1/2-z
1/2-x,1/2+y,1/2+z
1/2+x,-y,1/2+z
loop_
_atom_site_type_symbol
_atom_site_label
_atom_site_fract_x
_atom_site_fract_y
_atom_site_fract_z
Si Si1 0.817959 0.750000 0.676690
Si Si2 0.182723 0.082712 0.822831
Si Si3 0.136070 0.250000 0.651228
Si Si4 0.500000 0.895505 0.499791
Si Si5 0.000000 0.250000 0.746953
Si Si6 0.867342 0.401291 0.137015
O O1 0.750000 0.750000 0.750000
O O2 0.821756 0.750000 0.497869
O O3 0.851676 0.661815 0.727350
O O4 0.250000 0.057576 0.750000
O O5 0.154364 0.165114 0.742066
O O6 0.134441 0.001016 0.802200
O O7 0.184759 0.105352 0.001414
O O8 0.060106 0.250000 0.634122
O O9 0.500000 0.839686 0.345289
O O10 0.436232 0.869258 0.585317
O O11 0.500000 0.000000 0.500000
#
# Coordination Sequence:
#
# PCOD8301641 Si02
#       6
#     8  16   8   8   4  16
#     4  12  26  43  62  94 137 173 215 265 332 397
#     4  11  22  40  65  94 126 169 222 271 324 385
#     4  12  24  40  63  94 134 171 210 270 330 381
#     4  12  20  43  69  97 127 163 234 272 312 398
#     4  12  22  40  68  96 132 170 220 272 322 392
#     4  11  23  41  68  95 125 174 220 269 325 383
#
# _framework density 20.868525999999999
#
# number of rings (size 3 to 8) (size 9 to 14) (size 15 to 20)
#    0.000    0.533    5.333    4.400    0.000    4.267 
#    0.000    0.000    0.000    4.800    0.000    0.000 
#    0.000    0.000    0.000    0.000    0.000    0.000 
#
# Total GULP energy -371833.391430 kJ/mol
# GULP energy per Si atom -12394.446381 kJ/mol
# Density = 2.082103 g / cm^3
# Si number density = 20.868526 Si / 1000 Ang^3
#
#
#
# Elastic Constant Matrix: (Units=GPa)
#
#
# Indices 1 2 3 4 5 6 
#
# 1 120.8048 7.1764 27.8117 0.0000 0.0000 0.0000
# 2 7.1764 130.2785 60.2883 0.0000 0.0000 0.0000
# 3 27.8117 60.2883 90.5806 0.0000 0.0000 0.0000
# 4 0.0000 0.0000 0.0000 53.3949 0.0000 0.0000
# 5 0.0000 0.0000 0.0000 0.0000 38.1268 0.0000
# 6 0.0000 0.0000 0.0000 0.0000 0.0000 32.5118
#
#
#
# Elastic Compliance Matrix: (Units=1/GPa)
#
#
# Indices 1 2 3 4 5 6 
#
# 1 0.009022 0.001134 -0.003525 0.000000 0.000000 0.000000
# 2 0.001134 0.011235 -0.007826 0.000000 0.000000 0.000000
# 3 -0.003525 -0.007826 0.017331 0.000000 0.000000 0.000000
# 4 0.000000 0.000000 0.000000 0.018728 0.000000 0.000000
# 5 0.000000 0.000000 0.000000 0.000000 0.026228 0.000000
# 6 0.000000 0.000000 0.000000 0.000000 0.000000 0.030758
#
#
# Mechanical properties :
#
#
# Convention : Reuss Voigt Hill
#
# Bulk Modulus (GPa) = 58.29393 59.13519 58.71456
# Shear Modulus (GPa) = 35.85403 41.23254 38.54328
#
# Velocity S-wave (km/s) = 4.14948 4.44985 4.30229
# Velocity P-wave (km/s) = 7.13808 7.40271 7.27160
#
# Compressibility (1/GPa) = 0.01715445
#
# Stress axis : x y z
#
# Youngs Moduli (GPa) = 110.84053 89.00769 57.69999
#
# Poissons Ratio (x) = -0.10096 0.20340
# Poissons Ratio (y) = -0.12573 0.45156
# Poissons Ratio (z) = 0.39072 0.69658
#
# Static dielectric constant tensor:
#      x y z
#    x 4.464840 0.000000 0.000000 
#    y 0.000000 4.075310 0.000000 
#    z 0.000000 0.000000 3.724510 
# 
# 
# High freq. dielectric constant tensor:
#      x y z
#    x 1.824120 0.000000 0.000000 
#    y 0.000000 1.843970 0.000000 
#    z 0.000000 0.000000 1.794370 
# 
# From -- ./inp_files/10373.got.cif
#   From: 2010.03.12/outbox.cif.g09.slc.cpg/sg74_6_cif.got.tgz:10373.got - 2010.04.16 15:46:19.
