data_PCOD8301863
_publ_section_title
;
Structure prediction by ZEFSAII (Michael W. Deem and Ramdas Pophale) SiO2 
 PCOD8301863
Probable space group: P 41
;
_chemical_formula_sum "Si O2"
_cell_formula_units_Z 24
_cell_length_a 9.022330
_cell_length_b 9.022330
_cell_length_c 15.685879
_cell_angle_alpha 90.000000
_cell_angle_beta 90.000000
_cell_angle_gamma 90.000000
_cell_volume 1276.868803
_symmetry_space_group_name_H-M "P 41"
_symmetry_group_IT_number 76
_symmetry_cell_setting 'tetragonal'
loop_
_space_group_symop_operation_xyz
x,y,z
-y,x,1/4+z
-x,-y,1/2+z
y,-x,3/4+z
loop_
_atom_site_type_symbol
_atom_site_label
_atom_site_fract_x
_atom_site_fract_y
_atom_site_fract_z
Si Si1 0.480181 0.623952 0.397080
Si Si2 0.053292 0.289976 0.038676
Si Si3 0.194082 0.503931 0.476966
Si Si4 0.615353 0.695012 0.572026
Si Si5 0.283113 0.996711 0.131522
Si Si6 0.849970 0.008624 0.458079
O O1 0.311863 0.576363 0.413567
O O2 0.473767 0.735205 0.318449
O O3 0.542031 0.711229 0.478889
O O4 0.578717 0.477477 0.378554
O O5 0.215274 0.360032 0.058705
O O6 0.973010 0.257218 0.128522
O O7 0.951987 0.396813 0.983956
O O8 0.066656 0.140987 0.983567
O O9 0.135981 0.354517 0.434164
O O10 0.616669 0.854389 0.619750
O O11 0.132777 0.032572 0.181845
O O12 0.246607 0.933322 0.037770
#
# Coordination Sequence:
#
# PCOD8301863 Si02
#       6
#     4   4   4   4   4   4
#     4  10  22  38  53  81 114 146 186 231 267 331
#     4  10  19  36  59  81 106 145 181 222 276 331
#     4  11  23  36  55  82 111 142 184 229 279 320
#     4   9  19  38  59  76 110 152 185 217 275 341
#     4  10  20  36  58  82 107 143 181 225 277 328
#     4   8  19  36  56  78 106 138 179 218 266 331
#
# _framework density 18.795978999999999
#
# number of rings (size 3 to 8) (size 9 to 14) (size 15 to 20)
#    0.000    2.667    0.000    3.000    0.000   10.667 
#    0.000    1.667    0.000    0.000    0.000    0.000 
#    0.000    0.000    0.000    0.000    0.000    0.000 
#
# Total GULP energy -297517.472159 kJ/mol
# GULP energy per Si atom -12396.561340 kJ/mol
# Density = 1.875320 g / cm^3
# Si number density = 18.795979 Si / 1000 Ang^3
#
#
#
# Elastic Constant Matrix: (Units=GPa)
#
#
# Indices 1 2 3 4 5 6 
#
# 1 63.4620 14.5792 18.1324 0.0000 0.0000 0.8991
# 2 14.5792 63.4620 18.1324 0.0000 0.0000 -0.8991
# 3 18.1324 18.1324 72.9370 0.0000 0.0000 0.0000
# 4 0.0000 0.0000 0.0000 29.2171 0.0000 0.0000
# 5 0.0000 0.0000 0.0000 0.0000 29.2171 0.0000
# 6 0.8991 -0.8991 0.0000 0.0000 0.0000 22.2361
#
#
#
# Elastic Compliance Matrix: (Units=1/GPa)
#
#
# Indices 1 2 3 4 5 6 
#
# 1 0.017487 -0.003000 -0.003602 0.000000 0.000000 -0.000828
# 2 -0.003000 0.017487 -0.003602 0.000000 0.000000 0.000828
# 3 -0.003602 -0.003602 0.015501 0.000000 0.000000 0.000000
# 4 0.000000 0.000000 0.000000 0.034227 0.000000 0.000000
# 5 0.000000 0.000000 0.000000 0.000000 0.034227 0.000000
# 6 -0.000828 0.000828 0.000000 0.000000 0.000000 0.045039
#
#
# Mechanical properties :
#
#
# Convention : Reuss Voigt Hill
#
# Bulk Modulus (GPa) = 33.25629 33.50545 33.38087
# Shear Modulus (GPa) = 25.72043 26.06852 25.89447
#
# Velocity S-wave (km/s) = 3.70320 3.72818 3.71571
# Velocity P-wave (km/s) = 6.00139 6.03299 6.01721
#
# Compressibility (1/GPa) = 0.03006950
#
# Stress axis : x y z
#
# Youngs Moduli (GPa) = 57.18378 57.18378 64.51112
#
# Poissons Ratio (x) = 0.17156 0.23234
# Poissons Ratio (y) = 0.17156 0.23234
# Poissons Ratio (z) = 0.20595 0.20595
#
# Static dielectric constant tensor:
#      x y z
#    x 3.337170 0.000000 0.000000 
#    y 0.000000 3.337170 0.000000 
#    z 0.000000 0.000000 3.626650 
# 
# 
# High freq. dielectric constant tensor:
#      x y z
#    x 1.722720 0.000000 0.000000 
#    y 0.000000 1.722720 0.000000 
#    z 0.000000 0.000000 1.746770 
# 
# From -- ./inp_files/1063.got.cif
#   From: 2010.03.12/outbox.cif.g09.slc.cpg/sg76_cif.got.tgz:1063.got - 2010.04.16 16:34:25.
