data_PCOD8301274
_publ_section_title
;
Structure prediction by ZEFSAII (Michael W. Deem and Ramdas Pophale) SiO2 
 PCOD8301274
Probable space group: I M M A
;
_chemical_formula_sum "Si O2"
_cell_formula_units_Z 68
_cell_length_a 15.472774
_cell_length_b 22.011389
_cell_length_c 10.601360
_cell_angle_alpha 90.000000
_cell_angle_beta 90.000000
_cell_angle_gamma 90.000000
_cell_volume 3610.582008
_symmetry_space_group_name_H-M "I M M A"
_symmetry_group_IT_number 74
_symmetry_cell_setting 'orthorhombic'
loop_
_space_group_symop_operation_xyz
x,y,z
-x,1/2-y,z
x,-y,-z
-x,1/2+y,-z
-x,-y,-z
x,1/2+y,-z
-x,y,z
x,1/2-y,z
1/2+x,1/2+y,1/2+z
1/2-x,-y,1/2+z
1/2+x,1/2-y,1/2-z
1/2-x,y,1/2-z
1/2-x,1/2-y,1/2-z
1/2+x,y,1/2-z
1/2-x,1/2+y,1/2+z
1/2+x,-y,1/2+z
loop_
_atom_site_type_symbol
_atom_site_label
_atom_site_fract_x
_atom_site_fract_y
_atom_site_fract_z
Si Si1 0.400624 0.864100 0.067410
Si Si2 0.352281 0.250000 0.768467
Si Si3 0.816845 0.514566 0.359786
Si Si4 0.154699 0.382971 0.301681
Si Si5 0.000000 0.182518 0.172292
Si Si6 0.500000 0.750000 0.432164
O O1 0.500000 0.862095 0.029222
O O2 0.377400 0.810673 0.160385
O O3 0.381535 0.928975 0.131178
O O4 0.347272 0.852866 0.939665
O O5 0.250000 0.250000 0.750000
O O6 0.410092 0.250000 0.643141
O O7 0.775507 0.500000 0.500000
O O8 0.750000 0.532069 0.250000
O O9 0.867849 0.454565 0.313965
O O10 0.250000 0.371975 0.250000
O O11 0.085845 0.353430 0.208933
O O12 0.000000 0.250000 0.236178
O O13 0.000000 0.189724 0.020372
#
# Coordination Sequence:
#
# PCOD8301274 Si02
#       6
#    16   8  16  16   8   4
#     4  11  22  38  65  91 123 159 210 260 302 369
#     4  12  26  43  62  84 122 167 209 249 307 370
#     4   9  20  39  61  91 125 164 209 255 309 370
#     4  10  22  39  64  95 122 159 206 253 315 369
#     4  10  24  39  62  86 129 157 193 258 310 368
#     4  10  26  46  54  88 126 164 202 252 308 376
#
# _framework density 18.833528000000001
#
# number of rings (size 3 to 8) (size 9 to 14) (size 15 to 20)
#    0.353    1.412    2.353    0.706    6.588    1.882 
#    4.235    0.000    0.000    2.118    0.000    0.000 
#    0.000    0.000    0.000    0.000    0.000    0.000 
#
# Total GULP energy -421421.692983 kJ/mol
# GULP energy per Si atom -12394.755676 kJ/mol
# Density = 1.879066 g / cm^3
# Si number density = 18.833528 Si / 1000 Ang^3
#
#
#
# Elastic Constant Matrix: (Units=GPa)
#
#
# Indices 1 2 3 4 5 6 
#
# 1 140.5573 71.1560 72.9934 0.0000 0.0000 0.0000
# 2 71.1560 119.4315 69.7752 0.0000 0.0000 0.0000
# 3 72.9934 69.7752 135.1179 0.0000 0.0000 0.0000
# 4 0.0000 0.0000 0.0000 -29.4972 0.0000 0.0000
# 5 0.0000 0.0000 0.0000 0.0000 40.0817 0.0000
# 6 0.0000 0.0000 0.0000 0.0000 0.0000 35.7773
#
#
#
# Elastic Compliance Matrix: (Units=1/GPa)
#
#
# Indices 1 2 3 4 5 6 
#
# 1 0.011403 -0.004575 -0.003797 0.000000 0.000000 0.000000
# 2 -0.004575 0.013826 -0.004668 0.000000 0.000000 0.000000
# 3 -0.003797 -0.004668 0.011863 0.000000 0.000000 0.000000
# 4 0.000000 0.000000 0.000000 -0.033902 0.000000 0.000000
# 5 0.000000 0.000000 0.000000 0.000000 0.024949 0.000000
# 6 0.000000 0.000000 0.000000 0.000000 0.000000 0.027951
#
#
# Mechanical properties :
#
#
# Convention : Reuss Voigt Hill
#
# Bulk Modulus (GPa) = 90.82326 91.43956 91.13141
# Shear Modulus (GPa) = 58.24675 21.35115 39.79895
#
# Velocity S-wave (km/s) = 5.56725 3.37067 4.60194
# Velocity P-wave (km/s) = 9.46861 7.98783 8.75957
#
# Compressibility (1/GPa) = 0.01101040
#
# Stress axis : x y z
#
# Youngs Moduli (GPa) = 87.69891 72.32688 84.29503
#
# Poissons Ratio (x) = 0.33090 0.32010
# Poissons Ratio (y) = 0.40123 0.39352
# Poissons Ratio (z) = 0.33303 0.33764
#
# Static dielectric constant tensor:
#      x y z
#    x 3.790950 0.000000 0.000000 
#    y 0.000000 3.637360 0.000000 
#    z 0.000000 0.000000 3.602010 
# 
# 
# High freq. dielectric constant tensor:
#      x y z
#    x 1.722140 0.000000 0.000000 
#    y 0.000000 1.744950 0.000000 
#    z 0.000000 0.000000 1.740880 
# 
# From -- ./inp_files/20248.got.cif
#   From: 2010.03.12/outbox.cif.g09.slc.cpg/sg74_11_cif.got.tgz:20248.got - 2010.04.16 15:46:19.
