data_PCOD8301557
_publ_section_title
;
Structure prediction by ZEFSAII (Michael W. Deem and Ramdas Pophale) SiO2 
 PCOD8301557
Probable space group: I M M A
;
_chemical_formula_sum "Si O2"
_cell_formula_units_Z 56
_cell_length_a 23.898071
_cell_length_b 8.686304
_cell_length_c 13.320809
_cell_angle_alpha 90.000000
_cell_angle_beta 90.000000
_cell_angle_gamma 90.000000
_cell_volume 2765.212254
_symmetry_space_group_name_H-M "I M M A"
_symmetry_group_IT_number 74
_symmetry_cell_setting 'orthorhombic'
loop_
_space_group_symop_operation_xyz
x,y,z
-x,1/2-y,z
x,-y,-z
-x,1/2+y,-z
-x,-y,-z
x,1/2+y,-z
-x,y,z
x,1/2-y,z
1/2+x,1/2+y,1/2+z
1/2-x,-y,1/2+z
1/2+x,1/2-y,1/2-z
1/2-x,y,1/2-z
1/2-x,1/2-y,1/2-z
1/2+x,y,1/2-z
1/2-x,1/2+y,1/2+z
1/2+x,-y,1/2+z
loop_
_atom_site_type_symbol
_atom_site_label
_atom_site_fract_x
_atom_site_fract_y
_atom_site_fract_z
Si Si1 0.000000 0.424274 0.893730
Si Si2 0.938754 0.427393 0.704427
Si Si3 0.280387 0.566869 0.394605
Si Si4 0.326113 0.069652 0.195032
O O1 0.945314 0.460748 0.824733
O O2 0.000000 0.250000 0.923802
O O3 0.000000 0.500000 0.000000
O O4 0.922247 0.250000 0.686259
O O5 0.889873 0.535050 0.660405
O O6 0.000000 0.461792 0.653481
O O7 0.302072 0.500000 0.500000
O O8 0.286049 0.750000 0.391764
O O9 0.317997 0.492651 0.307591
O O10 0.215740 0.518292 0.379474
O O11 0.313536 0.250000 0.189516
#
# Coordination Sequence:
#
# PCOD8301557 Si02
#       4
#     8  16  16  16
#     4   8  16  28  44  66  97 132 171 212 254 306
#     4   8  17  33  50  71 102 143 180 215 261 314
#     4  11  22  38  58  80 108 142 182 228 275 323
#     4  11  21  35  56  83 112 144 182 222 271 328
#
# _framework density 20.251611
#
# number of rings (size 3 to 8) (size 9 to 14) (size 15 to 20)
#    0.857    1.429    0.000    6.857    0.000    2.857 
#    0.000    2.857    0.000    0.857    0.000    0.000 
#    0.000    0.000    0.000    0.000    0.000    0.000 
#
# Total GULP energy -346883.666474 kJ/mol
# GULP energy per Si atom -12388.702374 kJ/mol
# Density = 2.020552 g / cm^3
# Si number density = 20.251611 Si / 1000 Ang^3
#
#
#
# Elastic Constant Matrix: (Units=GPa)
#
#
# Indices 1 2 3 4 5 6 
#
# 1 86.8226 5.4338 -20.8611 0.0000 0.0000 0.0000
# 2 5.4338 80.9883 -3.5690 0.0000 0.0000 0.0000
# 3 -20.8611 -3.5690 28.3117 0.0000 0.0000 0.0000
# 4 0.0000 0.0000 0.0000 26.9436 0.0000 0.0000
# 5 0.0000 0.0000 0.0000 0.0000 -216.5706 0.0000
# 6 0.0000 0.0000 0.0000 0.0000 0.0000 31.9700
#
#
#
# Elastic Compliance Matrix: (Units=1/GPa)
#
#
# Indices 1 2 3 4 5 6 
#
# 1 0.014015 -0.000488 0.010265 0.000000 0.000000 0.000000
# 2 -0.000488 0.012433 0.001208 0.000000 0.000000 0.000000
# 3 0.010265 0.001208 0.043037 0.000000 0.000000 0.000000
# 4 0.000000 0.000000 0.000000 0.037115 0.000000 0.000000
# 5 0.000000 0.000000 0.000000 0.000000 -0.004617 0.000000
# 6 0.000000 0.000000 0.000000 0.000000 0.000000 0.031279
#
#
# Mechanical properties :
#
#
# Convention : Reuss Voigt Hill
#
# Bulk Modulus (GPa) = 10.93435 17.57000 14.25217
# Shear Modulus (GPa) = 35.26676 -17.19013 9.03832
#
# Velocity S-wave (km/s) = 4.17757 -2.91663 2.11488
# Velocity P-wave (km/s) = 5.35541 1.62714 3.60783
#
# Compressibility (1/GPa) = 0.09145493
#
# Stress axis : x y z
#
# Youngs Moduli (GPa) = 71.35376 80.42838 23.23585
#
# Poissons Ratio (x) = 0.03924 -0.23852
# Poissons Ratio (y) = 0.03482 -0.02807
# Poissons Ratio (z) = -0.73245 -0.09715
#
# Static dielectric constant tensor:
#      x y z
#    x 3.628800 0.000000 0.000000 
#    y 0.000000 3.624080 0.000000 
#    z 0.000000 0.000000 3.344210 
# 
# 
# High freq. dielectric constant tensor:
#      x y z
#    x 1.789650 0.000000 0.000000 
#    y 0.000000 1.792680 0.000000 
#    z 0.000000 0.000000 1.758630 
# 
# From -- ./inp_files/35913.got.cif
#   From: 2010.03.12/outbox.cif.g09.slc.cpg/sg74_18_cif.got.tgz:35913.got - 2010.04.16 15:46:19.
