data_PCOD8301744
_publ_section_title
;
Structure prediction by ZEFSAII (Michael W. Deem and Ramdas Pophale) SiO2 
 PCOD8301744
Probable space group: I M M A
;
_chemical_formula_sum "Si O2"
_cell_formula_units_Z 80
_cell_length_a 27.832337
_cell_length_b 9.017594
_cell_length_c 17.542138
_cell_angle_alpha 90.000000
_cell_angle_beta 90.000000
_cell_angle_gamma 90.000000
_cell_volume 4402.738340
_symmetry_space_group_name_H-M "I M M A"
_symmetry_group_IT_number 74
_symmetry_cell_setting 'orthorhombic'
loop_
_space_group_symop_operation_xyz
x,y,z
-x,1/2-y,z
x,-y,-z
-x,1/2+y,-z
-x,-y,-z
x,1/2+y,-z
-x,y,z
x,1/2-y,z
1/2+x,1/2+y,1/2+z
1/2-x,-y,1/2+z
1/2+x,1/2-y,1/2-z
1/2-x,y,1/2-z
1/2-x,1/2-y,1/2-z
1/2+x,y,1/2-z
1/2-x,1/2+y,1/2+z
1/2+x,-y,1/2+z
loop_
_atom_site_type_symbol
_atom_site_label
_atom_site_fract_x
_atom_site_fract_y
_atom_site_fract_z
Si Si1 0.715822 0.075209 0.919057
Si Si2 0.646611 0.921645 0.812298
Si Si3 0.302607 0.418675 0.347084
Si Si4 0.401785 0.578033 0.577302
Si Si5 0.553266 0.926488 0.731071
O O1 0.714065 0.250000 0.929515
O O2 0.666089 0.019518 0.881857
O O3 0.759712 0.031030 0.864172
O O4 0.723734 0.000000 0.000000
O O5 0.646197 0.750000 0.837101
O O6 0.680133 0.944599 0.738864
O O7 0.592580 0.979229 0.793128
O O8 0.283997 0.250000 0.356802
O O9 0.345768 0.450503 0.405618
O O10 0.417769 0.500000 0.500000
O O11 0.412487 0.750000 0.567060
O O12 0.433306 0.512320 0.647111
O O13 0.500000 0.981873 0.754548
O O14 0.556339 0.750000 0.726750
#
# Coordination Sequence:
#
# PCOD8301744 Si02
#       5
#    16  16  16  16  16
#     4  12  24  35  50  73 101 131 164 203 245 291
#     4   9  18  34  55  76 100 130 163 201 244 290
#     4   9  18  33  51  72 101 136 169 199 236 285
#     4   9  17  28  44  69 101 135 168 201 236 277
#     4   8  15  30  52  74  95 125 165 203 242 291
#
# _framework density 18.17051
#
# number of rings (size 3 to 8) (size 9 to 14) (size 15 to 20)
#    0.000    2.600    0.000    5.400    0.000    6.000 
#    0.000    3.000    0.000    2.400    0.000    0.000 
#    0.000    0.000    0.000    0.000    0.000    0.000 
#
# Total GULP energy -495933.970447 kJ/mol
# GULP energy per Si atom -12398.349261 kJ/mol
# Density = 1.812915 g / cm^3
# Si number density = 18.170510 Si / 1000 Ang^3
#
#
#
# Elastic Constant Matrix: (Units=GPa)
#
#
# Indices 1 2 3 4 5 6 
#
# 1 114.6389 37.6286 29.6255 0.0000 0.0000 0.0000
# 2 37.6286 77.0800 25.5866 0.0000 0.0000 0.0000
# 3 29.6255 25.5866 39.8918 0.0000 0.0000 0.0000
# 4 0.0000 0.0000 0.0000 29.6015 0.0000 0.0000
# 5 0.0000 0.0000 0.0000 0.0000 14.9714 0.0000
# 6 0.0000 0.0000 0.0000 0.0000 0.0000 14.1847
#
#
#
# Elastic Compliance Matrix: (Units=1/GPa)
#
#
# Indices 1 2 3 4 5 6 
#
# 1 0.011505 -0.003532 -0.006279 0.000000 0.000000 0.000000
# 2 -0.003532 0.017567 -0.008645 0.000000 0.000000 0.000000
# 3 -0.006279 -0.008645 0.035275 0.000000 0.000000 0.000000
# 4 0.000000 0.000000 0.000000 0.033782 0.000000 0.000000
# 5 0.000000 0.000000 0.000000 0.000000 0.066794 0.000000
# 6 0.000000 0.000000 0.000000 0.000000 0.000000 0.070498
#
#
# Mechanical properties :
#
#
# Convention : Reuss Voigt Hill
#
# Bulk Modulus (GPa) = 36.44726 46.36578 41.40652
# Shear Modulus (GPa) = 17.76334 21.00285 19.38309
#
# Velocity S-wave (km/s) = 3.13004 3.40351 3.26963
# Velocity P-wave (km/s) = 5.75889 6.40450 6.09026
#
# Compressibility (1/GPa) = 0.02743690
#
# Stress axis : x y z
#
# Youngs Moduli (GPa) = 86.91879 56.92344 28.34859
#
# Poissons Ratio (x) = 0.20107 0.17799
# Poissons Ratio (y) = 0.30702 0.24506
# Poissons Ratio (z) = 0.54572 0.49208
#
# Static dielectric constant tensor:
#      x y z
#    x 3.530980 0.000000 0.000000 
#    y 0.000000 3.048650 0.000000 
#    z 0.000000 0.000000 3.267720 
# 
# 
# High freq. dielectric constant tensor:
#      x y z
#    x 1.701890 0.000000 0.000000 
#    y 0.000000 1.673890 0.000000 
#    z 0.000000 0.000000 1.692350 
# 
# From -- ./inp_files/39716.got.cif
#   From: 2010.03.12/outbox.cif.g09.slc.cpg/sg74_20_cif.got.tgz:39716.got - 2010.04.16 15:46:19.
