data_PCOD8301782
_publ_section_title
;
Structure prediction by ZEFSAII (Michael W. Deem and Ramdas Pophale) SiO2 
 PCOD8301782
Probable space group: I M M A
;
_chemical_formula_sum "Si O2"
_cell_formula_units_Z 88
_cell_length_a 9.343978
_cell_length_b 20.164703
_cell_length_c 27.493930
_cell_angle_alpha 90.000000
_cell_angle_beta 90.000000
_cell_angle_gamma 90.000000
_cell_volume 5180.366183
_symmetry_space_group_name_H-M "I M M A"
_symmetry_group_IT_number 74
_symmetry_cell_setting 'orthorhombic'
loop_
_space_group_symop_operation_xyz
x,y,z
-x,1/2-y,z
x,-y,-z
-x,1/2+y,-z
-x,-y,-z
x,1/2+y,-z
-x,y,z
x,1/2-y,z
1/2+x,1/2+y,1/2+z
1/2-x,-y,1/2+z
1/2+x,1/2-y,1/2-z
1/2-x,y,1/2-z
1/2-x,1/2-y,1/2-z
1/2+x,y,1/2-z
1/2-x,1/2+y,1/2+z
1/2+x,-y,1/2+z
loop_
_atom_site_type_symbol
_atom_site_label
_atom_site_fract_x
_atom_site_fract_y
_atom_site_fract_z
Si Si1 0.161262 0.750000 0.034298
Si Si2 0.666766 0.377519 0.079369
Si Si3 0.837692 0.750000 0.298122
Si Si4 0.832180 0.105748 0.699464
Si Si5 0.838459 0.750000 0.918660
Si Si6 0.166139 0.876554 0.465975
Si Si7 0.169610 0.518646 0.388570
O O1 0.243691 0.814353 0.053557
O O2 0.000000 0.750000 0.054775
O O3 0.162495 0.750000 0.976379
O O4 0.500000 0.363147 0.089130
O O5 0.756290 0.315480 0.099996
O O6 0.723263 0.442873 0.107550
O O7 0.694395 0.390384 0.022498
O O8 0.750000 0.750000 0.250000
O O9 0.805123 0.820453 0.324752
O O10 0.000000 0.750000 0.281024
O O11 0.750000 0.096002 0.750000
O O12 0.771971 0.052328 0.660842
O O13 0.000000 0.094705 0.709436
O O14 0.000000 0.750000 0.898033
O O15 0.220074 0.940279 0.435896
O O16 0.000000 0.860643 0.456156
O O17 0.000000 0.518954 0.388131
#
# Coordination Sequence:
#
# PCOD8301782 Si02
#       7
#     8  16   8  16   8  16  16
#     4   9  17  28  40  58  88 123 154 183 215 250
#     4   9  16  28  46  67  89 114 146 181 216 257
#     4   8  14  25  42  60  79 108 144 177 208 243
#     4   9  17  30  46  64  87 115 147 182 218 255
#     4   9  17  29  44  62  87 119 150 178 211 255
#     4   9  16  27  44  64  87 117 151 183 214 254
#     4   9  17  28  45  68  90 113 144 183 224 262
#
# _framework density 16.987216
#
# number of rings (size 3 to 8) (size 9 to 14) (size 15 to 20)
#    0.000    3.091    0.000    1.091    0.000    5.091 
#    0.000    5.455    0.000    8.727    0.000    0.636 
#    0.000    0.000    0.000    0.000    0.000    0.000 
#
# Total GULP energy -545233.844831 kJ/mol
# GULP energy per Si atom -12391.678292 kJ/mol
# Density = 1.694855 g / cm^3
# Si number density = 16.987216 Si / 1000 Ang^3
#
#
#
# Elastic Constant Matrix: (Units=GPa)
#
#
# Indices 1 2 3 4 5 6 
#
# 1 59.3887 56.6012 24.6802 0.0000 0.0000 0.0000
# 2 56.6012 178.5882 56.8534 0.0000 0.0000 0.0000
# 3 24.6802 56.8534 55.3235 0.0000 0.0000 0.0000
# 4 0.0000 0.0000 0.0000 16.2491 0.0000 0.0000
# 5 0.0000 0.0000 0.0000 0.0000 13.5562 0.0000
# 6 0.0000 0.0000 0.0000 0.0000 0.0000 13.3415
#
#
#
# Elastic Compliance Matrix: (Units=1/GPa)
#
#
# Indices 1 2 3 4 5 6 
#
# 1 0.024840 -0.006458 -0.004445 0.000000 0.000000 0.000000
# 2 -0.006458 0.010001 -0.007397 0.000000 0.000000 0.000000
# 3 -0.004445 -0.007397 0.027660 0.000000 0.000000 0.000000
# 4 0.000000 0.000000 0.000000 0.061542 0.000000 0.000000
# 5 0.000000 0.000000 0.000000 0.000000 0.073767 0.000000
# 6 0.000000 0.000000 0.000000 0.000000 0.000000 0.074954
#
#
# Mechanical properties :
#
#
# Convention : Reuss Voigt Hill
#
# Bulk Modulus (GPa) = 38.60733 63.28554 50.94644
# Shear Modulus (GPa) = 15.72345 18.97372 17.34859
#
# Velocity S-wave (km/s) = 3.04568 3.34569 3.19920
# Velocity P-wave (km/s) = 5.92831 7.22915 6.61080
#
# Compressibility (1/GPa) = 0.02590182
#
# Stress axis : x y z
#
# Youngs Moduli (GPa) = 40.25764 99.99173 36.15379
#
# Poissons Ratio (x) = 0.64571 0.16071
# Poissons Ratio (y) = 0.25997 0.26741
# Poissons Ratio (z) = 0.17895 0.73960
#
# Static dielectric constant tensor:
#      x y z
#    x 3.040510 0.000000 0.000000 
#    y 0.000000 3.673020 0.000000 
#    z 0.000000 0.000000 2.800150 
# 
# 
# High freq. dielectric constant tensor:
#      x y z
#    x 1.635130 0.000000 0.000000 
#    y 0.000000 1.666320 0.000000 
#    z 0.000000 0.000000 1.609550 
# 
# From -- ./inp_files/70322.got.cif
#   From: 2010.03.12/outbox.cif.g09.slc.cpg/sg74_36_cif.got.tgz:70322.got - 2010.04.16 15:46:19.
