data_PCOD8301872
_publ_section_title
;
Structure prediction by ZEFSAII (Michael W. Deem and Ramdas Pophale) SiO2 
 PCOD8301872
Probable space group: P 41
;
_chemical_formula_sum "Si O2"
_cell_formula_units_Z 32
_cell_length_a 19.977656
_cell_length_b 19.977656
_cell_length_c 5.400651
_cell_angle_alpha 90.000000
_cell_angle_beta 90.000000
_cell_angle_gamma 90.000000
_cell_volume 2155.436210
_symmetry_space_group_name_H-M "P 41"
_symmetry_group_IT_number 76
_symmetry_cell_setting 'tetragonal'
loop_
_space_group_symop_operation_xyz
x,y,z
-y,x,1/4+z
-x,-y,1/2+z
y,-x,3/4+z
loop_
_atom_site_type_symbol
_atom_site_label
_atom_site_fract_x
_atom_site_fract_y
_atom_site_fract_z
Si Si1 0.403226 0.173121 0.720480
Si Si2 0.377653 0.691489 0.023119
Si Si3 0.485460 0.692045 0.638814
Si Si4 0.460372 0.586925 0.276026
Si Si5 0.193980 0.447093 0.518823
Si Si6 0.976054 0.416785 0.059723
Si Si7 0.044718 0.425586 0.564164
Si Si8 0.379572 0.247496 0.237128
O O1 0.481288 0.178460 0.643121
O O2 0.383842 0.097250 0.788391
O O3 0.365654 0.197519 0.469017
O O4 0.383668 0.214413 0.965834
O O5 0.422178 0.668782 0.794567
O O6 0.298735 0.683119 0.975946
O O7 0.401352 0.640537 0.235721
O O8 0.395742 0.768295 0.086254
O O9 0.503859 0.624358 0.488746
O O10 0.462530 0.759691 0.501726
O O11 0.552259 0.710895 0.792248
O O12 0.425753 0.515468 0.316139
O O13 0.123988 0.411967 0.583924
O O14 0.971602 0.496375 0.066267
O O15 0.015141 0.392430 0.813813
O O16 0.013051 0.392901 0.313560
#
# Coordination Sequence:
#
# PCOD8301872 Si02
#       8
#     4   4   4   4   4   4   4   4
#     4  10  20  35  47  67  83 114 136 178 217 272
#     4  11  22  34  46  59  83 111 147 184 228 277
#     4  10  21  35  46  58  81 110 144 185 231 283
#     4  11  25  34  44  58  75 102 145 201 245 278
#     4   9  20  31  48  64  88 106 137 171 228 272
#     4   9  17  29  48  66  92 102 131 159 211 269
#     4   9  17  28  47  72  86 108 124 162 211 276
#     4  11  22  32  50  60  84 111 150 178 223 269
#
# _framework density 14.846183
#
# number of rings (size 3 to 8) (size 9 to 14) (size 15 to 20)
#    0.000    2.000    1.250    2.250   12.250    3.000 
#    0.000    0.000    0.000    0.000    0.000    0.000 
#    0.000    0.000    0.000    0.000    0.000    0.000 
#
# Total GULP energy -396471.298395 kJ/mol
# GULP energy per Si atom -12389.728075 kJ/mol
# Density = 1.481239 g / cm^3
# Si number density = 14.846183 Si / 1000 Ang^3
#
#
#
# Elastic Constant Matrix: (Units=GPa)
#
#
# Indices 1 2 3 4 5 6 
#
# 1 67.7336 16.4705 17.5812 0.0000 0.0000 2.7793
# 2 16.4705 67.7336 17.5812 0.0000 0.0000 -2.7793
# 3 17.5812 17.5812 77.9037 0.0000 0.0000 0.0000
# 4 0.0000 0.0000 0.0000 15.2780 0.0000 0.0000
# 5 0.0000 0.0000 0.0000 0.0000 15.2780 0.0000
# 6 2.7793 -2.7793 0.0000 0.0000 0.0000 7.0607
#
#
#
# Elastic Compliance Matrix: (Units=1/GPa)
#
#
# Indices 1 2 3 4 5 6 
#
# 1 0.016744 -0.003633 -0.002959 0.000000 0.000000 -0.008021
# 2 -0.003633 0.016744 -0.002959 0.000000 0.000000 0.008021
# 3 -0.002959 -0.002959 0.014172 0.000000 0.000000 0.000000
# 4 0.000000 0.000000 0.000000 0.065454 0.000000 0.000000
# 5 0.000000 0.000000 0.000000 0.000000 0.065454 0.000000
# 6 -0.008021 0.008021 0.000000 0.000000 0.000000 0.147943
#
#
# Mechanical properties :
#
#
# Convention : Reuss Voigt Hill
#
# Bulk Modulus (GPa) = 35.01519 35.18185 35.09852
# Shear Modulus (GPa) = 14.07927 18.30586 16.19256
#
# Velocity S-wave (km/s) = 3.08286 3.51527 3.30614
# Velocity P-wave (km/s) = 6.02566 6.34233 6.18602
#
# Compressibility (1/GPa) = 0.02855903
#
# Stress axis : x y z
#
# Youngs Moduli (GPa) = 59.72202 59.72202 70.56202
#
# Poissons Ratio (x) = 0.21695 0.20879
# Poissons Ratio (y) = 0.21695 0.20879
# Poissons Ratio (z) = 0.17672 0.17672
#
# Static dielectric constant tensor:
#      x y z
#    x 2.704470 0.000000 0.000000 
#    y 0.000000 2.704470 0.000000 
#    z 0.000000 0.000000 3.043420 
# 
# 
# High freq. dielectric constant tensor:
#      x y z
#    x 1.527950 0.000000 0.000000 
#    y 0.000000 1.527950 0.000000 
#    z 0.000000 0.000000 1.585600 
# 
# From -- ./inp_files/331.got.cif
#   From: 2010.03.12/outbox.cif.g09.slc.cpg/sg76_cif.got.tgz:331.got - 2010.04.16 16:34:25.
