data_PCOD8301454
_publ_section_title
;
Structure prediction by ZEFSAII (Michael W. Deem and Ramdas Pophale) SiO2 
 PCOD8301454
Probable space group: I M M A
;
_chemical_formula_sum "Si O2"
_cell_formula_units_Z 112
_cell_length_a 22.096311
_cell_length_b 18.730118
_cell_length_c 19.026993
_cell_angle_alpha 90.000000
_cell_angle_beta 90.000000
_cell_angle_gamma 90.000000
_cell_volume 7874.635234
_symmetry_space_group_name_H-M "I M M A"
_symmetry_group_IT_number 74
_symmetry_cell_setting 'orthorhombic'
loop_
_space_group_symop_operation_xyz
x,y,z
-x,1/2-y,z
x,-y,-z
-x,1/2+y,-z
-x,-y,-z
x,1/2+y,-z
-x,y,z
x,1/2-y,z
1/2+x,1/2+y,1/2+z
1/2-x,-y,1/2+z
1/2+x,1/2-y,1/2-z
1/2-x,y,1/2-z
1/2-x,1/2-y,1/2-z
1/2+x,y,1/2-z
1/2-x,1/2+y,1/2+z
1/2+x,-y,1/2+z
loop_
_atom_site_type_symbol
_atom_site_label
_atom_site_fract_x
_atom_site_fract_y
_atom_site_fract_z
Si Si1 0.566037 0.858540 0.372454
Si Si2 0.153711 0.450132 0.724659
Si Si3 0.651586 0.052628 0.438437
Si Si4 0.183024 0.831447 0.041939
Si Si5 0.932266 0.327592 0.715716
Si Si6 0.068960 0.480589 0.177771
Si Si7 0.268418 0.555455 0.359444
O O1 0.500000 0.843404 0.406258
O O2 0.616183 0.830559 0.425333
O O3 0.571991 0.817664 0.299317
O O4 0.573130 0.942232 0.357841
O O5 0.115168 0.386235 0.689783
O O6 0.108531 0.514841 0.749404
O O7 0.201511 0.470192 0.664187
O O8 0.190154 0.423314 0.793117
O O9 0.677013 0.127443 0.467713
O O10 0.626451 0.000000 0.500000
O O11 0.599237 0.070924 0.380810
O O12 0.706677 0.012861 0.400224
O O13 0.205525 0.750000 0.030511
O O14 0.230957 0.874010 0.091180
O O15 0.917550 0.250000 0.682042
O O16 0.000000 0.352643 0.694614
O O17 0.000000 0.457094 0.194573
#
# Coordination Sequence:
#
# PCOD8301454 Si02
#       7
#    16  16  16  16  16  16  16
#     4   9  15  23  34  50  74 105 136 158 181 215
#     4   9  15  25  38  56  73  98 134 168 193 230
#     4   9  16  29  38  53  76 107 139 165 191 230
#     4  11  19  27  37  54  79 106 139 172 194 222
#     4   9  15  22  32  48  77 109 128 148 182 223
#     4   9  15  25  42  59  76 101 133 165 195 231
#     4   9  17  27  39  52  75 103 136 168 198 227
#
# _framework density 14.22288
#
# number of rings (size 3 to 8) (size 9 to 14) (size 15 to 20)
#    0.000    2.714    5.714    1.714    0.000    2.286 
#    0.000    1.429    0.000    0.000    0.000    8.000 
#    0.000   20.571    0.000    1.143    0.000    0.000 
#
# Total GULP energy -693733.971862 kJ/mol
# GULP energy per Si atom -12388.106640 kJ/mol
# Density = 1.419051 g / cm^3
# Si number density = 14.222880 Si / 1000 Ang^3
#
#
#
# Elastic Constant Matrix: (Units=GPa)
#
#
# Indices 1 2 3 4 5 6 
#
# 1 92.6269 14.2744 39.0839 0.0000 0.0000 0.0000
# 2 14.2744 44.4083 18.3759 0.0000 0.0000 0.0000
# 3 39.0839 18.3759 36.9637 0.0000 0.0000 0.0000
# 4 0.0000 0.0000 0.0000 9.1890 0.0000 0.0000
# 5 0.0000 0.0000 0.0000 0.0000 20.3509 0.0000
# 6 0.0000 0.0000 0.0000 0.0000 0.0000 9.3830
#
#
#
# Elastic Compliance Matrix: (Units=1/GPa)
#
#
# Indices 1 2 3 4 5 6 
#
# 1 0.019783 0.002892 -0.022355 0.000000 0.000000 0.000000
# 2 0.002892 0.028773 -0.017361 0.000000 0.000000 0.000000
# 3 -0.022355 -0.017361 0.059322 0.000000 0.000000 0.000000
# 4 0.000000 0.000000 0.000000 0.108825 0.000000 0.000000
# 5 0.000000 0.000000 0.000000 0.000000 0.049138 0.000000
# 6 0.000000 0.000000 0.000000 0.000000 0.000000 0.106576
#
#
# Mechanical properties :
#
#
# Convention : Reuss Voigt Hill
#
# Bulk Modulus (GPa) = 29.21605 35.27415 32.24510
# Shear Modulus (GPa) = 10.92949 14.60223 12.76586
#
# Velocity S-wave (km/s) = 2.77509 3.20765 2.99918
# Velocity P-wave (km/s) = 5.55467 6.21076 5.89185
#
# Compressibility (1/GPa) = 0.03422776
#
# Stress axis : x y z
#
# Youngs Moduli (GPa) = 50.54775 34.75489 16.85709
#
# Poissons Ratio (x) = -0.10050 0.37685
# Poissons Ratio (y) = -0.14616 0.29266
# Poissons Ratio (z) = 1.13002 0.60339
#
# Static dielectric constant tensor:
#      x y z
#    x 2.992540 0.000000 0.000000 
#    y 0.000000 2.606640 0.000000 
#    z 0.000000 0.000000 2.614080 
# 
# 
# High freq. dielectric constant tensor:
#      x y z
#    x 1.542150 0.000000 0.000000 
#    y 0.000000 1.507800 0.000000 
#    z 0.000000 0.000000 1.498970 
# 
# From -- ./inp_files/45562.got.cif
#   From: 2010.03.12/outbox.cif.g09.slc.cpg/sg74_23_cif.got.tgz:45562.got - 2010.04.16 15:46:19.
