data_PCOD8301099
_publ_section_title
;
Structure prediction by ZEFSAII (Michael W. Deem and Ramdas Pophale) SiO2 
 PCOD8301099
Probable space group: I M M A
;
_chemical_formula_sum "Si O2"
_cell_formula_units_Z 112
_cell_length_a 14.511558
_cell_length_b 30.766004
_cell_length_c 11.604464
_cell_angle_alpha 90.000000
_cell_angle_beta 90.000000
_cell_angle_gamma 90.000000
_cell_volume 5180.959766
_symmetry_space_group_name_H-M "I M M A"
_symmetry_group_IT_number 74
_symmetry_cell_setting 'orthorhombic'
loop_
_space_group_symop_operation_xyz
x,y,z
-x,1/2-y,z
x,-y,-z
-x,1/2+y,-z
-x,-y,-z
x,1/2+y,-z
-x,y,z
x,1/2-y,z
1/2+x,1/2+y,1/2+z
1/2-x,-y,1/2+z
1/2+x,1/2-y,1/2-z
1/2-x,y,1/2-z
1/2-x,1/2-y,1/2-z
1/2+x,y,1/2-z
1/2-x,1/2+y,1/2+z
1/2+x,-y,1/2+z
loop_
_atom_site_type_symbol
_atom_site_label
_atom_site_fract_x
_atom_site_fract_y
_atom_site_fract_z
Si Si1 0.104897 0.849030 0.534592
Si Si2 0.105257 0.051084 0.075261
Si Si3 0.895452 0.865479 0.785476
Si Si4 0.162626 0.535667 0.170481
Si Si5 0.719463 0.298852 0.414328
Si Si6 0.895534 0.877295 0.292346
Si Si7 0.608812 0.298673 0.644634
O O1 0.109564 0.877896 0.650328
O O2 0.175719 0.809381 0.549133
O O3 0.137461 0.878600 0.425714
O O4 0.000000 0.830977 0.517605
O O5 0.137750 0.092682 0.145028
O O6 0.000000 0.055448 0.029594
O O7 0.107384 0.009726 0.162357
O O8 0.174812 0.048157 0.965330
O O9 0.822862 0.827321 0.810607
O O10 0.000000 0.851889 0.818834
O O11 0.250000 0.525971 0.250000
O O12 0.114319 0.576125 0.232839
O O13 0.717300 0.250000 0.369045
O O14 0.652673 0.306378 0.521216
O O15 0.847678 0.836552 0.226392
O O16 0.000000 0.863887 0.291638
O O17 0.500000 0.303787 0.628807
O O18 0.632927 0.250000 0.692342
#
# Coordination Sequence:
#
# PCOD8301099 Si02
#       7
#    16  16  16  16  16  16  16
#     4  10  24  41  57  84 124 171 214 253 310 384
#     4  10  22  45  70  91 124 171 214 255 317 393
#     4  10  22  42  67  91 118 161 212 265 321 380
#     4  11  23  37  62 100 127 153 206 263 314 368
#     4  11  23  38  61  91 121 160 214 272 324 376
#     4  10  21  39  61  86 124 167 205 256 320 380
#     4   9  19  36  60  90 120 156 208 266 321 378
#
# _framework density 21.617616000000002
#
# number of rings (size 3 to 8) (size 9 to 14) (size 15 to 20)
#    0.000    1.857    0.000    3.429    4.000    6.286 
#    2.571    4.286    0.000    3.429    0.000    0.000 
#    0.000    0.000    0.000    0.000    0.000    0.000 
#
# Total GULP energy -693756.012168 kJ/mol
# GULP energy per Si atom -12388.500217 kJ/mol
# Density = 2.156841 g / cm^3
# Si number density = 21.617616 Si / 1000 Ang^3
#
#
#
# Elastic Constant Matrix: (Units=GPa)
#
#
# Indices 1 2 3 4 5 6 
#
# 1 70.1741 30.7295 41.7018 0.0001 -0.0002 0.0000
# 2 30.7295 136.9970 71.9662 -0.0001 -0.0001 -0.0001
# 3 41.7018 71.9662 147.7696 -0.0033 0.0006 -0.0001
# 4 0.0001 -0.0001 -0.0033 8.2165 0.0001 -0.0001
# 5 -0.0002 -0.0001 0.0006 0.0001 27.0219 -0.0001
# 6 0.0000 -0.0001 -0.0001 -0.0001 -0.0001 27.8210
#
#
#
# Elastic Compliance Matrix: (Units=1/GPa)
#
#
# Indices 1 2 3 4 5 6 
#
# 1 0.017440 -0.001782 -0.004054 -0.000002 0.000000 0.000000
# 2 -0.001782 0.009991 -0.004363 -0.000002 0.000000 0.000000
# 3 -0.004054 -0.004363 0.010036 0.000004 0.000000 0.000000
# 4 -0.000002 -0.000002 0.000004 0.121707 -0.000001 0.000000
# 5 0.000000 0.000000 0.000000 -0.000001 0.037007 0.000000
# 6 0.000000 0.000000 0.000000 0.000000 0.000000 0.035944
#
#
# Mechanical properties :
#
#
# Convention : Reuss Voigt Hill
#
# Bulk Modulus (GPa) = 58.58521 71.52617 65.05569
# Shear Modulus (GPa) = 19.36395 26.64809 23.00602
#
# Velocity S-wave (km/s) = 2.99615 3.51480 3.26579
# Velocity P-wave (km/s) = 6.25530 7.04489 6.66180
#
# Compressibility (1/GPa) = 0.01706915
#
# Stress axis : x y z
#
# Youngs Moduli (GPa) = 57.34048 100.08931 99.64153
#
# Poissons Ratio (x) = 0.17841 0.40390
# Poissons Ratio (y) = 0.10221 0.43471
# Poissons Ratio (z) = 0.23243 0.43667
#
# Static dielectric constant tensor:
#      x y z
#    x 3.908710 0.000000 0.000000 
#    y 0.000000 3.903170 0.000000 
#    z 0.000000 0.000000 4.199190 
# 
# 
# High freq. dielectric constant tensor:
#      x y z
#    x 1.845020 0.000000 0.000000 
#    y 0.000000 1.840630 0.000000 
#    z 0.000000 0.000000 1.860310 
# 
# From -- ./inp_files/21144.got.cif
#   From: 2010.03.12/outbox.cif.g09.slc.cpg/sg74_11_cif.got.tgz:21144.got - 2010.04.16 15:46:19.
