data_PCOD8301434
_publ_section_title
;
Structure prediction by ZEFSAII (Michael W. Deem and Ramdas Pophale) SiO2 
 PCOD8301434
Probable space group: I M M A
;
_chemical_formula_sum "Si O2"
_cell_formula_units_Z 80
_cell_length_a 19.262130
_cell_length_b 27.379389
_cell_length_c 7.395433
_cell_angle_alpha 90.000000
_cell_angle_beta 90.000000
_cell_angle_gamma 90.000000
_cell_volume 3900.243023
_symmetry_space_group_name_H-M "I M M A"
_symmetry_group_IT_number 74
_symmetry_cell_setting 'orthorhombic'
loop_
_space_group_symop_operation_xyz
x,y,z
-x,1/2-y,z
x,-y,-z
-x,1/2+y,-z
-x,-y,-z
x,1/2+y,-z
-x,y,z
x,1/2-y,z
1/2+x,1/2+y,1/2+z
1/2-x,-y,1/2+z
1/2+x,1/2-y,1/2-z
1/2-x,y,1/2-z
1/2-x,1/2-y,1/2-z
1/2+x,y,1/2-z
1/2-x,1/2+y,1/2+z
1/2+x,-y,1/2+z
loop_
_atom_site_type_symbol
_atom_site_label
_atom_site_fract_x
_atom_site_fract_y
_atom_site_fract_z
Si Si1 0.209982 0.304612 0.029483
Si Si2 0.078041 0.599269 0.441956
Si Si3 0.921421 0.444596 0.938403
Si Si4 0.145438 0.304914 0.650105
Si Si5 0.674037 0.897408 0.724189
O O1 0.213142 0.250000 0.108886
O O2 0.156645 0.306339 0.864368
O O3 0.285089 0.321669 0.955184
O O4 0.184373 0.338938 0.194192
O O5 0.095074 0.563349 0.274148
O O6 0.085154 0.656422 0.391467
O O7 0.128932 0.586508 0.605144
O O8 0.000000 0.590166 0.509793
O O9 0.000000 0.425730 0.978223
O O10 0.914158 0.500000 0.000000
O O11 0.863421 0.414664 0.043225
O O12 0.123244 0.250000 0.592229
O O13 0.750000 0.921858 0.750000
#
# Coordination Sequence:
#
# PCOD8301434 Si02
#       5
#    16  16  16  16  16
#     4   9  18  34  59  89 126 171 210 248 304 371
#     4  11  23  39  64  92 122 165 213 259 310 378
#     4  10  24  48  69  87 122 166 203 252 321 388
#     4   9  17  34  59  87 124 170 213 253 303 367
#     4  12  23  38  64  98 126 160 204 263 308 368
#
# _framework density 20.511543
#
# number of rings (size 3 to 8) (size 9 to 14) (size 15 to 20)
#    0.000    1.800    4.000    1.800    0.000    3.200 
#    3.600    3.000    0.000    1.800    0.000    0.000 
#    0.000    0.000    0.000    0.000    0.000    0.000 
#
# Total GULP energy -495866.322678 kJ/mol
# GULP energy per Si atom -12396.658067 kJ/mol
# Density = 2.046486 g / cm^3
# Si number density = 20.511543 Si / 1000 Ang^3
#
#
#
# Elastic Constant Matrix: (Units=GPa)
#
#
# Indices 1 2 3 4 5 6 
#
# 1 122.5939 32.7245 66.6052 0.0000 0.0000 0.0000
# 2 32.7245 72.8496 30.0908 0.0000 0.0000 0.0000
# 3 66.6052 30.0908 126.9892 0.0000 0.0000 0.0000
# 4 0.0000 0.0000 0.0000 26.4467 0.0000 0.0000
# 5 0.0000 0.0000 0.0000 0.0000 40.0373 0.0000
# 6 0.0000 0.0000 0.0000 0.0000 0.0000 30.8281
#
#
#
# Elastic Compliance Matrix: (Units=1/GPa)
#
#
# Indices 1 2 3 4 5 6 
#
# 1 0.012006 -0.003095 -0.005564 0.000000 0.000000 0.000000
# 2 -0.003095 0.016014 -0.002171 0.000000 0.000000 0.000000
# 3 -0.005564 -0.002171 0.011307 0.000000 0.000000 0.000000
# 4 0.000000 0.000000 0.000000 0.037812 0.000000 0.000000
# 5 0.000000 0.000000 0.000000 0.000000 0.024977 0.000000
# 6 0.000000 0.000000 0.000000 0.000000 0.000000 0.032438
#
#
# Mechanical properties :
#
#
# Convention : Reuss Voigt Hill
#
# Bulk Modulus (GPa) = 56.60171 64.58597 60.59384
# Shear Modulus (GPa) = 30.84463 32.32993 31.58728
#
# Velocity S-wave (km/s) = 3.88205 3.97442 3.92851
# Velocity P-wave (km/s) = 6.91005 7.25378 7.08400
#
# Compressibility (1/GPa) = 0.01766731
#
# Stress axis : x y z
#
# Youngs Moduli (GPa) = 83.29236 62.44508 88.43853
#
# Poissons Ratio (x) = 0.19327 0.49204
# Poissons Ratio (y) = 0.25779 0.19203
# Poissons Ratio (z) = 0.46341 0.13559
#
# Static dielectric constant tensor:
#      x y z
#    x 3.680520 0.000000 0.000000 
#    y 0.000000 3.654150 0.000000 
#    z 0.000000 0.000000 3.738950 
# 
# 
# High freq. dielectric constant tensor:
#      x y z
#    x 1.787710 0.000000 0.000000 
#    y 0.000000 1.788080 0.000000 
#    z 0.000000 0.000000 1.817370 
# 
# From -- ./inp_files/10890.got.cif
#   From: 2010.03.12/outbox.cif.g09.slc.cpg/sg74_6_cif.got.tgz:10890.got - 2010.04.16 15:46:19.
