data_PCOD8301738
_publ_section_title
;
Structure prediction by ZEFSAII (Michael W. Deem and Ramdas Pophale) SiO2 
 PCOD8301738
Probable space group: I M M A
;
_chemical_formula_sum "Si O2"
_cell_formula_units_Z 40
_cell_length_a 10.642954
_cell_length_b 21.457563
_cell_length_c 7.430298
_cell_angle_alpha 90.000000
_cell_angle_beta 90.000000
_cell_angle_gamma 90.000000
_cell_volume 1696.870945
_symmetry_space_group_name_H-M "I M M A"
_symmetry_group_IT_number 74
_symmetry_cell_setting 'orthorhombic'
loop_
_space_group_symop_operation_xyz
x,y,z
-x,1/2-y,z
x,-y,-z
-x,1/2+y,-z
-x,-y,-z
x,1/2+y,-z
-x,y,z
x,1/2-y,z
1/2+x,1/2+y,1/2+z
1/2-x,-y,1/2+z
1/2+x,1/2-y,1/2-z
1/2-x,y,1/2-z
1/2-x,1/2-y,1/2-z
1/2+x,y,1/2-z
1/2-x,1/2+y,1/2+z
1/2+x,-y,1/2+z
loop_
_atom_site_type_symbol
_atom_site_label
_atom_site_fract_x
_atom_site_fract_y
_atom_site_fract_z
Si Si1 0.500000 0.059178 0.875912
Si Si2 0.500000 0.321563 0.120003
Si Si3 0.250000 0.096611 0.750000
Si Si4 0.859501 0.819776 0.963252
O O1 0.373595 0.053528 0.758172
O O2 0.500000 0.127385 0.965845
O O3 0.500000 0.000000 0.000000
O O4 0.500000 0.250000 0.045346
O O5 0.374937 0.331542 0.246649
O O6 0.259694 0.136916 0.566339
O O7 0.811716 0.750000 0.996916
O O8 0.000000 0.828874 0.049424
#
# Coordination Sequence:
#
# PCOD8301738 Si02
#       4
#     8   8   8  16
#     4  12  29  46  68  98 130 178 223 274 334 398
#     4   8  19  42  67  96 133 174 223 272 328 392
#     4  12  23  44  66  96 135 176 224 272 334 394
#     4   8  17  37  65 101 137 172 216 272 327 386
#
# _framework density 23.572801999999999
#
# number of rings (size 3 to 8) (size 9 to 14) (size 15 to 20)
#    1.200    1.200    2.000    0.600    0.000    8.000 
#    0.000    7.000    0.000    0.000    0.000    0.000 
#    0.000    0.000    0.000    0.000    0.000    0.000 
#
# Total GULP energy -247798.657367 kJ/mol
# GULP energy per Si atom -12389.932868 kJ/mol
# Density = 2.351915 g / cm^3
# Si number density = 23.572802 Si / 1000 Ang^3
#
#
#
# Elastic Constant Matrix: (Units=GPa)
#
#
# Indices 1 2 3 4 5 6 
#
# 1 128.0851 28.8484 12.0635 0.0003 -0.0013 0.0003
# 2 28.8484 90.7956 25.0536 -0.0013 -0.0004 0.0002
# 3 12.0635 25.0536 58.8893 -0.0107 0.0077 -0.0003
# 4 0.0003 -0.0013 -0.0107 29.3146 0.0019 -0.0003
# 5 -0.0013 -0.0004 0.0077 0.0019 3.1220 -0.0004
# 6 0.0003 0.0002 -0.0003 -0.0003 -0.0004 4.7168
#
#
#
# Elastic Compliance Matrix: (Units=1/GPa)
#
#
# Indices 1 2 3 4 5 6 
#
# 1 0.008432 -0.002495 -0.000666 0.000000 0.000005 -0.000001
# 2 -0.002495 0.013217 -0.005112 -0.000001 0.000013 -0.000001
# 3 -0.000666 -0.005112 0.019292 0.000007 -0.000049 0.000002
# 4 0.000000 -0.000001 0.000007 0.034113 -0.000020 0.000002
# 5 0.000005 0.000013 -0.000049 -0.000020 0.320312 0.000026
# 6 -0.000001 -0.000001 0.000002 0.000002 0.000026 0.212007
#
#
# Mechanical properties :
#
#
# Convention : Reuss Voigt Hill
#
# Bulk Modulus (GPa) = 40.99127 45.52234 43.25681
# Shear Modulus (GPa) = 7.91075 21.55099 14.73087
#
# Velocity S-wave (km/s) = 1.83389 3.02691 2.50253
# Velocity P-wave (km/s) = 4.68094 5.61868 5.17111
#
# Compressibility (1/GPa) = 0.02439544
#
# Stress axis : x y z
#
# Youngs Moduli (GPa) = 118.59524 75.65925 51.83458
#
# Poissons Ratio (x) = 0.18880 0.03450
# Poissons Ratio (y) = 0.29595 0.26497
# Poissons Ratio (z) = 0.07894 0.38676
#
# Static dielectric constant tensor:
#      x y z
#    x 4.630790 0.000000 0.000000 
#    y 0.000000 3.682040 0.000000 
#    z 0.000000 0.000000 3.843990 
# 
# 
# High freq. dielectric constant tensor:
#      x y z
#    x 1.965230 0.000000 0.000000 
#    y 0.000000 1.890390 0.000000 
#    z 0.000000 0.000000 1.913060 
# 
# From -- ./inp_files/6615.got.cif
#   From: 2010.03.12/outbox.cif.g09.slc.cpg/sg74_4_cif.got.tgz:6615.got - 2010.04.16 15:46:19.
