data_PCOD8301271
_publ_section_title
;
Structure prediction by ZEFSAII (Michael W. Deem and Ramdas Pophale) SiO2 
 PCOD8301271
Probable space group: I M M A
;
_chemical_formula_sum "Si O2"
_cell_formula_units_Z 48
_cell_length_a 13.896769
_cell_length_b 26.850874
_cell_length_c 5.780394
_cell_angle_alpha 90.000000
_cell_angle_beta 90.000000
_cell_angle_gamma 90.000000
_cell_volume 2156.898491
_symmetry_space_group_name_H-M "I M M A"
_symmetry_group_IT_number 74
_symmetry_cell_setting 'orthorhombic'
loop_
_space_group_symop_operation_xyz
x,y,z
-x,1/2-y,z
x,-y,-z
-x,1/2+y,-z
-x,-y,-z
x,1/2+y,-z
-x,y,z
x,1/2-y,z
1/2+x,1/2+y,1/2+z
1/2-x,-y,1/2+z
1/2+x,1/2-y,1/2-z
1/2-x,y,1/2-z
1/2-x,1/2-y,1/2-z
1/2+x,y,1/2-z
1/2-x,1/2+y,1/2+z
1/2+x,-y,1/2+z
loop_
_atom_site_type_symbol
_atom_site_label
_atom_site_fract_x
_atom_site_fract_y
_atom_site_fract_z
Si Si1 0.750000 0.027879 0.250000
Si Si2 0.608242 0.397182 0.408520
Si Si3 0.393735 0.806345 0.915424
Si Si4 0.250000 0.356886 0.750000
O O1 0.654354 0.062473 0.233792
O O2 0.746865 0.000000 0.500000
O O3 0.500000 0.413795 0.471967
O O4 0.610687 0.341836 0.305637
O O5 0.674825 0.394949 0.634272
O O6 0.500000 0.811958 0.033580
O O7 0.378005 0.750000 0.828173
O O8 0.308506 0.820244 0.085747
#
# Coordination Sequence:
#
# PCOD8301271 Si02
#       4
#     8  16  16   8
#     4  12  27  50  76 106 141 185 246 305 366 432
#     4  11  25  45  69 100 141 182 230 294 357 426
#     4  10  22  39  64 100 140 184 230 280 348 428
#     4  12  20  40  65  98 138 189 230 285 343 422
#
# _framework density 22.254175
#
# number of rings (size 3 to 8) (size 9 to 14) (size 15 to 20)
#    0.000    1.000    3.333    2.500    0.000    5.333 
#    0.000    3.333    0.000    0.000    0.000    0.000 
#    0.000    0.000    0.000    0.000    0.000    0.000 
#
# Total GULP energy -297473.838334 kJ/mol
# GULP energy per Si atom -12394.743264 kJ/mol
# Density = 2.220352 g / cm^3
# Si number density = 22.254175 Si / 1000 Ang^3
#
#
#
# Elastic Constant Matrix: (Units=GPa)
#
#
# Indices 1 2 3 4 5 6 
#
# 1 202.4011 54.1732 58.8583 0.0158 0.0034 0.0459
# 2 54.1732 110.5022 37.9051 -0.0446 0.0219 0.1642
# 3 58.8583 37.9051 92.9393 -0.2618 -0.0513 0.4649
# 4 0.0158 -0.0446 -0.2618 34.3445 0.0374 0.1711
# 5 0.0034 0.0219 -0.0513 0.0374 30.7570 0.0347
# 6 0.0459 0.1642 0.4649 0.1711 0.0347 8.1171
#
#
#
# Elastic Compliance Matrix: (Units=1/GPa)
#
#
# Indices 1 2 3 4 5 6 
#
# 1 0.006429 -0.002041 -0.003240 -0.000031 -0.000005 0.000191
# 2 -0.002041 0.011169 -0.003263 -0.000009 -0.000013 -0.000027
# 3 -0.003240 -0.003263 0.014147 0.000109 0.000027 -0.000728
# 4 -0.000031 -0.000009 0.000109 0.029121 -0.000035 -0.000620
# 5 -0.000005 -0.000013 0.000027 -0.000035 0.032513 -0.000139
# 6 0.000191 -0.000027 -0.000728 -0.000620 -0.000139 0.123252
#
#
# Mechanical properties :
#
#
# Convention : Reuss Voigt Hill
#
# Bulk Modulus (GPa) = 68.22598 78.63510 73.43054
# Shear Modulus (GPa) = 20.95518 31.63745 26.29631
#
# Velocity S-wave (km/s) = 3.07193 3.77456 3.44122
# Velocity P-wave (km/s) = 6.58077 7.37618 6.98980
#
# Compressibility (1/GPa) = 0.01465717
#
# Stress axis : x y z
#
# Youngs Moduli (GPa) = 155.54246 89.53103 70.68858
#
# Poissons Ratio (x) = 0.18270 0.22905
# Poissons Ratio (y) = 0.31740 0.23065
# Poissons Ratio (z) = 0.50401 0.29214
#
# Static dielectric constant tensor:
#      x y z
#    x 4.583660 0.000080 0.000140 
#    y 0.000080 4.114420 -0.000140 
#    z 0.000140 -0.000140 3.791400 
# 
# 
# High freq. dielectric constant tensor:
#      x y z
#    x 1.901640 0.000000 0.000000 
#    y 0.000000 1.879920 -0.000020 
#    z 0.000000 -0.000020 1.854630 
# 
# From -- ./inp_files/1337.got.cif
#   From: 2010.03.12/outbox.cif.g09.slc.cpg/sg74_1_cif.got.tgz:1337.got - 2010.04.16 15:46:19.
