data_PCOD8301479
_publ_section_title
;
Structure prediction by ZEFSAII (Michael W. Deem and Ramdas Pophale) SiO2 
 PCOD8301479
Probable space group: I M M A
;
_chemical_formula_sum "Si O2"
_cell_formula_units_Z 112
_cell_length_a 17.629708
_cell_length_b 17.795241
_cell_length_c 17.941191
_cell_angle_alpha 90.000000
_cell_angle_beta 90.000000
_cell_angle_gamma 90.000000
_cell_volume 5628.598399
_symmetry_space_group_name_H-M "I M M A"
_symmetry_group_IT_number 74
_symmetry_cell_setting 'orthorhombic'
loop_
_space_group_symop_operation_xyz
x,y,z
-x,1/2-y,z
x,-y,-z
-x,1/2+y,-z
-x,-y,-z
x,1/2+y,-z
-x,y,z
x,1/2-y,z
1/2+x,1/2+y,1/2+z
1/2-x,-y,1/2+z
1/2+x,1/2-y,1/2-z
1/2-x,y,1/2-z
1/2-x,1/2-y,1/2-z
1/2+x,y,1/2-z
1/2-x,1/2+y,1/2+z
1/2+x,-y,1/2+z
loop_
_atom_site_type_symbol
_atom_site_label
_atom_site_fract_x
_atom_site_fract_y
_atom_site_fract_z
Si Si1 0.378892 0.475823 0.581315
Si Si2 0.912219 0.666458 0.172480
Si Si3 0.671761 0.921321 0.205341
Si Si4 0.737061 0.336019 0.420293
Si Si5 0.172989 0.409627 0.294545
Si Si6 0.914561 0.119929 0.159815
Si Si7 0.718843 0.937070 0.049309
O O1 0.411356 0.500000 0.500000
O O2 0.396053 0.389389 0.602973
O O3 0.415211 0.530235 0.643313
O O4 0.287771 0.487934 0.584290
O O5 0.875828 0.750000 0.158413
O O6 0.885096 0.632596 0.251277
O O7 0.000000 0.677557 0.181128
O O8 0.750000 0.916266 0.250000
O O9 0.676459 0.896547 0.118055
O O10 0.641724 0.006205 0.197322
O O11 0.757511 0.250000 0.426782
O O12 0.806601 0.370721 0.372276
O O13 0.649855 0.343587 0.392598
O O14 0.742531 0.371717 0.501690
O O15 0.250000 0.409709 0.250000
O O16 0.109196 0.365297 0.246085
O O17 0.000000 0.152489 0.146208
O O18 0.672106 0.000000 0.000000
#
# Coordination Sequence:
#
# PCOD8301479 Si02
#       7
#    16  16  16  16  16  16  16
#     4  11  20  38  59  83 117 163 199 233 285 354
#     4  11  25  41  58  88 126 160 197 249 308 354
#     4  11  19  36  63  86 115 152 203 248 290 349
#     4  11  23  39  58  84 119 157 195 244 307 352
#     4   9  18  34  59  84 109 150 198 242 283 347
#     4  11  21  35  59  87 115 155 203 238 279 355
#     4  11  19  37  61  88 116 150 199 252 292 355
#
# _framework density 19.89838
#
# number of rings (size 3 to 8) (size 9 to 14) (size 15 to 20)
#    0.000    1.286    7.143    1.286    0.000    5.429 
#    0.000    0.000    0.000    1.286    0.000    0.000 
#    0.000    0.000    0.000    0.000    0.000    0.000 
#
# Total GULP energy -693774.309556 kJ/mol
# GULP energy per Si atom -12388.826956 kJ/mol
# Density = 1.985309 g / cm^3
# Si number density = 19.898380 Si / 1000 Ang^3
#
#
#
# Elastic Constant Matrix: (Units=GPa)
#
#
# Indices 1 2 3 4 5 6 
#
# 1 38.1622 19.1307 41.6142 0.0000 0.0000 0.0000
# 2 19.1307 110.7344 42.4422 0.0000 0.0000 0.0000
# 3 41.6142 42.4422 137.5537 0.0000 0.0000 0.0000
# 4 0.0000 0.0000 0.0000 8.9444 0.0000 0.0000
# 5 0.0000 0.0000 0.0000 0.0000 17.4289 0.0000
# 6 0.0000 0.0000 0.0000 0.0000 0.0000 13.8946
#
#
#
# Elastic Compliance Matrix: (Units=1/GPa)
#
#
# Indices 1 2 3 4 5 6 
#
# 1 0.039734 -0.002560 -0.011231 0.000000 0.000000 0.000000
# 2 -0.002560 0.010407 -0.002437 0.000000 0.000000 0.000000
# 3 -0.011231 -0.002437 0.011419 0.000000 0.000000 0.000000
# 4 0.000000 0.000000 0.000000 0.111802 0.000000 0.000000
# 5 0.000000 0.000000 0.000000 0.000000 0.057376 0.000000
# 6 0.000000 0.000000 0.000000 0.000000 0.000000 0.071970
#
#
# Mechanical properties :
#
#
# Convention : Reuss Voigt Hill
#
# Bulk Modulus (GPa) = 34.35787 54.75827 44.55807
# Shear Modulus (GPa) = 14.49842 20.27113 17.38477
#
# Velocity S-wave (km/s) = 2.70223 3.19522 2.95901
# Velocity P-wave (km/s) = 5.20002 6.41804 5.84087
#
# Compressibility (1/GPa) = 0.02910542
#
# Stress axis : x y z
#
# Youngs Moduli (GPa) = 25.16730 96.09142 87.57052
#
# Poissons Ratio (x) = 0.24599 0.98350
# Poissons Ratio (y) = 0.06443 0.21337
# Poissons Ratio (z) = 0.28265 0.23413
#
# Static dielectric constant tensor:
#      x y z
#    x 3.443560 0.000000 0.000000 
#    y 0.000000 3.723550 0.000000 
#    z 0.000000 0.000000 6.132050 
# 
# 
# High freq. dielectric constant tensor:
#      x y z
#    x 1.728350 0.000000 0.000000 
#    y 0.000000 1.768880 0.000000 
#    z 0.000000 0.000000 1.781850 
# 
# From -- ./inp_files/45444.got.cif
#   From: 2010.03.12/outbox.cif.g09.slc.cpg/sg74_23_cif.got.tgz:45444.got - 2010.04.16 15:46:19.
