data_PCOD8301459
_publ_section_title
;
Structure prediction by ZEFSAII (Michael W. Deem and Ramdas Pophale) SiO2 
 PCOD8301459
Probable space group: I M M A
;
_chemical_formula_sum "Si O2"
_cell_formula_units_Z 80
_cell_length_a 18.831309
_cell_length_b 27.910984
_cell_length_c 9.072216
_cell_angle_alpha 90.000000
_cell_angle_beta 90.000000
_cell_angle_gamma 90.000000
_cell_volume 4768.360034
_symmetry_space_group_name_H-M "I M M A"
_symmetry_group_IT_number 74
_symmetry_cell_setting 'orthorhombic'
loop_
_space_group_symop_operation_xyz
x,y,z
-x,1/2-y,z
x,-y,-z
-x,1/2+y,-z
-x,-y,-z
x,1/2+y,-z
-x,y,z
x,1/2-y,z
1/2+x,1/2+y,1/2+z
1/2-x,-y,1/2+z
1/2+x,1/2-y,1/2-z
1/2-x,y,1/2-z
1/2-x,1/2-y,1/2-z
1/2+x,y,1/2-z
1/2-x,1/2+y,1/2+z
1/2+x,-y,1/2+z
loop_
_atom_site_type_symbol
_atom_site_label
_atom_site_fract_x
_atom_site_fract_y
_atom_site_fract_z
Si Si1 0.581876 0.018346 0.663817
Si Si2 0.175484 0.111278 0.833719
Si Si3 0.685475 0.966850 0.859960
Si Si4 0.768616 0.636100 0.587310
Si Si5 0.823054 0.302193 0.663437
O O1 0.500000 0.026892 0.700768
O O2 0.622775 0.067782 0.683705
O O3 0.593625 0.000000 0.500000
O O4 0.611818 0.979699 0.779450
O O5 0.250000 0.100694 0.750000
O O6 0.135397 0.157142 0.757713
O O7 0.194860 0.122123 0.004062
O O8 0.750000 0.976731 0.750000
O O9 0.681849 0.911210 0.906093
O O10 0.698687 0.000000 0.000000
O O11 0.750000 0.654952 0.750000
O O12 0.809770 0.678518 0.502511
O O13 0.861788 0.250000 0.655576
O O14 0.750000 0.295452 0.750000
#
# Coordination Sequence:
#
# PCOD8301459 Si02
#       5
#    16  16  16  16  16
#     4  11  22  33  46  68  98 128 157 193 235 275
#     4   9  17  31  49  67  90 123 157 186 223 274
#     4  11  19  30  48  68  94 127 162 193 224 275
#     4   9  16  24  42  68  91 117 149 185 227 272
#     4   8  15  28  45  65  89 116 147 186 229 269
#
# _framework density 16.777256000000001
#
# number of rings (size 3 to 8) (size 9 to 14) (size 15 to 20)
#    0.000    2.800    0.000    7.200    0.000    1.600 
#    0.000    0.000    0.000    0.600    0.000    0.000 
#    0.000    1.600    0.000    0.000    0.000    0.000 
#
# Total GULP energy -495676.201653 kJ/mol
# GULP energy per Si atom -12391.905041 kJ/mol
# Density = 1.673907 g / cm^3
# Si number density = 16.777256 Si / 1000 Ang^3
#
#
#
# Elastic Constant Matrix: (Units=GPa)
#
#
# Indices 1 2 3 4 5 6 
#
# 1 61.2966 44.8943 29.5364 0.0000 0.0000 0.0001
# 2 44.8943 143.2002 46.8829 0.0000 0.0000 0.0000
# 3 29.5364 46.8829 116.1697 0.0000 0.0001 0.0001
# 4 0.0000 0.0000 0.0000 13.1498 0.0000 0.0000
# 5 0.0000 0.0000 0.0001 0.0000 15.0183 0.0000
# 6 0.0001 0.0000 0.0001 0.0000 0.0000 -48.4839
#
#
#
# Elastic Compliance Matrix: (Units=1/GPa)
#
#
# Indices 1 2 3 4 5 6 
#
# 1 0.022203 -0.005891 -0.003268 0.000000 0.000000 0.000000
# 2 -0.005891 0.009609 -0.002380 0.000000 0.000000 0.000000
# 3 -0.003268 -0.002380 0.010400 0.000000 0.000000 0.000000
# 4 0.000000 0.000000 0.000000 0.076047 0.000000 0.000000
# 5 0.000000 0.000000 0.000000 0.000000 0.066585 0.000000
# 6 0.000000 0.000000 0.000000 0.000000 0.000000 -0.020625
#
#
# Mechanical properties :
#
#
# Convention : Reuss Voigt Hill
#
# Bulk Modulus (GPa) = 52.26269 62.58819 57.42544
# Shear Modulus (GPa) = 25.81643 9.22705 17.52174
#
# Velocity S-wave (km/s) = 3.92698 2.34770 3.23518
# Velocity P-wave (km/s) = 7.19584 6.68844 6.94677
#
# Compressibility (1/GPa) = 0.01913411
#
# Stress axis : x y z
#
# Youngs Moduli (GPa) = 45.03807 104.06455 96.15800
#
# Poissons Ratio (x) = 0.61305 0.31422
# Poissons Ratio (y) = 0.26532 0.22888
# Poissons Ratio (z) = 0.14717 0.24770
#
# Static dielectric constant tensor:
#      x y z
#    x 2.728620 0.000000 0.000000 
#    y 0.000000 3.811160 0.000000 
#    z 0.000000 0.000000 3.605160 
# 
# 
# High freq. dielectric constant tensor:
#      x y z
#    x 1.581850 0.000000 0.000000 
#    y 0.000000 1.654330 0.000000 
#    z 0.000000 0.000000 1.665750 
# 
# From -- ./inp_files/11181.got.cif
#   From: 2010.03.12/outbox.cif.g09.slc.cpg/sg74_6_cif.got.tgz:11181.got - 2010.04.16 15:46:19.
