data_PCOD8301746
_publ_section_title
;
Structure prediction by ZEFSAII (Michael W. Deem and Ramdas Pophale) SiO2 
 PCOD8301746
Probable space group: I M M A
;
_chemical_formula_sum "Si O2"
_cell_formula_units_Z 64
_cell_length_a 15.390197
_cell_length_b 27.133635
_cell_length_c 8.982198
_cell_angle_alpha 90.000000
_cell_angle_beta 90.000000
_cell_angle_gamma 90.000000
_cell_volume 3750.893919
_symmetry_space_group_name_H-M "I M M A"
_symmetry_group_IT_number 74
_symmetry_cell_setting 'orthorhombic'
loop_
_space_group_symop_operation_xyz
x,y,z
-x,1/2-y,z
x,-y,-z
-x,1/2+y,-z
-x,-y,-z
x,1/2+y,-z
-x,y,z
x,1/2-y,z
1/2+x,1/2+y,1/2+z
1/2-x,-y,1/2+z
1/2+x,1/2-y,1/2-z
1/2-x,y,1/2-z
1/2-x,1/2-y,1/2-z
1/2+x,y,1/2-z
1/2-x,1/2+y,1/2+z
1/2+x,-y,1/2+z
loop_
_atom_site_type_symbol
_atom_site_label
_atom_site_fract_x
_atom_site_fract_y
_atom_site_fract_z
Si Si1 0.500000 0.552647 0.424671
Si Si2 0.397240 0.695015 0.749996
Si Si3 0.847511 0.893929 0.584376
Si Si4 0.847510 0.393929 0.084368
Si Si5 0.000000 0.447353 0.575326
O O1 0.500000 0.500000 0.500000
O O2 0.585945 0.582314 0.469975
O O3 0.500000 0.545602 0.249998
O O4 0.500000 0.697186 0.749996
O O5 0.357303 0.750000 0.749996
O O6 0.364999 0.665052 0.897025
O O7 0.365000 0.665053 0.602966
O O8 0.859162 0.918087 0.750004
O O9 0.750001 0.902756 0.524087
O O10 0.914056 0.917685 0.469982
O O11 0.000000 0.500000 0.500000
#
# Coordination Sequence:
#
# PCOD8301746 Si02
#       5
#     8  16  16  16   8
#     4  12  24  38  56  75 109 147 189 238 284 329
#     4   9  15  29  61  92 117 145 180 227 275 326
#     4   9  18  35  57  82 112 140 182 226 272 329
#     4   9  18  35  57  82 112 140 182 226 272 329
#     4  12  24  38  56  75 109 147 189 238 284 329
#
# _framework density 17.062598000000001
#
# number of rings (size 3 to 8) (size 9 to 14) (size 15 to 20)
#    1.500    0.750    2.500    2.250    0.000    4.000 
#    0.000    0.000    0.000    3.000    0.000    3.500 
#    0.000    0.000    0.000    0.000    0.000    0.000 
#
# Total GULP energy -396423.759323 kJ/mol
# GULP energy per Si atom -12388.242479 kJ/mol
# Density = 1.702376 g / cm^3
# Si number density = 17.062598 Si / 1000 Ang^3
#
#
#
# Elastic Constant Matrix: (Units=GPa)
#
#
# Indices 1 2 3 4 5 6 
#
# 1 143.0108 51.3142 53.9602 -0.0005 0.0006 0.0002
# 2 51.3142 130.4774 55.5371 0.0006 0.0009 0.0007
# 3 53.9602 55.5371 97.7138 0.0015 0.0010 0.0006
# 4 -0.0005 0.0006 0.0015 23.6667 0.0007 0.0007
# 5 0.0006 0.0009 0.0010 0.0007 7.2673 0.0000
# 6 0.0002 0.0007 0.0006 0.0007 0.0000 1.1315
#
#
#
# Elastic Compliance Matrix: (Units=1/GPa)
#
#
# Indices 1 2 3 4 5 6 
#
# 1 0.009182 -0.001917 -0.003981 0.000001 0.000000 0.000002
# 2 -0.001917 0.010510 -0.004915 0.000000 0.000000 -0.000004
# 3 -0.003981 -0.004915 0.015226 -0.000001 -0.000001 -0.000004
# 4 0.000001 0.000000 -0.000001 0.042254 -0.000004 -0.000026
# 5 0.000000 0.000000 -0.000001 -0.000004 0.137603 -0.000003
# 6 0.000002 -0.000004 -0.000004 -0.000026 -0.000003 0.883796
#
#
# Mechanical properties :
#
#
# Convention : Reuss Voigt Hill
#
# Bulk Modulus (GPa) = 75.23146 76.98057 76.10601
# Shear Modulus (GPa) = 4.44591 20.43912 12.44252
#
# Velocity S-wave (km/s) = 1.61595 3.46481 2.70335
# Velocity P-wave (km/s) = 6.90427 7.82439 7.37868
#
# Compressibility (1/GPa) = 0.01329231
#
# Stress axis : x y z
#
# Youngs Moduli (GPa) = 108.90344 95.14729 65.67611
#
# Poissons Ratio (x) = 0.18236 0.26149
# Poissons Ratio (y) = 0.20872 0.32281
# Poissons Ratio (z) = 0.43360 0.46766
#
# Static dielectric constant tensor:
#      x y z
#    x 3.241760 0.000000 0.000000 
#    y 0.000000 3.280540 -0.000050 
#    z 0.000000 -0.000050 2.964690 
# 
# 
# High freq. dielectric constant tensor:
#      x y z
#    x 1.679730 0.000000 0.000000 
#    y 0.000000 1.651080 0.000000 
#    z 0.000000 0.000000 1.612140 
# 
# From -- ./inp_files/9295.got.cif
#   From: 2010.03.12/outbox.cif.g09.slc.cpg/sg74_5_cif.got.tgz:9295.got - 2010.04.16 15:46:19.
