data_PCOD8301130
_publ_section_title
;
Structure prediction by ZEFSAII (Michael W. Deem and Ramdas Pophale) SiO2 
 PCOD8301130
Probable space group: I M M A
;
_chemical_formula_sum "Si O2"
_cell_formula_units_Z 48
_cell_length_a 26.990511
_cell_length_b 16.452251
_cell_length_c 4.900066
_cell_angle_alpha 90.000000
_cell_angle_beta 90.000000
_cell_angle_gamma 90.000000
_cell_volume 2175.897149
_symmetry_space_group_name_H-M "I M M A"
_symmetry_group_IT_number 74
_symmetry_cell_setting 'orthorhombic'
loop_
_space_group_symop_operation_xyz
x,y,z
-x,1/2-y,z
x,-y,-z
-x,1/2+y,-z
-x,-y,-z
x,1/2+y,-z
-x,y,z
x,1/2-y,z
1/2+x,1/2+y,1/2+z
1/2-x,-y,1/2+z
1/2+x,1/2-y,1/2-z
1/2-x,y,1/2-z
1/2-x,1/2-y,1/2-z
1/2+x,y,1/2-z
1/2-x,1/2+y,1/2+z
1/2+x,-y,1/2+z
loop_
_atom_site_type_symbol
_atom_site_label
_atom_site_fract_x
_atom_site_fract_y
_atom_site_fract_z
Si Si1 0.444785 0.944179 0.239882
Si Si2 0.302184 0.909690 0.881427
Si Si3 0.854442 0.842813 0.119282
O O1 0.500000 0.911651 0.164938
O O2 0.408908 0.867418 0.276474
O O3 0.447702 0.000000 0.500000
O O4 0.422658 0.000000 0.000000
O O5 0.250000 0.884076 0.750000
O O6 0.341773 0.900540 0.637604
O O7 0.314943 0.851416 0.134929
O O8 0.301288 0.000000 0.000000
O O9 0.855104 0.750000 0.020309
#
# Coordination Sequence:
#
# PCOD8301130 Si02
#       3
#    16  16  16
#     4  10  21  39  64  90 119 161 209 252 297 360
#     4  12  25  43  66  90 120 166 216 256 302 368
#     4  12  25  40  63  95 130 163 200 258 320 370
#
# _framework density 22.059864999999999
#
# number of rings (size 3 to 8) (size 9 to 14) (size 15 to 20)
#    0.000    0.667    0.000   10.000    0.000    4.667 
#    0.000    0.000    0.000   10.000    0.000    0.000 
#    0.000    0.000    0.000    0.000    0.000    0.000 
#
# Total GULP energy -297688.149574 kJ/mol
# GULP energy per Si atom -12403.672899 kJ/mol
# Density = 2.200966 g / cm^3
# Si number density = 22.059865 Si / 1000 Ang^3
#
#
#
# Elastic Constant Matrix: (Units=GPa)
#
#
# Indices 1 2 3 4 5 6 
#
# 1 103.8938 46.5452 26.2154 0.0000 0.0000 0.0000
# 2 46.5452 80.7282 23.5795 0.0000 0.0000 0.0000
# 3 26.2154 23.5795 135.9400 0.0000 0.0000 0.0000
# 4 0.0000 0.0000 0.0000 33.0074 0.0000 0.0000
# 5 0.0000 0.0000 0.0000 0.0000 38.6115 0.0000
# 6 0.0000 0.0000 0.0000 0.0000 0.0000 16.4846
#
#
#
# Elastic Compliance Matrix: (Units=1/GPa)
#
#
# Indices 1 2 3 4 5 6 
#
# 1 0.013189 -0.007227 -0.001290 0.000000 0.000000 0.000000
# 2 -0.007227 0.017009 -0.001557 0.000000 0.000000 0.000000
# 3 -0.001290 -0.001557 0.007875 0.000000 0.000000 0.000000
# 4 0.000000 0.000000 0.000000 0.030296 0.000000 0.000000
# 5 0.000000 0.000000 0.000000 0.000000 0.025899 0.000000
# 6 0.000000 0.000000 0.000000 0.000000 0.000000 0.060663
#
#
# Mechanical properties :
#
#
# Convention : Reuss Voigt Hill
#
# Bulk Modulus (GPa) = 55.78756 57.02692 56.40724
# Shear Modulus (GPa) = 27.61627 32.56882 30.09255
#
# Velocity S-wave (km/s) = 3.54203 3.84654 3.69742
# Velocity P-wave (km/s) = 6.48629 6.75536 6.62220
#
# Compressibility (1/GPa) = 0.01792514
#
# Stress axis : x y z
#
# Youngs Moduli (GPa) = 75.82320 58.79259 126.98588
#
# Poissons Ratio (x) = 0.42492 0.16378
# Poissons Ratio (y) = 0.54800 0.19766
# Poissons Ratio (z) = 0.09779 0.09151
#
# Static dielectric constant tensor:
#      x y z
#    x 4.379950 0.000000 0.000000 
#    y 0.000000 3.547240 0.000000 
#    z 0.000000 0.000000 4.290200 
# 
# 
# High freq. dielectric constant tensor:
#      x y z
#    x 1.880110 0.000000 0.000000 
#    y 0.000000 1.837990 0.000000 
#    z 0.000000 0.000000 1.893590 
# 
# From -- ./inp_files/1251.got.cif
#   From: 2010.03.12/outbox.cif.g09.slc.cpg/sg74_1_cif.got.tgz:1251.got - 2010.04.16 15:46:19.
