data_PCOD8301177
_publ_section_title
;
Structure prediction by ZEFSAII (Michael W. Deem and Ramdas Pophale) SiO2 
 PCOD8301177
Probable space group: I M M A
;
_chemical_formula_sum "Si O2"
_cell_formula_units_Z 72
_cell_length_a 27.098120
_cell_length_b 14.267218
_cell_length_c 9.520968
_cell_angle_alpha 90.000000
_cell_angle_beta 90.000000
_cell_angle_gamma 90.000000
_cell_volume 3680.947000
_symmetry_space_group_name_H-M "I M M A"
_symmetry_group_IT_number 74
_symmetry_cell_setting 'orthorhombic'
loop_
_space_group_symop_operation_xyz
x,y,z
-x,1/2-y,z
x,-y,-z
-x,1/2+y,-z
-x,-y,-z
x,1/2+y,-z
-x,y,z
x,1/2-y,z
1/2+x,1/2+y,1/2+z
1/2-x,-y,1/2+z
1/2+x,1/2-y,1/2-z
1/2-x,y,1/2-z
1/2-x,1/2-y,1/2-z
1/2+x,y,1/2-z
1/2-x,1/2+y,1/2+z
1/2+x,-y,1/2+z
loop_
_atom_site_type_symbol
_atom_site_label
_atom_site_fract_x
_atom_site_fract_y
_atom_site_fract_z
Si Si1 0.055909 0.358282 0.930883
Si Si2 0.844600 0.861419 0.505602
Si Si3 0.946681 0.360646 0.615083
Si Si4 0.307124 0.996719 0.221990
Si Si5 0.631250 0.500000 0.500000
O O1 0.069600 0.250000 0.939943
O O2 0.062184 0.398779 0.772590
O O3 0.095206 0.411620 0.028530
O O4 0.000000 0.375922 0.984049
O O5 0.835829 0.750000 0.509562
O O6 0.902381 0.889775 0.487860
O O7 0.814560 0.905187 0.375231
O O8 0.826930 0.908266 0.649477
O O9 0.948806 0.250000 0.629826
O O10 0.000000 0.397051 0.556965
O O11 0.250000 0.010894 0.250000
O O12 0.334399 0.980841 0.367724
#
# Coordination Sequence:
#
# PCOD8301177 Si02
#       5
#    16  16  16  16   8
#     4   9  18  33  55  87 123 155 191 234 284 353
#     4  10  21  42  65  86 116 156 198 238 292 352
#     4   8  14  30  58  87 114 147 189 234 279 340
#     4  11  25  42  59  86 120 152 198 257 294 335
#     4  12  21  36  62  86 120 160 193 234 302 358
#
# _framework density 19.560182999999999
#
# number of rings (size 3 to 8) (size 9 to 14) (size 15 to 20)
#    0.000    2.222    2.222    3.000    0.000    1.778 
#    0.000    6.667    0.000    2.667    0.000    0.000 
#    0.000    0.000    0.000    0.000    0.000    0.000 
#
# Total GULP energy -446258.101513 kJ/mol
# GULP energy per Si atom -12396.058375 kJ/mol
# Density = 1.951566 g / cm^3
# Si number density = 19.560183 Si / 1000 Ang^3
#
#
#
# Elastic Constant Matrix: (Units=GPa)
#
#
# Indices 1 2 3 4 5 6 
#
# 1 137.7524 35.5458 21.2567 0.0000 0.0000 0.0000
# 2 35.5458 97.4385 19.4764 0.0000 0.0000 0.0000
# 3 21.2567 19.4764 51.8817 0.0000 0.0000 0.0000
# 4 0.0000 0.0000 0.0000 27.7394 0.0000 0.0000
# 5 0.0000 0.0000 0.0000 0.0000 43.8371 0.0000
# 6 0.0000 0.0000 0.0000 0.0000 0.0000 26.2478
#
#
#
# Elastic Compliance Matrix: (Units=1/GPa)
#
#
# Indices 1 2 3 4 5 6 
#
# 1 0.008291 -0.002536 -0.002445 0.000000 0.000000 0.000000
# 2 -0.002536 0.011871 -0.003417 0.000000 0.000000 0.000000
# 3 -0.002445 -0.003417 0.021559 0.000000 0.000000 0.000000
# 4 0.000000 0.000000 0.000000 0.036050 0.000000 0.000000
# 5 0.000000 0.000000 0.000000 0.000000 0.022812 0.000000
# 6 0.000000 0.000000 0.000000 0.000000 0.000000 0.038098
#
#
# Mechanical properties :
#
#
# Convention : Reuss Voigt Hill
#
# Bulk Modulus (GPa) = 40.12065 48.84780 44.48423
# Shear Modulus (GPa) = 30.52761 33.61778 32.07269
#
# Velocity S-wave (km/s) = 3.95486 4.15020 4.05370
# Velocity P-wave (km/s) = 6.43509 6.92769 6.68593
#
# Compressibility (1/GPa) = 0.02492482
#
# Stress axis : x y z
#
# Youngs Moduli (GPa) = 120.61198 84.23842 46.38373
#
# Poissons Ratio (x) = 0.21362 0.11341
# Poissons Ratio (y) = 0.30586 0.15851
# Poissons Ratio (z) = 0.29490 0.28788
#
# Static dielectric constant tensor:
#      x y z
#    x 3.917910 0.000000 0.000000 
#    y 0.000000 3.420260 0.000000 
#    z 0.000000 0.000000 3.400760 
# 
# 
# High freq. dielectric constant tensor:
#      x y z
#    x 1.776880 0.000000 0.000000 
#    y 0.000000 1.753930 0.000000 
#    z 0.000000 0.000000 1.739430 
# 
# From -- ./inp_files/14715.got.cif
#   From: 2010.03.12/outbox.cif.g09.slc.cpg/sg74_8_cif.got.tgz:14715.got - 2010.04.16 15:46:19.
