data_PCOD8301530
_publ_section_title
;
Structure prediction by ZEFSAII (Michael W. Deem and Ramdas Pophale) SiO2 
 PCOD8301530
Probable space group: I M M A
;
_chemical_formula_sum "Si O2"
_cell_formula_units_Z 80
_cell_length_a 20.213476
_cell_length_b 17.587273
_cell_length_c 12.638517
_cell_angle_alpha 90.000000
_cell_angle_beta 90.000000
_cell_angle_gamma 90.000000
_cell_volume 4492.991791
_symmetry_space_group_name_H-M "I M M A"
_symmetry_group_IT_number 74
_symmetry_cell_setting 'orthorhombic'
loop_
_space_group_symop_operation_xyz
x,y,z
-x,1/2-y,z
x,-y,-z
-x,1/2+y,-z
-x,-y,-z
x,1/2+y,-z
-x,y,z
x,1/2-y,z
1/2+x,1/2+y,1/2+z
1/2-x,-y,1/2+z
1/2+x,1/2-y,1/2-z
1/2-x,y,1/2-z
1/2-x,1/2-y,1/2-z
1/2+x,y,1/2-z
1/2-x,1/2+y,1/2+z
1/2+x,-y,1/2+z
loop_
_atom_site_type_symbol
_atom_site_label
_atom_site_fract_x
_atom_site_fract_y
_atom_site_fract_z
Si Si1 0.319931 0.087356 0.474371
Si Si2 0.573027 0.159588 0.865307
Si Si3 0.075981 0.661554 0.126949
Si Si4 0.178085 0.159691 0.468667
Si Si5 0.172429 0.165827 0.237387
O O1 0.376451 0.115781 0.551398
O O2 0.250333 0.127885 0.494884
O O3 0.344907 0.105066 0.354289
O O4 0.309190 0.000000 0.500000
O O5 0.500000 0.129099 0.896427
O O6 0.572647 0.250000 0.871349
O O7 0.590759 0.134220 0.746429
O O8 0.627260 0.125653 0.945375
O O9 0.091548 0.750000 0.114172
O O10 0.000000 0.644195 0.096947
O O11 0.183936 0.250000 0.475402
O O12 0.148646 0.136324 0.352982
O O13 0.142587 0.250000 0.209882
O O14 0.250000 0.175358 0.250000
#
# Coordination Sequence:
#
# PCOD8301530 Si02
#       5
#    16  16  16  16  16
#     4  11  21  32  47  76 103 135 167 210 254 304
#     4   8  15  30  53  79 102 125 159 207 259 301
#     4   9  18  34  54  74 100 134 170 209 255 304
#     4   9  17  33  55  75  98 132 173 213 252 300
#     4   8  15  31  52  69  95 132 168 205 249 296
#
# _framework density 17.805506999999999
#
# number of rings (size 3 to 8) (size 9 to 14) (size 15 to 20)
#    0.000    3.000    0.000    4.200    0.000    1.200 
#   10.800    4.000    0.000    4.200    0.000    0.000 
#    0.000    0.000    0.000    0.000    0.000    0.000 
#
# Total GULP energy -495680.568747 kJ/mol
# GULP energy per Si atom -12392.014219 kJ/mol
# Density = 1.776498 g / cm^3
# Si number density = 17.805507 Si / 1000 Ang^3
#
#
#
# Elastic Constant Matrix: (Units=GPa)
#
#
# Indices 1 2 3 4 5 6 
#
# 1 85.9830 22.5517 65.2786 0.0000 0.0000 0.0000
# 2 22.5517 48.6443 36.2384 0.0000 0.0000 0.0000
# 3 65.2786 36.2384 127.6742 0.0000 0.0000 0.0000
# 4 0.0000 0.0000 0.0000 9.4990 0.0000 0.0000
# 5 0.0000 0.0000 0.0000 0.0000 24.7224 0.0000
# 6 0.0000 0.0000 0.0000 0.0000 0.0000 -7.7990
#
#
#
# Elastic Compliance Matrix: (Units=1/GPa)
#
#
# Indices 1 2 3 4 5 6 
#
# 1 0.019163 -0.002010 -0.009227 0.000000 0.000000 0.000000
# 2 -0.002010 0.026281 -0.006432 0.000000 0.000000 0.000000
# 3 -0.009227 -0.006432 0.014376 0.000000 0.000000 0.000000
# 4 0.000000 0.000000 0.000000 0.105274 0.000000 0.000000
# 5 0.000000 0.000000 0.000000 0.000000 0.040449 0.000000
# 6 0.000000 0.000000 0.000000 0.000000 0.000000 -0.128221
#
#
# Mechanical properties :
#
#
# Convention : Reuss Voigt Hill
#
# Bulk Modulus (GPa) = 40.84737 56.71543 48.78140
# Shear Modulus (GPa) = 41.38412 14.49999 27.94206
#
# Velocity S-wave (km/s) = 4.82626 2.85679 3.96573
# Velocity P-wave (km/s) = 7.35171 6.54244 6.95885
#
# Compressibility (1/GPa) = 0.02448138
#
# Stress axis : x y z
#
# Youngs Moduli (GPa) = 52.18467 38.05088 69.56156
#
# Poissons Ratio (x) = 0.07648 0.64186
# Poissons Ratio (y) = 0.10489 0.44740
# Poissons Ratio (z) = 0.48152 0.24473
#
# Static dielectric constant tensor:
#      x y z
#    x 3.325790 0.000000 0.000000 
#    y 0.000000 3.083620 0.000000 
#    z 0.000000 0.000000 4.047820 
# 
# 
# High freq. dielectric constant tensor:
#      x y z
#    x 1.672930 0.000000 0.000000 
#    y 0.000000 1.652390 0.000000 
#    z 0.000000 0.000000 1.702960 
# 
# From -- ./inp_files/24875.got.cif
#   From: 2010.03.12/outbox.cif.g09.slc.cpg/sg74_13_cif.got.tgz:24875.got - 2010.04.16 15:46:19.
