data_PCOD8301664
_publ_section_title
;
Structure prediction by ZEFSAII (Michael W. Deem and Ramdas Pophale) SiO2 
 PCOD8301664
Probable space group: I M M A
;
_chemical_formula_sum "Si O2"
_cell_formula_units_Z 60
_cell_length_a 13.372771
_cell_length_b 18.187468
_cell_length_c 12.832696
_cell_angle_alpha 90.000000
_cell_angle_beta 90.000000
_cell_angle_gamma 90.000000
_cell_volume 3121.127829
_symmetry_space_group_name_H-M "I M M A"
_symmetry_group_IT_number 74
_symmetry_cell_setting 'orthorhombic'
loop_
_space_group_symop_operation_xyz
x,y,z
-x,1/2-y,z
x,-y,-z
-x,1/2+y,-z
-x,-y,-z
x,1/2+y,-z
-x,y,z
x,1/2-y,z
1/2+x,1/2+y,1/2+z
1/2-x,-y,1/2+z
1/2+x,1/2-y,1/2-z
1/2-x,y,1/2-z
1/2-x,1/2-y,1/2-z
1/2+x,y,1/2-z
1/2-x,1/2+y,1/2+z
1/2+x,-y,1/2+z
loop_
_atom_site_type_symbol
_atom_site_label
_atom_site_fract_x
_atom_site_fract_y
_atom_site_fract_z
Si Si1 0.784567 0.048086 0.860136
Si Si2 0.500000 0.750000 0.697979
Si Si3 0.000000 0.904840 0.692756
Si Si4 0.283760 0.250000 0.367522
Si Si5 0.704189 0.904343 0.928412
Si Si6 0.000000 0.977633 0.119141
O O1 0.750000 0.079148 0.750000
O O2 0.780748 0.958420 0.867082
O O3 0.709604 0.078570 0.948239
O O4 0.900455 0.071876 0.869330
O O5 0.500000 0.679371 0.772108
O O6 0.403623 0.750000 0.623204
O O7 0.904920 0.919172 0.618888
O O8 0.000000 0.957290 0.794180
O O9 0.250000 0.250000 0.250000
O O10 0.238828 0.321081 0.421300
O O11 0.000000 0.000000 0.000000
#
# Coordination Sequence:
#
# PCOD8301664 Si02
#       6
#    16   4   8   8  16   8
#     4  11  23  40  58  89 122 160 199 261 294 368
#     4  12  24  32  64  86 128 146 196 242 322 338
#     4  12  22  38  60  92 119 163 197 250 298 383
#     4  12  22  38  59  92 117 161 192 259 291 371
#     4  11  23  38  62  85 126 152 209 241 314 349
#     4  12  22  33  61  84 121 155 205 243 311 348
#
# _framework density 19.223821000000001
#
# number of rings (size 3 to 8) (size 9 to 14) (size 15 to 20)
#    0.000    0.533    8.000    2.400    0.000    3.200 
#    0.000    0.667    0.000    0.000    0.000    0.000 
#    0.000    0.000    0.000    0.000    0.000    0.000 
#
# Total GULP energy -371867.824571 kJ/mol
# GULP energy per Si atom -12395.594152 kJ/mol
# Density = 1.918007 g / cm^3
# Si number density = 19.223821 Si / 1000 Ang^3
#
#
#
# Elastic Constant Matrix: (Units=GPa)
#
#
# Indices 1 2 3 4 5 6 
#
# 1 153.5006 18.5733 67.2735 0.0000 0.0000 0.0000
# 2 18.5733 80.9117 30.7042 -0.0002 0.0000 0.0000
# 3 67.2735 30.7042 167.8377 -0.0004 0.0001 0.0001
# 4 0.0000 -0.0002 -0.0004 13.5963 0.0000 0.0000
# 5 0.0000 0.0000 0.0001 0.0000 34.8863 0.0000
# 6 0.0000 0.0000 0.0001 0.0000 0.0000 21.7590
#
#
#
# Elastic Compliance Matrix: (Units=1/GPa)
#
#
# Indices 1 2 3 4 5 6 
#
# 1 0.007936 -0.000660 -0.003060 0.000000 0.000000 0.000000
# 2 -0.000660 0.013336 -0.002175 0.000000 0.000000 0.000000
# 3 -0.003060 -0.002175 0.007583 0.000000 0.000000 0.000000
# 4 0.000000 0.000000 0.000000 0.073549 0.000000 0.000000
# 5 0.000000 0.000000 0.000000 0.000000 0.028665 0.000000
# 6 0.000000 0.000000 0.000000 0.000000 0.000000 0.045958
#
#
# Mechanical properties :
#
#
# Convention : Reuss Voigt Hill
#
# Bulk Modulus (GPa) = 58.60469 70.59469 64.59969
# Shear Modulus (GPa) = 25.70628 33.09492 29.40060
#
# Velocity S-wave (km/s) = 3.66076 4.15367 3.91498
# Velocity P-wave (km/s) = 6.95843 7.73344 7.35615
#
# Compressibility (1/GPa) = 0.01706348
#
# Stress axis : x y z
#
# Youngs Moduli (GPa) = 126.01423 74.98439 131.88188
#
# Poissons Ratio (x) = 0.04952 0.40355
# Poissons Ratio (y) = 0.08322 0.28684
# Poissons Ratio (z) = 0.38560 0.16309
#
# Static dielectric constant tensor:
#      x y z
#    x 4.139160 0.000000 0.000000 
#    y 0.000000 3.150220 0.000000 
#    z 0.000000 0.000000 2.873860 
# 
# 
# High freq. dielectric constant tensor:
#      x y z
#    x 1.769560 0.000000 0.000000 
#    y 0.000000 1.715600 0.000000 
#    z 0.000000 0.000000 1.750990 
# 
# From -- ./inp_files/30167.got.cif
#   From: 2010.03.12/outbox.cif.g09.slc.cpg/sg74_16_cif.got.tgz:30167.got - 2010.04.16 15:46:19.
