data_PCOD8301195
_publ_section_title
;
Structure prediction by ZEFSAII (Michael W. Deem and Ramdas Pophale) SiO2 
 PCOD8301195
Probable space group: I M M A
;
_chemical_formula_sum "Si O2"
_cell_formula_units_Z 56
_cell_length_a 8.954475
_cell_length_b 17.041838
_cell_length_c 18.373785
_cell_angle_alpha 90.000000
_cell_angle_beta 90.000000
_cell_angle_gamma 90.000000
_cell_volume 2803.852679
_symmetry_space_group_name_H-M "I M M A"
_symmetry_group_IT_number 74
_symmetry_cell_setting 'orthorhombic'
loop_
_space_group_symop_operation_xyz
x,y,z
-x,1/2-y,z
x,-y,-z
-x,1/2+y,-z
-x,-y,-z
x,1/2+y,-z
-x,y,z
x,1/2-y,z
1/2+x,1/2+y,1/2+z
1/2-x,-y,1/2+z
1/2+x,1/2-y,1/2-z
1/2-x,y,1/2-z
1/2-x,1/2-y,1/2-z
1/2+x,y,1/2-z
1/2-x,1/2+y,1/2+z
1/2+x,-y,1/2+z
loop_
_atom_site_type_symbol
_atom_site_label
_atom_site_fract_x
_atom_site_fract_y
_atom_site_fract_z
Si Si1 0.674743 0.750000 0.172928
Si Si2 0.176334 0.402913 0.585766
Si Si3 0.671658 0.660447 0.551082
Si Si4 0.671883 0.541585 0.672709
O O1 0.500000 0.750000 0.185261
O O2 0.750000 0.750000 0.250000
O O3 0.727339 0.825856 0.129044
O O4 0.230042 0.392456 0.503023
O O5 0.254342 0.476121 0.622643
O O6 0.000000 0.415906 0.586413
O O7 0.500000 0.656719 0.525383
O O8 0.730167 0.750000 0.552952
O O9 0.688731 0.624791 0.631857
O O10 0.500000 0.518979 0.685345
O O11 0.750000 0.547938 0.750000
#
# Coordination Sequence:
#
# PCOD8301195 Si02
#       4
#     8  16  16  16
#     4  10  22  36  54  84 119 154 193 238 289 350
#     4  11  22  39  61  89 122 157 201 248 298 358
#     4  10  22  41  64  89 120 160 203 248 300 359
#     4  11  24  41  61  89 122 159 204 250 302 359
#
# _framework density 19.972518999999998
#
# number of rings (size 3 to 8) (size 9 to 14) (size 15 to 20)
#    0.000    1.429    1.429    3.429    0.000   10.857 
#    0.000    0.000    0.000    0.000    0.000    0.000 
#    0.000    0.000    0.000    0.000    0.000    0.000 
#
# Total GULP energy -347340.838092 kJ/mol
# GULP energy per Si atom -12405.029932 kJ/mol
# Density = 1.992706 g / cm^3
# Si number density = 19.972519 Si / 1000 Ang^3
#
#
#
# Elastic Constant Matrix: (Units=GPa)
#
#
# Indices 1 2 3 4 5 6 
#
# 1 100.8520 50.8835 59.8751 0.0000 0.0000 0.0000
# 2 50.8835 72.7189 73.9969 0.0005 0.0000 0.0000
# 3 59.8751 73.9969 126.8481 -0.0001 0.0000 0.0000
# 4 0.0000 0.0005 -0.0001 3867.3537 0.0000 0.0000
# 5 0.0000 0.0000 0.0000 0.0000 42.1916 0.0000
# 6 0.0000 0.0000 0.0000 0.0000 0.0000 27.8712
#
#
#
# Elastic Compliance Matrix: (Units=1/GPa)
#
#
# Indices 1 2 3 4 5 6 
#
# 1 0.015631 -0.008439 -0.002455 0.000000 0.000000 0.000000
# 2 -0.008439 0.038394 -0.018414 0.000000 0.000000 0.000000
# 3 -0.002455 -0.018414 0.019784 0.000000 0.000000 0.000000
# 4 0.000000 0.000000 0.000000 0.000259 0.000000 0.000000
# 5 0.000000 0.000000 0.000000 0.000000 0.023701 0.000000
# 6 0.000000 0.000000 0.000000 0.000000 0.000000 0.035879
#
#
# Mechanical properties :
#
#
# Convention : Reuss Voigt Hill
#
# Bulk Modulus (GPa) = 65.82003 74.43666 70.12834
# Shear Modulus (GPa) = 25.33845 795.19420 410.26633
#
# Velocity S-wave (km/s) = 3.56570 19.97520 14.34787
# Velocity P-wave (km/s) = 7.06959 23.86130 17.59746
#
# Compressibility (1/GPa) = 0.01519294
#
# Stress axis : x y z
#
# Youngs Moduli (GPa) = 63.97543 26.04578 50.54590
#
# Poissons Ratio (x) = 0.21980 0.12410
# Poissons Ratio (y) = 0.53989 0.93074
# Poissons Ratio (z) = 0.15708 0.47960
#
# Static dielectric constant tensor:
#      x y z
#    x 3.743970 0.000000 0.000000 
#    y 0.000000 3.829270 0.000000 
#    z 0.000000 0.000000 3.641420 
# 
# 
# High freq. dielectric constant tensor:
#      x y z
#    x 1.784000 0.000000 0.000000 
#    y 0.000000 1.790620 0.000000 
#    z 0.000000 0.000000 1.786680 
# 
# From -- ./inp_files/38833.got.cif
#   From: 2010.03.12/outbox.cif.g09.slc.cpg/sg74_20_cif.got.tgz:38833.got - 2010.04.16 15:46:19.
