data_PCOD8301106
_publ_section_title
;
Structure prediction by ZEFSAII (Michael W. Deem and Ramdas Pophale) SiO2 
 PCOD8301106
Probable space group: I M M A
;
_chemical_formula_sum "Si O2"
_cell_formula_units_Z 112
_cell_length_a 14.131845
_cell_length_b 29.113773
_cell_length_c 12.427937
_cell_angle_alpha 90.000000
_cell_angle_beta 90.000000
_cell_angle_gamma 90.000000
_cell_volume 5113.242617
_symmetry_space_group_name_H-M "I M M A"
_symmetry_group_IT_number 74
_symmetry_cell_setting 'orthorhombic'
loop_
_space_group_symop_operation_xyz
x,y,z
-x,1/2-y,z
x,-y,-z
-x,1/2+y,-z
-x,-y,-z
x,1/2+y,-z
-x,y,z
x,1/2-y,z
1/2+x,1/2+y,1/2+z
1/2-x,-y,1/2+z
1/2+x,1/2-y,1/2-z
1/2-x,y,1/2-z
1/2-x,1/2-y,1/2-z
1/2+x,y,1/2-z
1/2-x,1/2+y,1/2+z
1/2+x,-y,1/2+z
loop_
_atom_site_type_symbol
_atom_site_label
_atom_site_fract_x
_atom_site_fract_y
_atom_site_fract_z
Si Si1 0.607163 0.961024 0.800328
Si Si2 0.777382 0.800080 0.370913
Si Si3 0.608810 0.047051 0.648567
Si Si4 0.174449 0.872727 0.828668
Si Si5 0.732909 0.435907 0.010760
Si Si6 0.389632 0.110175 0.839815
Si Si7 0.396112 0.197735 0.480141
O O1 0.500000 0.961201 0.844846
O O2 0.622496 0.913974 0.734033
O O3 0.625802 0.002775 0.721223
O O4 0.681590 0.967590 0.898729
O O5 0.813671 0.750000 0.415310
O O6 0.750000 0.792148 0.250000
O O7 0.858082 0.838603 0.371431
O O8 0.684423 0.816774 0.435355
O O9 0.500000 0.050082 0.609169
O O10 0.674520 0.041312 0.543885
O O11 0.635733 0.093173 0.717927
O O12 0.250000 0.848579 0.750000
O O13 0.104472 0.833740 0.872770
O O14 0.232077 0.889936 0.932267
O O15 0.656061 0.425899 0.920496
O O16 0.500000 0.106755 0.858222
O O17 0.500000 0.191412 0.534510
O O18 0.381549 0.250000 0.442582
#
# Coordination Sequence:
#
# PCOD8301106 Si02
#       7
#    16  16  16  16  16  16  16
#     4  10  23  43  65  94 128 167 214 266 320 381
#     4  10  21  39  61  92 130 166 209 261 314 379
#     4  10  24  42  63  94 130 165 215 269 320 379
#     4  10  22  38  63  94 125 166 210 263 323 378
#     4  11  22  41  64  90 123 168 209 259 318 384
#     4  11  23  39  61  92 126 166 213 263 320 383
#     4  10  21  39  65  96 129 168 214 265 322 384
#
# _framework density 21.90391
#
# number of rings (size 3 to 8) (size 9 to 14) (size 15 to 20)
#    0.000    1.714    1.429    2.143    0.000    8.000 
#    0.000    5.000    0.000    1.714    0.000    0.000 
#    0.000    0.000    0.000    0.000    0.000    0.000 
#
# Total GULP energy -694096.148710 kJ/mol
# GULP energy per Si atom -12394.574084 kJ/mol
# Density = 2.185406 g / cm^3
# Si number density = 21.903910 Si / 1000 Ang^3
#
#
#
# Elastic Constant Matrix: (Units=GPa)
#
#
# Indices 1 2 3 4 5 6 
#
# 1 132.6720 43.7995 73.1463 0.0001 -0.0006 -0.0003
# 2 43.7995 94.6278 38.9694 0.0000 -0.0004 -0.0002
# 3 73.1463 38.9694 115.0111 0.0056 -0.0010 -0.0006
# 4 0.0001 0.0000 0.0056 24.1882 -0.0005 -0.0002
# 5 -0.0006 -0.0004 -0.0010 -0.0005 38.8804 0.0002
# 6 -0.0003 -0.0002 -0.0006 -0.0002 0.0002 33.0007
#
#
#
# Elastic Compliance Matrix: (Units=1/GPa)
#
#
# Indices 1 2 3 4 5 6 
#
# 1 0.012238 -0.002858 -0.006815 0.000002 0.000000 0.000000
# 2 -0.002858 0.012949 -0.002570 0.000001 0.000000 0.000000
# 3 -0.006815 -0.002570 0.013900 -0.000003 0.000000 0.000000
# 4 0.000002 0.000001 -0.000003 0.041343 0.000001 0.000000
# 5 0.000000 0.000000 0.000000 0.000001 0.025720 0.000000
# 6 0.000000 0.000000 0.000000 0.000000 0.000000 0.030302
#
#
# Mechanical properties :
#
#
# Convention : Reuss Voigt Hill
#
# Bulk Modulus (GPa) = 68.48742 72.68237 70.58489
# Shear Modulus (GPa) = 30.15595 31.64024 30.89810
#
# Velocity S-wave (km/s) = 3.71447 3.80478 3.75990
# Velocity P-wave (km/s) = 7.05205 7.24957 7.15149
#
# Compressibility (1/GPa) = 0.01460122
#
# Stress axis : x y z
#
# Youngs Moduli (GPa) = 81.71071 77.22678 71.94301
#
# Poissons Ratio (x) = 0.22072 0.49030
# Poissons Ratio (y) = 0.23353 0.18488
# Poissons Ratio (z) = 0.55687 0.19846
#
# Static dielectric constant tensor:
#      x y z
#    x 4.055420 0.000000 0.000000 
#    y 0.000000 4.273880 0.000000 
#    z 0.000000 0.000000 4.019670 
# 
# 
# High freq. dielectric constant tensor:
#      x y z
#    x 1.865950 0.000000 0.000000 
#    y 0.000000 1.865520 0.000000 
#    z 0.000000 0.000000 1.855150 
# 
# From -- ./inp_files/21135.got.cif
#   From: 2010.03.12/outbox.cif.g09.slc.cpg/sg74_11_cif.got.tgz:21135.got - 2010.04.16 15:46:19.
