data_PCOD8301575
_publ_section_title
;
Structure prediction by ZEFSAII (Michael W. Deem and Ramdas Pophale) SiO2 
 PCOD8301575
Probable space group: I M M A
;
_chemical_formula_sum "Si O2"
_cell_formula_units_Z 64
_cell_length_a 20.908904
_cell_length_b 14.178742
_cell_length_c 9.360463
_cell_angle_alpha 90.000000
_cell_angle_beta 90.000000
_cell_angle_gamma 90.000000
_cell_volume 2775.021164
_symmetry_space_group_name_H-M "I M M A"
_symmetry_group_IT_number 74
_symmetry_cell_setting 'orthorhombic'
loop_
_space_group_symop_operation_xyz
x,y,z
-x,1/2-y,z
x,-y,-z
-x,1/2+y,-z
-x,-y,-z
x,1/2+y,-z
-x,y,z
x,1/2-y,z
1/2+x,1/2+y,1/2+z
1/2-x,-y,1/2+z
1/2+x,1/2-y,1/2-z
1/2-x,y,1/2-z
1/2-x,1/2-y,1/2-z
1/2+x,y,1/2-z
1/2-x,1/2+y,1/2+z
1/2+x,-y,1/2+z
loop_
_atom_site_type_symbol
_atom_site_label
_atom_site_fract_x
_atom_site_fract_y
_atom_site_fract_z
Si Si1 0.312567 0.355117 0.659020
Si Si2 0.403663 0.854492 0.928042
Si Si3 0.429934 0.042830 0.780299
Si Si4 0.233655 0.593236 0.587000
O O1 0.334458 0.250000 0.702490
O O2 0.250000 0.385844 0.750000
O O3 0.371522 0.426625 0.678712
O O4 0.294153 0.358453 0.491241
O O5 0.433432 0.750000 0.899947
O O6 0.327345 0.839558 0.925586
O O7 0.424071 0.930701 0.809088
O O8 0.427436 0.893746 0.078638
O O9 0.500000 0.059730 0.709007
O O10 0.214178 0.500000 0.500000
O O11 0.250000 0.570217 0.750000
#
# Coordination Sequence:
#
# PCOD8301575 Si02
#       4
#    16  16  16  16
#     4  11  22  41  67  99 139 182 233 288 345 411
#     4  11  21  37  63  97 138 185 237 289 342 409
#     4  11  23  40  64  99 141 183 232 286 348 418
#     4  12  23  40  68 103 142 178 226 290 354 413
#
# _framework density 23.062885999999999
#
# number of rings (size 3 to 8) (size 9 to 14) (size 15 to 20)
#    0.000    0.750    5.000    5.250    0.000    5.500 
#    0.000    0.000    0.000    8.250    0.000   10.500 
#    0.000    0.000    0.000    0.000    0.000    0.000 
#
# Total GULP energy -396628.481451 kJ/mol
# GULP energy per Si atom -12394.640045 kJ/mol
# Density = 2.301039 g / cm^3
# Si number density = 23.062886 Si / 1000 Ang^3
#
#
#
# Elastic Constant Matrix: (Units=GPa)
#
#
# Indices 1 2 3 4 5 6 
#
# 1 176.6790 46.1754 46.8569 0.0000 0.0000 0.0000
# 2 46.1754 162.2310 24.7612 0.0000 0.0000 0.0000
# 3 46.8569 24.7612 111.4862 0.0000 0.0000 0.0000
# 4 0.0000 0.0000 0.0000 15.0707 0.0000 0.0000
# 5 0.0000 0.0000 0.0000 0.0000 12.3969 0.0000
# 6 0.0000 0.0000 0.0000 0.0000 0.0000 -7.7211
#
#
#
# Elastic Compliance Matrix: (Units=1/GPa)
#
#
# Indices 1 2 3 4 5 6 
#
# 1 0.006719 -0.001533 -0.002484 0.000000 0.000000 0.000000
# 2 -0.001533 0.006730 -0.000850 0.000000 0.000000 0.000000
# 3 -0.002484 -0.000850 0.010202 0.000000 0.000000 0.000000
# 4 0.000000 0.000000 0.000000 0.066354 0.000000 0.000000
# 5 0.000000 0.000000 0.000000 0.000000 0.080665 0.000000
# 6 0.000000 0.000000 0.000000 0.000000 0.000000 -0.129516
#
#
# Mechanical properties :
#
#
# Convention : Reuss Voigt Hill
#
# Bulk Modulus (GPa) = 71.85207 76.22035 74.03621
# Shear Modulus (GPa) = 90.04300 26.12283 58.08292
#
# Velocity S-wave (km/s) = 6.25517 3.36918 5.02387
# Velocity P-wave (km/s) = 9.13192 6.94664 8.11319
#
# Compressibility (1/GPa) = 0.01391748
#
# Stress axis : x y z
#
# Youngs Moduli (GPa) = 148.82250 148.58187 98.01625
#
# Poissons Ratio (x) = 0.22785 0.24343
# Poissons Ratio (y) = 0.22821 0.08334
# Poissons Ratio (z) = 0.36961 0.12634
#
# Static dielectric constant tensor:
#      x y z
#    x 4.502390 0.000000 0.000000 
#    y 0.000000 4.276060 0.000000 
#    z 0.000000 0.000000 3.914470 
# 
# 
# High freq. dielectric constant tensor:
#      x y z
#    x 1.908360 0.000000 0.000000 
#    y 0.000000 1.926250 0.000000 
#    z 0.000000 0.000000 1.867440 
# 
# From -- ./inp_files/8813.got.cif
#   From: 2010.03.12/outbox.cif.g09.slc.cpg/sg74_5_cif.got.tgz:8813.got - 2010.04.16 15:46:19.
