data_PCOD8301654
_publ_section_title
;
Structure prediction by ZEFSAII (Michael W. Deem and Ramdas Pophale) SiO2 
 PCOD8301654
Probable space group: I M M A
;
_chemical_formula_sum "Si O2"
_cell_formula_units_Z 96
_cell_length_a 14.757697
_cell_length_b 14.761422
_cell_length_c 19.214204
_cell_angle_alpha 90.000000
_cell_angle_beta 90.000000
_cell_angle_gamma 90.000000
_cell_volume 4185.710453
_symmetry_space_group_name_H-M "I M M A"
_symmetry_group_IT_number 74
_symmetry_cell_setting 'orthorhombic'
loop_
_space_group_symop_operation_xyz
x,y,z
-x,1/2-y,z
x,-y,-z
-x,1/2+y,-z
-x,-y,-z
x,1/2+y,-z
-x,y,z
x,1/2-y,z
1/2+x,1/2+y,1/2+z
1/2-x,-y,1/2+z
1/2+x,1/2-y,1/2-z
1/2-x,y,1/2-z
1/2-x,1/2-y,1/2-z
1/2+x,y,1/2-z
1/2-x,1/2+y,1/2+z
1/2+x,-y,1/2+z
loop_
_atom_site_type_symbol
_atom_site_label
_atom_site_fract_x
_atom_site_fract_y
_atom_site_fract_z
Si Si1 0.135001 0.648015 0.319105
Si Si2 0.097954 0.399285 0.977610
Si Si3 0.266850 0.851952 0.592797
Si Si4 0.899304 0.045083 0.360739
Si Si5 0.396417 0.145363 0.281432
Si Si6 0.652731 0.650081 0.333941
O O1 0.102458 0.750000 0.342943
O O2 0.095584 0.564975 0.364278
O O3 0.241442 0.641896 0.322748
O O4 0.103357 0.629985 0.239376
O O5 0.120233 0.412876 0.896072
O O6 0.000000 0.349979 0.988466
O O7 0.088828 0.500000 0.000000
O O8 0.178101 0.350585 0.020170
O O9 0.232820 0.750000 0.606623
O O10 0.178023 0.916584 0.587319
O O11 0.332165 0.885160 0.655206
O O12 0.872875 0.081994 0.284156
O O13 0.000000 0.080597 0.381991
O O14 0.500000 0.131752 0.305590
O O15 0.378615 0.250000 0.260719
O O16 0.626832 0.750000 0.359636
#
# Coordination Sequence:
#
# PCOD8301654 Si02
#       6
#    16  16  16  16  16  16
#     4   9  20  38  62  90 121 161 206 253 312 373
#     4  11  24  38  59  93 130 167 205 248 309 381
#     4  11  23  39  60  86 125 172 210 254 311 371
#     4  11  23  36  59  89 120 160 209 264 312 361
#     4   9  19  35  56  85 118 155 203 254 308 371
#     4   9  19  37  60  86 118 159 203 248 299 367
#
# _framework density 22.935175000000001
#
# number of rings (size 3 to 8) (size 9 to 14) (size 15 to 20)
#    0.000    2.000    0.000    4.000    7.000    5.333 
#    0.000    1.667    0.000    4.500    0.000    4.667 
#    0.000    0.000    0.000    0.000    0.000    0.000 
#
# Total GULP energy -594849.730507 kJ/mol
# GULP energy per Si atom -12392.702719 kJ/mol
# Density = 2.288297 g / cm^3
# Si number density = 22.935175 Si / 1000 Ang^3
#
#
#
# Elastic Constant Matrix: (Units=GPa)
#
#
# Indices 1 2 3 4 5 6 
#
# 1 131.1552 40.6844 41.3423 0.0000 0.0000 0.0000
# 2 40.6844 104.4997 29.9685 0.0000 0.0000 0.0000
# 3 41.3423 29.9685 67.6249 0.0000 0.0000 0.0000
# 4 0.0000 0.0000 0.0000 28.1834 0.0000 0.0000
# 5 0.0000 0.0000 0.0000 0.0000 10.2639 0.0000
# 6 0.0000 0.0000 0.0000 0.0000 0.0000 57.1231
#
#
#
# Elastic Compliance Matrix: (Units=1/GPa)
#
#
# Indices 1 2 3 4 5 6 
#
# 1 0.009960 -0.002442 -0.005007 0.000000 0.000000 0.000000
# 2 -0.002442 0.011561 -0.003631 0.000000 0.000000 0.000000
# 3 -0.005007 -0.003631 0.019457 0.000000 0.000000 0.000000
# 4 0.000000 0.000000 0.000000 0.035482 0.000000 0.000000
# 5 0.000000 0.000000 0.000000 0.000000 0.097429 0.000000
# 6 0.000000 0.000000 0.000000 0.000000 0.000000 0.017506
#
#
# Mechanical properties :
#
#
# Convention : Reuss Voigt Hill
#
# Bulk Modulus (GPa) = 53.13531 58.58558 55.86044
# Shear Modulus (GPa) = 22.74505 31.86639 27.30572
#
# Velocity S-wave (km/s) = 3.15256 3.73152 3.45419
# Velocity P-wave (km/s) = 6.03899 6.64569 6.34959
#
# Compressibility (1/GPa) = 0.01881988
#
# Stress axis : x y z
#
# Youngs Moduli (GPa) = 100.39824 86.49553 51.39418
#
# Poissons Ratio (x) = 0.21121 0.25733
# Poissons Ratio (y) = 0.24516 0.18659
# Poissons Ratio (z) = 0.50270 0.31404
#
# Static dielectric constant tensor:
#      x y z
#    x 4.262680 0.000000 0.000000 
#    y 0.000000 4.278510 0.000000 
#    z 0.000000 0.000000 4.030010 
# 
# 
# High freq. dielectric constant tensor:
#      x y z
#    x 1.907610 0.000000 0.000000 
#    y 0.000000 1.910790 0.000000 
#    z 0.000000 0.000000 1.868610 
# 
# From -- ./inp_files/51910.got.cif
#   From: 2010.03.12/outbox.cif.g09.slc.cpg/sg74_26_cif.got.tgz:51910.got - 2010.04.16 15:46:19.
