data_PCOD8301801
_publ_section_title
;
Structure prediction by ZEFSAII (Michael W. Deem and Ramdas Pophale) SiO2 
 PCOD8301801
Probable space group: I M M A
;
_chemical_formula_sum "Si O2"
_cell_formula_units_Z 96
_cell_length_a 26.410993
_cell_length_b 9.440765
_cell_length_c 28.460633
_cell_angle_alpha 90.000000
_cell_angle_beta 90.000000
_cell_angle_gamma 90.000000
_cell_volume 7096.373615
_symmetry_space_group_name_H-M "I M M A"
_symmetry_group_IT_number 74
_symmetry_cell_setting 'orthorhombic'
loop_
_space_group_symop_operation_xyz
x,y,z
-x,1/2-y,z
x,-y,-z
-x,1/2+y,-z
-x,-y,-z
x,1/2+y,-z
-x,y,z
x,1/2-y,z
1/2+x,1/2+y,1/2+z
1/2-x,-y,1/2+z
1/2+x,1/2-y,1/2-z
1/2-x,y,1/2-z
1/2-x,1/2-y,1/2-z
1/2+x,y,1/2-z
1/2-x,1/2+y,1/2+z
1/2+x,-y,1/2+z
loop_
_atom_site_type_symbol
_atom_site_label
_atom_site_fract_x
_atom_site_fract_y
_atom_site_fract_z
Si Si1 0.716670 0.586965 0.043947
Si Si2 0.647661 0.914582 0.205105
Si Si3 0.901051 0.915269 0.455277
Si Si4 0.056448 0.418077 0.642498
Si Si5 0.699365 0.410367 0.280271
Si Si6 0.247803 0.586917 0.353880
O O1 0.724674 0.750000 0.031767
O O2 0.657973 0.552379 0.052117
O O3 0.746462 0.545340 0.091297
O O4 0.738956 0.500000 0.000000
O O5 0.643845 0.750000 0.219448
O O6 0.596068 0.972822 0.181439
O O7 0.692489 0.938531 0.167940
O O8 0.655889 0.005811 0.252175
O O9 0.911497 0.750000 0.463590
O O10 0.929687 0.974477 0.409339
O O11 0.922442 0.000000 0.500000
O O12 0.060663 0.250000 0.640757
O O13 0.000000 0.469276 0.656153
O O14 0.681420 0.250000 0.290035
O O15 0.750000 0.413380 0.250000
O O16 0.710033 0.488663 0.329522
O O17 0.263666 0.750000 0.346705
#
# Coordination Sequence:
#
# PCOD8301801 Si02
#       6
#    16  16  16  16  16  16
#     4   9  16  25  37  53  73  97 125 154 186 223
#     4   9  15  26  41  54  70  93 121 152 186 225
#     4   9  16  27  39  52  69  92 123 159 197 231
#     4   9  16  26  41  57  71  92 125 162 195 227
#     4   9  17  26  37  56  76  91 111 144 188 228
#     4   9  15  25  40  55  71  94 123 151 180 221
#
# _framework density 13.528036999999999
#
# number of rings (size 3 to 8) (size 9 to 14) (size 15 to 20)
#    0.000    3.000    1.667    0.500    0.000    3.000 
#    0.000    0.833    0.000    1.500    0.000    0.000 
#    0.000    0.000    0.000    0.000    0.000    0.833 
#
# Total GULP energy -595062.444322 kJ/mol
# GULP energy per Si atom -12397.134257 kJ/mol
# Density = 1.349725 g / cm^3
# Si number density = 13.528037 Si / 1000 Ang^3
#
#
#
# Elastic Constant Matrix: (Units=GPa)
#
#
# Indices 1 2 3 4 5 6 
#
# 1 54.2924 30.5756 52.0193 0.0000 0.0000 0.0000
# 2 30.5756 60.9127 51.8924 0.0000 0.0000 0.0000
# 3 52.0193 51.8924 103.1061 0.0000 0.0000 0.0000
# 4 0.0000 0.0000 0.0000 24.0356 0.0000 0.0000
# 5 0.0000 0.0000 0.0000 0.0000 18.7766 0.0000
# 6 0.0000 0.0000 0.0000 0.0000 0.0000 8.3005
#
#
#
# Elastic Compliance Matrix: (Units=1/GPa)
#
#
# Indices 1 2 3 4 5 6 
#
# 1 0.036374 -0.004594 -0.016039 0.000000 0.000000 0.000000
# 2 -0.004594 0.029319 -0.012438 0.000000 0.000000 0.000000
# 3 -0.016039 -0.012438 0.024051 0.000000 0.000000 0.000000
# 4 0.000000 0.000000 0.000000 0.041605 0.000000 0.000000
# 5 0.000000 0.000000 0.000000 0.000000 0.053258 0.000000
# 6 0.000000 0.000000 0.000000 0.000000 0.000000 0.120475
#
#
# Mechanical properties :
#
#
# Convention : Reuss Voigt Hill
#
# Bulk Modulus (GPa) = 42.37142 54.14288 48.25715
# Shear Modulus (GPa) = 13.18941 15.81080 14.50010
#
# Velocity S-wave (km/s) = 3.12584 3.42240 3.27747
# Velocity P-wave (km/s) = 6.66461 7.46503 7.07615
#
# Compressibility (1/GPa) = 0.02360081
#
# Stress axis : x y z
#
# Youngs Moduli (GPa) = 27.49246 34.10706 41.57835
#
# Poissons Ratio (x) = 0.15669 0.66688
# Poissons Ratio (y) = 0.12630 0.51717
# Poissons Ratio (z) = 0.44095 0.42424
#
# Static dielectric constant tensor:
#      x y z
#    x 2.446970 0.000000 0.000000 
#    y 0.000000 2.644330 0.000000 
#    z 0.000000 0.000000 2.763950 
# 
# 
# High freq. dielectric constant tensor:
#      x y z
#    x 1.467360 0.000000 0.000000 
#    y 0.000000 1.506040 0.000000 
#    z 0.000000 0.000000 1.509480 
# 
# From -- ./inp_files/55345.got.cif
#   From: 2010.03.12/outbox.cif.g09.slc.cpg/sg74_28_cif.got.tgz:55345.got - 2010.04.16 15:46:19.
