data_PCOD8301400
_publ_section_title
;
Structure prediction by ZEFSAII (Michael W. Deem and Ramdas Pophale) SiO2 
 PCOD8301400
Probable space group: I M M A
;
_chemical_formula_sum "Si O2"
_cell_formula_units_Z 96
_cell_length_a 14.237143
_cell_length_b 21.025440
_cell_length_c 14.538533
_cell_angle_alpha 90.000000
_cell_angle_beta 90.000000
_cell_angle_gamma 90.000000
_cell_volume 4351.996394
_symmetry_space_group_name_H-M "I M M A"
_symmetry_group_IT_number 74
_symmetry_cell_setting 'orthorhombic'
loop_
_space_group_symop_operation_xyz
x,y,z
-x,1/2-y,z
x,-y,-z
-x,1/2+y,-z
-x,-y,-z
x,1/2+y,-z
-x,y,z
x,1/2-y,z
1/2+x,1/2+y,1/2+z
1/2-x,-y,1/2+z
1/2+x,1/2-y,1/2-z
1/2-x,y,1/2-z
1/2-x,1/2-y,1/2-z
1/2+x,y,1/2-z
1/2-x,1/2+y,1/2+z
1/2+x,-y,1/2+z
loop_
_atom_site_type_symbol
_atom_site_label
_atom_site_fract_x
_atom_site_fract_y
_atom_site_fract_z
Si Si1 0.388529 0.640469 0.743665
Si Si2 0.894496 0.678335 0.302070
Si Si3 0.212749 0.590539 0.437665
Si Si4 0.264117 0.678621 0.894596
Si Si5 0.102970 0.585374 0.153211
Si Si6 0.608440 0.495972 0.176378
O O1 0.500000 0.649668 0.728613
O O2 0.344638 0.689146 0.817355
O O3 0.334500 0.652209 0.647315
O O4 0.360889 0.573183 0.789607
O O5 0.860321 0.750000 0.305093
O O6 0.820909 0.638804 0.360107
O O7 0.895102 0.656306 0.195649
O O8 0.000000 0.669564 0.343268
O O9 0.195258 0.625299 0.534704
O O10 0.324421 0.579061 0.429952
O O11 0.162787 0.522078 0.415576
O O12 0.248343 0.750000 0.937405
O O13 0.131455 0.539869 0.236977
O O14 0.000000 0.568037 0.113832
O O15 0.500000 0.497900 0.148984
#
# Coordination Sequence:
#
# PCOD8301400 Si02
#       6
#    16  16  16  16  16  16
#     4  10  23  45  69  87 116 165 213 262 310 362
#     4   9  17  30  50  78 115 161 207 246 295 364
#     4  11  21  34  58  89 126 158 192 255 319 364
#     4  11  26  42  61  95 126 158 213 260 308 382
#     4   9  19  33  52  84 122 163 204 239 290 368
#     4   9  19  38  64  93 123 157 205 252 307 375
#
# _framework density 22.058841999999999
#
# number of rings (size 3 to 8) (size 9 to 14) (size 15 to 20)
#    0.000    2.167    0.000    5.000    4.667    6.000 
#    0.000    1.667    0.000    3.000    0.000    0.000 
#    0.000    0.000    0.000    0.000    0.000    0.000 
#
# Total GULP energy -594696.399818 kJ/mol
# GULP energy per Si atom -12389.508330 kJ/mol
# Density = 2.200863 g / cm^3
# Si number density = 22.058842 Si / 1000 Ang^3
#
#
#
# Elastic Constant Matrix: (Units=GPa)
#
#
# Indices 1 2 3 4 5 6 
#
# 1 91.8992 18.1506 10.9419 0.0010 0.0000 0.0000
# 2 18.1506 104.1713 9.0372 -0.0009 0.0000 0.0000
# 3 10.9419 9.0372 39.5644 -0.0028 0.0002 0.0000
# 4 0.0010 -0.0009 -0.0028 4.0000 0.0001 0.0000
# 5 0.0000 0.0000 0.0002 0.0001 19.9516 0.0000
# 6 0.0000 0.0000 0.0000 0.0000 0.0000 27.1333
#
#
#
# Elastic Compliance Matrix: (Units=1/GPa)
#
#
# Indices 1 2 3 4 5 6 
#
# 1 0.011564 -0.001773 -0.002793 -0.000005 0.000000 0.000000
# 2 -0.001773 0.010065 -0.001809 0.000001 0.000000 0.000000
# 3 -0.002793 -0.001809 0.026461 0.000019 0.000000 0.000000
# 4 -0.000005 0.000001 0.000019 0.249997 -0.000001 0.000000
# 5 0.000000 0.000000 0.000000 -0.000001 0.050121 0.000000
# 6 0.000000 0.000000 0.000000 0.000000 0.000000 0.036855
#
#
# Mechanical properties :
#
#
# Convention : Reuss Voigt Hill
#
# Bulk Modulus (GPa) = 28.29579 34.65491 31.47535
# Shear Modulus (GPa) = 12.20723 23.38401 17.79562
#
# Velocity S-wave (km/s) = 2.35498 3.25941 2.84339
# Velocity P-wave (km/s) = 4.49998 5.46894 5.00795
#
# Compressibility (1/GPa) = 0.03534095
#
# Stress axis : x y z
#
# Youngs Moduli (GPa) = 86.47406 99.35072 37.79160
#
# Poissons Ratio (x) = 0.17611 0.10556
# Poissons Ratio (y) = 0.15328 0.06836
# Poissons Ratio (z) = 0.24155 0.17971
#
# Static dielectric constant tensor:
#      x y z
#    x 4.020620 0.000000 0.000000 
#    y 0.000000 4.221270 0.000000 
#    z 0.000000 0.000000 3.709180 
# 
# 
# High freq. dielectric constant tensor:
#      x y z
#    x 1.872950 0.000000 0.000000 
#    y 0.000000 1.879290 0.000000 
#    z 0.000000 0.000000 1.830970 
# 
# From -- ./inp_files/32375.got.cif
#   From: 2010.03.12/outbox.cif.g09.slc.cpg/sg74_17_cif.got.tgz:32375.got - 2010.04.16 15:46:19.
