data_PCOD8301646
_publ_section_title
;
Structure prediction by ZEFSAII (Michael W. Deem and Ramdas Pophale) SiO2 
 PCOD8301646
Probable space group: I M M A
;
_chemical_formula_sum "Si O2"
_cell_formula_units_Z 112
_cell_length_a 28.811500
_cell_length_b 15.144599
_cell_length_c 11.672211
_cell_angle_alpha 90.000000
_cell_angle_beta 90.000000
_cell_angle_gamma 90.000000
_cell_volume 5093.036371
_symmetry_space_group_name_H-M "I M M A"
_symmetry_group_IT_number 74
_symmetry_cell_setting 'orthorhombic'
loop_
_space_group_symop_operation_xyz
x,y,z
-x,1/2-y,z
x,-y,-z
-x,1/2+y,-z
-x,-y,-z
x,1/2+y,-z
-x,y,z
x,1/2-y,z
1/2+x,1/2+y,1/2+z
1/2-x,-y,1/2+z
1/2+x,1/2-y,1/2-z
1/2-x,y,1/2-z
1/2-x,1/2-y,1/2-z
1/2+x,y,1/2-z
1/2-x,1/2+y,1/2+z
1/2+x,-y,1/2+z
loop_
_atom_site_type_symbol
_atom_site_label
_atom_site_fract_x
_atom_site_fract_y
_atom_site_fract_z
Si Si1 0.051566 0.146628 0.501440
Si Si2 0.206147 0.096125 0.677933
Si Si3 0.685874 0.598048 0.734029
Si Si4 0.083108 0.352390 0.252954
Si Si5 0.948136 0.984526 0.128809
Si Si6 0.394513 0.649949 0.221580
Si Si7 0.759391 0.348105 0.438287
O O1 0.046029 0.250000 0.515017
O O2 0.079749 0.124351 0.386950
O O3 0.081201 0.110185 0.607628
O O4 0.000000 0.103316 0.499727
O O5 0.250000 0.132379 0.750000
O O6 0.160878 0.154742 0.703605
O O7 0.219653 0.096536 0.543790
O O8 0.192477 0.998766 0.715911
O O9 0.633880 0.625149 0.706248
O O10 0.713494 0.605594 0.613874
O O11 0.704140 0.662426 0.833934
O O12 0.069559 0.250000 0.228485
O O13 0.049229 0.419272 0.188217
O O14 0.910447 0.916126 0.178681
O O15 0.000000 0.943419 0.136543
O O16 0.932123 0.000000 0.000000
O O17 0.410988 0.750000 0.249118
O O18 0.747430 0.250000 0.483051
#
# Coordination Sequence:
#
# PCOD8301646 Si02
#       7
#    16  16  16  16  16  16  16
#     4   9  19  37  66 103 136 166 210 272 344 418
#     4  12  25  43  67  96 134 175 226 287 344 403
#     4  11  22  41  67  93 129 180 225 269 336 411
#     4  11  22  41  69 101 136 174 222 280 344 411
#     4  11  26  46  67  96 135 180 232 282 333 410
#     4  11  24  45  71  99 134 178 225 282 353 421
#     4  11  23  40  64  95 130 172 225 278 336 405
#
# _framework density 21.990811999999998
#
# number of rings (size 3 to 8) (size 9 to 14) (size 15 to 20)
#    0.000    1.143    2.857    4.286    0.000    6.286 
#    0.000    2.857    0.000    0.000    0.000    0.000 
#    0.000    0.000    0.000    0.000    0.000    0.000 
#
# Total GULP energy -694344.636341 kJ/mol
# GULP energy per Si atom -12399.011363 kJ/mol
# Density = 2.194076 g / cm^3
# Si number density = 21.990812 Si / 1000 Ang^3
#
#
#
# Elastic Constant Matrix: (Units=GPa)
#
#
# Indices 1 2 3 4 5 6 
#
# 1 125.3673 14.0088 45.6980 0.0000 0.0000 0.0000
# 2 14.0088 115.4673 45.7088 0.0000 0.0000 0.0000
# 3 45.6980 45.7088 129.0728 0.0000 0.0000 0.0000
# 4 0.0000 0.0000 0.0000 21.4795 0.0000 0.0000
# 5 0.0000 0.0000 0.0000 0.0000 31.5579 0.0000
# 6 0.0000 0.0000 0.0000 0.0000 0.0000 25.3885
#
#
#
# Elastic Compliance Matrix: (Units=1/GPa)
#
#
# Indices 1 2 3 4 5 6 
#
# 1 0.009163 0.000201 -0.003315 0.000000 0.000000 0.000000
# 2 0.000201 0.010077 -0.003640 0.000000 0.000000 0.000000
# 3 -0.003315 -0.003640 0.010210 0.000000 0.000000 0.000000
# 4 0.000000 0.000000 0.000000 0.046556 0.000000 0.000000
# 5 0.000000 0.000000 0.000000 0.000000 0.031688 0.000000
# 6 0.000000 0.000000 0.000000 0.000000 0.000000 0.039388
#
#
# Mechanical properties :
#
#
# Convention : Reuss Voigt Hill
#
# Bulk Modulus (GPa) = 62.72888 64.52650 63.62769
# Shear Modulus (GPa) = 30.13808 33.31795 31.72801
#
# Velocity S-wave (km/s) = 3.70602 3.89663 3.80252
# Velocity P-wave (km/s) = 6.84834 7.04636 6.94806
#
# Compressibility (1/GPa) = 0.01594162
#
# Stress axis : x y z
#
# Youngs Moduli (GPa) = 109.14037 99.23704 97.94181
#
# Poissons Ratio (x) = -0.01991 0.32468
# Poissons Ratio (y) = -0.02190 0.35647
# Poissons Ratio (z) = 0.36180 0.36118
#
# Static dielectric constant tensor:
#      x y z
#    x 4.141750 0.000000 0.000000 
#    y 0.000000 3.855060 0.000000 
#    z 0.000000 0.000000 3.929460 
# 
# 
# High freq. dielectric constant tensor:
#      x y z
#    x 1.869520 0.000000 0.000000 
#    y 0.000000 1.865710 0.000000 
#    z 0.000000 0.000000 1.857580 
# 
# From -- ./inp_files/27217.got.cif
#   From: 2010.03.12/outbox.cif.g09.slc.cpg/sg74_14_cif.got.tgz:27217.got - 2010.04.16 15:46:19.
