data_PCOD8301988
_publ_section_title
;
Structure prediction by ZEFSAII (Michael W. Deem and Ramdas Pophale) SiO2 
 PCOD8301988
Probable space group: P 42
;
_chemical_formula_sum "Si O2"
_cell_formula_units_Z 24
_cell_length_a 7.925164
_cell_length_b 7.925164
_cell_length_c 17.816555
_cell_angle_alpha 90.000000
_cell_angle_beta 90.000000
_cell_angle_gamma 90.000000
_cell_volume 1119.026185
_symmetry_space_group_name_H-M "P 42"
_symmetry_group_IT_number 77
_symmetry_cell_setting 'tetragonal'
loop_
_space_group_symop_operation_xyz
x,y,z
-y,x,1/2+z
-x,-y,z
y,-x,1/2+z
loop_
_atom_site_type_symbol
_atom_site_label
_atom_site_fract_x
_atom_site_fract_y
_atom_site_fract_z
Si Si1 0.576480 0.683105 0.793710
Si Si2 0.768234 0.186636 0.803029
Si Si3 0.813240 0.065493 0.049086
Si Si4 0.933767 0.683763 0.712128
Si Si5 0.129650 0.762406 0.407365
Si Si6 0.328406 0.089415 0.438807
O O1 0.500000 0.500000 0.788029
O O2 0.583026 0.204847 0.764623
O O3 0.745547 0.712489 0.744384
O O4 0.625769 0.730696 0.880412
O O5 0.786343 0.337863 0.866509
O O6 0.922825 0.189456 0.743840
O O7 0.764578 0.008562 0.843004
O O8 0.701968 0.076498 0.122961
O O9 0.821454 0.252720 0.012549
O O10 0.000000 0.000000 0.068733
O O11 0.717652 0.941982 0.989856
O O12 0.000000 0.500000 0.734377
O O13 0.197774 0.951042 0.409020
O O14 0.500000 0.000000 0.461913
#
# Coordination Sequence:
#
# PCOD8301988 Si02
#       6
#     4   4   4   4   4   4
#     4  12  24  40  67 105 131 174 232 282 346 415
#     4  11  22  40  69  98 128 173 235 280 336 406
#     4   9  23  42  67  95 132 184 230 265 344 419
#     4  12  25  44  66  92 145 184 215 290 357 400
#     4  10  22  43  69  99 131 174 231 284 332 407
#     4  10  19  40  68  98 135 177 218 281 342 397
#
# _framework density 21.447219
#
# number of rings (size 3 to 8) (size 9 to 14) (size 15 to 20)
#    0.000    1.333    3.333    3.500    2.333    2.667 
#    6.000    0.000    0.000    0.000    0.000    0.000 
#    0.000    0.000    0.000    0.000    0.000    0.000 
#
# Total GULP energy -297410.919854 kJ/mol
# GULP energy per Si atom -12392.121661 kJ/mol
# Density = 2.139840 g / cm^3
# Si number density = 21.447219 Si / 1000 Ang^3
#
#
#
# Elastic Constant Matrix: (Units=GPa)
#
#
# Indices 1 2 3 4 5 6 
#
# 1 95.6709 22.3497 44.2663 0.0000 0.0000 2.4733
# 2 22.3497 95.6709 44.2663 0.0000 0.0000 -2.4733
# 3 44.2663 44.2663 123.0436 0.0000 0.0000 0.0000
# 4 0.0000 0.0000 0.0000 20.3316 0.0000 0.0000
# 5 0.0000 0.0000 0.0000 0.0000 20.3316 0.0000
# 6 2.4733 -2.4733 0.0000 0.0000 0.0000 25.8260
#
#
#
# Elastic Compliance Matrix: (Units=1/GPa)
#
#
# Indices 1 2 3 4 5 6 
#
# 1 0.012666 -0.001061 -0.004175 0.000000 0.000000 -0.001315
# 2 -0.001061 0.012666 -0.004175 0.000000 0.000000 0.001315
# 3 -0.004175 -0.004175 0.011131 0.000000 0.000000 0.000000
# 4 0.000000 0.000000 0.000000 0.049185 0.000000 0.000000
# 5 0.000000 0.000000 0.000000 0.000000 0.049185 0.000000
# 6 -0.001315 0.001315 0.000000 0.000000 0.000000 0.038972
#
#
# Mechanical properties :
#
#
# Convention : Reuss Voigt Hill
#
# Bulk Modulus (GPa) = 56.68584 59.57221 58.12903
# Shear Modulus (GPa) = 25.18794 26.86472 26.02633
#
# Velocity S-wave (km/s) = 3.43069 3.54304 3.48732
# Velocity P-wave (km/s) = 6.49466 6.67638 6.58615
#
# Compressibility (1/GPa) = 0.01764109
#
# Stress axis : x y z
#
# Youngs Moduli (GPa) = 78.95065 78.95065 89.83754
#
# Poissons Ratio (x) = 0.08378 0.37507
# Poissons Ratio (y) = 0.08378 0.37507
# Poissons Ratio (z) = 0.32962 0.32962
#
# Static dielectric constant tensor:
#      x y z
#    x 4.308940 0.000000 0.000000 
#    y 0.000000 4.308940 0.000000 
#    z 0.000000 0.000000 3.734370 
# 
# 
# High freq. dielectric constant tensor:
#      x y z
#    x 1.846620 0.000000 0.000000 
#    y 0.000000 1.846620 0.000000 
#    z 0.000000 0.000000 1.818160 
# 
# From -- ./inp_files/1290.got.cif
#   From: 2010.03.12/outbox.cif.g09.slc.cpg/sg77_cif.got.tgz:1290.got - 2010.04.16 16:36:19.
