data_PCOD8301838
_publ_section_title
;
Structure prediction by ZEFSAII (Michael W. Deem and Ramdas Pophale) SiO2 
 PCOD8301838
Probable space group: P 4
;
_chemical_formula_sum "Si O2"
_cell_formula_units_Z 28
_cell_length_a 8.425014
_cell_length_b 8.425014
_cell_length_c 18.271906
_cell_angle_alpha 90.000000
_cell_angle_beta 90.000000
_cell_angle_gamma 90.000000
_cell_volume 1296.955618
_symmetry_space_group_name_H-M "P 4"
_symmetry_group_IT_number 75
_symmetry_cell_setting 'tetragonal'
loop_
_space_group_symop_operation_xyz
x,y,z
-y,x,z
-x,-y,z
y,-x,z
loop_
_atom_site_type_symbol
_atom_site_label
_atom_site_fract_x
_atom_site_fract_y
_atom_site_fract_z
Si Si1 0.586027 0.748178 0.447260
Si Si2 0.596548 0.744325 0.865495
Si Si3 0.397978 0.256177 0.132063
Si Si4 0.911300 0.243804 0.570779
Si Si5 0.594311 0.743408 0.290240
Si Si6 0.758858 0.900234 0.735646
Si Si7 0.097581 0.755737 0.998939
O O1 0.404404 0.698299 0.454182
O O2 0.620467 0.869549 0.512631
O O3 0.623607 0.834048 0.367845
O O4 0.412493 0.703274 0.870589
O O5 0.623296 0.837414 0.789567
O O6 0.642947 0.860721 0.931206
O O7 0.583054 0.296716 0.122281
O O8 0.368548 0.171939 0.212311
O O9 0.342099 0.128907 0.072912
O O10 0.880932 0.306451 0.653062
O O11 0.092583 0.199510 0.557951
O O12 0.411589 0.700095 0.290523
O O13 0.916314 0.797330 0.750145
O O14 0.913052 0.796230 0.995674
#
# Coordination Sequence:
#
# PCOD8301838 Si02
#       7
#     4   4   4   4   4   4   4
#     4   9  17  30  50  76 104 134 171 215 259 302
#     4  11  24  39  56  81 108 131 162 206 253 301
#     4   9  17  32  56  81 102 129 170 216 258 302
#     4   9  19  35  52  72 102 139 175 210 251 300
#     4   7  12  26  48  73 101 132 166 208 257 303
#     4   9  19  37  58  77 100 134 174 211 250 300
#     4  11  24  39  54  75 105 139 172 205 246 299
#
# _framework density 21.589019
#
# number of rings (size 3 to 8) (size 9 to 14) (size 15 to 20)
#    0.000    2.714    0.000    4.286    0.000    8.000 
#    0.000    5.714    0.000    6.857    0.000    0.000 
#    0.000    0.000    0.000    0.000    0.000    0.000 
#
# Total GULP energy -346997.856897 kJ/mol
# GULP energy per Si atom -12392.780603 kJ/mol
# Density = 2.153988 g / cm^3
# Si number density = 21.589019 Si / 1000 Ang^3
#
#
#
# Elastic Constant Matrix: (Units=GPa)
#
#
# Indices 1 2 3 4 5 6 
#
# 1 18.5769 -7.5649 9.1529 0.0000 0.0000 1.2087
# 2 -7.5649 18.5769 9.1529 0.0000 0.0000 -1.2087
# 3 9.1529 9.1529 152.2392 0.0000 0.0000 0.0000
# 4 0.0000 0.0000 0.0000 -10.2705 0.0000 0.0000
# 5 0.0000 0.0000 0.0000 0.0000 -10.2705 0.0000
# 6 1.2087 -1.2087 0.0000 0.0000 0.0000 30.9346
#
#
#
# Elastic Compliance Matrix: (Units=1/GPa)
#
#
# Indices 1 2 3 4 5 6 
#
# 1 0.069642 0.031251 -0.006066 0.000000 0.000000 -0.001500
# 2 0.031251 0.069642 -0.006066 0.000000 0.000000 0.001500
# 3 -0.006066 -0.006066 0.007298 0.000000 0.000000 0.000000
# 4 0.000000 0.000000 0.000000 -0.097366 0.000000 0.000000
# 5 0.000000 0.000000 0.000000 0.000000 -0.097366 0.000000
# 6 -0.001500 0.001500 0.000000 0.000000 0.000000 0.032443
#
#
# Mechanical properties :
#
#
# Convention : Reuss Voigt Hill
#
# Bulk Modulus (GPa) = 5.41065 23.43053 14.42059
# Shear Modulus (GPa) = 652.56118 13.98888 333.27503
#
# Velocity S-wave (km/s) = 17.40464 2.54827 12.43815
# Velocity P-wave (km/s) = 20.15954 4.41982 14.59352
#
# Compressibility (1/GPa) = 0.18482053
#
# Stress axis : x y z
#
# Youngs Moduli (GPa) = 14.35909 14.35909 137.02401
#
# Poissons Ratio (x) = -0.44873 0.83117
# Poissons Ratio (y) = -0.44873 0.83117
# Poissons Ratio (z) = 0.08710 0.08710
#
# Static dielectric constant tensor:
#      x y z
#    x 3.577380 0.000000 0.000000 
#    y 0.000000 3.577380 0.000000 
#    z 0.000000 0.000000 4.336720 
# 
# 
# High freq. dielectric constant tensor:
#      x y z
#    x 1.825530 0.000000 0.000000 
#    y 0.000000 1.825530 0.000000 
#    z 0.000000 0.000000 1.870500 
# 
# From -- ./inp_files/741.got.cif
#   From: 2010.03.12/outbox.cif.g09.slc.cpg/sg75_cif.got.tgz:741.got - 2010.04.16 16:33:55.
