data_PCOD8301313
_publ_section_title
;
Structure prediction by ZEFSAII (Michael W. Deem and Ramdas Pophale) SiO2 
 PCOD8301313
Probable space group: I M M A
;
_chemical_formula_sum "Si O2"
_cell_formula_units_Z 40
_cell_length_a 10.383894
_cell_length_b 10.117372
_cell_length_c 16.976694
_cell_angle_alpha 90.000000
_cell_angle_beta 90.000000
_cell_angle_gamma 90.000000
_cell_volume 1783.532738
_symmetry_space_group_name_H-M "I M M A"
_symmetry_group_IT_number 74
_symmetry_cell_setting 'orthorhombic'
loop_
_space_group_symop_operation_xyz
x,y,z
-x,1/2-y,z
x,-y,-z
-x,1/2+y,-z
-x,-y,-z
x,1/2+y,-z
-x,y,z
x,1/2-y,z
1/2+x,1/2+y,1/2+z
1/2-x,-y,1/2+z
1/2+x,1/2-y,1/2-z
1/2-x,y,1/2-z
1/2-x,1/2-y,1/2-z
1/2+x,y,1/2-z
1/2-x,1/2+y,1/2+z
1/2+x,-y,1/2+z
loop_
_atom_site_type_symbol
_atom_site_label
_atom_site_fract_x
_atom_site_fract_y
_atom_site_fract_z
Si Si1 0.000000 0.092452 0.575820
Si Si2 0.773224 0.488718 0.906452
Si Si3 0.138364 0.750000 0.186060
Si Si4 0.350811 0.750000 0.679941
O O1 0.128624 0.051227 0.622967
O O2 0.000000 0.250000 0.554944
O O3 0.000000 0.000000 0.500000
O O4 0.862548 0.375456 0.871479
O O5 0.821777 0.625269 0.873222
O O6 0.782940 0.500000 0.000000
O O7 0.250000 0.750000 0.250000
O O8 0.000000 0.750000 0.231185
O O9 0.500000 0.750000 0.708969
O O10 0.250000 0.750000 0.750000
#
# Coordination Sequence:
#
# PCOD8301313 Si02
#       4
#     8  16   8   8
#     4  10  22  40  72 114 146 184 233 296 370 428
#     4  11  25  45  75 106 144 185 245 302 361 429
#     4  12  27  45  72 102 142 191 234 295 367 433
#     4  12  29  49  72 106 148 195 242 303 377 439
#
# _framework density 22.427399999999999
#
# number of rings (size 3 to 8) (size 9 to 14) (size 15 to 20)
#    0.000    0.800    2.000    3.600   14.000    4.800 
#    0.000    0.000    0.000    0.000    0.000    0.000 
#    0.000    0.000    0.000    0.000    0.000    0.000 
#
# Total GULP energy -247917.589628 kJ/mol
# GULP energy per Si atom -12395.879481 kJ/mol
# Density = 2.237635 g / cm^3
# Si number density = 22.427400 Si / 1000 Ang^3
#
#
#
# Elastic Constant Matrix: (Units=GPa)
#
#
# Indices 1 2 3 4 5 6 
#
# 1 208.2688 64.3475 60.1631 0.0000 0.0000 0.0000
# 2 64.3475 209.6901 52.0817 0.0000 0.0000 0.0000
# 3 60.1631 52.0817 114.6588 0.0000 0.0000 0.0000
# 4 0.0000 0.0000 0.0000 27.2148 0.0000 0.0000
# 5 0.0000 0.0000 0.0000 0.0000 36.3326 0.0000
# 6 0.0000 0.0000 0.0000 0.0000 0.0000 48.6492
#
#
#
# Elastic Compliance Matrix: (Units=1/GPa)
#
#
# Indices 1 2 3 4 5 6 
#
# 1 0.005905 -0.001175 -0.002565 0.000000 0.000000 0.000000
# 2 -0.001175 0.005609 -0.001931 0.000000 0.000000 0.000000
# 3 -0.002565 -0.001931 0.010945 0.000000 0.000000 0.000000
# 4 0.000000 0.000000 0.000000 0.036745 0.000000 0.000000
# 5 0.000000 0.000000 0.000000 0.000000 0.027523 0.000000
# 6 0.000000 0.000000 0.000000 0.000000 0.000000 0.020555
#
#
# Mechanical properties :
#
#
# Convention : Reuss Voigt Hill
#
# Bulk Modulus (GPa) = 89.95488 98.42246 94.18867
# Shear Modulus (GPa) = 40.87270 46.17437 43.52353
#
# Velocity S-wave (km/s) = 4.27364 4.54236 4.41005
# Velocity P-wave (km/s) = 8.03421 8.45523 8.24741
#
# Compressibility (1/GPa) = 0.01111668
#
# Stress axis : x y z
#
# Youngs Moduli (GPa) = 169.33372 178.27724 91.36909
#
# Poissons Ratio (x) = 0.20950 0.23435
# Poissons Ratio (y) = 0.19899 0.17646
# Poissons Ratio (z) = 0.43432 0.34430
#
# Static dielectric constant tensor:
#      x y z
#    x 4.974470 0.000000 0.000000 
#    y 0.000000 3.690410 0.000000 
#    z 0.000000 0.000000 4.003560 
# 
# 
# High freq. dielectric constant tensor:
#      x y z
#    x 1.909000 0.000000 0.000000 
#    y 0.000000 1.908610 0.000000 
#    z 0.000000 0.000000 1.870740 
# 
# From -- ./inp_files/40292.got.cif
#   From: 2010.03.12/outbox.cif.g09.slc.cpg/sg74_21_cif.got.tgz:40292.got - 2010.04.16 15:46:19.
