data_PCOD8301291
_publ_section_title
;
Structure prediction by ZEFSAII (Michael W. Deem and Ramdas Pophale) SiO2 
 PCOD8301291
Probable space group: I M M A
;
_chemical_formula_sum "Si O2"
_cell_formula_units_Z 64
_cell_length_a 14.085007
_cell_length_b 24.082740
_cell_length_c 9.466955
_cell_angle_alpha 90.000000
_cell_angle_beta 90.000000
_cell_angle_gamma 90.000000
_cell_volume 3211.243786
_symmetry_space_group_name_H-M "I M M A"
_symmetry_group_IT_number 74
_symmetry_cell_setting 'orthorhombic'
loop_
_space_group_symop_operation_xyz
x,y,z
-x,1/2-y,z
x,-y,-z
-x,1/2+y,-z
-x,-y,-z
x,1/2+y,-z
-x,y,z
x,1/2-y,z
1/2+x,1/2+y,1/2+z
1/2-x,-y,1/2+z
1/2+x,1/2-y,1/2-z
1/2-x,y,1/2-z
1/2-x,1/2-y,1/2-z
1/2+x,y,1/2-z
1/2-x,1/2+y,1/2+z
1/2+x,-y,1/2+z
loop_
_atom_site_type_symbol
_atom_site_label
_atom_site_fract_x
_atom_site_fract_y
_atom_site_fract_z
Si Si1 0.801842 0.687943 0.397319
Si Si2 0.000000 0.473724 0.783132
Si Si3 0.500000 0.129018 0.925528
Si Si4 0.695627 0.111808 0.388390
Si Si5 0.345015 0.000000 0.500000
Si Si6 0.500000 0.399950 0.250083
O O1 0.814591 0.750000 0.459327
O O2 0.750000 0.690485 0.250000
O O3 0.905423 0.660980 0.379503
O O4 0.729850 0.653564 0.493253
O O5 0.000000 0.430117 0.654879
O O6 0.000000 0.534830 0.716493
O O7 0.092241 0.467572 0.882879
O O8 0.500000 0.127081 0.095848
O O9 0.750000 0.128341 0.250000
O O10 0.720243 0.047992 0.432216
O O11 0.585530 0.118576 0.350994
#
# Coordination Sequence:
#
# PCOD8301291 Si02
#       6
#    16   8   8  16   8   8
#     4  11  26  45  66  94 126 167 222 273 322 383
#     4   9  19  35  61  89 132 169 205 259 314 388
#     4  12  21  41  67  93 128 169 210 269 327 378
#     4  11  22  41  63  93 131 169 212 263 317 388
#     4   9  20  36  58  95 132 170 208 259 322 389
#     4  10  22  40  60  98 131 167 213 258 319 388
#
# _framework density 19.929973
#
# number of rings (size 3 to 8) (size 9 to 14) (size 15 to 20)
#    0.000    1.500    2.500    3.000    0.000    6.500 
#    0.000    1.875    0.000    0.000    0.000    0.000 
#    0.000    0.000    0.000    0.000    0.000    0.000 
#
# Total GULP energy -396705.148139 kJ/mol
# GULP energy per Si atom -12397.035879 kJ/mol
# Density = 1.988461 g / cm^3
# Si number density = 19.929973 Si / 1000 Ang^3
#
#
#
# Elastic Constant Matrix: (Units=GPa)
#
#
# Indices 1 2 3 4 5 6 
#
# 1 129.0446 62.8126 34.6272 -0.0022 -0.0002 0.0002
# 2 62.8126 124.1408 45.7320 -0.0031 -0.0004 0.0001
# 3 34.6272 45.7320 84.7309 -0.0144 -0.0002 0.0007
# 4 -0.0022 -0.0031 -0.0144 27.7292 -0.0018 0.0013
# 5 -0.0002 -0.0004 -0.0002 -0.0018 14.7444 0.0009
# 6 0.0002 0.0001 0.0007 0.0013 0.0009 24.3318
#
#
#
# Elastic Compliance Matrix: (Units=1/GPa)
#
#
# Indices 1 2 3 4 5 6 
#
# 1 0.010491 -0.004654 -0.001775 -0.000001 0.000000 0.000000
# 2 -0.004654 0.012119 -0.004639 -0.000001 0.000000 0.000000
# 3 -0.001775 -0.004639 0.015032 0.000007 0.000000 0.000000
# 4 -0.000001 -0.000001 0.000007 0.036063 0.000004 -0.000002
# 5 0.000000 0.000000 0.000000 0.000004 0.067822 -0.000002
# 6 0.000000 0.000000 0.000000 -0.000002 -0.000002 0.041098
#
#
# Mechanical properties :
#
#
# Convention : Reuss Voigt Hill
#
# Bulk Modulus (GPa) = 64.49772 69.36224 66.92998
# Shear Modulus (GPa) = 23.81728 26.34404 25.08066
#
# Velocity S-wave (km/s) = 3.46070 3.63964 3.55130
# Velocity P-wave (km/s) = 6.95708 7.24853 7.10430
#
# Compressibility (1/GPa) = 0.01550442
#
# Stress axis : x y z
#
# Youngs Moduli (GPa) = 95.31873 82.51284 66.52690
#
# Poissons Ratio (x) = 0.38404 0.11811
# Poissons Ratio (y) = 0.44364 0.30863
# Poissons Ratio (z) = 0.16923 0.38279
#
# Static dielectric constant tensor:
#      x y z
#    x 3.572120 0.000000 0.000000 
#    y 0.000000 3.703460 0.000000 
#    z 0.000000 0.000000 3.568250 
# 
# 
# High freq. dielectric constant tensor:
#      x y z
#    x 1.782370 0.000000 0.000000 
#    y 0.000000 1.769940 0.000000 
#    z 0.000000 0.000000 1.789310 
# 
# From -- ./inp_files/8937.got.cif
#   From: 2010.03.12/outbox.cif.g09.slc.cpg/sg74_5_cif.got.tgz:8937.got - 2010.04.16 15:46:19.
