data_PCOD8301468
_publ_section_title
;
Structure prediction by ZEFSAII (Michael W. Deem and Ramdas Pophale) SiO2 
 PCOD8301468
Probable space group: I M M A
;
_chemical_formula_sum "Si O2"
_cell_formula_units_Z 112
_cell_length_a 28.011683
_cell_length_b 18.353478
_cell_length_c 12.097183
_cell_angle_alpha 90.000000
_cell_angle_beta 90.000000
_cell_angle_gamma 90.000000
_cell_volume 6219.304620
_symmetry_space_group_name_H-M "I M M A"
_symmetry_group_IT_number 74
_symmetry_cell_setting 'orthorhombic'
loop_
_space_group_symop_operation_xyz
x,y,z
-x,1/2-y,z
x,-y,-z
-x,1/2+y,-z
-x,-y,-z
x,1/2+y,-z
-x,y,z
x,1/2-y,z
1/2+x,1/2+y,1/2+z
1/2-x,-y,1/2+z
1/2+x,1/2-y,1/2-z
1/2-x,y,1/2-z
1/2-x,1/2-y,1/2-z
1/2+x,y,1/2-z
1/2-x,1/2+y,1/2+z
1/2+x,-y,1/2+z
loop_
_atom_site_type_symbol
_atom_site_label
_atom_site_fract_x
_atom_site_fract_y
_atom_site_fract_z
Si Si1 0.312797 0.577563 0.465511
Si Si2 0.204332 0.924144 0.455396
Si Si3 0.207646 0.165169 0.327106
Si Si4 0.360621 0.424582 0.747891
Si Si5 0.554383 0.833370 0.566620
Si Si6 0.945495 0.333967 0.809506
Si Si7 0.860731 0.406602 0.178415
O O1 0.336267 0.500000 0.500000
O O2 0.259291 0.565143 0.421168
O O3 0.339889 0.614310 0.362501
O O4 0.323248 0.619118 0.580449
O O5 0.206856 0.862784 0.548074
O O6 0.171849 0.901355 0.351844
O O7 0.182963 0.000000 0.500000
O O8 0.215319 0.250000 0.334472
O O9 0.250000 0.130391 0.250000
O O10 0.155989 0.144300 0.278610
O O11 0.413062 0.389282 0.763281
O O12 0.359547 0.510981 0.725067
O O13 0.500000 0.845488 0.603916
O O14 0.569843 0.750000 0.587123
O O15 0.560355 0.853386 0.438353
O O16 0.585888 0.887414 0.640970
O O17 0.930895 0.250000 0.787395
O O18 0.000000 0.346677 0.772305
#
# Coordination Sequence:
#
# PCOD8301468 Si02
#       7
#    16  16  16  16  16  16  16
#     4   9  19  31  52  81 113 150 183 221 280 338
#     4  11  21  37  56  77 115 155 194 232 274 336
#     4  11  23  38  57  82 111 152 199 238 281 339
#     4  11  21  33  57  86 112 147 193 230 286 346
#     4   9  18  33  54  80 113 151 185 228 292 351
#     4   9  19  36  56  80 113 151 188 233 292 351
#     4  11  19  34  56  84 115 147 185 236 290 337
#
# _framework density 18.008444999999998
#
# number of rings (size 3 to 8) (size 9 to 14) (size 15 to 20)
#    0.000    1.857    4.286    1.714    0.000    1.143 
#    0.000    2.143    0.000    3.000    0.000    2.000 
#    0.000    0.000    0.000    0.000    0.000    0.000 
#
# Total GULP energy -693905.819931 kJ/mol
# GULP energy per Si atom -12391.175356 kJ/mol
# Density = 1.796746 g / cm^3
# Si number density = 18.008445 Si / 1000 Ang^3
#
#
#
# Elastic Constant Matrix: (Units=GPa)
#
#
# Indices 1 2 3 4 5 6 
#
# 1 97.6569 33.1083 44.5577 0.0000 0.0000 0.0000
# 2 33.1083 59.8770 37.1105 0.0000 0.0000 0.0000
# 3 44.5577 37.1105 89.0599 0.0000 0.0000 0.0000
# 4 0.0000 0.0000 0.0000 23.2804 0.0000 0.0000
# 5 0.0000 0.0000 0.0000 0.0000 28.0284 0.0000
# 6 0.0000 0.0000 0.0000 0.0000 0.0000 31.5200
#
#
#
# Elastic Compliance Matrix: (Units=1/GPa)
#
#
# Indices 1 2 3 4 5 6 
#
# 1 0.014164 -0.004637 -0.005154 0.000000 0.000000 0.000000
# 2 -0.004637 0.024034 -0.007695 0.000000 0.000000 0.000000
# 3 -0.005154 -0.007695 0.017013 0.000000 0.000000 0.000000
# 4 0.000000 0.000000 0.000000 0.042955 0.000000 0.000000
# 5 0.000000 0.000000 0.000000 0.000000 0.035678 0.000000
# 6 0.000000 0.000000 0.000000 0.000000 0.000000 0.031726
#
#
# Mechanical properties :
#
#
# Convention : Reuss Voigt Hill
#
# Bulk Modulus (GPa) = 49.40923 52.90522 51.15723
# Shear Modulus (GPa) = 24.12104 25.35358 24.73731
#
# Velocity S-wave (km/s) = 3.66379 3.75623 3.71030
# Velocity P-wave (km/s) = 6.73751 6.94652 6.84282
#
# Compressibility (1/GPa) = 0.02023913
#
# Stress axis : x y z
#
# Youngs Moduli (GPa) = 70.60310 41.60762 58.77765
#
# Poissons Ratio (x) = 0.19295 0.30293
# Poissons Ratio (y) = 0.32741 0.45227
# Poissons Ratio (z) = 0.36388 0.32016
#
# Static dielectric constant tensor:
#      x y z
#    x 3.265650 0.000000 0.000000 
#    y 0.000000 3.114890 0.000000 
#    z 0.000000 0.000000 3.273680 
# 
# 
# High freq. dielectric constant tensor:
#      x y z
#    x 1.692810 0.000000 0.000000 
#    y 0.000000 1.681910 0.000000 
#    z 0.000000 0.000000 1.680610 
# 
# From -- ./inp_files/26486.got.cif
#   From: 2010.03.12/outbox.cif.g09.slc.cpg/sg74_14_cif.got.tgz:26486.got - 2010.04.16 15:46:19.
