data_PCOD8301137
_publ_section_title
;
Structure prediction by ZEFSAII (Michael W. Deem and Ramdas Pophale) SiO2 
 PCOD8301137
Probable space group: I M M A
;
_chemical_formula_sum "Si O2"
_cell_formula_units_Z 80
_cell_length_a 25.871460
_cell_length_b 30.334513
_cell_length_c 4.997247
_cell_angle_alpha 90.000000
_cell_angle_beta 90.000000
_cell_angle_gamma 90.000000
_cell_volume 3921.830149
_symmetry_space_group_name_H-M "I M M A"
_symmetry_group_IT_number 74
_symmetry_cell_setting 'orthorhombic'
loop_
_space_group_symop_operation_xyz
x,y,z
-x,1/2-y,z
x,-y,-z
-x,1/2+y,-z
-x,-y,-z
x,1/2+y,-z
-x,y,z
x,1/2-y,z
1/2+x,1/2+y,1/2+z
1/2-x,-y,1/2+z
1/2+x,1/2-y,1/2-z
1/2-x,y,1/2-z
1/2-x,1/2-y,1/2-z
1/2+x,y,1/2-z
1/2-x,1/2+y,1/2+z
1/2+x,-y,1/2+z
loop_
_atom_site_type_symbol
_atom_site_label
_atom_site_fract_x
_atom_site_fract_y
_atom_site_fract_z
Si Si1 0.442099 0.470344 0.743742
Si Si2 0.716161 0.656730 0.014918
Si Si3 0.441508 0.842584 0.566121
Si Si4 0.668614 0.250000 0.931270
Si Si5 0.607546 0.382733 0.928637
Si Si6 0.399620 0.250000 0.425402
O O1 0.420368 0.500000 0.500000
O O2 0.500000 0.452217 0.672491
O O3 0.402368 0.430996 0.805375
O O4 0.445876 0.500000 0.000000
O O5 0.750000 0.657116 0.750000
O O6 0.750000 0.635238 0.250000
O O7 0.702113 0.706153 0.108042
O O8 0.666209 0.625533 0.977196
O O9 0.500000 0.852349 0.482222
O O10 0.405246 0.848968 0.308895
O O11 0.434444 0.791995 0.650154
O O12 0.427989 0.874888 0.811844
O O13 0.619835 0.250000 0.730776
O O14 0.650350 0.250000 0.237803
#
# Coordination Sequence:
#
# PCOD8301137 Si02
#       6
#    16  16  16   8  16   8
#     4  10  21  39  65  96 126 157 194 241 309 384
#     4  12  24  41  63  89 121 167 215 269 318 362
#     4  12  23  38  60  88 127 171 208 251 313 379
#     4  12  22  41  61  83 124 165 221 271 318 352
#     4  12  24  42  63  92 127 160 211 265 314 378
#     4  12  21  39  56  85 126 171 206 259 305 378
#
# _framework density 20.398637999999998
#
# number of rings (size 3 to 8) (size 9 to 14) (size 15 to 20)
#    0.000    0.400    4.000    6.300    0.000    1.600 
#    0.000    3.000    0.000    2.400    0.000    0.000 
#    0.000    0.000    0.000    0.000    0.000    0.000 
#
# Total GULP energy -496132.539513 kJ/mol
# GULP energy per Si atom -12403.313488 kJ/mol
# Density = 2.035221 g / cm^3
# Si number density = 20.398638 Si / 1000 Ang^3
#
#
#
# Elastic Constant Matrix: (Units=GPa)
#
#
# Indices 1 2 3 4 5 6 
#
# 1 107.9973 53.3745 32.2864 0.0000 0.0000 0.0000
# 2 53.3745 98.7796 16.0612 0.0000 0.0000 0.0000
# 3 32.2864 16.0612 112.7364 0.0000 0.0000 0.0000
# 4 0.0000 0.0000 0.0000 -19.9776 0.0000 0.0000
# 5 0.0000 0.0000 0.0000 0.0000 38.6966 0.0000
# 6 0.0000 0.0000 0.0000 0.0000 0.0000 -4.8595
#
#
#
# Elastic Compliance Matrix: (Units=1/GPa)
#
#
# Indices 1 2 3 4 5 6 
#
# 1 0.013496 -0.006822 -0.002893 0.000000 0.000000 0.000000
# 2 -0.006822 0.013812 -0.000014 0.000000 0.000000 0.000000
# 3 -0.002893 -0.000014 0.009701 0.000000 0.000000 0.000000
# 4 0.000000 0.000000 0.000000 -0.050056 0.000000 0.000000
# 5 0.000000 0.000000 0.000000 0.000000 0.025842 0.000000
# 6 0.000000 0.000000 0.000000 0.000000 0.000000 -0.205781
#
#
# Mechanical properties :
#
#
# Convention : Reuss Voigt Hill
#
# Bulk Modulus (GPa) = 56.97862 58.10639 57.54251
# Shear Modulus (GPa) = -29.81915 17.29129 -6.26393
#
# Velocity S-wave (km/s) = -3.82752 2.91463 -1.75426
# Velocity P-wave (km/s) = 2.90860 6.31459 4.91599
#
# Compressibility (1/GPa) = 0.01755044
#
# Stress axis : x y z
#
# Youngs Moduli (GPa) = 74.09598 72.40065 103.08402
#
# Poissons Ratio (x) = 0.49392 0.29824
# Poissons Ratio (y) = 0.50548 0.00144
# Poissons Ratio (z) = 0.21437 0.00101
#
# Static dielectric constant tensor:
#      x y z
#    x 3.663020 0.000000 0.000000 
#    y 0.000000 3.524160 0.000000 
#    z 0.000000 0.000000 3.881410 
# 
# 
# High freq. dielectric constant tensor:
#      x y z
#    x 1.784920 0.000000 0.000000 
#    y 0.000000 1.783620 0.000000 
#    z 0.000000 0.000000 1.819320 
# 
# From -- ./inp_files/3888.got.cif
#   From: 2010.03.12/outbox.cif.g09.slc.cpg/sg74_2_cif.got.tgz:3888.got - 2010.04.16 15:46:19.
