data_PCOD8301303
_publ_section_title
;
Structure prediction by ZEFSAII (Michael W. Deem and Ramdas Pophale) SiO2 
 PCOD8301303
Probable space group: I M M A
;
_chemical_formula_sum "Si O2"
_cell_formula_units_Z 72
_cell_length_a 12.295643
_cell_length_b 17.315914
_cell_length_c 17.340313
_cell_angle_alpha 90.000000
_cell_angle_beta 90.000000
_cell_angle_gamma 90.000000
_cell_volume 3691.931187
_symmetry_space_group_name_H-M "I M M A"
_symmetry_group_IT_number 74
_symmetry_cell_setting 'orthorhombic'
loop_
_space_group_symop_operation_xyz
x,y,z
-x,1/2-y,z
x,-y,-z
-x,1/2+y,-z
-x,-y,-z
x,1/2+y,-z
-x,y,z
x,1/2-y,z
1/2+x,1/2+y,1/2+z
1/2-x,-y,1/2+z
1/2+x,1/2-y,1/2-z
1/2-x,y,1/2-z
1/2-x,1/2-y,1/2-z
1/2+x,y,1/2-z
1/2-x,1/2+y,1/2+z
1/2+x,-y,1/2+z
loop_
_atom_site_type_symbol
_atom_site_label
_atom_site_fract_x
_atom_site_fract_y
_atom_site_fract_z
Si Si1 0.381748 0.105251 0.398885
Si Si2 0.320829 0.448535 0.678738
Si Si3 0.706402 0.915507 0.025606
Si Si4 0.000000 0.843246 0.249867
Si Si5 0.500000 0.161065 0.924838
Si Si6 0.128717 0.250000 0.209221
O O1 0.500000 0.112526 0.438166
O O2 0.296231 0.115363 0.466987
O O3 0.363410 0.172583 0.338878
O O4 0.380629 0.023115 0.355639
O O5 0.250000 0.478908 0.750000
O O6 0.247310 0.411482 0.612746
O O7 0.396609 0.379014 0.706976
O O8 0.602057 0.861489 0.022643
O O9 0.668822 0.000000 0.000000
O O10 0.000000 0.750000 0.242388
O O11 0.000000 0.874455 0.338351
O O12 0.500000 0.250000 0.910599
O O13 0.250000 0.250000 0.250000
O O14 0.000000 0.250000 0.247429
#
# Coordination Sequence:
#
# PCOD8301303 Si02
#       6
#    16  16  16   8   8   8
#     4  10  22  40  64  91 126 161 204 264 312 375
#     4  11  21  39  64  88 120 162 209 253 315 375
#     4  10  23  39  62  90 123 164 209 256 309 374
#     4  11  24  39  58  91 125 162 211 261 310 373
#     4  11  23  41  61  86 133 165 203 265 307 375
#     4  10  22  44  66  96 131 162 214 265 322 385
#
# _framework density 19.501988999999998
#
# number of rings (size 3 to 8) (size 9 to 14) (size 15 to 20)
#    0.000    1.556    3.333    1.000    3.111    2.667 
#    2.000    0.000    0.000    0.000    0.000    0.000 
#    0.000    0.000    0.000    0.000    0.000    0.000 
#
# Total GULP energy -445987.684981 kJ/mol
# GULP energy per Si atom -12388.546805 kJ/mol
# Density = 1.945760 g / cm^3
# Si number density = 19.501989 Si / 1000 Ang^3
#
#
#
# Elastic Constant Matrix: (Units=GPa)
#
#
# Indices 1 2 3 4 5 6 
#
# 1 163.3479 48.9498 73.9614 0.0000 0.0000 0.0000
# 2 48.9498 81.0535 25.2573 0.0000 0.0000 0.0000
# 3 73.9614 25.2573 103.1760 0.0000 0.0000 0.0000
# 4 0.0000 0.0000 0.0000 26.0071 0.0000 0.0000
# 5 0.0000 0.0000 0.0000 0.0000 1.3424 0.0000
# 6 0.0000 0.0000 0.0000 0.0000 0.0000 35.7306
#
#
#
# Elastic Compliance Matrix: (Units=1/GPa)
#
#
# Indices 1 2 3 4 5 6 
#
# 1 0.010244 -0.004220 -0.006310 0.000000 0.000000 0.000000
# 2 -0.004220 0.015095 -0.000670 0.000000 0.000000 0.000000
# 3 -0.006310 -0.000670 0.014380 0.000000 0.000000 0.000000
# 4 0.000000 0.000000 0.000000 0.038451 0.000000 0.000000
# 5 0.000000 0.000000 0.000000 0.000000 0.744934 0.000000
# 6 0.000000 0.000000 0.000000 0.000000 0.000000 0.027987
#
#
# Mechanical properties :
#
#
# Convention : Reuss Voigt Hill
#
# Bulk Modulus (GPa) = 57.74430 71.54604 64.64517
# Shear Modulus (GPa) = 5.68658 25.90996 15.79827
#
# Velocity S-wave (km/s) = 1.70945 3.64892 2.84929
# Velocity P-wave (km/s) = 5.79396 7.38370 6.63661
#
# Compressibility (1/GPa) = 0.01731773
#
# Stress axis : x y z
#
# Youngs Moduli (GPa) = 97.62224 66.24760 69.54333
#
# Poissons Ratio (x) = 0.27957 0.43882
# Poissons Ratio (y) = 0.41197 0.04660
# Poissons Ratio (z) = 0.61600 0.04439
#
# Static dielectric constant tensor:
#      x y z
#    x 4.046840 0.000000 0.000000 
#    y 0.000000 4.824840 0.000000 
#    z 0.000000 0.000000 3.594050 
# 
# 
# High freq. dielectric constant tensor:
#      x y z
#    x 1.779040 0.000000 0.000000 
#    y 0.000000 1.763050 0.000000 
#    z 0.000000 0.000000 1.753830 
# 
# From -- ./inp_files/41009.got.cif
#   From: 2010.03.12/outbox.cif.g09.slc.cpg/sg74_21_cif.got.tgz:41009.got - 2010.04.16 15:46:19.
