data_PCOD8301538
_publ_section_title
;
Structure prediction by ZEFSAII (Michael W. Deem and Ramdas Pophale) SiO2 
 PCOD8301538
Probable space group: I M M A
;
_chemical_formula_sum "Si O2"
_cell_formula_units_Z 80
_cell_length_a 9.071464
_cell_length_b 28.445420
_cell_length_c 17.345868
_cell_angle_alpha 90.000000
_cell_angle_beta 90.000000
_cell_angle_gamma 90.000000
_cell_volume 4475.955593
_symmetry_space_group_name_H-M "I M M A"
_symmetry_group_IT_number 74
_symmetry_cell_setting 'orthorhombic'
loop_
_space_group_symop_operation_xyz
x,y,z
-x,1/2-y,z
x,-y,-z
-x,1/2+y,-z
-x,-y,-z
x,1/2+y,-z
-x,y,z
x,1/2-y,z
1/2+x,1/2+y,1/2+z
1/2-x,-y,1/2+z
1/2+x,1/2-y,1/2-z
1/2-x,y,1/2-z
1/2-x,1/2-y,1/2-z
1/2+x,y,1/2-z
1/2-x,1/2+y,1/2+z
1/2+x,-y,1/2+z
loop_
_atom_site_type_symbol
_atom_site_label
_atom_site_fract_x
_atom_site_fract_y
_atom_site_fract_z
Si Si1 0.325384 0.538304 0.168506
Si Si2 0.329268 0.802502 0.523429
Si Si3 0.338204 0.966514 0.573091
Si Si4 0.828675 0.396050 0.950724
Si Si5 0.163526 0.194360 0.322683
O O1 0.500000 0.539433 0.177078
O O2 0.250000 0.546639 0.250000
O O3 0.277462 0.487391 0.134515
O O4 0.274396 0.581035 0.113769
O O5 0.500000 0.802960 0.546504
O O6 0.281295 0.750000 0.496040
O O7 0.298172 0.839904 0.454844
O O8 0.242067 0.819273 0.598304
O O9 0.500000 0.963548 0.612793
O O10 0.290933 0.916310 0.536776
O O11 0.346598 0.000000 0.500000
O O12 0.000000 0.406883 0.930625
O O13 0.156976 0.250000 0.313384
O O14 0.250000 0.172161 0.250000
O O15 0.000000 0.172693 0.323533
#
# Coordination Sequence:
#
# PCOD8301538 Si02
#       5
#    16  16  16  16  16
#     4  11  21  33  52  76 101 128 161 201 244 295
#     4   9  17  30  49  72  98 131 170 208 246 289
#     4   8  15  30  50  71  97 126 154 189 237 290
#     4   9  18  33  52  74 102 133 163 199 244 291
#     4   9  16  26  41  61  86 117 155 199 243 285
#
# _framework density 17.873277000000002
#
# number of rings (size 3 to 8) (size 9 to 14) (size 15 to 20)
#    0.000    2.800    0.000    3.600    0.000    6.800 
#    0.000    1.000    0.000    0.600    0.000    0.000 
#    0.000    0.000    0.000    0.000    0.000    0.000 
#
# Total GULP energy -495706.811068 kJ/mol
# GULP energy per Si atom -12392.670277 kJ/mol
# Density = 1.783260 g / cm^3
# Si number density = 17.873277 Si / 1000 Ang^3
#
#
#
# Elastic Constant Matrix: (Units=GPa)
#
#
# Indices 1 2 3 4 5 6 
#
# 1 122.0751 36.7300 60.6035 -0.0001 0.0000 0.0000
# 2 36.7300 83.2407 37.5706 0.0000 0.0000 0.0000
# 3 60.6035 37.5706 85.8776 -0.0003 0.0001 -0.0001
# 4 -0.0001 0.0000 -0.0003 16.4875 0.0000 -0.0001
# 5 0.0000 0.0000 0.0001 0.0000 30.0351 0.0000
# 6 0.0000 0.0000 -0.0001 -0.0001 0.0000 14.9454
#
#
#
# Elastic Compliance Matrix: (Units=1/GPa)
#
#
# Indices 1 2 3 4 5 6 
#
# 1 0.012863 -0.001967 -0.008216 0.000000 0.000000 0.000000
# 2 -0.001967 0.015270 -0.005292 0.000000 0.000000 0.000000
# 3 -0.008216 -0.005292 0.019758 0.000000 0.000000 0.000000
# 4 0.000000 0.000000 0.000000 0.060652 0.000000 0.000000
# 5 0.000000 0.000000 0.000000 0.000000 0.033294 0.000000
# 6 0.000000 0.000000 0.000000 0.000000 0.000000 0.066910
#
#
# Mechanical properties :
#
#
# Convention : Reuss Voigt Hill
#
# Bulk Modulus (GPa) = 59.03553 62.33354 60.68453
# Shear Modulus (GPa) = 20.37944 22.71289 21.54617
#
# Velocity S-wave (km/s) = 3.38038 3.56866 3.47579
# Velocity P-wave (km/s) = 6.95253 7.20635 7.08058
#
# Compressibility (1/GPa) = 0.01693895
#
# Stress axis : x y z
#
# Youngs Moduli (GPa) = 77.74491 65.48775 50.61203
#
# Poissons Ratio (x) = 0.12882 0.41585
# Poissons Ratio (y) = 0.15293 0.26785
# Poissons Ratio (z) = 0.63879 0.34658
#
# Static dielectric constant tensor:
#      x y z
#    x 3.373390 0.000000 0.000000 
#    y 0.000000 3.635220 0.000000 
#    z 0.000000 0.000000 3.062610 
# 
# 
# High freq. dielectric constant tensor:
#      x y z
#    x 1.691900 0.000000 0.000000 
#    y 0.000000 1.677310 0.000000 
#    z 0.000000 0.000000 1.662210 
# 
# From -- ./inp_files/39945.got.cif
#   From: 2010.03.12/outbox.cif.g09.slc.cpg/sg74_20_cif.got.tgz:39945.got - 2010.04.16 15:46:19.
