data_PCOD8301758
_publ_section_title
;
Structure prediction by ZEFSAII (Michael W. Deem and Ramdas Pophale) SiO2 
 PCOD8301758
Probable space group: I M M A
;
_chemical_formula_sum "Si O2"
_cell_formula_units_Z 112
_cell_length_a 22.972323
_cell_length_b 9.414838
_cell_length_c 29.308272
_cell_angle_alpha 90.000000
_cell_angle_beta 90.000000
_cell_angle_gamma 90.000000
_cell_volume 6338.813570
_symmetry_space_group_name_H-M "I M M A"
_symmetry_group_IT_number 74
_symmetry_cell_setting 'orthorhombic'
loop_
_space_group_symop_operation_xyz
x,y,z
-x,1/2-y,z
x,-y,-z
-x,1/2+y,-z
-x,-y,-z
x,1/2+y,-z
-x,y,z
x,1/2-y,z
1/2+x,1/2+y,1/2+z
1/2-x,-y,1/2+z
1/2+x,1/2-y,1/2-z
1/2-x,y,1/2-z
1/2-x,1/2-y,1/2-z
1/2+x,y,1/2-z
1/2-x,1/2+y,1/2+z
1/2+x,-y,1/2+z
loop_
_atom_site_type_symbol
_atom_site_label
_atom_site_fract_x
_atom_site_fract_y
_atom_site_fract_z
Si Si1 0.760144 0.081808 0.135070
Si Si2 0.932287 0.584897 0.544473
Si Si3 0.628894 0.419355 0.314371
Si Si4 0.130363 0.419425 0.364329
Si Si5 0.674811 0.583273 0.544394
Si Si6 0.063998 0.081470 0.097007
Si Si7 0.934202 0.919449 0.724938
O O1 0.757498 0.250000 0.137930
O O2 0.805183 0.027108 0.174220
O O3 0.695626 0.018659 0.142104
O O4 0.782769 0.037009 0.085266
O O5 0.911037 0.500000 0.500000
O O6 0.919683 0.750000 0.535633
O O7 0.896661 0.526845 0.588020
O O8 0.000000 0.557215 0.554474
O O9 0.628394 0.250000 0.313786
O O10 0.586000 0.475675 0.354042
O O11 0.605978 0.479167 0.266110
O O12 0.130428 0.250000 0.364031
O O13 0.091696 0.477569 0.322538
O O14 0.695547 0.500000 0.500000
O O15 0.678919 0.750000 0.534699
O O16 0.608871 0.536690 0.557352
O O17 0.061531 0.250000 0.099700
O O18 0.000000 0.017668 0.086462
O O19 0.933965 0.750000 0.725450
O O20 0.000000 0.976368 0.730542
#
# Coordination Sequence:
#
# PCOD8301758 Si02
#       7
#    16  16  16  16  16  16  16
#     4   8  15  26  37  51  73 103 135 164 199 242
#     4   9  17  29  44  61  82 109 139 170 205 244
#     4   8  13  21  33  50  74 104 136 164 191 234
#     4   9  16  25  37  54  78 105 132 165 204 242
#     4   9  17  28  41  57  78 104 135 170 204 238
#     4   8  13  22  36  53  75 104 134 163 198 240
#     4   9  15  21  32  52  77 105 134 163 198 240
#
# _framework density 17.668921999999998
#
# number of rings (size 3 to 8) (size 9 to 14) (size 15 to 20)
#    0.000    3.429    0.000    2.571    0.000    4.857 
#    0.000    2.857    0.000    0.000    0.000    0.000 
#    0.000    4.571    0.000   10.143    0.000    9.714 
#
# Total GULP energy -693981.446957 kJ/mol
# GULP energy per Si atom -12392.525839 kJ/mol
# Density = 1.762871 g / cm^3
# Si number density = 17.668922 Si / 1000 Ang^3
#
#
#
# Elastic Constant Matrix: (Units=GPa)
#
#
# Indices 1 2 3 4 5 6 
#
# 1 135.7635 11.5139 75.5512 0.0000 0.0000 0.0000
# 2 11.5139 10.7667 20.1647 0.0000 0.0000 0.0000
# 3 75.5512 20.1647 149.4259 0.0000 0.0000 0.0000
# 4 0.0000 0.0000 0.0000 16.5269 0.0000 0.0000
# 5 0.0000 0.0000 0.0000 0.0000 26.8612 0.0000
# 6 0.0000 0.0000 0.0000 0.0000 0.0000 6.1371
#
#
#
# Elastic Compliance Matrix: (Units=1/GPa)
#
#
# Indices 1 2 3 4 5 6 
#
# 1 0.010272 -0.001683 -0.004967 0.000000 0.000000 0.000000
# 2 -0.001683 0.124568 -0.015959 0.000000 0.000000 0.000000
# 3 -0.004967 -0.015959 0.011357 0.000000 0.000000 0.000000
# 4 0.000000 0.000000 0.000000 0.060508 0.000000 0.000000
# 5 0.000000 0.000000 0.000000 0.000000 0.037228 0.000000
# 6 0.000000 0.000000 0.000000 0.000000 0.000000 0.162943
#
#
# Mechanical properties :
#
#
# Convention : Reuss Voigt Hill
#
# Bulk Modulus (GPa) = 9.90300 56.71285 33.30792
# Shear Modulus (GPa) = 10.29327 22.48678 16.39002
#
# Velocity S-wave (km/s) = 2.41625 3.57133 3.04899
# Velocity P-wave (km/s) = 3.66078 7.01235 5.59349
#
# Compressibility (1/GPa) = 0.10097955
#
# Stress axis : x y z
#
# Youngs Moduli (GPa) = 97.34797 8.02773 88.05052
#
# Poissons Ratio (x) = 0.01351 0.43732
# Poissons Ratio (y) = 0.16387 1.40520
# Poissons Ratio (z) = 0.48350 0.12811
#
# Static dielectric constant tensor:
#      x y z
#    x 3.757900 0.000000 0.000000 
#    y 0.000000 2.482860 0.000000 
#    z 0.000000 0.000000 3.403150 
# 
# 
# High freq. dielectric constant tensor:
#      x y z
#    x 1.695540 0.000000 0.000000 
#    y 0.000000 1.590660 0.000000 
#    z 0.000000 0.000000 1.690150 
# 
# From -- ./inp_files/59268.got.cif
#   From: 2010.03.12/outbox.cif.g09.slc.cpg/sg74_30_cif.got.tgz:59268.got - 2010.04.16 15:46:19.
