data_PCOD8301726
_publ_section_title
;
Structure prediction by ZEFSAII (Michael W. Deem and Ramdas Pophale) SiO2 
 PCOD8301726
Probable space group: I M M A
;
_chemical_formula_sum "Si O2"
_cell_formula_units_Z 80
_cell_length_a 19.696055
_cell_length_b 14.068794
_cell_length_c 17.756687
_cell_angle_alpha 90.000000
_cell_angle_beta 90.000000
_cell_angle_gamma 90.000000
_cell_volume 4920.373358
_symmetry_space_group_name_H-M "I M M A"
_symmetry_group_IT_number 74
_symmetry_cell_setting 'orthorhombic'
loop_
_space_group_symop_operation_xyz
x,y,z
-x,1/2-y,z
x,-y,-z
-x,1/2+y,-z
-x,-y,-z
x,1/2+y,-z
-x,y,z
x,1/2-y,z
1/2+x,1/2+y,1/2+z
1/2-x,-y,1/2+z
1/2+x,1/2-y,1/2-z
1/2-x,y,1/2-z
1/2-x,1/2-y,1/2-z
1/2+x,y,1/2-z
1/2-x,1/2+y,1/2+z
1/2+x,-y,1/2+z
loop_
_atom_site_type_symbol
_atom_site_label
_atom_site_fract_x
_atom_site_fract_y
_atom_site_fract_z
Si Si1 0.252090 0.861621 0.627063
Si Si2 0.500000 0.141942 0.430200
Si Si3 0.787256 0.000000 0.000000
Si Si4 0.140452 0.360001 0.251091
Si Si5 0.110649 0.356321 0.946723
Si Si6 0.000000 0.549467 0.772526
Si Si7 0.500000 0.146370 0.678221
O O1 0.251245 0.750000 0.604247
O O2 0.188498 0.886933 0.679486
O O3 0.321880 0.885018 0.672319
O O4 0.244568 0.928842 0.553628
O O5 0.500000 0.250000 0.399342
O O6 0.566395 0.122297 0.479246
O O7 0.500000 0.069361 0.361705
O O8 0.830329 0.066401 0.943804
O O9 0.123430 0.250000 0.251270
O O10 0.068834 0.411705 0.263866
O O11 0.141223 0.250000 0.953094
O O12 0.066796 0.364578 0.871998
O O13 0.000000 0.435708 0.759323
O O14 0.500000 0.250000 0.717743
#
# Coordination Sequence:
#
# PCOD8301726 Si02
#       7
#    16   8   8  16  16   8   8
#     4   9  19  33  46  66  98 125 144 181 235 275
#     4   9  16  24  36  62  95 114 134 177 227 267
#     4  12  18  25  46  65  82 118 164 190 210 262
#     4   9  18  32  48  69  96 119 144 186 236 276
#     4   9  17  26  36  58  92 121 143 173 213 259
#     4  12  18  25  48  69  80 111 159 188 212 266
#     4   9  18  28  36  56  93 124 143 171 211 257
#
# _framework density 16.258928999999998
#
# number of rings (size 3 to 8) (size 9 to 14) (size 15 to 20)
#    0.000    2.400    0.000    7.500    0.000    4.800 
#    0.000    0.000    0.000    3.000    0.000    9.800 
#    0.000    0.000    0.000    0.000    0.000    0.000 
#
# Total GULP energy -495787.800207 kJ/mol
# GULP energy per Si atom -12394.695005 kJ/mol
# Density = 1.622192 g / cm^3
# Si number density = 16.258929 Si / 1000 Ang^3
#
#
#
# Elastic Constant Matrix: (Units=GPa)
#
#
# Indices 1 2 3 4 5 6 
#
# 1 85.0210 44.1613 28.0634 0.0000 0.0000 0.0000
# 2 44.1613 100.7414 39.1265 0.0000 0.0000 0.0000
# 3 28.0634 39.1265 52.9007 0.0000 0.0000 0.0000
# 4 0.0000 0.0000 0.0000 28.1228 0.0000 0.0000
# 5 0.0000 0.0000 0.0000 0.0000 11.4692 0.0000
# 6 0.0000 0.0000 0.0000 0.0000 0.0000 -23.7009
#
#
#
# Elastic Compliance Matrix: (Units=1/GPa)
#
#
# Indices 1 2 3 4 5 6 
#
# 1 0.015999 -0.005215 -0.004630 0.000000 0.000000 0.000000
# 2 -0.005215 0.015627 -0.008792 0.000000 0.000000 0.000000
# 3 -0.004630 -0.008792 0.027862 0.000000 0.000000 0.000000
# 4 0.000000 0.000000 0.000000 0.035558 0.000000 0.000000
# 5 0.000000 0.000000 0.000000 0.000000 0.087190 0.000000
# 6 0.000000 0.000000 0.000000 0.000000 0.000000 -0.042192
#
#
# Mechanical properties :
#
#
# Convention : Reuss Voigt Hill
#
# Bulk Modulus (GPa) = 45.01567 51.26284 48.13925
# Shear Modulus (GPa) = 27.06765 11.66566 19.36665
#
# Velocity S-wave (km/s) = 4.08461 2.68151 3.45503
# Velocity P-wave (km/s) = 7.07052 6.41754 6.75193
#
# Compressibility (1/GPa) = 0.02221449
#
# Stress axis : x y z
#
# Youngs Moduli (GPa) = 62.50435 63.99182 35.89117
#
# Poissons Ratio (x) = 0.33372 0.16618
# Poissons Ratio (y) = 0.32596 0.31554
# Poissons Ratio (z) = 0.28940 0.56259
#
# Static dielectric constant tensor:
#      x y z
#    x 2.912730 0.000000 0.000000 
#    y 0.000000 3.272220 0.000000 
#    z 0.000000 0.000000 2.673510 
# 
# 
# High freq. dielectric constant tensor:
#      x y z
#    x 1.602000 0.000000 0.000000 
#    y 0.000000 1.638690 0.000000 
#    z 0.000000 0.000000 1.576150 
# 
# From -- ./inp_files/52989.got.cif
#   From: 2010.03.12/outbox.cif.g09.slc.cpg/sg74_27_cif.got.tgz:52989.got - 2010.04.16 15:46:19.
