data_PCOD8301690
_publ_section_title
;
Structure prediction by ZEFSAII (Michael W. Deem and Ramdas Pophale) SiO2 
 PCOD8301690
Probable space group: I M M A
;
_chemical_formula_sum "Si O2"
_cell_formula_units_Z 48
_cell_length_a 27.505580
_cell_length_b 10.026135
_cell_length_c 8.562576
_cell_angle_alpha 90.000000
_cell_angle_beta 90.000000
_cell_angle_gamma 90.000000
_cell_volume 2361.341471
_symmetry_space_group_name_H-M "I M M A"
_symmetry_group_IT_number 74
_symmetry_cell_setting 'orthorhombic'
loop_
_space_group_symop_operation_xyz
x,y,z
-x,1/2-y,z
x,-y,-z
-x,1/2+y,-z
-x,-y,-z
x,1/2+y,-z
-x,y,z
x,1/2-y,z
1/2+x,1/2+y,1/2+z
1/2-x,-y,1/2+z
1/2+x,1/2-y,1/2-z
1/2-x,y,1/2-z
1/2-x,1/2-y,1/2-z
1/2+x,y,1/2-z
1/2-x,1/2+y,1/2+z
1/2+x,-y,1/2+z
loop_
_atom_site_type_symbol
_atom_site_label
_atom_site_fract_x
_atom_site_fract_y
_atom_site_fract_z
Si Si1 0.891976 0.993712 0.817526
Si Si2 0.443521 0.250000 0.179476
Si Si3 0.941479 0.250000 0.674860
Si Si4 0.703275 0.096863 0.142459
O O1 0.928713 0.876521 0.778999
O O2 0.841255 0.968820 0.733114
O O3 0.918528 0.124819 0.759879
O O4 0.881343 0.000000 0.000000
O O5 0.500000 0.250000 0.158515
O O6 0.422282 0.250000 0.003684
O O7 0.000000 0.250000 0.689498
O O8 0.690923 0.250000 0.091098
O O9 0.750000 0.098721 0.250000
O O10 0.715411 0.000000 0.000000
#
# Coordination Sequence:
#
# PCOD8301690 Si02
#       4
#    16   8   8  16
#     4  12  25  42  66  99 136 177 221 278 337 395
#     4  11  23  43  66  93 132 175 229 279 333 401
#     4  11  25  43  68  97 132 181 229 277 335 397
#     4  11  25  46  71 101 137 176 222 273 333 400
#
# _framework density 20.327428000000001
#
# number of rings (size 3 to 8) (size 9 to 14) (size 15 to 20)
#    0.000    0.667    1.667    6.000    2.333    7.333 
#    0.000    0.000    0.000    0.000    0.000    0.000 
#    0.000    0.000    0.000    0.000    0.000    0.000 
#
# Total GULP energy -297642.026540 kJ/mol
# GULP energy per Si atom -12401.751106 kJ/mol
# Density = 2.028116 g / cm^3
# Si number density = 20.327428 Si / 1000 Ang^3
#
#
#
# Elastic Constant Matrix: (Units=GPa)
#
#
# Indices 1 2 3 4 5 6 
#
# 1 96.7084 53.8675 24.5610 0.0000 0.0000 0.0000
# 2 53.8675 189.2953 61.1377 0.0000 0.0000 0.0000
# 3 24.5610 61.1377 111.2998 0.0000 0.0000 0.0000
# 4 0.0000 0.0000 0.0000 43.8230 0.0000 0.0000
# 5 0.0000 0.0000 0.0000 0.0000 32.9139 0.0000
# 6 0.0000 0.0000 0.0000 0.0000 0.0000 53.0321
#
#
#
# Elastic Compliance Matrix: (Units=1/GPa)
#
#
# Indices 1 2 3 4 5 6 
#
# 1 0.012373 -0.003208 -0.000968 0.000000 0.000000 0.000000
# 2 -0.003208 0.007254 -0.003277 0.000000 0.000000 0.000000
# 3 -0.000968 -0.003277 0.010998 0.000000 0.000000 0.000000
# 4 0.000000 0.000000 0.000000 0.022819 0.000000 0.000000
# 5 0.000000 0.000000 0.000000 0.000000 0.030382 0.000000
# 6 0.000000 0.000000 0.000000 0.000000 0.000000 0.018857
#
#
# Mechanical properties :
#
#
# Convention : Reuss Voigt Hill
#
# Bulk Modulus (GPa) = 63.61595 75.15955 69.38775
# Shear Modulus (GPa) = 40.70677 43.13627 41.92152
#
# Velocity S-wave (km/s) = 4.47985 4.61159 4.54620
# Velocity P-wave (km/s) = 7.62379 8.08767 7.85916
#
# Compressibility (1/GPa) = 0.01571933
#
# Stress axis : x y z
#
# Youngs Moduli (GPa) = 80.81897 137.85401 90.92330
#
# Poissons Ratio (x) = 0.44229 0.08802
# Poissons Ratio (y) = 0.25930 0.29793
# Poissons Ratio (z) = 0.07824 0.45170
#
# Static dielectric constant tensor:
#      x y z
#    x 3.868940 0.000000 0.000000 
#    y 0.000000 3.937620 0.000000 
#    z 0.000000 0.000000 3.894320 
# 
# 
# High freq. dielectric constant tensor:
#      x y z
#    x 1.814670 0.000000 0.000000 
#    y 0.000000 1.815580 0.000000 
#    z 0.000000 0.000000 1.803910 
# 
# From -- ./inp_files/6137.got.cif
#   From: 2010.03.12/outbox.cif.g09.slc.cpg/sg74_4_cif.got.tgz:6137.got - 2010.04.16 15:46:19.
