data_PCOD8301265
_publ_section_title
;
Structure prediction by ZEFSAII (Michael W. Deem and Ramdas Pophale) SiO2 
 PCOD8301265
Probable space group: I M M A
;
_chemical_formula_sum "Si O2"
_cell_formula_units_Z 88
_cell_length_a 22.669838
_cell_length_b 9.482345
_cell_length_c 19.846797
_cell_angle_alpha 90.000000
_cell_angle_beta 90.000000
_cell_angle_gamma 90.000000
_cell_volume 4266.331489
_symmetry_space_group_name_H-M "I M M A"
_symmetry_group_IT_number 74
_symmetry_cell_setting 'orthorhombic'
loop_
_space_group_symop_operation_xyz
x,y,z
-x,1/2-y,z
x,-y,-z
-x,1/2+y,-z
-x,-y,-z
x,1/2+y,-z
-x,y,z
x,1/2-y,z
1/2+x,1/2+y,1/2+z
1/2-x,-y,1/2+z
1/2+x,1/2-y,1/2-z
1/2-x,y,1/2-z
1/2-x,1/2-y,1/2-z
1/2+x,y,1/2-z
1/2-x,1/2+y,1/2+z
1/2+x,-y,1/2+z
loop_
_atom_site_type_symbol
_atom_site_label
_atom_site_fract_x
_atom_site_fract_y
_atom_site_fract_z
Si Si1 0.000000 0.910481 0.600947
Si Si2 0.389566 0.917391 0.300730
Si Si3 0.809975 0.908320 0.709453
Si Si4 0.898623 0.000000 0.500000
Si Si5 0.701040 0.901192 0.087858
Si Si6 0.500000 0.420188 0.254103
Si Si7 0.166251 0.906101 0.058511
O O1 0.000000 0.750000 0.618868
O O2 0.940827 0.941996 0.558993
O O3 0.000000 0.979680 0.676084
O O4 0.402390 0.750000 0.294417
O O5 0.355049 0.958933 0.368614
O O6 0.350037 0.969230 0.239224
O O7 0.446929 0.013047 0.296052
O O8 0.838422 0.750000 0.708803
O O9 0.750000 0.901835 0.750000
O O10 0.801554 0.959108 0.633194
O O11 0.853760 0.890697 0.464656
O O12 0.700075 0.750000 0.127514
O O13 0.763283 0.911054 0.050028
O O14 0.500000 0.250000 0.258930
O O15 0.141523 0.750000 0.047116
O O16 0.137275 0.000000 0.000000
#
# Coordination Sequence:
#
# PCOD8301265 Si02
#       7
#     8  16  16   8  16   8  16
#     4  10  23  42  60  84 123 165 210 262 306 360
#     4  11  23  42  66  92 126 166 211 263 323 384
#     4  11  23  37  58  90 126 167 214 265 320 377
#     4  11  22  38  62  90 124 169 214 254 310 379
#     4  11  22  37  59  90 126 167 210 256 316 384
#     4  11  24  44  69  95 126 165 215 270 323 376
#     4  10  22  39  61  92 128 163 201 252 316 387
#
# _framework density 20.626619999999999
#
# number of rings (size 3 to 8) (size 9 to 14) (size 15 to 20)
#    0.000    1.273    2.727    3.000    0.000    5.818 
#    0.000    5.000    0.000    0.000    0.000    0.000 
#    0.000    0.000    0.000    0.000    0.000    0.000 
#
# Total GULP energy -545119.786311 kJ/mol
# GULP energy per Si atom -12389.086053 kJ/mol
# Density = 2.057967 g / cm^3
# Si number density = 20.626620 Si / 1000 Ang^3
#
#
#
# Elastic Constant Matrix: (Units=GPa)
#
#
# Indices 1 2 3 4 5 6 
#
# 1 98.5088 36.4691 26.1128 0.0000 0.0000 0.0000
# 2 36.4691 125.3895 52.4586 0.0000 0.0000 0.0000
# 3 26.1128 52.4586 75.2166 0.0000 0.0000 0.0000
# 4 0.0000 0.0000 0.0000 44.4574 0.0000 0.0000
# 5 0.0000 0.0000 0.0000 0.0000 29.8540 0.0000
# 6 0.0000 0.0000 0.0000 0.0000 0.0000 26.2902
#
#
#
# Elastic Compliance Matrix: (Units=1/GPa)
#
#
# Indices 1 2 3 4 5 6 
#
# 1 0.011670 -0.002399 -0.002378 0.000000 0.000000 0.000000
# 2 -0.002399 0.011754 -0.007365 0.000000 0.000000 0.000000
# 3 -0.002378 -0.007365 0.019257 0.000000 0.000000 0.000000
# 4 0.000000 0.000000 0.000000 0.022493 0.000000 0.000000
# 5 0.000000 0.000000 0.000000 0.000000 0.033496 0.000000
# 6 0.000000 0.000000 0.000000 0.000000 0.000000 0.038037
#
#
# Mechanical properties :
#
#
# Convention : Reuss Voigt Hill
#
# Bulk Modulus (GPa) = 54.35728 58.79956 56.57842
# Shear Modulus (GPa) = 29.91779 32.39193 31.15486
#
# Velocity S-wave (km/s) = 3.81260 3.96712 3.89063
# Velocity P-wave (km/s) = 6.76694 7.03936 6.90449
#
# Compressibility (1/GPa) = 0.01839680
#
# Stress axis : x y z
#
# Youngs Moduli (GPa) = 85.68974 85.07642 51.92912
#
# Poissons Ratio (x) = 0.20412 0.12349
# Poissons Ratio (y) = 0.20559 0.38245
# Poissons Ratio (z) = 0.20378 0.62657
#
# Static dielectric constant tensor:
#      x y z
#    x 3.223750 0.000000 0.000000 
#    y 0.000000 3.870920 0.000000 
#    z 0.000000 0.000000 3.706780 
# 
# 
# High freq. dielectric constant tensor:
#      x y z
#    x 1.802420 0.000000 0.000000 
#    y 0.000000 1.812840 0.000000 
#    z 0.000000 0.000000 1.804750 
# 
# From -- ./inp_files/54562.got.cif
#   From: 2010.03.12/outbox.cif.g09.slc.cpg/sg74_28_cif.got.tgz:54562.got - 2010.04.16 15:46:19.
