data_PCOD8301359
_publ_section_title
;
Structure prediction by ZEFSAII (Michael W. Deem and Ramdas Pophale) SiO2 
 PCOD8301359
Probable space group: I M M A
;
_chemical_formula_sum "Si O2"
_cell_formula_units_Z 64
_cell_length_a 20.799738
_cell_length_b 15.947491
_cell_length_c 9.898257
_cell_angle_alpha 90.000000
_cell_angle_beta 90.000000
_cell_angle_gamma 90.000000
_cell_volume 3283.287823
_symmetry_space_group_name_H-M "I M M A"
_symmetry_group_IT_number 74
_symmetry_cell_setting 'orthorhombic'
loop_
_space_group_symop_operation_xyz
x,y,z
-x,1/2-y,z
x,-y,-z
-x,1/2+y,-z
-x,-y,-z
x,1/2+y,-z
-x,y,z
x,1/2-y,z
1/2+x,1/2+y,1/2+z
1/2-x,-y,1/2+z
1/2+x,1/2-y,1/2-z
1/2-x,y,1/2-z
1/2-x,1/2-y,1/2-z
1/2+x,y,1/2-z
1/2-x,1/2+y,1/2+z
1/2+x,-y,1/2+z
loop_
_atom_site_type_symbol
_atom_site_label
_atom_site_fract_x
_atom_site_fract_y
_atom_site_fract_z
Si Si1 0.601973 0.750000 0.340737
Si Si2 0.500000 0.377825 0.573216
Si Si3 0.500000 0.056492 0.292026
Si Si4 0.250000 0.114054 0.250000
Si Si5 0.360221 0.250000 0.966257
Si Si6 0.376031 0.426304 0.107974
Si Si7 0.780652 0.250000 0.039693
O O1 0.563909 0.666685 0.376111
O O2 0.611412 0.750000 0.181623
O O3 0.666322 0.750000 0.425814
O O4 0.500000 0.374522 0.410427
O O5 0.500000 0.468292 0.635702
O O6 0.564191 0.066031 0.206658
O O7 0.307679 0.059509 0.184991
O O8 0.214931 0.169121 0.135566
O O9 0.382200 0.333620 0.044663
O O10 0.284062 0.250000 0.953927
O O11 0.381401 0.500000 0.000000
#
# Coordination Sequence:
#
# PCOD8301359 Si02
#       7
#     8   8   8   8   8  16   8
#     4  11  20  38  59  90 122 155 199 258 306 379
#     4  10  24  37  58  90 119 157 204 250 320 367
#     4  11  23  43  60  86 124 164 208 257 312 380
#     4   9  20  40  58  91 118 156 216 253 308 383
#     4  10  23  39  61  93 120 161 214 247 315 370
#     4  11  23  42  63  90 124 165 207 261 314 372
#     4   9  18  37  64  83 120 160 199 262 306 360
#
# _framework density 19.492656
#
# number of rings (size 3 to 8) (size 9 to 14) (size 15 to 20)
#    0.000    1.750    0.000    4.500    0.000    4.500 
#   22.500    0.000    0.000    0.000    0.000    0.000 
#    0.000    0.000    0.000    0.000    0.000    0.000 
#
# Total GULP energy -396774.817204 kJ/mol
# GULP energy per Si atom -12399.213038 kJ/mol
# Density = 1.944829 g / cm^3
# Si number density = 19.492656 Si / 1000 Ang^3
#
#
#
# Elastic Constant Matrix: (Units=GPa)
#
#
# Indices 1 2 3 4 5 6 
#
# 1 134.0404 43.7593 91.1659 0.0000 0.0000 0.0000
# 2 43.7593 99.8477 59.8494 0.0000 0.0000 0.0000
# 3 91.1659 59.8494 156.0966 0.0000 0.0000 0.0000
# 4 0.0000 0.0000 0.0000 50.4450 0.0000 0.0000
# 5 0.0000 0.0000 0.0000 0.0000 49.7656 0.0000
# 6 0.0000 0.0000 0.0000 0.0000 0.0000-2756.1108
#
#
#
# Elastic Compliance Matrix: (Units=1/GPa)
#
#
# Indices 1 2 3 4 5 6 
#
# 1 0.012533 -0.001435 -0.006770 0.000000 0.000000 0.000000
# 2 -0.001435 0.013168 -0.004211 0.000000 0.000000 0.000000
# 3 -0.006770 -0.004211 0.011974 0.000000 0.000000 0.000000
# 4 0.000000 0.000000 0.000000 0.019824 0.000000 0.000000
# 5 0.000000 0.000000 0.000000 0.000000 0.020094 0.000000
# 6 0.000000 0.000000 0.000000 0.000000 0.000000 -0.000363
#
#
# Mechanical properties :
#
#
# Convention : Reuss Voigt Hill
#
# Bulk Modulus (GPa) = 77.85132 86.61486 82.23309
# Shear Modulus (GPa) = 47.01767 -518.16602 -235.57417
#
# Velocity S-wave (km/s) = 4.91661 -16.32187 -11.00523
# Velocity P-wave (km/s) = 8.50037 17.62593 10.91827
#
# Compressibility (1/GPa) = 0.01284500
#
# Stress axis : x y z
#
# Youngs Moduli (GPa) = 79.78814 75.94108 83.51138
#
# Poissons Ratio (x) = 0.10898 0.56534
# Poissons Ratio (y) = 0.11450 0.35164
# Poissons Ratio (z) = 0.54013 0.31977
#
# Static dielectric constant tensor:
#      x y z
#    x 3.594870 0.000000 0.000000 
#    y 0.000000 3.612620 0.000000 
#    z 0.000000 0.000000 3.763340 
# 
# 
# High freq. dielectric constant tensor:
#      x y z
#    x 1.771810 0.000000 0.000000 
#    y 0.000000 1.758040 0.000000 
#    z 0.000000 0.000000 1.776570 
# 
# From -- ./inp_files/8948.got.cif
#   From: 2010.03.12/outbox.cif.g09.slc.cpg/sg74_5_cif.got.tgz:8948.got - 2010.04.16 15:46:19.
