data_PCOD8301891
_publ_section_title
;
Structure prediction by ZEFSAII (Michael W. Deem and Ramdas Pophale) SiO2 
 PCOD8301891
Probable space group: P 41
;
_chemical_formula_sum "Si O2"
_cell_formula_units_Z 24
_cell_length_a 12.917744
_cell_length_b 12.917744
_cell_length_c 7.858408
_cell_angle_alpha 90.000000
_cell_angle_beta 90.000000
_cell_angle_gamma 90.000000
_cell_volume 1311.317691
_symmetry_space_group_name_H-M "P 41"
_symmetry_group_IT_number 76
_symmetry_cell_setting 'tetragonal'
loop_
_space_group_symop_operation_xyz
x,y,z
-y,x,1/4+z
-x,-y,1/2+z
y,-x,3/4+z
loop_
_atom_site_type_symbol
_atom_site_label
_atom_site_fract_x
_atom_site_fract_y
_atom_site_fract_z
Si Si1 0.397565 0.870146 0.261150
Si Si2 0.824578 0.382919 0.138120
Si Si3 0.486817 0.780977 0.932160
Si Si4 0.228472 0.701611 0.303987
Si Si5 0.898336 0.350290 0.500695
Si Si6 0.405436 0.404644 0.987705
O O1 0.503941 0.876496 0.368028
O O2 0.319829 0.783234 0.333867
O O3 0.339730 0.979348 0.275012
O O4 0.420359 0.847254 0.064403
O O5 0.867162 0.325149 0.306066
O O6 0.702294 0.400695 0.140278
O O7 0.843424 0.307915 0.974320
O O8 0.531703 0.859411 0.788428
O O9 0.411513 0.695908 0.855002
O O10 0.585502 0.724586 0.023068
O O11 0.156519 0.727784 0.137701
O O12 0.409003 0.494615 0.852848
#
# Coordination Sequence:
#
# PCOD8301891 Si02
#       6
#     4   4   4   4   4   4
#     4  11  20  37  62  77 114 157 184 239 289 328
#     4  11  22  36  54  85 115 152 193 226 276 341
#     4   9  20  37  51  79 120 148 192 229 267 337
#     4   9  22  36  54  84 112 141 194 236 279 342
#     4  10  21  40  54  82 115 148 194 241 277 330
#     4  12  23  32  53  79 120 164 189 225 274 334
#
# _framework density 18.302199999999999
#
# number of rings (size 3 to 8) (size 9 to 14) (size 15 to 20)
#    1.000    0.667    1.667    4.000    7.000    0.000 
#    0.000    0.000    0.000    0.000    4.333    0.000 
#    0.000    0.000    0.000    0.000    0.000    0.000 
#
# Total GULP energy -297452.519256 kJ/mol
# GULP energy per Si atom -12393.854969 kJ/mol
# Density = 1.826054 g / cm^3
# Si number density = 18.302200 Si / 1000 Ang^3
#
#
#
# Elastic Constant Matrix: (Units=GPa)
#
#
# Indices 1 2 3 4 5 6 
#
# 1 61.7946 4.1750 19.1002 0.0000 0.0000 1.7823
# 2 4.1750 61.7946 19.1002 0.0000 0.0000 -1.7823
# 3 19.1002 19.1002 119.4966 0.0000 0.0000 0.0000
# 4 0.0000 0.0000 0.0000 22.0971 0.0000 0.0000
# 5 0.0000 0.0000 0.0000 0.0000 22.0971 0.0000
# 6 1.7823 -1.7823 0.0000 0.0000 0.0000 3.9190
#
#
#
# Elastic Compliance Matrix: (Units=1/GPa)
#
#
# Indices 1 2 3 4 5 6 
#
# 1 0.017281 -0.000576 -0.002670 0.000000 0.000000 -0.008121
# 2 -0.000576 0.017281 -0.002670 0.000000 0.000000 0.008121
# 3 -0.002670 -0.002670 0.009222 0.000000 0.000000 0.000000
# 4 0.000000 0.000000 0.000000 0.045255 0.000000 0.000000
# 5 0.000000 0.000000 0.000000 0.000000 0.045255 0.000000
# 6 -0.008121 0.008121 0.000000 0.000000 0.000000 0.262552
#
#
# Mechanical properties :
#
#
# Convention : Reuss Voigt Hill
#
# Bulk Modulus (GPa) = 31.29785 36.42627 33.86206
# Shear Modulus (GPa) = 11.92382 23.00335 17.46358
#
# Velocity S-wave (km/s) = 2.55521 3.54907 3.09233
# Velocity P-wave (km/s) = 5.08362 6.06139 5.59391
#
# Compressibility (1/GPa) = 0.03195107
#
# Stress axis : x y z
#
# Youngs Moduli (GPa) = 57.86659 57.86659 108.43642
#
# Poissons Ratio (x) = 0.03336 0.28953
# Poissons Ratio (y) = 0.03336 0.28953
# Poissons Ratio (z) = 0.15451 0.15451
#
# Static dielectric constant tensor:
#      x y z
#    x 3.018490 0.000000 0.000000 
#    y 0.000000 3.018490 0.000000 
#    z 0.000000 0.000000 3.626890 
# 
# 
# High freq. dielectric constant tensor:
#      x y z
#    x 1.674810 0.000000 0.000000 
#    y 0.000000 1.674810 0.000000 
#    z 0.000000 0.000000 1.732140 
# 
# From -- ./inp_files/543.got.cif
#   From: 2010.03.12/outbox.cif.g09.slc.cpg/sg76_cif.got.tgz:543.got - 2010.04.16 16:34:25.
