data_PCOD8301092
_publ_section_title
;
Structure prediction by ZEFSAII (Michael W. Deem and Ramdas Pophale) SiO2 
 PCOD8301092
Probable space group: I M M A
;
_chemical_formula_sum "Si O2"
_cell_formula_units_Z 88
_cell_length_a 27.113743
_cell_length_b 8.622138
_cell_length_c 19.270237
_cell_angle_alpha 90.000000
_cell_angle_beta 90.000000
_cell_angle_gamma 90.000000
_cell_volume 4504.965826
_symmetry_space_group_name_H-M "I M M A"
_symmetry_group_IT_number 74
_symmetry_cell_setting 'orthorhombic'
loop_
_space_group_symop_operation_xyz
x,y,z
-x,1/2-y,z
x,-y,-z
-x,1/2+y,-z
-x,-y,-z
x,1/2+y,-z
-x,y,z
x,1/2-y,z
1/2+x,1/2+y,1/2+z
1/2-x,-y,1/2+z
1/2+x,1/2-y,1/2-z
1/2-x,y,1/2-z
1/2-x,1/2-y,1/2-z
1/2+x,y,1/2-z
1/2-x,1/2+y,1/2+z
1/2+x,-y,1/2+z
loop_
_atom_site_type_symbol
_atom_site_label
_atom_site_fract_x
_atom_site_fract_y
_atom_site_fract_z
Si Si1 0.879248 0.067475 0.304208
Si Si2 0.500000 0.433544 0.577538
Si Si3 0.775228 0.570190 0.319908
Si Si4 0.596092 0.433812 0.349196
Si Si5 0.444079 0.933484 0.929013
Si Si6 0.189173 0.431736 0.925593
O O1 0.884272 0.250000 0.300343
O O2 0.894137 0.000687 0.228622
O O3 0.915704 0.998494 0.362396
O O4 0.824808 0.025491 0.329287
O O5 0.500000 0.250000 0.571686
O O6 0.500000 0.500000 0.500000
O O7 0.547833 0.487543 0.619478
O O8 0.789216 0.750000 0.314360
O O9 0.750000 0.510695 0.250000
O O10 0.738371 0.534787 0.382369
O O11 0.588414 0.250000 0.350075
O O12 0.642971 0.477035 0.395060
O O13 0.500000 0.991735 0.921901
O O14 0.440104 0.750000 0.931519
O O15 0.420610 0.000000 0.000000
O O16 0.176466 0.250000 0.927922
O O17 0.201051 0.500000 0.000000
#
# Coordination Sequence:
#
# PCOD8301092 Si02
#       6
#    16   8  16  16  16  16
#     4  10  22  37  61  90 119 156 197 245 295 351
#     4  12  26  44  64  88 121 160 199 246 295 354
#     4  10  21  39  60  83 117 155 193 243 293 342
#     4  11  23  40  63  91 121 157 198 245 298 353
#     4   9  19  37  59  84 117 154 192 237 289 345
#     4  11  23  40  62  88 120 158 199 244 296 354
#
# _framework density 19.533999999999999
#
# number of rings (size 3 to 8) (size 9 to 14) (size 15 to 20)
#    0.000    1.636    1.818    2.455    1.273    4.000 
#    0.000    3.636    0.000    0.000    0.000    0.000 
#    0.000    0.000    0.000    0.000    0.000    0.000 
#
# Total GULP energy -545710.786345 kJ/mol
# GULP energy per Si atom -12402.517871 kJ/mol
# Density = 1.948954 g / cm^3
# Si number density = 19.534000 Si / 1000 Ang^3
#
#
#
# Elastic Constant Matrix: (Units=GPa)
#
#
# Indices 1 2 3 4 5 6 
#
# 1 122.4814 32.4888 78.6412 0.0000 0.0000 0.0000
# 2 32.4888 58.5831 38.4071 0.0000 0.0000 0.0000
# 3 78.6412 38.4071 174.3619 0.0000 0.0000 0.0000
# 4 0.0000 0.0000 0.0000 30.3877 0.0000 0.0000
# 5 0.0000 0.0000 0.0000 0.0000 49.9303 0.0000
# 6 0.0000 0.0000 0.0000 0.0000 0.0000 40.1617
#
#
#
# Elastic Compliance Matrix: (Units=1/GPa)
#
#
# Indices 1 2 3 4 5 6 
#
# 1 0.012132 -0.003671 -0.004663 0.000000 0.000000 0.000000
# 2 -0.003671 0.021062 -0.002984 0.000000 0.000000 0.000000
# 3 -0.004663 -0.002984 0.008496 0.000000 0.000000 0.000000
# 4 0.000000 0.000000 0.000000 0.032908 0.000000 0.000000
# 5 0.000000 0.000000 0.000000 0.000000 0.020028 0.000000
# 6 0.000000 0.000000 0.000000 0.000000 0.000000 0.024899
#
#
# Mechanical properties :
#
#
# Convention : Reuss Voigt Hill
#
# Bulk Modulus (GPa) = 52.48301 72.72230 62.60265
# Shear Modulus (GPa) = 33.66721 37.82190 35.74455
#
# Velocity S-wave (km/s) = 4.15603 4.40501 4.28233
# Velocity P-wave (km/s) = 7.06795 7.94868 7.52122
#
# Compressibility (1/GPa) = 0.01905379
#
# Stress axis : x y z
#
# Youngs Moduli (GPa) = 82.42327 47.47962 117.70670
#
# Poissons Ratio (x) = 0.17430 0.54891
# Poissons Ratio (y) = 0.30258 0.35118
# Poissons Ratio (z) = 0.38437 0.14166
#
# Static dielectric constant tensor:
#      x y z
#    x 3.664500 0.000000 0.000000 
#    y 0.000000 3.491950 0.000000 
#    z 0.000000 0.000000 3.923940 
# 
# 
# High freq. dielectric constant tensor:
#      x y z
#    x 1.767670 0.000000 0.000000 
#    y 0.000000 1.755770 0.000000 
#    z 0.000000 0.000000 1.779090 
# 
# From -- ./inp_files/54537.got.cif
#   From: 2010.03.12/outbox.cif.g09.slc.cpg/sg74_28_cif.got.tgz:54537.got - 2010.04.16 15:46:19.
