data_PCOD8301526
_publ_section_title
;
Structure prediction by ZEFSAII (Michael W. Deem and Ramdas Pophale) SiO2 
 PCOD8301526
Probable space group: I M M A
;
_chemical_formula_sum "Si O2"
_cell_formula_units_Z 96
_cell_length_a 9.094232
_cell_length_b 28.607838
_cell_length_c 20.770122
_cell_angle_alpha 90.000000
_cell_angle_beta 90.000000
_cell_angle_gamma 90.000000
_cell_volume 5403.686119
_symmetry_space_group_name_H-M "I M M A"
_symmetry_group_IT_number 74
_symmetry_cell_setting 'orthorhombic'
loop_
_space_group_symop_operation_xyz
x,y,z
-x,1/2-y,z
x,-y,-z
-x,1/2+y,-z
-x,-y,-z
x,1/2+y,-z
-x,y,z
x,1/2-y,z
1/2+x,1/2+y,1/2+z
1/2-x,-y,1/2+z
1/2+x,1/2-y,1/2-z
1/2-x,y,1/2-z
1/2-x,1/2-y,1/2-z
1/2+x,y,1/2-z
1/2-x,1/2+y,1/2+z
1/2+x,-y,1/2+z
loop_
_atom_site_type_symbol
_atom_site_label
_atom_site_fract_x
_atom_site_fract_y
_atom_site_fract_z
Si Si1 0.674758 0.364176 0.557002
Si Si2 0.667721 0.194439 0.047119
Si Si3 0.825684 0.038961 0.551329
Si Si4 0.839626 0.030802 0.691212
Si Si5 0.670513 0.696575 0.810527
Si Si6 0.165141 0.641425 0.311569
O O1 0.500000 0.367203 0.564753
O O2 0.717117 0.327183 0.502464
O O3 0.738386 0.414104 0.534883
O O4 0.744534 0.346699 0.624065
O O5 0.500000 0.180006 0.029496
O O6 0.682896 0.250000 0.045252
O O7 0.706871 0.175071 0.118993
O O8 0.773078 0.019138 0.620907
O O9 0.000000 0.050285 0.552853
O O10 0.783609 0.000000 0.500000
O O11 0.750000 0.008176 0.750000
O O12 0.846564 0.086297 0.698070
O O13 0.000000 0.008290 0.696761
O O14 0.500000 0.692694 0.796537
O O15 0.723875 0.750000 0.812718
O O16 0.750000 0.670801 0.750000
O O17 0.250000 0.663391 0.250000
O O18 0.000000 0.662655 0.316212
#
# Coordination Sequence:
#
# PCOD8301526 Si02
#       6
#    16  16  16  16  16  16
#     4  11  21  31  47  73 102 129 159 198 243 289
#     4   9  18  33  51  70  95 129 165 198 236 285
#     4   9  18  33  51  69  92 125 163 199 237 283
#     4   8  14  24  41  65  89 114 146 187 231 273
#     4   8  14  25  43  67  92 118 151 193 238 280
#     4   9  16  28  46  68  94 123 158 198 238 280
#
# _framework density 17.765650000000001
#
# number of rings (size 3 to 8) (size 9 to 14) (size 15 to 20)
#    0.000    3.000    0.000    4.000    0.000    5.333 
#    0.000    1.667    0.000    1.500    0.000    2.333 
#    0.000    0.000    0.000    0.000    0.000    0.000 
#
# Total GULP energy -594819.784706 kJ/mol
# GULP energy per Si atom -12392.078848 kJ/mol
# Density = 1.772521 g / cm^3
# Si number density = 17.765650 Si / 1000 Ang^3
#
#
#
# Elastic Constant Matrix: (Units=GPa)
#
#
# Indices 1 2 3 4 5 6 
#
# 1 95.9237 21.8197 60.4747 0.0000 0.0000 0.0000
# 2 21.8197 25.5642 34.1682 0.0001 0.0000 0.0000
# 3 60.4747 34.1682 148.0808 0.0004 0.0000 0.0000
# 4 0.0000 0.0001 0.0004 20.8259 0.0000 0.0000
# 5 0.0000 0.0000 0.0000 0.0000 36.3275 0.0000
# 6 0.0000 0.0000 0.0000 0.0000 0.0000 16.9585
#
#
#
# Elastic Compliance Matrix: (Units=1/GPa)
#
#
# Indices 1 2 3 4 5 6 
#
# 1 0.014765 -0.006569 -0.004514 0.000000 0.000000 0.000000
# 2 -0.006569 0.059483 -0.011042 0.000000 0.000000 0.000000
# 3 -0.004514 -0.011042 0.011145 0.000000 0.000000 0.000000
# 4 0.000000 0.000000 0.000000 0.048017 0.000000 0.000000
# 5 0.000000 0.000000 0.000000 0.000000 0.027527 0.000000
# 6 0.000000 0.000000 0.000000 0.000000 0.000000 0.058967
#
#
# Mechanical properties :
#
#
# Convention : Reuss Voigt Hill
#
# Bulk Modulus (GPa) = 24.30634 55.83266 40.06950
# Shear Modulus (GPa) = 17.99406 25.02946 21.51176
#
# Velocity S-wave (km/s) = 3.18599 3.75756 3.48352
# Velocity P-wave (km/s) = 5.21972 7.09375 6.22763
#
# Compressibility (1/GPa) = 0.04114152
#
# Stress axis : x y z
#
# Youngs Moduli (GPa) = 67.72700 16.81154 89.72974
#
# Poissons Ratio (x) = 0.11043 0.40506
# Poissons Ratio (y) = 0.44489 0.99084
# Poissons Ratio (z) = 0.30574 0.18564
#
# Static dielectric constant tensor:
#      x y z
#    x 3.375370 0.000000 0.000000 
#    y 0.000000 2.687510 0.000000 
#    z 0.000000 0.000000 3.763730 
# 
# 
# High freq. dielectric constant tensor:
#      x y z
#    x 1.684810 0.000000 0.000000 
#    y 0.000000 1.617630 0.000000 
#    z 0.000000 0.000000 1.710640 
# 
# From -- ./inp_files/49078.got.cif
#   From: 2010.03.12/outbox.cif.g09.slc.cpg/sg74_25_cif.got.tgz:49078.got - 2010.04.16 15:46:19.
