data_PCOD8301556
_publ_section_title
;
Structure prediction by ZEFSAII (Michael W. Deem and Ramdas Pophale) SiO2 
 PCOD8301556
Probable space group: I M M A
;
_chemical_formula_sum "Si O2"
_cell_formula_units_Z 64
_cell_length_a 17.501590
_cell_length_b 8.575209
_cell_length_c 23.735916
_cell_angle_alpha 90.000000
_cell_angle_beta 90.000000
_cell_angle_gamma 90.000000
_cell_volume 3562.281338
_symmetry_space_group_name_H-M "I M M A"
_symmetry_group_IT_number 74
_symmetry_cell_setting 'orthorhombic'
loop_
_space_group_symop_operation_xyz
x,y,z
-x,1/2-y,z
x,-y,-z
-x,1/2+y,-z
-x,-y,-z
x,1/2+y,-z
-x,y,z
x,1/2-y,z
1/2+x,1/2+y,1/2+z
1/2-x,-y,1/2+z
1/2+x,1/2-y,1/2-z
1/2-x,y,1/2-z
1/2-x,1/2-y,1/2-z
1/2+x,y,1/2-z
1/2-x,1/2+y,1/2+z
1/2+x,-y,1/2+z
loop_
_atom_site_type_symbol
_atom_site_label
_atom_site_fract_x
_atom_site_fract_y
_atom_site_fract_z
Si Si1 0.500000 0.934351 0.735691
Si Si2 0.868001 0.934189 0.439424
Si Si3 0.915381 0.926486 0.141000
Si Si4 0.704177 0.432632 0.440686
Si Si5 0.500000 0.565707 0.864769
O O1 0.500000 0.750000 0.729415
O O2 0.500000 0.988057 0.800023
O O3 0.575638 0.004502 0.704543
O O4 0.872895 0.750000 0.441897
O O5 0.892755 0.000000 0.500000
O O6 0.783046 0.986549 0.422866
O O7 0.924298 0.997559 0.392320
O O8 0.883604 0.750000 0.143407
O O9 0.000000 0.930064 0.112269
O O10 0.858619 0.035288 0.106469
O O11 0.674468 0.500000 0.500000
O O12 0.718522 0.250000 0.447080
O O13 0.500000 0.750000 0.871153
#
# Coordination Sequence:
#
# PCOD8301556 Si02
#       5
#     8  16  16  16   8
#     4   9  19  36  57  80 107 142 181 226 268 315
#     4  11  22  37  57  82 113 143 179 222 272 323
#     4   9  19  35  56  79 111 145 180 223 268 318
#     4  11  21  35  56  81 113 145 180 222 271 323
#     4  11  22  38  59  82 109 142 183 222 271 325
#
# _framework density 17.966014000000001
#
# number of rings (size 3 to 8) (size 9 to 14) (size 15 to 20)
#    0.750    1.000    0.000    7.500    0.000    2.500 
#    0.000    1.250    0.000    7.500    0.000    0.000 
#    0.000    0.000    0.000    0.000    0.000    0.000 
#
# Total GULP energy -396751.816911 kJ/mol
# GULP energy per Si atom -12398.494278 kJ/mol
# Density = 1.792512 g / cm^3
# Si number density = 17.966014 Si / 1000 Ang^3
#
#
#
# Elastic Constant Matrix: (Units=GPa)
#
#
# Indices 1 2 3 4 5 6 
#
# 1 84.6601 35.0752 73.7882 0.0000 0.0000 0.0000
# 2 35.0752 122.1033 54.9083 0.0000 0.0000 0.0000
# 3 73.7882 54.9083 139.4564 0.0000 0.0000 0.0000
# 4 0.0000 0.0000 0.0000 30.4942 0.0000 0.0000
# 5 0.0000 0.0000 0.0000 0.0000 -2.4177 0.0000
# 6 0.0000 0.0000 0.0000 0.0000 0.0000 32.0781
#
#
#
# Elastic Compliance Matrix: (Units=1/GPa)
#
#
# Indices 1 2 3 4 5 6 
#
# 1 0.022096 -0.001324 -0.011170 0.000000 0.000000 0.000000
# 2 -0.001324 0.010031 -0.003249 0.000000 0.000000 0.000000
# 3 -0.011170 -0.003249 0.014360 0.000000 0.000000 0.000000
# 4 0.000000 0.000000 0.000000 0.032793 0.000000 0.000000
# 5 0.000000 0.000000 0.000000 0.000000 -0.413612 0.000000
# 6 0.000000 0.000000 0.000000 0.000000 0.000000 0.031174
#
#
# Mechanical properties :
#
#
# Convention : Reuss Voigt Hill
#
# Bulk Modulus (GPa) = 66.66176 74.86259 70.76217
# Shear Modulus (GPa) = -18.74967 24.19413 2.72223
#
# Velocity S-wave (km/s) = -3.23401 3.67367 1.23227
# Velocity P-wave (km/s) = 4.82077 7.73007 6.44181
#
# Compressibility (1/GPa) = 0.01500110
#
# Stress axis : x y z
#
# Youngs Moduli (GPa) = 45.25686 99.68915 69.63771
#
# Poissons Ratio (x) = 0.13202 0.77785
# Poissons Ratio (y) = 0.05993 0.22624
# Poissons Ratio (z) = 0.50552 0.32388
#
# Static dielectric constant tensor:
#      x y z
#    x 3.196960 0.000000 0.000000 
#    y 0.000000 3.453280 0.000000 
#    z 0.000000 0.000000 3.245750 
# 
# 
# High freq. dielectric constant tensor:
#      x y z
#    x 1.687050 0.000000 0.000000 
#    y 0.000000 1.720080 0.000000 
#    z 0.000000 0.000000 1.683920 
# 
# From -- ./inp_files/60548.got.cif
#   From: 2010.03.12/outbox.cif.g09.slc.cpg/sg74_31_cif.got.tgz:60548.got - 2010.04.16 15:46:19.
