data_PCOD8301755
_publ_section_title
;
Structure prediction by ZEFSAII (Michael W. Deem and Ramdas Pophale) SiO2 
 PCOD8301755
Probable space group: I M M A
;
_chemical_formula_sum "Si O2"
_cell_formula_units_Z 80
_cell_length_a 9.440784
_cell_length_b 9.894714
_cell_length_c 50.970686
_cell_angle_alpha 90.000000
_cell_angle_beta 90.000000
_cell_angle_gamma 90.000000
_cell_volume 4761.368405
_symmetry_space_group_name_H-M "I M M A"
_symmetry_group_IT_number 74
_symmetry_cell_setting 'orthorhombic'
loop_
_space_group_symop_operation_xyz
x,y,z
-x,1/2-y,z
x,-y,-z
-x,1/2+y,-z
-x,-y,-z
x,1/2+y,-z
-x,y,z
x,1/2-y,z
1/2+x,1/2+y,1/2+z
1/2-x,-y,1/2+z
1/2+x,1/2-y,1/2-z
1/2-x,y,1/2-z
1/2-x,1/2-y,1/2-z
1/2+x,y,1/2-z
1/2-x,1/2+y,1/2+z
1/2+x,-y,1/2+z
loop_
_atom_site_type_symbol
_atom_site_label
_atom_site_fract_x
_atom_site_fract_y
_atom_site_fract_z
Si Si1 0.664425 0.594571 0.676999
Si Si2 0.668590 0.098479 0.978032
Si Si3 0.668305 0.598569 0.080151
Si Si4 0.665481 0.594554 0.874385
Si Si5 0.664553 0.594940 0.275649
O O1 0.500000 0.570880 0.670640
O O2 0.694831 0.750000 0.684606
O O3 0.752956 0.550326 0.651697
O O4 0.715698 0.500413 0.700761
O O5 0.500000 0.091278 0.978822
O O6 0.719803 0.250000 0.984420
O O7 0.721854 0.055862 0.948928
O O8 0.735306 0.000000 0.000000
O O9 0.500000 0.595251 0.080350
O O10 0.721581 0.750000 0.086888
O O11 0.727325 0.494205 0.101666
O O12 0.500000 0.567605 0.869633
O O13 0.695471 0.750000 0.881440
O O14 0.500000 0.572621 0.269510
O O15 0.696871 0.750000 0.283343
O O16 0.750000 0.550913 0.250000
#
# Coordination Sequence:
#
# PCOD8301755 Si02
#       5
#    16  16  16  16  16
#     4   9  18  32  47  63  86 114 140 168 205 246
#     4   8  13  20  30  46  70 101 135 167 200 242
#     4   8  14  24  36  52  77 107 137 170 208 248
#     4   9  17  28  42  61  83 107 138 174 207 241
#     4   9  18  32  48  66  88 112 138 169 204 242
#
# _framework density 16.801891999999999
#
# number of rings (size 3 to 8) (size 9 to 14) (size 15 to 20)
#    0.000    3.400    0.000    1.200    0.000    2.800 
#    0.000    4.000    0.000    0.000    0.000    0.000 
#    0.000    0.800    0.000    1.800    0.000    3.600 
#
# Total GULP energy -495852.458669 kJ/mol
# GULP energy per Si atom -12396.311467 kJ/mol
# Density = 1.676365 g / cm^3
# Si number density = 16.801892 Si / 1000 Ang^3
#
#
#
# Elastic Constant Matrix: (Units=GPa)
#
#
# Indices 1 2 3 4 5 6 
#
# 1 23.6550 28.0281 41.8210 0.0000 0.0000 0.0000
# 2 28.0281 105.7502 110.4122 0.0000 0.0000 0.0000
# 3 41.8210 110.4122 182.6259 0.0000 0.0000 0.0000
# 4 0.0000 0.0000 0.0000 42.4478 0.0000 0.0000
# 5 0.0000 0.0000 0.0000 0.0000 14.3443 0.0000
# 6 0.0000 0.0000 0.0000 0.0000 0.0000 12.8376
#
#
#
# Elastic Compliance Matrix: (Units=1/GPa)
#
#
# Indices 1 2 3 4 5 6 
#
# 1 0.072020 -0.005067 -0.013429 0.000000 0.000000 0.000000
# 2 -0.005067 0.026000 -0.014558 0.000000 0.000000 0.000000
# 3 -0.013429 -0.014558 0.017353 0.000000 0.000000 0.000000
# 4 0.000000 0.000000 0.000000 0.023558 0.000000 0.000000
# 5 0.000000 0.000000 0.000000 0.000000 0.069714 0.000000
# 6 0.000000 0.000000 0.000000 0.000000 0.000000 0.077896
#
#
# Mechanical properties :
#
#
# Convention : Reuss Voigt Hill
#
# Bulk Modulus (GPa) = 20.29921 74.72817 47.51369
# Shear Modulus (GPa) = 13.54753 22.71060 18.12907
#
# Velocity S-wave (km/s) = 2.84264 3.68049 3.28836
# Velocity P-wave (km/s) = 4.78350 7.91416 6.53895
#
# Compressibility (1/GPa) = 0.04926300
#
# Stress axis : x y z
#
# Youngs Moduli (GPa) = 13.88501 38.46222 57.62830
#
# Poissons Ratio (x) = 0.19490 0.77388
# Poissons Ratio (y) = 0.07036 0.83898
# Poissons Ratio (z) = 0.18646 0.55995
#
# Static dielectric constant tensor:
#      x y z
#    x 2.718880 0.000000 0.000000 
#    y 0.000000 3.316040 0.000000 
#    z 0.000000 0.000000 3.395760 
# 
# 
# High freq. dielectric constant tensor:
#      x y z
#    x 1.597780 0.000000 0.000000 
#    y 0.000000 1.650750 0.000000 
#    z 0.000000 0.000000 1.654750 
# 
# From -- ./inp_files/71520.got.cif
#   From: 2010.03.12/outbox.cif.g09.slc.cpg/sg74_36_cif.got.tgz:71520.got - 2010.04.16 15:46:19.
