data_PCOD8301803
_publ_section_title
;
Structure prediction by ZEFSAII (Michael W. Deem and Ramdas Pophale) SiO2 
 PCOD8301803
Probable space group: I M M A
;
_chemical_formula_sum "Si O2"
_cell_formula_units_Z 112
_cell_length_a 14.022871
_cell_length_b 20.842022
_cell_length_c 25.195134
_cell_angle_alpha 90.000000
_cell_angle_beta 90.000000
_cell_angle_gamma 90.000000
_cell_volume 7363.655483
_symmetry_space_group_name_H-M "I M M A"
_symmetry_group_IT_number 74
_symmetry_cell_setting 'orthorhombic'
loop_
_space_group_symop_operation_xyz
x,y,z
-x,1/2-y,z
x,-y,-z
-x,1/2+y,-z
-x,-y,-z
x,1/2+y,-z
-x,y,z
x,1/2-y,z
1/2+x,1/2+y,1/2+z
1/2-x,-y,1/2+z
1/2+x,1/2-y,1/2-z
1/2-x,y,1/2-z
1/2-x,1/2-y,1/2-z
1/2+x,y,1/2-z
1/2-x,1/2+y,1/2+z
1/2+x,-y,1/2+z
loop_
_atom_site_type_symbol
_atom_site_label
_atom_site_fract_x
_atom_site_fract_y
_atom_site_fract_z
Si Si1 0.391195 0.056550 0.164635
Si Si2 0.205902 0.369687 0.055649
Si Si3 0.893178 0.675724 0.592623
Si Si4 0.890647 0.435659 0.965630
Si Si5 0.891696 0.680049 0.849271
Si Si6 0.711676 0.003604 0.378645
Si Si7 0.386935 0.439631 0.285045
O O1 0.500000 0.032798 0.159811
O O2 0.326242 0.006375 0.131096
O O3 0.351636 0.054575 0.224638
O O4 0.380641 0.130126 0.144296
O O5 0.317638 0.350025 0.048631
O O6 0.155602 0.376211 0.998353
O O7 0.160490 0.316036 0.093694
O O8 0.184445 0.434996 0.086774
O O9 0.874876 0.750000 0.608903
O O10 0.000000 0.667877 0.569007
O O11 0.825691 0.442616 0.912371
O O12 0.000000 0.419399 0.950412
O O13 0.886340 0.500000 0.000000
O O14 0.882857 0.750000 0.822446
O O15 0.000000 0.661180 0.861631
O O16 0.849057 0.628353 0.808160
O O17 0.657048 0.004550 0.322052
O O18 0.500000 0.444858 0.286211
#
# Coordination Sequence:
#
# PCOD8301803 Si02
#       7
#    16  16  16  16  16  16  16
#     4   9  17  27  38  53  74 101 132 164 195 223
#     4   9  16  26  38  52  70  91 119 158 198 231
#     4   9  17  28  40  53  72 101 135 165 190 220
#     4   9  16  26  41  57  70  87 114 151 197 243
#     4   9  16  24  35  53  76 100 126 158 196 234
#     4   9  16  26  38  52  70  92 121 158 197 233
#     4   9  16  25  37  53  74 100 130 163 195 227
#
# _framework density 15.209837
#
# number of rings (size 3 to 8) (size 9 to 14) (size 15 to 20)
#    0.000    3.000    0.000    1.714    0.000    4.000 
#    0.000    3.571    0.000    9.429    0.000    0.000 
#    0.000    0.000    0.000    0.000    0.000   11.429 
#
# Total GULP energy -693775.665341 kJ/mol
# GULP energy per Si atom -12388.851167 kJ/mol
# Density = 1.517522 g / cm^3
# Si number density = 15.209837 Si / 1000 Ang^3
#
#
#
# Elastic Constant Matrix: (Units=GPa)
#
#
# Indices 1 2 3 4 5 6 
#
# 1 83.4415 21.3427 51.5924 0.0000 0.0000 0.0000
# 2 21.3427 13.8459 25.7885 0.0000 0.0000 0.0000
# 3 51.5924 25.7885 80.7538 0.0000 0.0000 0.0000
# 4 0.0000 0.0000 0.0000 16.9114 0.0000 0.0000
# 5 0.0000 0.0000 0.0000 0.0000 25.3154 0.0000
# 6 0.0000 0.0000 0.0000 0.0000 0.0000 16.0922
#
#
#
# Elastic Compliance Matrix: (Units=1/GPa)
#
#
# Indices 1 2 3 4 5 6 
#
# 1 0.021618 -0.018753 -0.007823 0.000000 0.000000 0.000000
# 2 -0.018753 0.194508 -0.050134 0.000000 0.000000 0.000000
# 3 -0.007823 -0.050134 0.033391 0.000000 0.000000 0.000000
# 4 0.000000 0.000000 0.000000 0.059132 0.000000 0.000000
# 5 0.000000 0.000000 0.000000 0.000000 0.039502 0.000000
# 6 0.000000 0.000000 0.000000 0.000000 0.000000 0.062142
#
#
# Mechanical properties :
#
#
# Convention : Reuss Voigt Hill
#
# Bulk Modulus (GPa) = 10.40616 41.72093 26.06355
# Shear Modulus (GPa) = 8.39286 16.95163 12.67225
#
# Velocity S-wave (km/s) = 2.35160 3.34206 2.88958
# Velocity P-wave (km/s) = 3.77226 6.51017 5.32035
#
# Compressibility (1/GPa) = 0.09609689
#
# Stress axis : x y z
#
# Youngs Moduli (GPa) = 46.25796 5.14119 29.94792
#
# Poissons Ratio (x) = 0.09641 0.23427
# Poissons Ratio (y) = 0.86747 1.50142
# Poissons Ratio (z) = 0.36186 0.25775
#
# Static dielectric constant tensor:
#      x y z
#    x 3.146220 0.000000 0.000000 
#    y 0.000000 2.560340 0.000000 
#    z 0.000000 0.000000 2.933520 
# 
# 
# High freq. dielectric constant tensor:
#      x y z
#    x 1.604420 0.000000 0.000000 
#    y 0.000000 1.519620 0.000000 
#    z 0.000000 0.000000 1.555720 
# 
# From -- ./inp_files/32684.got.cif
#   From: 2010.03.12/outbox.cif.g09.slc.cpg/sg74_17_cif.got.tgz:32684.got - 2010.04.16 15:46:19.
