data_PCOD8301221
_publ_section_title
;
Structure prediction by ZEFSAII (Michael W. Deem and Ramdas Pophale) SiO2 
 PCOD8301221
Probable space group: I M M A
;
_chemical_formula_sum "Si O2"
_cell_formula_units_Z 88
_cell_length_a 27.416217
_cell_length_b 11.454476
_cell_length_c 15.588008
_cell_angle_alpha 90.000000
_cell_angle_beta 90.000000
_cell_angle_gamma 90.000000
_cell_volume 4895.233086
_symmetry_space_group_name_H-M "I M M A"
_symmetry_group_IT_number 74
_symmetry_cell_setting 'orthorhombic'
loop_
_space_group_symop_operation_xyz
x,y,z
-x,1/2-y,z
x,-y,-z
-x,1/2+y,-z
-x,-y,-z
x,1/2+y,-z
-x,y,z
x,1/2-y,z
1/2+x,1/2+y,1/2+z
1/2-x,-y,1/2+z
1/2+x,1/2-y,1/2-z
1/2-x,y,1/2-z
1/2-x,1/2-y,1/2-z
1/2+x,y,1/2-z
1/2-x,1/2+y,1/2+z
1/2+x,-y,1/2+z
loop_
_atom_site_type_symbol
_atom_site_label
_atom_site_fract_x
_atom_site_fract_y
_atom_site_fract_z
Si Si1 0.555000 0.960404 0.096921
Si Si2 0.886058 0.250000 0.657628
Si Si3 0.729200 0.250000 0.843026
Si Si4 0.598923 0.039334 0.597549
Si Si5 0.299340 0.118646 0.553792
Si Si6 0.446367 0.750000 0.326225
Si Si7 0.943740 0.615865 0.759596
O O1 0.500000 0.913187 0.111878
O O2 0.594744 0.861605 0.108207
O O3 0.566432 0.060914 0.166198
O O4 0.561215 0.000000 0.000000
O O5 0.828323 0.250000 0.654582
O O6 0.905003 0.250000 0.754452
O O7 0.750000 0.250000 0.750000
O O8 0.751082 0.367087 0.887993
O O9 0.652628 0.094285 0.611086
O O10 0.558276 0.136667 0.614791
O O11 0.592348 0.000000 0.500000
O O12 0.590884 0.936254 0.666143
O O13 0.306787 0.250000 0.507709
O O14 0.290823 0.000000 0.500000
O O15 0.500000 0.750000 0.283478
O O16 0.929653 0.750000 0.750943
O O17 0.000000 0.598067 0.786601
#
# Coordination Sequence:
#
# PCOD8301221 Si02
#       7
#    16   8   8  16  16   8  16
#     4  10  22  38  60  88 119 159 201 248 305 373
#     4  12  22  38  64  89 116 153 210 258 313 359
#     4  10  22  38  64  90 115 158 197 267 316 374
#     4  11  22  36  58  86 118 160 206 241 302 360
#     4   9  20  39  65  91 118 159 204 252 315 374
#     4  12  22  36  56  85 122 156 201 247 287 356
#     4  10  22  38  55  82 125 168 202 249 307 367
#
# _framework density 17.976672000000001
#
# number of rings (size 3 to 8) (size 9 to 14) (size 15 to 20)
#    0.545    1.091    2.727    2.455    2.545    2.909 
#    0.000    0.000    0.000    0.545    0.000    0.000 
#    0.000    0.000    0.000    0.000    0.000    0.000 
#
# Total GULP energy -545094.658601 kJ/mol
# GULP energy per Si atom -12388.514968 kJ/mol
# Density = 1.793576 g / cm^3
# Si number density = 17.976672 Si / 1000 Ang^3
#
#
#
# Elastic Constant Matrix: (Units=GPa)
#
#
# Indices 1 2 3 4 5 6 
#
# 1 139.4382 69.2390 60.1452 0.0000 0.0000 0.0000
# 2 69.2390 152.8713 62.6698 0.0000 0.0000 0.0000
# 3 60.1452 62.6698 126.0763 0.0000 0.0000 0.0000
# 4 0.0000 0.0000 0.0000 51.1352 0.0000 0.0000
# 5 0.0000 0.0000 0.0000 0.0000 52.8461 0.0000
# 6 0.0000 0.0000 0.0000 0.0000 0.0000 32.1822
#
#
#
# Elastic Compliance Matrix: (Units=1/GPa)
#
#
# Indices 1 2 3 4 5 6 
#
# 1 0.010201 -0.003297 -0.003227 0.000000 0.000000 0.000000
# 2 -0.003297 0.009281 -0.003041 0.000000 0.000000 0.000000
# 3 -0.003227 -0.003041 0.010983 0.000000 0.000000 0.000000
# 4 0.000000 0.000000 0.000000 0.019556 0.000000 0.000000
# 5 0.000000 0.000000 0.000000 0.000000 0.018923 0.000000
# 6 0.000000 0.000000 0.000000 0.000000 0.000000 0.031073
#
#
# Mechanical properties :
#
#
# Convention : Reuss Voigt Hill
#
# Bulk Modulus (GPa) = 88.22534 89.16596 88.69565
# Shear Modulus (GPa) = 40.67495 42.32149 41.49822
#
# Velocity S-wave (km/s) = 4.76189 4.85732 4.80984
# Velocity P-wave (km/s) = 8.91170 9.00926 8.96061
#
# Compressibility (1/GPa) = 0.01133461
#
# Stress axis : x y z
#
# Youngs Moduli (GPa) = 98.02963 107.74329 91.05141
#
# Poissons Ratio (x) = 0.35525 0.29387
# Poissons Ratio (y) = 0.32322 0.27685
# Poissons Ratio (z) = 0.31639 0.32761
#
# Static dielectric constant tensor:
#      x y z
#    x 3.167550 0.000000 0.000000 
#    y 0.000000 3.453790 0.000000 
#    z 0.000000 0.000000 3.287630 
# 
# 
# High freq. dielectric constant tensor:
#      x y z
#    x 1.687670 0.000000 0.000000 
#    y 0.000000 1.705900 0.000000 
#    z 0.000000 0.000000 1.690830 
# 
# From -- ./inp_files/36295.got.cif
#   From: 2010.03.12/outbox.cif.g09.slc.cpg/sg74_19_cif.got.tgz:36295.got - 2010.04.16 15:46:19.
