data_PCOD8301809
_publ_section_title
;
Structure prediction by ZEFSAII (Michael W. Deem and Ramdas Pophale) SiO2 
 PCOD8301809
Probable space group: I M M A
;
_chemical_formula_sum "Si O2"
_cell_formula_units_Z 64
_cell_length_a 19.144648
_cell_length_b 28.041129
_cell_length_c 5.271816
_cell_angle_alpha 90.000000
_cell_angle_beta 90.000000
_cell_angle_gamma 90.000000
_cell_volume 2830.108755
_symmetry_space_group_name_H-M "I M M A"
_symmetry_group_IT_number 74
_symmetry_cell_setting 'orthorhombic'
loop_
_space_group_symop_operation_xyz
x,y,z
-x,1/2-y,z
x,-y,-z
-x,1/2+y,-z
-x,-y,-z
x,1/2+y,-z
-x,y,z
x,1/2-y,z
1/2+x,1/2+y,1/2+z
1/2-x,-y,1/2+z
1/2+x,1/2-y,1/2-z
1/2-x,y,1/2-z
1/2-x,1/2-y,1/2-z
1/2+x,y,1/2-z
1/2-x,1/2+y,1/2+z
1/2+x,-y,1/2+z
loop_
_atom_site_type_symbol
_atom_site_label
_atom_site_fract_x
_atom_site_fract_y
_atom_site_fract_z
Si Si1 0.083351 0.554032 0.523795
Si Si2 0.078372 0.803761 0.751403
Si Si3 0.715517 0.805439 0.001399
Si Si4 0.418593 0.395919 0.526111
O O1 0.110059 0.500000 0.500000
O O2 0.113569 0.576201 0.783567
O O3 0.000000 0.556384 0.523663
O O4 0.114644 0.585037 0.288507
O O5 0.086816 0.750000 0.859081
O O6 0.131510 0.812749 0.517545
O O7 0.094524 0.839216 0.985836
O O8 0.000000 0.812922 0.643843
O O9 0.735697 0.750000 0.008243
O O10 0.750000 0.830209 0.250000
O O11 0.750000 0.828568 0.750000
O O12 0.500000 0.407786 0.535970
#
# Coordination Sequence:
#
# PCOD8301809 Si02
#       4
#    16  16  16  16
#     4   9  16  27  43  63  91 128 167 210 263 318
#     4   9  18  33  52  76 108 145 184 231 288 344
#     4   9  18  33  51  70  96 135 182 227 271 324
#     4   9  17  28  43  66  95 128 169 214 263 323
#
# _framework density 22.613970999999999
#
# number of rings (size 3 to 8) (size 9 to 14) (size 15 to 20)
#    0.000    3.000    0.000    0.750    0.000    5.000 
#    0.000    7.500    0.000   21.000    0.000    0.000 
#    0.000    6.000    0.000    0.250    0.000    0.500 
#
# Total GULP energy -396546.754955 kJ/mol
# GULP energy per Si atom -12392.086092 kJ/mol
# Density = 2.256250 g / cm^3
# Si number density = 22.613971 Si / 1000 Ang^3
#
#
#
# Elastic Constant Matrix: (Units=GPa)
#
#
# Indices 1 2 3 4 5 6 
#
# 1 79.7551 14.3411 33.9694 0.0000 0.0000 0.0000
# 2 14.3411 113.8854 40.4876 0.0000 0.0000 0.0000
# 3 33.9694 40.4876 167.0073 0.0000 0.0000 0.0000
# 4 0.0000 0.0000 0.0000 28.9983 0.0000 0.0000
# 5 0.0000 0.0000 0.0000 0.0000 16.6138 0.0000
# 6 0.0000 0.0000 0.0000 0.0000 0.0000 4.6244
#
#
#
# Elastic Compliance Matrix: (Units=1/GPa)
#
#
# Indices 1 2 3 4 5 6 
#
# 1 0.013795 -0.000809 -0.002610 0.000000 0.000000 0.000000
# 2 -0.000809 0.009656 -0.002176 0.000000 0.000000 0.000000
# 3 -0.002610 -0.002176 0.007046 0.000000 0.000000 0.000000
# 4 0.000000 0.000000 0.000000 0.034485 0.000000 0.000000
# 5 0.000000 0.000000 0.000000 0.000000 0.060191 0.000000
# 6 0.000000 0.000000 0.000000 0.000000 0.000000 0.216244
#
#
# Mechanical properties :
#
#
# Convention : Reuss Voigt Hill
#
# Bulk Modulus (GPa) = 51.79469 59.80488 55.79978
# Shear Modulus (GPa) = 13.92586 28.17062 21.04824
#
# Velocity S-wave (km/s) = 2.48424 3.53330 3.05415
# Velocity P-wave (km/s) = 5.58410 6.56879 6.09636
#
# Compressibility (1/GPa) = 0.01930700
#
# Stress axis : x y z
#
# Youngs Moduli (GPa) = 72.48746 103.55817 141.92018
#
# Poissons Ratio (x) = 0.08382 0.37038
# Poissons Ratio (y) = 0.05867 0.30887
# Poissons Ratio (z) = 0.18918 0.22538
#
# Static dielectric constant tensor:
#      x y z
#    x 3.627840 0.000000 0.000000 
#    y 0.000000 4.000250 0.000000 
#    z 0.000000 0.000000 4.307600 
# 
# 
# High freq. dielectric constant tensor:
#      x y z
#    x 1.834630 0.000000 0.000000 
#    y 0.000000 1.873870 0.000000 
#    z 0.000000 0.000000 1.891070 
# 
# From -- ./inp_files/3180.got.cif
#   From: 2010.03.12/outbox.cif.g09.slc.cpg/sg74_2_cif.got.tgz:3180.got - 2010.04.16 15:46:19.
