data_PCOD8301207
_publ_section_title
;
Structure prediction by ZEFSAII (Michael W. Deem and Ramdas Pophale) SiO2 
 PCOD8301207
Probable space group: I M M A
;
_chemical_formula_sum "Si O2"
_cell_formula_units_Z 88
_cell_length_a 8.406629
_cell_length_b 23.580275
_cell_length_c 21.693284
_cell_angle_alpha 90.000000
_cell_angle_beta 90.000000
_cell_angle_gamma 90.000000
_cell_volume 4300.273216
_symmetry_space_group_name_H-M "I M M A"
_symmetry_group_IT_number 74
_symmetry_cell_setting 'orthorhombic'
loop_
_space_group_symop_operation_xyz
x,y,z
-x,1/2-y,z
x,-y,-z
-x,1/2+y,-z
-x,-y,-z
x,1/2+y,-z
-x,y,z
x,1/2-y,z
1/2+x,1/2+y,1/2+z
1/2-x,-y,1/2+z
1/2+x,1/2-y,1/2-z
1/2-x,y,1/2-z
1/2-x,1/2-y,1/2-z
1/2+x,y,1/2-z
1/2-x,1/2+y,1/2+z
1/2+x,-y,1/2+z
loop_
_atom_site_type_symbol
_atom_site_label
_atom_site_fract_x
_atom_site_fract_y
_atom_site_fract_z
Si Si1 0.684608 0.526850 0.816361
Si Si2 0.687303 0.468952 0.562539
Si Si3 0.173384 0.250000 0.374733
Si Si4 0.314917 0.850895 0.687979
Si Si5 0.327831 0.750000 0.014657
Si Si6 0.311239 0.250000 0.681269
Si Si7 0.685599 0.343908 0.587511
O O1 0.500000 0.510899 0.820849
O O2 0.750000 0.504150 0.750000
O O3 0.776934 0.502400 0.874940
O O4 0.708037 0.593808 0.821456
O O5 0.757032 0.500000 0.500000
O O6 0.500000 0.464253 0.553042
O O7 0.762437 0.406041 0.574718
O O8 0.280770 0.194665 0.364184
O O9 0.130981 0.250000 0.444677
O O10 0.000000 0.250000 0.339753
O O11 0.500000 0.867739 0.690430
O O12 0.250000 0.821196 0.750000
O O13 0.500000 0.750000 0.049812
O O14 0.225165 0.805859 0.028672
O O15 0.500000 0.250000 0.679787
O O16 0.250000 0.250000 0.750000
O O17 0.249181 0.192425 0.646743
O O18 0.500000 0.352893 0.595725
#
# Coordination Sequence:
#
# PCOD8301207 Si02
#       7
#    16  16   8  16   8   8  16
#     4  11  23  41  63  88 122 162 204 255 308 367
#     4  10  22  40  63  92 123 161 209 259 311 376
#     4  11  23  37  54  83 116 150 191 241 295 353
#     4  11  22  38  59  83 113 151 194 243 295 352
#     4  10  22  37  57  84 116 151 192 239 288 345
#     4   9  18  34  57  85 116 151 191 240 300 364
#     4   9  20  39  59  83 119 156 193 241 301 363
#
# _framework density 20.463816000000001
#
# number of rings (size 3 to 8) (size 9 to 14) (size 15 to 20)
#    0.000    1.818    0.000    5.727    2.545    4.727 
#    0.000    1.818    0.000    0.000    0.000    0.000 
#    0.000    0.000    0.000    0.000    0.000    0.000 
#
# Total GULP energy -545161.776421 kJ/mol
# GULP energy per Si atom -12390.040373 kJ/mol
# Density = 2.041724 g / cm^3
# Si number density = 20.463816 Si / 1000 Ang^3
#
#
#
# Elastic Constant Matrix: (Units=GPa)
#
#
# Indices 1 2 3 4 5 6 
#
# 1 34.0612 9.3139 9.4607 0.0000 0.0000 0.0000
# 2 9.3139 120.7746 65.7690 0.0000 0.0000 0.0000
# 3 9.4607 65.7690 137.8520 0.0000 0.0000 0.0000
# 4 0.0000 0.0000 0.0000 14.0850 0.0000 0.0000
# 5 0.0000 0.0000 0.0000 0.0000 29.4023 0.0000
# 6 0.0000 0.0000 0.0000 0.0000 0.0000 -7.9378
#
#
#
# Elastic Compliance Matrix: (Units=1/GPa)
#
#
# Indices 1 2 3 4 5 6 
#
# 1 0.030162 -0.001620 -0.001297 0.000000 0.000000 0.000000
# 2 -0.001620 0.011273 -0.005267 0.000000 0.000000 0.000000
# 3 -0.001297 -0.005267 0.009856 0.000000 0.000000 0.000000
# 4 0.000000 0.000000 0.000000 0.070998 0.000000 0.000000
# 5 0.000000 0.000000 0.000000 0.000000 0.034011 0.000000
# 6 0.000000 0.000000 0.000000 0.000000 0.000000 -0.125980
#
#
# Mechanical properties :
#
#
# Convention : Reuss Voigt Hill
#
# Bulk Modulus (GPa) = 28.63427 51.30833 39.97130
# Shear Modulus (GPa) = 85.72011 20.98618 53.35314
#
# Velocity S-wave (km/s) = 6.47916 3.20586 5.11161
# Velocity P-wave (km/s) = 8.36635 6.23141 7.37653
#
# Compressibility (1/GPa) = 0.03492319
#
# Stress axis : x y z
#
# Youngs Moduli (GPa) = 33.15415 88.70670 101.45920
#
# Poissons Ratio (x) = 0.14367 0.13162
# Poissons Ratio (y) = 0.05370 0.53441
# Poissons Ratio (z) = 0.04301 0.46724
#
# Static dielectric constant tensor:
#      x y z
#    x 3.637270 0.000000 0.000000 
#    y 0.000000 3.901780 0.000000 
#    z 0.000000 0.000000 4.256380 
# 
# 
# High freq. dielectric constant tensor:
#      x y z
#    x 1.794230 0.000000 0.000000 
#    y 0.000000 1.801340 0.000000 
#    z 0.000000 0.000000 1.799390 
# 
# From -- ./inp_files/48812.got.cif
#   From: 2010.03.12/outbox.cif.g09.slc.cpg/sg74_25_cif.got.tgz:48812.got - 2010.04.16 15:46:19.
