data_PCOD8301673
_publ_section_title
;
Structure prediction by ZEFSAII (Michael W. Deem and Ramdas Pophale) SiO2 
 PCOD8301673
Probable space group: I M M A
;
_chemical_formula_sum "Si O2"
_cell_formula_units_Z 72
_cell_length_a 8.624306
_cell_length_b 17.980232
_cell_length_c 23.105792
_cell_angle_alpha 90.000000
_cell_angle_beta 90.000000
_cell_angle_gamma 90.000000
_cell_volume 3582.946373
_symmetry_space_group_name_H-M "I M M A"
_symmetry_group_IT_number 74
_symmetry_cell_setting 'orthorhombic'
loop_
_space_group_symop_operation_xyz
x,y,z
-x,1/2-y,z
x,-y,-z
-x,1/2+y,-z
-x,-y,-z
x,1/2+y,-z
-x,y,z
x,1/2-y,z
1/2+x,1/2+y,1/2+z
1/2-x,-y,1/2+z
1/2+x,1/2-y,1/2-z
1/2-x,y,1/2-z
1/2-x,1/2-y,1/2-z
1/2+x,y,1/2-z
1/2-x,1/2+y,1/2+z
1/2+x,-y,1/2+z
loop_
_atom_site_type_symbol
_atom_site_label
_atom_site_fract_x
_atom_site_fract_y
_atom_site_fract_z
Si Si1 0.684115 0.975453 0.187145
Si Si2 0.322628 0.163230 0.007766
Si Si3 0.681377 0.889218 0.619935
Si Si4 0.817208 0.750000 0.686385
Si Si5 0.184114 0.831663 0.378418
O O1 0.500000 0.981992 0.188151
O O2 0.750000 0.993015 0.250000
O O3 0.740608 0.893376 0.167188
O O4 0.752637 0.032929 0.141641
O O5 0.500000 0.136277 0.014116
O O6 0.310211 0.250000 0.023153
O O7 0.216572 0.116635 0.051701
O O8 0.257965 0.148302 0.943128
O O9 0.500000 0.884685 0.631829
O O10 0.764403 0.823204 0.653492
O O11 0.750000 0.750000 0.750000
O O12 0.000000 0.750000 0.690172
O O13 0.248240 0.750000 0.359659
O O14 0.000000 0.828298 0.381152
#
# Coordination Sequence:
#
# PCOD8301673 Si02
#       5
#    16  16  16   8  16
#     4  11  23  40  60  84 118 156 199 247 295 347
#     4   9  17  34  61  89 117 151 196 242 286 344
#     4  12  24  38  57  85 121 157 195 239 293 347
#     4  12  24  40  60  84 114 154 201 242 287 344
#     4   8  17  36  63  91 116 150 197 244 291 352
#
# _framework density 20.095193999999999
#
# number of rings (size 3 to 8) (size 9 to 14) (size 15 to 20)
#    0.000    1.778    1.111    5.667    0.000    1.333 
#    0.000    6.667    0.000    4.667    0.000    0.000 
#    0.000    0.000    0.000    0.000    0.000    0.000 
#
# Total GULP energy -446447.936224 kJ/mol
# GULP energy per Si atom -12401.331562 kJ/mol
# Density = 2.004946 g / cm^3
# Si number density = 20.095194 Si / 1000 Ang^3
#
#
#
# Elastic Constant Matrix: (Units=GPa)
#
#
# Indices 1 2 3 4 5 6 
#
# 1 103.8900 32.7329 18.2151 0.0000 0.0000 0.0000
# 2 32.7329 95.8750 19.1337 0.0000 0.0000 0.0000
# 3 18.2151 19.1337 55.6137 0.0000 0.0000 0.0000
# 4 0.0000 0.0000 0.0000 27.0284 0.0000 0.0000
# 5 0.0000 0.0000 0.0000 0.0000 28.9141 0.0000
# 6 0.0000 0.0000 0.0000 0.0000 0.0000 8.6119
#
#
#
# Elastic Compliance Matrix: (Units=1/GPa)
#
#
# Indices 1 2 3 4 5 6 
#
# 1 0.011101 -0.003290 -0.002504 0.000000 0.000000 0.000000
# 2 -0.003290 0.012174 -0.003111 0.000000 0.000000 0.000000
# 3 -0.002504 -0.003111 0.019872 0.000000 0.000000 0.000000
# 4 0.000000 0.000000 0.000000 0.036998 0.000000 0.000000
# 5 0.000000 0.000000 0.000000 0.000000 0.034585 0.000000
# 6 0.000000 0.000000 0.000000 0.000000 0.000000 0.116118
#
#
# Mechanical properties :
#
#
# Convention : Reuss Voigt Hill
#
# Bulk Modulus (GPa) = 39.46814 43.94911 41.70863
# Shear Modulus (GPa) = 19.44731 25.26402 22.35566
#
# Velocity S-wave (km/s) = 3.11426 3.54957 3.33902
# Velocity P-wave (km/s) = 5.71093 6.22232 5.97210
#
# Compressibility (1/GPa) = 0.02533689
#
# Stress axis : x y z
#
# Youngs Moduli (GPa) = 90.07956 82.13909 50.32309
#
# Poissons Ratio (x) = 0.27027 0.12601
# Poissons Ratio (y) = 0.29640 0.15655
# Poissons Ratio (z) = 0.22555 0.25553
#
# Static dielectric constant tensor:
#      x y z
#    x 3.468390 0.000000 0.000000 
#    y 0.000000 3.829480 0.000000 
#    z 0.000000 0.000000 3.789720 
# 
# 
# High freq. dielectric constant tensor:
#      x y z
#    x 1.765350 0.000000 0.000000 
#    y 0.000000 1.786570 0.000000 
#    z 0.000000 0.000000 1.793180 
# 
# From -- ./inp_files/56671.got.cif
#   From: 2010.03.12/outbox.cif.g09.slc.cpg/sg74_29_cif.got.tgz:56671.got - 2010.04.16 15:46:19.
