data_PCOD8301150
_publ_section_title
;
Structure prediction by ZEFSAII (Michael W. Deem and Ramdas Pophale) SiO2 
 PCOD8301150
Probable space group: I M M A
;
_chemical_formula_sum "Si O2"
_cell_formula_units_Z 104
_cell_length_a 9.181619
_cell_length_b 25.781175
_cell_length_c 22.836585
_cell_angle_alpha 90.000000
_cell_angle_beta 90.000000
_cell_angle_gamma 90.000000
_cell_volume 5405.714860
_symmetry_space_group_name_H-M "I M M A"
_symmetry_group_IT_number 74
_symmetry_cell_setting 'orthorhombic'
loop_
_space_group_symop_operation_xyz
x,y,z
-x,1/2-y,z
x,-y,-z
-x,1/2+y,-z
-x,-y,-z
x,1/2+y,-z
-x,y,z
x,1/2-y,z
1/2+x,1/2+y,1/2+z
1/2-x,-y,1/2+z
1/2+x,1/2-y,1/2-z
1/2-x,y,1/2-z
1/2-x,1/2-y,1/2-z
1/2+x,y,1/2-z
1/2-x,1/2+y,1/2+z
1/2+x,-y,1/2+z
loop_
_atom_site_type_symbol
_atom_site_label
_atom_site_fract_x
_atom_site_fract_y
_atom_site_fract_z
Si Si1 0.323970 0.842731 0.381813
Si Si2 0.677538 0.250000 0.812778
Si Si3 0.669379 0.452918 0.189813
Si Si4 0.500000 0.687992 0.707770
Si Si5 0.772662 0.859142 0.876864
Si Si6 0.164105 0.692715 0.993460
Si Si7 0.500000 0.690713 0.837837
Si Si8 0.671152 0.926953 0.189105
O O1 0.500000 0.841149 0.373277
O O2 0.240318 0.800356 0.344023
O O3 0.269973 0.833853 0.448590
O O4 0.257901 0.897810 0.362190
O O5 0.500000 0.250000 0.810748
O O6 0.750000 0.250000 0.750000
O O7 0.500000 0.437882 0.195818
O O8 0.750000 0.439205 0.250000
O O9 0.742564 0.419648 0.137133
O O10 0.689202 0.512715 0.173648
O O11 0.500000 0.750000 0.704331
O O12 0.360952 0.665852 0.675741
O O13 0.500000 0.664544 0.773421
O O14 0.629258 0.825632 0.878988
O O15 0.837764 0.849384 0.940923
O O16 0.235782 0.750000 0.979407
O O17 0.000000 0.704794 0.009836
O O18 0.500000 0.750000 0.823482
O O19 0.500000 0.911467 0.192770
O O20 0.750000 0.913138 0.250000
#
# Coordination Sequence:
#
# PCOD8301150 Si02
#       8
#    16   8  16   8  16  16   8  16
#     4  11  22  41  64  92 123 163 205 255 302 361
#     4  12  24  40  64  98 132 164 197 242 307 371
#     4  10  22  39  61  88 121 159 204 256 312 367
#     4  11  22  36  56  80 115 156 202 251 316 375
#     4  12  22  37  57  85 118 160 205 249 308 365
#     4  10  21  40  62  83 117 163 212 250 297 360
#     4  11  22  34  52  84 119 150 192 261 314 367
#     4  10  21  40  64  93 125 158 198 251 312 373
#
# _framework density 19.238899
#
# number of rings (size 3 to 8) (size 9 to 14) (size 15 to 20)
#    0.000    1.231    2.308    4.846    1.077    1.846 
#    2.769    0.769    0.000    3.692    0.000    0.000 
#    0.000    0.000    0.000    0.000    0.000    0.000 
#
# Total GULP energy -644412.873364 kJ/mol
# GULP energy per Si atom -12392.555257 kJ/mol
# Density = 1.919511 g / cm^3
# Si number density = 19.238899 Si / 1000 Ang^3
#
#
#
# Elastic Constant Matrix: (Units=GPa)
#
#
# Indices 1 2 3 4 5 6 
#
# 1 98.4317 33.7618 13.8523 0.0000 0.0000 0.0000
# 2 33.7618 112.5946 52.9009 0.0000 0.0000 0.0000
# 3 13.8523 52.9009 106.5005 0.0000 0.0000 0.0000
# 4 0.0000 0.0000 0.0000 -19.0554 0.0000 0.0000
# 5 0.0000 0.0000 0.0000 0.0000 27.8021 0.0000
# 6 0.0000 0.0000 0.0000 0.0000 0.0000 33.8729
#
#
#
# Elastic Compliance Matrix: (Units=1/GPa)
#
#
# Indices 1 2 3 4 5 6 
#
# 1 0.011330 -0.003529 0.000279 0.000000 0.000000 0.000000
# 2 -0.003529 0.012684 -0.005841 0.000000 0.000000 0.000000
# 3 0.000279 -0.005841 0.012255 0.000000 0.000000 0.000000
# 4 0.000000 0.000000 0.000000 -0.052478 0.000000 0.000000
# 5 0.000000 0.000000 0.000000 0.000000 0.035969 0.000000
# 6 0.000000 0.000000 0.000000 0.000000 0.000000 0.029522
#
#
# Mechanical properties :
#
#
# Convention : Reuss Voigt Hill
#
# Bulk Modulus (GPa) = 55.28756 57.61745 56.45250
# Shear Modulus (GPa) = 68.03416 22.99135 45.51276
#
# Velocity S-wave (km/s) = 5.95312 3.46069 4.86908
# Velocity P-wave (km/s) = 8.72081 6.78100 7.81135
#
# Compressibility (1/GPa) = 0.01808725
#
# Stress axis : x y z
#
# Youngs Moduli (GPa) = 88.25866 78.83965 81.60002
#
# Poissons Ratio (x) = 0.27819 -0.02276
# Poissons Ratio (y) = 0.31142 0.47666
# Poissons Ratio (z) = -0.02462 0.46054
#
# Static dielectric constant tensor:
#      x y z
#    x 3.827280 0.000000 0.000000 
#    y 0.000000 3.606690 0.000000 
#    z 0.000000 0.000000 3.447080 
# 
# 
# High freq. dielectric constant tensor:
#      x y z
#    x 1.756860 0.000000 0.000000 
#    y 0.000000 1.753920 0.000000 
#    z 0.000000 0.000000 1.738240 
# 
# From -- ./inp_files/49366.got.cif
#   From: 2010.03.12/outbox.cif.g09.slc.cpg/sg74_25_cif.got.tgz:49366.got - 2010.04.16 15:46:19.
