data_PCOD8301695
_publ_section_title
;
Structure prediction by ZEFSAII (Michael W. Deem and Ramdas Pophale) SiO2 
 PCOD8301695
Probable space group: I M M A
;
_chemical_formula_sum "Si O2"
_cell_formula_units_Z 104
_cell_length_a 20.676192
_cell_length_b 24.761697
_cell_length_c 9.988005
_cell_angle_alpha 90.000000
_cell_angle_beta 90.000000
_cell_angle_gamma 90.000000
_cell_volume 5113.634843
_symmetry_space_group_name_H-M "I M M A"
_symmetry_group_IT_number 74
_symmetry_cell_setting 'orthorhombic'
loop_
_space_group_symop_operation_xyz
x,y,z
-x,1/2-y,z
x,-y,-z
-x,1/2+y,-z
-x,-y,-z
x,1/2+y,-z
-x,y,z
x,1/2-y,z
1/2+x,1/2+y,1/2+z
1/2-x,-y,1/2+z
1/2+x,1/2-y,1/2-z
1/2-x,y,1/2-z
1/2-x,1/2-y,1/2-z
1/2+x,y,1/2-z
1/2-x,1/2+y,1/2+z
1/2+x,-y,1/2+z
loop_
_atom_site_type_symbol
_atom_site_label
_atom_site_fract_x
_atom_site_fract_y
_atom_site_fract_z
Si Si1 0.364916 0.615928 0.999674
Si Si2 0.677215 0.446794 0.759908
Si Si3 0.000000 0.874022 0.379377
Si Si4 0.124594 0.943337 0.764623
Si Si5 0.750802 0.312010 0.591041
Si Si6 0.500000 0.813841 0.388372
Si Si7 0.374409 0.375920 0.531759
Si Si8 0.500000 0.004476 0.840707
O O1 0.348769 0.563236 0.090003
O O2 0.438354 0.634151 0.024870
O O3 0.317787 0.664906 0.035002
O O4 0.355190 0.600620 0.845313
O O5 0.750000 0.423805 0.750000
O O6 0.679047 0.510173 0.723605
O O7 0.629995 0.413770 0.661935
O O8 0.000000 0.827461 0.268451
O O9 0.000000 0.932172 0.304404
O O10 0.116501 0.913891 0.904433
O O11 0.060669 0.975056 0.722953
O O12 0.747487 0.250000 0.549615
O O13 0.750000 0.319539 0.750000
O O14 0.690488 0.340833 0.519499
O O15 0.500000 0.750000 0.407372
O O16 0.563830 0.837329 0.458499
O O17 0.500000 0.000000 0.000000
#
# Coordination Sequence:
#
# PCOD8301695 Si02
#       8
#    16  16   8  16  16   8  16   8
#     4  12  22  42  64  98 129 169 220 265 320 398
#     4  12  23  41  63  97 139 177 219 263 319 397
#     4  12  22  39  69  97 128 158 233 270 305 393
#     4  12  26  36  66  97 138 177 207 263 333 400
#     4  11  23  45  70  89 121 173 224 277 339 392
#     4  12  25  44  72  95 122 169 229 289 327 373
#     4  12  24  44  63 101 132 168 223 276 330 396
#     4  12  19  43  64  92 136 193 207 247 332 417
#
# _framework density 20.337783999999999
#
# number of rings (size 3 to 8) (size 9 to 14) (size 15 to 20)
#    0.000    0.154    7.692    1.846    2.154    3.077 
#    0.000    4.615    0.000    0.923    0.000    0.000 
#    0.000    0.000    0.000    0.000    0.000    0.000 
#
# Total GULP energy -645080.953128 kJ/mol
# GULP energy per Si atom -12405.402945 kJ/mol
# Density = 2.029149 g / cm^3
# Si number density = 20.337784 Si / 1000 Ang^3
#
#
#
# Elastic Constant Matrix: (Units=GPa)
#
#
# Indices 1 2 3 4 5 6 
#
# 1 138.1277 40.7174 18.8328 0.0000 0.0000 0.0000
# 2 40.7174 105.6188 26.0129 0.0000 0.0000 0.0000
# 3 18.8328 26.0129 69.3998 0.0000 0.0000 0.0000
# 4 0.0000 0.0000 0.0000 12.3548 0.0000 0.0000
# 5 0.0000 0.0000 0.0000 0.0000 20.2846 0.0000
# 6 0.0000 0.0000 0.0000 0.0000 0.0000 31.3387
#
#
#
# Elastic Compliance Matrix: (Units=1/GPa)
#
#
# Indices 1 2 3 4 5 6 
#
# 1 0.008251 -0.002897 -0.001153 0.000000 0.000000 0.000000
# 2 -0.002897 0.011448 -0.003505 0.000000 0.000000 0.000000
# 3 -0.001153 -0.003505 0.016036 0.000000 0.000000 0.000000
# 4 0.000000 0.000000 0.000000 0.080940 0.000000 0.000000
# 5 0.000000 0.000000 0.000000 0.000000 0.049298 0.000000
# 6 0.000000 0.000000 0.000000 0.000000 0.000000 0.031909
#
#
# Mechanical properties :
#
#
# Convention : Reuss Voigt Hill
#
# Bulk Modulus (GPa) = 48.48500 53.80806 51.14653
# Shear Modulus (GPa) = 22.74096 27.96782 25.35439
#
# Velocity S-wave (km/s) = 3.34752 3.71235 3.53464
# Velocity P-wave (km/s) = 6.23160 6.70000 6.47004
#
# Compressibility (1/GPa) = 0.02062494
#
# Stress axis : x y z
#
# Youngs Moduli (GPa) = 121.19995 87.35158 62.35988
#
# Poissons Ratio (x) = 0.25304 0.07191
# Poissons Ratio (y) = 0.35109 0.21857
# Poissons Ratio (z) = 0.13977 0.30616
#
# Static dielectric constant tensor:
#      x y z
#    x 3.942870 0.000000 0.000000 
#    y 0.000000 3.714980 0.000000 
#    z 0.000000 0.000000 3.605140 
# 
# 
# High freq. dielectric constant tensor:
#      x y z
#    x 1.815770 0.000000 0.000000 
#    y 0.000000 1.792400 0.000000 
#    z 0.000000 0.000000 1.779980 
# 
# From -- ./inp_files/12830.got.cif
#   From: 2010.03.12/outbox.cif.g09.slc.cpg/sg74_7_cif.got.tgz:12830.got - 2010.04.16 15:46:19.
