data_PCOD8301004
_publ_section_title
;
Structure prediction by ZEFSAII (Michael W. Deem and Ramdas Pophale) SiO2 
 PCOD8301004
Probable space group: I M M A
;
_chemical_formula_sum "Si O2"
_cell_formula_units_Z 96
_cell_length_a 8.607371
_cell_length_b 18.527944
_cell_length_c 29.718443
_cell_angle_alpha 90.000000
_cell_angle_beta 90.000000
_cell_angle_gamma 90.000000
_cell_volume 4739.404802
_symmetry_space_group_name_H-M "I M M A"
_symmetry_group_IT_number 74
_symmetry_cell_setting 'orthorhombic'
loop_
_space_group_symop_operation_xyz
x,y,z
-x,1/2-y,z
x,-y,-z
-x,1/2+y,-z
-x,-y,-z
x,1/2+y,-z
-x,y,z
x,1/2-y,z
1/2+x,1/2+y,1/2+z
1/2-x,-y,1/2+z
1/2+x,1/2-y,1/2-z
1/2-x,y,1/2-z
1/2-x,1/2-y,1/2-z
1/2+x,y,1/2-z
1/2-x,1/2+y,1/2+z
1/2+x,-y,1/2+z
loop_
_atom_site_type_symbol
_atom_site_label
_atom_site_fract_x
_atom_site_fract_y
_atom_site_fract_z
Si Si1 0.818025 0.562747 0.623287
Si Si2 0.316640 0.167922 0.202577
Si Si3 0.327231 0.665049 0.205499
Si Si4 0.318818 0.833012 0.045773
Si Si5 0.181896 0.573403 0.974704
Si Si6 0.679728 0.086538 0.627584
O O1 0.757780 0.618893 0.661090
O O2 0.722064 0.572817 0.577697
O O3 0.782898 0.482480 0.640859
O O4 0.000000 0.572919 0.613712
O O5 0.500000 0.163322 0.205984
O O6 0.260045 0.250000 0.193823
O O7 0.250000 0.138937 0.250000
O O8 0.500000 0.632545 0.199014
O O9 0.338172 0.750000 0.210444
O O10 0.250000 0.630820 0.250000
O O11 0.218135 0.648198 0.163403
O O12 0.500000 0.842675 0.056326
O O13 0.269025 0.750000 0.051011
O O14 0.219528 0.883208 0.078631
O O15 0.277834 0.859958 0.995783
O O16 0.000000 0.586912 0.980847
O O17 0.233589 0.500000 0.000000
O O18 0.500000 0.065053 0.628409
#
# Coordination Sequence:
#
# PCOD8301004 Si02
#       6
#    16  16  16  16  16  16
#     4  11  23  39  63  91 123 162 204 251 303 364
#     4   9  20  40  65  93 124 159 201 251 308 368
#     4  10  21  38  59  83 113 151 196 245 298 355
#     4  11  24  41  63  90 119 157 204 250 301 363
#     4  11  23  40  62  90 123 160 203 253 310 370
#     4  12  24  38  58  86 120 158 200 247 299 360
#
# _framework density 20.255707999999998
#
# number of rings (size 3 to 8) (size 9 to 14) (size 15 to 20)
#    0.000    1.333    1.667    4.000    0.000    7.667 
#    0.000    3.333    0.000    0.000    0.000    0.000 
#    0.000    0.000    0.000    0.000    0.000    0.000 
#
# Total GULP energy -595401.968532 kJ/mol
# GULP energy per Si atom -12404.207678 kJ/mol
# Density = 2.020961 g / cm^3
# Si number density = 20.255708 Si / 1000 Ang^3
#
#
#
# Elastic Constant Matrix: (Units=GPa)
#
#
# Indices 1 2 3 4 5 6 
#
# 1 63.7944 33.9200 30.3596 0.0000 0.0000 0.0000
# 2 33.9200 92.9001 47.4427 0.0000 0.0000 0.0000
# 3 30.3596 47.4427 131.7413 0.0000 0.0000 0.0000
# 4 0.0000 0.0000 0.0000 38.7204 0.0000 0.0000
# 5 0.0000 0.0000 0.0000 0.0000 37.4341 0.0000
# 6 0.0000 0.0000 0.0000 0.0000 0.0000 21.9020
#
#
#
# Elastic Compliance Matrix: (Units=1/GPa)
#
#
# Indices 1 2 3 4 5 6 
#
# 1 0.020069 -0.006085 -0.002434 0.000000 0.000000 0.000000
# 2 -0.006085 0.015035 -0.004012 0.000000 0.000000 0.000000
# 3 -0.002434 -0.004012 0.009596 0.000000 0.000000 0.000000
# 4 0.000000 0.000000 0.000000 0.025826 0.000000 0.000000
# 5 0.000000 0.000000 0.000000 0.000000 0.026714 0.000000
# 6 0.000000 0.000000 0.000000 0.000000 0.000000 0.045658
#
#
# Mechanical properties :
#
#
# Convention : Reuss Voigt Hill
#
# Bulk Modulus (GPa) = 50.91909 56.87560 53.89735
# Shear Modulus (GPa) = 28.65248 31.39222 30.02235
#
# Velocity S-wave (km/s) = 3.76512 3.94102 3.85407
# Velocity P-wave (km/s) = 6.64034 6.98918 6.81699
#
# Compressibility (1/GPa) = 0.01963900
#
# Stress axis : x y z
#
# Youngs Moduli (GPa) = 49.82848 66.51194 104.20686
#
# Poissons Ratio (x) = 0.40471 0.25360
# Poissons Ratio (y) = 0.30320 0.41809
# Poissons Ratio (z) = 0.12126 0.26685
#
# Static dielectric constant tensor:
#      x y z
#    x 3.670450 0.000000 0.000000 
#    y 0.000000 3.744890 0.000000 
#    z 0.000000 0.000000 3.736710 
# 
# 
# High freq. dielectric constant tensor:
#      x y z
#    x 1.796670 0.000000 0.000000 
#    y 0.000000 1.784220 0.000000 
#    z 0.000000 0.000000 1.799880 
# 
# From -- ./inp_files/64250.got.cif
#   From: 2010.03.12/outbox.cif.g09.slc.cpg/sg74_33_cif.got.tgz:64250.got - 2010.04.16 15:46:19.
