data_PCOD8301160
_publ_section_title
;
Structure prediction by ZEFSAII (Michael W. Deem and Ramdas Pophale) SiO2 
 PCOD8301160
Probable space group: I M M A
;
_chemical_formula_sum "Si O2"
_cell_formula_units_Z 88
_cell_length_a 16.268235
_cell_length_b 21.078287
_cell_length_c 11.668921
_cell_angle_alpha 90.000000
_cell_angle_beta 90.000000
_cell_angle_gamma 90.000000
_cell_volume 4001.349166
_symmetry_space_group_name_H-M "I M M A"
_symmetry_group_IT_number 74
_symmetry_cell_setting 'orthorhombic'
loop_
_space_group_symop_operation_xyz
x,y,z
-x,1/2-y,z
x,-y,-z
-x,1/2+y,-z
-x,-y,-z
x,1/2+y,-z
-x,y,z
x,1/2-y,z
1/2+x,1/2+y,1/2+z
1/2-x,-y,1/2+z
1/2+x,1/2-y,1/2-z
1/2-x,y,1/2-z
1/2-x,1/2-y,1/2-z
1/2+x,y,1/2-z
1/2-x,1/2+y,1/2+z
1/2+x,-y,1/2+z
loop_
_atom_site_type_symbol
_atom_site_label
_atom_site_fract_x
_atom_site_fract_y
_atom_site_fract_z
Si Si1 0.095285 0.593355 0.711313
Si Si2 0.093552 0.750000 0.079144
Si Si3 0.336748 0.750000 0.182343
Si Si4 0.315348 0.029547 0.828562
Si Si5 0.596266 0.374340 0.461458
Si Si6 0.811737 0.000000 0.000000
Si Si7 0.402341 0.136398 0.963316
O O1 0.130946 0.523319 0.736201
O O2 0.114411 0.633871 0.825550
O O3 0.126027 0.630138 0.596537
O O4 0.000000 0.582233 0.693086
O O5 0.135303 0.813292 0.026093
O O6 0.000000 0.750000 0.037865
O O7 0.095957 0.750000 0.216869
O O8 0.250000 0.750000 0.250000
O O9 0.349368 0.809686 0.098937
O O10 0.250000 0.070065 0.750000
O O11 0.378351 0.071256 0.901002
O O12 0.250874 0.986564 0.897626
O O13 0.500000 0.379663 0.485886
O O14 0.634278 0.437134 0.518171
O O15 0.500000 0.149365 0.951209
#
# Coordination Sequence:
#
# PCOD8301160 Si02
#       7
#    16   8   8  16  16   8  16
#     4  10  21  40  65  93 126 164 213 265 317 378
#     4  10  24  45  66  91 130 169 206 257 325 391
#     4  12  28  45  66  92 126 163 214 263 319 384
#     4  12  23  38  61  94 132 167 208 266 325 377
#     4  10  23  42  65  95 129 173 218 266 324 388
#     4  12  23  38  65  94 134 166 220 268 323 380
#     4  11  24  43  66  92 126 169 215 262 319 385
#
# _framework density 21.992581000000001
#
# number of rings (size 3 to 8) (size 9 to 14) (size 15 to 20)
#    0.000    1.091    3.636    2.182    5.091    2.182 
#    0.000    2.727    0.000    2.182    0.000    0.000 
#    0.000    0.000    0.000    0.000    0.000    0.000 
#
# Total GULP energy -545131.728491 kJ/mol
# GULP energy per Si atom -12389.357466 kJ/mol
# Density = 2.194253 g / cm^3
# Si number density = 21.992581 Si / 1000 Ang^3
#
#
#
# Elastic Constant Matrix: (Units=GPa)
#
#
# Indices 1 2 3 4 5 6 
#
# 1 54.8048 27.7461 14.7768 0.0000 0.0000 0.0000
# 2 27.7461 135.7646 33.0363 0.0000 0.0000 0.0000
# 3 14.7768 33.0363 83.9455 0.0000 0.0000 0.0000
# 4 0.0000 0.0000 0.0000 38.0595 0.0000 0.0000
# 5 0.0000 0.0000 0.0000 0.0000 30.5064 0.0000
# 6 0.0000 0.0000 0.0000 0.0000 0.0000 17.7702
#
#
#
# Elastic Compliance Matrix: (Units=1/GPa)
#
#
# Indices 1 2 3 4 5 6 
#
# 1 0.020710 -0.003700 -0.002190 0.000000 0.000000 0.000000
# 2 -0.003700 0.008807 -0.002815 0.000000 0.000000 0.000000
# 3 -0.002190 -0.002815 0.013406 0.000000 0.000000 0.000000
# 4 0.000000 0.000000 0.000000 0.026275 0.000000 0.000000
# 5 0.000000 0.000000 0.000000 0.000000 0.032780 0.000000
# 6 0.000000 0.000000 0.000000 0.000000 0.000000 0.056274
#
#
# Mechanical properties :
#
#
# Convention : Reuss Voigt Hill
#
# Bulk Modulus (GPa) = 39.19322 47.29258 43.24290
# Shear Modulus (GPa) = 27.14983 30.53094 28.84038
#
# Velocity S-wave (km/s) = 3.51736 3.72995 3.62521
# Velocity P-wave (km/s) = 5.86136 6.33250 6.10148
#
# Compressibility (1/GPa) = 0.02551462
#
# Stress axis : x y z
#
# Youngs Moduli (GPa) = 48.28587 113.55024 74.59587
#
# Poissons Ratio (x) = 0.42010 0.16333
# Poissons Ratio (y) = 0.17864 0.20996
# Poissons Ratio (z) = 0.10572 0.31959
#
# Static dielectric constant tensor:
#      x y z
#    x 4.007290 0.000000 0.000000 
#    y 0.000000 3.826750 0.000000 
#    z 0.000000 0.000000 4.869430 
# 
# 
# High freq. dielectric constant tensor:
#      x y z
#    x 1.870150 0.000000 0.000000 
#    y 0.000000 1.847850 0.000000 
#    z 0.000000 0.000000 1.881550 
# 
# From -- ./inp_files/22259.got.cif
#   From: 2010.03.12/outbox.cif.g09.slc.cpg/sg74_12_cif.got.tgz:22259.got - 2010.04.16 15:46:19.
