data_PCOD8301871
_publ_section_title
;
Structure prediction by ZEFSAII (Michael W. Deem and Ramdas Pophale) SiO2 
 PCOD8301871
Probable space group: P 41
;
_chemical_formula_sum "Si O2"
_cell_formula_units_Z 32
_cell_length_a 12.077223
_cell_length_b 12.077223
_cell_length_c 11.916288
_cell_angle_alpha 90.000000
_cell_angle_beta 90.000000
_cell_angle_gamma 90.000000
_cell_volume 1738.101610
_symmetry_space_group_name_H-M "P 41"
_symmetry_group_IT_number 76
_symmetry_cell_setting 'tetragonal'
loop_
_space_group_symop_operation_xyz
x,y,z
-y,x,1/4+z
-x,-y,1/2+z
y,-x,3/4+z
loop_
_atom_site_type_symbol
_atom_site_label
_atom_site_fract_x
_atom_site_fract_y
_atom_site_fract_z
Si Si1 0.262094 0.908885 0.870270
Si Si2 0.905485 0.225638 0.483283
Si Si3 0.580477 0.131826 0.557349
Si Si4 0.835914 0.775030 0.954575
Si Si5 0.155969 0.702268 0.607522
Si Si6 0.879957 0.665592 0.371454
Si Si7 0.421027 0.127558 0.075985
Si Si8 0.868303 0.343050 0.857061
O O1 0.139603 0.861245 0.890770
O O2 0.311854 0.884725 0.751674
O O3 0.247569 0.038548 0.896084
O O4 0.345108 0.839407 0.950356
O O5 0.858394 0.202865 0.606855
O O6 0.863240 0.345245 0.437721
O O7 0.036676 0.207185 0.487788
O O8 0.646906 0.175753 0.666611
O O9 0.456438 0.180968 0.553248
O O10 0.566078 0.000934 0.552209
O O11 0.759453 0.795362 0.063190
O O12 0.242170 0.797745 0.572841
O O13 0.191965 0.626387 0.714697
O O14 0.139706 0.636190 0.491136
O O15 0.826655 0.544404 0.349985
O O16 0.003658 0.677811 0.320675
#
# Coordination Sequence:
#
# PCOD8301871 Si02
#       8
#     4   4   4   4   4   4   4   4
#     4   9  18  34  57  77 112 147 179 222 281 339
#     4  10  20  36  54  81 114 147 181 224 283 332
#     4   8  18  37  53  76 108 147 185 226 274 322
#     4  10  22  35  55  84 112 148 184 229 277 337
#     4  10  20  35  52  83 112 144 181 226 287 328
#     4  10  20  33  55  84 110 146 188 231 268 335
#     4   9  18  35  55  79 106 147 192 228 268 324
#     4  10  22  35  53  84 112 148 186 226 278 335
#
# _framework density 18.410890999999999
#
# number of rings (size 3 to 8) (size 9 to 14) (size 15 to 20)
#    0.000    2.500    1.250    0.750    3.500    2.000 
#    4.500    0.000    0.000    0.000   19.500    0.000 
#    0.000    0.000    0.000    0.000    0.000    0.000 
#
# Total GULP energy -396467.943654 kJ/mol
# GULP energy per Si atom -12389.623239 kJ/mol
# Density = 1.836899 g / cm^3
# Si number density = 18.410891 Si / 1000 Ang^3
#
#
#
# Elastic Constant Matrix: (Units=GPa)
#
#
# Indices 1 2 3 4 5 6 
#
# 1 84.4892 29.7669 15.0872 0.0000 0.0000 -1.7221
# 2 29.7669 84.4892 15.0872 0.0000 0.0000 1.7221
# 3 15.0872 15.0872 58.4610 0.0000 0.0000 0.0000
# 4 0.0000 0.0000 0.0000 20.7279 0.0000 0.0000
# 5 0.0000 0.0000 0.0000 0.0000 20.7279 0.0000
# 6 -1.7221 1.7221 0.0000 0.0000 0.0000 12.0524
#
#
#
# Elastic Compliance Matrix: (Units=1/GPa)
#
#
# Indices 1 2 3 4 5 6 
#
# 1 0.013916 -0.004524 -0.002424 0.000000 0.000000 0.002635
# 2 -0.004524 0.013916 -0.002424 0.000000 0.000000 -0.002635
# 3 -0.002424 -0.002424 0.018357 0.000000 0.000000 0.000000
# 4 0.000000 0.000000 0.000000 0.048244 0.000000 0.000000
# 5 0.000000 0.000000 0.000000 0.000000 0.048244 0.000000
# 6 0.002635 -0.002635 0.000000 0.000000 0.000000 0.083724
#
#
# Mechanical properties :
#
#
# Convention : Reuss Voigt Hill
#
# Bulk Modulus (GPa) = 36.43569 38.59136 37.51352
# Shear Modulus (GPa) = 19.66233 21.86815 20.76524
#
# Velocity S-wave (km/s) = 3.27153 3.45016 3.36203
# Velocity P-wave (km/s) = 5.83985 6.07274 5.95743
#
# Compressibility (1/GPa) = 0.02744562
#
# Stress axis : x y z
#
# Youngs Moduli (GPa) = 71.85885 71.85885 54.47658
#
# Poissons Ratio (x) = 0.32507 0.13205
# Poissons Ratio (y) = 0.32507 0.13205
# Poissons Ratio (z) = 0.17418 0.17418
#
# Static dielectric constant tensor:
#      x y z
#    x 3.497290 0.000000 0.000000 
#    y 0.000000 3.497290 0.000000 
#    z 0.000000 0.000000 3.447050 
# 
# 
# High freq. dielectric constant tensor:
#      x y z
#    x 1.694870 0.000000 0.000000 
#    y 0.000000 1.694870 0.000000 
#    z 0.000000 0.000000 1.719740 
# 
# From -- ./inp_files/935.got.cif
#   From: 2010.03.12/outbox.cif.g09.slc.cpg/sg76_cif.got.tgz:935.got - 2010.04.16 16:34:25.
