data_PCOD8301016
_publ_section_title
;
Structure prediction by ZEFSAII (Michael W. Deem and Ramdas Pophale) SiO2 
 PCOD8301016
Probable space group: I M M A
;
_chemical_formula_sum "Si O2"
_cell_formula_units_Z 88
_cell_length_a 23.827579
_cell_length_b 7.463288
_cell_length_c 26.231676
_cell_angle_alpha 90.000000
_cell_angle_beta 90.000000
_cell_angle_gamma 90.000000
_cell_volume 4664.833621
_symmetry_space_group_name_H-M "I M M A"
_symmetry_group_IT_number 74
_symmetry_cell_setting 'orthorhombic'
loop_
_space_group_symop_operation_xyz
x,y,z
-x,1/2-y,z
x,-y,-z
-x,1/2+y,-z
-x,-y,-z
x,1/2+y,-z
-x,y,z
x,1/2-y,z
1/2+x,1/2+y,1/2+z
1/2-x,-y,1/2+z
1/2+x,1/2-y,1/2-z
1/2-x,y,1/2-z
1/2-x,1/2-y,1/2-z
1/2+x,y,1/2-z
1/2-x,1/2+y,1/2+z
1/2+x,-y,1/2+z
loop_
_atom_site_type_symbol
_atom_site_label
_atom_site_fract_x
_atom_site_fract_y
_atom_site_fract_z
Si Si1 0.435489 0.750000 0.883881
Si Si2 0.646104 0.451844 0.632414
Si Si3 0.312512 0.549589 0.253786
Si Si4 0.393084 0.750000 0.774015
Si Si5 0.935309 0.750000 0.839734
Si Si6 0.260599 0.541713 0.443097
Si Si7 0.865810 0.539176 0.441985
O O1 0.500000 0.750000 0.901189
O O2 0.433902 0.750000 0.822351
O O3 0.406291 0.570699 0.904889
O O4 0.628721 0.250000 0.615712
O O5 0.673259 0.450803 0.687362
O O6 0.591076 0.574742 0.633791
O O7 0.692607 0.539242 0.594711
O O8 0.316286 0.750000 0.230529
O O9 0.250000 0.472102 0.250000
O O10 0.354403 0.425893 0.222014
O O11 0.427856 0.750000 0.721444
O O12 0.000000 0.750000 0.853563
O O13 0.280727 0.500000 0.500000
O O14 0.257564 0.750000 0.432527
O O15 0.197911 0.465757 0.433407
O O16 0.883685 0.500000 0.500000
O O17 0.871838 0.750000 0.429952
#
# Coordination Sequence:
#
# PCOD8301016 Si02
#       7
#     8  16  16   8   8  16  16
#     4  12  27  40  58  82 112 156 200 244 285 325
#     4   9  19  34  53  85 113 142 184 225 279 337
#     4   9  18  33  54  81 115 146 177 223 287 351
#     4  10  22  38  54  82 112 145 193 240 283 326
#     4  10  21  38  60  78 108 154 198 233 267 327
#     4   9  19  33  56  87 116 142 175 227 287 345
#     4  10  21  41  61  84 112 147 191 235 288 345
#
# _framework density 18.864552
#
# number of rings (size 3 to 8) (size 9 to 14) (size 15 to 20)
#    0.000    2.364    0.909    0.545    5.091    1.818 
#    0.000    0.000    0.000    3.818    0.000    0.000 
#    0.000    0.000    0.000    0.000    0.000    0.000 
#
# Total GULP energy -545536.013196 kJ/mol
# GULP energy per Si atom -12398.545754 kJ/mol
# Density = 1.882162 g / cm^3
# Si number density = 18.864552 Si / 1000 Ang^3
#
#
#
# Elastic Constant Matrix: (Units=GPa)
#
#
# Indices 1 2 3 4 5 6 
#
# 1 134.6572 51.7776 45.2641 0.0000 0.0000 0.0000
# 2 51.7776 97.2833 30.5324 0.0000 0.0000 0.0000
# 3 45.2641 30.5324 70.1118 0.0000 0.0000 0.0000
# 4 0.0000 0.0000 0.0000 16.3852 0.0000 0.0000
# 5 0.0000 0.0000 0.0000 0.0000 24.3667 0.0000
# 6 0.0000 0.0000 0.0000 0.0000 0.0000 30.7106
#
#
#
# Elastic Compliance Matrix: (Units=1/GPa)
#
#
# Indices 1 2 3 4 5 6 
#
# 1 0.010731 -0.004097 -0.005143 0.000000 0.000000 0.000000
# 2 -0.004097 0.013471 -0.003221 0.000000 0.000000 0.000000
# 3 -0.005143 -0.003221 0.018986 0.000000 0.000000 0.000000
# 4 0.000000 0.000000 0.000000 0.061031 0.000000 0.000000
# 5 0.000000 0.000000 0.000000 0.000000 0.041040 0.000000
# 6 0.000000 0.000000 0.000000 0.000000 0.000000 0.032562
#
#
# Mechanical properties :
#
#
# Convention : Reuss Voigt Hill
#
# Bulk Modulus (GPa) = 54.75170 61.91117 58.33144
# Shear Modulus (GPa) = 23.94274 25.92439 24.93356
#
# Velocity S-wave (km/s) = 3.56644 3.71109 3.63948
# Velocity P-wave (km/s) = 6.78571 7.15912 6.97492
#
# Compressibility (1/GPa) = 0.01826427
#
# Stress axis : x y z
#
# Youngs Moduli (GPa) = 93.19217 74.23472 52.66930
#
# Poissons Ratio (x) = 0.30413 0.27090
# Poissons Ratio (y) = 0.38180 0.16967
# Poissons Ratio (z) = 0.47933 0.23914
#
# Static dielectric constant tensor:
#      x y z
#    x 3.336730 0.000000 0.000000 
#    y 0.000000 4.051360 0.000000 
#    z 0.000000 0.000000 3.350620 
# 
# 
# High freq. dielectric constant tensor:
#      x y z
#    x 1.714080 0.000000 0.000000 
#    y 0.000000 1.742480 0.000000 
#    z 0.000000 0.000000 1.723270 
# 
# From -- ./inp_files/61462.got.cif
#   From: 2010.03.12/outbox.cif.g09.slc.cpg/sg74_31_cif.got.tgz:61462.got - 2010.04.16 15:46:19.
