data_PCOD8301591
_publ_section_title
;
Structure prediction by ZEFSAII (Michael W. Deem and Ramdas Pophale) SiO2 
 PCOD8301591
Probable space group: I M M A
;
_chemical_formula_sum "Si O2"
_cell_formula_units_Z 64
_cell_length_a 27.879217
_cell_length_b 14.062529
_cell_length_c 8.681189
_cell_angle_alpha 90.000000
_cell_angle_beta 90.000000
_cell_angle_gamma 90.000000
_cell_volume 3403.480093
_symmetry_space_group_name_H-M "I M M A"
_symmetry_group_IT_number 74
_symmetry_cell_setting 'orthorhombic'
loop_
_space_group_symop_operation_xyz
x,y,z
-x,1/2-y,z
x,-y,-z
-x,1/2+y,-z
-x,-y,-z
x,1/2+y,-z
-x,y,z
x,1/2-y,z
1/2+x,1/2+y,1/2+z
1/2-x,-y,1/2+z
1/2+x,1/2-y,1/2-z
1/2-x,y,1/2-z
1/2-x,1/2-y,1/2-z
1/2+x,y,1/2-z
1/2-x,1/2+y,1/2+z
1/2+x,-y,1/2+z
loop_
_atom_site_type_symbol
_atom_site_label
_atom_site_fract_x
_atom_site_fract_y
_atom_site_fract_z
Si Si1 0.881445 0.479526 0.326730
Si Si2 0.945531 0.857211 0.872353
Si Si3 0.860015 0.357798 0.902768
Si Si4 0.801787 0.861990 0.799535
O O1 0.895939 0.500000 0.500000
O O2 0.929200 0.435664 0.251056
O O3 0.860270 0.573298 0.243297
O O4 0.839410 0.401769 0.323520
O O5 0.940566 0.750000 0.804118
O O6 0.000000 0.878880 0.921431
O O7 0.912477 0.866537 0.022302
O O8 0.849957 0.250000 0.847149
O O9 0.819159 0.390090 0.026948
O O10 0.802409 0.750000 0.782989
O O11 0.750000 0.903341 0.750000
#
# Coordination Sequence:
#
# PCOD8301591 Si02
#       4
#    16  16  16  16
#     4  11  22  32  50  78 109 141 169 205 255 312
#     4   9  18  35  57  76  97 131 175 219 260 303
#     4   9  19  35  54  76 102 135 174 213 254 302
#     4   9  18  35  57  77  99 131 173 218 259 300
#
# _framework density 18.804281
#
# number of rings (size 3 to 8) (size 9 to 14) (size 15 to 20)
#    0.000    2.500    0.000    5.250    0.000    6.500 
#    0.000    0.000    0.000    8.250    0.000    0.000 
#    0.000    0.000    0.000    0.000    0.000    0.000 
#
# Total GULP energy -396658.332720 kJ/mol
# GULP energy per Si atom -12395.572898 kJ/mol
# Density = 1.876148 g / cm^3
# Si number density = 18.804281 Si / 1000 Ang^3
#
#
#
# Elastic Constant Matrix: (Units=GPa)
#
#
# Indices 1 2 3 4 5 6 
#
# 1 119.0532 16.4702 20.5618 0.0000 0.0000 0.0000
# 2 16.4702 57.8634 38.5611 0.0000 0.0000 0.0000
# 3 20.5618 38.5611 81.5483 0.0000 0.0000 0.0000
# 4 0.0000 0.0000 0.0000 17.5852 0.0000 0.0000
# 5 0.0000 0.0000 0.0000 0.0000 8.2689 0.0000
# 6 0.0000 0.0000 0.0000 0.0000 0.0000 23.6072
#
#
#
# Elastic Compliance Matrix: (Units=1/GPa)
#
#
# Indices 1 2 3 4 5 6 
#
# 1 0.008872 -0.001510 -0.001523 0.000000 0.000000 0.000000
# 2 -0.001510 0.025491 -0.011673 0.000000 0.000000 0.000000
# 3 -0.001523 -0.011673 0.018166 0.000000 0.000000 0.000000
# 4 0.000000 0.000000 0.000000 0.056866 0.000000 0.000000
# 5 0.000000 0.000000 0.000000 0.000000 0.120935 0.000000
# 6 0.000000 0.000000 0.000000 0.000000 0.000000 0.042360
#
#
# Mechanical properties :
#
#
# Convention : Reuss Voigt Hill
#
# Bulk Modulus (GPa) = 43.25854 45.51677 44.38766
# Shear Modulus (GPa) = 16.13905 22.08372 19.11138
#
# Velocity S-wave (km/s) = 2.93279 3.43067 3.19145
# Velocity P-wave (km/s) = 5.87562 6.32066 6.10220
#
# Compressibility (1/GPa) = 0.02311682
#
# Stress axis : x y z
#
# Youngs Moduli (GPa) = 112.71997 39.22956 55.04713
#
# Poissons Ratio (x) = 0.05925 0.08382
# Poissons Ratio (y) = 0.17026 0.64256
# Poissons Ratio (z) = 0.17163 0.45792
#
# Static dielectric constant tensor:
#      x y z
#    x 3.694480 0.000000 0.000000 
#    y 0.000000 3.685610 0.000000 
#    z 0.000000 0.000000 3.107090 
# 
# 
# High freq. dielectric constant tensor:
#      x y z
#    x 1.730230 0.000000 0.000000 
#    y 0.000000 1.747110 0.000000 
#    z 0.000000 0.000000 1.691930 
# 
# From -- ./inp_files/8814.got.cif
#   From: 2010.03.12/outbox.cif.g09.slc.cpg/sg74_5_cif.got.tgz:8814.got - 2010.04.16 15:46:19.
