data_PCOD8301123
_publ_section_title
;
Structure prediction by ZEFSAII (Michael W. Deem and Ramdas Pophale) SiO2 
 PCOD8301123
Probable space group: I M M A
;
_chemical_formula_sum "Si O2"
_cell_formula_units_Z 72
_cell_length_a 17.772733
_cell_length_b 8.798374
_cell_length_c 23.312421
_cell_angle_alpha 90.000000
_cell_angle_beta 90.000000
_cell_angle_gamma 90.000000
_cell_volume 3645.390126
_symmetry_space_group_name_H-M "I M M A"
_symmetry_group_IT_number 74
_symmetry_cell_setting 'orthorhombic'
loop_
_space_group_symop_operation_xyz
x,y,z
-x,1/2-y,z
x,-y,-z
-x,1/2+y,-z
-x,-y,-z
x,1/2+y,-z
-x,y,z
x,1/2-y,z
1/2+x,1/2+y,1/2+z
1/2-x,-y,1/2+z
1/2+x,1/2-y,1/2-z
1/2-x,y,1/2-z
1/2-x,1/2-y,1/2-z
1/2+x,y,1/2-z
1/2-x,1/2+y,1/2+z
1/2+x,-y,1/2+z
loop_
_atom_site_type_symbol
_atom_site_label
_atom_site_fract_x
_atom_site_fract_y
_atom_site_fract_z
Si Si1 0.783732 0.069620 0.062828
Si Si2 0.916043 0.571052 0.855203
Si Si3 0.666333 0.076855 0.748615
Si Si4 0.000000 0.570852 0.561909
Si Si5 0.641108 0.424422 0.879239
O O1 0.773148 0.250000 0.059283
O O2 0.862520 0.021875 0.092204
O O3 0.719117 0.998964 0.102067
O O4 0.780737 0.000000 0.000000
O O5 0.917790 0.750000 0.850013
O O6 0.886863 0.511607 0.794568
O O7 0.000000 0.506693 0.867065
O O8 0.672159 0.250000 0.726876
O O9 0.750000 0.004654 0.750000
O O10 0.630356 0.065883 0.811243
O O11 0.000000 0.500000 0.500000
O O12 0.073874 0.518473 0.594305
O O13 0.000000 0.750000 0.556718
O O14 0.638720 0.250000 0.900432
#
# Coordination Sequence:
#
# PCOD8301123 Si02
#       5
#    16  16  16   8  16
#     4  11  23  40  63  89 120 160 207 254 307 365
#     4  10  23  41  61  90 126 162 203 253 306 363
#     4  10  21  39  63  91 121 156 199 247 300 360
#     4  12  26  44  64  90 126 164 207 252 307 364
#     4  11  23  41  64  91 125 161 204 252 305 365
#
# _framework density 19.750972000000001
#
# number of rings (size 3 to 8) (size 9 to 14) (size 15 to 20)
#    0.000    1.333    2.222    3.000    1.556    4.000 
#    0.000    0.000    0.000    0.000    0.000    0.000 
#    0.000    0.000    0.000    0.000    0.000    0.000 
#
# Total GULP energy -446537.496497 kJ/mol
# GULP energy per Si atom -12403.819347 kJ/mol
# Density = 1.970602 g / cm^3
# Si number density = 19.750972 Si / 1000 Ang^3
#
#
#
# Elastic Constant Matrix: (Units=GPa)
#
#
# Indices 1 2 3 4 5 6 
#
# 1 108.5528 37.8579 5.0836 0.0000 0.0000 0.0000
# 2 37.8579 81.4659 24.1527 0.0000 0.0000 0.0000
# 3 5.0836 24.1527 67.8534 0.0000 0.0000 0.0000
# 4 0.0000 0.0000 0.0000 35.0451 0.0000 0.0000
# 5 0.0000 0.0000 0.0000 0.0000 12.0953 0.0000
# 6 0.0000 0.0000 0.0000 0.0000 0.0000 38.2104
#
#
#
# Elastic Compliance Matrix: (Units=1/GPa)
#
#
# Indices 1 2 3 4 5 6 
#
# 1 0.011069 -0.005476 0.001120 0.000000 0.000000 0.000000
# 2 -0.005476 0.016432 -0.005439 0.000000 0.000000 0.000000
# 3 0.001120 -0.005439 0.016590 0.000000 0.000000 0.000000
# 4 0.000000 0.000000 0.000000 0.028535 0.000000 0.000000
# 5 0.000000 0.000000 0.000000 0.000000 0.082677 0.000000
# 6 0.000000 0.000000 0.000000 0.000000 0.000000 0.026171
#
#
# Mechanical properties :
#
#
# Convention : Reuss Voigt Hill
#
# Bulk Modulus (GPa) = 40.81397 43.56226 42.18812
# Shear Modulus (GPa) = 23.89704 29.78869 26.84287
#
# Velocity S-wave (km/s) = 3.48216 3.88779 3.69055
# Velocity P-wave (km/s) = 6.07259 6.50052 6.29020
#
# Compressibility (1/GPa) = 0.02450142
#
# Stress axis : x y z
#
# Youngs Moduli (GPa) = 90.33870 60.85560 60.27818
#
# Poissons Ratio (x) = 0.33325 -0.06751
# Poissons Ratio (y) = 0.49470 0.32785
# Poissons Ratio (z) = -0.10117 0.33099
#
# Static dielectric constant tensor:
#      x y z
#    x 2.921390 0.000000 0.000000 
#    y 0.000000 3.693900 0.000000 
#    z 0.000000 0.000000 3.615660 
# 
# 
# High freq. dielectric constant tensor:
#      x y z
#    x 1.783270 0.000000 0.000000 
#    y 0.000000 1.773150 0.000000 
#    z 0.000000 0.000000 1.780190 
# 
# From -- ./inp_files/56650.got.cif
#   From: 2010.03.12/outbox.cif.g09.slc.cpg/sg74_29_cif.got.tgz:56650.got - 2010.04.16 15:46:19.
