data_PCOD8301747
_publ_section_title
;
Structure prediction by ZEFSAII (Michael W. Deem and Ramdas Pophale) SiO2 
 PCOD8301747
Probable space group: I M M A
;
_chemical_formula_sum "Si O2"
_cell_formula_units_Z 60
_cell_length_a 22.931899
_cell_length_b 13.394170
_cell_length_c 8.862636
_cell_angle_alpha 90.000000
_cell_angle_beta 90.000000
_cell_angle_gamma 90.000000
_cell_volume 2722.191914
_symmetry_space_group_name_H-M "I M M A"
_symmetry_group_IT_number 74
_symmetry_cell_setting 'orthorhombic'
loop_
_space_group_symop_operation_xyz
x,y,z
-x,1/2-y,z
x,-y,-z
-x,1/2+y,-z
-x,-y,-z
x,1/2+y,-z
-x,y,z
x,1/2-y,z
1/2+x,1/2+y,1/2+z
1/2-x,-y,1/2+z
1/2+x,1/2-y,1/2-z
1/2-x,y,1/2-z
1/2-x,1/2-y,1/2-z
1/2+x,y,1/2-z
1/2-x,1/2+y,1/2+z
1/2+x,-y,1/2+z
loop_
_atom_site_type_symbol
_atom_site_label
_atom_site_fract_x
_atom_site_fract_y
_atom_site_fract_z
Si Si1 0.500000 0.041345 0.834526
Si Si2 0.883389 0.250000 0.328202
Si Si3 0.069313 0.750000 0.010254
Si Si4 0.500000 0.750000 0.029399
Si Si5 0.194948 0.553911 0.653394
Si Si6 0.108268 0.051665 0.845710
O O1 0.500000 0.160103 0.851654
O O2 0.445132 0.998883 0.742348
O O3 0.500000 0.000000 0.000000
O O4 0.846793 0.150232 0.369894
O O5 0.942572 0.250000 0.425132
O O6 0.898180 0.250000 0.150449
O O7 0.090881 0.837016 0.118051
O O8 0.000000 0.750000 0.983240
O O9 0.215079 0.500000 0.500000
O O10 0.250000 0.591517 0.750000
O O11 0.164184 0.462184 0.740854
O O12 0.122635 0.000000 0.000000
#
# Coordination Sequence:
#
# PCOD8301747 Si02
#       6
#     8   8   8   4  16  16
#     4  12  25  38  65 103 147 185 225 287 355 417
#     4  12  25  47  75 107 147 188 233 303 364 423
#     4  12  25  43  73 113 147 184 240 288 364 434
#     4  12  24  42  66 104 144 182 226 286 360 426
#     4  12  28  51  75 105 141 189 245 297 357 426
#     4  12  24  44  70 103 146 187 238 293 353 425
#
# _framework density 22.041060000000002
#
# number of rings (size 3 to 8) (size 9 to 14) (size 15 to 20)
#    0.000    0.000    4.667    6.400    0.000    1.067 
#    0.000    1.333    0.000    0.000    0.000    0.000 
#    0.000    0.000    0.000    0.000    0.000    0.000 
#
# Total GULP energy -371925.738567 kJ/mol
# GULP energy per Si atom -12397.524619 kJ/mol
# Density = 2.199089 g / cm^3
# Si number density = 22.041060 Si / 1000 Ang^3
#
#
#
# Elastic Constant Matrix: (Units=GPa)
#
#
# Indices 1 2 3 4 5 6 
#
# 1 119.8640 22.2679 32.4311 0.0000 0.0000 0.0000
# 2 22.2679 87.3868 8.6265 0.0000 0.0000 0.0000
# 3 32.4311 8.6265 111.3593 0.0000 0.0000 0.0000
# 4 0.0000 0.0000 0.0000 35.3270 0.0000 0.0000
# 5 0.0000 0.0000 0.0000 0.0000 39.6980 0.0000
# 6 0.0000 0.0000 0.0000 0.0000 0.0000 28.2763
#
#
#
# Elastic Compliance Matrix: (Units=1/GPa)
#
#
# Indices 1 2 3 4 5 6 
#
# 1 0.009441 -0.002151 -0.002583 0.000000 0.000000 0.000000
# 2 -0.002151 0.012022 -0.000305 0.000000 0.000000 0.000000
# 3 -0.002583 -0.000305 0.009756 0.000000 0.000000 0.000000
# 4 0.000000 0.000000 0.000000 0.028307 0.000000 0.000000
# 5 0.000000 0.000000 0.000000 0.000000 0.025190 0.000000
# 6 0.000000 0.000000 0.000000 0.000000 0.000000 0.035365
#
#
# Mechanical properties :
#
#
# Convention : Reuss Voigt Hill
#
# Bulk Modulus (GPa) = 47.30087 49.47346 48.38716
# Shear Modulus (GPa) = 36.44171 37.67923 37.06047
#
# Velocity S-wave (km/s) = 4.07056 4.13910 4.10497
# Velocity P-wave (km/s) = 6.60299 6.73332 6.66848
#
# Compressibility (1/GPa) = 0.02114126
#
# Stress axis : x y z
#
# Youngs Moduli (GPa) = 105.91856 83.18396 102.50327
#
# Poissons Ratio (x) = 0.17891 0.26476
# Poissons Ratio (y) = 0.22781 0.03125
# Poissons Ratio (z) = 0.27358 0.02536
#
# Static dielectric constant tensor:
#      x y z
#    x 4.059030 0.000000 0.000000 
#    y 0.000000 3.989330 0.000000 
#    z 0.000000 0.000000 4.191280 
# 
# 
# High freq. dielectric constant tensor:
#      x y z
#    x 1.867180 0.000000 0.000000 
#    y 0.000000 1.871000 0.000000 
#    z 0.000000 0.000000 1.893290 
# 
# From -- ./inp_files/8744.got.cif
#   From: 2010.03.12/outbox.cif.g09.slc.cpg/sg74_5_cif.got.tgz:8744.got - 2010.04.16 15:46:19.
