data_PCOD8301398
_publ_section_title
;
Structure prediction by ZEFSAII (Michael W. Deem and Ramdas Pophale) SiO2 
 PCOD8301398
Probable space group: I M M A
;
_chemical_formula_sum "Si O2"
_cell_formula_units_Z 64
_cell_length_a 20.670699
_cell_length_b 10.207252
_cell_length_c 14.994026
_cell_angle_alpha 90.000000
_cell_angle_beta 90.000000
_cell_angle_gamma 90.000000
_cell_volume 3163.605045
_symmetry_space_group_name_H-M "I M M A"
_symmetry_group_IT_number 74
_symmetry_cell_setting 'orthorhombic'
loop_
_space_group_symop_operation_xyz
x,y,z
-x,1/2-y,z
x,-y,-z
-x,1/2+y,-z
-x,-y,-z
x,1/2+y,-z
-x,y,z
x,1/2-y,z
1/2+x,1/2+y,1/2+z
1/2-x,-y,1/2+z
1/2+x,1/2-y,1/2-z
1/2-x,y,1/2-z
1/2-x,1/2-y,1/2-z
1/2+x,y,1/2-z
1/2-x,1/2+y,1/2+z
1/2+x,-y,1/2+z
loop_
_atom_site_type_symbol
_atom_site_label
_atom_site_fract_x
_atom_site_fract_y
_atom_site_fract_z
Si Si1 0.637082 0.005398 0.895413
Si Si2 0.393770 0.500000 0.500000
Si Si3 0.779240 0.750000 0.345998
Si Si4 0.294868 0.250000 0.162648
Si Si5 0.691225 0.750000 0.510845
Si Si6 0.000000 0.597946 0.127526
Si Si7 0.000000 0.403476 0.662537
O O1 0.676328 0.124242 0.854632
O O2 0.561246 0.026047 0.880850
O O3 0.658942 0.876226 0.842059
O O4 0.652687 0.000000 0.000000
O O5 0.350491 0.621606 0.529208
O O6 0.436377 0.467434 0.586399
O O7 0.750000 0.750000 0.250000
O O8 0.717973 0.750000 0.411031
O O9 0.250000 0.250000 0.250000
O O10 0.251189 0.250000 0.075955
O O11 0.000000 0.750000 0.101999
O O12 0.000000 0.573719 0.232080
O O13 0.000000 0.250000 0.638561
#
# Coordination Sequence:
#
# PCOD8301398 Si02
#       7
#    16   8   8   8   8   8   8
#     4  12  24  49  68 101 138 179 227 286 342 400
#     4  11  24  40  70  92 138 173 218 276 350 393
#     4  12  26  43  76 100 136 185 236 276 330 411
#     4  12  28  45  68 102 146 175 218 282 348 411
#     4  12  24  43  68 101 132 180 222 276 338 410
#     4  10  23  45  63 102 129 172 229 288 320 406
#     4  11  26  43  75  96 127 178 242 283 323 397
#
# _framework density 20.230086
#
# number of rings (size 3 to 8) (size 9 to 14) (size 15 to 20)
#    0.000    0.500    5.000    2.625    7.000    0.500 
#    0.000    1.250    0.000    0.000    0.000    0.000 
#    0.000    0.000    0.000    0.000    0.000    0.000 
#
# Total GULP energy -397034.621117 kJ/mol
# GULP energy per Si atom -12407.331910 kJ/mol
# Density = 2.018404 g / cm^3
# Si number density = 20.230086 Si / 1000 Ang^3
#
#
#
# Elastic Constant Matrix: (Units=GPa)
#
#
# Indices 1 2 3 4 5 6 
#
# 1 138.4109 76.3961 44.1776 0.0000 0.0000 0.0000
# 2 76.3961 178.0431 40.7892 0.0000 0.0000 0.0000
# 3 44.1776 40.7892 117.6196 0.0000 0.0000 0.0000
# 4 0.0000 0.0000 0.0000 39.7360 0.0000 0.0000
# 5 0.0000 0.0000 0.0000 0.0000 29.2132 0.0000
# 6 0.0000 0.0000 0.0000 0.0000 0.0000 54.3045
#
#
#
# Elastic Compliance Matrix: (Units=1/GPa)
#
#
# Indices 1 2 3 4 5 6 
#
# 1 0.010095 -0.003762 -0.002487 0.000000 0.000000 0.000000
# 2 -0.003762 0.007503 -0.001189 0.000000 0.000000 0.000000
# 3 -0.002487 -0.001189 0.009848 0.000000 0.000000 0.000000
# 4 0.000000 0.000000 0.000000 0.025166 0.000000 0.000000
# 5 0.000000 0.000000 0.000000 0.000000 0.034231 0.000000
# 6 0.000000 0.000000 0.000000 0.000000 0.000000 0.018415
#
#
# Mechanical properties :
#
#
# Convention : Reuss Voigt Hill
#
# Bulk Modulus (GPa) = 79.55039 84.08881 81.81960
# Shear Modulus (GPa) = 40.21719 42.83147 41.52433
#
# Velocity S-wave (km/s) = 4.46352 4.60631 4.53548
# Velocity P-wave (km/s) = 8.12233 8.36345 8.24377
#
# Compressibility (1/GPa) = 0.01257065
#
# Stress axis : x y z
#
# Youngs Moduli (GPa) = 99.05833 133.27630 101.53841
#
# Poissons Ratio (x) = 0.50137 0.25254
# Poissons Ratio (y) = 0.37265 0.12074
# Poissons Ratio (z) = 0.24637 0.15848
#
# Static dielectric constant tensor:
#      x y z
#    x 3.718880 0.000000 0.000000 
#    y 0.000000 2.352120 0.000000 
#    z 0.000000 0.000000 3.688220 
# 
# 
# High freq. dielectric constant tensor:
#      x y z
#    x 1.809510 0.000000 0.000000 
#    y 0.000000 1.806380 0.000000 
#    z 0.000000 0.000000 1.795660 
# 
# From -- ./inp_files/33661.got.cif
#   From: 2010.03.12/outbox.cif.g09.slc.cpg/sg74_17_cif.got.tgz:33661.got - 2010.04.16 15:46:19.
