data_PCOD8301391
_publ_section_title
;
Structure prediction by ZEFSAII (Michael W. Deem and Ramdas Pophale) SiO2 
 PCOD8301391
Probable space group: I M M A
;
_chemical_formula_sum "Si O2"
_cell_formula_units_Z 72
_cell_length_a 8.859846
_cell_length_b 26.879550
_cell_length_c 14.554300
_cell_angle_alpha 90.000000
_cell_angle_beta 90.000000
_cell_angle_gamma 90.000000
_cell_volume 3466.087239
_symmetry_space_group_name_H-M "I M M A"
_symmetry_group_IT_number 74
_symmetry_cell_setting 'orthorhombic'
loop_
_space_group_symop_operation_xyz
x,y,z
-x,1/2-y,z
x,-y,-z
-x,1/2+y,-z
-x,-y,-z
x,1/2+y,-z
-x,y,z
x,1/2-y,z
1/2+x,1/2+y,1/2+z
1/2-x,-y,1/2+z
1/2+x,1/2-y,1/2-z
1/2-x,y,1/2-z
1/2-x,1/2-y,1/2-z
1/2+x,y,1/2-z
1/2-x,1/2+y,1/2+z
1/2+x,-y,1/2+z
loop_
_atom_site_type_symbol
_atom_site_label
_atom_site_fract_x
_atom_site_fract_y
_atom_site_fract_z
Si Si1 0.822184 0.378914 0.155418
Si Si2 0.326390 0.578025 0.335030
Si Si3 0.172461 0.334628 0.966738
Si Si4 0.677272 0.482686 0.100739
Si Si5 0.822965 0.750000 0.350992
O O1 0.750000 0.358794 0.250000
O O2 0.759396 0.432736 0.130524
O O3 0.000000 0.383840 0.168008
O O4 0.783683 0.339152 0.074445
O O5 0.500000 0.566363 0.315565
O O6 0.250000 0.608395 0.250000
O O7 0.306759 0.609949 0.427046
O O8 0.232197 0.527141 0.335253
O O9 0.279090 0.297641 0.911512
O O10 0.000000 0.316346 0.954708
O O11 0.500000 0.473818 0.109883
O O12 0.726733 0.500000 0.000000
O O13 0.750000 0.750000 0.250000
O O14 0.000000 0.750000 0.334932
#
# Coordination Sequence:
#
# PCOD8301391 Si02
#       5
#    16  16  16  16   8
#     4  11  23  41  64  91 125 167 211 258 309 365
#     4  11  22  37  58  86 120 160 204 251 305 363
#     4  10  23  43  66  91 123 161 204 255 310 367
#     4  11  22  36  57  86 122 165 210 257 304 359
#     4  12  26  44  71 100 129 160 197 248 310 376
#
# _framework density 20.772701999999999
#
# number of rings (size 3 to 8) (size 9 to 14) (size 15 to 20)
#    0.000    1.111    2.222    4.333    0.000    6.222 
#    0.000    0.556    0.000    0.000    0.000    0.000 
#    0.000    0.000    0.000    0.000    0.000    0.000 
#
# Total GULP energy -446391.728770 kJ/mol
# GULP energy per Si atom -12399.770244 kJ/mol
# Density = 2.072542 g / cm^3
# Si number density = 20.772702 Si / 1000 Ang^3
#
#
#
# Elastic Constant Matrix: (Units=GPa)
#
#
# Indices 1 2 3 4 5 6 
#
# 1 103.6102 41.8436 71.1137 0.0000 0.0000 0.0000
# 2 41.8436 79.6558 42.3944 -0.0001 0.0000 0.0000
# 3 71.1137 42.3944 169.2144 0.0002 0.0000 0.0000
# 4 0.0000 -0.0001 0.0002 22.8590 0.0000 0.0000
# 5 0.0000 0.0000 0.0000 0.0000 37.2084 0.0000
# 6 0.0000 0.0000 0.0000 0.0000 0.0000 31.2076
#
#
#
# Elastic Compliance Matrix: (Units=1/GPa)
#
#
# Indices 1 2 3 4 5 6 
#
# 1 0.015299 -0.005325 -0.005096 0.000000 0.000000 0.000000
# 2 -0.005325 0.016339 -0.001856 0.000000 0.000000 0.000000
# 3 -0.005096 -0.001856 0.008516 0.000000 0.000000 0.000000
# 4 0.000000 0.000000 0.000000 0.043746 0.000000 0.000000
# 5 0.000000 0.000000 0.000000 0.000000 0.026876 0.000000
# 6 0.000000 0.000000 0.000000 0.000000 0.000000 0.032043
#
#
# Mechanical properties :
#
#
# Convention : Reuss Voigt Hill
#
# Bulk Modulus (GPa) = 64.09441 73.68710 68.89075
# Shear Modulus (GPa) = 28.97326 31.39692 30.18509
#
# Velocity S-wave (km/s) = 3.73872 3.89196 3.81611
# Velocity P-wave (km/s) = 7.03985 7.46636 7.25624
#
# Compressibility (1/GPa) = 0.01560199
#
# Stress axis : x y z
#
# Youngs Moduli (GPa) = 65.36164 61.20398 117.42516
#
# Poissons Ratio (x) = 0.32590 0.59836
# Poissons Ratio (y) = 0.34804 0.21790
# Poissons Ratio (z) = 0.33306 0.11357
#
# Static dielectric constant tensor:
#      x y z
#    x 3.763630 0.000000 0.000000 
#    y 0.000000 3.479740 0.000000 
#    z 0.000000 0.000000 4.174570 
# 
# 
# High freq. dielectric constant tensor:
#      x y z
#    x 1.819270 0.000000 0.000000 
#    y 0.000000 1.789020 0.000000 
#    z 0.000000 0.000000 1.838600 
# 
# From -- ./inp_files/29165.got.cif
#   From: 2010.03.12/outbox.cif.g09.slc.cpg/sg74_15_cif.got.tgz:29165.got - 2010.04.16 15:46:19.
