data_PCOD8301348
_publ_section_title
;
Structure prediction by ZEFSAII (Michael W. Deem and Ramdas Pophale) SiO2 
 PCOD8301348
Probable space group: I M M A
;
_chemical_formula_sum "Si O2"
_cell_formula_units_Z 48
_cell_length_a 25.292778
_cell_length_b 10.510168
_cell_length_c 7.113414
_cell_angle_alpha 90.000000
_cell_angle_beta 90.000000
_cell_angle_gamma 90.000000
_cell_volume 1890.968418
_symmetry_space_group_name_H-M "I M M A"
_symmetry_group_IT_number 74
_symmetry_cell_setting 'orthorhombic'
loop_
_space_group_symop_operation_xyz
x,y,z
-x,1/2-y,z
x,-y,-z
-x,1/2+y,-z
-x,-y,-z
x,1/2+y,-z
-x,y,z
x,1/2-y,z
1/2+x,1/2+y,1/2+z
1/2-x,-y,1/2+z
1/2+x,1/2-y,1/2-z
1/2-x,y,1/2-z
1/2-x,1/2-y,1/2-z
1/2+x,y,1/2-z
1/2-x,1/2+y,1/2+z
1/2+x,-y,1/2+z
loop_
_atom_site_type_symbol
_atom_site_label
_atom_site_fract_x
_atom_site_fract_y
_atom_site_fract_z
Si Si1 0.225888 0.250000 0.957697
Si Si2 0.779886 0.000000 0.500000
Si Si3 0.369956 0.015166 0.722349
Si Si4 0.939929 0.250000 0.784770
Si Si5 0.113546 0.250000 0.146469
O O1 0.250000 0.250000 0.750000
O O2 0.245578 0.378057 0.062780
O O3 0.161772 0.250000 0.984913
O O4 0.814379 0.046657 0.679405
O O5 0.386755 0.871729 0.785920
O O6 0.363197 0.000000 0.500000
O O7 0.412415 0.119813 0.787889
O O8 0.000000 0.250000 0.714391
O O9 0.938102 0.250000 0.013444
#
# Coordination Sequence:
#
# PCOD8301348 Si02
#       5
#     8   8  16   8   8
#     4  12  27  41  65 103 139 187 231 272 339 412
#     4  12  26  42  71  96 141 188 222 276 356 396
#     4  10  22  43  65  96 133 171 229 281 332 414
#     4  10  22  42  71  96 130 176 225 290 348 388
#     4  10  23  39  60  93 134 169 225 280 322 412
#
# _framework density 25.383817000000001
#
# number of rings (size 3 to 8) (size 9 to 14) (size 15 to 20)
#    0.000    1.333    0.000    6.000   11.667    7.333 
#    0.000    0.833    0.000    8.000    0.000    0.000 
#    0.000    0.000    0.000    0.000    0.000    0.000 
#
# Total GULP energy -297405.335428 kJ/mol
# GULP energy per Si atom -12391.888976 kJ/mol
# Density = 2.532604 g / cm^3
# Si number density = 25.383817 Si / 1000 Ang^3
#
#
#
# Elastic Constant Matrix: (Units=GPa)
#
#
# Indices 1 2 3 4 5 6 
#
# 1 118.1916 78.4695 18.1831 0.0000 0.0000 0.0000
# 2 78.4695 262.0468 -4.6013 0.0000 0.0000 0.0000
# 3 18.1831 -4.6013 67.1744 0.0000 0.0000 0.0000
# 4 0.0000 0.0000 0.0000 12.3640 0.0000 0.0000
# 5 0.0000 0.0000 0.0000 0.0000 20.2036 0.0000
# 6 0.0000 0.0000 0.0000 0.0000 0.0000 32.7752
#
#
#
# Elastic Compliance Matrix: (Units=1/GPa)
#
#
# Indices 1 2 3 4 5 6 
#
# 1 0.011237 -0.003422 -0.003276 0.000000 0.000000 0.000000
# 2 -0.003422 0.004863 0.001260 0.000000 0.000000 0.000000
# 3 -0.003276 0.001260 0.015860 0.000000 0.000000 0.000000
# 4 0.000000 0.000000 0.000000 0.080880 0.000000 0.000000
# 5 0.000000 0.000000 0.000000 0.000000 0.049496 0.000000
# 6 0.000000 0.000000 0.000000 0.000000 0.000000 0.030511
#
#
# Mechanical properties :
#
#
# Convention : Reuss Voigt Hill
#
# Bulk Modulus (GPa) = 47.43449 70.16838 58.80144
# Shear Modulus (GPa) = 23.72450 36.75931 30.24190
#
# Velocity S-wave (km/s) = 3.06049 3.80957 3.45539
# Velocity P-wave (km/s) = 5.58715 6.85955 6.25578
#
# Compressibility (1/GPa) = 0.02108171
#
# Stress axis : x y z
#
# Youngs Moduli (GPa) = 88.99106 205.63107 63.05289
#
# Poissons Ratio (x) = 0.70376 0.20657
# Poissons Ratio (y) = 0.30457 -0.07942
# Poissons Ratio (z) = 0.29155 -0.25900
#
# Static dielectric constant tensor:
#      x y z
#    x 4.058450 0.000000 0.000000 
#    y 0.000000 7.407570 0.000000 
#    z 0.000000 0.000000 3.987960 
# 
# 
# High freq. dielectric constant tensor:
#      x y z
#    x 1.970020 0.000000 0.000000 
#    y 0.000000 2.066130 0.000000 
#    z 0.000000 0.000000 1.986770 
# 
# From -- ./inp_files/13103.got.cif
#   From: 2010.03.12/outbox.cif.g09.slc.cpg/sg74_7_cif.got.tgz:13103.got - 2010.04.16 15:46:19.
