data_PCOD8301665
_publ_section_title
;
Structure prediction by ZEFSAII (Michael W. Deem and Ramdas Pophale) SiO2 
 PCOD8301665
Probable space group: I M M A
;
_chemical_formula_sum "Si O2"
_cell_formula_units_Z 88
_cell_length_a 15.769860
_cell_length_b 15.645688
_cell_length_c 18.305531
_cell_angle_alpha 90.000000
_cell_angle_beta 90.000000
_cell_angle_gamma 90.000000
_cell_volume 4516.529327
_symmetry_space_group_name_H-M "I M M A"
_symmetry_group_IT_number 74
_symmetry_cell_setting 'orthorhombic'
loop_
_space_group_symop_operation_xyz
x,y,z
-x,1/2-y,z
x,-y,-z
-x,1/2+y,-z
-x,-y,-z
x,1/2+y,-z
-x,y,z
x,1/2-y,z
1/2+x,1/2+y,1/2+z
1/2-x,-y,1/2+z
1/2+x,1/2-y,1/2-z
1/2-x,y,1/2-z
1/2-x,1/2-y,1/2-z
1/2+x,y,1/2-z
1/2-x,1/2+y,1/2+z
1/2+x,-y,1/2+z
loop_
_atom_site_type_symbol
_atom_site_label
_atom_site_fract_x
_atom_site_fract_y
_atom_site_fract_z
Si Si1 0.667314 0.928200 0.293135
Si Si2 0.500000 0.849721 0.875262
Si Si3 0.809919 0.416367 0.964706
Si Si4 0.863146 0.847380 0.504896
Si Si5 0.094214 0.750000 0.034517
Si Si6 0.500000 0.346684 0.883677
Si Si7 0.500000 0.503325 0.232845
Si Si8 0.903945 0.250000 0.792179
O O1 0.750000 0.962494 0.250000
O O2 0.690452 0.924003 0.377804
O O3 0.644026 0.833823 0.262218
O O4 0.585542 0.989686 0.281754
O O5 0.500000 0.750000 0.851248
O O6 0.500000 0.910644 0.805081
O O7 0.583117 0.870645 0.923161
O O8 0.715688 0.410346 0.997786
O O9 0.860927 0.335010 0.994215
O O10 0.852720 0.500000 0.000000
O O11 0.830955 0.750000 0.509404
O O12 0.917576 0.860123 0.432456
O O13 0.095690 0.750000 0.121230
O O14 0.000000 0.750000 0.002779
O O15 0.500000 0.250000 0.850954
O O16 0.500000 0.418160 0.822518
O O17 0.000000 0.250000 0.763478
#
# Coordination Sequence:
#
# PCOD8301665 Si02
#       8
#    16   8  16  16   8   8   8   8
#     4  11  24  38  56  90 125 164 204 246 303 376
#     4   9  22  40  66  91 123 165 206 265 320 369
#     4  11  23  38  62  86 121 156 202 255 303 362
#     4   9  18  37  59  92 127 156 200 245 307 376
#     4   9  20  39  59  82 107 154 205 244 299 358
#     4   9  20  32  52  91 131 159 186 232 289 376
#     4  12  24  39  63  86 128 166 213 250 310 378
#     4   9  17  37  57  80 123 164 192 230 294 369
#
# _framework density 19.483988
#
# number of rings (size 3 to 8) (size 9 to 14) (size 15 to 20)
#    0.000    2.000    1.818    2.455    7.636    1.091 
#    0.000    0.000    2.000    0.545    0.000    0.000 
#    0.000    0.000    0.000    0.000    0.000    0.000 
#
# Total GULP energy -545548.387795 kJ/mol
# GULP energy per Si atom -12398.826995 kJ/mol
# Density = 1.943964 g / cm^3
# Si number density = 19.483988 Si / 1000 Ang^3
#
#
#
# Elastic Constant Matrix: (Units=GPa)
#
#
# Indices 1 2 3 4 5 6 
#
# 1 138.8145 52.9541 32.3573 0.0000 0.0000 0.0000
# 2 52.9541 118.2320 40.7431 0.0000 0.0000 0.0000
# 3 32.3573 40.7431 46.2379 0.0000 0.0000 0.0000
# 4 0.0000 0.0000 0.0000 27.9815 0.0000 0.0000
# 5 0.0000 0.0000 0.0000 0.0000 18.3257 0.0000
# 6 0.0000 0.0000 0.0000 0.0000 0.0000 11.8369
#
#
#
# Elastic Compliance Matrix: (Units=1/GPa)
#
#
# Indices 1 2 3 4 5 6 
#
# 1 0.009182 -0.002726 -0.004023 0.000000 0.000000 0.000000
# 2 -0.002726 0.012955 -0.009508 0.000000 0.000000 0.000000
# 3 -0.004023 -0.009508 0.032821 0.000000 0.000000 0.000000
# 4 0.000000 0.000000 0.000000 0.035738 0.000000 0.000000
# 5 0.000000 0.000000 0.000000 0.000000 0.054568 0.000000
# 6 0.000000 0.000000 0.000000 0.000000 0.000000 0.084482
#
#
# Mechanical properties :
#
#
# Convention : Reuss Voigt Hill
#
# Bulk Modulus (GPa) = 44.55694 61.71039 53.13366
# Shear Modulus (GPa) = 18.53627 23.44416 20.99021
#
# Velocity S-wave (km/s) = 3.08776 3.47256 3.28579
# Velocity P-wave (km/s) = 5.96913 6.91515 6.45948
#
# Compressibility (1/GPa) = 0.02244319
#
# Stress axis : x y z
#
# Youngs Moduli (GPa) = 108.91459 77.18816 30.46814
#
# Poissons Ratio (x) = 0.21040 0.12258
# Poissons Ratio (y) = 0.29688 0.28970
# Poissons Ratio (z) = 0.43820 0.73393
#
# Static dielectric constant tensor:
#      x y z
#    x 3.699880 0.000000 0.000000 
#    y 0.000000 3.525700 0.000000 
#    z 0.000000 0.000000 3.231700 
# 
# 
# High freq. dielectric constant tensor:
#      x y z
#    x 1.766090 0.000000 0.000000 
#    y 0.000000 1.750580 0.000000 
#    z 0.000000 0.000000 1.732960 
# 
# From -- ./inp_files/51804.got.cif
#   From: 2010.03.12/outbox.cif.g09.slc.cpg/sg74_26_cif.got.tgz:51804.got - 2010.04.16 15:46:19.
