data_PCOD8301718
_publ_section_title
;
Structure prediction by ZEFSAII (Michael W. Deem and Ramdas Pophale) SiO2 
 PCOD8301718
Probable space group: I M M A
;
_chemical_formula_sum "Si O2"
_cell_formula_units_Z 48
_cell_length_a 16.755520
_cell_length_b 14.123986
_cell_length_c 9.211529
_cell_angle_alpha 90.000000
_cell_angle_beta 90.000000
_cell_angle_gamma 90.000000
_cell_volume 2179.951907
_symmetry_space_group_name_H-M "I M M A"
_symmetry_group_IT_number 74
_symmetry_cell_setting 'orthorhombic'
loop_
_space_group_symop_operation_xyz
x,y,z
-x,1/2-y,z
x,-y,-z
-x,1/2+y,-z
-x,-y,-z
x,1/2+y,-z
-x,y,z
x,1/2-y,z
1/2+x,1/2+y,1/2+z
1/2-x,-y,1/2+z
1/2+x,1/2-y,1/2-z
1/2-x,y,1/2-z
1/2-x,1/2-y,1/2-z
1/2+x,y,1/2-z
1/2-x,1/2+y,1/2+z
1/2+x,-y,1/2+z
loop_
_atom_site_type_symbol
_atom_site_label
_atom_site_fract_x
_atom_site_fract_y
_atom_site_fract_z
Si Si1 0.405943 0.750000 0.035728
Si Si2 0.907695 0.560281 0.864076
Si Si3 0.842310 0.250000 0.219455
Si Si4 0.322795 0.559160 0.139983
O O1 0.500000 0.750000 0.075170
O O2 0.362614 0.658577 0.100947
O O3 0.396734 0.750000 0.862705
O O4 0.859951 0.658085 0.876043
O O5 0.890151 0.505216 0.715460
O O6 0.000000 0.584759 0.872671
O O7 0.878225 0.500000 0.000000
O O8 0.750000 0.250000 0.250000
O O9 0.250000 0.575636 0.250000
O O10 0.292777 0.500000 0.000000
#
# Coordination Sequence:
#
# PCOD8301718 Si02
#       4
#     8  16   8  16
#     4  12  27  46  74 107 146 194 244 297 359 436
#     4  11  25  45  73 103 143 189 241 299 360 431
#     4  12  26  44  72 106 146 193 239 298 365 434
#     4  12  26  45  73 106 145 189 243 300 364 428
#
# _framework density 22.018833999999998
#
# number of rings (size 3 to 8) (size 9 to 14) (size 15 to 20)
#    0.000    0.333    3.333    5.000    4.667    2.667 
#    0.000    1.667    0.000    0.000    0.000    0.000 
#    0.000    0.000    0.000    0.000    0.000    0.000 
#
# Total GULP energy -297752.103163 kJ/mol
# GULP energy per Si atom -12406.337632 kJ/mol
# Density = 2.196872 g / cm^3
# Si number density = 22.018834 Si / 1000 Ang^3
#
#
#
# Elastic Constant Matrix: (Units=GPa)
#
#
# Indices 1 2 3 4 5 6 
#
# 1 143.7105 85.2656 56.3241 0.0000 0.0000 0.0000
# 2 85.2656 222.2099 72.7456 0.0000 0.0000 0.0000
# 3 56.3241 72.7456 127.0773 0.0000 0.0000 0.0000
# 4 0.0000 0.0000 0.0000 49.7564 0.0000 0.0000
# 5 0.0000 0.0000 0.0000 0.0000 38.5247 0.0000
# 6 0.0000 0.0000 0.0000 0.0000 0.0000 31.2956
#
#
#
# Elastic Compliance Matrix: (Units=1/GPa)
#
#
# Indices 1 2 3 4 5 6 
#
# 1 0.009692 -0.002846 -0.002667 0.000000 0.000000 0.000000
# 2 -0.002846 0.006374 -0.002387 0.000000 0.000000 0.000000
# 3 -0.002667 -0.002387 0.010418 0.000000 0.000000 0.000000
# 4 0.000000 0.000000 0.000000 0.020098 0.000000 0.000000
# 5 0.000000 0.000000 0.000000 0.000000 0.025957 0.000000
# 6 0.000000 0.000000 0.000000 0.000000 0.000000 0.031953
#
#
# Mechanical properties :
#
#
# Convention : Reuss Voigt Hill
#
# Bulk Modulus (GPa) = 93.59892 102.40759 98.00326
# Shear Modulus (GPa) = 40.37026 42.49284 41.43155
#
# Velocity S-wave (km/s) = 4.28652 4.39776 4.34249
# Velocity P-wave (km/s) = 8.19145 8.50865 8.35155
#
# Compressibility (1/GPa) = 0.01068388
#
# Stress axis : x y z
#
# Youngs Moduli (GPa) = 103.17613 156.89076 95.99025
#
# Poissons Ratio (x) = 0.44652 0.25597
# Poissons Ratio (y) = 0.29365 0.22915
# Poissons Ratio (z) = 0.27513 0.37454
#
# Static dielectric constant tensor:
#      x y z
#    x 3.962010 0.000000 0.000000 
#    y 0.000000 4.243040 0.000000 
#    z 0.000000 0.000000 4.259430 
# 
# 
# High freq. dielectric constant tensor:
#      x y z
#    x 1.882700 0.000000 0.000000 
#    y 0.000000 1.886410 0.000000 
#    z 0.000000 0.000000 1.869160 
# 
# From -- ./inp_files/8116.got.cif
#   From: 2010.03.12/outbox.cif.g09.slc.cpg/sg74_5_cif.got.tgz:8116.got - 2010.04.16 15:46:19.
