data_PCOD8301854
_publ_section_title
;
Structure prediction by ZEFSAII (Michael W. Deem and Ramdas Pophale) SiO2 
 PCOD8301854
Probable space group: P 41
;
_chemical_formula_sum "Si O2"
_cell_formula_units_Z 28
_cell_length_a 12.647401
_cell_length_b 12.647401
_cell_length_c 9.897967
_cell_angle_alpha 90.000000
_cell_angle_beta 90.000000
_cell_angle_gamma 90.000000
_cell_volume 1583.246653
_symmetry_space_group_name_H-M "P 41"
_symmetry_group_IT_number 76
_symmetry_cell_setting 'tetragonal'
loop_
_space_group_symop_operation_xyz
x,y,z
-y,x,1/4+z
-x,-y,1/2+z
y,-x,3/4+z
loop_
_atom_site_type_symbol
_atom_site_label
_atom_site_fract_x
_atom_site_fract_y
_atom_site_fract_z
Si Si1 0.794222 0.440904 0.625000
Si Si2 0.109526 0.415531 0.927221
Si Si3 0.108011 0.686760 0.365153
Si Si4 0.001553 0.099334 0.806108
Si Si5 0.380334 0.204454 0.091888
Si Si6 0.803364 0.217871 0.125750
Si Si7 0.418675 0.444861 0.079424
O O1 0.869667 0.539667 0.579466
O O2 0.827626 0.385169 0.761800
O O3 0.797441 0.353852 0.502928
O O4 0.677656 0.487747 0.640835
O O5 0.140735 0.508625 0.820309
O O6 0.185911 0.317837 0.894934
O O7 0.988185 0.383752 0.918621
O O8 0.185550 0.714863 0.488259
O O9 0.066283 0.793372 0.293735
O O10 0.116167 0.121510 0.870201
O O11 0.014161 0.053767 0.654917
O O12 0.390498 0.324884 0.045525
O O13 0.287215 0.153918 0.002119
O O14 0.511750 0.456019 0.186167
#
# Coordination Sequence:
#
# PCOD8301854 Si02
#       7
#     4   4   4   4   4   4   4
#     4   9  20  34  52  76 112 141 177 229 263 316
#     4   9  20  35  57  75 119 140 184 223 275 332
#     4  10  21  35  57  81 109 143 183 236 272 324
#     4   9  20  37  58  81 108 139 182 232 283 329
#     4   9  18  33  55  77 112 149 175 216 273 323
#     4  10  18  36  58  82 105 151 184 222 276 335
#     4  10  19  34  53  78 109 147 177 220 266 323
#
# _framework density 17.685179000000002
#
# number of rings (size 3 to 8) (size 9 to 14) (size 15 to 20)
#    0.857    1.714    1.429    0.000    2.000    3.429 
#    0.000    1.429    6.286    0.000    0.000    0.000 
#    0.000    0.000    0.000    0.000    0.000    0.000 
#
# Total GULP energy -346962.850868 kJ/mol
# GULP energy per Si atom -12391.530388 kJ/mol
# Density = 1.764493 g / cm^3
# Si number density = 17.685179 Si / 1000 Ang^3
#
#
#
# Elastic Constant Matrix: (Units=GPa)
#
#
# Indices 1 2 3 4 5 6 
#
# 1 49.0563 3.1633 10.9279 0.0000 0.0000 1.2154
# 2 3.1633 49.0563 10.9279 0.0000 0.0000 -1.2154
# 3 10.9279 10.9279 45.5927 0.0000 0.0000 0.0000
# 4 0.0000 0.0000 0.0000 33.3224 0.0000 0.0000
# 5 0.0000 0.0000 0.0000 0.0000 33.3224 0.0000
# 6 1.2154 -1.2154 0.0000 0.0000 0.0000 13.1871
#
#
#
# Elastic Compliance Matrix: (Units=1/GPa)
#
#
# Indices 1 2 3 4 5 6 
#
# 1 0.021591 -0.000306 -0.005102 0.000000 0.000000 -0.002018
# 2 -0.000306 0.021591 -0.005102 0.000000 0.000000 0.002018
# 3 -0.005102 -0.005102 0.024379 0.000000 0.000000 0.000000
# 4 0.000000 0.000000 0.000000 0.030010 0.000000 0.000000
# 5 0.000000 0.000000 0.000000 0.000000 0.030010 0.000000
# 6 -0.002018 0.002018 0.000000 0.000000 0.000000 0.076204
#
#
# Mechanical properties :
#
#
# Convention : Reuss Voigt Hill
#
# Bulk Modulus (GPa) = 21.48582 21.52705 21.50644
# Shear Modulus (GPa) = 20.80588 23.87881 22.34234
#
# Velocity S-wave (km/s) = 3.43368 3.67851 3.55820
# Velocity P-wave (km/s) = 5.28163 5.49916 5.39149
#
# Compressibility (1/GPa) = 0.04654233
#
# Stress axis : x y z
#
# Youngs Moduli (GPa) = 46.31570 46.31570 41.01904
#
# Poissons Ratio (x) = 0.01416 0.20927
# Poissons Ratio (y) = 0.01416 0.20927
# Poissons Ratio (z) = 0.23629 0.23629
#
# Static dielectric constant tensor:
#      x y z
#    x 3.254880 0.000000 0.000000 
#    y 0.000000 3.254880 0.000000 
#    z 0.000000 0.000000 3.126890 
# 
# 
# High freq. dielectric constant tensor:
#      x y z
#    x 1.681720 0.000000 0.000000 
#    y 0.000000 1.681720 0.000000 
#    z 0.000000 0.000000 1.670780 
# 
# From -- ./inp_files/921.got.cif
#   From: 2010.03.12/outbox.cif.g09.slc.cpg/sg76_cif.got.tgz:921.got - 2010.04.16 16:34:25.
