data_PCOD8301169
_publ_section_title
;
Structure prediction by ZEFSAII (Michael W. Deem and Ramdas Pophale) SiO2 
 PCOD8301169
Probable space group: I M M A
;
_chemical_formula_sum "Si O2"
_cell_formula_units_Z 72
_cell_length_a 14.609464
_cell_length_b 9.601725
_cell_length_c 27.385471
_cell_angle_alpha 90.000000
_cell_angle_beta 90.000000
_cell_angle_gamma 90.000000
_cell_volume 3841.525856
_symmetry_space_group_name_H-M "I M M A"
_symmetry_group_IT_number 74
_symmetry_cell_setting 'orthorhombic'
loop_
_space_group_symop_operation_xyz
x,y,z
-x,1/2-y,z
x,-y,-z
-x,1/2+y,-z
-x,-y,-z
x,1/2+y,-z
-x,y,z
x,1/2-y,z
1/2+x,1/2+y,1/2+z
1/2-x,-y,1/2+z
1/2+x,1/2-y,1/2-z
1/2-x,y,1/2-z
1/2-x,1/2-y,1/2-z
1/2+x,y,1/2-z
1/2-x,1/2+y,1/2+z
1/2+x,-y,1/2+z
loop_
_atom_site_type_symbol
_atom_site_label
_atom_site_fract_x
_atom_site_fract_y
_atom_site_fract_z
Si Si1 0.368571 0.411944 0.378909
Si Si2 0.500000 0.923468 0.447643
Si Si3 0.894841 0.250000 0.461475
Si Si4 0.500000 0.088251 0.295110
Si Si5 0.000000 0.586956 0.687882
Si Si6 0.659886 0.028013 0.114950
Si Si7 0.889908 0.750000 0.430506
O O1 0.391636 0.250000 0.392749
O O2 0.409763 0.517697 0.419535
O O3 0.411071 0.452974 0.326586
O O4 0.261316 0.428222 0.370761
O O5 0.500000 0.750000 0.450457
O O6 0.500000 0.000000 0.500000
O O7 0.870513 0.113552 0.432085
O O8 0.848628 0.250000 0.514698
O O9 0.000000 0.250000 0.473437
O O10 0.500000 0.250000 0.284190
O O11 0.500000 0.014668 0.241729
O O12 0.092354 0.545375 0.660319
O O13 0.000000 0.750000 0.692069
O O14 0.656487 0.871922 0.098733
O O15 0.000000 0.750000 0.427180
#
# Coordination Sequence:
#
# PCOD8301169 Si02
#       7
#    16   8   8   8   8  16   8
#     4  10  21  41  63  89 123 154 199 254 305 355
#     4  11  24  42  65  90 122 163 206 252 297 354
#     4  11  20  38  56  82 116 162 202 241 288 351
#     4   8  19  37  63  90 114 150 193 257 312 355
#     4  11  19  36  63  92 118 149 203 246 303 368
#     4  12  21  37  60  86 123 157 199 247 298 356
#     4  11  24  36  54  82 124 166 202 239 296 361
#
# _framework density 18.742550999999999
#
# number of rings (size 3 to 8) (size 9 to 14) (size 15 to 20)
#    0.000    1.333    4.444    2.333    1.556    4.444 
#    0.000    3.333    9.778    1.333    0.000    0.000 
#    0.000    0.000    0.000    0.000    0.000    0.000 
#
# Total GULP energy -446111.755326 kJ/mol
# GULP energy per Si atom -12391.993203 kJ/mol
# Density = 1.869989 g / cm^3
# Si number density = 18.742551 Si / 1000 Ang^3
#
#
#
# Elastic Constant Matrix: (Units=GPa)
#
#
# Indices 1 2 3 4 5 6 
#
# 1 104.8228 19.0512 57.7910 0.0000 0.0000 0.0000
# 2 19.0512 120.7367 50.7434 0.0000 0.0000 0.0000
# 3 57.7910 50.7434 164.7474 0.0000 0.0000 0.0000
# 4 0.0000 0.0000 0.0000 9.6289 0.0000 0.0000
# 5 0.0000 0.0000 0.0000 0.0000 -7.0582 0.0000
# 6 0.0000 0.0000 0.0000 0.0000 0.0000 28.4532
#
#
#
# Elastic Compliance Matrix: (Units=1/GPa)
#
#
# Indices 1 2 3 4 5 6 
#
# 1 0.011829 -0.000141 -0.004106 0.000000 0.000000 0.000000
# 2 -0.000141 0.009516 -0.002882 0.000000 0.000000 0.000000
# 3 -0.004106 -0.002882 0.008398 0.000000 0.000000 0.000000
# 4 0.000000 0.000000 0.000000 0.103854 0.000000 0.000000
# 5 0.000000 0.000000 0.000000 0.000000 -0.141680 0.000000
# 6 0.000000 0.000000 0.000000 0.000000 0.000000 0.035145
#
#
# Mechanical properties :
#
#
# Convention : Reuss Voigt Hill
#
# Bulk Modulus (GPa) = 64.57505 71.71980 68.14742
# Shear Modulus (GPa) = 107.56949 23.71953 65.64451
#
# Velocity S-wave (km/s) = 7.58405 3.56131 5.92456
# Velocity P-wave (km/s) = 10.54604 7.43367 9.12355
#
# Compressibility (1/GPa) = 0.01548586
#
# Stress axis : x y z
#
# Youngs Moduli (GPa) = 84.53563 105.08884 119.07842
#
# Poissons Ratio (x) = 0.01480 0.48896
# Poissons Ratio (y) = 0.01190 0.34313
# Poissons Ratio (z) = 0.34712 0.30282
#
# Static dielectric constant tensor:
#      x y z
#    x 3.514630 0.000000 0.000000 
#    y 0.000000 3.534810 0.000000 
#    z 0.000000 0.000000 3.910360 
# 
# 
# High freq. dielectric constant tensor:
#      x y z
#    x 1.729540 0.000000 0.000000 
#    y 0.000000 1.722690 0.000000 
#    z 0.000000 0.000000 1.732740 
# 
# From -- ./inp_files/66837.got.cif
#   From: 2010.03.12/outbox.cif.g09.slc.cpg/sg74_34_cif.got.tgz:66837.got - 2010.04.16 15:46:19.
