data_PCOD8301894
_publ_section_title
;
Structure prediction by ZEFSAII (Michael W. Deem and Ramdas Pophale) SiO2 
 PCOD8301894
Probable space group: P 41
;
_chemical_formula_sum "Si O2"
_cell_formula_units_Z 24
_cell_length_a 11.883393
_cell_length_b 11.883393
_cell_length_c 7.706305
_cell_angle_alpha 90.000000
_cell_angle_beta 90.000000
_cell_angle_gamma 90.000000
_cell_volume 1088.246086
_symmetry_space_group_name_H-M "P 41"
_symmetry_group_IT_number 76
_symmetry_cell_setting 'tetragonal'
loop_
_space_group_symop_operation_xyz
x,y,z
-y,x,1/4+z
-x,-y,1/2+z
y,-x,3/4+z
loop_
_atom_site_type_symbol
_atom_site_label
_atom_site_fract_x
_atom_site_fract_y
_atom_site_fract_z
Si Si1 0.083816 0.418859 0.952670
Si Si2 0.739675 0.155734 0.896023
Si Si3 0.343395 0.166806 0.228773
Si Si4 0.136970 0.021169 0.194956
Si Si5 0.214800 0.379524 0.295631
Si Si6 0.614190 0.840906 0.111766
O O1 0.113704 0.327567 0.810379
O O2 0.948945 0.431033 0.966845
O O3 0.142051 0.536202 0.891258
O O4 0.123600 0.380220 0.141878
O O5 0.839161 0.068843 0.849725
O O6 0.668748 0.158596 0.718630
O O7 0.782658 0.279736 0.953913
O O8 0.320397 0.302251 0.235879
O O9 0.345211 0.116986 0.423325
O O10 0.242278 0.099477 0.137780
O O11 0.101257 0.961277 0.017139
O O12 0.247804 0.509808 0.337755
#
# Coordination Sequence:
#
# PCOD8301894 Si02
#       6
#     4   4   4   4   4   4
#     4  11  23  40  71  99 122 182 235 266 336 424
#     4  11  22  45  63  97 139 169 225 284 335 397
#     4  10  22  43  65  93 139 171 225 288 333 400
#     4  12  23  41  61  95 143 183 212 284 352 408
#     4  10  23  42  65  97 130 172 219 282 332 392
#     4  10  21  41  69  93 133 179 216 280 338 399
#
# _framework density 22.053833000000001
#
# number of rings (size 3 to 8) (size 9 to 14) (size 15 to 20)
#    0.000    1.333    5.000    1.000    2.333    4.000 
#    3.000    0.000   33.000    0.000    0.000    0.000 
#    0.000    0.000    0.000    0.000    0.000    0.000 
#
# Total GULP energy -297518.062594 kJ/mol
# GULP energy per Si atom -12396.585941 kJ/mol
# Density = 2.200364 g / cm^3
# Si number density = 22.053833 Si / 1000 Ang^3
#
#
#
# Elastic Constant Matrix: (Units=GPa)
#
#
# Indices 1 2 3 4 5 6 
#
# 1 108.6131 39.8415 7.6163 0.0000 0.0000 5.1563
# 2 39.8415 108.6131 7.6163 0.0000 0.0000 -5.1563
# 3 7.6163 7.6163 50.0434 0.0000 0.0000 0.0000
# 4 0.0000 0.0000 0.0000 21.6642 0.0000 0.0000
# 5 0.0000 0.0000 0.0000 0.0000 21.6642 0.0000
# 6 5.1563 -5.1563 0.0000 0.0000 0.0000 38.5022
#
#
#
# Elastic Compliance Matrix: (Units=1/GPa)
#
#
# Indices 1 2 3 4 5 6 
#
# 1 0.010841 -0.003998 -0.001041 0.000000 0.000000 -0.001987
# 2 -0.003998 0.010841 -0.001041 0.000000 0.000000 0.001987
# 3 -0.001041 -0.001041 0.020300 0.000000 0.000000 0.000000
# 4 0.000000 0.000000 0.000000 0.046159 0.000000 0.000000
# 5 0.000000 0.000000 0.000000 0.000000 0.046159 0.000000
# 6 -0.001987 0.001987 0.000000 0.000000 0.000000 0.026505
#
#
# Mechanical properties :
#
#
# Convention : Reuss Voigt Hill
#
# Bulk Modulus (GPa) = 33.53490 41.93532 37.73511
# Shear Modulus (GPa) = 27.33645 30.51250 28.92447
#
# Velocity S-wave (km/s) = 3.52452 3.72364 3.62545
# Velocity P-wave (km/s) = 5.63932 6.12728 5.88836
#
# Compressibility (1/GPa) = 0.02981968
#
# Stress axis : x y z
#
# Youngs Moduli (GPa) = 92.24324 92.24324 49.26195
#
# Poissons Ratio (x) = 0.36879 0.05130
# Poissons Ratio (y) = 0.36879 0.05130
# Poissons Ratio (z) = 0.09607 0.09607
#
# Static dielectric constant tensor:
#      x y z
#    x 4.177080 0.000000 0.000000 
#    y 0.000000 4.177080 0.000000 
#    z 0.000000 0.000000 3.723280 
# 
# 
# High freq. dielectric constant tensor:
#      x y z
#    x 1.865020 0.000000 0.000000 
#    y 0.000000 1.865020 0.000000 
#    z 0.000000 0.000000 1.853660 
# 
# From -- ./inp_files/556.got.cif
#   From: 2010.03.12/outbox.cif.g09.slc.cpg/sg76_cif.got.tgz:556.got - 2010.04.16 16:34:25.
