data_PCOD8301701
_publ_section_title
;
Structure prediction by ZEFSAII (Michael W. Deem and Ramdas Pophale) SiO2 
 PCOD8301701
Probable space group: I M M A
;
_chemical_formula_sum "Si O2"
_cell_formula_units_Z 104
_cell_length_a 25.556114
_cell_length_b 9.045051
_cell_length_c 21.287528
_cell_angle_alpha 90.000000
_cell_angle_beta 90.000000
_cell_angle_gamma 90.000000
_cell_volume 4920.747369
_symmetry_space_group_name_H-M "I M M A"
_symmetry_group_IT_number 74
_symmetry_cell_setting 'orthorhombic'
loop_
_space_group_symop_operation_xyz
x,y,z
-x,1/2-y,z
x,-y,-z
-x,1/2+y,-z
-x,-y,-z
x,1/2+y,-z
-x,y,z
x,1/2-y,z
1/2+x,1/2+y,1/2+z
1/2-x,-y,1/2+z
1/2+x,1/2-y,1/2-z
1/2-x,y,1/2-z
1/2-x,1/2-y,1/2-z
1/2+x,y,1/2-z
1/2-x,1/2+y,1/2+z
1/2+x,-y,1/2+z
loop_
_atom_site_type_symbol
_atom_site_label
_atom_site_fract_x
_atom_site_fract_y
_atom_site_fract_z
Si Si1 0.000000 0.072176 0.068412
Si Si2 0.775721 0.912974 0.659093
Si Si3 0.366171 0.410881 0.058380
Si Si4 0.791991 0.582206 0.063147
Si Si5 0.140582 0.574917 0.756720
Si Si6 0.601735 0.919757 0.378475
Si Si7 0.557671 0.573297 0.843477
O O1 0.000000 0.250000 0.063395
O O2 0.948518 0.019364 0.105508
O O3 0.000000 0.000000 0.000000
O O4 0.749948 0.750000 0.667420
O O5 0.823838 0.900817 0.612332
O O6 0.802004 0.963685 0.725976
O O7 0.732638 0.019022 0.628108
O O8 0.379577 0.250000 0.031936
O O9 0.418221 0.481745 0.089990
O O10 0.344152 0.500000 0.000000
O O11 0.772577 0.750000 0.057045
O O12 0.855188 0.573447 0.066004
O O13 0.772729 0.500000 0.000000
O O14 0.136493 0.750000 0.768950
O O15 0.133329 0.483929 0.819754
O O16 0.093357 0.517117 0.713319
O O17 0.584005 0.750000 0.367172
O O18 0.500000 0.505752 0.835169
O O19 0.557114 0.750000 0.843479
#
# Coordination Sequence:
#
# PCOD8301701 Si02
#       7
#     8  16  16  16  16  16  16
#     4  12  26  46  72  98 126 162 203 248 303 368
#     4   9  19  36  57  83 118 156 198 249 299 354
#     4   9  17  29  46  71 103 141 185 235 289 345
#     4  11  24  40  61  88 119 157 200 246 302 365
#     4   9  19  36  59  88 117 154 204 249 298 358
#     4  11  25  43  63  92 127 160 197 249 307 364
#     4   8  15  29  49  72 102 140 186 238 288 343
#
# _framework density 21.135000000000002
#
# number of rings (size 3 to 8) (size 9 to 14) (size 15 to 20)
#    0.000    2.308    0.000    4.385    1.077    7.077 
#    0.000    5.385    0.000    0.923    0.000    0.000 
#    0.000    0.000    0.000    0.000    0.000    0.000 
#
# Total GULP energy -644411.346184 kJ/mol
# GULP energy per Si atom -12392.525888 kJ/mol
# Density = 2.108690 g / cm^3
# Si number density = 21.135000 Si / 1000 Ang^3
#
#
#
# Elastic Constant Matrix: (Units=GPa)
#
#
# Indices 1 2 3 4 5 6 
#
# 1 108.7232 41.8687 16.6575 0.0000 0.0000 0.0000
# 2 41.8687 117.9638 49.1790 0.0000 0.0000 0.0000
# 3 16.6575 49.1790 84.0265 0.0000 0.0000 0.0000
# 4 0.0000 0.0000 0.0000 29.9391 0.0000 0.0000
# 5 0.0000 0.0000 0.0000 0.0000 20.7391 0.0000
# 6 0.0000 0.0000 0.0000 0.0000 0.0000 24.0772
#
#
#
# Elastic Compliance Matrix: (Units=1/GPa)
#
#
# Indices 1 2 3 4 5 6 
#
# 1 0.010655 -0.003838 0.000134 0.000000 0.000000 0.000000
# 2 -0.003838 0.012595 -0.006611 0.000000 0.000000 0.000000
# 3 0.000134 -0.006611 0.015744 0.000000 0.000000 0.000000
# 4 0.000000 0.000000 0.000000 0.033401 0.000000 0.000000
# 5 0.000000 0.000000 0.000000 0.000000 0.048218 0.000000
# 6 0.000000 0.000000 0.000000 0.000000 0.000000 0.041533
#
#
# Mechanical properties :
#
#
# Convention : Reuss Voigt Hill
#
# Bulk Modulus (GPa) = 54.45278 58.45821 56.45549
# Shear Modulus (GPa) = 26.46939 28.48499 27.47719
#
# Velocity S-wave (km/s) = 3.54276 3.67517 3.60957
# Velocity P-wave (km/s) = 6.52342 6.76230 6.64393
#
# Compressibility (1/GPa) = 0.01836454
#
# Stress axis : x y z
#
# Youngs Moduli (GPa) = 93.85278 79.39421 63.51704
#
# Poissons Ratio (x) = 0.30468 -0.00850
# Poissons Ratio (y) = 0.36016 0.41992
# Poissons Ratio (z) = -0.01256 0.52488
#
# Static dielectric constant tensor:
#      x y z
#    x 4.127080 0.000000 0.000000 
#    y 0.000000 3.545560 0.000000 
#    z 0.000000 0.000000 3.916100 
# 
# 
# High freq. dielectric constant tensor:
#      x y z
#    x 1.840710 0.000000 0.000000 
#    y 0.000000 1.799430 0.000000 
#    z 0.000000 0.000000 1.833060 
# 
# From -- ./inp_files/55241.got.cif
#   From: 2010.03.12/outbox.cif.g09.slc.cpg/sg74_28_cif.got.tgz:55241.got - 2010.04.16 15:46:19.
