data_PCOD8301244
_publ_section_title
;
Structure prediction by ZEFSAII (Michael W. Deem and Ramdas Pophale) SiO2 
 PCOD8301244
Probable space group: I M M A
;
_chemical_formula_sum "Si O2"
_cell_formula_units_Z 72
_cell_length_a 22.651989
_cell_length_b 26.373217
_cell_length_c 5.072295
_cell_angle_alpha 90.000000
_cell_angle_beta 90.000000
_cell_angle_gamma 90.000000
_cell_volume 3030.218561
_symmetry_space_group_name_H-M "I M M A"
_symmetry_group_IT_number 74
_symmetry_cell_setting 'orthorhombic'
loop_
_space_group_symop_operation_xyz
x,y,z
-x,1/2-y,z
x,-y,-z
-x,1/2+y,-z
-x,-y,-z
x,1/2+y,-z
-x,y,z
x,1/2-y,z
1/2+x,1/2+y,1/2+z
1/2-x,-y,1/2+z
1/2+x,1/2-y,1/2-z
1/2-x,y,1/2-z
1/2-x,1/2-y,1/2-z
1/2+x,y,1/2-z
1/2-x,1/2+y,1/2+z
1/2+x,-y,1/2+z
loop_
_atom_site_type_symbol
_atom_site_label
_atom_site_fract_x
_atom_site_fract_y
_atom_site_fract_z
Si Si1 0.887382 0.808499 0.489100
Si Si2 0.000000 0.965607 0.254566
Si Si3 0.566873 0.357570 0.470128
Si Si4 0.789133 0.611508 0.494007
Si Si5 0.126777 0.553500 0.145199
O O1 0.869783 0.750000 0.490860
O O2 0.934124 0.821356 0.717539
O O3 0.828729 0.840152 0.557515
O O4 0.917685 0.822416 0.215970
O O5 0.937836 0.936181 0.277682
O O6 0.000000 0.000000 0.500000
O O7 0.000000 0.000000 0.000000
O O8 0.500000 0.381495 0.496344
O O9 0.620129 0.400427 0.432331
O O10 0.750000 0.629655 0.250000
O O11 0.825730 0.562572 0.377304
O O12 0.750000 0.594461 0.750000
O O13 0.137460 0.500000 0.000000
#
# Coordination Sequence:
#
# PCOD8301244 Si02
#       5
#    16   8  16  16  16
#     4  11  25  44  69 102 138 181 236 293 355 421
#     4  10  22  38  66 100 131 172 223 278 340 406
#     4  11  23  41  68 104 146 185 224 282 355 429
#     4  11  25  47  72 100 140 187 241 295 351 412
#     4  10  23  46  71 107 142 184 236 290 348 421
#
# _framework density 23.760663999999998
#
# number of rings (size 3 to 8) (size 9 to 14) (size 15 to 20)
#    0.000    1.333    1.111    4.000    0.000   14.222 
#    0.000    4.444    0.000    0.000    0.000    0.000 
#    0.000    0.000    0.000    0.000    0.000    0.000 
#
# Total GULP energy -446048.506901 kJ/mol
# GULP energy per Si atom -12390.236303 kJ/mol
# Density = 2.370658 g / cm^3
# Si number density = 23.760664 Si / 1000 Ang^3
#
#
#
# Elastic Constant Matrix: (Units=GPa)
#
#
# Indices 1 2 3 4 5 6 
#
# 1 135.0949 54.9074 37.9882 0.0000 0.0000 0.0000
# 2 54.9074 164.6441 65.7405 0.0000 0.0000 0.0000
# 3 37.9882 65.7405 142.8024 0.0000 0.0000 0.0000
# 4 0.0000 0.0000 0.0000 28.2069 0.0000 0.0000
# 5 0.0000 0.0000 0.0000 0.0000 11.1608 0.0000
# 6 0.0000 0.0000 0.0000 0.0000 0.0000 14.5809
#
#
#
# Elastic Compliance Matrix: (Units=1/GPa)
#
#
# Indices 1 2 3 4 5 6 
#
# 1 0.008728 -0.002430 -0.001203 0.000000 0.000000 0.000000
# 2 -0.002430 0.008118 -0.003091 0.000000 0.000000 0.000000
# 3 -0.001203 -0.003091 0.008746 0.000000 0.000000 0.000000
# 4 0.000000 0.000000 0.000000 0.035452 0.000000 0.000000
# 5 0.000000 0.000000 0.000000 0.000000 0.089599 0.000000
# 6 0.000000 0.000000 0.000000 0.000000 0.000000 0.068583
#
#
# Mechanical properties :
#
#
# Convention : Reuss Voigt Hill
#
# Bulk Modulus (GPa) = 82.34731 84.42371 83.38551
# Shear Modulus (GPa) = 21.12169 29.71674 25.41922
#
# Velocity S-wave (km/s) = 2.98474 3.54032 3.27433
# Velocity P-wave (km/s) = 6.82718 7.23324 7.03314
#
# Compressibility (1/GPa) = 0.01214369
#
# Stress axis : x y z
#
# Youngs Moduli (GPa) = 114.56969 123.17732 114.34323
#
# Poissons Ratio (x) = 0.29938 0.13756
# Poissons Ratio (y) = 0.27846 0.35341
# Poissons Ratio (z) = 0.13783 0.38072
#
# Static dielectric constant tensor:
#      x y z
#    x 4.930480 0.000000 0.000000 
#    y 0.000000 4.144150 0.000000 
#    z 0.000000 0.000000 4.664150 
# 
# 
# High freq. dielectric constant tensor:
#      x y z
#    x 1.953510 0.000000 0.000000 
#    y 0.000000 1.929040 0.000000 
#    z 0.000000 0.000000 1.956340 
# 
# From -- ./inp_files/3733.got.cif
#   From: 2010.03.12/outbox.cif.g09.slc.cpg/sg74_2_cif.got.tgz:3733.got - 2010.04.16 15:46:19.
