data_PCOD8301656
_publ_section_title
;
Structure prediction by ZEFSAII (Michael W. Deem and Ramdas Pophale) SiO2 
 PCOD8301656
Probable space group: I M M A
;
_chemical_formula_sum "Si O2"
_cell_formula_units_Z 72
_cell_length_a 8.115514
_cell_length_b 26.276091
_cell_length_c 16.763473
_cell_angle_alpha 90.000000
_cell_angle_beta 90.000000
_cell_angle_gamma 90.000000
_cell_volume 3574.709774
_symmetry_space_group_name_H-M "I M M A"
_symmetry_group_IT_number 74
_symmetry_cell_setting 'orthorhombic'
loop_
_space_group_symop_operation_xyz
x,y,z
-x,1/2-y,z
x,-y,-z
-x,1/2+y,-z
-x,-y,-z
x,1/2+y,-z
-x,y,z
x,1/2-y,z
1/2+x,1/2+y,1/2+z
1/2-x,-y,1/2+z
1/2+x,1/2-y,1/2-z
1/2-x,y,1/2-z
1/2-x,1/2-y,1/2-z
1/2+x,y,1/2-z
1/2-x,1/2+y,1/2+z
1/2+x,-y,1/2+z
loop_
_atom_site_type_symbol
_atom_site_label
_atom_site_fract_x
_atom_site_fract_y
_atom_site_fract_z
Si Si1 0.187847 0.957245 0.160776
Si Si2 0.750000 0.874530 0.750000
Si Si3 0.808912 0.123523 0.544172
Si Si4 0.000000 0.192552 0.971556
Si Si5 0.500000 0.307287 0.339723
Si Si6 0.320937 0.559118 0.892793
O O1 0.250000 0.963662 0.250000
O O2 0.300858 0.915875 0.117123
O O3 0.000000 0.938756 0.158487
O O4 0.197982 0.011869 0.116998
O O5 0.654036 0.837530 0.692131
O O6 0.651106 0.910657 0.810085
O O7 0.671239 0.167033 0.559095
O O8 0.754217 0.095612 0.462538
O O9 0.000000 0.144152 0.539029
O O10 0.000000 0.250000 0.937825
O O11 0.000000 0.192993 0.066075
O O12 0.500000 0.250000 0.305841
O O13 0.500000 0.537593 0.917605
#
# Coordination Sequence:
#
# PCOD8301656 Si02
#       6
#    16   8  16   8   8  16
#     4  12  25  39  64  96 130 169 210 262 320 393
#     4  12  21  36  58  84 126 168 213 260 314 362
#     4  11  24  44  66  95 130 171 214 264 323 386
#     4  11  24  44  68  96 125 166 223 275 328 382
#     4  11  24  40  59  87 123 169 228 273 315 370
#     4  11  23  37  58  90 130 171 213 257 310 381
#
# _framework density 20.141494000000002
#
# number of rings (size 3 to 8) (size 9 to 14) (size 15 to 20)
#    0.000    0.667    5.556    3.000    3.111    3.111 
#    0.000    0.000    0.000    0.667    0.000    0.000 
#    0.000    0.000    0.000    0.000    0.000    0.000 
#
# Total GULP energy -446258.385356 kJ/mol
# GULP energy per Si atom -12396.066260 kJ/mol
# Density = 2.009565 g / cm^3
# Si number density = 20.141494 Si / 1000 Ang^3
#
#
#
# Elastic Constant Matrix: (Units=GPa)
#
#
# Indices 1 2 3 4 5 6 
#
# 1 123.5350 47.3469 19.0630 0.0000 0.0000 0.0000
# 2 47.3469 120.2153 27.9365 0.0000 0.0000 0.0000
# 3 19.0630 27.9365 42.5461 -0.0003 0.0000 0.0002
# 4 0.0000 0.0000 -0.0003 27.9744 0.0000 0.0000
# 5 0.0000 0.0000 0.0000 0.0000 35.4250 0.0000
# 6 0.0000 0.0000 0.0002 0.0000 0.0000 -4.3273
#
#
#
# Elastic Compliance Matrix: (Units=1/GPa)
#
#
# Indices 1 2 3 4 5 6 
#
# 1 0.009701 -0.003317 -0.002169 0.000000 0.000000 0.000000
# 2 -0.003317 0.010950 -0.005704 0.000000 0.000000 0.000000
# 3 -0.002169 -0.005704 0.028221 0.000000 0.000000 0.000001
# 4 0.000000 0.000000 0.000000 0.035747 0.000000 0.000000
# 5 0.000000 0.000000 0.000000 0.000000 0.028229 0.000000
# 6 0.000000 0.000000 0.000001 0.000000 0.000000 -0.231089
#
#
# Mechanical properties :
#
#
# Convention : Reuss Voigt Hill
#
# Bulk Modulus (GPa) = 37.74564 52.77659 45.26112
# Shear Modulus (GPa) = -57.45056 24.61108 -16.41974
#
# Velocity S-wave (km/s) = -5.34653 3.49937 -2.85830
# Velocity P-wave (km/s) = 4.39693 6.52589 3.40986
#
# Compressibility (1/GPa) = 0.02649312
#
# Stress axis : x y z
#
# Youngs Moduli (GPa) = 103.08546 91.32232 35.43462
#
# Poissons Ratio (x) = 0.30288 0.07685
# Poissons Ratio (y) = 0.34190 0.20212
# Poissons Ratio (z) = 0.22356 0.52091
#
# Static dielectric constant tensor:
#      x y z
#    x 3.611770 0.000000 0.000000 
#    y 0.000000 3.671280 0.000000 
#    z 0.000000 0.000000 3.574970 
# 
# 
# High freq. dielectric constant tensor:
#      x y z
#    x 1.794930 0.000000 0.000000 
#    y 0.000000 1.771440 0.000000 
#    z 0.000000 0.000000 1.781960 
# 
# From -- ./inp_files/29252.got.cif
#   From: 2010.03.12/outbox.cif.g09.slc.cpg/sg74_15_cif.got.tgz:29252.got - 2010.04.16 15:46:19.
