data_PCOD8301491
_publ_section_title
;
Structure prediction by ZEFSAII (Michael W. Deem and Ramdas Pophale) SiO2 
 PCOD8301491
Probable space group: I M M A
;
_chemical_formula_sum "Si O2"
_cell_formula_units_Z 56
_cell_length_a 17.853607
_cell_length_b 8.772052
_cell_length_c 22.024699
_cell_angle_alpha 90.000000
_cell_angle_beta 90.000000
_cell_angle_gamma 90.000000
_cell_volume 3449.349097
_symmetry_space_group_name_H-M "I M M A"
_symmetry_group_IT_number 74
_symmetry_cell_setting 'orthorhombic'
loop_
_space_group_symop_operation_xyz
x,y,z
-x,1/2-y,z
x,-y,-z
-x,1/2+y,-z
-x,-y,-z
x,1/2+y,-z
-x,y,z
x,1/2-y,z
1/2+x,1/2+y,1/2+z
1/2-x,-y,1/2+z
1/2+x,1/2-y,1/2-z
1/2-x,y,1/2-z
1/2-x,1/2-y,1/2-z
1/2+x,y,1/2-z
1/2-x,1/2+y,1/2+z
1/2+x,-y,1/2+z
loop_
_atom_site_type_symbol
_atom_site_label
_atom_site_fract_x
_atom_site_fract_y
_atom_site_fract_z
Si Si1 0.379128 0.072307 0.650627
Si Si2 0.000000 0.069904 0.066092
Si Si3 0.266197 0.080726 0.178724
Si Si4 0.082598 0.572918 0.723534
O O1 0.390459 0.250000 0.639828
O O2 0.425163 0.982757 0.600141
O O3 0.290679 0.031583 0.644145
O O4 0.409915 0.028337 0.716541
O O5 0.000000 0.250000 0.061739
O O6 0.000000 0.000000 0.000000
O O7 0.255003 0.250000 0.151609
O O8 0.250000 0.079702 0.250000
O O9 0.353807 0.028269 0.173445
O O10 0.094065 0.750000 0.742506
O O11 0.000000 0.546267 0.695152
#
# Coordination Sequence:
#
# PCOD8301491 Si02
#       4
#    16   8  16  16
#     4  11  20  30  44  64  88 117 150 186 228 268
#     4  12  24  38  52  66  86 114 152 194 231 270
#     4   8  15  27  42  61  85 118 154 183 219 265
#     4   9  16  27  44  64  89 123 156 185 220 265
#
# _framework density 16.234946000000001
#
# number of rings (size 3 to 8) (size 9 to 14) (size 15 to 20)
#    0.000    2.286    1.429    5.571    0.000    5.143 
#    0.000    0.000    0.000    0.000    0.000    0.000 
#    0.000    1.143    0.000    3.143    0.000    4.571 
#
# Total GULP energy -346995.335146 kJ/mol
# GULP energy per Si atom -12392.690541 kJ/mol
# Density = 1.619799 g / cm^3
# Si number density = 16.234946 Si / 1000 Ang^3
#
#
#
# Elastic Constant Matrix: (Units=GPa)
#
#
# Indices 1 2 3 4 5 6 
#
# 1 169.5999 46.4746 36.8469 0.0000 0.0000 0.0000
# 2 46.4746 109.3425 30.4394 0.0000 0.0000 0.0000
# 3 36.8469 30.4394 43.5270 0.0000 0.0000 0.0000
# 4 0.0000 0.0000 0.0000 17.9401 0.0000 0.0000
# 5 0.0000 0.0000 0.0000 0.0000 9.8036 0.0000
# 6 0.0000 0.0000 0.0000 0.0000 0.0000 19.0615
#
#
#
# Elastic Compliance Matrix: (Units=1/GPa)
#
#
# Indices 1 2 3 4 5 6 
#
# 1 0.007488 -0.001761 -0.005108 0.000000 0.000000 0.000000
# 2 -0.001761 0.011771 -0.006741 0.000000 0.000000 0.000000
# 3 -0.005108 -0.006741 0.032012 0.000000 0.000000 0.000000
# 4 0.000000 0.000000 0.000000 0.055741 0.000000 0.000000
# 5 0.000000 0.000000 0.000000 0.000000 0.102003 0.000000
# 6 0.000000 0.000000 0.000000 0.000000 0.000000 0.052462
#
#
# Mechanical properties :
#
#
# Convention : Reuss Voigt Hill
#
# Bulk Modulus (GPa) = 41.57616 61.11013 51.34315
# Shear Modulus (GPa) = 16.85128 23.27494 20.06311
#
# Velocity S-wave (km/s) = 3.22524 3.79044 3.51921
# Velocity P-wave (km/s) = 6.28762 7.54184 6.94311
#
# Compressibility (1/GPa) = 0.02405224
#
# Stress axis : x y z
#
# Youngs Moduli (GPa) = 133.53859 84.95773 31.23829
#
# Poissons Ratio (x) = 0.14961 0.15956
# Poissons Ratio (y) = 0.23516 0.21057
# Poissons Ratio (z) = 0.68208 0.57267
#
# Static dielectric constant tensor:
#      x y z
#    x 3.880500 0.000000 0.000000 
#    y 0.000000 3.056500 0.000000 
#    z 0.000000 0.000000 3.774770 
# 
# 
# High freq. dielectric constant tensor:
#      x y z
#    x 1.652340 0.000000 0.000000 
#    y 0.000000 1.626660 0.000000 
#    z 0.000000 0.000000 1.541860 
# 
# From -- ./inp_files/38848.got.cif
#   From: 2010.03.12/outbox.cif.g09.slc.cpg/sg74_20_cif.got.tgz:38848.got - 2010.04.16 15:46:19.
