data_PCOD8301848
_publ_section_title
;
Structure prediction by ZEFSAII (Michael W. Deem and Ramdas Pophale) SiO2 
 PCOD8301848
Probable space group: P 41
;
_chemical_formula_sum "Si O2"
_cell_formula_units_Z 28
_cell_length_a 10.069640
_cell_length_b 10.069640
_cell_length_c 15.642639
_cell_angle_alpha 90.000000
_cell_angle_beta 90.000000
_cell_angle_gamma 90.000000
_cell_volume 1586.126830
_symmetry_space_group_name_H-M "P 41"
_symmetry_group_IT_number 76
_symmetry_cell_setting 'tetragonal'
loop_
_space_group_symop_operation_xyz
x,y,z
-y,x,1/4+z
-x,-y,1/2+z
y,-x,3/4+z
loop_
_atom_site_type_symbol
_atom_site_label
_atom_site_fract_x
_atom_site_fract_y
_atom_site_fract_z
Si Si1 0.197474 0.140303 0.831610
Si Si2 0.916056 0.089614 0.903738
Si Si3 0.417657 0.742580 0.644313
Si Si4 0.948325 0.384760 0.350786
Si Si5 0.822116 0.993456 0.735216
Si Si6 0.903579 0.702811 0.696079
Si Si7 0.664051 0.319393 0.328642
O O1 0.187893 0.133126 0.728521
O O2 0.279819 0.273762 0.853036
O O3 0.051044 0.154367 0.869713
O O4 0.271195 0.013492 0.872266
O O5 0.809317 0.068182 0.826983
O O6 0.939489 0.942082 0.935954
O O7 0.469927 0.893877 0.628118
O O8 0.525830 0.640188 0.604015
O O9 0.416759 0.715100 0.744707
O O10 0.015819 0.314070 0.432762
O O11 0.823619 0.293611 0.317828
O O12 0.045934 0.395913 0.270358
O O13 0.855334 0.836833 0.743495
O O14 0.781736 0.621699 0.653802
#
# Coordination Sequence:
#
# PCOD8301848 Si02
#       7
#     4   4   4   4   4   4   4
#     4  10  17  28  48  77 109 130 181 216 271 317
#     4   9  17  24  47  72 106 142 162 220 271 328
#     4  10  19  35  50  82 103 141 185 226 260 326
#     4   9  18  30  52  74 101 136 176 224 254 321
#     4   9  15  27  44  75 104 133 172 203 271 319
#     4  10  16  31  53  77 102 137 177 223 265 319
#     4   9  20  33  56  79 103 139 183 222 264 316
#
# _framework density 17.653064000000001
#
# number of rings (size 3 to 8) (size 9 to 14) (size 15 to 20)
#    0.857    1.714    2.857    0.857    4.000    0.000 
#    2.571    0.000    0.000    3.429    0.000    0.000 
#    0.000    0.000    0.000    0.000    0.000    0.000 
#
# Total GULP energy -346912.751610 kJ/mol
# GULP energy per Si atom -12389.741129 kJ/mol
# Density = 1.761288 g / cm^3
# Si number density = 17.653064 Si / 1000 Ang^3
#
#
#
# Elastic Constant Matrix: (Units=GPa)
#
#
# Indices 1 2 3 4 5 6 
#
# 1 52.0027 10.0490 27.7191 0.0000 0.0000 -3.6156
# 2 10.0490 52.0027 27.7191 0.0000 0.0000 3.6156
# 3 27.7191 27.7191 123.5100 0.0000 0.0000 0.0000
# 4 0.0000 0.0000 0.0000 25.5712 0.0000 0.0000
# 5 0.0000 0.0000 0.0000 0.0000 25.5712 0.0000
# 6 -3.6156 3.6156 0.0000 0.0000 0.0000 14.3255
#
#
#
# Elastic Compliance Matrix: (Units=1/GPa)
#
#
# Indices 1 2 3 4 5 6 
#
# 1 0.022539 -0.002381 -0.004524 0.000000 0.000000 0.006289
# 2 -0.002381 0.022539 -0.004524 0.000000 0.000000 -0.006289
# 3 -0.004524 -0.004524 0.010127 0.000000 0.000000 0.000000
# 4 0.000000 0.000000 0.000000 0.039106 0.000000 0.000000
# 5 0.000000 0.000000 0.000000 0.000000 0.039106 0.000000
# 6 0.006289 -0.006289 0.000000 0.000000 0.000000 0.072980
#
#
# Mechanical properties :
#
#
# Convention : Reuss Voigt Hill
#
# Bulk Modulus (GPa) = 30.91549 39.83217 35.37383
# Shear Modulus (GPa) = 20.83007 23.89546 22.36276
#
# Velocity S-wave (km/s) = 3.43879 3.68314 3.56306
# Velocity P-wave (km/s) = 5.77217 6.37968 6.08351
#
# Compressibility (1/GPa) = 0.03234624
#
# Stress axis : x y z
#
# Youngs Moduli (GPa) = 44.36836 44.36836 98.74524
#
# Poissons Ratio (x) = 0.10565 0.44671
# Poissons Ratio (y) = 0.10565 0.44671
# Poissons Ratio (z) = 0.20072 0.20072
#
# Static dielectric constant tensor:
#      x y z
#    x 2.907530 0.000000 0.000000 
#    y 0.000000 2.907530 0.000000 
#    z 0.000000 0.000000 3.389120 
# 
# 
# High freq. dielectric constant tensor:
#      x y z
#    x 1.643130 0.000000 0.000000 
#    y 0.000000 1.643130 0.000000 
#    z 0.000000 0.000000 1.693680 
# 
# From -- ./inp_files/1127.got.cif
#   From: 2010.03.12/outbox.cif.g09.slc.cpg/sg76_cif.got.tgz:1127.got - 2010.04.16 16:34:25.
