data_PCOD8301182
_publ_section_title
;
Structure prediction by ZEFSAII (Michael W. Deem and Ramdas Pophale) SiO2 
 PCOD8301182
Probable space group: I M M A
;
_chemical_formula_sum "Si O2"
_cell_formula_units_Z 72
_cell_length_a 18.974178
_cell_length_b 19.051886
_cell_length_c 10.814412
_cell_angle_alpha 90.000000
_cell_angle_beta 90.000000
_cell_angle_gamma 90.000000
_cell_volume 3909.343713
_symmetry_space_group_name_H-M "I M M A"
_symmetry_group_IT_number 74
_symmetry_cell_setting 'orthorhombic'
loop_
_space_group_symop_operation_xyz
x,y,z
-x,1/2-y,z
x,-y,-z
-x,1/2+y,-z
-x,-y,-z
x,1/2+y,-z
-x,y,z
x,1/2-y,z
1/2+x,1/2+y,1/2+z
1/2-x,-y,1/2+z
1/2+x,1/2-y,1/2-z
1/2-x,y,1/2-z
1/2-x,1/2-y,1/2-z
1/2+x,y,1/2-z
1/2-x,1/2+y,1/2+z
1/2+x,-y,1/2+z
loop_
_atom_site_type_symbol
_atom_site_label
_atom_site_fract_x
_atom_site_fract_y
_atom_site_fract_z
Si Si1 0.214022 0.500000 0.000000
Si Si2 0.079047 0.995739 0.646732
Si Si3 0.305073 0.250000 0.362361
Si Si4 0.192457 0.602404 0.353842
Si Si5 0.218191 0.250000 0.612281
Si Si6 0.829658 0.400638 0.202200
O O1 0.268326 0.440369 0.959162
O O2 0.163437 0.537879 0.900823
O O3 0.115934 0.923008 0.689879
O O4 0.000000 0.999451 0.700716
O O5 0.077651 0.000000 0.500000
O O6 0.123503 0.062507 0.696855
O O7 0.250000 0.250000 0.250000
O O8 0.275059 0.250000 0.501276
O O9 0.350010 0.177542 0.346939
O O10 0.250000 0.613141 0.250000
O O11 0.170877 0.679817 0.404089
O O12 0.250000 0.250000 0.750000
O O13 0.750000 0.402492 0.250000
#
# Coordination Sequence:
#
# PCOD8301182 Si02
#       6
#     8  16   8  16   8  16
#     4  12  16  30  62  82 110 140 188 236 294 338
#     4  11  22  36  55  80 113 154 193 233 287 359
#     4  10  22  32  53  89 119 145 189 256 304 346
#     4  11  19  34  57  84 112 144 189 241 293 346
#     4  10  22  34  55  89 119 147 187 244 300 356
#     4  11  20  35  57  84 113 147 194 246 300 348
#
# _framework density 18.417414000000001
#
# number of rings (size 3 to 8) (size 9 to 14) (size 15 to 20)
#    0.000    1.111    7.778    0.000    3.111    0.000 
#    0.000    1.667    0.000    2.667    0.000    1.556 
#    0.000    0.000    0.000    0.000    0.000    0.000 
#
# Total GULP energy -445999.507868 kJ/mol
# GULP energy per Si atom -12388.875219 kJ/mol
# Density = 1.837550 g / cm^3
# Si number density = 18.417414 Si / 1000 Ang^3
#
#
#
# Elastic Constant Matrix: (Units=GPa)
#
#
# Indices 1 2 3 4 5 6 
#
# 1 97.5245 51.1788 17.5952 0.0000 0.0000 0.0000
# 2 51.1788 185.2186 39.7286 0.0000 0.0000 0.0000
# 3 17.5952 39.7286 82.6762 0.0000 0.0000 0.0000
# 4 0.0000 0.0000 0.0000 3.0232 0.0000 0.0000
# 5 0.0000 0.0000 0.0000 0.0000 15.5496 0.0000
# 6 0.0000 0.0000 0.0000 0.0000 0.0000 10.8211
#
#
#
# Elastic Compliance Matrix: (Units=1/GPa)
#
#
# Indices 1 2 3 4 5 6 
#
# 1 0.012078 -0.003106 -0.001078 0.000000 0.000000 0.000000
# 2 -0.003106 0.006818 -0.002615 0.000000 0.000000 0.000000
# 3 -0.001078 -0.002615 0.013582 0.000000 0.000000 0.000000
# 4 0.000000 0.000000 0.000000 0.330777 0.000000 0.000000
# 5 0.000000 0.000000 0.000000 0.000000 0.064310 0.000000
# 6 0.000000 0.000000 0.000000 0.000000 0.000000 0.092412
#
#
# Mechanical properties :
#
#
# Convention : Reuss Voigt Hill
#
# Bulk Modulus (GPa) = 52.96809 64.71382 58.84096
# Shear Modulus (GPa) = 9.26150 23.00655 16.13402
#
# Velocity S-wave (km/s) = 2.24490 3.53820 2.96297
# Velocity P-wave (km/s) = 5.96168 7.20454 6.61238
#
# Compressibility (1/GPa) = 0.01887929
#
# Stress axis : x y z
#
# Youngs Moduli (GPa) = 82.79248 146.66388 73.62944
#
# Poissons Ratio (x) = 0.45557 0.07936
# Poissons Ratio (y) = 0.25717 0.19257
# Poissons Ratio (z) = 0.08924 0.38358
#
# Static dielectric constant tensor:
#      x y z
#    x 3.179530 0.000000 0.000000 
#    y 0.000000 4.686770 0.000000 
#    z 0.000000 0.000000 3.467060 
# 
# 
# High freq. dielectric constant tensor:
#      x y z
#    x 1.649800 0.000000 0.000000 
#    y 0.000000 1.738410 0.000000 
#    z 0.000000 0.000000 1.723160 
# 
# From -- ./inp_files/21917.got.cif
#   From: 2010.03.12/outbox.cif.g09.slc.cpg/sg74_11_cif.got.tgz:21917.got - 2010.04.16 15:46:19.
