data_PCOD8301760
_publ_section_title
;
Structure prediction by ZEFSAII (Michael W. Deem and Ramdas Pophale) SiO2 
 PCOD8301760
Probable space group: I M M A
;
_chemical_formula_sum "Si O2"
_cell_formula_units_Z 80
_cell_length_a 18.821211
_cell_length_b 9.326507
_cell_length_c 26.071489
_cell_angle_alpha 90.000000
_cell_angle_beta 90.000000
_cell_angle_gamma 90.000000
_cell_volume 4576.488964
_symmetry_space_group_name_H-M "I M M A"
_symmetry_group_IT_number 74
_symmetry_cell_setting 'orthorhombic'
loop_
_space_group_symop_operation_xyz
x,y,z
-x,1/2-y,z
x,-y,-z
-x,1/2+y,-z
-x,-y,-z
x,1/2+y,-z
-x,y,z
x,1/2-y,z
1/2+x,1/2+y,1/2+z
1/2-x,-y,1/2+z
1/2+x,1/2-y,1/2-z
1/2-x,y,1/2-z
1/2-x,1/2-y,1/2-z
1/2+x,y,1/2-z
1/2-x,1/2+y,1/2+z
1/2+x,-y,1/2+z
loop_
_atom_site_type_symbol
_atom_site_label
_atom_site_fract_x
_atom_site_fract_y
_atom_site_fract_z
Si Si1 0.582627 0.582759 0.850850
Si Si2 0.829972 0.579369 0.747952
Si Si3 0.584715 0.908650 0.546464
Si Si4 0.915565 0.912487 0.451353
Si Si5 0.420773 0.921404 0.658272
O O1 0.500000 0.554848 0.838000
O O2 0.595641 0.750000 0.862670
O O3 0.629363 0.527993 0.803025
O O4 0.608801 0.492499 0.899691
O O5 0.830571 0.750000 0.749931
O O6 0.750000 0.519050 0.750000
O O7 0.869652 0.516404 0.797874
O O8 0.500000 0.903927 0.543209
O O9 0.616502 0.750000 0.540415
O O10 0.606233 0.973919 0.602100
O O11 0.617704 0.000000 0.500000
O O12 0.885630 0.750000 0.451895
O O13 0.000000 0.910013 0.454356
O O14 0.884772 0.000000 0.500000
O O15 0.500000 0.979315 0.669348
O O16 0.421837 0.750000 0.658153
#
# Coordination Sequence:
#
# PCOD8301760 Si02
#       5
#    16  16  16  16  16
#     4   9  16  26  42  64  88 113 142 177 216 257
#     4   9  16  25  39  60  84 110 142 179 214 248
#     4   8  13  21  35  56  80 103 127 158 196 236
#     4   9  16  26  42  65  91 115 140 174 215 257
#     4   8  13  22  37  57  80 106 136 169 205 245
#
# _framework density 17.480649
#
# number of rings (size 3 to 8) (size 9 to 14) (size 15 to 20)
#    0.000    3.400    0.000    2.400    0.000    4.800 
#    0.000    0.000    0.000    3.000    0.000    8.400 
#    0.000    0.000    0.000    0.000    0.000    0.000 
#
# Total GULP energy -495739.424238 kJ/mol
# GULP energy per Si atom -12393.485606 kJ/mol
# Density = 1.744086 g / cm^3
# Si number density = 17.480649 Si / 1000 Ang^3
#
#
#
# Elastic Constant Matrix: (Units=GPa)
#
#
# Indices 1 2 3 4 5 6 
#
# 1 67.1575 21.0714 67.7682 0.0000 0.0000 0.0000
# 2 21.0714 58.9262 59.0498 0.0000 0.0000 0.0000
# 3 67.7682 59.0498 203.2806 0.0000 0.0000 0.0000
# 4 0.0000 0.0000 0.0000 26.5544 0.0000 0.0000
# 5 0.0000 0.0000 0.0000 0.0000 4.2748 0.0000
# 6 0.0000 0.0000 0.0000 0.0000 0.0000 6.0397
#
#
#
# Elastic Compliance Matrix: (Units=1/GPa)
#
#
# Indices 1 2 3 4 5 6 
#
# 1 0.022462 -0.000745 -0.007272 0.000000 0.000000 0.000000
# 2 -0.000745 0.023964 -0.006713 0.000000 0.000000 0.000000
# 3 -0.007272 -0.006713 0.009293 0.000000 0.000000 0.000000
# 4 0.000000 0.000000 0.000000 0.037658 0.000000 0.000000
# 5 0.000000 0.000000 0.000000 0.000000 0.233932 0.000000
# 6 0.000000 0.000000 0.000000 0.000000 0.000000 0.165572
#
#
# Mechanical properties :
#
#
# Convention : Reuss Voigt Hill
#
# Bulk Modulus (GPa) = 38.08080 69.46035 53.77058
# Shear Modulus (GPa) = 9.41454 19.47209 14.44332
#
# Velocity S-wave (km/s) = 2.32323 3.34117 2.87757
# Velocity P-wave (km/s) = 5.38780 7.39638 6.47050
#
# Compressibility (1/GPa) = 0.02625995
#
# Stress axis : x y z
#
# Youngs Moduli (GPa) = 44.51943 41.73003 107.60269
#
# Poissons Ratio (x) = 0.03109 0.78247
# Poissons Ratio (y) = 0.03317 0.72230
# Poissons Ratio (z) = 0.32374 0.28012
#
# Static dielectric constant tensor:
#      x y z
#    x 2.930500 0.000000 0.000000 
#    y 0.000000 2.981320 0.000000 
#    z 0.000000 0.000000 3.615300 
# 
# 
# High freq. dielectric constant tensor:
#      x y z
#    x 1.625520 0.000000 0.000000 
#    y 0.000000 1.629010 0.000000 
#    z 0.000000 0.000000 1.697410 
# 
# From -- ./inp_files/67526.got.cif
#   From: 2010.03.12/outbox.cif.g09.slc.cpg/sg74_34_cif.got.tgz:67526.got - 2010.04.16 15:46:19.
