data_PCOD8301535
_publ_section_title
;
Structure prediction by ZEFSAII (Michael W. Deem and Ramdas Pophale) SiO2 
 PCOD8301535
Probable space group: I M M A
;
_chemical_formula_sum "Si O2"
_cell_formula_units_Z 112
_cell_length_a 15.372089
_cell_length_b 28.137406
_cell_length_c 14.316108
_cell_angle_alpha 90.000000
_cell_angle_beta 90.000000
_cell_angle_gamma 90.000000
_cell_volume 6192.156347
_symmetry_space_group_name_H-M "I M M A"
_symmetry_group_IT_number 74
_symmetry_cell_setting 'orthorhombic'
loop_
_space_group_symop_operation_xyz
x,y,z
-x,1/2-y,z
x,-y,-z
-x,1/2+y,-z
-x,-y,-z
x,1/2+y,-z
-x,y,z
x,1/2-y,z
1/2+x,1/2+y,1/2+z
1/2-x,-y,1/2+z
1/2+x,1/2-y,1/2-z
1/2-x,y,1/2-z
1/2-x,1/2-y,1/2-z
1/2+x,y,1/2-z
1/2-x,1/2+y,1/2+z
1/2+x,-y,1/2+z
loop_
_atom_site_type_symbol
_atom_site_label
_atom_site_fract_x
_atom_site_fract_y
_atom_site_fract_z
Si Si1 0.397919 0.029865 0.753591
Si Si2 0.598394 0.128023 0.428032
Si Si3 0.142745 0.949803 0.457752
Si Si4 0.899459 0.426302 0.254123
Si Si5 0.752859 0.805631 0.860601
Si Si6 0.343013 0.952042 0.449694
Si Si7 0.900924 0.863850 0.583385
O O1 0.500000 0.029039 0.730938
O O2 0.377330 0.058043 0.848130
O O3 0.349651 0.049238 0.662332
O O4 0.358005 0.977616 0.771126
O O5 0.500000 0.148347 0.421901
O O6 0.618093 0.088375 0.350792
O O7 0.664410 0.171205 0.413213
O O8 0.609663 0.097090 0.521678
O O9 0.243804 0.948029 0.480746
O O10 0.099054 0.903115 0.502014
O O11 0.104420 0.000000 0.500000
O O12 0.859173 0.388667 0.324963
O O13 0.000000 0.428753 0.280871
O O14 0.764691 0.750000 0.873016
O O15 0.750000 0.818589 0.750000
O O16 0.666487 0.819973 0.921315
O O17 0.382501 0.000000 0.500000
O O18 0.000000 0.844410 0.594338
#
# Coordination Sequence:
#
# PCOD8301535 Si02
#       7
#    16  16  16  16  16  16  16
#     4  11  21  33  49  77 116 156 196 233 268 319
#     4  11  21  37  58  81 112 155 194 228 279 337
#     4  11  22  34  52  80 115 155 195 232 274 329
#     4   9  18  30  50  77 113 153 191 228 265 322
#     4  11  24  40  59  85 115 145 185 240 293 341
#     4  11  22  34  52  80 115 155 195 232 274 329
#     4  11  21  37  58  81 112 155 194 228 279 337
#
# _framework density 18.087399000000001
#
# number of rings (size 3 to 8) (size 9 to 14) (size 15 to 20)
#    0.000    1.286    5.714    1.286    0.000    1.714 
#    2.571    1.429    0.000    0.000    0.000    2.000 
#    0.000    3.429    0.000    0.000    0.000    0.000 
#
# Total GULP energy -694017.582071 kJ/mol
# GULP energy per Si atom -12393.171108 kJ/mol
# Density = 1.804623 g / cm^3
# Si number density = 18.087399 Si / 1000 Ang^3
#
#
#
# Elastic Constant Matrix: (Units=GPa)
#
#
# Indices 1 2 3 4 5 6 
#
# 1 96.9970 40.7852 13.6528 0.0000 0.0000 0.0000
# 2 40.7852 89.8002 29.6363 0.0000 0.0000 0.0000
# 3 13.6528 29.6363 92.2113 -0.0001 0.0000 0.0000
# 4 0.0000 0.0000 -0.0001 22.9335 0.0000 0.0000
# 5 0.0000 0.0000 0.0000 0.0000 24.1642 0.0000
# 6 0.0000 0.0000 0.0000 0.0000 0.0000 11.0392
#
#
#
# Elastic Compliance Matrix: (Units=1/GPa)
#
#
# Indices 1 2 3 4 5 6 
#
# 1 0.012743 -0.005778 -0.000030 0.000000 0.000000 0.000000
# 2 -0.005778 0.015077 -0.003990 0.000000 0.000000 0.000000
# 3 -0.000030 -0.003990 0.012131 0.000000 0.000000 0.000000
# 4 0.000000 0.000000 0.000000 0.043604 0.000000 0.000000
# 5 0.000000 0.000000 0.000000 0.000000 0.041384 0.000000
# 6 0.000000 0.000000 0.000000 0.000000 0.000000 0.090586
#
#
# Mechanical properties :
#
#
# Convention : Reuss Voigt Hill
#
# Bulk Modulus (GPa) = 49.12562 49.68412 49.40487
# Shear Modulus (GPa) = 20.66911 24.62299 22.64605
#
# Velocity S-wave (km/s) = 3.38410 3.69363 3.54225
# Velocity P-wave (km/s) = 6.51833 6.76159 6.64107
#
# Compressibility (1/GPa) = 0.02035598
#
# Stress axis : x y z
#
# Youngs Moduli (GPa) = 78.47289 66.32686 82.43015
#
# Poissons Ratio (x) = 0.38323 0.00246
# Poissons Ratio (y) = 0.45341 0.32891
# Poissons Ratio (z) = 0.00234 0.26465
#
# Static dielectric constant tensor:
#      x y z
#    x 3.357420 0.000000 0.000000 
#    y 0.000000 3.072210 0.000000 
#    z 0.000000 0.000000 3.288770 
# 
# 
# High freq. dielectric constant tensor:
#      x y z
#    x 1.710940 0.000000 0.000000 
#    y 0.000000 1.662350 0.000000 
#    z 0.000000 0.000000 1.691070 
# 
# From -- ./inp_files/32935.got.cif
#   From: 2010.03.12/outbox.cif.g09.slc.cpg/sg74_17_cif.got.tgz:32935.got - 2010.04.16 15:46:19.
