data_PCOD8301452
_publ_section_title
;
Structure prediction by ZEFSAII (Michael W. Deem and Ramdas Pophale) SiO2 
 PCOD8301452
Probable space group: I M M A
;
_chemical_formula_sum "Si O2"
_cell_formula_units_Z 80
_cell_length_a 9.778102
_cell_length_b 20.452462
_cell_length_c 24.702468
_cell_angle_alpha 90.000000
_cell_angle_beta 90.000000
_cell_angle_gamma 90.000000
_cell_volume 4940.154178
_symmetry_space_group_name_H-M "I M M A"
_symmetry_group_IT_number 74
_symmetry_cell_setting 'orthorhombic'
loop_
_space_group_symop_operation_xyz
x,y,z
-x,1/2-y,z
x,-y,-z
-x,1/2+y,-z
-x,-y,-z
x,1/2+y,-z
-x,y,z
x,1/2-y,z
1/2+x,1/2+y,1/2+z
1/2-x,-y,1/2+z
1/2+x,1/2-y,1/2-z
1/2-x,y,1/2-z
1/2-x,1/2-y,1/2-z
1/2+x,y,1/2-z
1/2-x,1/2+y,1/2+z
1/2+x,-y,1/2+z
loop_
_atom_site_type_symbol
_atom_site_label
_atom_site_fract_x
_atom_site_fract_y
_atom_site_fract_z
Si Si1 0.500000 0.869167 0.336542
Si Si2 0.000000 0.323714 0.541756
Si Si3 0.000000 0.439160 0.459908
Si Si4 0.500000 0.024630 0.336556
Si Si5 0.000000 0.523782 0.716338
Si Si6 0.708413 0.869548 0.127260
Si Si7 0.500000 0.870012 0.216453
Si Si8 0.208535 0.024221 0.372893
O O1 0.634349 0.846102 0.369163
O O2 0.500000 0.837869 0.276129
O O3 0.500000 0.946922 0.331656
O O4 0.863469 0.334647 0.576990
O O5 0.000000 0.250000 0.519736
O O6 0.000000 0.370796 0.490493
O O7 0.000000 0.500000 0.500000
O O8 0.136526 0.440901 0.423398
O O9 0.500000 0.055914 0.276098
O O10 0.365809 0.047628 0.369395
O O11 0.134999 0.544926 0.683141
O O12 0.000000 0.446905 0.724263
O O13 0.634732 0.848582 0.183214
O O14 0.694088 0.946855 0.118253
#
# Coordination Sequence:
#
# PCOD8301452 Si02
#       8
#     8   8   8   8   8  16   8  16
#     4   9  15  23  42  68  94 121 149 188 229 263
#     4  11  22  36  52  64  80 115 159 198 234 276
#     4  11  18  34  52  64  88 118 155 195 235 273
#     4   9  15  23  38  72 107 121 144 181 220 269
#     4   8  13  22  38  64 103 135 145 168 217 270
#     4   9  16  28  44  66  91 119 154 189 225 267
#     4   8  13  22  40  64  92 124 156 182 218 264
#     4   9  16  26  45  70  94 125 152 180 224 270
#
# _framework density 16.193826000000001
#
# number of rings (size 3 to 8) (size 9 to 14) (size 15 to 20)
#    0.000    2.800    2.000    2.400    0.000    4.800 
#    0.000    2.000    0.000    9.600    0.000    0.000 
#    0.000   12.800    0.000    0.000    0.000    0.000 
#
# Total GULP energy -495801.034013 kJ/mol
# GULP energy per Si atom -12395.025850 kJ/mol
# Density = 1.615697 g / cm^3
# Si number density = 16.193826 Si / 1000 Ang^3
#
#
#
# Elastic Constant Matrix: (Units=GPa)
#
#
# Indices 1 2 3 4 5 6 
#
# 1 161.1684 27.8451 60.3887 0.0000 0.0000 0.0000
# 2 27.8451 49.1179 38.2356 0.0000 0.0000 0.0000
# 3 60.3887 38.2356 105.0239 0.0000 0.0000 0.0000
# 4 0.0000 0.0000 0.0000 8.4527 0.0000 0.0000
# 5 0.0000 0.0000 0.0000 0.0000 22.1143 0.0000
# 6 0.0000 0.0000 0.0000 0.0000 0.0000 15.9271
#
#
#
# Elastic Compliance Matrix: (Units=1/GPa)
#
#
# Indices 1 2 3 4 5 6 
#
# 1 0.007970 -0.001327 -0.004100 0.000000 0.000000 0.000000
# 2 -0.001327 0.028632 -0.009661 0.000000 0.000000 0.000000
# 3 -0.004100 -0.009661 0.015396 0.000000 0.000000 0.000000
# 4 0.000000 0.000000 0.000000 0.118306 0.000000 0.000000
# 5 0.000000 0.000000 0.000000 0.000000 0.045220 0.000000
# 6 0.000000 0.000000 0.000000 0.000000 0.000000 0.062786
#
#
# Mechanical properties :
#
#
# Convention : Reuss Voigt Hill
#
# Bulk Modulus (GPa) = 45.82296 63.13879 54.48088
# Shear Modulus (GPa) = 15.83485 21.88820 18.86152
#
# Velocity S-wave (km/s) = 3.13042 3.68045 3.41652
# Velocity P-wave (km/s) = 6.43615 7.55877 7.01994
#
# Compressibility (1/GPa) = 0.02182312
#
# Stress axis : x y z
#
# Youngs Moduli (GPa) = 125.46940 34.92602 64.95098
#
# Poissons Ratio (x) = 0.04634 0.26628
# Poissons Ratio (y) = 0.16648 0.62749
# Poissons Ratio (z) = 0.51439 0.33742
#
# Static dielectric constant tensor:
#      x y z
#    x 2.671100 0.000000 0.000000 
#    y 0.000000 2.450050 0.000000 
#    z 0.000000 0.000000 3.075580 
# 
# 
# High freq. dielectric constant tensor:
#      x y z
#    x 1.635810 0.000000 0.000000 
#    y 0.000000 1.547720 0.000000 
#    z 0.000000 0.000000 1.615190 
# 
# From -- ./inp_files/61898.got.cif
#   From: 2010.03.12/outbox.cif.g09.slc.cpg/sg74_31_cif.got.tgz:61898.got - 2010.04.16 15:46:19.
