data_PCOD8301572
_publ_section_title
;
Structure prediction by ZEFSAII (Michael W. Deem and Ramdas Pophale) SiO2 
 PCOD8301572
Probable space group: I M M A
;
_chemical_formula_sum "Si O2"
_cell_formula_units_Z 64
_cell_length_a 14.105515
_cell_length_b 14.103026
_cell_length_c 15.443135
_cell_angle_alpha 90.000000
_cell_angle_beta 90.000000
_cell_angle_gamma 90.000000
_cell_volume 3072.109714
_symmetry_space_group_name_H-M "I M M A"
_symmetry_group_IT_number 74
_symmetry_cell_setting 'orthorhombic'
loop_
_space_group_symop_operation_xyz
x,y,z
-x,1/2-y,z
x,-y,-z
-x,1/2+y,-z
-x,-y,-z
x,1/2+y,-z
-x,y,z
x,1/2-y,z
1/2+x,1/2+y,1/2+z
1/2-x,-y,1/2+z
1/2+x,1/2-y,1/2-z
1/2-x,y,1/2-z
1/2-x,1/2-y,1/2-z
1/2+x,y,1/2-z
1/2-x,1/2+y,1/2+z
1/2+x,-y,1/2+z
loop_
_atom_site_type_symbol
_atom_site_label
_atom_site_fract_x
_atom_site_fract_y
_atom_site_fract_z
Si Si1 0.894667 0.025992 0.384903
Si Si2 0.141363 0.644872 0.773224
Si Si3 0.697070 0.355387 0.965478
Si Si4 0.895789 0.893013 0.971947
O O1 0.832664 0.928613 0.389124
O O2 0.000000 0.002397 0.419051
O O3 0.905510 0.066342 0.288410
O O4 0.845973 0.105405 0.444937
O O5 0.097185 0.750000 0.759153
O O6 0.250000 0.647921 0.750000
O O7 0.124890 0.612528 0.870466
O O8 0.656622 0.250000 0.946013
O O9 0.811064 0.343732 0.974776
O O10 0.000000 0.847327 0.991611
O O11 0.896881 0.000000 0.000000
#
# Coordination Sequence:
#
# PCOD8301572 Si02
#       4
#    16  16  16  16
#     4  11  23  38  58  90 123 157 203 251 301 355
#     4  11  21  37  62  91 124 157 197 252 306 356
#     4  11  21  38  60  86 122 159 198 245 300 360
#     4  11  22  38  61  89 123 161 198 243 301 365
#
# _framework density 20.832588999999999
#
# number of rings (size 3 to 8) (size 9 to 14) (size 15 to 20)
#    0.000    1.000    5.000    3.750    0.000    6.500 
#    0.000    0.000    0.000    8.250    0.000   10.500 
#    0.000    0.000    0.000    0.000    0.000    0.000 
#
# Total GULP energy -396526.409827 kJ/mol
# GULP energy per Si atom -12391.450307 kJ/mol
# Density = 2.078517 g / cm^3
# Si number density = 20.832589 Si / 1000 Ang^3
#
#
#
# Elastic Constant Matrix: (Units=GPa)
#
#
# Indices 1 2 3 4 5 6 
#
# 1 150.3000 37.9616 25.6092 0.0000 0.0000 0.0000
# 2 37.9616 179.7786 64.0219 0.0000 0.0000 0.0000
# 3 25.6092 64.0219 72.7153 0.0000 0.0000 0.0000
# 4 0.0000 0.0000 0.0000 125.0105 0.0000 0.0000
# 5 0.0000 0.0000 0.0000 0.0000 -65.0145 0.0000
# 6 0.0000 0.0000 0.0000 0.0000 0.0000 -24.7111
#
#
#
# Elastic Compliance Matrix: (Units=1/GPa)
#
#
# Indices 1 2 3 4 5 6 
#
# 1 0.007176 -0.000896 -0.001738 0.000000 0.000000 0.000000
# 2 -0.000896 0.008215 -0.006917 0.000000 0.000000 0.000000
# 3 -0.001738 -0.006917 0.020455 0.000000 0.000000 0.000000
# 4 0.000000 0.000000 0.000000 0.007999 0.000000 0.000000
# 5 0.000000 0.000000 0.000000 0.000000 -0.015381 0.000000
# 6 0.000000 0.000000 0.000000 0.000000 0.000000 -0.040468
#
#
# Mechanical properties :
#
#
# Convention : Reuss Voigt Hill
#
# Bulk Modulus (GPa) = 59.72889 73.10881 66.41885
# Shear Modulus (GPa) = 394.32692 25.40371 209.86532
#
# Velocity S-wave (km/s) = 13.77297 3.49581 10.04777
# Velocity P-wave (km/s) = 16.78271 7.17384 12.90587
#
# Compressibility (1/GPa) = 0.01674232
#
# Stress axis : x y z
#
# Youngs Moduli (GPa) = 139.35562 121.72906 48.88877
#
# Poissons Ratio (x) = 0.10910 0.08497
# Poissons Ratio (y) = 0.12490 0.33817
# Poissons Ratio (z) = 0.24222 0.84202
#
# Static dielectric constant tensor:
#      x y z
#    x 4.570220 0.000000 0.000000 
#    y 0.000000 3.862810 0.000000 
#    z 0.000000 0.000000 3.643840 
# 
# 
# High freq. dielectric constant tensor:
#      x y z
#    x 1.841360 0.000000 0.000000 
#    y 0.000000 1.814910 0.000000 
#    z 0.000000 0.000000 1.783450 
# 
# From -- ./inp_files/31689.got.cif
#   From: 2010.03.12/outbox.cif.g09.slc.cpg/sg74_16_cif.got.tgz:31689.got - 2010.04.16 15:46:19.
