data_PCOD8301603
_publ_section_title
;
Structure prediction by ZEFSAII (Michael W. Deem and Ramdas Pophale) SiO2 
 PCOD8301603
Probable space group: I M M A
;
_chemical_formula_sum "Si O2"
_cell_formula_units_Z 64
_cell_length_a 14.342593
_cell_length_b 8.676591
_cell_length_c 28.620411
_cell_angle_alpha 90.000000
_cell_angle_beta 90.000000
_cell_angle_gamma 90.000000
_cell_volume 3561.661705
_symmetry_space_group_name_H-M "I M M A"
_symmetry_group_IT_number 74
_symmetry_cell_setting 'orthorhombic'
loop_
_space_group_symop_operation_xyz
x,y,z
-x,1/2-y,z
x,-y,-z
-x,1/2+y,-z
-x,-y,-z
x,1/2+y,-z
-x,y,z
x,1/2-y,z
1/2+x,1/2+y,1/2+z
1/2-x,-y,1/2+z
1/2+x,1/2-y,1/2-z
1/2-x,y,1/2-z
1/2-x,1/2-y,1/2-z
1/2+x,y,1/2-z
1/2-x,1/2+y,1/2+z
1/2+x,-y,1/2+z
loop_
_atom_site_type_symbol
_atom_site_label
_atom_site_fract_x
_atom_site_fract_y
_atom_site_fract_z
Si Si1 0.500000 0.568527 0.802455
Si Si2 0.856514 0.566646 0.621139
Si Si3 0.000000 0.067582 0.551341
Si Si4 0.352892 0.432972 0.374910
Si Si5 0.500000 0.568074 0.550961
Si Si6 0.000000 0.566031 0.801216
O O1 0.500000 0.750000 0.796191
O O2 0.591770 0.517071 0.831001
O O3 0.500000 0.492961 0.750817
O O4 0.860172 0.750000 0.614312
O O5 0.907013 0.490106 0.577180
O O6 0.751658 0.500534 0.624100
O O7 0.000000 0.250000 0.549253
O O8 0.000000 0.000000 0.500000
O O9 0.348908 0.250000 0.373752
O O10 0.408110 0.488481 0.421132
O O11 0.407671 0.491606 0.328756
O O12 0.500000 0.750000 0.547218
O O13 0.500000 0.500000 0.500000
O O14 0.000000 0.750000 0.799589
#
# Coordination Sequence:
#
# PCOD8301603 Si02
#       6
#     8  16   8  16   8   8
#     4   8  14  23  40  67  98 125 155 192 230 269
#     4   9  17  31  48  70  97 124 154 193 232 272
#     4  11  22  36  52  70  92 121 153 191 234 281
#     4   8  15  27  44  65  95 126 153 188 233 276
#     4   9  17  30  45  64  88 119 153 189 231 277
#     4   8  13  23  40  69 101 127 154 190 233 273
#
# _framework density 17.969141
#
# number of rings (size 3 to 8) (size 9 to 14) (size 15 to 20)
#    0.000    3.250    0.000    3.375    0.000    2.000 
#    0.000    8.750    0.000    0.000    0.000   28.000 
#    0.000    0.000    0.000    0.000    0.000    0.000 
#
# Total GULP energy -396607.541639 kJ/mol
# GULP energy per Si atom -12393.985676 kJ/mol
# Density = 1.792824 g / cm^3
# Si number density = 17.969141 Si / 1000 Ang^3
#
#
#
# Elastic Constant Matrix: (Units=GPa)
#
#
# Indices 1 2 3 4 5 6 
#
# 1 199.8976 24.5102 101.6939 0.0000 0.0000 0.0000
# 2 24.5102 31.7707 27.6685 0.0000 0.0000 0.0000
# 3 101.6939 27.6685 196.5915 0.0000 0.0000 0.0000
# 4 0.0000 0.0000 0.0000 19.6503 0.0000 0.0000
# 5 0.0000 0.0000 0.0000 0.0000 11.6817 0.0000
# 6 0.0000 0.0000 0.0000 0.0000 0.0000 11.8902
#
#
#
# Elastic Compliance Matrix: (Units=1/GPa)
#
#
# Indices 1 2 3 4 5 6 
#
# 1 0.006966 -0.002548 -0.003245 0.000000 0.000000 0.000000
# 2 -0.002548 0.036805 -0.003862 0.000000 0.000000 0.000000
# 3 -0.003245 -0.003862 0.007309 0.000000 0.000000 0.000000
# 4 0.000000 0.000000 0.000000 0.050890 0.000000 0.000000
# 5 0.000000 0.000000 0.000000 0.000000 0.085604 0.000000
# 6 0.000000 0.000000 0.000000 0.000000 0.000000 0.084103
#
#
# Mechanical properties :
#
#
# Convention : Reuss Voigt Hill
#
# Bulk Modulus (GPa) = 31.47652 81.77832 56.62742
# Shear Modulus (GPa) = 16.57966 26.93692 21.75829
#
# Velocity S-wave (km/s) = 3.04085 3.87598 3.48353
# Velocity P-wave (km/s) = 5.46663 8.10186 6.91101
#
# Compressibility (1/GPa) = 0.03176971
#
# Stress axis : x y z
#
# Youngs Moduli (GPa) = 143.56237 27.17055 136.82559
#
# Poissons Ratio (x) = 0.06923 0.44394
# Poissons Ratio (y) = 0.36582 0.52839
# Poissons Ratio (z) = 0.46580 0.10493
#
# Static dielectric constant tensor:
#      x y z
#    x 4.370950 0.000000 0.000000 
#    y 0.000000 2.793590 0.000000 
#    z 0.000000 0.000000 3.703870 
# 
# 
# High freq. dielectric constant tensor:
#      x y z
#    x 1.703290 0.000000 0.000000 
#    y 0.000000 1.640720 0.000000 
#    z 0.000000 0.000000 1.702590 
# 
# From -- ./inp_files/66700.got.cif
#   From: 2010.03.12/outbox.cif.g09.slc.cpg/sg74_34_cif.got.tgz:66700.got - 2010.04.16 15:46:19.
