data_PCOD8301081
_publ_section_title
;
Structure prediction by ZEFSAII (Michael W. Deem and Ramdas Pophale) SiO2 
 PCOD8301081
Probable space group: I M M A
;
_chemical_formula_sum "Si O2"
_cell_formula_units_Z 96
_cell_length_a 19.209119
_cell_length_b 13.658312
_cell_length_c 15.393130
_cell_angle_alpha 90.000000
_cell_angle_beta 90.000000
_cell_angle_gamma 90.000000
_cell_volume 4038.605323
_symmetry_space_group_name_H-M "I M M A"
_symmetry_group_IT_number 74
_symmetry_cell_setting 'orthorhombic'
loop_
_space_group_symop_operation_xyz
x,y,z
-x,1/2-y,z
x,-y,-z
-x,1/2+y,-z
-x,-y,-z
x,1/2+y,-z
-x,y,z
x,1/2-y,z
1/2+x,1/2+y,1/2+z
1/2-x,-y,1/2+z
1/2+x,1/2-y,1/2-z
1/2-x,y,1/2-z
1/2-x,1/2-y,1/2-z
1/2+x,y,1/2-z
1/2-x,1/2+y,1/2+z
1/2+x,-y,1/2+z
loop_
_atom_site_type_symbol
_atom_site_label
_atom_site_fract_x
_atom_site_fract_y
_atom_site_fract_z
Si Si1 0.576291 0.356487 0.811965
Si Si2 0.200648 0.138021 0.905575
Si Si3 0.917718 0.366438 0.349633
Si Si4 0.921645 0.641031 0.962337
Si Si5 0.653437 0.363668 0.975491
Si Si6 0.124089 0.508910 0.806597
O O1 0.500000 0.344733 0.851572
O O2 0.606815 0.250000 0.785539
O O3 0.622151 0.408784 0.886681
O O4 0.572984 0.423478 0.726816
O O5 0.208828 0.250000 0.868848
O O6 0.263800 0.115962 0.972503
O O7 0.195495 0.052721 0.830904
O O8 0.128934 0.125805 0.957096
O O9 0.910265 0.250000 0.343621
O O10 0.882224 0.408141 0.438399
O O11 0.871521 0.411541 0.271159
O O12 0.000000 0.396930 0.344896
O O13 0.911406 0.750000 0.922642
O O14 0.907208 0.561563 0.889469
O O15 0.000000 0.626743 0.996791
O O16 0.634560 0.250000 0.974182
#
# Coordination Sequence:
#
# PCOD8301081 Si02
#       6
#    16  16  16  16  16  16
#     4  10  21  38  63  95 129 169 215 263 320 385
#     4  10  23  44  66  90 127 176 222 263 320 389
#     4  10  21  40  69 101 132 170 217 272 333 391
#     4  10  22  42  66  89 121 168 219 270 323 380
#     4   9  20  43  67  89 128 175 218 265 317 386
#     4  12  23  38  61  96 133 161 208 269 331 383
#
# _framework density 23.770581
#
# number of rings (size 3 to 8) (size 9 to 14) (size 15 to 20)
#    0.000    1.833    0.000    3.500    0.000    7.333 
#    9.000    5.833    0.000    4.000    0.000    0.000 
#    0.000    0.000    0.000    0.000    0.000    0.000 
#
# Total GULP energy -594659.101164 kJ/mol
# GULP energy per Si atom -12388.731274 kJ/mol
# Density = 2.371648 g / cm^3
# Si number density = 23.770581 Si / 1000 Ang^3
#
#
#
# Elastic Constant Matrix: (Units=GPa)
#
#
# Indices 1 2 3 4 5 6 
#
# 1 102.3755 31.7894 40.1197 0.0000 0.0000 0.0000
# 2 31.7894 120.0582 45.6540 0.0000 0.0000 0.0000
# 3 40.1197 45.6540 84.2326 0.0000 0.0000 0.0000
# 4 0.0000 0.0000 0.0000 92.7532 0.0000 0.0000
# 5 0.0000 0.0000 0.0000 0.0000 35.4087 0.0000
# 6 0.0000 0.0000 0.0000 0.0000 0.0000 -20.9011
#
#
#
# Elastic Compliance Matrix: (Units=1/GPa)
#
#
# Indices 1 2 3 4 5 6 
#
# 1 0.012164 -0.001282 -0.005099 0.000000 0.000000 0.000000
# 2 -0.001282 0.010627 -0.005149 0.000000 0.000000 0.000000
# 3 -0.005099 -0.005149 0.017091 0.000000 0.000000 0.000000
# 4 0.000000 0.000000 0.000000 0.010781 0.000000 0.000000
# 5 0.000000 0.000000 0.000000 0.000000 0.028242 0.000000
# 6 0.000000 0.000000 0.000000 0.000000 0.000000 -0.047844
#
#
# Mechanical properties :
#
#
# Convention : Reuss Voigt Hill
#
# Bulk Modulus (GPa) = 59.44496 60.19917 59.82206
# Shear Modulus (GPa) = 83.71214 34.05904 58.88559
#
# Velocity S-wave (km/s) = 5.94080 3.78937 4.98259
# Velocity P-wave (km/s) = 8.49233 6.67277 7.63693
#
# Compressibility (1/GPa) = 0.01682229
#
# Stress axis : x y z
#
# Youngs Moduli (GPa) = 82.20812 94.10208 58.50914
#
# Poissons Ratio (x) = 0.12063 0.29834
# Poissons Ratio (y) = 0.10538 0.30127
# Poissons Ratio (z) = 0.41918 0.48454
#
# Static dielectric constant tensor:
#      x y z
#    x 4.135050 0.000000 0.000000 
#    y 0.000000 4.692510 0.000000 
#    z 0.000000 0.000000 4.247420 
# 
# 
# High freq. dielectric constant tensor:
#      x y z
#    x 1.923270 0.000000 0.000000 
#    y 0.000000 1.969750 0.000000 
#    z 0.000000 0.000000 1.931870 
# 
# From -- ./inp_files/35301.got.cif
#   From: 2010.03.12/outbox.cif.g09.slc.cpg/sg74_18_cif.got.tgz:35301.got - 2010.04.16 15:46:19.
