data_PCOD8301771
_publ_section_title
;
Structure prediction by ZEFSAII (Michael W. Deem and Ramdas Pophale) SiO2 
 PCOD8301771
Probable space group: I M M A
;
_chemical_formula_sum "Si O2"
_cell_formula_units_Z 112
_cell_length_a 29.217813
_cell_length_b 9.889008
_cell_length_c 32.487262
_cell_angle_alpha 90.000000
_cell_angle_beta 90.000000
_cell_angle_gamma 90.000000
_cell_volume 9386.713105
_symmetry_space_group_name_H-M "I M M A"
_symmetry_group_IT_number 74
_symmetry_cell_setting 'orthorhombic'
loop_
_space_group_symop_operation_xyz
x,y,z
-x,1/2-y,z
x,-y,-z
-x,1/2+y,-z
-x,-y,-z
x,1/2+y,-z
-x,y,z
x,1/2-y,z
1/2+x,1/2+y,1/2+z
1/2-x,-y,1/2+z
1/2+x,1/2-y,1/2-z
1/2-x,y,1/2-z
1/2-x,1/2-y,1/2-z
1/2+x,y,1/2-z
1/2-x,1/2+y,1/2+z
1/2+x,-y,1/2+z
loop_
_atom_site_type_symbol
_atom_site_label
_atom_site_fract_x
_atom_site_fract_y
_atom_site_fract_z
Si Si1 0.911836 0.093899 0.963016
Si Si2 0.804404 0.596246 0.036178
Si Si3 0.133197 0.592932 0.178558
Si Si4 0.732455 0.401473 0.185044
Si Si5 0.223435 0.595120 0.126347
Si Si6 0.676654 0.598069 0.738723
Si Si7 0.050995 0.410347 0.876525
O O1 0.924451 0.250000 0.972460
O O2 0.858001 0.076116 0.956314
O O3 0.936392 0.038146 0.922081
O O4 0.929643 0.000000 0.000000
O O5 0.793731 0.750000 0.023378
O O6 0.778713 0.557585 0.078286
O O7 0.785929 0.500000 0.000000
O O8 0.129529 0.750000 0.190836
O O9 0.174030 0.567991 0.146407
O O10 0.140129 0.507769 0.220467
O O11 0.086852 0.536717 0.157438
O O12 0.725721 0.250000 0.167659
O O13 0.736929 0.504295 0.146964
O O14 0.689416 0.441326 0.214168
O O15 0.777825 0.408898 0.211979
O O16 0.237739 0.750000 0.132854
O O17 0.656260 0.750000 0.737172
O O18 0.054599 0.250000 0.877496
O O19 0.000000 0.460175 0.864762
#
# Coordination Sequence:
#
# PCOD8301771 Si02
#       7
#    16  16  16  16  16  16  16
#     4   9  16  27  39  49  61  77 100 131 167 205
#     4   9  16  25  35  47  63  82 105 133 162 194
#     4   9  15  24  37  50  62  79 104 129 154 190
#     4   8  14  23  34  49  67  84 100 117 143 185
#     4   9  15  23  35  49  65  81 101 130 159 185
#     4   8  14  24  35  48  67  85  98 116 146 185
#     4   9  16  26  39  51  63  81 104 131 166 204
#
# _framework density 11.931759
#
# number of rings (size 3 to 8) (size 9 to 14) (size 15 to 20)
#    0.000    3.286    1.429    0.857    0.000    1.429 
#    0.000    3.571    0.000    1.286    0.000    0.000 
#    0.000    0.000    0.000    0.000    0.000    0.000 
#
# Total GULP energy -694077.776538 kJ/mol
# GULP energy per Si atom -12394.246010 kJ/mol
# Density = 1.190460 g / cm^3
# Si number density = 11.931759 Si / 1000 Ang^3
#
#
#
# Elastic Constant Matrix: (Units=GPa)
#
#
# Indices 1 2 3 4 5 6 
#
# 1 38.2691 30.2821 42.4515 0.0000 0.0000 0.0000
# 2 30.2821 62.0707 52.6678 0.0000 0.0000 0.0000
# 3 42.4515 52.6678 80.7781 0.0000 0.0000 0.0000
# 4 0.0000 0.0000 0.0000 23.4330 0.0000 0.0000
# 5 0.0000 0.0000 0.0000 0.0000 16.2567 0.0000
# 6 0.0000 0.0000 0.0000 0.0000 0.0000 8.5756
#
#
#
# Elastic Compliance Matrix: (Units=1/GPa)
#
#
# Indices 1 2 3 4 5 6 
#
# 1 0.063634 -0.005974 -0.029546 0.000000 0.000000 0.000000
# 2 -0.005974 0.036622 -0.020738 0.000000 0.000000 0.000000
# 3 -0.029546 -0.020738 0.041428 0.000000 0.000000 0.000000
# 4 0.000000 0.000000 0.000000 0.042675 0.000000 0.000000
# 5 0.000000 0.000000 0.000000 0.000000 0.061513 0.000000
# 6 0.000000 0.000000 0.000000 0.000000 0.000000 0.116610
#
#
# Mechanical properties :
#
#
# Convention : Reuss Voigt Hill
#
# Bulk Modulus (GPa) = 34.28552 47.99120 41.13836
# Shear Modulus (GPa) = 10.31521 13.36748 11.84134
#
# Velocity S-wave (km/s) = 2.94346 3.35076 3.15369
# Velocity P-wave (km/s) = 6.35208 7.43497 6.91476
#
# Compressibility (1/GPa) = 0.02916684
#
# Stress axis : x y z
#
# Youngs Moduli (GPa) = 15.71496 27.30624 24.13801
#
# Poissons Ratio (x) = 0.16313 0.71319
# Poissons Ratio (y) = 0.09388 0.50057
# Poissons Ratio (z) = 0.46432 0.56628
#
# Static dielectric constant tensor:
#      x y z
#    x 2.252990 0.000000 0.000000 
#    y 0.000000 2.519360 0.000000 
#    z 0.000000 0.000000 2.539380 
# 
# 
# High freq. dielectric constant tensor:
#      x y z
#    x 1.401780 0.000000 0.000000 
#    y 0.000000 1.449590 0.000000 
#    z 0.000000 0.000000 1.440530 
# 
# From -- ./inp_files/62047.got.cif
#   From: 2010.03.12/outbox.cif.g09.slc.cpg/sg74_32_cif.got.tgz:62047.got - 2010.04.16 15:46:19.
