data_PCOD8301944
_publ_section_title
;
Structure prediction by ZEFSAII (Michael W. Deem and Ramdas Pophale) SiO2 
 PCOD8301944
Probable space group: P 41
;
_chemical_formula_sum "Si O2"
_cell_formula_units_Z 28
_cell_length_a 9.477402
_cell_length_b 9.477402
_cell_length_c 14.771400
_cell_angle_alpha 90.000000
_cell_angle_beta 90.000000
_cell_angle_gamma 90.000000
_cell_volume 1326.784115
_symmetry_space_group_name_H-M "P 41"
_symmetry_group_IT_number 76
_symmetry_cell_setting 'tetragonal'
loop_
_space_group_symop_operation_xyz
x,y,z
-y,x,1/4+z
-x,-y,1/2+z
y,-x,3/4+z
loop_
_atom_site_type_symbol
_atom_site_label
_atom_site_fract_x
_atom_site_fract_y
_atom_site_fract_z
Si Si1 0.459410 0.040590 0.931880
Si Si2 0.920364 0.370753 0.380996
Si Si3 0.723379 0.616292 0.693968
Si Si4 0.116292 0.223379 0.669792
Si Si5 0.420364 0.129247 0.732764
Si Si6 0.874039 0.832424 0.965519
Si Si7 0.332424 0.374039 0.398241
O O1 0.620328 0.082397 0.954663
O O2 0.407752 0.118352 0.841082
O O3 0.417603 0.879672 0.909097
O O4 0.381648 0.092248 0.022678
O O5 0.765953 0.344099 0.420898
O O6 0.995555 0.504445 0.431880
O O7 0.009718 0.229636 0.397704
O O8 0.619410 0.501252 0.648870
O O9 0.729746 0.591691 0.800689
O O10 0.265953 0.155901 0.692862
O O11 0.091691 0.229746 0.563071
O O12 0.001251 0.119411 0.714890
O O13 0.509718 0.270364 0.716056
O O14 0.719380 0.780620 0.931880
#
# Coordination Sequence:
#
# PCOD8301944 Si02
#       7
#     4   4   4   4   4   4   4
#     4  12  24  46  74 106 152 184 242 310 356 428
#     4  11  25  46  73 108 144 185 241 302 361 424
#     4  12  24  46  74 104 142 191 242 295 356 430
#     4  12  24  46  74 104 142 191 242 295 356 430
#     4  11  25  46  73 108 144 185 241 302 361 424
#     4  11  22  44  75 100 134 194 245 285 351 438
#     4  11  22  44  75 100 134 194 245 285 351 438
#
# _framework density 21.103659
#
# number of rings (size 3 to 8) (size 9 to 14) (size 15 to 20)
#    0.000    0.571    7.143    3.429    0.000    2.286 
#    7.714    0.000    0.000    0.000    0.000    0.000 
#    0.000    0.000    0.000    0.000    0.000    0.000 
#
# Total GULP energy -347139.098460 kJ/mol
# GULP energy per Si atom -12397.824945 kJ/mol
# Density = 2.105563 g / cm^3
# Si number density = 21.103659 Si / 1000 Ang^3
#
#
#
# Elastic Constant Matrix: (Units=GPa)
#
#
# Indices 1 2 3 4 5 6 
#
# 1 114.1190 84.0800 26.4616 0.0000 0.0000 0.0000
# 2 84.0800 114.1190 26.4616 0.0000 0.0000 0.0000
# 3 26.4616 26.4616 129.6166 0.0000 0.0000 0.0000
# 4 0.0000 0.0000 0.0000 15.2542 0.0000 0.0000
# 5 0.0000 0.0000 0.0000 0.0000 15.2542 0.0000
# 6 0.0000 0.0000 0.0000 0.0000 0.0000 36.6968
#
#
#
# Elastic Compliance Matrix: (Units=1/GPa)
#
#
# Indices 1 2 3 4 5 6 
#
# 1 0.019313 -0.013977 -0.001089 0.000000 0.000000 0.000000
# 2 -0.013977 0.019313 -0.001089 0.000000 0.000000 0.000000
# 3 -0.001089 -0.001089 0.008160 0.000000 0.000000 0.000000
# 4 0.000000 0.000000 0.000000 0.065556 0.000000 0.000000
# 5 0.000000 0.000000 0.000000 0.000000 0.065556 0.000000
# 6 0.000000 0.000000 0.000000 0.000000 0.000000 0.027250
#
#
# Mechanical properties :
#
#
# Convention : Reuss Voigt Hill
#
# Bulk Modulus (GPa) = 69.08544 70.20681 69.64613
# Shear Modulus (GPa) = 20.63694 28.16449 24.40071
#
# Velocity S-wave (km/s) = 3.13051 3.65715 3.40403
# Velocity P-wave (km/s) = 6.77304 7.15352 6.96588
#
# Compressibility (1/GPa) = 0.01447483
#
# Stress axis : x y z
#
# Youngs Moduli (GPa) = 51.77810 51.77810 122.55082
#
# Poissons Ratio (x) = 0.72369 0.13351
# Poissons Ratio (y) = 0.72369 0.13351
# Poissons Ratio (z) = 0.05641 0.05641
#
# Static dielectric constant tensor:
#      x y z
#    x 3.821860 0.000000 0.000000 
#    y 0.000000 3.821860 0.000000 
#    z 0.000000 0.000000 3.861770 
# 
# 
# High freq. dielectric constant tensor:
#      x y z
#    x 1.824020 0.000000 0.000000 
#    y 0.000000 1.824020 0.000000 
#    z 0.000000 0.000000 1.838070 
# 
# From -- ./inp_files/1107.got.cif
#   From: 2010.03.12/outbox.cif.g09.slc.cpg/sg76_cif.got.tgz:1107.got - 2010.04.16 16:34:25.
