data_PCOD8301281
_publ_section_title
;
Structure prediction by ZEFSAII (Michael W. Deem and Ramdas Pophale) SiO2 
 PCOD8301281
Probable space group: I M M A
;
_chemical_formula_sum "Si O2"
_cell_formula_units_Z 96
_cell_length_a 17.379099
_cell_length_b 25.272546
_cell_length_c 11.684943
_cell_angle_alpha 90.000000
_cell_angle_beta 90.000000
_cell_angle_gamma 90.000000
_cell_volume 5132.191477
_symmetry_space_group_name_H-M "I M M A"
_symmetry_group_IT_number 74
_symmetry_cell_setting 'orthorhombic'
loop_
_space_group_symop_operation_xyz
x,y,z
-x,1/2-y,z
x,-y,-z
-x,1/2+y,-z
-x,-y,-z
x,1/2+y,-z
-x,y,z
x,1/2-y,z
1/2+x,1/2+y,1/2+z
1/2-x,-y,1/2+z
1/2+x,1/2-y,1/2-z
1/2-x,y,1/2-z
1/2-x,1/2-y,1/2-z
1/2+x,y,1/2-z
1/2-x,1/2+y,1/2+z
1/2+x,-y,1/2+z
loop_
_atom_site_type_symbol
_atom_site_label
_atom_site_fract_x
_atom_site_fract_y
_atom_site_fract_z
Si Si1 0.353015 0.422584 0.450339
Si Si2 0.773568 0.250000 0.433903
Si Si3 0.632059 0.750000 0.706025
Si Si4 0.082756 0.139615 0.249395
Si Si5 0.089945 0.951054 0.419319
Si Si6 0.589820 0.974850 0.341724
Si Si7 0.689174 0.632600 0.961757
O O1 0.406609 0.387232 0.372089
O O2 0.353723 0.479785 0.389155
O O3 0.390062 0.424431 0.578020
O O4 0.268553 0.398392 0.456434
O O5 0.681221 0.250000 0.412982
O O6 0.809158 0.250000 0.309960
O O7 0.799375 0.305065 0.497268
O O8 0.576645 0.700597 0.717006
O O9 0.151011 0.126764 0.336747
O O10 0.000000 0.121737 0.301851
O O11 0.111100 0.964473 0.289227
O O12 0.134248 0.896708 0.447933
O O13 0.000000 0.939926 0.434758
O O14 0.116218 0.000000 0.500000
O O15 0.500000 0.990502 0.354623
#
# Coordination Sequence:
#
# PCOD8301281 Si02
#       7
#    16   8   8  16  16  16  16
#     4  11  21  35  57  83 114 152 188 231 291 355
#     4   9  18  36  54  80 118 151 185 243 295 338
#     4   9  17  32  52  79 113 144 182 232 289 328
#     4  11  20  33  55  83 114 148 190 230 284 342
#     4  10  22  40  60  84 117 152 191 244 299 348
#     4  10  22  40  58  81 116 151 192 240 293 352
#     4  11  22  36  58  86 117 155 194 243 293 352
#
# _framework density 18.705459999999999
#
# number of rings (size 3 to 8) (size 9 to 14) (size 15 to 20)
#    0.000    1.667    1.667    4.250    2.333    2.000 
#    0.000    1.250    0.000    3.000    0.000    2.333 
#    0.000    0.000    0.000    0.000    0.000    0.000 
#
# Total GULP energy -594842.799409 kJ/mol
# GULP energy per Si atom -12392.558321 kJ/mol
# Density = 1.866289 g / cm^3
# Si number density = 18.705460 Si / 1000 Ang^3
#
#
#
# Elastic Constant Matrix: (Units=GPa)
#
#
# Indices 1 2 3 4 5 6 
#
# 1 94.5861 53.2957 35.7443 0.0000 0.0000 0.0000
# 2 53.2957 110.0739 63.6632 0.0000 0.0000 0.0000
# 3 35.7443 63.6632 126.5532 0.0001 0.0001 0.0001
# 4 0.0000 0.0000 0.0001 23.2365 0.0000 0.0000
# 5 0.0000 0.0000 0.0001 0.0000 27.3692 0.0000
# 6 0.0000 0.0000 0.0001 0.0000 0.0000 28.4602
#
#
#
# Elastic Compliance Matrix: (Units=1/GPa)
#
#
# Indices 1 2 3 4 5 6 
#
# 1 0.014596 -0.006604 -0.000800 0.000000 0.000000 0.000000
# 2 -0.006604 0.015801 -0.006083 0.000000 0.000000 0.000000
# 3 -0.000800 -0.006083 0.011188 0.000000 0.000000 0.000000
# 4 0.000000 0.000000 0.000000 0.043036 0.000000 0.000000
# 5 0.000000 0.000000 0.000000 0.000000 0.036537 0.000000
# 6 0.000000 0.000000 0.000000 0.000000 0.000000 0.035137
#
#
# Mechanical properties :
#
#
# Convention : Reuss Voigt Hill
#
# Bulk Modulus (GPa) = 68.44988 70.73551 69.59269
# Shear Modulus (GPa) = 26.57586 27.71384 27.14485
#
# Velocity S-wave (km/s) = 3.77338 3.85332 3.81356
# Velocity P-wave (km/s) = 7.46039 7.59572 7.52836
#
# Compressibility (1/GPa) = 0.01460923
#
# Stress axis : x y z
#
# Youngs Moduli (GPa) = 68.51167 63.28758 89.38056
#
# Poissons Ratio (x) = 0.41797 0.07153
# Poissons Ratio (y) = 0.45247 0.54373
# Poissons Ratio (z) = 0.05483 0.38500
#
# Static dielectric constant tensor:
#      x y z
#    x 3.521730 0.000000 0.000000 
#    y 0.000000 8.523540 0.000000 
#    z 0.000000 0.000000 3.558320 
# 
# 
# High freq. dielectric constant tensor:
#      x y z
#    x 1.734430 0.000000 0.000000 
#    y 0.000000 1.727450 0.000000 
#    z 0.000000 0.000000 1.702670 
# 
# From -- ./inp_files/22712.got.cif
#   From: 2010.03.12/outbox.cif.g09.slc.cpg/sg74_12_cif.got.tgz:22712.got - 2010.04.16 15:46:19.
