data_PCOD8301407
_publ_section_title
;
Structure prediction by ZEFSAII (Michael W. Deem and Ramdas Pophale) SiO2 
 PCOD8301407
Probable space group: I M M A
;
_chemical_formula_sum "Si O2"
_cell_formula_units_Z 56
_cell_length_a 23.364357
_cell_length_b 10.129594
_cell_length_c 12.137400
_cell_angle_alpha 90.000000
_cell_angle_beta 90.000000
_cell_angle_gamma 90.000000
_cell_volume 2872.576063
_symmetry_space_group_name_H-M "I M M A"
_symmetry_group_IT_number 74
_symmetry_cell_setting 'orthorhombic'
loop_
_space_group_symop_operation_xyz
x,y,z
-x,1/2-y,z
x,-y,-z
-x,1/2+y,-z
-x,-y,-z
x,1/2+y,-z
-x,y,z
x,1/2-y,z
1/2+x,1/2+y,1/2+z
1/2-x,-y,1/2+z
1/2+x,1/2-y,1/2-z
1/2-x,y,1/2-z
1/2-x,1/2-y,1/2-z
1/2+x,y,1/2-z
1/2-x,1/2+y,1/2+z
1/2+x,-y,1/2+z
loop_
_atom_site_type_symbol
_atom_site_label
_atom_site_fract_x
_atom_site_fract_y
_atom_site_fract_z
Si Si1 0.719238 0.000000 0.000000
Si Si2 0.866343 0.002729 0.687108
Si Si3 0.434937 0.750000 0.830396
Si Si4 0.434288 0.750000 0.092136
Si Si5 0.171333 0.895646 0.082256
O O1 0.679770 0.051664 0.099360
O O2 0.761211 0.885854 0.048294
O O3 0.904120 0.119218 0.636152
O O4 0.833386 0.054524 0.793577
O O5 0.906089 0.880282 0.720251
O O6 0.500000 0.750000 0.790722
O O7 0.430134 0.750000 0.961555
O O8 0.500000 0.750000 0.132079
O O9 0.143911 0.750000 0.070093
O O10 0.139750 0.000000 0.000000
#
# Coordination Sequence:
#
# PCOD8301407 Si02
#       5
#     8  16   8   8  16
#     4  10  24  36  63  96 125 166 204 244 304 374
#     4  12  22  39  66  91 129 167 199 255 314 363
#     4  11  24  40  62  96 128 155 206 263 314 367
#     4  11  22  40  64  94 124 161 210 257 312 367
#     4  10  25  41  61  90 131 166 211 246 299 370
#
# _framework density 19.494699000000001
#
# number of rings (size 3 to 8) (size 9 to 14) (size 15 to 20)
#    0.857    0.286    4.286    1.714    6.000    3.429 
#    0.000    2.857    0.000    5.143    0.000    0.000 
#    0.000    0.000    0.000    0.000    0.000    0.000 
#
# Total GULP energy -347045.516463 kJ/mol
# GULP energy per Si atom -12394.482731 kJ/mol
# Density = 1.945033 g / cm^3
# Si number density = 19.494699 Si / 1000 Ang^3
#
#
#
# Elastic Constant Matrix: (Units=GPa)
#
#
# Indices 1 2 3 4 5 6 
#
# 1 85.5614 48.1135 40.5459 0.0000 0.0000 0.0000
# 2 48.1135 151.5200 38.6180 0.0000 0.0000 0.0000
# 3 40.5459 38.6180 107.5394 0.0000 0.0000 0.0000
# 4 0.0000 0.0000 0.0000 22.3180 0.0000 0.0000
# 5 0.0000 0.0000 0.0000 0.0000 13.0915 0.0000
# 6 0.0000 0.0000 0.0000 0.0000 0.0000 21.8979
#
#
#
# Elastic Compliance Matrix: (Units=1/GPa)
#
#
# Indices 1 2 3 4 5 6 
#
# 1 0.016104 -0.003925 -0.004662 0.000000 0.000000 0.000000
# 2 -0.003925 0.008222 -0.001472 0.000000 0.000000 0.000000
# 3 -0.004662 -0.001472 0.011585 0.000000 0.000000 0.000000
# 4 0.000000 0.000000 0.000000 0.044807 0.000000 0.000000
# 5 0.000000 0.000000 0.000000 0.000000 0.076385 0.000000
# 6 0.000000 0.000000 0.000000 0.000000 0.000000 0.045667
#
#
# Mechanical properties :
#
#
# Convention : Reuss Voigt Hill
#
# Bulk Modulus (GPa) = 63.32643 66.57507 64.95075
# Shear Modulus (GPa) = 21.91504 25.95103 23.93304
#
# Velocity S-wave (km/s) = 3.35648 3.65250 3.50761
# Velocity P-wave (km/s) = 6.89751 7.21194 7.05648
#
# Compressibility (1/GPa) = 0.01579120
#
# Stress axis : x y z
#
# Youngs Moduli (GPa) = 62.09550 121.63169 86.31517
#
# Poissons Ratio (x) = 0.47746 0.40242
# Poissons Ratio (y) = 0.24375 0.12709
# Poissons Ratio (z) = 0.28950 0.17909
#
# Static dielectric constant tensor:
#      x y z
#    x 3.522380 0.000000 0.000000 
#    y 0.000000 3.566610 0.000000 
#    z 0.000000 0.000000 3.503670 
# 
# 
# High freq. dielectric constant tensor:
#      x y z
#    x 1.744740 0.000000 0.000000 
#    y 0.000000 1.764440 0.000000 
#    z 0.000000 0.000000 1.753140 
# 
# From -- ./inp_files/34830.got.cif
#   From: 2010.03.12/outbox.cif.g09.slc.cpg/sg74_18_cif.got.tgz:34830.got - 2010.04.16 15:46:19.
