data_PCOD8301647
_publ_section_title
;
Structure prediction by ZEFSAII (Michael W. Deem and Ramdas Pophale) SiO2 
 PCOD8301647
Probable space group: I M M A
;
_chemical_formula_sum "Si O2"
_cell_formula_units_Z 80
_cell_length_a 21.162924
_cell_length_b 14.806881
_cell_length_c 11.644788
_cell_angle_alpha 90.000000
_cell_angle_beta 90.000000
_cell_angle_gamma 90.000000
_cell_volume 3648.974637
_symmetry_space_group_name_H-M "I M M A"
_symmetry_group_IT_number 74
_symmetry_cell_setting 'orthorhombic'
loop_
_space_group_symop_operation_xyz
x,y,z
-x,1/2-y,z
x,-y,-z
-x,1/2+y,-z
-x,-y,-z
x,1/2+y,-z
-x,y,z
x,1/2-y,z
1/2+x,1/2+y,1/2+z
1/2-x,-y,1/2+z
1/2+x,1/2-y,1/2-z
1/2-x,y,1/2-z
1/2-x,1/2-y,1/2-z
1/2+x,y,1/2-z
1/2-x,1/2+y,1/2+z
1/2+x,-y,1/2+z
loop_
_atom_site_type_symbol
_atom_site_label
_atom_site_fract_x
_atom_site_fract_y
_atom_site_fract_z
Si Si1 0.933358 0.652343 0.704863
Si Si2 0.574276 0.352070 0.779662
Si Si3 0.846866 0.894279 0.502804
Si Si4 0.392227 0.485177 0.375172
Si Si5 0.776343 0.351906 0.122296
O O1 0.925136 0.750000 0.763952
O O2 0.876110 0.639533 0.620641
O O3 0.937884 0.578843 0.804023
O O4 0.000000 0.646803 0.636459
O O5 0.500000 0.379369 0.800056
O O6 0.577183 0.250000 0.730914
O O7 0.610091 0.418430 0.690794
O O8 0.615295 0.352394 0.896635
O O9 0.774205 0.863912 0.517817
O O10 0.853509 0.000000 0.500000
O O11 0.422432 0.500000 0.500000
O O12 0.325844 0.433278 0.392188
O O13 0.804725 0.250000 0.110115
O O14 0.750000 0.364767 0.250000
#
# Coordination Sequence:
#
# PCOD8301647 Si02
#       5
#    16  16  16  16  16
#     4  11  23  40  66  98 130 171 226 285 347 417
#     4  11  25  45  70 104 144 183 229 293 363 425
#     4  12  22  40  71 104 140 176 223 281 360 422
#     4  12  26  43  65  94 136 186 239 283 343 409
#     4  11  22  41  69  99 136 178 227 287 342 406
#
# _framework density 21.923967000000001
#
# number of rings (size 3 to 8) (size 9 to 14) (size 15 to 20)
#    0.000    0.600    4.000    4.200    0.000    5.600 
#    0.000    2.000    0.000    4.200    0.000    0.000 
#    0.000    0.000    0.000    0.000    0.000    0.000 
#
# Total GULP energy -495581.102317 kJ/mol
# GULP energy per Si atom -12389.527558 kJ/mol
# Density = 2.187407 g / cm^3
# Si number density = 21.923967 Si / 1000 Ang^3
#
#
#
# Elastic Constant Matrix: (Units=GPa)
#
#
# Indices 1 2 3 4 5 6 
#
# 1 126.6217 44.9379 27.6324 0.0000 0.0000 0.0000
# 2 44.9379 173.2219 46.7246 0.0000 0.0000 0.0000
# 3 27.6324 46.7246 108.6970 0.0000 0.0000 0.0000
# 4 0.0000 0.0000 0.0000 -12.2075 0.0000 0.0000
# 5 0.0000 0.0000 0.0000 0.0000 22.3423 0.0000
# 6 0.0000 0.0000 0.0000 0.0000 0.0000 41.4035
#
#
#
# Elastic Compliance Matrix: (Units=1/GPa)
#
#
# Indices 1 2 3 4 5 6 
#
# 1 0.008892 -0.001920 -0.001435 0.000000 0.000000 0.000000
# 2 -0.001920 0.006945 -0.002497 0.000000 0.000000 0.000000
# 3 -0.001435 -0.002497 0.010638 0.000000 0.000000 0.000000
# 4 0.000000 0.000000 0.000000 -0.081917 0.000000 0.000000
# 5 0.000000 0.000000 0.000000 0.000000 0.044758 0.000000
# 6 0.000000 0.000000 0.000000 0.000000 0.000000 0.024153
#
#
# Mechanical properties :
#
#
# Convention : Reuss Voigt Hill
#
# Bulk Modulus (GPa) = 67.70248 71.90337 69.80293
# Shear Modulus (GPa) = 166.13302 29.59070 97.86186
#
# Velocity S-wave (km/s) = 8.71444 3.67781 6.68834
# Velocity P-wave (km/s) = 11.49795 7.13463 9.56833
#
# Compressibility (1/GPa) = 0.01477051
#
# Stress axis : x y z
#
# Youngs Moduli (GPa) = 112.46004 143.99820 94.00086
#
# Poissons Ratio (x) = 0.27643 0.13492
# Poissons Ratio (y) = 0.21588 0.23474
# Poissons Ratio (z) = 0.16141 0.35959
#
# Static dielectric constant tensor:
#      x y z
#    x 4.099890 0.000000 0.000000 
#    y 0.000000 4.284410 0.000000 
#    z 0.000000 0.000000 3.883550 
# 
# 
# High freq. dielectric constant tensor:
#      x y z
#    x 1.866700 0.000000 0.000000 
#    y 0.000000 1.888450 0.000000 
#    z 0.000000 0.000000 1.840020 
# 
# From -- ./inp_files/20499.got.cif
#   From: 2010.03.12/outbox.cif.g09.slc.cpg/sg74_11_cif.got.tgz:20499.got - 2010.04.16 15:46:19.
