data_PCOD8301619
_publ_section_title
;
Structure prediction by ZEFSAII (Michael W. Deem and Ramdas Pophale) SiO2 
 PCOD8301619
Probable space group: I M M A
;
_chemical_formula_sum "Si O2"
_cell_formula_units_Z 72
_cell_length_a 10.634401
_cell_length_b 14.381703
_cell_length_c 25.108235
_cell_angle_alpha 90.000000
_cell_angle_beta 90.000000
_cell_angle_gamma 90.000000
_cell_volume 3840.073466
_symmetry_space_group_name_H-M "I M M A"
_symmetry_group_IT_number 74
_symmetry_cell_setting 'orthorhombic'
loop_
_space_group_symop_operation_xyz
x,y,z
-x,1/2-y,z
x,-y,-z
-x,1/2+y,-z
-x,-y,-z
x,1/2+y,-z
-x,y,z
x,1/2-y,z
1/2+x,1/2+y,1/2+z
1/2-x,-y,1/2+z
1/2+x,1/2-y,1/2-z
1/2-x,y,1/2-z
1/2-x,1/2-y,1/2-z
1/2+x,y,1/2-z
1/2-x,1/2+y,1/2+z
1/2+x,-y,1/2+z
loop_
_atom_site_type_symbol
_atom_site_label
_atom_site_fract_x
_atom_site_fract_y
_atom_site_fract_z
Si Si1 0.250000 0.460446 0.250000
Si Si2 0.754887 0.438208 0.052799
Si Si3 0.146729 0.445231 0.850559
Si Si4 0.500000 0.641539 0.906054
Si Si5 0.000000 0.855708 0.720091
Si Si6 0.645008 0.250000 0.488967
Si Si7 0.149115 0.250000 0.894026
O O1 0.233746 0.523661 0.198119
O O2 0.125487 0.399060 0.255393
O O3 0.832497 0.490771 0.098114
O O4 0.615300 0.415921 0.071060
O O5 0.822230 0.340467 0.044488
O O6 0.754640 0.500000 0.000000
O O7 0.194314 0.341249 0.862925
O O8 0.000000 0.448218 0.834863
O O9 0.500000 0.750000 0.924641
O O10 0.500000 0.634855 0.842959
O O11 0.000000 0.750000 0.738732
O O12 0.500000 0.250000 0.500897
O O13 0.712155 0.250000 0.547003
O O14 0.000000 0.250000 0.898704
#
# Coordination Sequence:
#
# PCOD8301619 Si02
#       7
#     8  16  16   8   8   8   8
#     4  12  23  43  66  90 128 162 216 262 308 368
#     4  12  23  39  63  90 126 162 204 254 304 369
#     4  11  23  40  65  93 123 163 207 258 310 366
#     4  11  23  41  61  87 122 165 203 244 310 372
#     4  11  24  43  65  91 124 167 210 260 310 367
#     4  11  22  37  60  93 127 157 198 252 307 366
#     4   9  20  39  62  90 123 161 205 252 310 363
#
# _framework density 18.749642000000001
#
# number of rings (size 3 to 8) (size 9 to 14) (size 15 to 20)
#    0.000    0.889    6.667    1.333    0.000    1.333 
#    2.000    0.000    0.000    1.333    0.000    0.000 
#    0.000    0.000    0.000    0.000    0.000    0.000 
#
# Total GULP energy -446482.864547 kJ/mol
# GULP energy per Si atom -12402.301793 kJ/mol
# Density = 1.870697 g / cm^3
# Si number density = 18.749642 Si / 1000 Ang^3
#
#
#
# Elastic Constant Matrix: (Units=GPa)
#
#
# Indices 1 2 3 4 5 6 
#
# 1 88.2731 41.1861 27.8625 0.0000 0.0000 0.0000
# 2 41.1861 163.5584 66.2549 0.0000 0.0000 0.0000
# 3 27.8625 66.2549 114.8299 0.0000 0.0000 0.0000
# 4 0.0000 0.0000 0.0000 36.8628 0.0000 0.0000
# 5 0.0000 0.0000 0.0000 0.0000 25.8117 0.0000
# 6 0.0000 0.0000 0.0000 0.0000 0.0000 16.0954
#
#
#
# Elastic Compliance Matrix: (Units=1/GPa)
#
#
# Indices 1 2 3 4 5 6 
#
# 1 0.013075 -0.002620 -0.001661 0.000000 0.000000 0.000000
# 2 -0.002620 0.008504 -0.004271 0.000000 0.000000 0.000000
# 3 -0.001661 -0.004271 0.011576 0.000000 0.000000 0.000000
# 4 0.000000 0.000000 0.000000 0.027128 0.000000 0.000000
# 5 0.000000 0.000000 0.000000 0.000000 0.038742 0.000000
# 6 0.000000 0.000000 0.000000 0.000000 0.000000 0.062129
#
#
# Mechanical properties :
#
#
# Convention : Reuss Voigt Hill
#
# Bulk Modulus (GPa) = 62.29967 70.80760 66.55363
# Shear Modulus (GPa) = 27.23205 31.17787 29.20496
#
# Velocity S-wave (km/s) = 3.81518 4.08223 3.95096
# Velocity P-wave (km/s) = 7.25994 7.75024 7.50909
#
# Compressibility (1/GPa) = 0.01605145
#
# Stress axis : x y z
#
# Youngs Moduli (GPa) = 76.48174 117.59537 86.38705
#
# Poissons Ratio (x) = 0.30805 0.14350
# Poissons Ratio (y) = 0.20035 0.36895
# Poissons Ratio (z) = 0.12704 0.50224
#
# Static dielectric constant tensor:
#      x y z
#    x 3.349390 0.000000 0.000000 
#    y 0.000000 3.675590 0.000000 
#    z 0.000000 0.000000 3.535170 
# 
# 
# High freq. dielectric constant tensor:
#      x y z
#    x 1.722960 0.000000 0.000000 
#    y 0.000000 1.743030 0.000000 
#    z 0.000000 0.000000 1.737200 
# 
# From -- ./inp_files/63753.got.cif
#   From: 2010.03.12/outbox.cif.g09.slc.cpg/sg74_32_cif.got.tgz:63753.got - 2010.04.16 15:46:19.
