data_PCOD8301255
_publ_section_title
;
Structure prediction by ZEFSAII (Michael W. Deem and Ramdas Pophale) SiO2 
 PCOD8301255
Probable space group: I M M A
;
_chemical_formula_sum "Si O2"
_cell_formula_units_Z 112
_cell_length_a 17.499750
_cell_length_b 28.457020
_cell_length_c 10.995082
_cell_angle_alpha 90.000000
_cell_angle_beta 90.000000
_cell_angle_gamma 90.000000
_cell_volume 5475.448975
_symmetry_space_group_name_H-M "I M M A"
_symmetry_group_IT_number 74
_symmetry_cell_setting 'orthorhombic'
loop_
_space_group_symop_operation_xyz
x,y,z
-x,1/2-y,z
x,-y,-z
-x,1/2+y,-z
-x,-y,-z
x,1/2+y,-z
-x,y,z
x,1/2-y,z
1/2+x,1/2+y,1/2+z
1/2-x,-y,1/2+z
1/2+x,1/2-y,1/2-z
1/2-x,y,1/2-z
1/2-x,1/2-y,1/2-z
1/2+x,y,1/2-z
1/2-x,1/2+y,1/2+z
1/2+x,-y,1/2+z
loop_
_atom_site_type_symbol
_atom_site_label
_atom_site_fract_x
_atom_site_fract_y
_atom_site_fract_z
Si Si1 0.693330 0.552235 0.638894
Si Si2 0.693255 0.555829 0.360780
Si Si3 0.850655 0.803645 0.037058
Si Si4 0.585555 0.864968 0.277769
Si Si5 0.916651 0.800883 0.619472
Si Si6 0.086731 0.865546 0.840383
Si Si7 0.180934 0.197587 0.609434
O O1 0.750000 0.566125 0.750000
O O2 0.725887 0.562784 0.500354
O O3 0.668907 0.498208 0.652638
O O4 0.615610 0.581114 0.658921
O O5 0.750000 0.569090 0.250000
O O6 0.619211 0.588461 0.341857
O O7 0.864264 0.750000 0.002917
O O8 0.917381 0.822913 0.123993
O O9 0.771527 0.812258 0.110439
O O10 0.853673 0.833674 0.914836
O O11 0.500000 0.875766 0.231513
O O12 0.637999 0.846163 0.169030
O O13 0.912660 0.750000 0.688453
O O14 0.909589 0.845288 0.705814
O O15 0.846377 0.802220 0.528394
O O16 0.000000 0.804082 0.552999
O O17 0.000000 0.863839 0.891481
O O18 0.164901 0.250000 0.667503
#
# Coordination Sequence:
#
# PCOD8301255 Si02
#       7
#    16  16  16  16  16  16  16
#     4  10  23  41  67  94 121 162 207 257 315 374
#     4  10  22  43  66  93 124 159 207 260 314 374
#     4  11  23  37  56  84 119 160 205 251 300 356
#     4  12  24  37  60  90 120 161 203 251 312 369
#     4   9  19  36  57  83 120 164 206 252 309 371
#     4  11  23  37  57  88 122 159 202 254 313 368
#     4  10  22  39  59  86 121 164 212 257 303 366
#
# _framework density 20.454941999999999
#
# number of rings (size 3 to 8) (size 9 to 14) (size 15 to 20)
#    0.000    1.571    1.429    3.000    2.000    4.857 
#    0.000    3.571    0.000    0.000    0.000    7.000 
#    0.000    0.000    0.000    0.000    0.000    0.000 
#
# Total GULP energy -693914.260911 kJ/mol
# GULP energy per Si atom -12391.326088 kJ/mol
# Density = 2.040839 g / cm^3
# Si number density = 20.454942 Si / 1000 Ang^3
#
#
#
# Elastic Constant Matrix: (Units=GPa)
#
#
# Indices 1 2 3 4 5 6 
#
# 1 84.6695 58.7693 34.6149 -0.0005 0.0000 -0.0006
# 2 58.7693 108.9180 40.7108 -0.0008 -0.0002 -0.0001
# 3 34.6149 40.7108 91.2140 -0.0056 -0.0016 -0.0023
# 4 -0.0005 -0.0008 -0.0056 33.2314 -0.0002 0.0002
# 5 0.0000 -0.0002 -0.0016 -0.0002 26.6165 -0.0003
# 6 -0.0006 -0.0001 -0.0023 0.0002 -0.0003 22.1002
#
#
#
# Elastic Compliance Matrix: (Units=1/GPa)
#
#
# Indices 1 2 3 4 5 6 
#
# 1 0.019664 -0.009387 -0.003273 0.000000 0.000000 0.000000
# 2 -0.009387 0.015501 -0.003356 0.000000 0.000000 -0.000001
# 3 -0.003273 -0.003356 0.013703 0.000002 0.000001 0.000001
# 4 0.000000 0.000000 0.000002 0.030092 0.000000 0.000000
# 5 0.000000 0.000000 0.000001 0.000000 0.037571 0.000001
# 6 0.000000 -0.000001 0.000001 0.000000 0.000001 0.045248
#
#
# Mechanical properties :
#
#
# Convention : Reuss Voigt Hill
#
# Bulk Modulus (GPa) = 59.39527 61.44350 60.41939
# Shear Modulus (GPa) = 25.07241 26.43671 25.75456
#
# Velocity S-wave (km/s) = 3.50485 3.59895 3.55221
# Velocity P-wave (km/s) = 6.74380 6.88285 6.81368
#
# Compressibility (1/GPa) = 0.01683636
#
# Stress axis : x y z
#
# Youngs Moduli (GPa) = 50.85401 64.51381 72.97641
#
# Poissons Ratio (x) = 0.60559 0.23883
# Poissons Ratio (y) = 0.47737 0.24491
# Poissons Ratio (z) = 0.16643 0.21651
#
# Static dielectric constant tensor:
#      x y z
#    x 3.640110 0.000000 0.000000 
#    y 0.000000 3.826560 0.000000 
#    z 0.000000 0.000000 3.775830 
# 
# 
# High freq. dielectric constant tensor:
#      x y z
#    x 1.783100 0.000000 0.000000 
#    y 0.000000 1.807990 0.000000 
#    z 0.000000 0.000000 1.801720 
# 
# From -- ./inp_files/21154.got.cif
#   From: 2010.03.12/outbox.cif.g09.slc.cpg/sg74_11_cif.got.tgz:21154.got - 2010.04.16 15:46:19.
