data_PCOD8301269
_publ_section_title
;
Structure prediction by ZEFSAII (Michael W. Deem and Ramdas Pophale) SiO2 
 PCOD8301269
Probable space group: I M M A
;
_chemical_formula_sum "Si O2"
_cell_formula_units_Z 64
_cell_length_a 12.687968
_cell_length_b 27.094583
_cell_length_c 8.929177
_cell_angle_alpha 90.000000
_cell_angle_beta 90.000000
_cell_angle_gamma 90.000000
_cell_volume 3069.629628
_symmetry_space_group_name_H-M "I M M A"
_symmetry_group_IT_number 74
_symmetry_cell_setting 'orthorhombic'
loop_
_space_group_symop_operation_xyz
x,y,z
-x,1/2-y,z
x,-y,-z
-x,1/2+y,-z
-x,-y,-z
x,1/2+y,-z
-x,y,z
x,1/2-y,z
1/2+x,1/2+y,1/2+z
1/2-x,-y,1/2+z
1/2+x,1/2-y,1/2-z
1/2-x,y,1/2-z
1/2-x,1/2-y,1/2-z
1/2+x,y,1/2-z
1/2-x,1/2+y,1/2+z
1/2+x,-y,1/2+z
loop_
_atom_site_type_symbol
_atom_site_label
_atom_site_fract_x
_atom_site_fract_y
_atom_site_fract_z
Si Si1 0.178409 0.123851 0.378556
Si Si2 0.500000 0.307270 0.488578
Si Si3 0.500000 0.054112 0.147481
Si Si4 0.829960 0.876154 0.131881
Si Si5 0.000000 0.556055 0.287499
Si Si6 0.000000 0.693671 0.631669
O O1 0.250000 0.147696 0.250000
O O2 0.253483 0.100457 0.505490
O O3 0.106481 0.081469 0.301520
O O4 0.102875 0.167652 0.440205
O O5 0.500000 0.250000 0.532853
O O6 0.397928 0.332649 0.559980
O O7 0.500000 0.314118 0.310422
O O8 0.500000 0.002721 0.236351
O O9 0.500000 0.059439 0.966815
O O10 0.750000 0.851536 0.250000
O O11 0.897756 0.919355 0.210999
O O12 0.000000 0.750000 0.581859
#
# Coordination Sequence:
#
# PCOD8301269 Si02
#       6
#    16   8   8  16   8   8
#     4  11  22  40  63  92 126 165 208 261 315 377
#     4  10  22  39  62  93 128 165 216 265 309 377
#     4  10  22  41  62  91 122 159 213 262 307 371
#     4  11  22  40  64  90 128 169 203 261 328 371
#     4  10  22  41  62  89 124 163 209 259 313 381
#     4  10  22  39  64  95 124 166 218 265 307 370
#
# _framework density 20.849421
#
# number of rings (size 3 to 8) (size 9 to 14) (size 15 to 20)
#    0.000    1.500    5.000    0.000    0.000    3.000 
#    0.000    2.500    0.000    0.000    0.000    0.000 
#    0.000    0.000    0.000    0.000    0.000    0.000 
#
# Total GULP energy -396540.453022 kJ/mol
# GULP energy per Si atom -12391.889157 kJ/mol
# Density = 2.080197 g / cm^3
# Si number density = 20.849421 Si / 1000 Ang^3
#
#
#
# Elastic Constant Matrix: (Units=GPa)
#
#
# Indices 1 2 3 4 5 6 
#
# 1 151.6470 55.9791 43.7531 -0.0008 0.0000 0.0002
# 2 55.9791 147.9029 18.1338 -0.0014 0.0009 0.0002
# 3 43.7531 18.1338 65.8418 0.0028 -0.0028 -0.0003
# 4 -0.0008 -0.0014 0.0028 29.6938 0.0000 0.0001
# 5 0.0000 0.0009 -0.0028 0.0000 54.7870 0.0002
# 6 0.0002 0.0002 -0.0003 0.0001 0.0002 8.0150
#
#
#
# Elastic Compliance Matrix: (Units=1/GPa)
#
#
# Indices 1 2 3 4 5 6 
#
# 1 0.009169 -0.002818 -0.005316 0.000001 0.000000 0.000000
# 2 -0.002818 0.007864 -0.000293 0.000000 0.000000 0.000000
# 3 -0.005316 -0.000293 0.018802 -0.000002 0.000001 0.000001
# 4 0.000001 0.000000 -0.000002 0.033677 0.000000 -0.000001
# 5 0.000000 0.000000 0.000001 0.000000 0.018252 0.000000
# 6 0.000000 0.000000 0.000001 -0.000001 0.000000 0.124766
#
#
# Mechanical properties :
#
#
# Convention : Reuss Voigt Hill
#
# Bulk Modulus (GPa) = 52.69168 66.79152 59.74160
# Shear Modulus (GPa) = 21.21241 35.00086 28.10664
#
# Velocity S-wave (km/s) = 3.19315 4.10169 3.67560
# Velocity P-wave (km/s) = 6.23877 7.38489 6.83589
#
# Compressibility (1/GPa) = 0.01897833
#
# Stress axis : x y z
#
# Youngs Moduli (GPa) = 109.06878 127.16480 53.18723
#
# Poissons Ratio (x) = 0.35839 0.28277
# Poissons Ratio (y) = 0.30739 0.01558
# Poissons Ratio (z) = 0.57986 0.03726
#
# Static dielectric constant tensor:
#      x y z
#    x 4.088360 0.000000 0.000000 
#    y 0.000000 3.602260 0.000000 
#    z 0.000000 0.000000 3.838090 
# 
# 
# High freq. dielectric constant tensor:
#      x y z
#    x 1.843270 0.000000 0.000000 
#    y 0.000000 1.790270 0.000000 
#    z 0.000000 0.000000 1.813790 
# 
# From -- ./inp_files/7386.got.cif
#   From: 2010.03.12/outbox.cif.g09.slc.cpg/sg74_4_cif.got.tgz:7386.got - 2010.04.16 15:46:19.
