data_PCOD8301630
_publ_section_title
;
Structure prediction by ZEFSAII (Michael W. Deem and Ramdas Pophale) SiO2 
 PCOD8301630
Probable space group: I M M A
;
_chemical_formula_sum "Si O2"
_cell_formula_units_Z 80
_cell_length_a 27.167559
_cell_length_b 17.231496
_cell_length_c 7.776643
_cell_angle_alpha 90.000000
_cell_angle_beta 90.000000
_cell_angle_gamma 90.000000
_cell_volume 3640.539645
_symmetry_space_group_name_H-M "I M M A"
_symmetry_group_IT_number 74
_symmetry_cell_setting 'orthorhombic'
loop_
_space_group_symop_operation_xyz
x,y,z
-x,1/2-y,z
x,-y,-z
-x,1/2+y,-z
-x,-y,-z
x,1/2+y,-z
-x,y,z
x,1/2-y,z
1/2+x,1/2+y,1/2+z
1/2-x,-y,1/2+z
1/2+x,1/2-y,1/2-z
1/2-x,y,1/2-z
1/2-x,1/2-y,1/2-z
1/2+x,y,1/2-z
1/2-x,1/2+y,1/2+z
1/2+x,-y,1/2+z
loop_
_atom_site_type_symbol
_atom_site_label
_atom_site_fract_x
_atom_site_fract_y
_atom_site_fract_z
Si Si1 0.279220 0.928041 0.897528
Si Si2 0.616005 0.597740 0.841824
Si Si3 0.387871 0.581462 0.231285
Si Si4 0.706957 0.834663 0.378822
Si Si5 0.555833 0.661117 0.533297
O O1 0.250000 0.973754 0.750000
O O2 0.326246 0.876572 0.842452
O O3 0.233621 0.877375 0.965080
O O4 0.302910 0.000000 0.000000
O O5 0.611637 0.511132 0.767402
O O6 0.587167 0.651315 0.708096
O O7 0.596673 0.609209 0.038199
O O8 0.334335 0.613247 0.286295
O O9 0.426826 0.609930 0.372055
O O10 0.684719 0.750000 0.434917
O O11 0.750000 0.817566 0.250000
O O12 0.500000 0.637151 0.576149
O O13 0.559826 0.750000 0.475593
#
# Coordination Sequence:
#
# PCOD8301630 Si02
#       5
#    16  16  16  16  16
#     4  12  22  37  62  93 133 176 220 266 318 372
#     4  11  23  41  69  98 131 171 224 272 323 388
#     4  11  22  43  67  98 136 176 221 273 327 383
#     4  11  22  38  61  94 136 176 215 260 315 384
#     4  11  27  48  69  97 130 166 215 276 342 406
#
# _framework density 21.974765000000001
#
# number of rings (size 3 to 8) (size 9 to 14) (size 15 to 20)
#    0.000    0.800    4.000    4.200    0.000    5.200 
#    0.000    4.000    0.000    0.000    0.000    0.000 
#    0.000    0.000    0.000    0.000    0.000    0.000 
#
# Total GULP energy -495593.566712 kJ/mol
# GULP energy per Si atom -12389.839168 kJ/mol
# Density = 2.192475 g / cm^3
# Si number density = 21.974765 Si / 1000 Ang^3
#
#
#
# Elastic Constant Matrix: (Units=GPa)
#
#
# Indices 1 2 3 4 5 6 
#
# 1 116.5489 38.3603 72.1396 0.0000 0.0000 0.0000
# 2 38.3603 82.3166 34.8092 0.0000 0.0000 0.0000
# 3 72.1396 34.8092 127.5412 0.0000 0.0000 0.0000
# 4 0.0000 0.0000 0.0000 22.9518 0.0000 0.0000
# 5 0.0000 0.0000 0.0000 0.0000 31.9623 0.0000
# 6 0.0000 0.0000 0.0000 0.0000 0.0000 44.9175
#
#
#
# Elastic Compliance Matrix: (Units=1/GPa)
#
#
# Indices 1 2 3 4 5 6 
#
# 1 0.014093 -0.003614 -0.006985 0.000000 0.000000 0.000000
# 2 -0.003614 0.014660 -0.001957 0.000000 0.000000 0.000000
# 3 -0.006985 -0.001957 0.012326 0.000000 0.000000 0.000000
# 4 0.000000 0.000000 0.000000 0.043570 0.000000 0.000000
# 5 0.000000 0.000000 0.000000 0.000000 0.031287 0.000000
# 6 0.000000 0.000000 0.000000 0.000000 0.000000 0.022263
#
#
# Mechanical properties :
#
#
# Convention : Reuss Voigt Hill
#
# Bulk Modulus (GPa) = 62.62969 68.55833 65.59401
# Shear Modulus (GPa) = 29.65048 32.03950 30.84499
#
# Velocity S-wave (km/s) = 3.67726 3.82254 3.75060
# Velocity P-wave (km/s) = 6.82585 7.12382 6.97643
#
# Compressibility (1/GPa) = 0.01596687
#
# Stress axis : x y z
#
# Youngs Moduli (GPa) = 70.95766 68.21368 81.13234
#
# Poissons Ratio (x) = 0.24650 0.56670
# Poissons Ratio (y) = 0.25642 0.15878
# Poissons Ratio (z) = 0.49563 0.13350
#
# Static dielectric constant tensor:
#      x y z
#    x 3.875480 0.000000 0.000000 
#    y 0.000000 3.941390 0.000000 
#    z 0.000000 0.000000 4.142930 
# 
# 
# High freq. dielectric constant tensor:
#      x y z
#    x 1.859390 0.000000 0.000000 
#    y 0.000000 1.858280 0.000000 
#    z 0.000000 0.000000 1.879970 
# 
# From -- ./inp_files/14941.got.cif
#   From: 2010.03.12/outbox.cif.g09.slc.cpg/sg74_8_cif.got.tgz:14941.got - 2010.04.16 15:46:19.
