data_PCOD8301211
_publ_section_title
;
Structure prediction by ZEFSAII (Michael W. Deem and Ramdas Pophale) SiO2 
 PCOD8301211
Probable space group: I M M A
;
_chemical_formula_sum "Si O2"
_cell_formula_units_Z 56
_cell_length_a 16.174485
_cell_length_b 14.795523
_cell_length_c 12.151680
_cell_angle_alpha 90.000000
_cell_angle_beta 90.000000
_cell_angle_gamma 90.000000
_cell_volume 2908.018113
_symmetry_space_group_name_H-M "I M M A"
_symmetry_group_IT_number 74
_symmetry_cell_setting 'orthorhombic'
loop_
_space_group_symop_operation_xyz
x,y,z
-x,1/2-y,z
x,-y,-z
-x,1/2+y,-z
-x,-y,-z
x,1/2+y,-z
-x,y,z
x,1/2-y,z
1/2+x,1/2+y,1/2+z
1/2-x,-y,1/2+z
1/2+x,1/2-y,1/2-z
1/2-x,y,1/2-z
1/2-x,1/2-y,1/2-z
1/2+x,y,1/2-z
1/2-x,1/2+y,1/2+z
1/2+x,-y,1/2+z
loop_
_atom_site_type_symbol
_atom_site_label
_atom_site_fract_x
_atom_site_fract_y
_atom_site_fract_z
Si Si1 0.597595 0.750000 0.447741
Si Si2 0.679892 0.000000 0.000000
Si Si3 0.402357 0.562571 0.789247
Si Si4 0.402083 0.250000 0.306233
Si Si5 0.162106 0.441089 0.900280
O O1 0.500000 0.750000 0.447384
O O2 0.634094 0.750000 0.570857
O O3 0.627812 0.840211 0.387224
O O4 0.620611 0.946249 0.917227
O O5 0.739565 0.065397 0.927131
O O6 0.500000 0.550655 0.772274
O O7 0.369712 0.661302 0.755311
O O8 0.354776 0.489687 0.715159
O O9 0.500000 0.250000 0.309194
O O10 0.119098 0.500000 0.000000
#
# Coordination Sequence:
#
# PCOD8301211 Si02
#       5
#     8   8  16   8  16
#     4  11  20  35  59  95 120 151 197 252 297 349
#     4  10  23  40  57  84 126 158 194 238 307 352
#     4  11  21  39  62  89 119 159 201 246 290 355
#     4   9  18  31  58  89 114 143 197 248 291 336
#     4  10  22  37  60  86 121 150 196 242 306 342
#
# _framework density 19.257102
#
# number of rings (size 3 to 8) (size 9 to 14) (size 15 to 20)
#    0.857    0.857    2.857    2.143    0.000    2.286 
#    0.000    7.143    0.000    1.714    0.000    0.000 
#    0.000    0.000    0.000    0.000    0.000    0.000 
#
# Total GULP energy -347087.151672 kJ/mol
# GULP energy per Si atom -12395.969703 kJ/mol
# Density = 1.921327 g / cm^3
# Si number density = 19.257102 Si / 1000 Ang^3
#
#
#
# Elastic Constant Matrix: (Units=GPa)
#
#
# Indices 1 2 3 4 5 6 
#
# 1 44.5623 21.4228 29.5124 0.0000 0.0000 0.0000
# 2 21.4228 163.5844 61.1424 0.0000 0.0000 0.0000
# 3 29.5124 61.1424 115.1556 0.0000 0.0000 0.0000
# 4 0.0000 0.0000 0.0000 14.9795 0.0000 0.0000
# 5 0.0000 0.0000 0.0000 0.0000 36.0824 0.0000
# 6 0.0000 0.0000 0.0000 0.0000 0.0000 16.1051
#
#
#
# Elastic Compliance Matrix: (Units=1/GPa)
#
#
# Indices 1 2 3 4 5 6 
#
# 1 0.027214 -0.001194 -0.006340 0.000000 0.000000 0.000000
# 2 -0.001194 0.007679 -0.003771 0.000000 0.000000 0.000000
# 3 -0.006340 -0.003771 0.012311 0.000000 0.000000 0.000000
# 4 0.000000 0.000000 0.000000 0.066758 0.000000 0.000000
# 5 0.000000 0.000000 0.000000 0.000000 0.027714 0.000000
# 6 0.000000 0.000000 0.000000 0.000000 0.000000 0.062092
#
#
# Mechanical properties :
#
#
# Convention : Reuss Voigt Hill
#
# Bulk Modulus (GPa) = 40.66282 60.82861 50.74572
# Shear Modulus (GPa) = 21.31498 27.51505 24.41501
#
# Velocity S-wave (km/s) = 3.33056 3.78408 3.56454
# Velocity P-wave (km/s) = 5.99598 7.12380 6.58409
#
# Compressibility (1/GPa) = 0.02459249
#
# Stress axis : x y z
#
# Youngs Moduli (GPa) = 36.74640 130.22606 81.22713
#
# Poissons Ratio (x) = 0.15549 0.51501
# Poissons Ratio (y) = 0.04388 0.30632
# Poissons Ratio (z) = 0.23299 0.49110
#
# Static dielectric constant tensor:
#      x y z
#    x 3.320870 0.000000 0.000000 
#    y 0.000000 3.448670 0.000000 
#    z 0.000000 0.000000 3.407460 
# 
# 
# High freq. dielectric constant tensor:
#      x y z
#    x 1.738460 0.000000 0.000000 
#    y 0.000000 1.740430 0.000000 
#    z 0.000000 0.000000 1.744460 
# 
# From -- ./inp_files/21552.got.cif
#   From: 2010.03.12/outbox.cif.g09.slc.cpg/sg74_11_cif.got.tgz:21552.got - 2010.04.16 15:46:19.
