data_PCOD8301705
_publ_section_title
;
Structure prediction by ZEFSAII (Michael W. Deem and Ramdas Pophale) SiO2 
 PCOD8301705
Probable space group: I M M A
;
_chemical_formula_sum "Si O2"
_cell_formula_units_Z 64
_cell_length_a 11.493451
_cell_length_b 15.923881
_cell_length_c 17.087235
_cell_angle_alpha 90.000000
_cell_angle_beta 90.000000
_cell_angle_gamma 90.000000
_cell_volume 3127.311662
_symmetry_space_group_name_H-M "I M M A"
_symmetry_group_IT_number 74
_symmetry_cell_setting 'orthorhombic'
loop_
_space_group_symop_operation_xyz
x,y,z
-x,1/2-y,z
x,-y,-z
-x,1/2+y,-z
-x,-y,-z
x,1/2+y,-z
-x,y,z
x,1/2-y,z
1/2+x,1/2+y,1/2+z
1/2-x,-y,1/2+z
1/2+x,1/2-y,1/2-z
1/2-x,y,1/2-z
1/2-x,1/2-y,1/2-z
1/2+x,y,1/2-z
1/2-x,1/2+y,1/2+z
1/2+x,-y,1/2+z
loop_
_atom_site_type_symbol
_atom_site_label
_atom_site_fract_x
_atom_site_fract_y
_atom_site_fract_z
Si Si1 0.238052 0.911677 0.842900
Si Si2 0.000000 0.580045 0.938678
Si Si3 0.863080 0.250000 0.407552
Si Si4 0.758745 0.904140 0.158538
Si Si5 0.000000 0.345582 0.904300
Si Si6 0.134904 0.250000 0.583995
O O1 0.250000 0.903822 0.750000
O O2 0.314362 0.835435 0.872703
O O3 0.108917 0.909973 0.879966
O O4 0.288662 0.003567 0.866230
O O5 0.000000 0.500000 0.000000
O O6 0.000000 0.656619 0.000811
O O7 0.822506 0.250000 0.496055
O O8 0.000000 0.250000 0.395025
O O9 0.750000 0.890797 0.250000
O O10 0.679481 0.834654 0.120994
O O11 0.890885 0.895634 0.130042
O O12 0.000000 0.250000 0.873791
O O13 0.000000 0.250000 0.594500
#
# Coordination Sequence:
#
# PCOD8301705 Si02
#       6
#    16   8   8  16   8   8
#     4  11  26  46  72 100 140 181 231 293 351 411
#     4  12  24  44  74 110 137 174 238 293 342 420
#     4  11  27  47  69  95 137 185 243 285 345 423
#     4  11  24  41  67 100 138 177 224 281 354 420
#     4  12  24  40  68 105 137 178 226 286 350 412
#     4  11  25  41  63  99 131 179 225 275 343 419
#
# _framework density 20.464863000000001
#
# number of rings (size 3 to 8) (size 9 to 14) (size 15 to 20)
#    0.000    0.750    3.750    2.250    5.250    1.000 
#    0.000    2.500    0.000    0.000    0.000    0.000 
#    0.000    0.000    0.000    0.000    0.000    0.000 
#
# Total GULP energy -396535.349868 kJ/mol
# GULP energy per Si atom -12391.729683 kJ/mol
# Density = 2.041828 g / cm^3
# Si number density = 20.464863 Si / 1000 Ang^3
#
#
#
# Elastic Constant Matrix: (Units=GPa)
#
#
# Indices 1 2 3 4 5 6 
#
# 1 308.0836 133.9720 98.1686 0.0000 0.0000 0.0000
# 2 133.9720 246.1635 92.1930 0.0000 0.0000 0.0000
# 3 98.1686 92.1930 151.0857 0.0000 0.0000 0.0000
# 4 0.0000 0.0000 0.0000 34.6398 0.0000 0.0000
# 5 0.0000 0.0000 0.0000 0.0000 40.4706 0.0000
# 6 0.0000 0.0000 0.0000 0.0000 0.0000 304.7720
#
#
#
# Elastic Compliance Matrix: (Units=1/GPa)
#
#
# Indices 1 2 3 4 5 6 
#
# 1 0.004642 -0.001811 -0.001912 0.000000 0.000000 0.000000
# 2 -0.001811 0.005972 -0.002468 0.000000 0.000000 0.000000
# 3 -0.001912 -0.002468 0.009367 0.000000 0.000000 0.000000
# 4 0.000000 0.000000 0.000000 0.028869 0.000000 0.000000
# 5 0.000000 0.000000 0.000000 0.000000 0.024709 0.000000
# 6 0.000000 0.000000 0.000000 0.000000 0.000000 0.003281
#
#
# Mechanical properties :
#
#
# Convention : Reuss Voigt Hill
#
# Bulk Modulus (GPa) = 131.55757 150.44444 141.00100
# Shear Modulus (GPa) = 54.49408 101.37643 77.93526
#
# Velocity S-wave (km/s) = 5.16584 7.04588 6.17779
# Velocity P-wave (km/s) = 10.00027 11.82648 10.95151
#
# Compressibility (1/GPa) = 0.00760123
#
# Stress axis : x y z
#
# Youngs Moduli (GPa) = 215.40896 167.44995 106.76313
#
# Poissons Ratio (x) = 0.30319 0.20408
# Poissons Ratio (y) = 0.39003 0.26345
# Poissons Ratio (z) = 0.41176 0.41320
#
# Static dielectric constant tensor:
#      x y z
#    x 3.685360 0.000000 0.000000 
#    y 0.000000 4.126670 0.000000 
#    z 0.000000 0.000000 3.957170 
# 
# 
# High freq. dielectric constant tensor:
#      x y z
#    x 1.795320 0.000000 0.000000 
#    y 0.000000 1.829700 0.000000 
#    z 0.000000 0.000000 1.816480 
# 
# From -- ./inp_files/30292.got.cif
#   From: 2010.03.12/outbox.cif.g09.slc.cpg/sg74_16_cif.got.tgz:30292.got - 2010.04.16 15:46:19.
