data_PCOD8301627
_publ_section_title
;
Structure prediction by ZEFSAII (Michael W. Deem and Ramdas Pophale) SiO2 
 PCOD8301627
Probable space group: I M M A
;
_chemical_formula_sum "Si O2"
_cell_formula_units_Z 112
_cell_length_a 25.502734
_cell_length_b 14.902259
_cell_length_c 14.346955
_cell_angle_alpha 90.000000
_cell_angle_beta 90.000000
_cell_angle_gamma 90.000000
_cell_volume 5452.536536
_symmetry_space_group_name_H-M "I M M A"
_symmetry_group_IT_number 74
_symmetry_cell_setting 'orthorhombic'
loop_
_space_group_symop_operation_xyz
x,y,z
-x,1/2-y,z
x,-y,-z
-x,1/2+y,-z
-x,-y,-z
x,1/2+y,-z
-x,y,z
x,1/2-y,z
1/2+x,1/2+y,1/2+z
1/2-x,-y,1/2+z
1/2+x,1/2-y,1/2-z
1/2-x,y,1/2-z
1/2-x,1/2-y,1/2-z
1/2+x,y,1/2-z
1/2-x,1/2+y,1/2+z
1/2+x,-y,1/2+z
loop_
_atom_site_type_symbol
_atom_site_label
_atom_site_fract_x
_atom_site_fract_y
_atom_site_fract_z
Si Si1 0.062756 0.495943 0.234829
Si Si2 0.098063 0.649120 0.103253
Si Si3 0.731179 0.351575 0.149959
Si Si4 0.858348 0.993493 0.608558
Si Si5 0.796079 0.398380 0.984267
Si Si6 0.213464 0.145163 0.662441
Si Si7 0.439781 0.848613 0.593444
O O1 0.083343 0.589066 0.191489
O O2 0.088063 0.473649 0.335081
O O3 0.084728 0.418519 0.165812
O O4 0.000000 0.497876 0.244712
O O5 0.081727 0.750000 0.130737
O O6 0.159524 0.650777 0.075979
O O7 0.066932 0.615193 0.011833
O O8 0.709719 0.250000 0.153883
O O9 0.750000 0.385904 0.250000
O O10 0.684515 0.415241 0.116192
O O11 0.783120 0.355516 0.084591
O O12 0.873440 0.000000 0.500000
O O13 0.838757 0.085345 0.658876
O O14 0.742153 0.387846 0.929909
O O15 0.813484 0.500000 0.000000
O O16 0.198133 0.250000 0.659978
O O17 0.250000 0.122365 0.750000
O O18 0.500000 0.839454 0.617757
O O19 0.412685 0.750000 0.603064
#
# Coordination Sequence:
#
# PCOD8301627 Si02
#       7
#    16  16  16  16  16  16  16
#     4  11  25  43  65  91 124 167 219 275 326 379
#     4  11  23  37  62  99 134 169 205 252 318 390
#     4  11  24  40  62  93 129 168 206 252 313 379
#     4  12  25  43  64  88 120 167 218 270 321 368
#     4  12  22  37  60  92 132 168 200 249 303 377
#     4  11  22  38  61  88 122 163 208 255 311 378
#     4   9  19  38  63  92 126 161 202 256 320 386
#
# _framework density 20.540897999999999
#
# number of rings (size 3 to 8) (size 9 to 14) (size 15 to 20)
#    0.000    1.000    2.857    4.286    4.000    4.571 
#    0.000    0.000    0.000    0.000    0.000    4.000 
#    0.000    0.000    0.000    0.000    0.000    0.000 
#
# Total GULP energy -694319.625741 kJ/mol
# GULP energy per Si atom -12398.564745 kJ/mol
# Density = 2.049415 g / cm^3
# Si number density = 20.540898 Si / 1000 Ang^3
#
#
#
# Elastic Constant Matrix: (Units=GPa)
#
#
# Indices 1 2 3 4 5 6 
#
# 1 76.2098 22.9574 33.5932 0.0000 0.0000 0.0000
# 2 22.9574 99.3241 36.8560 0.0000 0.0000 0.0000
# 3 33.5932 36.8560 128.7940 0.0000 0.0000 0.0000
# 4 0.0000 0.0000 0.0000 72.3599 0.0000 0.0000
# 5 0.0000 0.0000 0.0000 0.0000 40.8435 0.0000
# 6 0.0000 0.0000 0.0000 0.0000 0.0000 19.4525
#
#
#
# Elastic Compliance Matrix: (Units=1/GPa)
#
#
# Indices 1 2 3 4 5 6 
#
# 1 0.015281 -0.002297 -0.003328 0.000000 0.000000 0.000000
# 2 -0.002297 0.011609 -0.002723 0.000000 0.000000 0.000000
# 3 -0.003328 -0.002723 0.009412 0.000000 0.000000 0.000000
# 4 0.000000 0.000000 0.000000 0.013820 0.000000 0.000000
# 5 0.000000 0.000000 0.000000 0.000000 0.024484 0.000000
# 6 0.000000 0.000000 0.000000 0.000000 0.000000 0.051407
#
#
# Mechanical properties :
#
#
# Convention : Reuss Voigt Hill
#
# Bulk Modulus (GPa) = 51.00697 54.57126 52.78912
# Shear Modulus (GPa) = 33.50211 40.59260 37.04736
#
# Velocity S-wave (km/s) = 4.04294 4.45025 4.25148
# Velocity P-wave (km/s) = 6.83225 7.28225 7.06083
#
# Compressibility (1/GPa) = 0.01960516
#
# Stress axis : x y z
#
# Youngs Moduli (GPa) = 65.44187 86.13713 106.25054
#
# Poissons Ratio (x) = 0.19785 0.35364
# Poissons Ratio (y) = 0.15031 0.28933
# Poissons Ratio (z) = 0.21782 0.23456
#
# Static dielectric constant tensor:
#      x y z
#    x 3.502860 0.000000 0.000000 
#    y 0.000000 3.945080 0.000000 
#    z 0.000000 0.000000 3.880840 
# 
# 
# High freq. dielectric constant tensor:
#      x y z
#    x 1.782690 0.000000 0.000000 
#    y 0.000000 1.816250 0.000000 
#    z 0.000000 0.000000 1.804330 
# 
# From -- ./inp_files/36519.got.cif
#   From: 2010.03.12/outbox.cif.g09.slc.cpg/sg74_19_cif.got.tgz:36519.got - 2010.04.16 15:46:19.
