data_PCOD8301197
_publ_section_title
;
Structure prediction by ZEFSAII (Michael W. Deem and Ramdas Pophale) SiO2 
 PCOD8301197
Probable space group: I M M A
;
_chemical_formula_sum "Si O2"
_cell_formula_units_Z 80
_cell_length_a 22.048758
_cell_length_b 9.973013
_cell_length_c 19.591910
_cell_angle_alpha 90.000000
_cell_angle_beta 90.000000
_cell_angle_gamma 90.000000
_cell_volume 4308.115053
_symmetry_space_group_name_H-M "I M M A"
_symmetry_group_IT_number 74
_symmetry_cell_setting 'orthorhombic'
loop_
_space_group_symop_operation_xyz
x,y,z
-x,1/2-y,z
x,-y,-z
-x,1/2+y,-z
-x,-y,-z
x,1/2+y,-z
-x,y,z
x,1/2-y,z
1/2+x,1/2+y,1/2+z
1/2-x,-y,1/2+z
1/2+x,1/2-y,1/2-z
1/2-x,y,1/2-z
1/2-x,1/2-y,1/2-z
1/2+x,y,1/2-z
1/2-x,1/2+y,1/2+z
1/2+x,-y,1/2+z
loop_
_atom_site_type_symbol
_atom_site_label
_atom_site_fract_x
_atom_site_fract_y
_atom_site_fract_z
Si Si1 0.628702 0.023280 0.781825
Si Si2 0.313554 0.250000 0.564468
Si Si3 0.372565 0.999437 0.623786
Si Si4 0.791158 0.750000 0.908518
Si Si5 0.194353 0.250000 0.303151
Si Si6 0.000000 0.093131 0.139703
Si Si7 0.500000 0.092353 0.770901
Si Si8 0.714357 0.250000 0.819724
O O1 0.628141 0.056966 0.700933
O O2 0.561300 0.053492 0.812006
O O3 0.674185 0.117163 0.823224
O O4 0.649011 0.872550 0.793297
O O5 0.355173 0.119115 0.573041
O O6 0.285601 0.250000 0.489494
O O7 0.258202 0.250000 0.616298
O O8 0.324381 0.880886 0.619700
O O9 0.438382 0.944132 0.599301
O O10 0.722913 0.750000 0.878756
O O11 0.250000 0.250000 0.250000
O O12 0.000000 0.250000 0.158773
O O13 0.000000 0.003111 0.206057
O O14 0.500000 0.250000 0.751239
O O15 0.750000 0.250000 0.750000
#
# Coordination Sequence:
#
# PCOD8301197 Si02
#       8
#    16   8  16   8   8   8   8   8
#     4  11  21  36  62  88 116 155 190 244 293 344
#     4  12  26  37  58  87 116 158 193 246 298 347
#     4  11  21  39  58  81 119 154 200 243 289 341
#     4  12  24  41  56  83 122 154 195 244 292 347
#     4  12  22  37  61  87 117 157 197 239 288 352
#     4  10  22  36  59  82 113 160 203 246 283 338
#     4  10  22  36  56  93 126 143 192 251 300 345
#     4  12  20  37  59  85 117 149 195 235 294 354
#
# _framework density 18.569604999999999
#
# number of rings (size 3 to 8) (size 9 to 14) (size 15 to 20)
#    0.000    0.800    6.000    2.400    8.400    0.000 
#    0.000    3.000    0.000    0.000    0.000    4.200 
#    0.000    0.000    0.000    0.000    0.000    0.000 
#
# Total GULP energy -495991.971029 kJ/mol
# GULP energy per Si atom -12399.799276 kJ/mol
# Density = 1.852734 g / cm^3
# Si number density = 18.569605 Si / 1000 Ang^3
#
#
#
# Elastic Constant Matrix: (Units=GPa)
#
#
# Indices 1 2 3 4 5 6 
#
# 1 141.0173 60.5204 37.5471 0.0000 0.0000 0.0000
# 2 60.5204 151.8566 13.6697 0.0000 0.0000 0.0000
# 3 37.5471 13.6697 67.8758 0.0000 0.0000 0.0000
# 4 0.0000 0.0000 0.0000 9.1376 0.0000 0.0000
# 5 0.0000 0.0000 0.0000 0.0000 15.3910 0.0000
# 6 0.0000 0.0000 0.0000 0.0000 0.0000 43.4518
#
#
#
# Elastic Compliance Matrix: (Units=1/GPa)
#
#
# Indices 1 2 3 4 5 6 
#
# 1 0.009858 -0.003501 -0.004748 0.000000 0.000000 0.000000
# 2 -0.003501 0.007950 0.000336 0.000000 0.000000 0.000000
# 3 -0.004748 0.000336 0.017292 0.000000 0.000000 0.000000
# 4 0.000000 0.000000 0.000000 0.109438 0.000000 0.000000
# 5 0.000000 0.000000 0.000000 0.000000 0.064973 0.000000
# 6 0.000000 0.000000 0.000000 0.000000 0.000000 0.023014
#
#
# Mechanical properties :
#
#
# Convention : Reuss Voigt Hill
#
# Bulk Modulus (GPa) = 51.88695 64.91379 58.40037
# Shear Modulus (GPa) = 19.62502 30.19694 24.91098
#
# Velocity S-wave (km/s) = 3.25443 4.03693 3.66661
# Velocity P-wave (km/s) = 6.49032 7.53405 7.03158
#
# Compressibility (1/GPa) = 0.01927267
#
# Stress axis : x y z
#
# Youngs Moduli (GPa) = 101.43739 125.77984 57.83111
#
# Poissons Ratio (x) = 0.44041 0.27459
# Poissons Ratio (y) = 0.35518 -0.01942
# Poissons Ratio (z) = 0.48164 -0.04223
#
# Static dielectric constant tensor:
#      x y z
#    x -8.900300 0.000000 0.000000 
#    y 0.000000 3.578700 0.000000 
#    z 0.000000 0.000000 3.103390 
# 
# 
# High freq. dielectric constant tensor:
#      x y z
#    x 1.736420 0.000000 0.000000 
#    y 0.000000 1.745650 0.000000 
#    z 0.000000 0.000000 1.665370 
# 
# From -- ./inp_files/54486.got.cif
#   From: 2010.03.12/outbox.cif.g09.slc.cpg/sg74_28_cif.got.tgz:54486.got - 2010.04.16 15:46:19.
