data_PCOD8301231
_publ_section_title
;
Structure prediction by ZEFSAII (Michael W. Deem and Ramdas Pophale) SiO2 
 PCOD8301231
Probable space group: I M M A
;
_chemical_formula_sum "Si O2"
_cell_formula_units_Z 64
_cell_length_a 27.360321
_cell_length_b 16.277104
_cell_length_c 6.820694
_cell_angle_alpha 90.000000
_cell_angle_beta 90.000000
_cell_angle_gamma 90.000000
_cell_volume 3037.574181
_symmetry_space_group_name_H-M "I M M A"
_symmetry_group_IT_number 74
_symmetry_cell_setting 'orthorhombic'
loop_
_space_group_symop_operation_xyz
x,y,z
-x,1/2-y,z
x,-y,-z
-x,1/2+y,-z
-x,-y,-z
x,1/2+y,-z
-x,y,z
x,1/2-y,z
1/2+x,1/2+y,1/2+z
1/2-x,-y,1/2+z
1/2+x,1/2-y,1/2-z
1/2-x,y,1/2-z
1/2-x,1/2-y,1/2-z
1/2+x,y,1/2-z
1/2-x,1/2+y,1/2+z
1/2+x,-y,1/2+z
loop_
_atom_site_type_symbol
_atom_site_label
_atom_site_fract_x
_atom_site_fract_y
_atom_site_fract_z
Si Si1 0.554113 0.750000 0.032705
Si Si2 0.401397 0.750000 0.630913
Si Si3 0.805853 0.750000 0.694779
Si Si4 0.129955 0.000000 0.000000
Si Si5 0.944252 0.381294 0.859318
Si Si6 0.195923 0.067896 0.332582
O O1 0.500000 0.750000 0.939491
O O2 0.561668 0.669670 0.162204
O O3 0.594315 0.750000 0.866143
O O4 0.341990 0.750000 0.612070
O O5 0.428376 0.829063 0.547849
O O6 0.750000 0.750000 0.750000
O O7 0.813373 0.661399 0.582777
O O8 0.094004 0.954695 0.153372
O O9 0.161947 0.057445 0.140752
O O10 0.000000 0.411664 0.886811
O O11 0.250000 0.055988 0.250000
O O12 0.185141 0.000000 0.500000
#
# Coordination Sequence:
#
# PCOD8301231 Si02
#       6
#     8   8   8   8  16  16
#     4   9  20  37  59  86 116 160 214 259 308 383
#     4  11  19  39  63  86 122 166 208 264 325 378
#     4  10  23  42  65  94 129 165 216 263 316 391
#     4  12  23  38  62  90 128 168 209 268 324 376
#     4  10  22  38  59  88 123 165 213 262 321 383
#     4  11  24  45  67  94 130 170 213 265 322 383
#
# _framework density 21.069444000000001
#
# number of rings (size 3 to 8) (size 9 to 14) (size 15 to 20)
#    0.000    1.500    3.750    2.250    3.500    0.000 
#    0.000    1.875    0.000    6.000    0.000    0.000 
#    0.000    0.000    0.000    0.000    0.000    0.000 
#
# Total GULP energy -396424.605796 kJ/mol
# GULP energy per Si atom -12388.268931 kJ/mol
# Density = 2.102149 g / cm^3
# Si number density = 21.069444 Si / 1000 Ang^3
#
#
#
# Elastic Constant Matrix: (Units=GPa)
#
#
# Indices 1 2 3 4 5 6 
#
# 1 133.2060 28.5042 30.5375 0.0000 0.0000 0.0000
# 2 28.5042 137.7380 25.1689 0.0000 0.0000 0.0000
# 3 30.5375 25.1689 75.8792 0.0000 0.0000 0.0000
# 4 0.0000 0.0000 0.0000 -4.4528 0.0000 0.0000
# 5 0.0000 0.0000 0.0000 0.0000 19.1637 0.0000
# 6 0.0000 0.0000 0.0000 0.0000 0.0000 47.6635
#
#
#
# Elastic Compliance Matrix: (Units=1/GPa)
#
#
# Indices 1 2 3 4 5 6 
#
# 1 0.008453 -0.001200 -0.003004 0.000000 0.000000 0.000000
# 2 -0.001200 0.007899 -0.002137 0.000000 0.000000 0.000000
# 3 -0.003004 -0.002137 0.015096 0.000000 0.000000 0.000000
# 4 0.000000 0.000000 0.000000 -0.224577 0.000000 0.000000
# 5 0.000000 0.000000 0.000000 0.000000 0.052182 0.000000
# 6 0.000000 0.000000 0.000000 0.000000 0.000000 0.020980
#
#
# Mechanical properties :
#
#
# Convention : Reuss Voigt Hill
#
# Bulk Modulus (GPa) = 53.28726 57.24939 55.26832
# Shear Modulus (GPa) = -49.49049 29.98240 -9.75405
#
# Velocity S-wave (km/s) = -4.85183 3.77640 -2.15396
# Velocity P-wave (km/s) = 2.45780 6.80041 4.48357
#
# Compressibility (1/GPa) = 0.01876621
#
# Stress axis : x y z
#
# Youngs Moduli (GPa) = 118.30677 126.59722 66.24061
#
# Poissons Ratio (x) = 0.15196 0.19896
# Poissons Ratio (y) = 0.14201 0.14156
# Poissons Ratio (z) = 0.35534 0.27054
#
# Static dielectric constant tensor:
#      x y z
#    x 4.136730 0.000000 0.000000 
#    y 0.000000 3.988580 0.000000 
#    z 0.000000 0.000000 3.406630 
# 
# 
# High freq. dielectric constant tensor:
#      x y z
#    x 1.854700 0.000000 0.000000 
#    y 0.000000 1.835860 0.000000 
#    z 0.000000 0.000000 1.785070 
# 
# From -- ./inp_files/4967.got.cif
#   From: 2010.03.12/outbox.cif.g09.slc.cpg/sg74_3_cif.got.tgz:4967.got - 2010.04.16 15:46:19.
