data_PCOD8301940
_publ_section_title
;
Structure prediction by ZEFSAII (Michael W. Deem and Ramdas Pophale) SiO2 
 PCOD8301940
Probable space group: P 41
;
_chemical_formula_sum "Si O2"
_cell_formula_units_Z 28
_cell_length_a 11.866233
_cell_length_b 11.866233
_cell_length_c 8.874282
_cell_angle_alpha 90.000000
_cell_angle_beta 90.000000
_cell_angle_gamma 90.000000
_cell_volume 1249.565335
_symmetry_space_group_name_H-M "P 41"
_symmetry_group_IT_number 76
_symmetry_cell_setting 'tetragonal'
loop_
_space_group_symop_operation_xyz
x,y,z
-y,x,1/4+z
-x,-y,1/2+z
y,-x,3/4+z
loop_
_atom_site_type_symbol
_atom_site_label
_atom_site_fract_x
_atom_site_fract_y
_atom_site_fract_z
Si Si1 0.513001 0.077963 0.526350
Si Si2 0.867310 0.689305 0.989562
Si Si3 0.369521 0.480056 0.915119
Si Si4 0.270358 0.949997 0.847608
Si Si5 0.134043 0.376003 0.814531
Si Si6 0.770634 0.355873 0.587284
Si Si7 0.091498 0.766296 0.859179
O O1 0.557571 0.108756 0.694402
O O2 0.619255 0.106778 0.420445
O O3 0.412243 0.155452 0.468801
O O4 0.482436 0.945229 0.524900
O O5 0.843644 0.696999 0.166083
O O6 0.760958 0.733288 0.902175
O O7 0.970264 0.770818 0.941521
O O8 0.409084 0.532422 0.753071
O O9 0.255411 0.407238 0.886287
O O10 0.339357 0.574551 0.038904
O O11 0.295731 0.944614 0.670244
O O12 0.156984 0.881727 0.884617
O O13 0.255153 0.072402 0.928222
O O14 0.841873 0.338390 0.433588
#
# Coordination Sequence:
#
# PCOD8301940 Si02
#       7
#     4   4   4   4   4   4   4
#     4  11  22  43  72 108 139 190 244 300 368 441
#     4  11  25  42  77 103 142 192 244 301 372 437
#     4  12  28  46  71 103 151 197 245 312 387 443
#     4  11  24  44  74 106 142 194 238 304 374 437
#     4  12  25  45  71 110 141 191 257 305 362 456
#     4  12  22  45  76 103 146 189 247 310 371 446
#     4  11  22  47  73 101 143 189 239 304 374 434
#
# _framework density 22.407791
#
# number of rings (size 3 to 8) (size 9 to 14) (size 15 to 20)
#    0.000    0.571    5.714    4.286    2.000    2.286 
#    0.000    2.857    0.000    0.000    0.000    0.000 
#    0.000    0.000    0.000    0.000    0.000    0.000 
#
# Total GULP energy -346940.230061 kJ/mol
# GULP energy per Si atom -12390.722502 kJ/mol
# Density = 2.235679 g / cm^3
# Si number density = 22.407791 Si / 1000 Ang^3
#
#
#
# Elastic Constant Matrix: (Units=GPa)
#
#
# Indices 1 2 3 4 5 6 
#
# 1 86.2265 38.1019 34.9747 0.0000 0.0000 0.4133
# 2 38.1019 86.2265 34.9747 0.0000 0.0000 -0.4133
# 3 34.9747 34.9747 139.9046 0.0000 0.0000 0.0000
# 4 0.0000 0.0000 0.0000 38.3922 0.0000 0.0000
# 5 0.0000 0.0000 0.0000 0.0000 38.3922 0.0000
# 6 0.4133 -0.4133 0.0000 0.0000 0.0000 32.2040
#
#
#
# Elastic Compliance Matrix: (Units=1/GPa)
#
#
# Indices 1 2 3 4 5 6 
#
# 1 0.015072 -0.005712 -0.002340 0.000000 0.000000 -0.000267
# 2 -0.005712 0.015072 -0.002340 0.000000 0.000000 0.000267
# 3 -0.002340 -0.002340 0.008318 0.000000 0.000000 0.000000
# 4 0.000000 0.000000 0.000000 0.026047 0.000000 0.000000
# 5 0.000000 0.000000 0.000000 0.000000 0.026047 0.000000
# 6 -0.000267 0.000267 0.000000 0.000000 0.000000 0.031059
#
#
# Mechanical properties :
#
#
# Convention : Reuss Voigt Hill
#
# Bulk Modulus (GPa) = 56.56873 58.71780 57.64326
# Shear Modulus (GPa) = 33.71769 35.41809 34.56789
#
# Velocity S-wave (km/s) = 3.88329 3.98001 3.93195
# Velocity P-wave (km/s) = 6.73844 6.88344 6.81132
#
# Compressibility (1/GPa) = 0.01767761
#
# Stress axis : x y z
#
# Youngs Moduli (GPa) = 66.34907 66.34907 120.22718
#
# Poissons Ratio (x) = 0.37900 0.28131
# Poissons Ratio (y) = 0.37900 0.28131
# Poissons Ratio (z) = 0.15524 0.15524
#
# Static dielectric constant tensor:
#      x y z
#    x 4.052720 0.000000 0.000000 
#    y 0.000000 4.052720 0.000000 
#    z 0.000000 0.000000 4.520160 
# 
# 
# High freq. dielectric constant tensor:
#      x y z
#    x 1.874660 0.000000 0.000000 
#    y 0.000000 1.874660 0.000000 
#    z 0.000000 0.000000 1.892460 
# 
# From -- ./inp_files/606.got.cif
#   From: 2010.03.12/outbox.cif.g09.slc.cpg/sg76_cif.got.tgz:606.got - 2010.04.16 16:34:25.
