data_PCOD8301700
_publ_section_title
;
Structure prediction by ZEFSAII (Michael W. Deem and Ramdas Pophale) SiO2 
 PCOD8301700
Probable space group: I M M A
;
_chemical_formula_sum "Si O2"
_cell_formula_units_Z 88
_cell_length_a 27.240228
_cell_length_b 13.035652
_cell_length_c 12.696466
_cell_angle_alpha 90.000000
_cell_angle_beta 90.000000
_cell_angle_gamma 90.000000
_cell_volume 4508.440581
_symmetry_space_group_name_H-M "I M M A"
_symmetry_group_IT_number 74
_symmetry_cell_setting 'orthorhombic'
loop_
_space_group_symop_operation_xyz
x,y,z
-x,1/2-y,z
x,-y,-z
-x,1/2+y,-z
-x,-y,-z
x,1/2+y,-z
-x,y,z
x,1/2-y,z
1/2+x,1/2+y,1/2+z
1/2-x,-y,1/2+z
1/2+x,1/2-y,1/2-z
1/2-x,y,1/2-z
1/2-x,1/2-y,1/2-z
1/2+x,y,1/2-z
1/2-x,1/2+y,1/2+z
1/2+x,-y,1/2+z
loop_
_atom_site_type_symbol
_atom_site_label
_atom_site_fract_x
_atom_site_fract_y
_atom_site_fract_z
Si Si1 0.873017 0.982627 0.180870
Si Si2 0.944912 0.135364 0.966089
Si Si3 0.800374 0.367376 0.688100
Si Si4 0.055173 0.136925 0.216795
Si Si5 0.223338 0.500000 0.500000
Si Si6 0.783494 0.869286 0.852104
O O1 0.909406 0.046469 0.259742
O O2 0.832984 0.065843 0.146318
O O3 0.904388 0.939245 0.083475
O O4 0.846955 0.886889 0.237070
O O5 0.936925 0.250000 0.922533
O O6 0.000000 0.097448 0.934790
O O7 0.939603 0.134793 0.090981
O O8 0.800958 0.250000 0.649825
O O9 0.750000 0.392998 0.750000
O O10 0.808211 0.445893 0.591316
O O11 0.071162 0.250000 0.258103
O O12 0.000000 0.114251 0.253868
O O13 0.254922 0.405509 0.455581
O O14 0.797072 0.750000 0.862699
O O15 0.750000 0.890628 0.750000
#
# Coordination Sequence:
#
# PCOD8301700 Si02
#       6
#    16  16  16  16   8  16
#     4  12  19  34  51  80 108 145 183 226 273 322
#     4   9  19  33  50  76 112 151 187 224 273 335
#     4  11  24  40  57  82 115 147 188 235 279 332
#     4   9  19  33  49  76 112 149 187 225 271 331
#     4  12  20  44  58  80 106 156 182 232 286 326
#     4  11  24  40  56  80 112 146 189 232 275 332
#
# _framework density 19.518943
#
# number of rings (size 3 to 8) (size 9 to 14) (size 15 to 20)
#    0.000    1.455    3.636    3.818    2.545    1.455 
#    0.000    0.000    0.000    0.000    0.000    2.545 
#    0.000    2.909    0.000    0.000    0.000    0.000 
#
# Total GULP energy -545292.030710 kJ/mol
# GULP energy per Si atom -12393.000698 kJ/mol
# Density = 1.947452 g / cm^3
# Si number density = 19.518943 Si / 1000 Ang^3
#
#
#
# Elastic Constant Matrix: (Units=GPa)
#
#
# Indices 1 2 3 4 5 6 
#
# 1 95.1244 39.7168 12.7401 0.0000 0.0000 0.0000
# 2 39.7168 125.1745 17.1482 0.0000 0.0000 0.0000
# 3 12.7401 17.1482 43.1013 0.0000 0.0000 0.0000
# 4 0.0000 0.0000 0.0000 27.9603 0.0000 0.0000
# 5 0.0000 0.0000 0.0000 0.0000 11.1870 0.0000
# 6 0.0000 0.0000 0.0000 0.0000 0.0000 27.8133
#
#
#
# Elastic Compliance Matrix: (Units=1/GPa)
#
#
# Indices 1 2 3 4 5 6 
#
# 1 0.012313 -0.003605 -0.002205 0.000000 0.000000 0.000000
# 2 -0.003605 0.009505 -0.002716 0.000000 0.000000 0.000000
# 3 -0.002205 -0.002716 0.024934 0.000000 0.000000 0.000000
# 4 0.000000 0.000000 0.000000 0.035765 0.000000 0.000000
# 5 0.000000 0.000000 0.000000 0.000000 0.089390 0.000000
# 6 0.000000 0.000000 0.000000 0.000000 0.000000 0.035954
#
#
# Mechanical properties :
#
#
# Convention : Reuss Voigt Hill
#
# Bulk Modulus (GPa) = 33.67106 44.73451 39.20278
# Shear Modulus (GPa) = 21.29366 26.31178 23.80272
#
# Velocity S-wave (km/s) = 3.30650 3.67551 3.49588
# Velocity P-wave (km/s) = 5.64492 6.40162 6.03514
#
# Compressibility (1/GPa) = 0.02969909
#
# Stress axis : x y z
#
# Youngs Moduli (GPa) = 81.21530 105.21157 40.10650
#
# Poissons Ratio (x) = 0.37925 0.08845
# Poissons Ratio (y) = 0.29275 0.10893
# Poissons Ratio (z) = 0.17911 0.28576
#
# Static dielectric constant tensor:
#      x y z
#    x 3.785980 0.000000 0.000000 
#    y 0.000000 4.174070 0.000000 
#    z 0.000000 0.000000 3.181110 
# 
# 
# High freq. dielectric constant tensor:
#      x y z
#    x 1.760320 0.000000 0.000000 
#    y 0.000000 1.794300 0.000000 
#    z 0.000000 0.000000 1.699810 
# 
# From -- ./inp_files/25000.got.cif
#   From: 2010.03.12/outbox.cif.g09.slc.cpg/sg74_13_cif.got.tgz:25000.got - 2010.04.16 15:46:19.
