data_PCOD8301593
_publ_section_title
;
Structure prediction by ZEFSAII (Michael W. Deem and Ramdas Pophale) SiO2 
 PCOD8301593
Probable space group: I M M A
;
_chemical_formula_sum "Si O2"
_cell_formula_units_Z 80
_cell_length_a 8.970193
_cell_length_b 24.753064
_cell_length_c 23.517431
_cell_angle_alpha 90.000000
_cell_angle_beta 90.000000
_cell_angle_gamma 90.000000
_cell_volume 5221.804768
_symmetry_space_group_name_H-M "I M M A"
_symmetry_group_IT_number 74
_symmetry_cell_setting 'orthorhombic'
loop_
_space_group_symop_operation_xyz
x,y,z
-x,1/2-y,z
x,-y,-z
-x,1/2+y,-z
-x,-y,-z
x,1/2+y,-z
-x,y,z
x,1/2-y,z
1/2+x,1/2+y,1/2+z
1/2-x,-y,1/2+z
1/2+x,1/2-y,1/2-z
1/2-x,y,1/2-z
1/2-x,1/2-y,1/2-z
1/2+x,y,1/2-z
1/2-x,1/2+y,1/2+z
1/2+x,-y,1/2+z
loop_
_atom_site_type_symbol
_atom_site_label
_atom_site_fract_x
_atom_site_fract_y
_atom_site_fract_z
Si Si1 0.323289 0.977819 0.090221
Si Si2 0.176609 0.691481 0.493481
Si Si3 0.676232 0.921219 0.975572
Si Si4 0.828849 0.689799 0.125253
Si Si5 0.675178 0.584195 0.309677
O O1 0.500000 0.972779 0.100621
O O2 0.236314 0.959330 0.145766
O O3 0.273472 0.039973 0.076141
O O4 0.267399 0.942259 0.036804
O O5 0.237494 0.750000 0.515795
O O6 0.232171 0.641098 0.532683
O O7 0.227832 0.680953 0.429541
O O8 0.000000 0.692526 0.492606
O O9 0.500000 0.924045 0.978333
O O10 0.803111 0.750000 0.150882
O O11 0.782758 0.645327 0.171802
O O12 0.000000 0.681924 0.106596
O O13 0.500000 0.576336 0.303786
O O14 0.750000 0.571691 0.250000
#
# Coordination Sequence:
#
# PCOD8301593 Si02
#       5
#    16  16  16  16  16
#     4   9  16  29  46  62  84 113 143 173 210 256
#     4   9  15  24  42  66  88 111 142 175 205 244
#     4   8  14  25  44  66  87 112 139 170 211 255
#     4   9  18  31  43  57  81 111 143 180 218 250
#     4  11  22  33  45  61  82 110 146 186 220 253
#
# _framework density 15.320373999999999
#
# number of rings (size 3 to 8) (size 9 to 14) (size 15 to 20)
#    0.000    2.800    2.000    1.800    0.000    1.200 
#    0.000    3.000    0.000    0.000    0.000    0.000 
#    0.000    0.800    0.000    1.400    0.000    2.000 
#
# Total GULP energy -495573.272766 kJ/mol
# GULP energy per Si atom -12389.331819 kJ/mol
# Density = 1.528550 g / cm^3
# Si number density = 15.320374 Si / 1000 Ang^3
#
#
#
# Elastic Constant Matrix: (Units=GPa)
#
#
# Indices 1 2 3 4 5 6 
#
# 1 28.9708 33.3575 22.3068 0.0000 0.0000 0.0000
# 2 33.3575 151.3599 69.8242 0.0000 0.0000 0.0000
# 3 22.3068 69.8242 74.9748 0.0000 0.0000 0.0000
# 4 0.0000 0.0000 0.0000 20.8377 0.0000 0.0000
# 5 0.0000 0.0000 0.0000 0.0000 19.1567 0.0000
# 6 0.0000 0.0000 0.0000 0.0000 0.0000 15.9762
#
#
#
# Elastic Compliance Matrix: (Units=1/GPa)
#
#
# Indices 1 2 3 4 5 6 
#
# 1 0.048780 -0.007110 -0.007892 0.000000 0.000000 0.000000
# 2 -0.007110 0.012619 -0.009637 0.000000 0.000000 0.000000
# 3 -0.007892 -0.009637 0.024661 0.000000 0.000000 0.000000
# 4 0.000000 0.000000 0.000000 0.047990 0.000000 0.000000
# 5 0.000000 0.000000 0.000000 0.000000 0.052201 0.000000
# 6 0.000000 0.000000 0.000000 0.000000 0.000000 0.062593
#
#
# Mechanical properties :
#
#
# Convention : Reuss Voigt Hill
#
# Bulk Modulus (GPa) = 27.18651 56.25362 41.72006
# Shear Modulus (GPa) = 16.10909 19.84860 17.97884
#
# Velocity S-wave (km/s) = 3.24617 3.60331 3.42939
# Velocity P-wave (km/s) = 5.64217 7.35593 6.55529
#
# Compressibility (1/GPa) = 0.03678295
#
# Stress axis : x y z
#
# Youngs Moduli (GPa) = 20.50002 79.24308 40.54989
#
# Poissons Ratio (x) = 0.56340 0.32002
# Poissons Ratio (y) = 0.14575 0.39079
# Poissons Ratio (z) = 0.16179 0.76368
#
# Static dielectric constant tensor:
#      x y z
#    x 2.777360 0.000000 0.000000 
#    y 0.000000 3.677200 0.000000 
#    z 0.000000 0.000000 2.610090 
# 
# 
# High freq. dielectric constant tensor:
#      x y z
#    x 1.573140 0.000000 0.000000 
#    y 0.000000 1.601650 0.000000 
#    z 0.000000 0.000000 1.537810 
# 
# From -- ./inp_files/39745.got.cif
#   From: 2010.03.12/outbox.cif.g09.slc.cpg/sg74_20_cif.got.tgz:39745.got - 2010.04.16 15:46:19.
