data_PCOD8301789
_publ_section_title
;
Structure prediction by ZEFSAII (Michael W. Deem and Ramdas Pophale) SiO2 
 PCOD8301789
Probable space group: I M M A
;
_chemical_formula_sum "Si O2"
_cell_formula_units_Z 96
_cell_length_a 18.505618
_cell_length_b 9.714317
_cell_length_c 31.771144
_cell_angle_alpha 90.000000
_cell_angle_beta 90.000000
_cell_angle_gamma 90.000000
_cell_volume 5711.480750
_symmetry_space_group_name_H-M "I M M A"
_symmetry_group_IT_number 74
_symmetry_cell_setting 'orthorhombic'
loop_
_space_group_symop_operation_xyz
x,y,z
-x,1/2-y,z
x,-y,-z
-x,1/2+y,-z
-x,-y,-z
x,1/2+y,-z
-x,y,z
x,1/2-y,z
1/2+x,1/2+y,1/2+z
1/2-x,-y,1/2+z
1/2+x,1/2-y,1/2-z
1/2-x,y,1/2-z
1/2-x,1/2-y,1/2-z
1/2+x,y,1/2-z
1/2-x,1/2+y,1/2+z
1/2+x,-y,1/2+z
loop_
_atom_site_type_symbol
_atom_site_label
_atom_site_fract_x
_atom_site_fract_y
_atom_site_fract_z
Si Si1 0.082643 0.591076 0.163479
Si Si2 0.217770 0.410030 0.460885
Si Si3 0.920110 0.413592 0.412805
Si Si4 0.799415 0.906716 0.875394
Si Si5 0.417022 0.590624 0.239656
Si Si6 0.653660 0.410353 0.171263
O O1 0.099549 0.750000 0.155055
O O2 0.132700 0.502964 0.133001
O O3 0.098181 0.554345 0.211921
O O4 0.000000 0.557005 0.152213
O O5 0.244832 0.500000 0.500000
O O6 0.216229 0.250000 0.473740
O O7 0.137695 0.463521 0.447442
O O8 0.272049 0.435389 0.422481
O O9 0.917660 0.250000 0.411838
O O10 0.898047 0.464317 0.366290
O O11 0.000000 0.470048 0.424193
O O12 0.825177 0.750000 0.871043
O O13 0.736247 0.936980 0.841870
O O14 0.500000 0.556942 0.228294
O O15 0.400245 0.750000 0.230611
O O16 0.363311 0.497399 0.212628
O O17 0.640016 0.250000 0.180927
#
# Coordination Sequence:
#
# PCOD8301789 Si02
#       6
#    16  16  16  16  16  16
#     4   9  19  35  52  70  93 122 155 190 233 285
#     4   9  18  32  49  70  95 121 151 188 230 276
#     4   8  14  26  44  65  92 127 162 194 227 261
#     4   9  19  34  50  71  97 122 152 193 236 276
#     4   9  18  31  45  65  96 129 160 197 236 270
#     4   9  17  29  46  68  94 127 166 199 227 267
#
# _framework density 16.808250000000001
#
# number of rings (size 3 to 8) (size 9 to 14) (size 15 to 20)
#    0.000    3.167    0.000    3.500    0.000    4.333 
#    0.000    7.500    0.000    1.500    0.000    0.000 
#    0.000    0.000    0.000    0.000    0.000    0.000 
#
# Total GULP energy -595094.140442 kJ/mol
# GULP energy per Si atom -12397.794593 kJ/mol
# Density = 1.676999 g / cm^3
# Si number density = 16.808250 Si / 1000 Ang^3
#
#
#
# Elastic Constant Matrix: (Units=GPa)
#
#
# Indices 1 2 3 4 5 6 
#
# 1 92.8215 59.3989 59.6784 0.0000 0.0000 0.0000
# 2 59.3989 74.0801 58.4989 0.0000 0.0000 0.0000
# 3 59.6784 58.4989 86.0422 0.0000 0.0000 0.0000
# 4 0.0000 0.0000 0.0000 32.2416 0.0000 0.0000
# 5 0.0000 0.0000 0.0000 0.0000 15.2503 0.0000
# 6 0.0000 0.0000 0.0000 0.0000 0.0000 28.4716
#
#
#
# Elastic Compliance Matrix: (Units=1/GPa)
#
#
# Indices 1 2 3 4 5 6 
#
# 1 0.024331 -0.013350 -0.007799 0.000000 0.000000 0.000000
# 2 -0.013350 0.036473 -0.015538 0.000000 0.000000 0.000000
# 3 -0.007799 -0.015538 0.027596 0.000000 0.000000 0.000000
# 4 0.000000 0.000000 0.000000 0.031016 0.000000 0.000000
# 5 0.000000 0.000000 0.000000 0.000000 0.065572 0.000000
# 6 0.000000 0.000000 0.000000 0.000000 0.000000 0.035123
#
#
# Mechanical properties :
#
#
# Convention : Reuss Voigt Hill
#
# Bulk Modulus (GPa) = 66.55525 67.56626 67.06075
# Shear Modulus (GPa) = 16.75074 20.21720 18.48397
#
# Velocity S-wave (km/s) = 3.16029 3.47192 3.31976
# Velocity P-wave (km/s) = 7.28006 7.50719 7.39450
#
# Compressibility (1/GPa) = 0.01502511
#
# Stress axis : x y z
#
# Youngs Moduli (GPa) = 41.10002 27.41726 36.23742
#
# Poissons Ratio (x) = 0.36603 0.28262
# Poissons Ratio (y) = 0.54870 0.56306
# Poissons Ratio (z) = 0.32054 0.42601
#
# Static dielectric constant tensor:
#      x y z
#    x 3.098000 0.000000 0.000000 
#    y 0.000000 2.898950 0.000000 
#    z 0.000000 0.000000 2.960300 
# 
# 
# High freq. dielectric constant tensor:
#      x y z
#    x 1.641560 0.000000 0.000000 
#    y 0.000000 1.631260 0.000000 
#    z 0.000000 0.000000 1.637360 
# 
# From -- ./inp_files/67689.got.cif
#   From: 2010.03.12/outbox.cif.g09.slc.cpg/sg74_34_cif.got.tgz:67689.got - 2010.04.16 15:46:19.
