data_PCOD8301395
_publ_section_title
;
Structure prediction by ZEFSAII (Michael W. Deem and Ramdas Pophale) SiO2 
 PCOD8301395
Probable space group: I M M A
;
_chemical_formula_sum "Si O2"
_cell_formula_units_Z 64
_cell_length_a 13.837659
_cell_length_b 12.789994
_cell_length_c 17.426701
_cell_angle_alpha 90.000000
_cell_angle_beta 90.000000
_cell_angle_gamma 90.000000
_cell_volume 3084.239854
_symmetry_space_group_name_H-M "I M M A"
_symmetry_group_IT_number 74
_symmetry_cell_setting 'orthorhombic'
loop_
_space_group_symop_operation_xyz
x,y,z
-x,1/2-y,z
x,-y,-z
-x,1/2+y,-z
-x,-y,-z
x,1/2+y,-z
-x,y,z
x,1/2-y,z
1/2+x,1/2+y,1/2+z
1/2-x,-y,1/2+z
1/2+x,1/2-y,1/2-z
1/2-x,y,1/2-z
1/2-x,1/2-y,1/2-z
1/2+x,y,1/2-z
1/2-x,1/2+y,1/2+z
1/2+x,-y,1/2+z
loop_
_atom_site_type_symbol
_atom_site_label
_atom_site_fract_x
_atom_site_fract_y
_atom_site_fract_z
Si Si1 0.615797 0.750000 0.021401
Si Si2 0.109515 0.634308 0.829436
Si Si3 0.892733 0.479855 0.697707
Si Si4 0.657581 0.750000 0.195897
Si Si5 0.773536 0.925702 0.564510
O O1 0.500000 0.750000 0.035651
O O2 0.646066 0.849888 0.971491
O O3 0.672077 0.750000 0.103187
O O4 0.114221 0.750000 0.791242
O O5 0.145735 0.547307 0.769495
O O6 0.182005 0.635163 0.901224
O O7 0.000000 0.610338 0.857346
O O8 0.897749 0.356700 0.718177
O O9 0.824161 0.499788 0.626310
O O10 0.000000 0.519162 0.677337
O O11 0.750000 0.750000 0.250000
O O12 0.729200 0.000000 0.500000
#
# Coordination Sequence:
#
# PCOD8301395 Si02
#       5
#     8  16  16   8  16
#     4  12  26  42  64  97 135 169 209 267 326 383
#     4  10  23  44  67  94 128 169 218 270 318 380
#     4  11  24  41  65  96 130 171 216 265 322 385
#     4  12  24  42  64  89 133 175 217 257 311 384
#     4  12  24  40  67  96 129 167 214 265 329 390
#
# _framework density 20.750655999999999
#
# number of rings (size 3 to 8) (size 9 to 14) (size 15 to 20)
#    0.000    0.750    3.750    4.125    1.750    2.500 
#    0.000    0.000    0.000    0.000    0.000    0.000 
#    0.000    0.000    0.000    0.000    0.000    0.000 
#
# Total GULP energy -396718.657446 kJ/mol
# GULP energy per Si atom -12397.458045 kJ/mol
# Density = 2.070343 g / cm^3
# Si number density = 20.750656 Si / 1000 Ang^3
#
#
#
# Elastic Constant Matrix: (Units=GPa)
#
#
# Indices 1 2 3 4 5 6 
#
# 1 97.0825 26.4785 62.4423 0.0000 0.0000 0.0000
# 2 26.4785 150.1965 54.0697 0.0000 0.0000 0.0000
# 3 62.4423 54.0697 112.8726 0.0000 0.0000 0.0000
# 4 0.0000 0.0000 0.0000 38.0576 0.0000 0.0000
# 5 0.0000 0.0000 0.0000 0.0000 22.3631 0.0000
# 6 0.0000 0.0000 0.0000 0.0000 0.0000 23.6325
#
#
#
# Elastic Compliance Matrix: (Units=1/GPa)
#
#
# Indices 1 2 3 4 5 6 
#
# 1 0.016014 0.000442 -0.009071 0.000000 0.000000 0.000000
# 2 0.000442 0.008058 -0.004105 0.000000 0.000000 0.000000
# 3 -0.009071 -0.004105 0.015844 0.000000 0.000000 0.000000
# 4 0.000000 0.000000 0.000000 0.026276 0.000000 0.000000
# 5 0.000000 0.000000 0.000000 0.000000 0.044716 0.000000
# 6 0.000000 0.000000 0.000000 0.000000 0.000000 0.042315
#
#
# Mechanical properties :
#
#
# Convention : Reuss Voigt Hill
#
# Bulk Modulus (GPa) = 69.20817 71.79251 70.50034
# Shear Modulus (GPa) = 27.24702 31.28805 29.26753
#
# Velocity S-wave (km/s) = 3.62756 3.88727 3.75966
# Velocity P-wave (km/s) = 7.13935 7.40409 7.27292
#
# Compressibility (1/GPa) = 0.01444916
#
# Stress axis : x y z
#
# Youngs Moduli (GPa) = 62.44386 124.10683 63.11510
#
# Poissons Ratio (x) = -0.05490 0.57253
# Poissons Ratio (y) = -0.02762 0.25906
# Poissons Ratio (z) = 0.56644 0.50940
#
# Static dielectric constant tensor:
#      x y z
#    x 3.742370 0.000000 0.000000 
#    y 0.000000 4.066530 0.000000 
#    z 0.000000 0.000000 3.713490 
# 
# 
# High freq. dielectric constant tensor:
#      x y z
#    x 1.812480 0.000000 0.000000 
#    y 0.000000 1.832780 0.000000 
#    z 0.000000 0.000000 1.799770 
# 
# From -- ./inp_files/40716.got.cif
#   From: 2010.03.12/outbox.cif.g09.slc.cpg/sg74_21_cif.got.tgz:40716.got - 2010.04.16 15:46:19.
