data_PCOD8301961
_publ_section_title
;
Structure prediction by ZEFSAII (Michael W. Deem and Ramdas Pophale) SiO2 
 PCOD8301961
Probable space group: P 41
;
_chemical_formula_sum "Si O2"
_cell_formula_units_Z 28
_cell_length_a 11.504565
_cell_length_b 11.504565
_cell_length_c 9.439397
_cell_angle_alpha 90.000000
_cell_angle_beta 90.000000
_cell_angle_gamma 90.000000
_cell_volume 1249.351539
_symmetry_space_group_name_H-M "P 41"
_symmetry_group_IT_number 76
_symmetry_cell_setting 'tetragonal'
loop_
_space_group_symop_operation_xyz
x,y,z
-y,x,1/4+z
-x,-y,1/2+z
y,-x,3/4+z
loop_
_atom_site_type_symbol
_atom_site_label
_atom_site_fract_x
_atom_site_fract_y
_atom_site_fract_z
Si Si1 0.544756 0.405762 0.502650
Si Si2 0.619555 0.305287 0.893369
Si Si3 0.946475 0.114481 0.528027
Si Si4 0.994949 0.436941 0.250887
Si Si5 0.299738 0.788971 0.932130
Si Si6 0.750874 0.358783 0.169317
Si Si7 0.642074 0.053526 0.812326
O O1 0.570518 0.526571 0.584938
O O2 0.421333 0.356362 0.555174
O O3 0.649336 0.315538 0.529637
O O4 0.486774 0.301713 0.950214
O O5 0.642641 0.193152 0.794539
O O6 0.712386 0.308710 0.019006
O O7 0.818010 0.158377 0.492365
O O8 0.012462 0.060819 0.393244
O O9 0.014635 0.225989 0.586524
O O10 0.111028 0.394850 0.175615
O O11 0.998143 0.417142 0.421170
O O12 0.890082 0.364008 0.182141
O O13 0.981331 0.571864 0.205046
O O14 0.290581 0.739125 0.776296
#
# Coordination Sequence:
#
# PCOD8301961 Si02
#       7
#     4   4   4   4   4   4   4
#     4  12  26  42  72 112 156 197 246 308 390 465
#     4  11  25  46  70 112 154 191 250 303 383 469
#     4  12  28  54  78 106 152 200 271 321 378 454
#     4  11  26  47  73 107 150 191 249 314 375 456
#     4  12  26  43  76 104 148 195 250 314 382 439
#     4  11  25  44  71 102 149 192 242 306 372 457
#     4  11  26  50  74 111 149 200 254 314 384 456
#
# _framework density 22.411625999999998
#
# number of rings (size 3 to 8) (size 9 to 14) (size 15 to 20)
#    0.000    0.571    4.286    1.714   10.000    2.286 
#    0.000    0.000    0.000    0.000    0.000    0.000 
#    0.000    0.000    0.000    0.000    0.000    0.000 
#
# Total GULP energy -347122.256329 kJ/mol
# GULP energy per Si atom -12397.223440 kJ/mol
# Density = 2.236062 g / cm^3
# Si number density = 22.411626 Si / 1000 Ang^3
#
#
#
# Elastic Constant Matrix: (Units=GPa)
#
#
# Indices 1 2 3 4 5 6 
#
# 1 121.1437 30.9740 49.5314 0.0000 0.0000 -7.3931
# 2 30.9740 121.1437 49.5314 0.0000 0.0000 7.3931
# 3 49.5314 49.5314 86.7055 0.0000 0.0000 0.0000
# 4 0.0000 0.0000 0.0000 41.8491 0.0000 0.0000
# 5 0.0000 0.0000 0.0000 0.0000 41.8491 0.0000
# 6 -7.3931 7.3931 0.0000 0.0000 0.0000 34.7480
#
#
#
# Elastic Compliance Matrix: (Units=1/GPa)
#
#
# Indices 1 2 3 4 5 6 
#
# 1 0.010980 -0.000511 -0.005980 0.000000 0.000000 0.002445
# 2 -0.000511 0.010980 -0.005980 0.000000 0.000000 -0.002445
# 3 -0.005980 -0.005980 0.018366 0.000000 0.000000 0.000000
# 4 0.000000 0.000000 0.000000 0.023895 0.000000 0.000000
# 5 0.000000 0.000000 0.000000 0.000000 0.023895 0.000000
# 6 0.002445 -0.002445 0.000000 0.000000 0.000000 0.029819
#
#
# Mechanical properties :
#
#
# Convention : Reuss Voigt Hill
#
# Bulk Modulus (GPa) = 65.01192 65.45182 65.23187
# Shear Modulus (GPa) = 33.78258 36.95298 35.36778
#
# Velocity S-wave (km/s) = 3.88670 4.06498 3.97684
# Velocity P-wave (km/s) = 7.01520 7.16240 7.08918
#
# Compressibility (1/GPa) = 0.01538179
#
# Stress axis : x y z
#
# Youngs Moduli (GPa) = 91.07733 91.07733 54.44945
#
# Poissons Ratio (x) = 0.04658 0.32561
# Poissons Ratio (y) = 0.04658 0.32561
# Poissons Ratio (z) = 0.54465 0.54465
#
# Static dielectric constant tensor:
#      x y z
#    x 4.268260 0.000000 0.000000 
#    y 0.000000 4.268260 0.000000 
#    z 0.000000 0.000000 4.099020 
# 
# 
# High freq. dielectric constant tensor:
#      x y z
#    x 1.891900 0.000000 0.000000 
#    y 0.000000 1.891900 0.000000 
#    z 0.000000 0.000000 1.881560 
# 
# From -- ./inp_files/595.got.cif
#   From: 2010.03.12/outbox.cif.g09.slc.cpg/sg76_cif.got.tgz:595.got - 2010.04.16 16:34:25.
