data_PCOD8301487
_publ_section_title
;
Structure prediction by ZEFSAII (Michael W. Deem and Ramdas Pophale) SiO2 
 PCOD8301487
Probable space group: I M M A
;
_chemical_formula_sum "Si O2"
_cell_formula_units_Z 96
_cell_length_a 14.275550
_cell_length_b 27.671105
_cell_length_c 14.189365
_cell_angle_alpha 90.000000
_cell_angle_beta 90.000000
_cell_angle_gamma 90.000000
_cell_volume 5605.086410
_symmetry_space_group_name_H-M "I M M A"
_symmetry_group_IT_number 74
_symmetry_cell_setting 'orthorhombic'
loop_
_space_group_symop_operation_xyz
x,y,z
-x,1/2-y,z
x,-y,-z
-x,1/2+y,-z
-x,-y,-z
x,1/2+y,-z
-x,y,z
x,1/2-y,z
1/2+x,1/2+y,1/2+z
1/2-x,-y,1/2+z
1/2+x,1/2-y,1/2-z
1/2-x,y,1/2-z
1/2-x,1/2-y,1/2-z
1/2+x,y,1/2-z
1/2-x,1/2+y,1/2+z
1/2+x,-y,1/2+z
loop_
_atom_site_type_symbol
_atom_site_label
_atom_site_fract_x
_atom_site_fract_y
_atom_site_fract_z
Si Si1 0.392925 0.050651 0.359519
Si Si2 0.107075 0.050658 0.359496
Si Si3 0.896750 0.306987 0.750003
Si Si4 0.750004 0.105642 0.476713
Si Si5 0.250000 0.693263 0.403985
Si Si6 0.249994 0.032122 0.642427
O O1 0.500000 0.045891 0.392122
O O2 0.384334 0.064274 0.250013
O O3 0.343034 0.093162 0.417767
O O4 0.341761 0.999886 0.379731
O O5 0.156975 0.093169 0.417736
O O6 0.000000 0.045904 0.392101
O O7 0.158232 0.999892 0.379716
O O8 0.905592 0.250000 0.750039
O O9 0.841478 0.322023 0.655919
O O10 0.841449 0.322045 0.844057
O O11 0.000000 0.331360 0.750004
O O12 0.750000 0.162780 0.499249
O O13 0.750024 0.078257 0.576445
O O14 0.250025 0.750000 0.429194
O O15 0.250000 0.050467 0.750000
#
# Coordination Sequence:
#
# PCOD8301487 Si02
#       6
#    16  16  16  16  16  16
#     4   9  18  34  52  70  95 127 162 199 242 291
#     4   9  18  34  52  70  95 127 162 199 242 291
#     4   8  15  31  50  63  87 130 167 195 234 281
#     4  11  20  29  51  74  98 127 163 200 240 285
#     4   9  19  32  47  70  98 128 164 203 240 283
#     4   9  19  31  46  71 103 130 153 192 239 286
#
# _framework density 17.127300000000002
#
# number of rings (size 3 to 8) (size 9 to 14) (size 15 to 20)
#    0.000    2.833    0.000    4.500    2.333    4.000 
#    0.000    0.000    0.000    2.000    0.000    2.333 
#    0.000    0.000    0.000    0.000    0.000    0.000 
#
# Total GULP energy -595128.028291 kJ/mol
# GULP energy per Si atom -12398.500589 kJ/mol
# Density = 1.708832 g / cm^3
# Si number density = 17.127300 Si / 1000 Ang^3
#
#
#
# Elastic Constant Matrix: (Units=GPa)
#
#
# Indices 1 2 3 4 5 6 
#
# 1 155.3213 32.3134 37.0332 0.0000 0.0000 0.0000
# 2 32.3134 71.5665 39.8765 -0.0002 -0.0001 0.0000
# 3 37.0332 39.8765 64.2030 -0.0001 0.0000 0.0000
# 4 0.0000 -0.0002 -0.0001 30.9543 -0.0001 0.0000
# 5 0.0000 -0.0001 0.0000 -0.0001 21.3276 0.0000
# 6 0.0000 0.0000 0.0000 0.0000 0.0000 8.5710
#
#
#
# Elastic Compliance Matrix: (Units=1/GPa)
#
#
# Indices 1 2 3 4 5 6 
#
# 1 0.007570 -0.001506 -0.003431 0.000000 0.000000 0.000000
# 2 -0.001506 0.021668 -0.012589 0.000000 0.000000 0.000000
# 3 -0.003431 -0.012589 0.025374 0.000000 0.000000 0.000000
# 4 0.000000 0.000000 0.000000 0.032306 0.000000 0.000000
# 5 0.000000 0.000000 0.000000 0.000000 0.046888 0.000000
# 6 0.000000 0.000000 0.000000 0.000000 0.000000 0.116672
#
#
# Mechanical properties :
#
#
# Convention : Reuss Voigt Hill
#
# Bulk Modulus (GPa) = 51.12762 56.61521 53.87141
# Shear Modulus (GPa) = 17.12047 24.29508 20.70778
#
# Velocity S-wave (km/s) = 3.16508 3.77038 3.48091
# Velocity P-wave (km/s) = 6.57824 7.21676 6.90489
#
# Compressibility (1/GPa) = 0.01955890
#
# Stress axis : x y z
#
# Youngs Moduli (GPa) = 132.10715 46.15187 39.41116
#
# Poissons Ratio (x) = 0.06951 0.13521
# Poissons Ratio (y) = 0.19898 0.49615
# Poissons Ratio (z) = 0.45323 0.58100
#
# Static dielectric constant tensor:
#      x y z
#    x 3.884320 0.000000 0.000000 
#    y 0.000000 2.812090 0.000000 
#    z 0.000000 0.000000 3.179760 
# 
# 
# High freq. dielectric constant tensor:
#      x y z
#    x 1.670500 0.000000 0.000000 
#    y 0.000000 1.625620 0.000000 
#    z 0.000000 0.000000 1.657450 
# 
# From -- ./inp_files/33079.got.cif
#   From: 2010.03.12/outbox.cif.g09.slc.cpg/sg74_17_cif.got.tgz:33079.got - 2010.04.16 15:46:19.
