data_PCOD8301084
_publ_section_title
;
Structure prediction by ZEFSAII (Michael W. Deem and Ramdas Pophale) SiO2 
 PCOD8301084
Probable space group: I M M A
;
_chemical_formula_sum "Si O2"
_cell_formula_units_Z 104
_cell_length_a 23.799422
_cell_length_b 9.118447
_cell_length_c 22.652213
_cell_angle_alpha 90.000000
_cell_angle_beta 90.000000
_cell_angle_gamma 90.000000
_cell_volume 4915.842100
_symmetry_space_group_name_H-M "I M M A"
_symmetry_group_IT_number 74
_symmetry_cell_setting 'orthorhombic'
loop_
_space_group_symop_operation_xyz
x,y,z
-x,1/2-y,z
x,-y,-z
-x,1/2+y,-z
-x,-y,-z
x,1/2+y,-z
-x,y,z
x,1/2-y,z
1/2+x,1/2+y,1/2+z
1/2-x,-y,1/2+z
1/2+x,1/2-y,1/2-z
1/2-x,y,1/2-z
1/2-x,1/2-y,1/2-z
1/2+x,y,1/2-z
1/2-x,1/2+y,1/2+z
1/2+x,-y,1/2+z
loop_
_atom_site_type_symbol
_atom_site_label
_atom_site_fract_x
_atom_site_fract_y
_atom_site_fract_z
Si Si1 0.500000 0.922829 0.562611
Si Si2 0.885751 0.418010 0.124699
Si Si3 0.500000 0.076295 0.784868
Si Si4 0.312755 0.914986 0.842974
Si Si5 0.891966 0.085783 0.449848
Si Si6 0.121366 0.924324 0.243156
Si Si7 0.500000 0.923392 0.082786
Si Si8 0.773787 0.918620 0.939391
O O1 0.500000 0.750000 0.551311
O O2 0.445340 0.972843 0.599356
O O3 0.500000 0.000000 0.500000
O O4 0.889865 0.250000 0.146696
O O5 0.864797 0.520056 0.177847
O O6 0.840010 0.433339 0.072772
O O7 0.500000 0.250000 0.781611
O O8 0.442204 0.017351 0.755538
O O9 0.500000 0.016842 0.850730
O O10 0.299048 0.750000 0.820324
O O11 0.365631 0.913676 0.885822
O O12 0.260512 0.979010 0.881764
O O13 0.330513 0.013830 0.787198
O O14 0.905335 0.250000 0.470705
O O15 0.854325 0.000000 0.500000
O O16 0.946743 0.986513 0.449674
O O17 0.124953 0.750000 0.246936
O O18 0.500000 0.750000 0.080754
O O19 0.754640 0.750000 0.947943
O O20 0.759052 0.000000 0.000000
#
# Coordination Sequence:
#
# PCOD8301084 Si02
#       8
#     8  16   8  16  16  16   8  16
#     4  10  21  38  64  96 127 160 197 240 294 355
#     4  10  22  40  61  90 125 159 193 235 294 356
#     4   9  19  35  55  81 113 148 188 237 291 337
#     4  10  22  39  58  82 113 154 198 241 293 349
#     4  11  22  35  52  77 107 143 192 243 295 348
#     4  11  22  38  61  88 118 155 200 247 293 347
#     4  11  20  35  54  73 104 142 183 235 293 344
#     4  10  22  41  64  88 118 155 196 242 294 350
#
# _framework density 21.156089999999999
#
# number of rings (size 3 to 8) (size 9 to 14) (size 15 to 20)
#    0.000    1.692    1.538    2.769    0.000    3.077 
#    0.000    4.231    0.000    0.000    0.000    0.000 
#    0.000    0.000    0.000    0.000    0.000    0.000 
#
# Total GULP energy -644573.930430 kJ/mol
# GULP energy per Si atom -12395.652508 kJ/mol
# Density = 2.110794 g / cm^3
# Si number density = 21.156090 Si / 1000 Ang^3
#
#
#
# Elastic Constant Matrix: (Units=GPa)
#
#
# Indices 1 2 3 4 5 6 
#
# 1 111.3375 29.3433 34.0325 0.0000 0.0000 0.0000
# 2 29.3433 93.2066 53.7344 0.0000 0.0000 0.0000
# 3 34.0325 53.7344 125.6578 0.0000 0.0000 0.0000
# 4 0.0000 0.0000 0.0000 40.1999 0.0000 0.0000
# 5 0.0000 0.0000 0.0000 0.0000 21.4594 0.0000
# 6 0.0000 0.0000 0.0000 0.0000 0.0000 -11.4950
#
#
#
# Elastic Compliance Matrix: (Units=1/GPa)
#
#
# Indices 1 2 3 4 5 6 
#
# 1 0.010100 -0.002127 -0.001826 0.000000 0.000000 0.000000
# 2 -0.002127 0.014687 -0.005705 0.000000 0.000000 0.000000
# 3 -0.001826 -0.005705 0.010892 0.000000 0.000000 0.000000
# 4 0.000000 0.000000 0.000000 0.024876 0.000000 0.000000
# 5 0.000000 0.000000 0.000000 0.000000 0.046600 0.000000
# 6 0.000000 0.000000 0.000000 0.000000 0.000000 -0.086994
#
#
# Mechanical properties :
#
#
# Convention : Reuss Voigt Hill
#
# Bulk Modulus (GPa) = 61.10783 62.71358 61.91071
# Shear Modulus (GPa) = 111.28190 24.23896 67.76043
#
# Velocity S-wave (km/s) = 7.26048 3.38852 5.66554
# Velocity P-wave (km/s) = 9.96158 6.70948 8.49265
#
# Compressibility (1/GPa) = 0.01636451
#
# Stress axis : x y z
#
# Youngs Moduli (GPa) = 99.00555 68.08633 91.81017
#
# Poissons Ratio (x) = 0.14483 0.16764
# Poissons Ratio (y) = 0.21060 0.52373
# Poissons Ratio (z) = 0.18078 0.38840
#
# Static dielectric constant tensor:
#      x y z
#    x 4.001860 0.000000 0.000000 
#    y 0.000000 3.717540 0.000000 
#    z 0.000000 0.000000 3.772060 
# 
# 
# High freq. dielectric constant tensor:
#      x y z
#    x 1.835650 0.000000 0.000000 
#    y 0.000000 1.813310 0.000000 
#    z 0.000000 0.000000 1.836690 
# 
# From -- ./inp_files/55300.got.cif
#   From: 2010.03.12/outbox.cif.g09.slc.cpg/sg74_28_cif.got.tgz:55300.got - 2010.04.16 15:46:19.
