data_PCOD8301321
_publ_section_title
;
Structure prediction by ZEFSAII (Michael W. Deem and Ramdas Pophale) SiO2 
 PCOD8301321
Probable space group: I M M A
;
_chemical_formula_sum "Si O2"
_cell_formula_units_Z 64
_cell_length_a 16.729546
_cell_length_b 9.465409
_cell_length_c 20.069515
_cell_angle_alpha 90.000000
_cell_angle_beta 90.000000
_cell_angle_gamma 90.000000
_cell_volume 3178.047744
_symmetry_space_group_name_H-M "I M M A"
_symmetry_group_IT_number 74
_symmetry_cell_setting 'orthorhombic'
loop_
_space_group_symop_operation_xyz
x,y,z
-x,1/2-y,z
x,-y,-z
-x,1/2+y,-z
-x,-y,-z
x,1/2+y,-z
-x,y,z
x,1/2-y,z
1/2+x,1/2+y,1/2+z
1/2-x,-y,1/2+z
1/2+x,1/2-y,1/2-z
1/2-x,y,1/2-z
1/2-x,1/2-y,1/2-z
1/2+x,y,1/2-z
1/2-x,1/2+y,1/2+z
1/2+x,-y,1/2+z
loop_
_atom_site_type_symbol
_atom_site_label
_atom_site_fract_x
_atom_site_fract_y
_atom_site_fract_z
Si Si1 0.841610 0.500000 0.000000
Si Si2 0.409172 0.250000 0.414337
Si Si3 0.659113 0.250000 0.273615
Si Si4 0.095694 0.750000 0.565668
Si Si5 0.265987 0.250000 0.955771
Si Si6 0.407496 0.467851 0.178744
Si Si7 0.186553 0.750000 0.309112
O O1 0.896158 0.397707 0.046067
O O2 0.783153 0.607663 0.035937
O O3 0.500000 0.250000 0.388588
O O4 0.346370 0.250000 0.353458
O O5 0.750000 0.250000 0.250000
O O6 0.613407 0.115762 0.245293
O O7 0.150928 0.750000 0.499170
O O8 0.118895 0.613279 0.610669
O O9 0.000000 0.750000 0.547067
O O10 0.271152 0.250000 0.878199
O O11 0.500000 0.493313 0.173451
O O12 0.368116 0.615035 0.191848
O O13 0.250000 0.750000 0.250000
#
# Coordination Sequence:
#
# PCOD8301321 Si02
#       7
#     8   8   8   8   8  16   8
#     4  10  25  40  69  96 124 164 212 276 323 382
#     4  11  24  46  70  95 127 166 214 269 328 380
#     4  11  24  39  71  94 124 168 217 258 311 382
#     4   9  20  40  70  97 127 168 217 265 320 393
#     4  11  23  41  62  95 135 168 214 261 326 376
#     4  10  22  41  63  95 129 165 212 264 316 381
#     4  12  26  38  59  90 134 175 213 260 316 376
#
# _framework density 20.13815
#
# number of rings (size 3 to 8) (size 9 to 14) (size 15 to 20)
#    0.000    1.500    0.000    4.875   14.000    1.000 
#    0.000    3.125    0.000    0.000    0.000    0.000 
#    0.000    0.000    0.000    0.000    0.000    0.000 
#
# Total GULP energy -396423.142083 kJ/mol
# GULP energy per Si atom -12388.223190 kJ/mol
# Density = 2.009232 g / cm^3
# Si number density = 20.138150 Si / 1000 Ang^3
#
#
#
# Elastic Constant Matrix: (Units=GPa)
#
#
# Indices 1 2 3 4 5 6 
#
# 1 112.8108 56.9598 59.0033 0.0000 0.0000 0.0000
# 2 56.9598 173.2183 49.3847 0.0000 0.0000 0.0000
# 3 59.0033 49.3847 138.4201 0.0000 0.0000 0.0000
# 4 0.0000 0.0000 0.0000 4.0849 0.0000 0.0000
# 5 0.0000 0.0000 0.0000 0.0000 31.7397 0.0000
# 6 0.0000 0.0000 0.0000 0.0000 0.0000 395.3985
#
#
#
# Elastic Compliance Matrix: (Units=1/GPa)
#
#
# Indices 1 2 3 4 5 6 
#
# 1 0.012599 -0.002908 -0.004333 0.000000 0.000000 0.000000
# 2 -0.002908 0.007098 -0.001293 0.000000 0.000000 0.000000
# 3 -0.004333 -0.001293 0.009533 0.000000 0.000000 0.000000
# 4 0.000000 0.000000 0.000000 0.244804 0.000000 0.000000
# 5 0.000000 0.000000 0.000000 0.000000 0.031506 0.000000
# 6 0.000000 0.000000 0.000000 0.000000 0.000000 0.002529
#
#
# Mechanical properties :
#
#
# Convention : Reuss Voigt Hill
#
# Bulk Modulus (GPa) = 82.22194 83.90498 83.06346
# Shear Modulus (GPa) = 15.18880 103.51805 59.35343
#
# Velocity S-wave (km/s) = 2.74930 7.17743 5.43481
# Velocity P-wave (km/s) = 7.14114 10.50916 8.98439
#
# Compressibility (1/GPa) = 0.01216220
#
# Stress axis : x y z
#
# Youngs Moduli (GPa) = 79.37286 140.88941 104.90225
#
# Poissons Ratio (x) = 0.40964 0.45455
# Poissons Ratio (y) = 0.23078 0.13563
# Poissons Ratio (z) = 0.34393 0.18216
#
# Static dielectric constant tensor:
#      x y z
#    x 3.826560 0.000000 0.000000 
#    y 0.000000 4.362210 0.000000 
#    z 0.000000 0.000000 3.733450 
# 
# 
# High freq. dielectric constant tensor:
#      x y z
#    x 1.796130 0.000000 0.000000 
#    y 0.000000 1.807860 0.000000 
#    z 0.000000 0.000000 1.782920 
# 
# From -- ./inp_files/59567.got.cif
#   From: 2010.03.12/outbox.cif.g09.slc.cpg/sg74_30_cif.got.tgz:59567.got - 2010.04.16 15:46:19.
