data_PCOD8301542
_publ_section_title
;
Structure prediction by ZEFSAII (Michael W. Deem and Ramdas Pophale) SiO2 
 PCOD8301542
Probable space group: I M M A
;
_chemical_formula_sum "Si O2"
_cell_formula_units_Z 112
_cell_length_a 28.451379
_cell_length_b 14.459723
_cell_length_c 14.999101
_cell_angle_alpha 90.000000
_cell_angle_beta 90.000000
_cell_angle_gamma 90.000000
_cell_volume 6170.616042
_symmetry_space_group_name_H-M "I M M A"
_symmetry_group_IT_number 74
_symmetry_cell_setting 'orthorhombic'
loop_
_space_group_symop_operation_xyz
x,y,z
-x,1/2-y,z
x,-y,-z
-x,1/2+y,-z
-x,-y,-z
x,1/2+y,-z
-x,y,z
x,1/2-y,z
1/2+x,1/2+y,1/2+z
1/2-x,-y,1/2+z
1/2+x,1/2-y,1/2-z
1/2-x,y,1/2-z
1/2-x,1/2-y,1/2-z
1/2+x,y,1/2-z
1/2-x,1/2+y,1/2+z
1/2+x,-y,1/2+z
loop_
_atom_site_type_symbol
_atom_site_label
_atom_site_fract_x
_atom_site_fract_y
_atom_site_fract_z
Si Si1 0.108263 0.007203 0.715319
Si Si2 0.645559 0.992897 0.396701
Si Si3 0.446536 0.358600 0.907797
Si Si4 0.273941 0.648592 0.415981
Si Si5 0.718845 0.148821 0.378361
Si Si6 0.054971 0.143650 0.390604
Si Si7 0.217188 0.008600 0.672628
O O1 0.085489 0.094363 0.666424
O O2 0.103255 0.016573 0.823892
O O3 0.083932 0.914078 0.681350
O O4 0.162877 0.005791 0.692452
O O5 0.673391 0.084269 0.363613
O O6 0.627565 0.000000 0.500000
O O7 0.678881 0.904008 0.384901
O O8 0.500000 0.390730 0.892039
O O9 0.441599 0.250000 0.895252
O O10 0.431354 0.386622 0.008453
O O11 0.270028 0.750000 0.368418
O O12 0.275978 0.667255 0.518955
O O13 0.228237 0.582066 0.405630
O O14 0.713259 0.250000 0.331316
O O15 0.765567 0.096688 0.343640
O O16 0.067928 0.250000 0.375183
O O17 0.000000 0.126519 0.375136
O O18 0.250000 0.052182 0.750000
#
# Coordination Sequence:
#
# PCOD8301542 Si02
#       7
#    16  16  16  16  16  16  16
#     4  12  21  32  56  85 104 144 186 222 269 326
#     4   9  19  36  51  73 106 138 185 231 260 305
#     4   9  20  39  60  84 114 142 171 216 277 343
#     4   9  18  34  52  65  92 143 187 221 266 312
#     4   9  18  34  52  65  92 143 187 221 266 312
#     4   9  20  39  60  84 114 142 171 216 277 343
#     4  11  21  34  43  75 111 139 172 228 270 313
#
# _framework density 18.150538999999998
#
# number of rings (size 3 to 8) (size 9 to 14) (size 15 to 20)
#    0.000    2.286    2.857    3.000    0.000    6.286 
#    0.000    2.857    0.000    1.714    0.000    2.000 
#    0.000    0.000    0.000    0.000    0.000    0.000 
#
# Total GULP energy -693834.945451 kJ/mol
# GULP energy per Si atom -12389.909740 kJ/mol
# Density = 1.810923 g / cm^3
# Si number density = 18.150539 Si / 1000 Ang^3
#
#
#
# Elastic Constant Matrix: (Units=GPa)
#
#
# Indices 1 2 3 4 5 6 
#
# 1 67.8082 22.5228 52.4101 0.0000 0.0000 0.0000
# 2 22.5228 108.9812 34.5425 0.0000 0.0000 0.0000
# 3 52.4101 34.5425 98.8028 0.0000 0.0000 0.0000
# 4 0.0000 0.0000 0.0000 16.9180 0.0000 0.0000
# 5 0.0000 0.0000 0.0000 0.0000 27.3345 0.0000
# 6 0.0000 0.0000 0.0000 0.0000 0.0000 35.1057
#
#
#
# Elastic Compliance Matrix: (Units=1/GPa)
#
#
# Indices 1 2 3 4 5 6 
#
# 1 0.025110 -0.001088 -0.012939 0.000000 0.000000 0.000000
# 2 -0.001088 0.010367 -0.003047 0.000000 0.000000 0.000000
# 3 -0.012939 -0.003047 0.018050 0.000000 0.000000 0.000000
# 4 0.000000 0.000000 0.000000 0.059109 0.000000 0.000000
# 5 0.000000 0.000000 0.000000 0.000000 0.036584 0.000000
# 6 0.000000 0.000000 0.000000 0.000000 0.000000 0.028485
#
#
# Mechanical properties :
#
#
# Convention : Reuss Voigt Hill
#
# Bulk Modulus (GPa) = 51.60564 54.94921 53.27743
# Shear Modulus (GPa) = 22.90301 26.94609 24.92455
#
# Velocity S-wave (km/s) = 3.55609 3.85722 3.70971
# Velocity P-wave (km/s) = 6.73459 7.08360 6.91130
#
# Compressibility (1/GPa) = 0.01937773
#
# Stress axis : x y z
#
# Youngs Moduli (GPa) = 39.82524 96.46395 55.40179
#
# Poissons Ratio (x) = 0.10497 0.71685
# Poissons Ratio (y) = 0.04334 0.16881
# Poissons Ratio (z) = 0.51530 0.29393
#
# Static dielectric constant tensor:
#      x y z
#    x 3.160550 0.000000 0.000000 
#    y 0.000000 3.053260 0.000000 
#    z 0.000000 0.000000 3.638660 
# 
# 
# High freq. dielectric constant tensor:
#      x y z
#    x 1.663110 0.000000 0.000000 
#    y 0.000000 1.720210 0.000000 
#    z 0.000000 0.000000 1.705370 
# 
# From -- ./inp_files/37928.got.cif
#   From: 2010.03.12/outbox.cif.g09.slc.cpg/sg74_19_cif.got.tgz:37928.got - 2010.04.16 15:46:19.
