data_PCOD8301349
_publ_section_title
;
Structure prediction by ZEFSAII (Michael W. Deem and Ramdas Pophale) SiO2 
 PCOD8301349
Probable space group: I M M A
;
_chemical_formula_sum "Si O2"
_cell_formula_units_Z 116
_cell_length_a 26.894254
_cell_length_b 8.673575
_cell_length_c 24.982641
_cell_angle_alpha 90.000000
_cell_angle_beta 90.000000
_cell_angle_gamma 90.000000
_cell_volume 5827.683906
_symmetry_space_group_name_H-M "I M M A"
_symmetry_group_IT_number 74
_symmetry_cell_setting 'orthorhombic'
loop_
_space_group_symop_operation_xyz
x,y,z
-x,1/2-y,z
x,-y,-z
-x,1/2+y,-z
-x,-y,-z
x,1/2+y,-z
-x,y,z
x,1/2-y,z
1/2+x,1/2+y,1/2+z
1/2-x,-y,1/2+z
1/2+x,1/2-y,1/2-z
1/2-x,y,1/2-z
1/2-x,1/2-y,1/2-z
1/2+x,y,1/2-z
1/2-x,1/2+y,1/2+z
1/2+x,-y,1/2+z
loop_
_atom_site_type_symbol
_atom_site_label
_atom_site_fract_x
_atom_site_fract_y
_atom_site_fract_z
Si Si1 0.874260 0.930945 0.554930
Si Si2 0.606957 0.569385 0.247846
Si Si3 0.443540 0.571287 0.849196
Si Si4 0.500000 0.750000 0.606547
Si Si5 0.332840 0.432353 0.557339
Si Si6 0.906062 0.583363 0.858519
Si Si7 0.292790 0.074281 0.207135
Si Si8 0.275613 0.430212 0.904725
O O1 0.878531 0.750000 0.550977
O O2 0.907402 0.992292 0.604258
O O3 0.895620 0.000000 0.500000
O O4 0.817234 0.979387 0.562313
O O5 0.617800 0.750000 0.247557
O O6 0.565260 0.527201 0.204210
O O7 0.587413 0.518655 0.305581
O O8 0.656745 0.478292 0.234290
O O9 0.500000 0.547517 0.868270
O O10 0.432353 0.750000 0.836597
O O11 0.460088 0.888352 0.615798
O O12 0.347590 0.500000 0.500000
O O13 0.337224 0.250000 0.555047
O O14 0.371893 0.493673 0.599812
O O15 0.277608 0.486034 0.573462
O O16 0.880911 0.750000 0.844197
O O17 0.298487 0.250000 0.186778
O O18 0.250000 0.056784 0.250000
O O19 0.279147 0.965832 0.157817
O O20 0.283677 0.250000 0.914100
#
# Coordination Sequence:
#
# PCOD8301349 Si02
#       8
#    16  16  16   4  16  16  16  16
#     4  11  23  40  63  89 125 167 215 266 319 379
#     4  12  24  38  62  96 131 168 210 265 321 380
#     4  10  23  42  64  89 121 168 219 266 319 378
#     4   8  24  44  72  96 124 172 216 260 336 390
#     4  11  24  42  67  98 132 170 216 266 322 388
#     4  10  22  43  68  93 128 164 214 260 323 384
#     4  11  23  38  59  89 128 171 213 252 312 382
#     4  11  23  39  61  93 130 168 212 261 317 379
#
# _framework density 19.904993000000001
#
# number of rings (size 3 to 8) (size 9 to 14) (size 15 to 20)
#    0.414    0.828    1.379    4.552    0.966    7.724 
#    0.000    1.379    0.000    0.000    0.000    0.000 
#    0.000    0.000    0.000    0.000    0.000    0.000 
#
# Total GULP energy -718571.841583 kJ/mol
# GULP energy per Si atom -12389.169682 kJ/mol
# Density = 1.985969 g / cm^3
# Si number density = 19.904993 Si / 1000 Ang^3
#
#
#
# Elastic Constant Matrix: (Units=GPa)
#
#
# Indices 1 2 3 4 5 6 
#
# 1 116.4571 28.1120 48.9636 0.0000 0.0000 0.0000
# 2 28.1120 45.7436 36.5854 0.0000 0.0000 0.0000
# 3 48.9636 36.5854 71.8103 0.0000 0.0000 0.0000
# 4 0.0000 0.0000 0.0000 36.7727 0.0000 0.0000
# 5 0.0000 0.0000 0.0000 0.0000 15.9442 0.0000
# 6 0.0000 0.0000 0.0000 0.0000 0.0000 26.0256
#
#
#
# Elastic Compliance Matrix: (Units=1/GPa)
#
#
# Indices 1 2 3 4 5 6 
#
# 1 0.012092 -0.001413 -0.007525 0.000000 0.000000 0.000000
# 2 -0.001413 0.037060 -0.017918 0.000000 0.000000 0.000000
# 3 -0.007525 -0.017918 0.028185 0.000000 0.000000 0.000000
# 4 0.000000 0.000000 0.000000 0.027194 0.000000 0.000000
# 5 0.000000 0.000000 0.000000 0.000000 0.062719 0.000000
# 6 0.000000 0.000000 0.000000 0.000000 0.000000 0.038424
#
#
# Mechanical properties :
#
#
# Convention : Reuss Voigt Hill
#
# Bulk Modulus (GPa) = 42.32666 51.25922 46.79294
# Shear Modulus (GPa) = 18.70848 23.77184 21.24016
#
# Velocity S-wave (km/s) = 3.06909 3.45956 3.27016
# Velocity P-wave (km/s) = 5.81976 6.46266 6.14961
#
# Compressibility (1/GPa) = 0.02362577
#
# Stress axis : x y z
#
# Youngs Moduli (GPa) = 82.70153 26.98361 35.47983
#
# Poissons Ratio (x) = 0.03812 0.26699
# Poissons Ratio (y) = 0.11682 0.63572
# Poissons Ratio (z) = 0.62233 0.48348
#
# Static dielectric constant tensor:
#      x y z
#    x 3.610390 0.000000 0.000000 
#    y 0.000000 3.776250 0.000000 
#    z 0.000000 0.000000 3.232430 
# 
# 
# High freq. dielectric constant tensor:
#      x y z
#    x 1.786530 0.000000 0.000000 
#    y 0.000000 1.787160 0.000000 
#    z 0.000000 0.000000 1.773130 
# 
# From -- ./inp_files/62431.got.cif
#   From: 2010.03.12/outbox.cif.g09.slc.cpg/sg74_32_cif.got.tgz:62431.got - 2010.04.16 15:46:19.
