data_PCOD8301662
_publ_section_title
;
Structure prediction by ZEFSAII (Michael W. Deem and Ramdas Pophale) SiO2 
 PCOD8301662
Probable space group: I M M A
;
_chemical_formula_sum "Si O2"
_cell_formula_units_Z 84
_cell_length_a 18.524099
_cell_length_b 11.490192
_cell_length_c 22.073204
_cell_angle_alpha 90.000000
_cell_angle_beta 90.000000
_cell_angle_gamma 90.000000
_cell_volume 4698.181130
_symmetry_space_group_name_H-M "I M M A"
_symmetry_group_IT_number 74
_symmetry_cell_setting 'orthorhombic'
loop_
_space_group_symop_operation_xyz
x,y,z
-x,1/2-y,z
x,-y,-z
-x,1/2+y,-z
-x,-y,-z
x,1/2+y,-z
-x,y,z
x,1/2-y,z
1/2+x,1/2+y,1/2+z
1/2-x,-y,1/2+z
1/2+x,1/2-y,1/2-z
1/2-x,y,1/2-z
1/2-x,1/2-y,1/2-z
1/2+x,y,1/2-z
1/2-x,1/2+y,1/2+z
1/2+x,-y,1/2+z
loop_
_atom_site_type_symbol
_atom_site_label
_atom_site_fract_x
_atom_site_fract_y
_atom_site_fract_z
Si Si1 0.240568 0.888473 0.834944
Si Si2 0.000000 0.121260 0.230515
Si Si3 0.128561 0.750000 0.105178
Si Si4 0.357895 0.000236 0.767229
Si Si5 0.843517 0.987325 0.070493
Si Si6 0.000000 0.936414 0.906785
Si Si7 0.585573 0.250000 0.742311
Si Si8 0.500000 0.250000 0.510735
O O1 0.244006 0.750000 0.822151
O O2 0.319348 0.949685 0.828229
O O3 0.189570 0.956368 0.788615
O O4 0.205438 0.910609 0.900653
O O5 0.000000 0.128717 0.157504
O O6 0.000000 0.250000 0.256196
O O7 0.065449 0.055719 0.259982
O O8 0.180926 0.638444 0.096001
O O9 0.089102 0.750000 0.169676
O O10 0.071354 0.750000 0.050382
O O11 0.370382 0.139344 0.768787
O O12 0.927803 0.987458 0.090295
O O13 0.832100 0.000000 0.000000
O O14 0.000000 0.858808 0.966233
O O15 0.500000 0.250000 0.760417
#
# Coordination Sequence:
#
# PCOD8301662 Si02
#       8
#    16   8   8  16  16   8   8   4
#     4  11  24  41  58  82 117 153 200 245 292 343
#     4  12  20  33  59  85 116 151 201 245 292 332
#     4  12  22  35  50  78 119 155 204 233 275 335
#     4  11  23  38  59  84 113 154 195 244 299 345
#     4  12  25  37  55  82 115 162 202 239 283 334
#     4  12  22  34  49  86 113 160 207 239 274 317
#     4  12  22  38  58  87 121 149 195 243 290 350
#     4  12  22  32  52  72 128 160 208 244 264 318
#
# _framework density 17.879259000000001
#
# number of rings (size 3 to 8) (size 9 to 14) (size 15 to 20)
#    0.000    0.381    7.619    3.143    2.667    2.286 
#    0.000    0.000    0.000    0.000    0.000    0.667 
#    0.000    0.000    0.000    0.000    0.000    0.000 
#
# Total GULP energy -520536.746513 kJ/mol
# GULP energy per Si atom -12393.732060 kJ/mol
# Density = 1.783857 g / cm^3
# Si number density = 17.879259 Si / 1000 Ang^3
#
#
#
# Elastic Constant Matrix: (Units=GPa)
#
#
# Indices 1 2 3 4 5 6 
#
# 1 90.4962 41.7944 43.6772 0.0000 0.0000 0.0000
# 2 41.7944 158.2803 26.5902 0.0000 0.0000 0.0000
# 3 43.6772 26.5902 69.0743 0.0000 0.0000 0.0000
# 4 0.0000 0.0000 0.0000 24.6947 0.0000 0.0000
# 5 0.0000 0.0000 0.0000 0.0000 -1.3569 0.0000
# 6 0.0000 0.0000 0.0000 0.0000 0.0000 29.5768
#
#
#
# Elastic Compliance Matrix: (Units=1/GPa)
#
#
# Indices 1 2 3 4 5 6 
#
# 1 0.017047 -0.002876 -0.009672 0.000000 0.000000 0.000000
# 2 -0.002876 0.007240 -0.000968 0.000000 0.000000 0.000000
# 3 -0.009672 -0.000968 0.020965 0.000000 0.000000 0.000000
# 4 0.000000 0.000000 0.000000 0.040494 0.000000 0.000000
# 5 0.000000 0.000000 0.000000 0.000000 -0.736982 0.000000
# 6 0.000000 0.000000 0.000000 0.000000 0.000000 0.033810
#
#
# Mechanical properties :
#
#
# Convention : Reuss Voigt Hill
#
# Bulk Modulus (GPa) = 54.88621 60.21938 57.55279
# Shear Modulus (GPa) = -8.55697 24.30219 7.87261
#
# Velocity S-wave (km/s) = -2.19006 3.69079 2.10066
# Velocity P-wave (km/s) = 4.93657 7.20533 6.17602
#
# Compressibility (1/GPa) = 0.01821951
#
# Stress axis : x y z
#
# Youngs Moduli (GPa) = 58.66290 138.11979 47.69745
#
# Poissons Ratio (x) = 0.39729 0.46131
# Poissons Ratio (y) = 0.16874 0.04618
# Poissons Ratio (z) = 0.56737 0.13374
#
# Static dielectric constant tensor:
#      x y z
#    x 3.499920 0.000000 0.000000 
#    y 0.000000 3.690290 0.000000 
#    z 0.000000 0.000000 3.317160 
# 
# 
# High freq. dielectric constant tensor:
#      x y z
#    x 1.670200 0.000000 0.000000 
#    y 0.000000 1.720530 0.000000 
#    z 0.000000 0.000000 1.660770 
# 
# From -- ./inp_files/60760.got.cif
#   From: 2010.03.12/outbox.cif.g09.slc.cpg/sg74_31_cif.got.tgz:60760.got - 2010.04.16 15:46:19.
