data_PCOD8301114
_publ_section_title
;
Structure prediction by ZEFSAII (Michael W. Deem and Ramdas Pophale) SiO2 
 PCOD8301114
Probable space group: I M M A
;
_chemical_formula_sum "Si O2"
_cell_formula_units_Z 96
_cell_length_a 20.037332
_cell_length_b 25.475142
_cell_length_c 9.496135
_cell_angle_alpha 90.000000
_cell_angle_beta 90.000000
_cell_angle_gamma 90.000000
_cell_volume 4847.338937
_symmetry_space_group_name_H-M "I M M A"
_symmetry_group_IT_number 74
_symmetry_cell_setting 'orthorhombic'
loop_
_space_group_symop_operation_xyz
x,y,z
-x,1/2-y,z
x,-y,-z
-x,1/2+y,-z
-x,-y,-z
x,1/2+y,-z
-x,y,z
x,1/2-y,z
1/2+x,1/2+y,1/2+z
1/2-x,-y,1/2+z
1/2+x,1/2-y,1/2-z
1/2-x,y,1/2-z
1/2-x,1/2-y,1/2-z
1/2+x,y,1/2-z
1/2-x,1/2+y,1/2+z
1/2+x,-y,1/2+z
loop_
_atom_site_type_symbol
_atom_site_label
_atom_site_fract_x
_atom_site_fract_y
_atom_site_fract_z
Si Si1 0.677864 0.189279 0.411502
Si Si2 0.576000 0.139973 0.615761
Si Si3 0.811074 0.475418 0.345842
Si Si4 0.423454 0.189870 0.907112
Si Si5 0.922610 0.519747 0.153594
Si Si6 0.817197 0.146926 0.392774
O O1 0.669129 0.250000 0.450172
O O2 0.621318 0.155104 0.485155
O O3 0.749813 0.168880 0.464887
O O4 0.668974 0.181383 0.245283
O O5 0.500000 0.144667 0.563513
O O6 0.591022 0.179148 0.743802
O O7 0.591581 0.081343 0.666337
O O8 0.805042 0.500000 0.500000
O O9 0.750000 0.496403 0.250000
O O10 0.880807 0.491159 0.274631
O O11 0.807332 0.413093 0.353346
O O12 0.500000 0.176715 0.943183
O O13 0.405992 0.250000 0.939906
O O14 0.378435 0.152143 0.001145
O O15 0.000000 0.505925 0.180138
O O16 0.899798 0.500000 0.000000
#
# Coordination Sequence:
#
# PCOD8301114 Si02
#       6
#    16  16  16  16  16  16
#     4  11  22  38  61  85 120 162 202 252 302 364
#     4  10  22  40  62  91 123 159 204 252 303 365
#     4  12  25  40  64  92 124 163 208 258 308 372
#     4  10  21  39  62  88 122 159 201 254 306 360
#     4  10  22  41  65  92 127 165 201 252 312 370
#     4  11  23  41  58  88 121 160 202 252 308 362
#
# _framework density 19.804680999999999
#
# number of rings (size 3 to 8) (size 9 to 14) (size 15 to 20)
#    0.000    1.333    1.667    5.000    2.333    3.333 
#    0.000    1.667    0.000    0.000    0.000    0.000 
#    0.000    0.000    0.000    0.000    0.000    0.000 
#
# Total GULP energy -595499.137251 kJ/mol
# GULP energy per Si atom -12406.232026 kJ/mol
# Density = 1.975960 g / cm^3
# Si number density = 19.804681 Si / 1000 Ang^3
#
#
#
# Elastic Constant Matrix: (Units=GPa)
#
#
# Indices 1 2 3 4 5 6 
#
# 1 108.1767 32.0747 62.6631 0.0000 0.0000 0.0000
# 2 32.0747 66.6765 26.9693 0.0000 0.0000 0.0000
# 3 62.6631 26.9693 90.4909 0.0000 0.0000 0.0000
# 4 0.0000 0.0000 0.0000 23.2297 0.0000 0.0000
# 5 0.0000 0.0000 0.0000 0.0000 46.2566 0.0000
# 6 0.0000 0.0000 0.0000 0.0000 0.0000 24.7414
#
#
#
# Elastic Compliance Matrix: (Units=1/GPa)
#
#
# Indices 1 2 3 4 5 6 
#
# 1 0.016202 -0.003702 -0.010116 0.000000 0.000000 0.000000
# 2 -0.003702 0.017899 -0.002771 0.000000 0.000000 0.000000
# 3 -0.010116 -0.002771 0.018882 0.000000 0.000000 0.000000
# 4 0.000000 0.000000 0.000000 0.043048 0.000000 0.000000
# 5 0.000000 0.000000 0.000000 0.000000 0.021619 0.000000
# 6 0.000000 0.000000 0.000000 0.000000 0.000000 0.040418
#
#
# Mechanical properties :
#
#
# Convention : Reuss Voigt Hill
#
# Bulk Modulus (GPa) = 50.49286 56.52871 53.51078
# Shear Modulus (GPa) = 25.27198 28.42136 26.84667
#
# Velocity S-wave (km/s) = 3.57607 3.79236 3.68580
# Velocity P-wave (km/s) = 6.52701 6.91238 6.72246
#
# Compressibility (1/GPa) = 0.01980478
#
# Stress axis : x y z
#
# Youngs Moduli (GPa) = 61.72208 55.86753 52.96107
#
# Poissons Ratio (x) = 0.20683 0.53575
# Poissons Ratio (y) = 0.22850 0.14676
# Poissons Ratio (z) = 0.62438 0.15481
#
# Static dielectric constant tensor:
#      x y z
#    x 3.724530 0.000000 0.000000 
#    y 0.000000 3.651510 0.000000 
#    z 0.000000 0.000000 3.566080 
# 
# 
# High freq. dielectric constant tensor:
#      x y z
#    x 1.781260 0.000000 0.000000 
#    y 0.000000 1.785140 0.000000 
#    z 0.000000 0.000000 1.767550 
# 
# From -- ./inp_files/12629.got.cif
#   From: 2010.03.12/outbox.cif.g09.slc.cpg/sg74_7_cif.got.tgz:12629.got - 2010.04.16 15:46:19.
