data_PCOD8301397
_publ_section_title
;
Structure prediction by ZEFSAII (Michael W. Deem and Ramdas Pophale) SiO2 
 PCOD8301397
Probable space group: I M M A
;
_chemical_formula_sum "Si O2"
_cell_formula_units_Z 36
_cell_length_a 15.173728
_cell_length_b 11.925574
_cell_length_c 9.717568
_cell_angle_alpha 90.000000
_cell_angle_beta 90.000000
_cell_angle_gamma 90.000000
_cell_volume 1758.446561
_symmetry_space_group_name_H-M "I M M A"
_symmetry_group_IT_number 74
_symmetry_cell_setting 'orthorhombic'
loop_
_space_group_symop_operation_xyz
x,y,z
-x,1/2-y,z
x,-y,-z
-x,1/2+y,-z
-x,-y,-z
x,1/2+y,-z
-x,y,z
x,1/2-y,z
1/2+x,1/2+y,1/2+z
1/2-x,-y,1/2+z
1/2+x,1/2-y,1/2-z
1/2-x,y,1/2-z
1/2-x,1/2-y,1/2-z
1/2+x,y,1/2-z
1/2-x,1/2+y,1/2+z
1/2+x,-y,1/2+z
loop_
_atom_site_type_symbol
_atom_site_label
_atom_site_fract_x
_atom_site_fract_y
_atom_site_fract_z
Si Si1 0.000000 0.250000 0.499826
Si Si2 0.329897 0.986310 0.656976
Si Si3 0.000000 0.625686 0.236222
Si Si4 0.901933 0.250000 0.235516
O O1 0.000000 0.361051 0.596891
O O2 0.913050 0.250000 0.402588
O O3 0.250000 0.031135 0.750000
O O4 0.347608 0.856885 0.688153
O O5 0.301130 0.000000 0.500000
O O6 0.415194 0.059642 0.687178
O O7 0.000000 0.750000 0.167776
O O8 0.000000 0.250000 0.167508
#
# Coordination Sequence:
#
# PCOD8301397 Si02
#       4
#     4  16   8   8
#     4   8  22  40  78  98 134 180 226 284 334 424
#     4  12  28  44  72 101 142 181 231 287 341 411
#     4  10  24  45  72  98 137 183 225 276 345 410
#     4  10  23  44  72  97 140 180 226 283 342 398
#
# _framework density 20.472615000000001
#
# number of rings (size 3 to 8) (size 9 to 14) (size 15 to 20)
#    1.333    0.000    2.222    1.333    9.333    2.667 
#    0.000    0.000    0.000    0.000    0.000    0.000 
#    0.000    0.000    0.000    0.000    0.000    0.000 
#
# Total GULP energy -223176.531612 kJ/mol
# GULP energy per Si atom -12398.696201 kJ/mol
# Density = 2.042602 g / cm^3
# Si number density = 20.472615 Si / 1000 Ang^3
#
#
#
# Elastic Constant Matrix: (Units=GPa)
#
#
# Indices 1 2 3 4 5 6 
#
# 1 150.2792 48.8834 59.9669 0.0000 0.0000 0.0000
# 2 48.8834 136.5783 41.4324 0.0000 0.0000 0.0000
# 3 59.9669 41.4324 176.3582 0.0000 0.0000 0.0000
# 4 0.0000 0.0000 0.0000 25.3229 0.0000 0.0000
# 5 0.0000 0.0000 0.0000 0.0000 331.9889 0.0000
# 6 0.0000 0.0000 0.0000 0.0000 0.0000-2141.2798
#
#
#
# Elastic Compliance Matrix: (Units=1/GPa)
#
#
# Indices 1 2 3 4 5 6 
#
# 1 0.008310 -0.002279 -0.002290 0.000000 0.000000 0.000000
# 2 -0.002279 0.008509 -0.001224 0.000000 0.000000 0.000000
# 3 -0.002290 -0.001224 0.006736 0.000000 0.000000 0.000000
# 4 0.000000 0.000000 0.000000 0.039490 0.000000 0.000000
# 5 0.000000 0.000000 0.000000 0.000000 0.003012 0.000000
# 6 0.000000 0.000000 0.000000 0.000000 0.000000 -0.000467
#
#
# Mechanical properties :
#
#
# Convention : Reuss Voigt Hill
#
# Bulk Modulus (GPa) = 83.55441 84.86457 84.20949
# Shear Modulus (GPa) = 61.60205 -335.93139 -137.16467
#
# Velocity S-wave (km/s) = 5.49138 -12.82359 -8.19418
# Velocity P-wave (km/s) = 9.00602 13.33103 6.95011
#
# Compressibility (1/GPa) = 0.01196825
#
# Stress axis : x y z
#
# Youngs Moduli (GPa) = 120.34396 117.52341 148.44546
#
# Poissons Ratio (x) = 0.26788 0.33993
# Poissons Ratio (y) = 0.27431 0.18169
# Poissons Ratio (z) = 0.27558 0.14384
#
# Static dielectric constant tensor:
#      x y z
#    x 3.683100 0.000000 0.000000 
#    y 0.000000 3.742160 0.000000 
#    z 0.000000 0.000000 3.800340 
# 
# 
# High freq. dielectric constant tensor:
#      x y z
#    x 1.800270 0.000000 0.000000 
#    y 0.000000 1.804310 0.000000 
#    z 0.000000 0.000000 1.805840 
# 
# From -- ./inp_files/7577.got.cif
#   From: 2010.03.12/outbox.cif.g09.slc.cpg/sg74_4_cif.got.tgz:7577.got - 2010.04.16 15:46:19.
