data_PCOD8301948
_publ_section_title
;
Structure prediction by ZEFSAII (Michael W. Deem and Ramdas Pophale) SiO2 
 PCOD8301948
Probable space group: P 41
;
_chemical_formula_sum "Si O2"
_cell_formula_units_Z 24
_cell_length_a 7.922114
_cell_length_b 7.922114
_cell_length_c 17.307903
_cell_angle_alpha 90.000000
_cell_angle_beta 90.000000
_cell_angle_gamma 90.000000
_cell_volume 1086.242092
_symmetry_space_group_name_H-M "P 41"
_symmetry_group_IT_number 76
_symmetry_cell_setting 'tetragonal'
loop_
_space_group_symop_operation_xyz
x,y,z
-y,x,1/4+z
-x,-y,1/2+z
y,-x,3/4+z
loop_
_atom_site_type_symbol
_atom_site_label
_atom_site_fract_x
_atom_site_fract_y
_atom_site_fract_z
Si Si1 0.569782 0.674193 0.996100
Si Si2 0.816579 0.198799 0.133566
Si Si3 0.749941 0.120627 0.495141
Si Si4 0.644369 0.549796 0.156109
Si Si5 0.127732 0.824937 0.459027
Si Si6 0.085958 0.204662 0.424179
O O1 0.501821 0.496900 0.966615
O O2 0.760439 0.706263 0.968478
O O3 0.431200 0.808090 0.968037
O O4 0.566621 0.661657 0.087875
O O5 0.710527 0.369995 0.125856
O O6 0.906670 0.169022 0.051031
O O7 0.946921 0.231221 0.201436
O O8 0.721168 0.024021 0.163266
O O9 0.737032 0.081579 0.585832
O O10 0.908448 0.241809 0.469836
O O11 0.772867 0.678155 0.197233
O O12 0.117390 0.007241 0.421753
#
# Coordination Sequence:
#
# PCOD8301948 Si02
#       6
#     4   4   4   4   4   4
#     4  12  25  45  66  99 140 180 228 285 349 417
#     4  11  24  44  72 101 134 183 235 286 355 421
#     4  11  24  44  72 101 134 183 235 286 355 421
#     4  12  25  45  66  99 140 180 228 285 349 417
#     4  11  23  45  70  99 138 178 233 291 350 419
#     4  11  23  45  70  99 138 178 233 291 350 419
#
# _framework density 22.094522999999999
#
# number of rings (size 3 to 8) (size 9 to 14) (size 15 to 20)
#    0.000    0.667    3.333    7.000    0.000    4.000 
#    6.000    0.000    0.000    0.000    0.000    0.000 
#    0.000    0.000    0.000    0.000    0.000    0.000 
#
# Total GULP energy -297383.824101 kJ/mol
# GULP energy per Si atom -12390.992671 kJ/mol
# Density = 2.204424 g / cm^3
# Si number density = 22.094523 Si / 1000 Ang^3
#
#
#
# Elastic Constant Matrix: (Units=GPa)
#
#
# Indices 1 2 3 4 5 6 
#
# 1 66.2224 18.3039 11.7914 0.0000 0.0000 -5.2775
# 2 18.3039 66.2224 11.7914 0.0000 0.0000 5.2775
# 3 11.7914 11.7914 107.3983 0.0000 0.0000 0.0000
# 4 0.0000 0.0000 0.0000 11.6554 0.0000 0.0000
# 5 0.0000 0.0000 0.0000 0.0000 11.6554 0.0000
# 6 -5.2775 5.2775 0.0000 0.0000 0.0000 21.2725
#
#
#
# Elastic Compliance Matrix: (Units=1/GPa)
#
#
# Indices 1 2 3 4 5 6 
#
# 1 0.017140 -0.004935 -0.001340 0.000000 0.000000 0.005477
# 2 -0.004935 0.017140 -0.001340 0.000000 0.000000 -0.005477
# 3 -0.001340 -0.001340 0.009605 0.000000 0.000000 0.000000
# 4 0.000000 0.000000 0.000000 0.085797 0.000000 0.000000
# 5 0.000000 0.000000 0.000000 0.000000 0.085797 0.000000
# 6 0.005477 -0.005477 0.000000 0.000000 0.000000 0.049726
#
#
# Mechanical properties :
#
#
# Convention : Reuss Voigt Hill
#
# Bulk Modulus (GPa) = 34.89847 35.95739 35.42793
# Shear Modulus (GPa) = 17.24212 22.11375 19.67794
#
# Velocity S-wave (km/s) = 2.79656 3.16709 2.98757
# Velocity P-wave (km/s) = 5.12416 5.44826 5.28870
#
# Compressibility (1/GPa) = 0.02865455
#
# Stress axis : x y z
#
# Youngs Moduli (GPa) = 58.34369 58.34369 104.10847
#
# Poissons Ratio (x) = 0.28794 0.13950
# Poissons Ratio (y) = 0.28794 0.13950
# Poissons Ratio (z) = 0.07818 0.07818
#
# Static dielectric constant tensor:
#      x y z
#    x 4.648340 0.000000 0.000000 
#    y 0.000000 4.648340 0.000000 
#    z 0.000000 0.000000 4.106020 
# 
# 
# High freq. dielectric constant tensor:
#      x y z
#    x 1.866810 0.000000 0.000000 
#    y 0.000000 1.866810 0.000000 
#    z 0.000000 0.000000 1.887580 
# 
# From -- ./inp_files/1083.got.cif
#   From: 2010.03.12/outbox.cif.g09.slc.cpg/sg76_cif.got.tgz:1083.got - 2010.04.16 16:34:25.
