data_PCOD8301153
_publ_section_title
;
Structure prediction by ZEFSAII (Michael W. Deem and Ramdas Pophale) SiO2 
 PCOD8301153
Probable space group: I M M A
;
_chemical_formula_sum "Si O2"
_cell_formula_units_Z 64
_cell_length_a 18.907628
_cell_length_b 21.638469
_cell_length_c 7.495176
_cell_angle_alpha 90.000000
_cell_angle_beta 90.000000
_cell_angle_gamma 90.000000
_cell_volume 3066.517264
_symmetry_space_group_name_H-M "I M M A"
_symmetry_group_IT_number 74
_symmetry_cell_setting 'orthorhombic'
loop_
_space_group_symop_operation_xyz
x,y,z
-x,1/2-y,z
x,-y,-z
-x,1/2+y,-z
-x,-y,-z
x,1/2+y,-z
-x,y,z
x,1/2-y,z
1/2+x,1/2+y,1/2+z
1/2-x,-y,1/2+z
1/2+x,1/2-y,1/2-z
1/2-x,y,1/2-z
1/2-x,1/2-y,1/2-z
1/2+x,y,1/2-z
1/2-x,1/2+y,1/2+z
1/2+x,-y,1/2+z
loop_
_atom_site_type_symbol
_atom_site_label
_atom_site_fract_x
_atom_site_fract_y
_atom_site_fract_z
Si Si1 0.330827 0.618986 0.924540
Si Si2 0.920120 0.750000 0.087691
Si Si3 0.332704 0.250000 0.228648
Si Si4 0.817075 0.068330 0.049210
Si Si5 0.081630 0.881491 0.237135
O O1 0.354814 0.688591 0.877497
O O2 0.248285 0.615635 0.985177
O O3 0.341012 0.573457 0.755593
O O4 0.380680 0.595515 0.082849
O O5 0.906859 0.691544 0.214094
O O6 0.000000 0.750000 0.011241
O O7 0.867900 0.750000 0.921829
O O8 0.250000 0.250000 0.250000
O O9 0.884585 0.084350 0.931172
O O10 0.790398 0.000000 0.000000
O O11 0.000000 0.900368 0.246445
#
# Coordination Sequence:
#
# PCOD8301153 Si02
#       5
#    16   8   8  16  16
#     4  11  24  40  69  98 126 168 217 266 322 380
#     4  10  21  40  63  92 133 172 203 256 332 388
#     4  12  19  40  66 101 127 157 217 273 319 370
#     4  11  25  43  66  92 128 169 216 268 318 376
#     4  11  24  42  65  95 130 169 212 261 323 389
#
# _framework density 20.870583
#
# number of rings (size 3 to 8) (size 9 to 14) (size 15 to 20)
#    0.000    1.000    5.000    1.500    7.000    2.500 
#    0.000    5.000    0.000    0.000    0.000    0.000 
#    0.000    0.000    0.000    0.000    0.000    0.000 
#
# Total GULP energy -396910.912737 kJ/mol
# GULP energy per Si atom -12403.466023 kJ/mol
# Density = 2.082308 g / cm^3
# Si number density = 20.870583 Si / 1000 Ang^3
#
#
#
# Elastic Constant Matrix: (Units=GPa)
#
#
# Indices 1 2 3 4 5 6 
#
# 1 137.5325 13.3263 93.0812 0.0000 0.0000 0.0000
# 2 13.3263 87.4650 26.3783 0.0000 0.0000 0.0000
# 3 93.0812 26.3783 140.6783 0.0000 0.0000 0.0000
# 4 0.0000 0.0000 0.0000 26.3763 0.0000 0.0000
# 5 0.0000 0.0000 0.0000 0.0000 32.9483 0.0000
# 6 0.0000 0.0000 0.0000 0.0000 0.0000 16.2626
#
#
#
# Elastic Compliance Matrix: (Units=1/GPa)
#
#
# Indices 1 2 3 4 5 6 
#
# 1 0.013203 0.000660 -0.008860 0.000000 0.000000 0.000000
# 2 0.000660 0.012151 -0.002715 0.000000 0.000000 0.000000
# 3 -0.008860 -0.002715 0.013480 0.000000 0.000000 0.000000
# 4 0.000000 0.000000 0.000000 0.037913 0.000000 0.000000
# 5 0.000000 0.000000 0.000000 0.000000 0.030351 0.000000
# 6 0.000000 0.000000 0.000000 0.000000 0.000000 0.061491
#
#
# Mechanical properties :
#
#
# Convention : Reuss Voigt Hill
#
# Bulk Modulus (GPa) = 58.80747 70.13861 64.47304
# Shear Modulus (GPa) = 25.49882 30.64342 28.07112
#
# Velocity S-wave (km/s) = 3.49916 3.83594 3.67141
# Velocity P-wave (km/s) = 6.67562 7.30059 6.99509
#
# Compressibility (1/GPa) = 0.01700464
#
# Stress axis : x y z
#
# Youngs Moduli (GPa) = 75.73791 82.29453 74.18454
#
# Poissons Ratio (x) = -0.05434 0.65728
# Poissons Ratio (y) = -0.05002 0.20144
# Poissons Ratio (z) = 0.67104 0.22347
#
# Static dielectric constant tensor:
#      x y z
#    x 3.732650 0.000000 0.000000 
#    y 0.000000 4.080160 0.000000 
#    z 0.000000 0.000000 3.763850 
# 
# 
# High freq. dielectric constant tensor:
#      x y z
#    x 1.809770 0.000000 0.000000 
#    y 0.000000 1.815180 0.000000 
#    z 0.000000 0.000000 1.823490 
# 
# From -- ./inp_files/10324.got.cif
#   From: 2010.03.12/outbox.cif.g09.slc.cpg/sg74_6_cif.got.tgz:10324.got - 2010.04.16 15:46:19.
