data_PCOD8301214
_publ_section_title
;
Structure prediction by ZEFSAII (Michael W. Deem and Ramdas Pophale) SiO2 
 PCOD8301214
Probable space group: I M M A
;
_chemical_formula_sum "Si O2"
_cell_formula_units_Z 76
_cell_length_a 20.022842
_cell_length_b 15.269056
_cell_length_c 11.269226
_cell_angle_alpha 90.000000
_cell_angle_beta 90.000000
_cell_angle_gamma 90.000000
_cell_volume 3445.339290
_symmetry_space_group_name_H-M "I M M A"
_symmetry_group_IT_number 74
_symmetry_cell_setting 'orthorhombic'
loop_
_space_group_symop_operation_xyz
x,y,z
-x,1/2-y,z
x,-y,-z
-x,1/2+y,-z
-x,-y,-z
x,1/2+y,-z
-x,y,z
x,1/2-y,z
1/2+x,1/2+y,1/2+z
1/2-x,-y,1/2+z
1/2+x,1/2-y,1/2-z
1/2-x,y,1/2-z
1/2-x,1/2-y,1/2-z
1/2+x,y,1/2-z
1/2-x,1/2+y,1/2+z
1/2+x,-y,1/2+z
loop_
_atom_site_type_symbol
_atom_site_label
_atom_site_fract_x
_atom_site_fract_y
_atom_site_fract_z
Si Si1 0.000000 0.250000 0.308238
Si Si2 0.732493 0.405040 0.956425
Si Si3 0.609885 0.909711 0.439489
Si Si4 0.594087 0.250000 0.411343
Si Si5 0.000000 0.605285 0.490163
Si Si6 0.249061 0.250000 0.112092
Si Si7 0.386374 0.648845 0.190139
O O1 0.064988 0.250000 0.222026
O O2 0.000000 0.160389 0.386168
O O3 0.810414 0.398939 0.928325
O O4 0.688633 0.382236 0.841234
O O5 0.710546 0.500000 0.000000
O O6 0.714467 0.335739 0.060212
O O7 0.571876 0.836704 0.517678
O O8 0.585157 0.904881 0.303223
O O9 0.589192 0.000000 0.500000
O O10 0.672582 0.250000 0.420607
O O11 0.000000 0.500000 0.500000
O O12 0.933826 0.633814 0.421547
O O13 0.250000 0.250000 0.250000
O O14 0.384312 0.750000 0.227037
#
# Coordination Sequence:
#
# PCOD8301214 Si02
#       7
#     4  16  16   8   8   8  16
#     4  12  28  48  70  90 136 170 224 276 330 406
#     4  10  22  39  65 104 136 177 219 269 336 393
#     4  10  23  42  67 105 134 170 223 267 341 400
#     4  10  24  42  64  94 131 174 211 275 327 387
#     4  12  30  49  66  96 126 177 229 269 333 396
#     4  10  22  37  64  94 137 173 218 267 333 391
#     4  12  23  44  72  94 138 175 224 280 324 399
#
# _framework density 22.058785
#
# number of rings (size 3 to 8) (size 9 to 14) (size 15 to 20)
#    0.000    1.263    3.158    1.263    5.895    6.737 
#    0.000    1.053    0.000    0.000    0.000    0.000 
#    0.000    0.000    0.000    0.000    0.000    0.000 
#
# Total GULP energy -471118.091972 kJ/mol
# GULP energy per Si atom -12397.844526 kJ/mol
# Density = 2.200858 g / cm^3
# Si number density = 22.058785 Si / 1000 Ang^3
#
#
#
# Elastic Constant Matrix: (Units=GPa)
#
#
# Indices 1 2 3 4 5 6 
#
# 1 52.6298 27.8824 17.7805 0.0000 0.0000 0.0000
# 2 27.8824 198.1839 82.7754 0.0000 0.0000 0.0000
# 3 17.7805 82.7754 167.8254 0.0000 0.0000 0.0000
# 4 0.0000 0.0000 0.0000 41.2973 0.0000 0.0000
# 5 0.0000 0.0000 0.0000 0.0000 34.4392 0.0000
# 6 0.0000 0.0000 0.0000 0.0000 0.0000 -4.6650
#
#
#
# Elastic Compliance Matrix: (Units=1/GPa)
#
#
# Indices 1 2 3 4 5 6 
#
# 1 0.020651 -0.002508 -0.000951 0.000000 0.000000 0.000000
# 2 -0.002508 0.006660 -0.003019 0.000000 0.000000 0.000000
# 3 -0.000951 -0.003019 0.007548 0.000000 0.000000 0.000000
# 4 0.000000 0.000000 0.000000 0.024215 0.000000 0.000000
# 5 0.000000 0.000000 0.000000 0.000000 0.029037 0.000000
# 6 0.000000 0.000000 0.000000 0.000000 0.000000 -0.214361
#
#
# Mechanical properties :
#
#
# Convention : Reuss Voigt Hill
#
# Bulk Modulus (GPa) = 45.65635 75.05730 60.35683
# Shear Modulus (GPa) = -47.17235 33.56101 -6.80567
#
# Velocity S-wave (km/s) = -4.62939 3.90479 -1.75839
# Velocity P-wave (km/s) = 2.79866 7.37765 4.82686
#
# Compressibility (1/GPa) = 0.02190276
#
# Stress axis : x y z
#
# Youngs Moduli (GPa) = 48.42459 150.15875 132.47996
#
# Poissons Ratio (x) = 0.37663 0.12596
# Poissons Ratio (y) = 0.12146 0.39995
# Poissons Ratio (z) = 0.04604 0.45332
#
# Static dielectric constant tensor:
#      x y z
#    x 3.747530 0.000000 0.000000 
#    y 0.000000 4.150330 0.000000 
#    z 0.000000 0.000000 3.892650 
# 
# 
# High freq. dielectric constant tensor:
#      x y z
#    x 1.863560 0.000000 0.000000 
#    y 0.000000 1.878560 0.000000 
#    z 0.000000 0.000000 1.872690 
# 
# From -- ./inp_files/24944.got.cif
#   From: 2010.03.12/outbox.cif.g09.slc.cpg/sg74_13_cif.got.tgz:24944.got - 2010.04.16 15:46:19.
