data_PCOD8301601
_publ_section_title
;
Structure prediction by ZEFSAII (Michael W. Deem and Ramdas Pophale) SiO2 
 PCOD8301601
Probable space group: I M M A
;
_chemical_formula_sum "Si O2"
_cell_formula_units_Z 112
_cell_length_a 24.687681
_cell_length_b 13.925424
_cell_length_c 17.041711
_cell_angle_alpha 90.000000
_cell_angle_beta 90.000000
_cell_angle_gamma 90.000000
_cell_volume 5858.708909
_symmetry_space_group_name_H-M "I M M A"
_symmetry_group_IT_number 74
_symmetry_cell_setting 'orthorhombic'
loop_
_space_group_symop_operation_xyz
x,y,z
-x,1/2-y,z
x,-y,-z
-x,1/2+y,-z
-x,-y,-z
x,1/2+y,-z
-x,y,z
x,1/2-y,z
1/2+x,1/2+y,1/2+z
1/2-x,-y,1/2+z
1/2+x,1/2-y,1/2-z
1/2-x,y,1/2-z
1/2-x,1/2-y,1/2-z
1/2+x,y,1/2-z
1/2-x,1/2+y,1/2+z
1/2+x,-y,1/2+z
loop_
_atom_site_type_symbol
_atom_site_label
_atom_site_fract_x
_atom_site_fract_y
_atom_site_fract_z
Si Si1 0.837523 0.512581 0.908704
Si Si2 0.248053 0.640072 0.656882
Si Si3 0.708406 0.854721 0.311785
Si Si4 0.151226 0.016230 0.410965
Si Si5 0.611092 0.643693 0.199214
Si Si6 0.062162 0.140673 0.344442
Si Si7 0.439572 0.510084 0.702854
O O1 0.804856 0.608125 0.883727
O O2 0.798279 0.424094 0.885581
O O3 0.895674 0.508880 0.866209
O O4 0.849112 0.500000 0.000000
O O5 0.237493 0.750000 0.631310
O O6 0.250000 0.630999 0.750000
O O7 0.199375 0.572239 0.630760
O O8 0.730348 0.750000 0.339869
O O9 0.750000 0.902075 0.250000
O O10 0.651363 0.841785 0.270860
O O11 0.096950 0.079789 0.406230
O O12 0.168000 0.000000 0.500000
O O13 0.140827 0.912373 0.371437
O O14 0.591233 0.750000 0.170712
O O15 0.562937 0.580470 0.236885
O O16 0.081894 0.250000 0.346796
O O17 0.000000 0.129996 0.370325
O O18 0.071151 0.104456 0.255363
O O19 0.500000 0.511632 0.665872
#
# Coordination Sequence:
#
# PCOD8301601 Si02
#       7
#    16  16  16  16  16  16  16
#     4  11  22  35  53  81 115 143 176 227 287 339
#     4  11  23  39  59  80 106 145 189 231 274 326
#     4   9  17  32  54  74  97 136 182 222 262 315
#     4  11  22  35  54  83 119 148 178 222 279 339
#     4   9  18  32  52  77 104 139 183 225 263 310
#     4   9  18  35  59  83 109 147 192 232 269 316
#     4   9  19  36  57  80 108 145 191 234 271 324
#
# _framework density 19.116838999999999
#
# number of rings (size 3 to 8) (size 9 to 14) (size 15 to 20)
#    0.000    2.143    0.000    4.714    0.000    4.286 
#    0.000    1.429    0.000    0.000    0.000    4.000 
#    0.000    0.000    0.000    0.000    0.000    0.000 
#
# Total GULP energy -694183.225722 kJ/mol
# GULP energy per Si atom -12396.129031 kJ/mol
# Density = 1.907333 g / cm^3
# Si number density = 19.116839 Si / 1000 Ang^3
#
#
#
# Elastic Constant Matrix: (Units=GPa)
#
#
# Indices 1 2 3 4 5 6 
#
# 1 86.8368 30.9913 28.8833 0.0000 0.0000 0.0000
# 2 30.9913 132.6782 40.9026 0.0000 0.0000 0.0000
# 3 28.8833 40.9026 93.0547 0.0000 0.0000 0.0000
# 4 0.0000 0.0000 0.0000 11.4995 0.0000 0.0000
# 5 0.0000 0.0000 0.0000 0.0000 22.8449 0.0000
# 6 0.0000 0.0000 0.0000 0.0000 0.0000 18.5153
#
#
#
# Elastic Compliance Matrix: (Units=1/GPa)
#
#
# Indices 1 2 3 4 5 6 
#
# 1 0.013342 -0.002128 -0.003206 0.000000 0.000000 0.000000
# 2 -0.002128 0.009058 -0.003321 0.000000 0.000000 0.000000
# 3 -0.003206 -0.003321 0.013201 0.000000 0.000000 0.000000
# 4 0.000000 0.000000 0.000000 0.086961 0.000000 0.000000
# 5 0.000000 0.000000 0.000000 0.000000 0.043773 0.000000
# 6 0.000000 0.000000 0.000000 0.000000 0.000000 0.054009
#
#
# Mechanical properties :
#
#
# Convention : Reuss Voigt Hill
#
# Bulk Modulus (GPa) = 54.67100 57.12490 55.89795
# Shear Modulus (GPa) = 20.51277 24.69143 22.60210
#
# Velocity S-wave (km/s) = 3.27925 3.59779 3.44221
# Velocity P-wave (km/s) = 6.55732 6.87064 6.71581
#
# Compressibility (1/GPa) = 0.01829123
#
# Stress axis : x y z
#
# Youngs Moduli (GPa) = 74.95338 110.40087 75.75121
#
# Poissons Ratio (x) = 0.23494 0.24284
# Poissons Ratio (y) = 0.15951 0.25156
# Poissons Ratio (z) = 0.24028 0.36663
#
# Static dielectric constant tensor:
#      x y z
#    x 3.507720 0.000000 0.000000 
#    y 0.000000 4.065070 0.000000 
#    z 0.000000 0.000000 3.219960 
# 
# 
# High freq. dielectric constant tensor:
#      x y z
#    x 1.745140 0.000000 0.000000 
#    y 0.000000 1.756820 0.000000 
#    z 0.000000 0.000000 1.714410 
# 
# From -- ./inp_files/36503.got.cif
#   From: 2010.03.12/outbox.cif.g09.slc.cpg/sg74_19_cif.got.tgz:36503.got - 2010.04.16 15:46:19.
