data_PCOD8301302
_publ_section_title
;
Structure prediction by ZEFSAII (Michael W. Deem and Ramdas Pophale) SiO2 
 PCOD8301302
Probable space group: I M M A
;
_chemical_formula_sum "Si O2"
_cell_formula_units_Z 96
_cell_length_a 15.541119
_cell_length_b 20.620030
_cell_length_c 14.278137
_cell_angle_alpha 90.000000
_cell_angle_beta 90.000000
_cell_angle_gamma 90.000000
_cell_volume 4575.548082
_symmetry_space_group_name_H-M "I M M A"
_symmetry_group_IT_number 74
_symmetry_cell_setting 'orthorhombic'
loop_
_space_group_symop_operation_xyz
x,y,z
-x,1/2-y,z
x,-y,-z
-x,1/2+y,-z
-x,-y,-z
x,1/2+y,-z
-x,y,z
x,1/2-y,z
1/2+x,1/2+y,1/2+z
1/2-x,-y,1/2+z
1/2+x,1/2-y,1/2-z
1/2-x,y,1/2-z
1/2-x,1/2-y,1/2-z
1/2+x,y,1/2-z
1/2-x,1/2+y,1/2+z
1/2+x,-y,1/2+z
loop_
_atom_site_type_symbol
_atom_site_label
_atom_site_fract_x
_atom_site_fract_y
_atom_site_fract_z
Si Si1 0.728918 0.573988 0.001442
Si Si2 0.829900 0.437396 0.697740
Si Si3 0.348214 0.678476 0.723316
Si Si4 0.405511 0.072184 0.147598
Si Si5 0.401163 0.137187 0.473301
Si Si6 0.598296 0.320320 0.681437
O O1 0.700937 0.600192 0.103456
O O2 0.703190 0.500000 0.000000
O O3 0.666369 0.603000 0.921592
O O4 0.830260 0.579793 0.979070
O O5 0.750000 0.471540 0.750000
O O6 0.894162 0.497053 0.679429
O O7 0.861377 0.381407 0.766771
O O8 0.372702 0.750000 0.763022
O O9 0.250000 0.663096 0.750000
O O10 0.406117 0.620405 0.763754
O O11 0.369193 0.681463 0.612453
O O12 0.500000 0.075372 0.100477
O O13 0.500000 0.111650 0.460444
O O14 0.392643 0.176680 0.569206
O O15 0.500000 0.321634 0.711454
O O16 0.638025 0.250000 0.711598
#
# Coordination Sequence:
#
# PCOD8301302 Si02
#       6
#    16  16  16  16  16  16
#     4  10  23  41  62  90 127 164 208 258 308 371
#     4  11  22  40  64  92 125 164 208 258 307 369
#     4  11  23  41  66  93 126 166 208 257 313 374
#     4  11  24  42  66  91 124 166 210 258 311 369
#     4  11  22  39  62  91 126 165 204 252 316 374
#     4  10  22  40  63  93 126 162 209 258 311 375
#
# _framework density 20.981092
#
# number of rings (size 3 to 8) (size 9 to 14) (size 15 to 20)
#    0.000    1.333    3.333    2.000    2.333    6.333 
#    0.000    0.833    0.000    0.000    0.000    0.000 
#    0.000    0.000    0.000    0.000    0.000    0.000 
#
# Total GULP energy -594643.238370 kJ/mol
# GULP energy per Si atom -12388.400799 kJ/mol
# Density = 2.093334 g / cm^3
# Si number density = 20.981092 Si / 1000 Ang^3
#
#
#
# Elastic Constant Matrix: (Units=GPa)
#
#
# Indices 1 2 3 4 5 6 
#
# 1 145.5695 41.0343 49.4511 0.0000 0.0000 0.0000
# 2 41.0343 94.6561 41.7943 0.0000 0.0000 0.0000
# 3 49.4511 41.7943 114.5328 0.0000 0.0000 0.0000
# 4 0.0000 0.0000 0.0000 22.3414 0.0000 0.0000
# 5 0.0000 0.0000 0.0000 0.0000 25.5895 0.0000
# 6 0.0000 0.0000 0.0000 0.0000 0.0000 17.7609
#
#
#
# Elastic Compliance Matrix: (Units=1/GPa)
#
#
# Indices 1 2 3 4 5 6 
#
# 1 0.008506 -0.002463 -0.002774 0.000000 0.000000 0.000000
# 2 -0.002463 0.013307 -0.003792 0.000000 0.000000 0.000000
# 3 -0.002774 -0.003792 0.011313 0.000000 0.000000 0.000000
# 4 0.000000 0.000000 0.000000 0.044760 0.000000 0.000000
# 5 0.000000 0.000000 0.000000 0.000000 0.039079 0.000000
# 6 0.000000 0.000000 0.000000 0.000000 0.000000 0.056304
#
#
# Mechanical properties :
#
#
# Convention : Reuss Voigt Hill
#
# Bulk Modulus (GPa) = 66.36884 68.81308 67.59096
# Shear Modulus (GPa) = 25.46497 27.97027 26.71762
#
# Velocity S-wave (km/s) = 3.48761 3.65515 3.57236
# Velocity P-wave (km/s) = 6.92238 7.11915 7.02145
#
# Compressibility (1/GPa) = 0.01506731
#
# Stress axis : x y z
#
# Youngs Moduli (GPa) = 117.56266 75.15038 88.39599
#
# Poissons Ratio (x) = 0.18507 0.24521
# Poissons Ratio (y) = 0.28952 0.33524
# Poissons Ratio (z) = 0.32612 0.28500
#
# Static dielectric constant tensor:
#      x y z
#    x 3.882570 0.000000 0.000000 
#    y 0.000000 3.547560 0.000000 
#    z 0.000000 0.000000 4.256710 
# 
# 
# High freq. dielectric constant tensor:
#      x y z
#    x 1.827220 0.000000 0.000000 
#    y 0.000000 1.804830 0.000000 
#    z 0.000000 0.000000 1.827630 
# 
# From -- ./inp_files/32312.got.cif
#   From: 2010.03.12/outbox.cif.g09.slc.cpg/sg74_17_cif.got.tgz:32312.got - 2010.04.16 15:46:19.
