data_PCOD8301354
_publ_section_title
;
Structure prediction by ZEFSAII (Michael W. Deem and Ramdas Pophale) SiO2 
 PCOD8301354
Probable space group: I M M A
;
_chemical_formula_sum "Si O2"
_cell_formula_units_Z 60
_cell_length_a 21.861801
_cell_length_b 14.303569
_cell_length_c 8.688360
_cell_angle_alpha 90.000000
_cell_angle_beta 90.000000
_cell_angle_gamma 90.000000
_cell_volume 2716.865629
_symmetry_space_group_name_H-M "I M M A"
_symmetry_group_IT_number 74
_symmetry_cell_setting 'orthorhombic'
loop_
_space_group_symop_operation_xyz
x,y,z
-x,1/2-y,z
x,-y,-z
-x,1/2+y,-z
-x,-y,-z
x,1/2+y,-z
-x,y,z
x,1/2-y,z
1/2+x,1/2+y,1/2+z
1/2-x,-y,1/2+z
1/2+x,1/2-y,1/2-z
1/2-x,y,1/2-z
1/2-x,1/2-y,1/2-z
1/2+x,y,1/2-z
1/2-x,1/2+y,1/2+z
1/2+x,-y,1/2+z
loop_
_atom_site_type_symbol
_atom_site_label
_atom_site_fract_x
_atom_site_fract_y
_atom_site_fract_z
Si Si1 0.871075 0.250000 0.062825
Si Si2 0.690194 0.055952 0.352786
Si Si3 0.179546 0.250000 0.725650
Si Si4 0.000000 0.250000 0.243099
Si Si5 0.000000 0.891294 0.475296
Si Si6 0.875608 0.071314 0.636057
O O1 0.836534 0.158529 0.122147
O O2 0.940658 0.250000 0.130477
O O3 0.865135 0.250000 0.876369
O O4 0.750000 0.064712 0.250000
O O5 0.713712 0.000000 0.500000
O O6 0.635064 0.990633 0.287784
O O7 0.250000 0.250000 0.750000
O O8 0.171184 0.343137 0.624983
O O9 0.000000 0.161216 0.359716
O O10 0.940267 0.872872 0.372250
O O11 0.000000 0.000000 0.500000
O O12 0.864153 0.000000 0.500000
#
# Coordination Sequence:
#
# PCOD8301354 Si02
#       6
#     8  16   8   4   8  16
#     4  12  27  47  71 106 148 192 242 301 363 430
#     4  12  26  46  70 108 147 193 246 303 366 438
#     4  12  27  46  68 106 144 186 244 303 360 430
#     4  12  26  48  72 108 150 190 254 290 362 450
#     4  10  22  45  72 104 137 181 241 295 350 433
#     4  11  24  44  76 103 139 188 237 300 368 426
#
# _framework density 22.084273
#
# number of rings (size 3 to 8) (size 9 to 14) (size 15 to 20)
#    0.000    0.533    2.667    6.000    3.733    2.133 
#    0.000    1.333    0.000    0.000    0.000    0.000 
#    0.000    0.000    0.000    0.000    0.000    0.000 
#
# Total GULP energy -371659.709370 kJ/mol
# GULP energy per Si atom -12388.656979 kJ/mol
# Density = 2.203401 g / cm^3
# Si number density = 22.084273 Si / 1000 Ang^3
#
#
#
# Elastic Constant Matrix: (Units=GPa)
#
#
# Indices 1 2 3 4 5 6 
#
# 1 172.2152 68.6055 64.2286 0.0000 0.0000 0.0000
# 2 68.6055 195.8202 53.2158 0.0000 0.0000 0.0000
# 3 64.2286 53.2158 101.6394 0.0000 0.0000 0.0000
# 4 0.0000 0.0000 0.0000 48.8733 0.0000 0.0000
# 5 0.0000 0.0000 0.0000 0.0000 48.7504 0.0000
# 6 0.0000 0.0000 0.0000 0.0000 0.0000 90.4051
#
#
#
# Elastic Compliance Matrix: (Units=1/GPa)
#
#
# Indices 1 2 3 4 5 6 
#
# 1 0.008042 -0.001675 -0.004205 0.000000 0.000000 0.000000
# 2 -0.001675 0.006303 -0.002242 0.000000 0.000000 0.000000
# 3 -0.004205 -0.002242 0.013670 0.000000 0.000000 0.000000
# 4 0.000000 0.000000 0.000000 0.020461 0.000000 0.000000
# 5 0.000000 0.000000 0.000000 0.000000 0.020513 0.000000
# 6 0.000000 0.000000 0.000000 0.000000 0.000000 0.011061
#
#
# Mechanical properties :
#
#
# Convention : Reuss Voigt Hill
#
# Bulk Modulus (GPa) = 84.95125 93.53050 89.24087
# Shear Modulus (GPa) = 49.89194 56.51411 53.20302
#
# Velocity S-wave (km/s) = 4.75822 5.06416 4.91357
# Velocity P-wave (km/s) = 8.29083 8.75431 8.52572
#
# Compressibility (1/GPa) = 0.01177146
#
# Stress axis : x y z
#
# Youngs Moduli (GPa) = 124.34359 158.66338 73.15438
#
# Poissons Ratio (x) = 0.26573 0.30763
# Poissons Ratio (y) = 0.20825 0.16398
# Poissons Ratio (z) = 0.52289 0.35565
#
# Static dielectric constant tensor:
#      x y z
#    x 3.240450 0.000000 0.000000 
#    y 0.000000 4.329150 0.000000 
#    z 0.000000 0.000000 4.035670 
# 
# 
# High freq. dielectric constant tensor:
#      x y z
#    x 1.881530 0.000000 0.000000 
#    y 0.000000 1.901600 0.000000 
#    z 0.000000 0.000000 1.860490 
# 
# From -- ./inp_files/13259.got.cif
#   From: 2010.03.12/outbox.cif.g09.slc.cpg/sg74_7_cif.got.tgz:13259.got - 2010.04.16 15:46:19.
