data_PCOD8301409
_publ_section_title
;
Structure prediction by ZEFSAII (Michael W. Deem and Ramdas Pophale) SiO2 
 PCOD8301409
Probable space group: I M M A
;
_chemical_formula_sum "Si O2"
_cell_formula_units_Z 48
_cell_length_a 12.759760
_cell_length_b 19.570824
_cell_length_c 9.878157
_cell_angle_alpha 90.000000
_cell_angle_beta 90.000000
_cell_angle_gamma 90.000000
_cell_volume 2466.763658
_symmetry_space_group_name_H-M "I M M A"
_symmetry_group_IT_number 74
_symmetry_cell_setting 'orthorhombic'
loop_
_space_group_symop_operation_xyz
x,y,z
-x,1/2-y,z
x,-y,-z
-x,1/2+y,-z
-x,-y,-z
x,1/2+y,-z
-x,y,z
x,1/2-y,z
1/2+x,1/2+y,1/2+z
1/2-x,-y,1/2+z
1/2+x,1/2-y,1/2-z
1/2-x,y,1/2-z
1/2-x,1/2-y,1/2-z
1/2+x,y,1/2-z
1/2-x,1/2+y,1/2+z
1/2+x,-y,1/2+z
loop_
_atom_site_type_symbol
_atom_site_label
_atom_site_fract_x
_atom_site_fract_y
_atom_site_fract_z
Si Si1 0.500000 0.920020 0.521346
Si Si2 0.277698 0.063558 0.399393
Si Si3 0.115833 0.826588 0.495914
Si Si4 0.000000 0.326445 0.763294
O O1 0.393479 0.901801 0.601635
O O2 0.500000 0.882988 0.377517
O O3 0.500000 0.000000 0.500000
O O4 0.250000 0.037182 0.250000
O O5 0.196608 0.120729 0.443595
O O6 0.270595 0.000000 0.500000
O O7 0.155974 0.750000 0.527956
O O8 0.103049 0.835710 0.332509
O O9 0.000000 0.837677 0.562159
O O10 0.000000 0.250000 0.826923
#
# Coordination Sequence:
#
# PCOD8301409 Si02
#       4
#     8  16  16   8
#     4  10  24  39  57  92 135 155 211 266 311 363
#     4  11  26  41  64  92 129 172 211 260 318 378
#     4   8  19  40  67  94 122 161 213 255 310 379
#     4   8  18  39  67  97 124 163 208 261 313 376
#
# _framework density 19.458693
#
# number of rings (size 3 to 8) (size 9 to 14) (size 15 to 20)
#    1.000    1.667    0.000    0.000   11.667    2.667 
#    0.000    3.333    0.000    0.000    0.000    0.000 
#    0.000    0.000    0.000    0.000    0.000    0.000 
#
# Total GULP energy -297336.319680 kJ/mol
# GULP energy per Si atom -12389.013320 kJ/mol
# Density = 1.941440 g / cm^3
# Si number density = 19.458693 Si / 1000 Ang^3
#
#
#
# Elastic Constant Matrix: (Units=GPa)
#
#
# Indices 1 2 3 4 5 6 
#
# 1 137.9334 66.1026 60.6769 -0.0001 -0.0001 -0.0054
# 2 66.1026 123.1317 59.6522 -0.0003 -0.0002 -0.0113
# 3 60.6769 59.6522 121.0274 -0.0021 -0.0007 -0.0400
# 4 -0.0001 -0.0003 -0.0021 40.7885 -0.0004 -0.0185
# 5 -0.0001 -0.0002 -0.0007 -0.0004 18.6199 -0.0135
# 6 -0.0054 -0.0113 -0.0400 -0.0185 -0.0135-1517.6951
#
#
#
# Elastic Compliance Matrix: (Units=1/GPa)
#
#
# Indices 1 2 3 4 5 6 
#
# 1 0.010691 -0.004129 -0.003325 0.000000 0.000000 0.000000
# 2 -0.004129 0.012263 -0.003974 0.000000 0.000000 0.000000
# 3 -0.003325 -0.003974 0.011889 0.000001 0.000000 0.000000
# 4 0.000000 0.000000 0.000001 0.024517 0.000000 0.000000
# 5 0.000000 0.000000 0.000000 0.000000 0.053706 0.000000
# 6 0.000000 0.000000 0.000000 0.000000 0.000000 -0.000659
#
#
# Mechanical properties :
#
#
# Convention : Reuss Voigt Hill
#
# Bulk Modulus (GPa) = 83.42605 83.88397 83.65501
# Shear Modulus (GPa) = 35.90439 -278.61328 -121.35445
#
# Velocity S-wave (km/s) = 4.30019 -11.97885 -7.90573
# Velocity P-wave (km/s) = 8.22326 12.17051 6.34426
#
# Compressibility (1/GPa) = 0.01198666
#
# Stress axis : x y z
#
# Youngs Moduli (GPa) = 93.53522 81.54425 84.11457
#
# Poissons Ratio (x) = 0.33667 0.27969
# Poissons Ratio (y) = 0.38617 0.33431
# Poissons Ratio (z) = 0.31101 0.32409
#
# Static dielectric constant tensor:
#      x y z
#    x 4.353800 0.000000 0.000000 
#    y 0.000000 3.358890 0.000000 
#    z 0.000000 0.000000 3.381440 
# 
# 
# High freq. dielectric constant tensor:
#      x y z
#    x 1.761510 0.000000 0.000000 
#    y 0.000000 1.757350 0.000000 
#    z 0.000000 0.000000 1.739000 
# 
# From -- ./inp_files/8243.got.cif
#   From: 2010.03.12/outbox.cif.g09.slc.cpg/sg74_5_cif.got.tgz:8243.got - 2010.04.16 15:46:19.
