data_PCOD8301813
_publ_section_title
;
Structure prediction by ZEFSAII (Michael W. Deem and Ramdas Pophale) SiO2 
 PCOD8301813
Probable space group: I M M A
;
_chemical_formula_sum "Si O2"
_cell_formula_units_Z 80
_cell_length_a 13.500459
_cell_length_b 9.873323
_cell_length_c 37.299123
_cell_angle_alpha 90.000000
_cell_angle_beta 90.000000
_cell_angle_gamma 90.000000
_cell_volume 4971.763936
_symmetry_space_group_name_H-M "I M M A"
_symmetry_group_IT_number 74
_symmetry_cell_setting 'orthorhombic'
loop_
_space_group_symop_operation_xyz
x,y,z
-x,1/2-y,z
x,-y,-z
-x,1/2+y,-z
-x,-y,-z
x,1/2+y,-z
-x,y,z
x,1/2-y,z
1/2+x,1/2+y,1/2+z
1/2-x,-y,1/2+z
1/2+x,1/2-y,1/2-z
1/2-x,y,1/2-z
1/2-x,1/2-y,1/2-z
1/2+x,y,1/2-z
1/2-x,1/2+y,1/2+z
1/2+x,-y,1/2+z
loop_
_atom_site_type_symbol
_atom_site_label
_atom_site_fract_x
_atom_site_fract_y
_atom_site_fract_z
Si Si1 0.209350 0.095022 0.893974
Si Si2 0.613489 0.904836 0.467312
Si Si3 0.386740 0.906684 0.156737
Si Si4 0.390089 0.600704 0.656006
Si Si5 0.220854 0.093540 0.289483
O O1 0.184817 0.250000 0.885375
O O2 0.318307 0.056920 0.878064
O O3 0.126019 0.006713 0.875065
O O4 0.194805 0.066787 0.936200
O O5 0.500000 0.935316 0.454686
O O6 0.621664 0.750000 0.480244
O O7 0.644446 0.000000 0.500000
O O8 0.500000 0.935230 0.145404
O O9 0.371608 0.750000 0.167774
O O10 0.361196 0.999248 0.191320
O O11 0.500000 0.586532 0.671139
O O12 0.370315 0.750000 0.639715
O O13 0.322072 0.573304 0.689681
O O14 0.183714 0.250000 0.289298
O O15 0.250000 0.042592 0.250000
#
# Coordination Sequence:
#
# PCOD8301813 Si02
#       5
#    16  16  16  16  16
#     4   9  17  30  47  65  87 115 147 182 217 258
#     4   9  17  28  43  65  91 117 144 174 213 263
#     4   9  18  32  49  68  89 116 152 191 228 264
#     4   9  17  28  42  62  87 113 142 177 217 260
#     4   9  18  31  46  65  89 117 148 182 222 267
#
# _framework density 16.090868
#
# number of rings (size 3 to 8) (size 9 to 14) (size 15 to 20)
#    0.000    3.000    0.000    0.600    0.000    3.600 
#    0.000    4.000    0.000    0.600    0.000    0.000 
#    0.000    0.000    0.000    0.000    0.000    0.000 
#
# Total GULP energy -495733.734275 kJ/mol
# GULP energy per Si atom -12393.343357 kJ/mol
# Density = 1.605424 g / cm^3
# Si number density = 16.090868 Si / 1000 Ang^3
#
#
#
# Elastic Constant Matrix: (Units=GPa)
#
#
# Indices 1 2 3 4 5 6 
#
# 1 82.1669 40.9073 45.6863 0.0000 0.0000 0.0000
# 2 40.9073 67.7998 58.5988 0.0000 0.0000 0.0000
# 3 45.6863 58.5988 110.3774 0.0000 0.0000 0.0000
# 4 0.0000 0.0000 0.0000 29.4391 0.0000 0.0000
# 5 0.0000 0.0000 0.0000 0.0000 15.7785 0.0000
# 6 0.0000 0.0000 0.0000 0.0000 0.0000 30.3247
#
#
#
# Elastic Compliance Matrix: (Units=1/GPa)
#
#
# Indices 1 2 3 4 5 6 
#
# 1 0.017954 -0.008149 -0.003105 0.000000 0.000000 0.000000
# 2 -0.008149 0.030954 -0.013060 0.000000 0.000000 0.000000
# 3 -0.003105 -0.013060 0.017279 0.000000 0.000000 0.000000
# 4 0.000000 0.000000 0.000000 0.033968 0.000000 0.000000
# 5 0.000000 0.000000 0.000000 0.000000 0.063378 0.000000
# 6 0.000000 0.000000 0.000000 0.000000 0.000000 0.032976
#
#
# Mechanical properties :
#
#
# Convention : Reuss Voigt Hill
#
# Bulk Modulus (GPa) = 56.95452 61.19209 59.07330
# Shear Modulus (GPa) = 19.92111 22.78522 21.35317
#
# Velocity S-wave (km/s) = 3.52239 3.76711 3.64680
# Velocity P-wave (km/s) = 7.21217 7.55203 7.38405
#
# Compressibility (1/GPa) = 0.01755787
#
# Stress axis : x y z
#
# Youngs Moduli (GPa) = 55.69861 32.30613 57.87448
#
# Poissons Ratio (x) = 0.26325 0.17971
# Poissons Ratio (y) = 0.45387 0.75586
# Poissons Ratio (z) = 0.17295 0.42193
#
# Static dielectric constant tensor:
#      x y z
#    x 3.069650 0.000000 0.000000 
#    y 0.000000 3.228380 0.000000 
#    z 0.000000 0.000000 2.979880 
# 
# 
# High freq. dielectric constant tensor:
#      x y z
#    x 1.607010 0.000000 0.000000 
#    y 0.000000 1.625880 0.000000 
#    z 0.000000 0.000000 1.604140 
# 
# From -- ./inp_files/71501.got.cif
#   From: 2010.03.12/outbox.cif.g09.slc.cpg/sg74_36_cif.got.tgz:71501.got - 2010.04.16 15:46:19.
