data_PCOD8301136
_publ_section_title
;
Structure prediction by ZEFSAII (Michael W. Deem and Ramdas Pophale) SiO2 
 PCOD8301136
Probable space group: I M M A
;
_chemical_formula_sum "Si O2"
_cell_formula_units_Z 112
_cell_length_a 24.015069
_cell_length_b 13.933843
_cell_length_c 15.518070
_cell_angle_alpha 90.000000
_cell_angle_beta 90.000000
_cell_angle_gamma 90.000000
_cell_volume 5192.690740
_symmetry_space_group_name_H-M "I M M A"
_symmetry_group_IT_number 74
_symmetry_cell_setting 'orthorhombic'
loop_
_space_group_symop_operation_xyz
x,y,z
-x,1/2-y,z
x,-y,-z
-x,1/2+y,-z
-x,-y,-z
x,1/2+y,-z
-x,y,z
x,1/2-y,z
1/2+x,1/2+y,1/2+z
1/2-x,-y,1/2+z
1/2+x,1/2-y,1/2-z
1/2-x,y,1/2-z
1/2-x,1/2-y,1/2-z
1/2+x,y,1/2-z
1/2-x,1/2+y,1/2+z
1/2+x,-y,1/2+z
loop_
_atom_site_type_symbol
_atom_site_label
_atom_site_fract_x
_atom_site_fract_y
_atom_site_fract_z
Si Si1 0.839742 0.851795 0.601242
Si Si2 0.259726 0.143247 0.529292
Si Si3 0.103223 0.640818 0.285425
Si Si4 0.435823 0.028979 0.623856
Si Si5 0.706630 0.530686 0.179496
Si Si6 0.938365 0.890025 0.477970
Si Si7 0.383382 0.361453 0.471049
O O1 0.838208 0.750000 0.653188
O O2 0.784148 0.860270 0.546516
O O3 0.893427 0.842618 0.540222
O O4 0.838054 0.944789 0.662164
O O5 0.261562 0.250000 0.571353
O O6 0.242501 0.062835 0.597652
O O7 0.319035 0.116925 0.489448
O O8 0.095013 0.750000 0.254138
O O9 0.073500 0.568612 0.219710
O O10 0.169377 0.619283 0.287337
O O11 0.077393 0.627593 0.379405
O O12 0.500000 0.004086 0.610856
O O13 0.418088 0.110573 0.555972
O O14 0.401925 0.929714 0.608350
O O15 0.750000 0.494363 0.250000
O O16 0.000000 0.846347 0.494421
O O17 0.938382 0.000000 0.500000
O O18 0.394169 0.250000 0.447661
#
# Coordination Sequence:
#
# PCOD8301136 Si02
#       7
#    16  16  16  16  16  16  16
#     4  11  23  42  65  94 129 170 218 263 319 391
#     4  10  21  39  65  94 126 164 209 262 323 386
#     4  12  25  43  65  99 137 171 218 276 339 397
#     4  11  25  41  64  98 134 176 222 271 333 399
#     4  12  25  39  64  94 131 173 213 269 331 388
#     4  11  22  42  72 100 130 172 220 266 326 396
#     4  10  22  41  68  97 130 176 225 273 329 395
#
# _framework density 21.568778999999999
#
# number of rings (size 3 to 8) (size 9 to 14) (size 15 to 20)
#    0.000    1.000    2.857    3.857    6.000    6.286 
#    0.000    0.714    0.000    0.000    0.000    0.000 
#    0.000    0.000    0.000    0.000    0.000    0.000 
#
# Total GULP energy -694301.100712 kJ/mol
# GULP energy per Si atom -12398.233941 kJ/mol
# Density = 2.151969 g / cm^3
# Si number density = 21.568779 Si / 1000 Ang^3
#
#
#
# Elastic Constant Matrix: (Units=GPa)
#
#
# Indices 1 2 3 4 5 6 
#
# 1 139.4618 37.1090 16.4176 0.0000 0.0000 0.0000
# 2 37.1090 153.2868 29.9468 0.0000 0.0000 0.0000
# 3 16.4176 29.9468 41.4501 0.0000 0.0000 0.0000
# 4 0.0000 0.0000 0.0000 27.3265 0.0000 0.0000
# 5 0.0000 0.0000 0.0000 0.0000 21.2150 0.0000
# 6 0.0000 0.0000 0.0000 0.0000 0.0000 13.7195
#
#
#
# Elastic Compliance Matrix: (Units=1/GPa)
#
#
# Indices 1 2 3 4 5 6 
#
# 1 0.007805 -0.001497 -0.002010 0.000000 0.000000 0.000000
# 2 -0.001497 0.007883 -0.005102 0.000000 0.000000 0.000000
# 3 -0.002010 -0.005102 0.028608 0.000000 0.000000 0.000000
# 4 0.000000 0.000000 0.000000 0.036595 0.000000 0.000000
# 5 0.000000 0.000000 0.000000 0.000000 0.047136 0.000000
# 6 0.000000 0.000000 0.000000 0.000000 0.000000 0.072889
#
#
# Mechanical properties :
#
#
# Convention : Reuss Voigt Hill
#
# Bulk Modulus (GPa) = 36.93103 55.68284 46.30693
# Shear Modulus (GPa) = 22.01084 29.16721 25.58903
#
# Velocity S-wave (km/s) = 3.19799 3.68134 3.44814
# Velocity P-wave (km/s) = 5.54939 6.62888 6.11301
#
# Compressibility (1/GPa) = 0.02707750
#
# Stress axis : x y z
#
# Youngs Moduli (GPa) = 128.11718 126.85658 34.95540
#
# Poissons Ratio (x) = 0.18989 0.07026
# Poissons Ratio (y) = 0.19178 0.17835
# Poissons Ratio (z) = 0.25753 0.64727
#
# Static dielectric constant tensor:
#      x y z
#    x 4.237530 0.000000 0.000000 
#    y 0.000000 4.030940 0.000000 
#    z 0.000000 0.000000 3.684240 
# 
# 
# High freq. dielectric constant tensor:
#      x y z
#    x 1.862100 0.000000 0.000000 
#    y 0.000000 1.865220 0.000000 
#    z 0.000000 0.000000 1.819270 
# 
# From -- ./inp_files/36483.got.cif
#   From: 2010.03.12/outbox.cif.g09.slc.cpg/sg74_19_cif.got.tgz:36483.got - 2010.04.16 15:46:19.
