data_PCOD8301946
_publ_section_title
;
Structure prediction by ZEFSAII (Michael W. Deem and Ramdas Pophale) SiO2 
 PCOD8301946
Probable space group: P 41
;
_chemical_formula_sum "Si O2"
_cell_formula_units_Z 28
_cell_length_a 12.190655
_cell_length_b 12.190655
_cell_length_c 8.604740
_cell_angle_alpha 90.000000
_cell_angle_beta 90.000000
_cell_angle_gamma 90.000000
_cell_volume 1278.768217
_symmetry_space_group_name_H-M "P 41"
_symmetry_group_IT_number 76
_symmetry_cell_setting 'tetragonal'
loop_
_space_group_symop_operation_xyz
x,y,z
-y,x,1/4+z
-x,-y,1/2+z
y,-x,3/4+z
loop_
_atom_site_type_symbol
_atom_site_label
_atom_site_fract_x
_atom_site_fract_y
_atom_site_fract_z
Si Si1 0.728518 0.551802 0.082400
Si Si2 0.921066 0.593488 0.598614
Si Si3 0.452387 0.392395 0.091940
Si Si4 0.842653 0.334767 0.032123
Si Si5 0.728772 0.687026 0.785111
Si Si6 0.130821 0.302515 0.777485
Si Si7 0.100537 0.656600 0.188177
O O1 0.643358 0.553035 0.227075
O O2 0.755159 0.422608 0.091176
O O3 0.829744 0.627385 0.130600
O O4 0.685835 0.602299 0.919904
O O5 0.850140 0.648511 0.735633
O O6 0.871628 0.621468 0.430106
O O7 0.925836 0.461460 0.610794
O O8 0.041084 0.647477 0.616469
O O9 0.497421 0.407616 0.265580
O O10 0.348077 0.315354 0.131182
O O11 0.802642 0.209080 0.057505
O O12 0.844786 0.367465 0.852351
O O13 0.728564 0.813870 0.838616
O O14 0.008024 0.269447 0.722239
#
# Coordination Sequence:
#
# PCOD8301946 Si02
#       7
#     4   4   4   4   4   4   4
#     4  12  22  40  70  98 135 179 232 293 358 425
#     4  11  24  44  69 104 136 184 241 296 352 437
#     4  12  26  40  60  96 143 190 229 290 364 442
#     4  11  23  43  71 100 138 182 235 295 362 426
#     4  12  24  42  69 103 139 181 244 293 357 431
#     4  11  24  44  68 102 139 185 235 293 359 422
#     4  11  23  43  71 101 142 183 236 294 354 433
#
# _framework density 21.896072
#
# number of rings (size 3 to 8) (size 9 to 14) (size 15 to 20)
#    0.000    0.571    4.286    5.143    0.000    0.000 
#    5.143    0.000   12.571    0.000    0.000    0.000 
#    0.000    0.000    0.000    0.000    0.000    0.000 
#
# Total GULP energy -346953.697636 kJ/mol
# GULP energy per Si atom -12391.203487 kJ/mol
# Density = 2.184624 g / cm^3
# Si number density = 21.896072 Si / 1000 Ang^3
#
#
#
# Elastic Constant Matrix: (Units=GPa)
#
#
# Indices 1 2 3 4 5 6 
#
# 1 104.5363 55.4594 31.5716 0.0000 0.0000 -0.0525
# 2 55.4594 104.5363 31.5716 0.0000 0.0000 0.0525
# 3 31.5716 31.5716 88.0419 0.0000 0.0000 0.0000
# 4 0.0000 0.0000 0.0000 34.9832 0.0000 0.0000
# 5 0.0000 0.0000 0.0000 0.0000 34.9832 0.0000
# 6 -0.0525 0.0525 0.0000 0.0000 0.0000 35.1556
#
#
#
# Elastic Compliance Matrix: (Units=1/GPa)
#
#
# Indices 1 2 3 4 5 6 
#
# 1 0.013828 -0.006548 -0.002611 0.000000 0.000000 0.000030
# 2 -0.006548 0.013828 -0.002611 0.000000 0.000000 -0.000030
# 3 -0.002611 -0.002611 0.013231 0.000000 0.000000 0.000000
# 4 0.000000 0.000000 0.000000 0.028585 0.000000 0.000000
# 5 0.000000 0.000000 0.000000 0.000000 0.028585 0.000000
# 6 0.000030 -0.000030 0.000000 0.000000 0.000000 0.028445
#
#
# Mechanical properties :
#
#
# Convention : Reuss Voigt Hill
#
# Bulk Modulus (GPa) = 57.64151 59.36885 58.50518
# Shear Modulus (GPa) = 32.08738 32.92520 32.50629
#
# Velocity S-wave (km/s) = 3.83226 3.88197 3.85719
# Velocity P-wave (km/s) = 6.77966 6.87500 6.82750
#
# Compressibility (1/GPa) = 0.01734861
#
# Stress axis : x y z
#
# Youngs Moduli (GPa) = 72.31503 72.31503 75.58197
#
# Poissons Ratio (x) = 0.47351 0.19733
# Poissons Ratio (y) = 0.47351 0.19733
# Poissons Ratio (z) = 0.18880 0.18880
#
# Static dielectric constant tensor:
#      x y z
#    x 3.910290 0.000000 0.000000 
#    y 0.000000 3.910290 0.000000 
#    z 0.000000 0.000000 4.069760 
# 
# 
# High freq. dielectric constant tensor:
#      x y z
#    x 1.849190 0.000000 0.000000 
#    y 0.000000 1.849190 0.000000 
#    z 0.000000 0.000000 1.878120 
# 
# From -- ./inp_files/591.got.cif
#   From: 2010.03.12/outbox.cif.g09.slc.cpg/sg76_cif.got.tgz:591.got - 2010.04.16 16:34:25.
