data_PCOD8301692
_publ_section_title
;
Structure prediction by ZEFSAII (Michael W. Deem and Ramdas Pophale) SiO2 
 PCOD8301692
Probable space group: I M M A
;
_chemical_formula_sum "Si O2"
_cell_formula_units_Z 64
_cell_length_a 14.527195
_cell_length_b 7.514699
_cell_length_c 27.558757
_cell_angle_alpha 90.000000
_cell_angle_beta 90.000000
_cell_angle_gamma 90.000000
_cell_volume 3008.520542
_symmetry_space_group_name_H-M "I M M A"
_symmetry_group_IT_number 74
_symmetry_cell_setting 'orthorhombic'
loop_
_space_group_symop_operation_xyz
x,y,z
-x,1/2-y,z
x,-y,-z
-x,1/2+y,-z
-x,-y,-z
x,1/2+y,-z
-x,y,z
x,1/2-y,z
1/2+x,1/2+y,1/2+z
1/2-x,-y,1/2+z
1/2+x,1/2-y,1/2-z
1/2-x,y,1/2-z
1/2-x,1/2-y,1/2-z
1/2+x,y,1/2-z
1/2-x,1/2+y,1/2+z
1/2+x,-y,1/2+z
loop_
_atom_site_type_symbol
_atom_site_label
_atom_site_fract_x
_atom_site_fract_y
_atom_site_fract_z
Si Si1 0.395758 0.559279 0.716337
Si Si2 0.843587 0.250000 0.720701
Si Si3 0.219848 0.041017 0.443840
Si Si4 0.889837 0.250000 0.611089
Si Si5 0.397440 0.039137 0.388132
O O1 0.500000 0.598593 0.703116
O O2 0.348125 0.750000 0.729561
O O3 0.392986 0.429482 0.762075
O O4 0.357816 0.478879 0.665213
O O5 0.750000 0.250000 0.750000
O O6 0.840111 0.250000 0.663237
O O7 0.204011 0.250000 0.432824
O O8 0.321664 0.974992 0.427084
O O9 0.210778 0.000000 0.500000
O O10 0.141315 0.928387 0.416624
O O11 0.000000 0.250000 0.616573
O O12 0.500000 0.958937 0.399853
O O13 0.403947 0.250000 0.388773
#
# Coordination Sequence:
#
# PCOD8301692 Si02
#       5
#    16   8  16   8  16
#     4   9  18  35  58  85 122 165 197 229 287 367
#     4  12  24  38  62  94 127 158 199 257 318 377
#     4  11  23  44  67  90 123 163 212 273 333 380
#     4  12  28  46  65  94 125 164 225 275 315 373
#     4   8  16  33  61  96 133 170 205 245 308 394
#
# _framework density 21.272914
#
# number of rings (size 3 to 8) (size 9 to 14) (size 15 to 20)
#    0.000    2.000    1.250    4.125    0.000    3.000 
#    0.000    1.875    0.000    0.000    0.000    0.000 
#    0.000    0.000    0.000    0.000    0.000    0.000 
#
# Total GULP energy -396445.950780 kJ/mol
# GULP energy per Si atom -12388.935962 kJ/mol
# Density = 2.122450 g / cm^3
# Si number density = 21.272914 Si / 1000 Ang^3
#
#
#
# Elastic Constant Matrix: (Units=GPa)
#
#
# Indices 1 2 3 4 5 6 
#
# 1 76.2132 34.7054 46.9554 0.0000 0.0000 0.0000
# 2 34.7054 116.7696 51.1219 0.0000 0.0000 0.0000
# 3 46.9554 51.1219 165.4903 0.0000 0.0000 0.0000
# 4 0.0000 0.0000 0.0000 24.9239 0.0000 0.0000
# 5 0.0000 0.0000 0.0000 0.0000 32.8711 0.0000
# 6 0.0000 0.0000 0.0000 0.0000 0.0000 23.3606
#
#
#
# Elastic Compliance Matrix: (Units=1/GPa)
#
#
# Indices 1 2 3 4 5 6 
#
# 1 0.016993 -0.003399 -0.003771 0.000000 0.000000 0.000000
# 2 -0.003399 0.010583 -0.002305 0.000000 0.000000 0.000000
# 3 -0.003771 -0.002305 0.007825 0.000000 0.000000 0.000000
# 4 0.000000 0.000000 0.000000 0.040122 0.000000 0.000000
# 5 0.000000 0.000000 0.000000 0.000000 0.030422 0.000000
# 6 0.000000 0.000000 0.000000 0.000000 0.000000 0.042807
#
#
# Mechanical properties :
#
#
# Convention : Reuss Voigt Hill
#
# Bulk Modulus (GPa) = 60.79148 69.33760 65.06454
# Shear Modulus (GPa) = 28.87077 31.27714 30.07396
#
# Velocity S-wave (km/s) = 3.68796 3.83858 3.76403
# Velocity P-wave (km/s) = 6.83913 7.23266 7.03865
#
# Compressibility (1/GPa) = 0.01644967
#
# Stress axis : x y z
#
# Youngs Moduli (GPa) = 58.84925 94.48905 127.80091
#
# Poissons Ratio (x) = 0.32120 0.48197
# Poissons Ratio (y) = 0.20005 0.29455
# Poissons Ratio (z) = 0.22194 0.21778
#
# Static dielectric constant tensor:
#      x y z
#    x 3.931660 0.000000 0.000000 
#    y 0.000000 3.764630 0.000000 
#    z 0.000000 0.000000 3.990020 
# 
# 
# High freq. dielectric constant tensor:
#      x y z
#    x 1.822940 0.000000 0.000000 
#    y 0.000000 1.837170 0.000000 
#    z 0.000000 0.000000 1.831530 
# 
# From -- ./inp_files/59532.got.cif
#   From: 2010.03.12/outbox.cif.g09.slc.cpg/sg74_30_cif.got.tgz:59532.got - 2010.04.16 15:46:19.
