data_PCOD8301810
_publ_section_title
;
Structure prediction by ZEFSAII (Michael W. Deem and Ramdas Pophale) SiO2 
 PCOD8301810
Probable space group: I M M A
;
_chemical_formula_sum "Si O2"
_cell_formula_units_Z 80
_cell_length_a 9.272011
_cell_length_b 14.159291
_cell_length_c 34.095854
_cell_angle_alpha 90.000000
_cell_angle_beta 90.000000
_cell_angle_gamma 90.000000
_cell_volume 4476.277667
_symmetry_space_group_name_H-M "I M M A"
_symmetry_group_IT_number 74
_symmetry_cell_setting 'orthorhombic'
loop_
_space_group_symop_operation_xyz
x,y,z
-x,1/2-y,z
x,-y,-z
-x,1/2+y,-z
-x,-y,-z
x,1/2+y,-z
-x,y,z
x,1/2-y,z
1/2+x,1/2+y,1/2+z
1/2-x,-y,1/2+z
1/2+x,1/2-y,1/2-z
1/2-x,y,1/2-z
1/2-x,1/2-y,1/2-z
1/2+x,y,1/2-z
1/2-x,1/2+y,1/2+z
1/2+x,-y,1/2+z
loop_
_atom_site_type_symbol
_atom_site_label
_atom_site_fract_x
_atom_site_fract_y
_atom_site_fract_z
Si Si1 0.837335 0.362259 0.018183
Si Si2 0.331979 0.959515 0.134564
Si Si3 0.331879 0.859604 0.211170
Si Si4 0.832673 0.855820 0.594537
Si Si5 0.166080 0.638326 0.443269
O O1 0.834757 0.250000 0.016283
O O2 0.754116 0.394606 0.057179
O O3 0.000000 0.401492 0.019402
O O4 0.757814 0.403045 0.979696
O O5 0.500000 0.935152 0.136163
O O6 0.265175 0.919873 0.174951
O O7 0.268528 0.906231 0.096507
O O8 0.303040 0.072254 0.130544
O O9 0.500000 0.879975 0.217711
O O10 0.302596 0.750000 0.202118
O O11 0.250000 0.893216 0.250000
O O12 0.784511 0.750000 0.607184
O O13 0.000000 0.857033 0.582547
O O14 0.181991 0.750000 0.440011
O O15 0.000000 0.608414 0.449617
#
# Coordination Sequence:
#
# PCOD8301810 Si02
#       5
#    16  16  16  16  16
#     4   9  17  29  43  60  87 121 151 183 225 265
#     4   9  17  29  47  69  89 112 146 185 220 256
#     4   9  17  31  51  73  96 119 141 169 211 264
#     4   9  17  30  47  64  83 113 154 192 220 250
#     4   9  16  27  44  64  86 114 148 184 220 260
#
# _framework density 17.871993
#
# number of rings (size 3 to 8) (size 9 to 14) (size 15 to 20)
#    0.000    3.000    0.000    1.200    0.000    5.600 
#    0.000    7.000    0.000    5.400    0.000    0.000 
#    0.000    0.000    0.000    0.000    0.000    0.000 
#
# Total GULP energy -495884.798037 kJ/mol
# GULP energy per Si atom -12397.119951 kJ/mol
# Density = 1.783132 g / cm^3
# Si number density = 17.871993 Si / 1000 Ang^3
#
#
#
# Elastic Constant Matrix: (Units=GPa)
#
#
# Indices 1 2 3 4 5 6 
#
# 1 59.6049 24.8246 50.0453 0.0000 0.0000 0.0000
# 2 24.8246 64.9028 65.7871 0.0000 0.0000 0.0000
# 3 50.0453 65.7871 156.0477 0.0000 0.0000 0.0000
# 4 0.0000 0.0000 0.0000 30.1885 0.0000 0.0000
# 5 0.0000 0.0000 0.0000 0.0000 23.1976 0.0000
# 6 0.0000 0.0000 0.0000 0.0000 0.0000 9.9516
#
#
#
# Elastic Compliance Matrix: (Units=1/GPa)
#
#
# Indices 1 2 3 4 5 6 
#
# 1 0.023158 -0.002322 -0.006448 0.000000 0.000000 0.000000
# 2 -0.002322 0.027138 -0.010696 0.000000 0.000000 0.000000
# 3 -0.006448 -0.010696 0.012986 0.000000 0.000000 0.000000
# 4 0.000000 0.000000 0.000000 0.033125 0.000000 0.000000
# 5 0.000000 0.000000 0.000000 0.000000 0.043108 0.000000
# 6 0.000000 0.000000 0.000000 0.000000 0.000000 0.100487
#
#
# Mechanical properties :
#
#
# Convention : Reuss Voigt Hill
#
# Bulk Modulus (GPa) = 41.06909 62.42993 51.74951
# Shear Modulus (GPa) = 17.41859 21.99409 19.70634
#
# Velocity S-wave (km/s) = 3.12529 3.51186 3.32420
# Velocity P-wave (km/s) = 6.00439 7.17299 6.61455
#
# Compressibility (1/GPa) = 0.02434921
#
# Stress axis : x y z
#
# Youngs Moduli (GPa) = 43.18149 36.84921 77.00861
#
# Poissons Ratio (x) = 0.08555 0.49656
# Poissons Ratio (y) = 0.10026 0.82370
# Poissons Ratio (z) = 0.27844 0.39415
#
# Static dielectric constant tensor:
#      x y z
#    x 3.173970 0.000000 0.000000 
#    y 0.000000 3.299320 0.000000 
#    z 0.000000 0.000000 3.354170 
# 
# 
# High freq. dielectric constant tensor:
#      x y z
#    x 1.664300 0.000000 0.000000 
#    y 0.000000 1.691410 0.000000 
#    z 0.000000 0.000000 1.674930 
# 
# From -- ./inp_files/63970.got.cif
#   From: 2010.03.12/outbox.cif.g09.slc.cpg/sg74_32_cif.got.tgz:63970.got - 2010.04.16 15:46:19.
