data_PCOD8301779
_publ_section_title
;
Structure prediction by ZEFSAII (Michael W. Deem and Ramdas Pophale) SiO2 
 PCOD8301779
Probable space group: I M M A
;
_chemical_formula_sum "Si O2"
_cell_formula_units_Z 112
_cell_length_a 18.278409
_cell_length_b 9.744774
_cell_length_c 37.645433
_cell_angle_alpha 90.000000
_cell_angle_beta 90.000000
_cell_angle_gamma 90.000000
_cell_volume 6705.365555
_symmetry_space_group_name_H-M "I M M A"
_symmetry_group_IT_number 74
_symmetry_cell_setting 'orthorhombic'
loop_
_space_group_symop_operation_xyz
x,y,z
-x,1/2-y,z
x,-y,-z
-x,1/2+y,-z
-x,-y,-z
x,1/2+y,-z
-x,y,z
x,1/2-y,z
1/2+x,1/2+y,1/2+z
1/2-x,-y,1/2+z
1/2+x,1/2-y,1/2-z
1/2-x,y,1/2-z
1/2-x,1/2-y,1/2-z
1/2+x,y,1/2-z
1/2-x,1/2+y,1/2+z
1/2+x,-y,1/2+z
loop_
_atom_site_type_symbol
_atom_site_label
_atom_site_fract_x
_atom_site_fract_y
_atom_site_fract_z
Si Si1 0.118179 0.097964 0.366402
Si Si2 0.783461 0.099057 0.109068
Si Si3 0.816271 0.590699 0.170130
Si Si4 0.082377 0.412906 0.767118
Si Si5 0.232811 0.087833 0.467627
Si Si6 0.078680 0.912484 0.558193
Si Si7 0.652278 0.091084 0.805831
O O1 0.088820 0.250000 0.356202
O O2 0.202845 0.108411 0.375663
O O3 0.077642 0.036377 0.400953
O O4 0.104548 0.994820 0.333966
O O5 0.820386 0.250000 0.111870
O O6 0.779814 0.053914 0.067673
O O7 0.827529 0.990174 0.133014
O O8 0.826804 0.750000 0.161041
O O9 0.877357 0.534738 0.197354
O O10 0.738258 0.564885 0.188804
O O11 0.080773 0.250000 0.767662
O O12 0.128682 0.461906 0.733001
O O13 0.000000 0.472840 0.765935
O O14 0.235272 0.250000 0.476145
O O15 0.148949 0.031643 0.463018
O O16 0.266856 0.000000 0.500000
O O17 0.087966 0.750000 0.559654
O O18 0.000000 0.955830 0.540861
O O19 0.632354 0.250000 0.811240
#
# Coordination Sequence:
#
# PCOD8301779 Si02
#       7
#    16  16  16  16  16  16  16
#     4   8  14  25  40  56  74 100 137 176 208 239
#     4   8  15  28  43  59  80 105 131 162 204 246
#     4   9  16  27  45  64  79 103 143 179 200 233
#     4   9  17  28  41  59  85 113 137 166 209 253
#     4   9  17  28  42  60  82 106 131 163 204 246
#     4   8  14  25  39  53  73 106 143 172 202 243
#     4   9  16  26  41  60  81 106 138 176 213 244
#
# _framework density 16.703040999999999
#
# number of rings (size 3 to 8) (size 9 to 14) (size 15 to 20)
#    0.000    3.429    0.000    2.143    0.000    3.143 
#    0.000    2.857    0.000    5.571    0.000    0.000 
#    0.000    0.571    0.000    1.286    0.000    2.000 
#
# Total GULP energy -693864.669734 kJ/mol
# GULP energy per Si atom -12390.440531 kJ/mol
# Density = 1.666502 g / cm^3
# Si number density = 16.703041 Si / 1000 Ang^3
#
#
#
# Elastic Constant Matrix: (Units=GPa)
#
#
# Indices 1 2 3 4 5 6 
#
# 1 35.5871 18.1432 30.8014 0.0000 0.0000 0.0000
# 2 18.1432 53.1785 56.7981 0.0000 0.0000 0.0000
# 3 30.8014 56.7981 137.7959 0.0000 0.0000 0.0000
# 4 0.0000 0.0000 0.0000 28.6695 0.0000 0.0000
# 5 0.0000 0.0000 0.0000 0.0000 9.9054 0.0000
# 6 0.0000 0.0000 0.0000 0.0000 0.0000 8.2502
#
#
#
# Elastic Compliance Matrix: (Units=1/GPa)
#
#
# Indices 1 2 3 4 5 6 
#
# 1 0.036094 -0.006605 -0.005346 0.000000 0.000000 0.000000
# 2 -0.006605 0.034803 -0.012869 0.000000 0.000000 0.000000
# 3 -0.005346 -0.012869 0.013756 0.000000 0.000000 0.000000
# 4 0.000000 0.000000 0.000000 0.034880 0.000000 0.000000
# 5 0.000000 0.000000 0.000000 0.000000 0.100955 0.000000
# 6 0.000000 0.000000 0.000000 0.000000 0.000000 0.121209
#
#
# Mechanical properties :
#
#
# Convention : Reuss Voigt Hill
#
# Bulk Modulus (GPa) = 28.55966 48.67187 38.61577
# Shear Modulus (GPa) = 12.40667 17.41960 14.91314
#
# Velocity S-wave (km/s) = 2.72835 3.23290 2.99128
# Velocity P-wave (km/s) = 5.20200 6.56798 5.92449
#
# Compressibility (1/GPa) = 0.03501442
#
# Stress axis : x y z
#
# Youngs Moduli (GPa) = 27.70526 28.73311 72.69293
#
# Poissons Ratio (x) = 0.18978 0.38859
# Poissons Ratio (y) = 0.18299 0.93549
# Poissons Ratio (z) = 0.14810 0.36977
#
# Static dielectric constant tensor:
#      x y z
#    x 2.930640 0.000000 0.000000 
#    y 0.000000 3.059460 0.000000 
#    z 0.000000 0.000000 3.258520 
# 
# 
# High freq. dielectric constant tensor:
#      x y z
#    x 1.601620 0.000000 0.000000 
#    y 0.000000 1.614320 0.000000 
#    z 0.000000 0.000000 1.645380 
# 
# From -- ./inp_files/68376.got.cif
#   From: 2010.03.12/outbox.cif.g09.slc.cpg/sg74_35_cif.got.tgz:68376.got - 2010.04.16 15:46:19.
