data_PCOD8301288
_publ_section_title
;
Structure prediction by ZEFSAII (Michael W. Deem and Ramdas Pophale) SiO2 
 PCOD8301288
Probable space group: I M M A
;
_chemical_formula_sum "Si O2"
_cell_formula_units_Z 72
_cell_length_a 10.295227
_cell_length_b 16.196359
_cell_length_c 23.457282
_cell_angle_alpha 90.000000
_cell_angle_beta 90.000000
_cell_angle_gamma 90.000000
_cell_volume 3911.389002
_symmetry_space_group_name_H-M "I M M A"
_symmetry_group_IT_number 74
_symmetry_cell_setting 'orthorhombic'
loop_
_space_group_symop_operation_xyz
x,y,z
-x,1/2-y,z
x,-y,-z
-x,1/2+y,-z
-x,-y,-z
x,1/2+y,-z
-x,y,z
x,1/2-y,z
1/2+x,1/2+y,1/2+z
1/2-x,-y,1/2+z
1/2+x,1/2-y,1/2-z
1/2-x,y,1/2-z
1/2-x,1/2-y,1/2-z
1/2+x,y,1/2-z
1/2-x,1/2+y,1/2+z
1/2+x,-y,1/2+z
loop_
_atom_site_type_symbol
_atom_site_label
_atom_site_fract_x
_atom_site_fract_y
_atom_site_fract_z
Si Si1 0.500000 0.655157 0.677048
Si Si2 0.348718 0.250000 0.802230
Si Si3 0.642733 0.402969 0.009221
Si Si4 0.000000 0.343985 0.311834
Si Si5 0.743150 0.579232 0.872627
Si Si6 0.652340 0.100551 0.885680
O O1 0.500000 0.750000 0.656632
O O2 0.500000 0.649244 0.744357
O O3 0.623082 0.607784 0.653237
O O4 0.500000 0.250000 0.782350
O O5 0.250000 0.250000 0.750000
O O6 0.317363 0.330448 0.839275
O O7 0.500000 0.367755 0.024842
O O8 0.735688 0.384256 0.062799
O O9 0.633172 0.500000 0.000000
O O10 0.691460 0.364643 0.948896
O O11 0.127840 0.387618 0.334143
O O12 0.000000 0.250000 0.332446
O O13 0.737092 0.479866 0.871302
O O14 0.500000 0.076193 0.886675
#
# Coordination Sequence:
#
# PCOD8301288 Si02
#       6
#     8   8  16   8  16  16
#     4  11  26  40  51  79 129 155 180 242 295 335
#     4  10  22  40  60  86 126 158 191 243 290 336
#     4   8  14  30  59  87 112 137 184 248 287 326
#     4  11  22  38  57  81 109 149 200 244 275 335
#     4  11  19  38  61  85 111 153 199 230 292 356
#     4   9  18  37  61  90 116 147 193 248 287 329
#
# _framework density 18.407782000000001
#
# number of rings (size 3 to 8) (size 9 to 14) (size 15 to 20)
#    0.000    2.222    2.222    2.667    0.000    3.556 
#    6.000    5.000    0.000    0.000    0.000    0.000 
#    0.000    0.000    0.000    0.000    0.000    0.000 
#
# Total GULP energy -446245.283176 kJ/mol
# GULP energy per Si atom -12395.702310 kJ/mol
# Density = 1.836589 g / cm^3
# Si number density = 18.407782 Si / 1000 Ang^3
#
#
#
# Elastic Constant Matrix: (Units=GPa)
#
#
# Indices 1 2 3 4 5 6 
#
# 1 113.0853 48.8678 54.6772 0.0000 0.0000 0.0000
# 2 48.8678 92.0170 54.7562 0.0000 0.0000 0.0000
# 3 54.6772 54.7562 122.8307 0.0000 0.0000 0.0000
# 4 0.0000 0.0000 0.0000 15.8305 0.0000 0.0000
# 5 0.0000 0.0000 0.0000 0.0000 425.3282 0.0000
# 6 0.0000 0.0000 0.0000 0.0000 0.0000 19.2004
#
#
#
# Elastic Compliance Matrix: (Units=1/GPa)
#
#
# Indices 1 2 3 4 5 6 
#
# 1 0.012520 -0.004536 -0.003551 0.000000 0.000000 0.000000
# 2 -0.004536 0.016435 -0.005307 0.000000 0.000000 0.000000
# 3 -0.003551 -0.005307 0.012088 0.000000 0.000000 0.000000
# 4 0.000000 0.000000 0.000000 0.063169 0.000000 0.000000
# 5 0.000000 0.000000 0.000000 0.000000 0.002351 0.000000
# 6 0.000000 0.000000 0.000000 0.000000 0.000000 0.052082
#
#
# Mechanical properties :
#
#
# Convention : Reuss Voigt Hill
#
# Bulk Modulus (GPa) = 70.15549 71.61506 70.88528
# Shear Modulus (GPa) = 26.29021 103.38059 64.83540
#
# Velocity S-wave (km/s) = 3.78327 7.50222 5.94123
# Velocity P-wave (km/s) = 7.56827 10.67865 9.25506
#
# Compressibility (1/GPa) = 0.01425405
#
# Stress axis : x y z
#
# Youngs Moduli (GPa) = 79.87235 60.84736 82.72711
#
# Poissons Ratio (x) = 0.27599 0.29378
# Poissons Ratio (y) = 0.36229 0.43905
# Poissons Ratio (z) = 0.28364 0.32293
#
# Static dielectric constant tensor:
#      x y z
#    x 3.040540 0.000000 0.000000 
#    y 0.000000 3.357750 0.000000 
#    z 0.000000 0.000000 3.847440 
# 
# 
# High freq. dielectric constant tensor:
#      x y z
#    x 1.683460 0.000000 0.000000 
#    y 0.000000 1.707580 0.000000 
#    z 0.000000 0.000000 1.733970 
# 
# From -- ./inp_files/63701.got.cif
#   From: 2010.03.12/outbox.cif.g09.slc.cpg/sg74_32_cif.got.tgz:63701.got - 2010.04.16 15:46:19.
