data_PCOD8301756
_publ_section_title
;
Structure prediction by ZEFSAII (Michael W. Deem and Ramdas Pophale) SiO2 
 PCOD8301756
Probable space group: I M M A
;
_chemical_formula_sum "Si O2"
_cell_formula_units_Z 64
_cell_length_a 9.246776
_cell_length_b 9.529933
_cell_length_c 41.581111
_cell_angle_alpha 90.000000
_cell_angle_beta 90.000000
_cell_angle_gamma 90.000000
_cell_volume 3664.175559
_symmetry_space_group_name_H-M "I M M A"
_symmetry_group_IT_number 74
_symmetry_cell_setting 'orthorhombic'
loop_
_space_group_symop_operation_xyz
x,y,z
-x,1/2-y,z
x,-y,-z
-x,1/2+y,-z
-x,-y,-z
x,1/2+y,-z
-x,y,z
x,1/2-y,z
1/2+x,1/2+y,1/2+z
1/2-x,-y,1/2+z
1/2+x,1/2-y,1/2-z
1/2-x,y,1/2-z
1/2-x,1/2-y,1/2-z
1/2+x,y,1/2-z
1/2-x,1/2+y,1/2+z
1/2+x,-y,1/2+z
loop_
_atom_site_type_symbol
_atom_site_label
_atom_site_fract_x
_atom_site_fract_y
_atom_site_fract_z
Si Si1 0.331061 0.912550 0.281533
Si Si2 0.671752 0.592712 0.659701
Si Si3 0.172493 0.590922 0.030027
Si Si4 0.327878 0.407926 0.411445
O O1 0.500000 0.942726 0.276874
O O2 0.297955 0.750000 0.286963
O O3 0.250000 0.969668 0.250000
O O4 0.266310 0.991080 0.312753
O O5 0.500000 0.586076 0.659996
O O6 0.725307 0.750000 0.667120
O O7 0.726476 0.546309 0.624177
O O8 0.232527 0.750000 0.027943
O O9 0.233228 0.517573 0.062430
O O10 0.000000 0.593167 0.030101
O O11 0.229896 0.500000 0.000000
O O12 0.500000 0.408525 0.412445
O O13 0.273474 0.250000 0.419417
#
# Coordination Sequence:
#
# PCOD8301756 Si02
#       4
#    16  16  16  16
#     4   9  17  28  41  57  77 100 126 157 192 229
#     4   8  14  24  37  52  69  90 117 150 187 225
#     4   9  15  20  26  37  54  78 109 144 180 216
#     4   8  13  21  31  42  58  80 107 141 179 216
#
# _framework density 17.466412999999999
#
# number of rings (size 3 to 8) (size 9 to 14) (size 15 to 20)
#    0.000    3.500    0.000    2.250    0.000    4.500 
#    0.000    5.000    0.000    0.000    0.000    0.000 
#    0.000    0.000    0.000    0.000    0.000    1.250 
#
# Total GULP energy -396556.101344 kJ/mol
# GULP energy per Si atom -12392.378167 kJ/mol
# Density = 1.742666 g / cm^3
# Si number density = 17.466413 Si / 1000 Ang^3
#
#
#
# Elastic Constant Matrix: (Units=GPa)
#
#
# Indices 1 2 3 4 5 6 
#
# 1 5.4729 10.8502 14.9339 0.0000 0.0000 0.0000
# 2 10.8502 125.4935 108.0011 0.0000 0.0000 0.0000
# 3 14.9339 108.0011 193.7955 0.0000 0.0000 0.0000
# 4 0.0000 0.0000 0.0000 43.0283 0.0000 0.0000
# 5 0.0000 0.0000 0.0000 0.0000 12.4264 0.0000
# 6 0.0000 0.0000 0.0000 0.0000 0.0000 5.4028
#
#
#
# Elastic Compliance Matrix: (Units=1/GPa)
#
#
# Indices 1 2 3 4 5 6 
#
# 1 0.236726 -0.009163 -0.013136 0.000000 0.000000 0.000000
# 2 -0.009163 0.015667 -0.008025 0.000000 0.000000 0.000000
# 3 -0.013136 -0.008025 0.010645 0.000000 0.000000 0.000000
# 4 0.000000 0.000000 0.000000 0.023241 0.000000 0.000000
# 5 0.000000 0.000000 0.000000 0.000000 0.080474 0.000000
# 6 0.000000 0.000000 0.000000 0.000000 0.000000 0.185089
#
#
# Mechanical properties :
#
#
# Convention : Reuss Voigt Hill
#
# Bulk Modulus (GPa) = 4.94094 65.81471 35.37783
# Shear Modulus (GPa) = 7.35347 24.90329 16.12838
#
# Velocity S-wave (km/s) = 2.05407 3.78005 3.04204
# Velocity P-wave (km/s) = 2.90871 7.53752 5.71291
#
# Compressibility (1/GPa) = 0.20239050
#
# Stress axis : x y z
#
# Youngs Moduli (GPa) = 4.22430 63.82694 93.94292
#
# Poissons Ratio (x) = 0.58482 1.23402
# Poissons Ratio (y) = 0.03871 0.75392
# Poissons Ratio (z) = 0.05549 0.51223
#
# Static dielectric constant tensor:
#      x y z
#    x 2.431190 0.000000 0.000000 
#    y 0.000000 3.421550 0.000000 
#    z 0.000000 0.000000 3.753520 
# 
# 
# High freq. dielectric constant tensor:
#      x y z
#    x 1.579850 0.000000 0.000000 
#    y 0.000000 1.677060 0.000000 
#    z 0.000000 0.000000 1.694860 
# 
# From -- ./inp_files/71388.got.cif
#   From: 2010.03.12/outbox.cif.g09.slc.cpg/sg74_36_cif.got.tgz:71388.got - 2010.04.16 15:46:19.
