data_PCOD8301318
_publ_section_title
;
Structure prediction by ZEFSAII (Michael W. Deem and Ramdas Pophale) SiO2 
 PCOD8301318
Probable space group: I M M A
;
_chemical_formula_sum "Si O2"
_cell_formula_units_Z 96
_cell_length_a 8.730195
_cell_length_b 19.897421
_cell_length_c 29.081074
_cell_angle_alpha 90.000000
_cell_angle_beta 90.000000
_cell_angle_gamma 90.000000
_cell_volume 5051.625826
_symmetry_space_group_name_H-M "I M M A"
_symmetry_group_IT_number 74
_symmetry_cell_setting 'orthorhombic'
loop_
_space_group_symop_operation_xyz
x,y,z
-x,1/2-y,z
x,-y,-z
-x,1/2+y,-z
-x,-y,-z
x,1/2+y,-z
-x,y,z
x,1/2-y,z
1/2+x,1/2+y,1/2+z
1/2-x,-y,1/2+z
1/2+x,1/2-y,1/2-z
1/2-x,y,1/2-z
1/2-x,1/2-y,1/2-z
1/2+x,y,1/2-z
1/2-x,1/2+y,1/2+z
1/2+x,-y,1/2+z
loop_
_atom_site_type_symbol
_atom_site_label
_atom_site_fract_x
_atom_site_fract_y
_atom_site_fract_z
Si Si1 0.682246 0.570574 0.699645
Si Si2 0.679379 0.948544 0.448941
Si Si3 0.824693 0.947850 0.354258
Si Si4 0.318576 0.594177 0.965250
Si Si5 0.321088 0.327496 0.381376
Si Si6 0.328474 0.177049 0.793954
O O1 0.500000 0.562094 0.703606
O O2 0.750000 0.587889 0.750000
O O3 0.756662 0.502245 0.680879
O O4 0.726533 0.630063 0.663871
O O5 0.500000 0.949313 0.458790
O O6 0.714090 0.934258 0.396564
O O7 0.757804 0.892249 0.482554
O O8 0.749064 0.022027 0.455183
O O9 0.817603 0.873600 0.335236
O O10 0.000000 0.968623 0.367073
O O11 0.500000 0.592813 0.964570
O O12 0.263936 0.647629 0.927360
O O13 0.500000 0.336005 0.390836
O O14 0.276103 0.250000 0.372356
O O15 0.500000 0.189020 0.778825
O O16 0.254694 0.250000 0.806934
O O17 0.250000 0.143523 0.750000
#
# Coordination Sequence:
#
# PCOD8301318 Si02
#       6
#    16  16  16  16  16  16
#     4  11  23  38  58  84 117 154 197 249 298 352
#     4  11  21  35  58  85 116 150 186 231 286 343
#     4  11  21  35  57  86 117 150 191 242 292 344
#     4  11  21  36  59  87 115 146 189 236 284 340
#     4  10  22  41  62  84 116 159 201 244 298 357
#     4   9  19  35  54  77 108 147 188 229 278 336
#
# _framework density 19.003782999999999
#
# number of rings (size 3 to 8) (size 9 to 14) (size 15 to 20)
#    0.000    1.500    1.667    5.500    0.000    4.000 
#    0.000    0.833    0.000    3.000    0.000    0.000 
#    0.000    0.000    0.000    0.000    0.000    0.000 
#
# Total GULP energy -594805.864084 kJ/mol
# GULP energy per Si atom -12391.788835 kJ/mol
# Density = 1.896053 g / cm^3
# Si number density = 19.003783 Si / 1000 Ang^3
#
#
#
# Elastic Constant Matrix: (Units=GPa)
#
#
# Indices 1 2 3 4 5 6 
#
# 1 107.9052 44.9072 45.4844 0.0000 0.0000 0.0000
# 2 44.9072 85.8362 45.7605 0.0000 0.0000 0.0000
# 3 45.4844 45.7605 116.3102 0.0000 0.0000 0.0000
# 4 0.0000 0.0000 0.0000 14.0756 0.0000 0.0000
# 5 0.0000 0.0000 0.0000 0.0000 36.6713 0.0000
# 6 0.0000 0.0000 0.0000 0.0000 0.0000 22.1526
#
#
#
# Elastic Compliance Matrix: (Units=1/GPa)
#
#
# Indices 1 2 3 4 5 6 
#
# 1 0.012601 -0.005018 -0.002953 0.000000 0.000000 0.000000
# 2 -0.005018 0.016740 -0.004624 0.000000 0.000000 0.000000
# 3 -0.002953 -0.004624 0.011572 0.000000 0.000000 0.000000
# 4 0.000000 0.000000 0.000000 0.071045 0.000000 0.000000
# 5 0.000000 0.000000 0.000000 0.000000 0.027269 0.000000
# 6 0.000000 0.000000 0.000000 0.000000 0.000000 0.045141
#
#
# Mechanical properties :
#
#
# Convention : Reuss Voigt Hill
#
# Bulk Modulus (GPa) = 63.60320 64.70620 64.15470
# Shear Modulus (GPa) = 23.27749 26.17320 24.72534
#
# Velocity S-wave (km/s) = 3.50364 3.71517 3.61095
# Velocity P-wave (km/s) = 7.06461 7.24751 7.15664
#
# Compressibility (1/GPa) = 0.01572248
#
# Stress axis : x y z
#
# Youngs Moduli (GPa) = 79.36131 59.73580 86.41615
#
# Poissons Ratio (x) = 0.29974 0.25522
# Poissons Ratio (y) = 0.39822 0.39959
# Poissons Ratio (z) = 0.23439 0.27622
#
# Static dielectric constant tensor:
#      x y z
#    x 3.678210 0.000000 0.000000 
#    y 0.000000 3.535810 0.000000 
#    z 0.000000 0.000000 4.645940 
# 
# 
# High freq. dielectric constant tensor:
#      x y z
#    x 1.750450 0.000000 0.000000 
#    y 0.000000 1.722870 0.000000 
#    z 0.000000 0.000000 1.751490 
# 
# From -- ./inp_files/64347.got.cif
#   From: 2010.03.12/outbox.cif.g09.slc.cpg/sg74_33_cif.got.tgz:64347.got - 2010.04.16 15:46:19.
