data_PCOD8301162
_publ_section_title
;
Structure prediction by ZEFSAII (Michael W. Deem and Ramdas Pophale) SiO2 
 PCOD8301162
Probable space group: I M M A
;
_chemical_formula_sum "Si O2"
_cell_formula_units_Z 80
_cell_length_a 22.234991
_cell_length_b 15.229227
_cell_length_c 10.918030
_cell_angle_alpha 90.000000
_cell_angle_beta 90.000000
_cell_angle_gamma 90.000000
_cell_volume 3697.082155
_symmetry_space_group_name_H-M "I M M A"
_symmetry_group_IT_number 74
_symmetry_cell_setting 'orthorhombic'
loop_
_space_group_symop_operation_xyz
x,y,z
-x,1/2-y,z
x,-y,-z
-x,1/2+y,-z
-x,-y,-z
x,1/2+y,-z
-x,y,z
x,1/2-y,z
1/2+x,1/2+y,1/2+z
1/2-x,-y,1/2+z
1/2+x,1/2-y,1/2-z
1/2-x,y,1/2-z
1/2-x,1/2-y,1/2-z
1/2+x,y,1/2-z
1/2-x,1/2+y,1/2+z
1/2+x,-y,1/2+z
loop_
_atom_site_type_symbol
_atom_site_label
_atom_site_fract_x
_atom_site_fract_y
_atom_site_fract_z
Si Si1 0.680770 0.150459 0.763730
Si Si2 0.112287 0.504813 0.631660
Si Si3 0.288503 0.348791 0.135547
Si Si4 0.434509 0.564011 0.617857
Si Si5 0.177482 0.897071 0.001061
O O1 0.670932 0.250000 0.809974
O O2 0.750000 0.124490 0.750000
O O3 0.649534 0.085719 0.859372
O O4 0.651326 0.136005 0.630177
O O5 0.077068 0.500000 0.500000
O O6 0.156220 0.587263 0.617831
O O7 0.069415 0.515496 0.749898
O O8 0.313074 0.250000 0.153579
O O9 0.250000 0.383384 0.250000
O O10 0.240592 0.348194 0.023500
O O11 0.430831 0.500000 0.500000
O O12 0.500000 0.611874 0.615258
O O13 0.375584 0.626073 0.599676
O O14 0.191804 0.000000 0.000000
#
# Coordination Sequence:
#
# PCOD8301162 Si02
#       5
#    16  16  16  16  16
#     4  11  22  36  58  91 129 166 203 249 309 376
#     4  12  23  38  62  91 127 163 203 255 316 380
#     4  11  21  33  56  90 128 164 202 249 312 381
#     4  10  21  40  66  88 115 163 216 263 305 360
#     4  11  18  36  62  87 121 162 206 254 304 371
#
# _framework density 21.638686
#
# number of rings (size 3 to 8) (size 9 to 14) (size 15 to 20)
#    0.000    1.000    6.000    4.200    0.000    2.800 
#    0.000    0.000    0.000    7.200    0.000    2.800 
#    0.000    0.000    0.000    0.000    0.000    0.000 
#
# Total GULP energy -495630.735064 kJ/mol
# GULP energy per Si atom -12390.768377 kJ/mol
# Density = 2.158943 g / cm^3
# Si number density = 21.638686 Si / 1000 Ang^3
#
#
#
# Elastic Constant Matrix: (Units=GPa)
#
#
# Indices 1 2 3 4 5 6 
#
# 1 80.9553 20.7116 10.5097 0.0000 0.0000 0.0000
# 2 20.7116 82.7590 7.8702 0.0000 0.0000 0.0000
# 3 10.5097 7.8702 144.8862 0.0000 0.0000 0.0000
# 4 0.0000 0.0000 0.0000 12.6478 0.0000 0.0000
# 5 0.0000 0.0000 0.0000 0.0000 11.1254 0.0000
# 6 0.0000 0.0000 0.0000 0.0000 0.0000 0.2775
#
#
#
# Elastic Compliance Matrix: (Units=1/GPa)
#
#
# Indices 1 2 3 4 5 6 
#
# 1 0.013286 -0.003250 -0.000787 0.000000 0.000000 0.000000
# 2 -0.003250 0.012941 -0.000467 0.000000 0.000000 0.000000
# 3 -0.000787 -0.000467 0.006984 0.000000 0.000000 0.000000
# 4 0.000000 0.000000 0.000000 0.079065 0.000000 0.000000
# 5 0.000000 0.000000 0.000000 0.000000 0.089885 0.000000
# 6 0.000000 0.000000 0.000000 0.000000 0.000000 3.603345
#
#
# Mechanical properties :
#
#
# Convention : Reuss Voigt Hill
#
# Bulk Modulus (GPa) = 41.31792 42.97596 42.14694
# Shear Modulus (GPa) = 1.30802 22.77741 12.04271
#
# Velocity S-wave (km/s) = 0.77833 3.24794 2.36166
# Velocity P-wave (km/s) = 4.46583 5.82832 5.19196
#
# Compressibility (1/GPa) = 0.02420257
#
# Stress axis : x y z
#
# Youngs Moduli (GPa) = 75.26593 77.27307 143.17523
#
# Poissons Ratio (x) = 0.25115 0.11271
# Poissons Ratio (y) = 0.24463 0.06689
# Poissons Ratio (z) = 0.05925 0.03610
#
# Static dielectric constant tensor:
#      x y z
#    x 3.948960 0.000000 0.000000 
#    y 0.000000 3.596990 0.000000 
#    z 0.000000 0.000000 4.378170 
# 
# 
# High freq. dielectric constant tensor:
#      x y z
#    x 1.813520 0.000000 0.000000 
#    y 0.000000 1.819550 0.000000 
#    z 0.000000 0.000000 1.878320 
# 
# From -- ./inp_files/24884.got.cif
#   From: 2010.03.12/outbox.cif.g09.slc.cpg/sg74_13_cif.got.tgz:24884.got - 2010.04.16 15:46:19.
