data_PCOD8301608
_publ_section_title
;
Structure prediction by ZEFSAII (Michael W. Deem and Ramdas Pophale) SiO2 
 PCOD8301608
Probable space group: I M M A
;
_chemical_formula_sum "Si O2"
_cell_formula_units_Z 72
_cell_length_a 8.978133
_cell_length_b 12.164393
_cell_length_c 32.260351
_cell_angle_alpha 90.000000
_cell_angle_beta 90.000000
_cell_angle_gamma 90.000000
_cell_volume 3523.267077
_symmetry_space_group_name_H-M "I M M A"
_symmetry_group_IT_number 74
_symmetry_cell_setting 'orthorhombic'
loop_
_space_group_symop_operation_xyz
x,y,z
-x,1/2-y,z
x,-y,-z
-x,1/2+y,-z
-x,-y,-z
x,1/2+y,-z
-x,y,z
x,1/2-y,z
1/2+x,1/2+y,1/2+z
1/2-x,-y,1/2+z
1/2+x,1/2-y,1/2-z
1/2-x,y,1/2-z
1/2-x,1/2-y,1/2-z
1/2+x,y,1/2-z
1/2-x,1/2+y,1/2+z
1/2+x,-y,1/2+z
loop_
_atom_site_type_symbol
_atom_site_label
_atom_site_fract_x
_atom_site_fract_y
_atom_site_fract_z
Si Si1 0.172230 0.872376 0.605485
Si Si2 0.170750 0.081817 0.647798
Si Si3 0.674422 0.373939 0.476180
Si Si4 0.664145 0.375534 0.566504
Si Si5 0.676225 0.750000 0.294470
O O1 0.232567 0.750000 0.615948
O O2 0.256384 0.929952 0.566020
O O3 0.000000 0.869199 0.593375
O O4 0.196239 0.949314 0.646319
O O5 0.210857 0.121876 0.601767
O O6 0.274558 0.139770 0.681577
O O7 0.000000 0.112977 0.657567
O O8 0.500000 0.371238 0.469504
O O9 0.742507 0.250000 0.474802
O O10 0.708766 0.432100 0.521578
O O11 0.500000 0.418173 0.581793
O O12 0.644557 0.250000 0.552580
O O13 0.500000 0.750000 0.290096
O O14 0.750000 0.750000 0.250000
#
# Coordination Sequence:
#
# PCOD8301608 Si02
#       5
#    16  16  16  16   8
#     4   9  19  35  53  77 114 158 200 239 280 327
#     4  11  22  36  58  87 115 147 190 235 284 343
#     4   8  15  28  46  70 104 150 202 248 287 329
#     4   9  17  30  48  73 109 152 196 243 292 339
#     4  12  26  46  70  94 120 144 174 224 290 358
#
# _framework density 20.435578
#
# number of rings (size 3 to 8) (size 9 to 14) (size 15 to 20)
#    0.000    2.444    1.111    3.000    0.000    3.556 
#    0.000    6.667    0.000    0.667    0.000    0.000 
#    0.000    0.000    0.000    0.000    0.000    0.000 
#
# Total GULP energy -446145.990546 kJ/mol
# GULP energy per Si atom -12392.944182 kJ/mol
# Density = 2.038907 g / cm^3
# Si number density = 20.435578 Si / 1000 Ang^3
#
#
#
# Elastic Constant Matrix: (Units=GPa)
#
#
# Indices 1 2 3 4 5 6 
#
# 1 94.9215 35.1381 53.2381 0.0000 0.0000 0.0000
# 2 35.1381 95.7553 58.1350 0.0000 0.0000 0.0000
# 3 53.2381 58.1350 124.1917 0.0000 0.0000 0.0000
# 4 0.0000 0.0000 0.0000 21.3857 0.0000 0.0000
# 5 0.0000 0.0000 0.0000 0.0000 33.9129 0.0000
# 6 0.0000 0.0000 0.0000 0.0000 0.0000 21.7793
#
#
#
# Elastic Compliance Matrix: (Units=1/GPa)
#
#
# Indices 1 2 3 4 5 6 
#
# 1 0.014169 -0.002112 -0.005085 0.000000 0.000000 0.000000
# 2 -0.002112 0.014904 -0.006071 0.000000 0.000000 0.000000
# 3 -0.005085 -0.006071 0.013074 0.000000 0.000000 0.000000
# 4 0.000000 0.000000 0.000000 0.046760 0.000000 0.000000
# 5 0.000000 0.000000 0.000000 0.000000 0.029487 0.000000
# 6 0.000000 0.000000 0.000000 0.000000 0.000000 0.045915
#
#
# Mechanical properties :
#
#
# Convention : Reuss Voigt Hill
#
# Bulk Modulus (GPa) = 64.06168 67.54343 65.80256
# Shear Modulus (GPa) = 25.50357 26.63942 26.07150
#
# Velocity S-wave (km/s) = 3.53653 3.61443 3.57569
# Velocity P-wave (km/s) = 6.93486 7.10932 7.02263
#
# Compressibility (1/GPa) = 0.01560995
#
# Stress axis : x y z
#
# Youngs Moduli (GPa) = 70.57664 67.09413 76.48717
#
# Poissons Ratio (x) = 0.14171 0.38896
# Poissons Ratio (y) = 0.14906 0.46439
# Poissons Ratio (z) = 0.35890 0.40736
#
# Static dielectric constant tensor:
#      x y z
#    x 3.530160 0.000000 0.000000 
#    y 0.000000 4.720300 0.000000 
#    z 0.000000 0.000000 3.379620 
# 
# 
# High freq. dielectric constant tensor:
#      x y z
#    x 1.786160 0.000000 0.000000 
#    y 0.000000 1.846030 0.000000 
#    z 0.000000 0.000000 1.755880 
# 
# From -- ./inp_files/69946.got.cif
#   From: 2010.03.12/outbox.cif.g09.slc.cpg/sg74_35_cif.got.tgz:69946.got - 2010.04.16 15:46:19.
