data_PCOD8301831
_publ_section_title
;
Structure prediction by ZEFSAII (Michael W. Deem and Ramdas Pophale) SiO2 
 PCOD8301831
Probable space group: I M M A
;
_chemical_formula_sum "Si O2"
_cell_formula_units_Z 48
_cell_length_a 9.000000
_cell_length_b 24.000000
_cell_length_c 27.000000
_cell_angle_alpha 90.000000
_cell_angle_beta 90.000000
_cell_angle_gamma 90.000000
_cell_volume 5832.000000
_symmetry_space_group_name_H-M "I M M A"
_symmetry_group_IT_number 74
_symmetry_cell_setting 'orthorhombic'
loop_
_space_group_symop_operation_xyz
x,y,z
-x,1/2-y,z
x,-y,-z
-x,1/2+y,-z
-x,-y,-z
x,1/2+y,-z
-x,y,z
x,1/2-y,z
1/2+x,1/2+y,1/2+z
1/2-x,-y,1/2+z
1/2+x,1/2-y,1/2-z
1/2-x,y,1/2-z
1/2-x,1/2-y,1/2-z
1/2+x,y,1/2-z
1/2-x,1/2+y,1/2+z
1/2+x,-y,1/2+z
loop_
_atom_site_type_symbol
_atom_site_label
_atom_site_fract_x
_atom_site_fract_y
_atom_site_fract_z
Si Si1 0.181667 0.250000 0.511267
Si Si2 0.322159 0.250000 0.401205
Si Si3 0.323398 0.536208 0.803186
Si Si4 0.825252 0.538095 0.396760
Si Si5 0.166974 0.357403 0.363049
Si Si6 0.822098 0.867577 0.044237
Si Si7 0.665687 0.931728 0.959628
O O1 0.239055 0.250000 0.454416
O O2 0.243298 0.306281 0.538792
O O3 0.000000 0.250000 0.511897
O O4 0.500000 0.250000 0.409457
O O5 0.275887 0.304382 0.369111
O O6 0.500000 0.533679 0.797680
O O7 0.250000 0.522740 0.750000
O O8 0.273029 0.489813 0.844363
O O9 0.276486 0.598866 0.820886
O O10 0.738767 0.596624 0.408152
O O11 0.792105 0.494365 0.441785
O O12 0.000000 0.550969 0.393988
O O13 0.162433 0.391354 0.413317
O O14 0.000000 0.336107 0.350517
O O15 0.000000 0.859037 0.048525
O O16 0.785519 0.906397 0.997170
O O17 0.500000 0.932170 0.983979
#
# Coordination Sequence:
#
# PCOD8301831 Si02
#       7
#     8   8  16  16  16  16  16
#     4  12  24  38  54  69 100 151 186 210 251 311
#     4  12  22  32  49  77 104 133 178 228 264 299
#     4   9  19  36  58  81 103 132 173 219 268 318
#     4   9  19  35  53  75 103 140 178 207 253 322
#     4   9  18  33  52  72  99 142 182 212 257 317
#     4  12  23  33  48  77 109 135 173 221 261 296
#     4   9  17  31  51  71  99 142 180 207 247 309
#
# _framework density 8.2304530000000007
#
# number of rings (size 3 to 8) (size 9 to 14) (size 15 to 20)
#    0.000    2.000    1.667    5.500    0.000    4.000 
#    0.000    3.750    0.000    0.000    0.000    0.583 
#    0.000    0.000    0.000    0.000    0.000    0.000 
#
# Total GULP energy -594838.870108 kJ/mol
# GULP energy per Si atom -12392.476461 kJ/mol
# Density = 0.821172 g / cm^3
# Si number density = 8.230453 Si / 1000 Ang^3
#
#
#
# Elastic Constant Matrix: (Units=GPa)
#
#
# Indices 1 2 3 4 5 6 
#
# 1 112.0672 51.8997 33.3795 0.0000 0.0000 0.0000
# 2 51.8997 136.4005 47.0127 0.0000 0.0000 0.0000
# 3 33.3795 47.0127 86.6719 0.0000 0.0000 0.0000
# 4 0.0000 0.0000 0.0000 23.3249 0.0000 0.0000
# 5 0.0000 0.0000 0.0000 0.0000 28.9589 0.0000
# 6 0.0000 0.0000 0.0000 0.0000 0.0000 30.7205
#
#
#
# Elastic Compliance Matrix: (Units=1/GPa)
#
#
# Indices 1 2 3 4 5 6 
#
# 1 0.011247 -0.003427 -0.002472 0.000000 0.000000 0.000000
# 2 -0.003427 0.010061 -0.004138 0.000000 0.000000 0.000000
# 3 -0.002472 -0.004138 0.014734 0.000000 0.000000 0.000000
# 4 0.000000 0.000000 0.000000 0.042873 0.000000 0.000000
# 5 0.000000 0.000000 0.000000 0.000000 0.034532 0.000000
# 6 0.000000 0.000000 0.000000 0.000000 0.000000 0.032552
#
#
# Mechanical properties :
#
#
# Convention : Reuss Voigt Hill
#
# Bulk Modulus (GPa) = 62.62518 66.63594 64.63056
# Shear Modulus (GPa) = 29.17224 30.12404 29.64814
#
# Velocity S-wave (km/s) = 4.21433 4.28253 4.24857
# Velocity P-wave (km/s) = 7.86182 8.06366 7.96338
#
# Compressibility (1/GPa) = 0.01596802
#
# Stress axis : x y z
#
# Youngs Moduli (GPa) = 88.91405 99.38877 67.86871
#
# Poissons Ratio (x) = 0.34062 0.16780
# Poissons Ratio (y) = 0.30473 0.28082
# Poissons Ratio (z) = 0.21984 0.41124
#
# Static dielectric constant tensor:
#      x y z
#    x 3.220780 0.000000 0.000000 
#    y 0.000000 3.573080 0.000000 
#    z 0.000000 0.000000 3.140310 
# 
# 
# High freq. dielectric constant tensor:
#      x y z
#    x 1.641260 0.000000 0.000000 
#    y 0.000000 1.654200 0.000000 
#    z 0.000000 0.000000 1.616620 
# 
# From -- ./inp_files/64716.got.cif
#   From: 2010.03.12/outbox.ucp.g09.slc.cvg/sg74_33_cif.got.tgz:64716.got - 2010.05.04 20:08:06.
