data_PCOD8301818
_publ_section_title
;
Structure prediction by ZEFSAII (Michael W. Deem and Ramdas Pophale) SiO2 
 PCOD8301818
Probable space group: I M M A
;
_chemical_formula_sum "Si O2"
_cell_formula_units_Z 48
_cell_length_a 21.000000
_cell_length_b 21.000000
_cell_length_c 12.000000
_cell_angle_alpha 90.000000
_cell_angle_beta 90.000000
_cell_angle_gamma 90.000000
_cell_volume 5292.000000
_symmetry_space_group_name_H-M "I M M A"
_symmetry_group_IT_number 74
_symmetry_cell_setting 'orthorhombic'
loop_
_space_group_symop_operation_xyz
x,y,z
-x,1/2-y,z
x,-y,-z
-x,1/2+y,-z
-x,-y,-z
x,1/2+y,-z
-x,y,z
x,1/2-y,z
1/2+x,1/2+y,1/2+z
1/2-x,-y,1/2+z
1/2+x,1/2-y,1/2-z
1/2-x,y,1/2-z
1/2-x,1/2-y,1/2-z
1/2+x,y,1/2-z
1/2-x,1/2+y,1/2+z
1/2+x,-y,1/2+z
loop_
_atom_site_type_symbol
_atom_site_label
_atom_site_fract_x
_atom_site_fract_y
_atom_site_fract_z
Si Si1 0.368592 0.176561 0.039477
Si Si2 0.924896 0.442314 0.581936
Si Si3 0.075393 0.533555 0.159616
Si Si4 0.733756 0.822250 0.622851
Si Si5 0.069752 0.320032 0.236701
Si Si6 0.616760 0.905227 0.555903
O O1 0.392512 0.250000 0.016299
O O2 0.292705 0.174448 0.038294
O O3 0.387283 0.152764 0.163698
O O4 0.395173 0.126033 0.950645
O O5 0.900973 0.500000 0.500000
O O6 0.905868 0.453806 0.711479
O O7 0.000000 0.436025 0.569582
O O8 0.115583 0.473799 0.115416
O O9 0.000000 0.520722 0.148507
O O10 0.095609 0.590944 0.074721
O O11 0.706337 0.750000 0.623187
O O12 0.750000 0.841794 0.750000
O O13 0.685328 0.872763 0.569797
O O14 0.094440 0.250000 0.203755
O O15 0.068072 0.361847 0.125517
O O16 0.000000 0.317937 0.288607
#
# Coordination Sequence:
#
# PCOD8301818 Si02
#       6
#    16  16  16  16  16  16
#     4  10  20  36  57  82 112 149 190 236 287 334
#     4  10  21  38  59  84 114 150 191 240 294 345
#     4  10  22  38  56  82 116 150 185 232 292 345
#     4  10  20  36  57  83 115 149 186 234 285 332
#     4  10  18  28  51  84 109 135 182 236 282 334
#     4  11  19  35  56  80 110 150 184 227 283 345
#
# _framework density 9.0702949999999998
#
# number of rings (size 3 to 8) (size 9 to 14) (size 15 to 20)
#    0.000    1.833    1.667    4.000    0.000    2.333 
#    3.000    2.500    0.000    4.000    0.000    0.000 
#    0.000    0.000    0.000    0.000    0.000    0.000 
#
# Total GULP energy -594747.685663 kJ/mol
# GULP energy per Si atom -12390.576785 kJ/mol
# Density = 0.904965 g / cm^3
# Si number density = 9.070295 Si / 1000 Ang^3
#
#
#
# Elastic Constant Matrix: (Units=GPa)
#
#
# Indices 1 2 3 4 5 6 
#
# 1 80.1885 36.4066 35.5567 0.0000 0.0000 0.0000
# 2 36.4066 106.6408 68.3622 0.0000 0.0000 0.0000
# 3 35.5567 68.3622 152.3179 0.0000 0.0000 0.0000
# 4 0.0000 0.0000 0.0000 38.0829 0.0000 0.0000
# 5 0.0000 0.0000 0.0000 0.0000 27.6752 0.0000
# 6 0.0000 0.0000 0.0000 0.0000 0.0000 35.4152
#
#
#
# Elastic Compliance Matrix: (Units=1/GPa)
#
#
# Indices 1 2 3 4 5 6 
#
# 1 0.015064 -0.004055 -0.001696 0.000000 0.000000 0.000000
# 2 -0.004055 0.014257 -0.005452 0.000000 0.000000 0.000000
# 3 -0.001696 -0.005452 0.009408 0.000000 0.000000 0.000000
# 4 0.000000 0.000000 0.000000 0.026259 0.000000 0.000000
# 5 0.000000 0.000000 0.000000 0.000000 0.036133 0.000000
# 6 0.000000 0.000000 0.000000 0.000000 0.000000 0.028236
#
#
# Mechanical properties :
#
#
# Convention : Reuss Voigt Hill
#
# Bulk Modulus (GPa) = 61.26877 68.86646 65.06762
# Shear Modulus (GPa) = 31.80561 33.48944 32.64752
#
# Velocity S-wave (km/s) = 4.19177 4.30129 4.24688
# Velocity P-wave (km/s) = 7.56806 7.91917 7.74561
#
# Compressibility (1/GPa) = 0.01632153
#
# Stress axis : x y z
#
# Youngs Moduli (GPa) = 66.38352 70.14254 106.29110
#
# Poissons Ratio (x) = 0.28445 0.18032
# Poissons Ratio (y) = 0.26920 0.57949
# Poissons Ratio (z) = 0.11262 0.38241
#
# Static dielectric constant tensor:
#      x y z
#    x 3.285120 0.000000 0.000000 
#    y 0.000000 3.512240 0.000000 
#    z 0.000000 0.000000 3.504850 
# 
# 
# High freq. dielectric constant tensor:
#      x y z
#    x 1.699690 0.000000 0.000000 
#    y 0.000000 1.707140 0.000000 
#    z 0.000000 0.000000 1.696460 
# 
# From -- ./inp_files/23946.got.cif
#   From: 2010.03.12/outbox.ucp.g09.slc.cvg/sg74_12_cif.got.tgz:23946.got - 2010.05.04 20:08:06.
