data_PCOD8301175
_publ_section_title
;
Structure prediction by ZEFSAII (Michael W. Deem and Ramdas Pophale) SiO2 
 PCOD8301175
Probable space group: I M M A
;
_chemical_formula_sum "Si O2"
_cell_formula_units_Z 112
_cell_length_a 21.957907
_cell_length_b 14.844304
_cell_length_c 15.168118
_cell_angle_alpha 90.000000
_cell_angle_beta 90.000000
_cell_angle_gamma 90.000000
_cell_volume 4944.045737
_symmetry_space_group_name_H-M "I M M A"
_symmetry_group_IT_number 74
_symmetry_cell_setting 'orthorhombic'
loop_
_space_group_symop_operation_xyz
x,y,z
-x,1/2-y,z
x,-y,-z
-x,1/2+y,-z
-x,-y,-z
x,1/2+y,-z
-x,y,z
x,1/2-y,z
1/2+x,1/2+y,1/2+z
1/2-x,-y,1/2+z
1/2+x,1/2-y,1/2-z
1/2-x,y,1/2-z
1/2-x,1/2-y,1/2-z
1/2+x,y,1/2-z
1/2-x,1/2+y,1/2+z
1/2+x,-y,1/2+z
loop_
_atom_site_type_symbol
_atom_site_label
_atom_site_fract_x
_atom_site_fract_y
_atom_site_fract_z
Si Si1 0.932674 0.645110 0.057142
Si Si2 0.664661 0.851783 0.101365
Si Si3 0.639291 0.348438 0.092629
Si Si4 0.066900 0.887645 0.747455
Si Si5 0.238160 0.981823 0.649057
Si Si6 0.930886 0.599268 0.251373
Si Si7 0.345560 0.646915 0.595809
O O1 0.938701 0.750000 0.040517
O O2 0.906553 0.626049 0.154493
O O3 0.000000 0.600177 0.047205
O O4 0.886918 0.607224 0.983340
O O5 0.691216 0.750000 0.102535
O O6 0.615233 0.859117 0.178413
O O7 0.722088 0.920763 0.106089
O O8 0.629369 0.873336 0.009795
O O9 0.670305 0.250000 0.098132
O O10 0.576838 0.348619 0.148584
O O11 0.679168 0.420477 0.144258
O O12 0.116042 0.848109 0.814652
O O13 0.000000 0.857121 0.779378
O O14 0.071111 0.993732 0.741305
O O15 0.250000 0.002556 0.750000
O O16 0.291878 0.926713 0.601688
O O17 0.000000 0.636380 0.266123
O O18 0.321788 0.750000 0.577686
#
# Coordination Sequence:
#
# PCOD8301175 Si02
#       7
#    16  16  16  16  16  16  16
#     4   9  19  38  65  99 137 175 222 280 338 403
#     4  11  25  46  70  99 136 177 226 283 339 397
#     4  11  24  44  69  98 136 178 222 274 333 397
#     4  11  23  40  66 103 140 177 222 275 339 407
#     4  12  24  45  69  95 132 180 227 281 335 393
#     4  10  21  41  69 101 137 181 226 275 342 410
#     4  11  23  41  67  98 137 184 229 277 338 403
#
# _framework density 22.653511999999999
#
# number of rings (size 3 to 8) (size 9 to 14) (size 15 to 20)
#    0.000    1.286    2.857    2.143    0.000    4.571 
#   10.286    5.000    0.000    0.000    0.000    0.000 
#    0.000    1.714    0.000    0.000    0.000    0.000 
#
# Total GULP energy -694205.099897 kJ/mol
# GULP energy per Si atom -12396.519641 kJ/mol
# Density = 2.260195 g / cm^3
# Si number density = 22.653512 Si / 1000 Ang^3
#
#
#
# Elastic Constant Matrix: (Units=GPa)
#
#
# Indices 1 2 3 4 5 6 
#
# 1 106.0909 44.6720 55.9112 0.0000 0.0000 0.0000
# 2 44.6720 113.9927 25.1134 0.0000 0.0000 0.0000
# 3 55.9112 25.1134 143.0278 0.0000 0.0000 0.0000
# 4 0.0000 0.0000 0.0000 30.8288 0.0000 0.0000
# 5 0.0000 0.0000 0.0000 0.0000 45.6961 0.0000
# 6 0.0000 0.0000 0.0000 0.0000 0.0000 18.4161
#
#
#
# Elastic Compliance Matrix: (Units=1/GPa)
#
#
# Indices 1 2 3 4 5 6 
#
# 1 0.013671 -0.004348 -0.004581 0.000000 0.000000 0.000000
# 2 -0.004348 0.010509 -0.000145 0.000000 0.000000 0.000000
# 3 -0.004581 -0.000145 0.008808 0.000000 0.000000 0.000000
# 4 0.000000 0.000000 0.000000 0.032437 0.000000 0.000000
# 5 0.000000 0.000000 0.000000 0.000000 0.021884 0.000000
# 6 0.000000 0.000000 0.000000 0.000000 0.000000 0.054300
#
#
# Mechanical properties :
#
#
# Convention : Reuss Voigt Hill
#
# Bulk Modulus (GPa) = 67.39119 68.27829 67.83474
# Shear Modulus (GPa) = 30.35768 34.81585 32.58677
#
# Velocity S-wave (km/s) = 3.66469 3.92457 3.79685
# Velocity P-wave (km/s) = 6.90796 7.12334 7.01648
#
# Compressibility (1/GPa) = 0.01483873
#
# Stress axis : x y z
#
# Youngs Moduli (GPa) = 73.14835 95.16085 113.53601
#
# Poissons Ratio (x) = 0.41378 0.52006
# Poissons Ratio (y) = 0.31807 0.01650
# Poissons Ratio (z) = 0.33506 0.01383
#
# Static dielectric constant tensor:
#      x y z
#    x 4.167170 0.000000 0.000000 
#    y 0.000000 4.183140 0.000000 
#    z 0.000000 0.000000 4.273570 
# 
# 
# High freq. dielectric constant tensor:
#      x y z
#    x 1.876150 0.000000 0.000000 
#    y 0.000000 1.905600 0.000000 
#    z 0.000000 0.000000 1.904420 
# 
# From -- ./inp_files/36549.got.cif
#   From: 2010.03.12/outbox.cif.g09.slc.cpg/sg74_19_cif.got.tgz:36549.got - 2010.04.16 15:46:19.
