data_PCOD8301375
_publ_section_title
;
Structure prediction by ZEFSAII (Michael W. Deem and Ramdas Pophale) SiO2 
 PCOD8301375
Probable space group: I M M A
;
_chemical_formula_sum "Si O2"
_cell_formula_units_Z 72
_cell_length_a 12.361374
_cell_length_b 18.540624
_cell_length_c 14.121644
_cell_angle_alpha 90.000000
_cell_angle_beta 90.000000
_cell_angle_gamma 90.000000
_cell_volume 3236.505519
_symmetry_space_group_name_H-M "I M M A"
_symmetry_group_IT_number 74
_symmetry_cell_setting 'orthorhombic'
loop_
_space_group_symop_operation_xyz
x,y,z
-x,1/2-y,z
x,-y,-z
-x,1/2+y,-z
-x,-y,-z
x,1/2+y,-z
-x,y,z
x,1/2-y,z
1/2+x,1/2+y,1/2+z
1/2-x,-y,1/2+z
1/2+x,1/2-y,1/2-z
1/2-x,y,1/2-z
1/2-x,1/2-y,1/2-z
1/2+x,y,1/2-z
1/2-x,1/2+y,1/2+z
1/2+x,-y,1/2+z
loop_
_atom_site_type_symbol
_atom_site_label
_atom_site_fract_x
_atom_site_fract_y
_atom_site_fract_z
Si Si1 0.628873 0.168693 0.107223
Si Si2 0.616851 0.165738 0.904329
Si Si3 0.250000 0.431368 0.250000
Si Si4 0.371364 0.169644 0.697775
Si Si5 0.372982 0.526224 0.399376
O O1 0.500000 0.165598 0.106481
O O2 0.669381 0.250000 0.127907
O O3 0.671745 0.117534 0.188324
O O4 0.672852 0.141026 0.003289
O O5 0.500000 0.126349 0.896342
O O6 0.596289 0.250000 0.914912
O O7 0.682163 0.151660 0.804332
O O8 0.323402 0.480442 0.315434
O O9 0.500000 0.169859 0.717464
O O10 0.336218 0.250000 0.662058
O O11 0.343371 0.110655 0.617506
O O12 0.325507 0.500000 0.500000
O O13 0.500000 0.513182 0.396473
#
# Coordination Sequence:
#
# PCOD8301375 Si02
#       5
#    16  16   8  16  16
#     4   9  18  34  56  83 116 152 193 245 297 344
#     4   7  11  23  48  81 109 131 166 224 283 326
#     4  12  23  36  57  82 110 154 204 240 287 360
#     4   8  14  30  58  84 105 139 186 229 277 343
#     4  10  23  42  59  81 120 159 190 239 301 350
#
# _framework density 22.246216
#
# number of rings (size 3 to 8) (size 9 to 14) (size 15 to 20)
#    0.000    3.111    0.000    3.667    0.000    1.778 
#    0.000    2.778    0.000   12.000    0.000    0.000 
#    0.000    0.000    0.000    0.000    0.000    0.000 
#
# Total GULP energy -446065.584350 kJ/mol
# GULP energy per Si atom -12390.710676 kJ/mol
# Density = 2.219558 g / cm^3
# Si number density = 22.246216 Si / 1000 Ang^3
#
#
#
# Elastic Constant Matrix: (Units=GPa)
#
#
# Indices 1 2 3 4 5 6 
#
# 1 47.6867 31.4395 44.0139 -0.0001 0.0000 0.0000
# 2 31.4395 141.8919 100.6227 -0.0012 0.0001 0.0001
# 3 44.0139 100.6227 204.9561 -0.0016 0.0003 0.0003
# 4 -0.0001 -0.0012 -0.0016 34.8902 0.0002 0.0003
# 5 0.0000 0.0001 0.0003 0.0002 33.4408 0.0000
# 6 0.0000 0.0001 0.0003 0.0003 0.0000 34.9069
#
#
#
# Elastic Compliance Matrix: (Units=1/GPa)
#
#
# Indices 1 2 3 4 5 6 
#
# 1 0.026889 -0.002858 -0.004371 0.000000 0.000000 0.000000
# 2 -0.002858 0.011116 -0.004843 0.000000 0.000000 0.000000
# 3 -0.004371 -0.004843 0.008196 0.000000 0.000000 0.000000
# 4 0.000000 0.000000 0.000000 0.028661 0.000000 0.000000
# 5 0.000000 0.000000 0.000000 0.000000 0.029904 0.000000
# 6 0.000000 0.000000 0.000000 0.000000 0.000000 0.028648
#
#
# Mechanical properties :
#
#
# Convention : Reuss Voigt Hill
#
# Bulk Modulus (GPa) = 45.34129 82.96522 64.15326
# Shear Modulus (GPa) = 30.31958 35.21149 32.76554
#
# Velocity S-wave (km/s) = 3.69577 3.98277 3.84195
# Velocity P-wave (km/s) = 6.21590 7.65016 6.97002
#
# Compressibility (1/GPa) = 0.02205495
#
# Stress axis : x y z
#
# Youngs Moduli (GPa) = 37.18985 89.96363 122.01569
#
# Poissons Ratio (x) = 0.25712 0.53336
# Poissons Ratio (y) = 0.10629 0.59097
# Poissons Ratio (z) = 0.16256 0.43573
#
# Static dielectric constant tensor:
#      x y z
#    x 4.127560 0.000000 0.000000 
#    y 0.000000 3.880440 0.000000 
#    z 0.000000 0.000000 4.738250 
# 
# 
# High freq. dielectric constant tensor:
#      x y z
#    x 1.895930 0.000000 0.000000 
#    y 0.000000 1.852920 0.000000 
#    z 0.000000 0.000000 1.887680 
# 
# From -- ./inp_files/41086.got.cif
#   From: 2010.03.12/outbox.cif.g09.slc.cpg/sg74_21_cif.got.tgz:41086.got - 2010.04.16 15:46:19.
