data_PCOD8301252
_publ_section_title
;
Structure prediction by ZEFSAII (Michael W. Deem and Ramdas Pophale) SiO2 
 PCOD8301252
Probable space group: I M M A
;
_chemical_formula_sum "Si O2"
_cell_formula_units_Z 96
_cell_length_a 16.762117
_cell_length_b 14.236290
_cell_length_c 20.724650
_cell_angle_alpha 90.000000
_cell_angle_beta 90.000000
_cell_angle_gamma 90.000000
_cell_volume 4945.530662
_symmetry_space_group_name_H-M "I M M A"
_symmetry_group_IT_number 74
_symmetry_cell_setting 'orthorhombic'
loop_
_space_group_symop_operation_xyz
x,y,z
-x,1/2-y,z
x,-y,-z
-x,1/2+y,-z
-x,-y,-z
x,1/2+y,-z
-x,y,z
x,1/2-y,z
1/2+x,1/2+y,1/2+z
1/2-x,-y,1/2+z
1/2+x,1/2-y,1/2-z
1/2-x,y,1/2-z
1/2-x,1/2-y,1/2-z
1/2+x,y,1/2-z
1/2-x,1/2+y,1/2+z
1/2+x,-y,1/2+z
loop_
_atom_site_type_symbol
_atom_site_label
_atom_site_fract_x
_atom_site_fract_y
_atom_site_fract_z
Si Si1 0.500000 0.137641 0.356292
Si Si2 0.363112 0.142885 0.592293
Si Si3 0.500000 0.360592 0.500459
Si Si4 0.682766 0.143233 0.933361
Si Si5 0.355087 0.518428 0.689840
Si Si6 0.675075 0.018713 0.162728
Si Si7 0.409280 0.860742 0.939687
O O1 0.500000 0.250000 0.350200
O O2 0.500000 0.097862 0.428988
O O3 0.580511 0.098887 0.324197
O O4 0.382724 0.250000 0.612689
O O5 0.422397 0.103717 0.538032
O O6 0.277505 0.136192 0.558318
O O7 0.374781 0.080921 0.656332
O O8 0.500000 0.250000 0.494588
O O9 0.655466 0.250000 0.918732
O O10 0.657898 0.079384 0.873243
O O11 0.641439 0.104793 0.998448
O O12 0.357821 0.502503 0.766033
O O13 0.267852 0.549960 0.664782
O O14 0.627337 0.099867 0.126246
O O15 0.500000 0.895676 0.948176
O O16 0.404775 0.750000 0.933467
#
# Coordination Sequence:
#
# PCOD8301252 Si02
#       7
#     8  16   8  16  16  16  16
#     4  11  25  41  58  82 116 153 194 238 277 328
#     4   9  18  35  60  88 118 148 182 228 282 343
#     4   9  19  35  57  84 113 147 186 230 278 324
#     4   9  19  36  60  88 115 146 184 231 289 344
#     4  10  23  39  56  85 117 152 192 227 279 341
#     4  10  22  39  58  84 117 149 189 236 280 335
#     4  10  22  39  60  84 111 147 194 242 288 332
#
# _framework density 19.411466000000001
#
# number of rings (size 3 to 8) (size 9 to 14) (size 15 to 20)
#    0.000    2.333    0.000    1.000    3.500    4.667 
#    0.000    5.000    0.000    0.000    0.000    0.000 
#    0.000    0.000    0.000    0.000    0.000    0.000 
#
# Total GULP energy -595217.888238 kJ/mol
# GULP energy per Si atom -12400.372672 kJ/mol
# Density = 1.936728 g / cm^3
# Si number density = 19.411466 Si / 1000 Ang^3
#
#
#
# Elastic Constant Matrix: (Units=GPa)
#
#
# Indices 1 2 3 4 5 6 
#
# 1 109.6797 49.8323 67.7320 0.0000 0.0000 0.0000
# 2 49.8323 74.6633 44.2107 0.0000 0.0000 0.0000
# 3 67.7320 44.2107 143.8579 0.0000 0.0000 0.0000
# 4 0.0000 0.0000 0.0000 30.2511 0.0000 0.0000
# 5 0.0000 0.0000 0.0000 0.0000 30.8514 0.0000
# 6 0.0000 0.0000 0.0000 0.0000 0.0000 28.9648
#
#
#
# Elastic Compliance Matrix: (Units=1/GPa)
#
#
# Indices 1 2 3 4 5 6 
#
# 1 0.015624 -0.007423 -0.005075 0.000000 0.000000 0.000000
# 2 -0.007423 0.019899 -0.002621 0.000000 0.000000 0.000000
# 3 -0.005075 -0.002621 0.010146 0.000000 0.000000 0.000000
# 4 0.000000 0.000000 0.000000 0.033057 0.000000 0.000000
# 5 0.000000 0.000000 0.000000 0.000000 0.032413 0.000000
# 6 0.000000 0.000000 0.000000 0.000000 0.000000 0.034525
#
#
# Mechanical properties :
#
#
# Convention : Reuss Voigt Hill
#
# Bulk Modulus (GPa) = 64.79784 72.41676 68.60730
# Shear Modulus (GPa) = 27.61737 29.10852 28.36295
#
# Velocity S-wave (km/s) = 3.77601 3.87661 3.82664
# Velocity P-wave (km/s) = 7.24325 7.57790 7.41247
#
# Compressibility (1/GPa) = 0.01543261
#
# Stress axis : x y z
#
# Youngs Moduli (GPa) = 64.00416 50.25268 98.55967
#
# Poissons Ratio (x) = 0.37302 0.50019
# Poissons Ratio (y) = 0.47509 0.25829
# Poissons Ratio (z) = 0.32482 0.13170
#
# Static dielectric constant tensor:
#      x y z
#    x 3.726410 0.000000 0.000000 
#    y 0.000000 3.502930 0.000000 
#    z 0.000000 0.000000 3.607620 
# 
# 
# High freq. dielectric constant tensor:
#      x y z
#    x 1.763120 0.000000 0.000000 
#    y 0.000000 1.757350 0.000000 
#    z 0.000000 0.000000 1.754640 
# 
# From -- ./inp_files/51946.got.cif
#   From: 2010.03.12/outbox.cif.g09.slc.cpg/sg74_26_cif.got.tgz:51946.got - 2010.04.16 15:46:19.
