data_PCOD8301827
_publ_section_title
;
Structure prediction by ZEFSAII (Michael W. Deem and Ramdas Pophale) SiO2 
 PCOD8301827
Probable space group: I M M A
;
_chemical_formula_sum "Si O2"
_cell_formula_units_Z 32
_cell_length_a 9.000000
_cell_length_b 27.000000
_cell_length_c 15.000000
_cell_angle_alpha 90.000000
_cell_angle_beta 90.000000
_cell_angle_gamma 90.000000
_cell_volume 3645.000000
_symmetry_space_group_name_H-M "I M M A"
_symmetry_group_IT_number 74
_symmetry_cell_setting 'orthorhombic'
loop_
_space_group_symop_operation_xyz
x,y,z
-x,1/2-y,z
x,-y,-z
-x,1/2+y,-z
-x,-y,-z
x,1/2+y,-z
-x,y,z
x,1/2-y,z
1/2+x,1/2+y,1/2+z
1/2-x,-y,1/2+z
1/2+x,1/2-y,1/2-z
1/2-x,y,1/2-z
1/2-x,1/2-y,1/2-z
1/2+x,y,1/2-z
1/2-x,1/2+y,1/2+z
1/2+x,-y,1/2+z
loop_
_atom_site_type_symbol
_atom_site_label
_atom_site_fract_x
_atom_site_fract_y
_atom_site_fract_z
Si Si1 0.672390 0.500879 0.847027
Si Si2 0.325908 0.923630 0.001363
Si Si3 0.326966 0.750000 0.651981
Si Si4 0.180018 0.250000 0.649466
Si Si5 0.824657 0.679673 0.007851
O O1 0.500000 0.501575 0.824706
O O2 0.750000 0.501243 0.750000
O O3 0.712169 0.453264 0.907691
O O4 0.714328 0.547364 0.910051
O O5 0.500000 0.909421 0.000712
O O6 0.219119 0.877012 0.002059
O O7 0.500000 0.750000 0.674378
O O8 0.250000 0.750000 0.750000
O O9 0.283182 0.796698 0.588868
O O10 0.250000 0.250000 0.750000
O O11 0.235927 0.202864 0.591904
O O12 0.000000 0.250000 0.656709
O O13 0.000000 0.686504 0.026108
#
# Coordination Sequence:
#
# PCOD8301827 Si02
#       5
#    16  16   8   8  16
#     4   9  19  35  54  76 105 138 177 220 263 313
#     4   9  19  36  54  75 105 142 177 214 264 320
#     4   9  20  36  53  75 105 137 173 215 260 310
#     4  11  22  38  59  81 107 141 177 217 264 316
#     4  10  21  37  55  80 110 139 176 222 265 314
#
# _framework density 8.7791499999999996
#
# number of rings (size 3 to 8) (size 9 to 14) (size 15 to 20)
#    0.000    2.500    0.000    4.125    0.000    7.000 
#    0.000   10.000    0.000    0.000    0.000    0.000 
#    0.000    0.000    0.000    0.000    0.000    0.000 
#
# Total GULP energy -396481.164824 kJ/mol
# GULP energy per Si atom -12390.036401 kJ/mol
# Density = 0.875917 g / cm^3
# Si number density = 8.779150 Si / 1000 Ang^3
#
#
#
# Elastic Constant Matrix: (Units=GPa)
#
#
# Indices 1 2 3 4 5 6 
#
# 1 102.9007 50.3627 69.9719 0.0000 0.0000 0.0000
# 2 50.3627 123.0708 62.7214 0.0001 0.0000 0.0000
# 3 69.9719 62.7214 212.2270 0.0005 -0.0001 0.0000
# 4 0.0000 0.0001 0.0005 21.4861 0.0000 0.0000
# 5 0.0000 0.0000 -0.0001 0.0000 46.7646 0.0000
# 6 0.0000 0.0000 0.0000 0.0000 0.0000 32.0514
#
#
#
# Elastic Compliance Matrix: (Units=1/GPa)
#
#
# Indices 1 2 3 4 5 6 
#
# 1 0.014005 -0.003977 -0.003442 0.000000 0.000000 0.000000
# 2 -0.003977 0.010696 -0.001850 0.000000 0.000000 0.000000
# 3 -0.003442 -0.001850 0.006394 0.000000 0.000000 0.000000
# 4 0.000000 0.000000 0.000000 0.046542 0.000000 0.000000
# 5 0.000000 0.000000 0.000000 0.000000 0.021384 0.000000
# 6 0.000000 0.000000 0.000000 0.000000 0.000000 0.031200
#
#
# Mechanical properties :
#
#
# Convention : Reuss Voigt Hill
#
# Bulk Modulus (GPa) = 79.64000 89.36785 84.50392
# Shear Modulus (GPa) = 32.69195 37.06992 34.88094
#
# Velocity S-wave (km/s) = 4.31967 4.59982 4.46194
# Velocity P-wave (km/s) = 8.38661 8.90053 8.64739
#
# Compressibility (1/GPa) = 0.01255650
#
# Stress axis : x y z
#
# Youngs Moduli (GPa) = 71.40191 93.49709 156.40822
#
# Poissons Ratio (x) = 0.37183 0.53839
# Poissons Ratio (y) = 0.28396 0.28932
# Poissons Ratio (z) = 0.24578 0.17295
#
# Static dielectric constant tensor:
#      x y z
#    x 3.305880 0.000000 0.000000 
#    y 0.000000 3.258560 0.000000 
#    z 0.000000 0.000000 3.648920 
# 
# 
# High freq. dielectric constant tensor:
#      x y z
#    x 1.688140 0.000000 0.000000 
#    y 0.000000 1.681030 0.000000 
#    z 0.000000 0.000000 1.711170 
# 
# From -- ./inp_files/29082.got.cif
#   From: 2010.03.12/outbox.ucp.g09.slc.cvg/sg74_15_cif.got.tgz:29082.got - 2010.05.04 20:08:06.
