data_PCOD8301055
_publ_section_title
;
Structure prediction by ZEFSAII (Michael W. Deem and Ramdas Pophale) SiO2 
 PCOD8301055
Probable space group: I M M A
;
_chemical_formula_sum "Si O2"
_cell_formula_units_Z 96
_cell_length_a 8.618515
_cell_length_b 24.779555
_cell_length_c 23.585293
_cell_angle_alpha 90.000000
_cell_angle_beta 90.000000
_cell_angle_gamma 90.000000
_cell_volume 5036.945138
_symmetry_space_group_name_H-M "I M M A"
_symmetry_group_IT_number 74
_symmetry_cell_setting 'orthorhombic'
loop_
_space_group_symop_operation_xyz
x,y,z
-x,1/2-y,z
x,-y,-z
-x,1/2+y,-z
-x,-y,-z
x,1/2+y,-z
-x,y,z
x,1/2-y,z
1/2+x,1/2+y,1/2+z
1/2-x,-y,1/2+z
1/2+x,1/2-y,1/2-z
1/2-x,y,1/2-z
1/2-x,1/2-y,1/2-z
1/2+x,y,1/2-z
1/2-x,1/2+y,1/2+z
1/2+x,-y,1/2+z
loop_
_atom_site_type_symbol
_atom_site_label
_atom_site_fract_x
_atom_site_fract_y
_atom_site_fract_z
Si Si1 0.817975 0.187605 0.002476
Si Si2 0.180773 0.937096 0.810000
Si Si3 0.817585 0.250000 0.687962
Si Si4 0.818208 0.250000 0.188013
Si Si5 0.818328 0.347178 0.381971
Si Si6 0.318992 0.062807 0.689929
Si Si7 0.682988 0.650198 0.112820
O O1 0.766128 0.250000 0.998109
O O2 0.773210 0.156243 0.945808
O O3 0.000000 0.182674 0.013975
O O4 0.726347 0.158475 0.052638
O O5 0.250000 0.918088 0.750000
O O6 0.266677 0.905985 0.860512
O O7 0.000000 0.923087 0.810464
O O8 0.212497 0.999955 0.820182
O O9 0.750000 0.250000 0.750000
O O10 0.759248 0.302650 0.654678
O O11 0.000000 0.250000 0.693170
O O12 0.750000 0.250000 0.250000
O O13 0.768223 0.302757 0.154716
O O14 0.000000 0.250000 0.193406
O O15 0.000000 0.339415 0.374327
O O16 0.500000 0.077173 0.688858
O O17 0.250000 0.081715 0.750000
O O18 0.229663 0.093249 0.639867
O O19 0.500000 0.653066 0.101605
#
# Coordination Sequence:
#
# PCOD8301055 Si02
#       7
#    16  16   8   8  16  16  16
#     4  11  23  40  62  86 116 158 200 242 293 353
#     4  10  21  39  62  88 121 157 197 244 295 355
#     4  10  22  35  52  81 116 151 187 233 289 344
#     4  12  24  39  58  85 120 155 193 239 295 352
#     4  12  24  39  61  88 119 154 196 244 294 352
#     4  10  21  38  61  89 120 157 199 244 297 353
#     4  11  22  38  59  85 119 156 198 245 294 351
#
# _framework density 19.059170999999999
#
# number of rings (size 3 to 8) (size 9 to 14) (size 15 to 20)
#    0.000    1.167    1.667    5.250    0.000    5.333 
#    0.000    0.833    0.000    5.000    0.000    0.000 
#    0.000    0.000    0.000    0.000    0.000    0.000 
#
# Total GULP energy -595558.532273 kJ/mol
# GULP energy per Si atom -12407.469422 kJ/mol
# Density = 1.901579 g / cm^3
# Si number density = 19.059171 Si / 1000 Ang^3
#
#
#
# Elastic Constant Matrix: (Units=GPa)
#
#
# Indices 1 2 3 4 5 6 
#
# 1 104.4376 34.6701 38.9188 0.0000 0.0000 0.0000
# 2 34.6701 81.1838 51.9980 0.0000 0.0000 0.0000
# 3 38.9188 51.9980 138.1970 0.0000 0.0000 0.0000
# 4 0.0000 0.0000 0.0000 23.4145 0.0000 0.0000
# 5 0.0000 0.0000 0.0000 0.0000 39.4537 0.0000
# 6 0.0000 0.0000 0.0000 0.0000 0.0000 30.7765
#
#
#
# Elastic Compliance Matrix: (Units=1/GPa)
#
#
# Indices 1 2 3 4 5 6 
#
# 1 0.011498 -0.003737 -0.001832 0.000000 0.000000 0.000000
# 2 -0.003737 0.017443 -0.005511 0.000000 0.000000 0.000000
# 3 -0.001832 -0.005511 0.009825 0.000000 0.000000 0.000000
# 4 0.000000 0.000000 0.000000 0.042709 0.000000 0.000000
# 5 0.000000 0.000000 0.000000 0.000000 0.025346 0.000000
# 6 0.000000 0.000000 0.000000 0.000000 0.000000 0.032492
#
#
# Mechanical properties :
#
#
# Convention : Reuss Voigt Hill
#
# Bulk Modulus (GPa) = 60.21416 63.88802 62.05109
# Shear Modulus (GPa) = 29.93837 31.94440 30.94138
#
# Velocity S-wave (km/s) = 3.96765 4.09842 4.03356
# Velocity P-wave (km/s) = 7.25613 7.48263 7.37025
#
# Compressibility (1/GPa) = 0.01660739
#
# Stress axis : x y z
#
# Youngs Moduli (GPa) = 86.96871 57.32857 101.77617
#
# Poissons Ratio (x) = 0.21424 0.18646
# Poissons Ratio (y) = 0.32500 0.56087
# Poissons Ratio (z) = 0.15933 0.31593
#
# Static dielectric constant tensor:
#      x y z
#    x 3.590060 0.000000 0.000000 
#    y 0.000000 3.529270 0.000000 
#    z 0.000000 0.000000 3.461940 
# 
# 
# High freq. dielectric constant tensor:
#      x y z
#    x 1.757410 0.000000 0.000000 
#    y 0.000000 1.741060 0.000000 
#    z 0.000000 0.000000 1.745490 
# 
# From -- ./inp_files/57338.got.cif
#   From: 2010.03.12/outbox.cif.g09.slc.cpg/sg74_29_cif.got.tgz:57338.got - 2010.04.16 15:46:19.
