data_PCOD8301974
_publ_section_title
;
Structure prediction by ZEFSAII (Michael W. Deem and Ramdas Pophale) SiO2 
 PCOD8301974
Probable space group: P 41
;
_chemical_formula_sum "Si O2"
_cell_formula_units_Z 16
_cell_length_a 8.760829
_cell_length_b 8.760829
_cell_length_c 7.667964
_cell_angle_alpha 90.000000
_cell_angle_beta 90.000000
_cell_angle_gamma 90.000000
_cell_volume 588.532530
_symmetry_space_group_name_H-M "P 41"
_symmetry_group_IT_number 76
_symmetry_cell_setting 'tetragonal'
loop_
_space_group_symop_operation_xyz
x,y,z
-y,x,1/4+z
-x,-y,1/2+z
y,-x,3/4+z
loop_
_atom_site_type_symbol
_atom_site_label
_atom_site_fract_x
_atom_site_fract_y
_atom_site_fract_z
Si Si1 0.661428 0.395845 0.400890
Si Si2 0.401365 0.844129 0.378740
Si Si3 0.335503 0.099581 0.635552
Si Si4 0.839246 0.092997 0.424201
O O1 0.640076 0.495956 0.572374
O O2 0.767725 0.479477 0.261243
O O3 0.733978 0.237182 0.457819
O O4 0.490090 0.882562 0.200968
O O5 0.265192 0.728629 0.339618
O O6 0.335807 0.000823 0.459335
O O7 0.233220 0.019971 0.782240
O O8 0.006817 0.144418 0.358410
#
# Coordination Sequence:
#
# PCOD8301974 Si02
#       4
#     4   4   4   4
#     4  12  25  50  75 106 150 190 241 303 358 429
#     4  12  25  50  75 106 150 190 241 303 358 429
#     4  12  25  50  75 106 150 190 241 303 358 429
#     4  12  25  50  75 106 150 190 241 303 358 429
#
# _framework density 27.186263
#
# number of rings (size 3 to 8) (size 9 to 14) (size 15 to 20)
#    0.000    0.000   10.000    0.000    0.000    4.000 
#    0.000    5.000    0.000    0.000    0.000    0.000 
#    0.000    0.000    0.000    0.000    0.000    0.000 
#
# Total GULP energy -198632.355771 kJ/mol
# GULP energy per Si atom -12414.522236 kJ/mol
# Density = 2.712439 g / cm^3
# Si number density = 27.186263 Si / 1000 Ang^3
#
#
#
# Elastic Constant Matrix: (Units=GPa)
#
#
# Indices 1 2 3 4 5 6 
#
# 1 150.5408 28.0863 36.4973 0.0000 0.0000 33.0896
# 2 28.0863 150.5408 36.4973 0.0000 0.0000 -33.0896
# 3 36.4973 36.4973 89.8703 0.0000 0.0000 0.0000
# 4 0.0000 0.0000 0.0000 29.4667 0.0000 0.0000
# 5 0.0000 0.0000 0.0000 0.0000 29.4667 0.0000
# 6 33.0896 -33.0896 0.0000 0.0000 0.0000 81.0771
#
#
#
# Elastic Compliance Matrix: (Units=1/GPa)
#
#
# Indices 1 2 3 4 5 6 
#
# 1 0.008595 -0.001883 -0.002726 0.000000 0.000000 -0.004276
# 2 -0.001883 0.008595 -0.002726 0.000000 0.000000 0.004276
# 3 -0.002726 -0.002726 0.013341 0.000000 0.000000 0.000000
# 4 0.000000 0.000000 0.000000 0.033937 0.000000 0.000000
# 5 0.000000 0.000000 0.000000 0.000000 0.033937 0.000000
# 6 -0.004276 0.004276 0.000000 0.000000 0.000000 0.015824
#
#
# Mechanical properties :
#
#
# Convention : Reuss Voigt Hill
#
# Bulk Modulus (GPa) = 63.04391 65.90155 64.47273
# Shear Modulus (GPa) = 37.26225 47.32681 42.29453
#
# Velocity S-wave (km/s) = 3.70622 4.17686 3.94856
# Velocity P-wave (km/s) = 6.44629 6.89601 6.67494
#
# Compressibility (1/GPa) = 0.01586196
#
# Stress axis : x y z
#
# Youngs Moduli (GPa) = 116.35081 116.35081 74.95592
#
# Poissons Ratio (x) = 0.21903 0.20432
# Poissons Ratio (y) = 0.21903 0.20432
# Poissons Ratio (z) = 0.31716 0.31716
#
# Static dielectric constant tensor:
#      x y z
#    x 5.330260 0.000000 0.000000 
#    y 0.000000 5.330260 0.000000 
#    z 0.000000 0.000000 4.724670 
# 
# 
# High freq. dielectric constant tensor:
#      x y z
#    x 2.116050 0.000000 0.000000 
#    y 0.000000 2.116050 0.000000 
#    z 0.000000 0.000000 2.090580 
# 
# From -- ./inp_files/396.got.cif
#   From: 2010.03.12/outbox.cif.g09.slc.cpg/sg76_cif.got.tgz:396.got - 2010.04.16 16:34:25.
