data_PCOD8301626
_publ_section_title
;
Structure prediction by ZEFSAII (Michael W. Deem and Ramdas Pophale) SiO2 
 PCOD8301626
Probable space group: I M M A
;
_chemical_formula_sum "Si O2"
_cell_formula_units_Z 104
_cell_length_a 26.403873
_cell_length_b 21.638539
_cell_length_c 9.495973
_cell_angle_alpha 90.000000
_cell_angle_beta 90.000000
_cell_angle_gamma 90.000000
_cell_volume 5425.440948
_symmetry_space_group_name_H-M "I M M A"
_symmetry_group_IT_number 74
_symmetry_cell_setting 'orthorhombic'
loop_
_space_group_symop_operation_xyz
x,y,z
-x,1/2-y,z
x,-y,-z
-x,1/2+y,-z
-x,-y,-z
x,1/2+y,-z
-x,y,z
x,1/2-y,z
1/2+x,1/2+y,1/2+z
1/2-x,-y,1/2+z
1/2+x,1/2-y,1/2-z
1/2-x,y,1/2-z
1/2-x,1/2-y,1/2-z
1/2+x,y,1/2-z
1/2-x,1/2+y,1/2+z
1/2+x,-y,1/2+z
loop_
_atom_site_type_symbol
_atom_site_label
_atom_site_fract_x
_atom_site_fract_y
_atom_site_fract_z
Si Si1 0.662566 0.912999 0.238398
Si Si2 0.943645 0.049942 0.687494
Si Si3 0.189679 0.678879 0.040578
Si Si4 0.555583 0.407759 0.118292
Si Si5 0.750000 0.994627 0.750000
Si Si6 0.712208 0.390632 0.050336
Si Si7 0.140028 0.178219 0.251927
O O1 0.605110 0.932417 0.280237
O O2 0.667652 0.847178 0.314165
O O3 0.702970 0.962532 0.299972
O O4 0.670809 0.906675 0.069794
O O5 0.940065 0.093789 0.550319
O O6 0.000000 0.060330 0.756733
O O7 0.935358 0.978228 0.658957
O O8 0.201572 0.750000 0.062493
O O9 0.242024 0.644683 0.018652
O O10 0.150028 0.668152 0.913616
O O11 0.500000 0.385787 0.165394
O O12 0.592932 0.362153 0.198545
O O13 0.731497 0.954123 0.881213
O O14 0.689640 0.345560 0.168012
O O15 0.130308 0.250000 0.287263
#
# Coordination Sequence:
#
# PCOD8301626 Si02
#       7
#    16  16  16  16   8  16  16
#     4  12  24  38  62  93 126 161 200 249 305 369
#     4   9  19  37  63  91 120 155 196 247 313 365
#     4  11  25  43  57  83 124 169 205 242 298 367
#     4   9  18  36  61  90 119 150 195 254 305 358
#     4  12  24  36  62  96 128 154 196 246 320 352
#     4  12  22  39  61  88 123 160 199 250 297 372
#     4  11  22  38  61  85 117 163 206 249 299 353
#
# _framework density 19.168949999999999
#
# number of rings (size 3 to 8) (size 9 to 14) (size 15 to 20)
#    0.000    1.231    4.615    2.769    2.154    3.385 
#    0.000    0.769    0.000    3.231    0.000    0.000 
#    0.000    0.000    0.000    0.000    0.000    0.000 
#
# Total GULP energy -644553.209526 kJ/mol
# GULP energy per Si atom -12395.254029 kJ/mol
# Density = 1.912532 g / cm^3
# Si number density = 19.168950 Si / 1000 Ang^3
#
#
#
# Elastic Constant Matrix: (Units=GPa)
#
#
# Indices 1 2 3 4 5 6 
#
# 1 128.1841 46.1761 12.9925 0.0000 0.0000 0.0000
# 2 46.1761 96.1159 36.9209 0.0000 0.0000 0.0000
# 3 12.9925 36.9209 66.5550 0.0000 0.0000 0.0000
# 4 0.0000 0.0000 0.0000 36.0981 0.0000 0.0000
# 5 0.0000 0.0000 0.0000 0.0000 22.7507 0.0000
# 6 0.0000 0.0000 0.0000 0.0000 0.0000 -10.7795
#
#
#
# Elastic Compliance Matrix: (Units=1/GPa)
#
#
# Indices 1 2 3 4 5 6 
#
# 1 0.009472 -0.004880 0.000858 0.000000 0.000000 0.000000
# 2 -0.004880 0.015736 -0.007777 0.000000 0.000000 0.000000
# 3 0.000858 -0.007777 0.019172 0.000000 0.000000 0.000000
# 4 0.000000 0.000000 0.000000 0.027702 0.000000 0.000000
# 5 0.000000 0.000000 0.000000 0.000000 0.043955 0.000000
# 6 0.000000 0.000000 0.000000 0.000000 0.000000 -0.092769
#
#
# Mechanical properties :
#
#
# Convention : Reuss Voigt Hill
#
# Bulk Modulus (GPa) = 48.11786 53.67046 50.89416
# Shear Modulus (GPa) = 92.94791 22.59824 57.77308
#
# Velocity S-wave (km/s) = 6.97094 3.43723 5.49585
# Velocity P-wave (km/s) = 9.48412 6.61908 8.17804
#
# Compressibility (1/GPa) = 0.02078230
#
# Stress axis : x y z
#
# Youngs Moduli (GPa) = 105.57018 63.54852 52.16020
#
# Poissons Ratio (x) = 0.31014 -0.04476
# Poissons Ratio (y) = 0.51522 0.40564
# Poissons Ratio (z) = -0.09060 0.49420
#
# Static dielectric constant tensor:
#      x y z
#    x 3.699220 0.000000 0.000000 
#    y 0.000000 3.547210 0.000000 
#    z 0.000000 0.000000 3.433330 
# 
# 
# High freq. dielectric constant tensor:
#      x y z
#    x 1.754150 0.000000 0.000000 
#    y 0.000000 1.745060 0.000000 
#    z 0.000000 0.000000 1.726780 
# 
# From -- ./inp_files/15239.got.cif
#   From: 2010.03.12/outbox.cif.g09.slc.cpg/sg74_8_cif.got.tgz:15239.got - 2010.04.16 15:46:19.
