data_PCOD8301312
_publ_section_title
;
Structure prediction by ZEFSAII (Michael W. Deem and Ramdas Pophale) SiO2 
 PCOD8301312
Probable space group: I M M A
;
_chemical_formula_sum "Si O2"
_cell_formula_units_Z 104
_cell_length_a 19.547266
_cell_length_b 27.086522
_cell_length_c 9.412208
_cell_angle_alpha 90.000000
_cell_angle_beta 90.000000
_cell_angle_gamma 90.000000
_cell_volume 4983.457774
_symmetry_space_group_name_H-M "I M M A"
_symmetry_group_IT_number 74
_symmetry_cell_setting 'orthorhombic'
loop_
_space_group_symop_operation_xyz
x,y,z
-x,1/2-y,z
x,-y,-z
-x,1/2+y,-z
-x,-y,-z
x,1/2+y,-z
-x,y,z
x,1/2-y,z
1/2+x,1/2+y,1/2+z
1/2-x,-y,1/2+z
1/2+x,1/2-y,1/2-z
1/2-x,y,1/2-z
1/2-x,1/2-y,1/2-z
1/2+x,y,1/2-z
1/2-x,1/2+y,1/2+z
1/2+x,-y,1/2+z
loop_
_atom_site_type_symbol
_atom_site_label
_atom_site_fract_x
_atom_site_fract_y
_atom_site_fract_z
Si Si1 0.500000 0.402007 0.963696
Si Si2 0.644071 0.137221 0.911321
Si Si3 0.274696 0.305202 0.103930
Si Si4 0.000000 0.458152 0.798299
Si Si5 0.751886 0.049846 0.586067
Si Si6 0.000000 0.072234 0.206503
Si Si7 0.155065 0.806798 0.123626
Si Si8 0.106633 0.902739 0.016403
O O1 0.436528 0.369896 0.910379
O O2 0.500000 0.452425 0.872335
O O3 0.500000 0.414901 0.128820
O O4 0.683300 0.085587 0.926813
O O5 0.670910 0.169442 0.777415
O O6 0.657303 0.167420 0.055040
O O7 0.295906 0.250000 0.142619
O O8 0.250000 0.331120 0.250000
O O9 0.221753 0.307845 0.974274
O O10 0.000000 0.515146 0.832507
O O11 0.067440 0.433321 0.863225
O O12 0.750000 0.034393 0.750000
O O13 0.684743 0.077678 0.523163
O O14 0.765630 0.000000 0.500000
O O15 0.070084 0.092332 0.136293
O O16 0.128061 0.750000 0.137734
O O17 0.101174 0.844096 0.050310
#
# Coordination Sequence:
#
# PCOD8301312 Si02
#       8
#     8  16  16   8  16   8  16  16
#     4  12  27  42  65  96 138 179 231 279 334 388
#     4  12  24  44  65  97 137 176 226 286 327 405
#     4  10  22  40  69 103 134 171 217 274 342 408
#     4  11  21  45  68  94 137 183 226 273 323 407
#     4  12  24  41  65  99 135 170 219 283 340 395
#     4  11  27  43  70  94 133 192 224 266 345 407
#     4  11  22  42  75 101 128 175 224 277 338 401
#     4  11  22  44  68 100 133 171 226 279 332 412
#
# _framework density 20.869043000000001
#
# number of rings (size 3 to 8) (size 9 to 14) (size 15 to 20)
#    0.000    0.769    4.615    3.000    2.154    5.538 
#    0.000    4.615    0.000    1.846    0.000    0.000 
#    0.000    0.000    0.000    0.000    0.000    0.000 
#
# Total GULP energy -644498.119186 kJ/mol
# GULP energy per Si atom -12394.194600 kJ/mol
# Density = 2.082154 g / cm^3
# Si number density = 20.869043 Si / 1000 Ang^3
#
#
#
# Elastic Constant Matrix: (Units=GPa)
#
#
# Indices 1 2 3 4 5 6 
#
# 1 112.0690 42.8028 40.5417 0.0000 0.0000 0.0000
# 2 42.8028 152.1349 39.4590 0.0000 0.0000 0.0000
# 3 40.5417 39.4590 116.0721 0.0000 0.0000 0.0000
# 4 0.0000 0.0000 0.0000 40.8674 0.0000 0.0000
# 5 0.0000 0.0000 0.0000 0.0000 18.1642 0.0000
# 6 0.0000 0.0000 0.0000 0.0000 0.0000 -1.8296
#
#
#
# Elastic Compliance Matrix: (Units=1/GPa)
#
#
# Indices 1 2 3 4 5 6 
#
# 1 0.010889 -0.002278 -0.003029 0.000000 0.000000 0.000000
# 2 -0.002278 0.007685 -0.001817 0.000000 0.000000 0.000000
# 3 -0.003029 -0.001817 0.010291 0.000000 0.000000 0.000000
# 4 0.000000 0.000000 0.000000 0.024469 0.000000 0.000000
# 5 0.000000 0.000000 0.000000 0.000000 0.055053 0.000000
# 6 0.000000 0.000000 0.000000 0.000000 0.000000 -0.546563
#
#
# Mechanical properties :
#
#
# Convention : Reuss Voigt Hill
#
# Bulk Modulus (GPa) = 68.41137 69.54254 68.97696
# Shear Modulus (GPa) = -11.93160 28.60525 8.33682
#
# Velocity S-wave (km/s) = -2.39370 3.70632 2.00087
# Velocity P-wave (km/s) = 5.02123 7.19106 6.20178
#
# Compressibility (1/GPa) = 0.01461745
#
# Stress axis : x y z
#
# Youngs Moduli (GPa) = 91.83748 130.11897 97.17283
#
# Poissons Ratio (x) = 0.29640 0.29432
# Poissons Ratio (y) = 0.20920 0.17656
# Poissons Ratio (z) = 0.27816 0.23642
#
# Static dielectric constant tensor:
#      x y z
#    x 3.723310 0.000000 0.000000 
#    y 0.000000 4.015970 0.000000 
#    z 0.000000 0.000000 4.033040 
# 
# 
# High freq. dielectric constant tensor:
#      x y z
#    x 1.804240 0.000000 0.000000 
#    y 0.000000 1.822230 0.000000 
#    z 0.000000 0.000000 1.833280 
# 
# From -- ./inp_files/12814.got.cif
#   From: 2010.03.12/outbox.cif.g09.slc.cpg/sg74_7_cif.got.tgz:12814.got - 2010.04.16 15:46:19.
