data_PCOD8301584
_publ_section_title
;
Structure prediction by ZEFSAII (Michael W. Deem and Ramdas Pophale) SiO2 
 PCOD8301584
Probable space group: I M M A
;
_chemical_formula_sum "Si O2"
_cell_formula_units_Z 112
_cell_length_a 28.139901
_cell_length_b 17.459267
_cell_length_c 11.639564
_cell_angle_alpha 90.000000
_cell_angle_beta 90.000000
_cell_angle_gamma 90.000000
_cell_volume 5718.541595
_symmetry_space_group_name_H-M "I M M A"
_symmetry_group_IT_number 74
_symmetry_cell_setting 'orthorhombic'
loop_
_space_group_symop_operation_xyz
x,y,z
-x,1/2-y,z
x,-y,-z
-x,1/2+y,-z
-x,-y,-z
x,1/2+y,-z
-x,y,z
x,1/2-y,z
1/2+x,1/2+y,1/2+z
1/2-x,-y,1/2+z
1/2+x,1/2-y,1/2-z
1/2-x,y,1/2-z
1/2-x,1/2-y,1/2-z
1/2+x,y,1/2-z
1/2-x,1/2+y,1/2+z
1/2+x,-y,1/2+z
loop_
_atom_site_type_symbol
_atom_site_label
_atom_site_fract_x
_atom_site_fract_y
_atom_site_fract_z
Si Si1 0.208989 0.336407 0.668865
Si Si2 0.186987 0.160641 0.094011
Si Si3 0.143287 0.453494 0.251143
Si Si4 0.446250 0.513612 0.131115
Si Si5 0.446751 0.662610 0.266001
Si Si6 0.778690 0.575193 0.556871
Si Si7 0.354878 0.113342 0.644506
O O1 0.224127 0.250000 0.641026
O O2 0.250000 0.374938 0.750000
O O3 0.199816 0.375728 0.547185
O O4 0.160428 0.341336 0.740308
O O5 0.189286 0.250000 0.119619
O O6 0.147359 0.124102 0.177205
O O7 0.237978 0.122706 0.122959
O O8 0.175064 0.144315 0.961822
O O9 0.089377 0.461598 0.294374
O O10 0.179825 0.450755 0.357006
O O11 0.154886 0.523384 0.164260
O O12 0.500000 0.486391 0.157960
O O13 0.439895 0.604034 0.159088
O O14 0.432924 0.500000 0.000000
O O15 0.500000 0.654842 0.316666
O O16 0.437525 0.750000 0.224995
O O17 0.410625 0.635912 0.367597
O O18 0.755425 0.500000 0.500000
#
# Coordination Sequence:
#
# PCOD8301584 Si02
#       7
#    16  16  16  16  16  16  16
#     4  11  22  36  58  86 113 150 199 251 299 348
#     4  12  26  41  58  84 121 163 203 245 298 358
#     4  11  24  39  61  88 119 159 200 242 301 365
#     4   9  19  38  63  88 118 155 197 245 297 357
#     4   9  18  33  58  91 120 146 187 246 305 349
#     4  12  23  38  59  84 119 158 200 250 296 360
#     4  11  21  40  62  86 116 156 202 249 293 354
#
# _framework density 19.585412999999999
#
# number of rings (size 3 to 8) (size 9 to 14) (size 15 to 20)
#    0.000    1.286    2.857    3.857    2.000    1.714 
#    0.000    1.429    0.000    5.571    0.000    0.000 
#    0.000    0.000    0.000    0.000    0.000    0.000 
#
# Total GULP energy -694316.835437 kJ/mol
# GULP energy per Si atom -12398.514919 kJ/mol
# Density = 1.954084 g / cm^3
# Si number density = 19.585413 Si / 1000 Ang^3
#
#
#
# Elastic Constant Matrix: (Units=GPa)
#
#
# Indices 1 2 3 4 5 6 
#
# 1 102.7100 49.1629 28.7482 0.0000 0.0000 0.0000
# 2 49.1629 134.1303 39.1451 0.0000 0.0000 0.0000
# 3 28.7482 39.1451 58.6118 0.0000 0.0000 0.0000
# 4 0.0000 0.0000 0.0000 28.1340 0.0000 0.0000
# 5 0.0000 0.0000 0.0000 0.0000 25.6705 0.0000
# 6 0.0000 0.0000 0.0000 0.0000 0.0000 26.1513
#
#
#
# Elastic Compliance Matrix: (Units=1/GPa)
#
#
# Indices 1 2 3 4 5 6 
#
# 1 0.012454 -0.003456 -0.003801 0.000000 0.000000 0.000000
# 2 -0.003456 0.010219 -0.005130 0.000000 0.000000 0.000000
# 3 -0.003801 -0.005130 0.022352 0.000000 0.000000 0.000000
# 4 0.000000 0.000000 0.000000 0.035544 0.000000 0.000000
# 5 0.000000 0.000000 0.000000 0.000000 0.038955 0.000000
# 6 0.000000 0.000000 0.000000 0.000000 0.000000 0.038239
#
#
# Mechanical properties :
#
#
# Convention : Reuss Voigt Hill
#
# Bulk Modulus (GPa) = 49.37715 58.84049 54.10882
# Shear Modulus (GPa) = 26.41490 27.88422 27.14956
#
# Velocity S-wave (km/s) = 3.67645 3.77732 3.72723
# Velocity P-wave (km/s) = 6.57934 7.00945 6.79780
#
# Compressibility (1/GPa) = 0.02025228
#
# Stress axis : x y z
#
# Youngs Moduli (GPa) = 80.29573 97.85468 44.73894
#
# Poissons Ratio (x) = 0.33814 0.17003
# Poissons Ratio (y) = 0.27747 0.22952
# Poissons Ratio (z) = 0.30517 0.50202
#
# Static dielectric constant tensor:
#      x y z
#    x 3.753050 0.000000 0.000000 
#    y 0.000000 3.660170 0.000000 
#    z 0.000000 0.000000 3.426330 
# 
# 
# High freq. dielectric constant tensor:
#      x y z
#    x 1.766450 0.000000 0.000000 
#    y 0.000000 1.765810 0.000000 
#    z 0.000000 0.000000 1.746960 
# 
# From -- ./inp_files/27224.got.cif
#   From: 2010.03.12/outbox.cif.g09.slc.cpg/sg74_14_cif.got.tgz:27224.got - 2010.04.16 15:46:19.
