data_PCOD8301066
_publ_section_title
;
Structure prediction by ZEFSAII (Michael W. Deem and Ramdas Pophale) SiO2 
 PCOD8301066
Probable space group: I M M A
;
_chemical_formula_sum "Si O2"
_cell_formula_units_Z 72
_cell_length_a 32.062028
_cell_length_b 9.949105
_cell_length_c 11.596386
_cell_angle_alpha 90.000000
_cell_angle_beta 90.000000
_cell_angle_gamma 90.000000
_cell_volume 3699.113579
_symmetry_space_group_name_H-M "I M M A"
_symmetry_group_IT_number 74
_symmetry_cell_setting 'orthorhombic'
loop_
_space_group_symop_operation_xyz
x,y,z
-x,1/2-y,z
x,-y,-z
-x,1/2+y,-z
-x,-y,-z
x,1/2+y,-z
-x,y,z
x,1/2-y,z
1/2+x,1/2+y,1/2+z
1/2-x,-y,1/2+z
1/2+x,1/2-y,1/2-z
1/2-x,y,1/2-z
1/2-x,1/2-y,1/2-z
1/2+x,y,1/2-z
1/2-x,1/2+y,1/2+z
1/2+x,-y,1/2+z
loop_
_atom_site_type_symbol
_atom_site_label
_atom_site_fract_x
_atom_site_fract_y
_atom_site_fract_z
Si Si1 0.815639 0.250000 0.296467
Si Si2 0.798124 0.250000 0.036564
Si Si3 0.910890 0.399584 0.811994
Si Si4 0.500000 0.093462 0.611821
Si Si5 0.710858 0.250000 0.944850
Si Si6 0.145024 0.000000 0.000000
Si Si7 0.350977 0.024477 0.872515
O O1 0.788731 0.250000 0.176411
O O2 0.790557 0.250000 0.415562
O O3 0.842299 0.388013 0.300987
O O4 0.825104 0.124812 0.001993
O O5 0.760846 0.250000 0.940685
O O6 0.907177 0.250000 0.864211
O O7 0.885005 0.501848 0.890111
O O8 0.889919 0.400765 0.686120
O O9 0.959582 0.441200 0.809828
O O10 0.500000 0.250000 0.573592
O O11 0.500000 0.000000 0.500000
O O12 0.690588 0.381452 0.884661
O O13 0.367827 0.000000 0.000000
#
# Coordination Sequence:
#
# PCOD8301066 Si02
#       7
#     8   8  16   8   8   8  16
#     4  10  21  38  62  86 114 163 206 267 298 358
#     4  12  25  39  56  90 119 160 212 256 303 357
#     4  11  21  41  63  93 126 162 202 247 324 378
#     4  10  22  38  67  96 126 160 201 255 302 385
#     4  10  23  41  58  83 123 163 212 250 311 365
#     4  12  24  37  60  88 126 158 200 253 312 374
#     4  10  21  40  64  87 120 166 205 257 312 371
#
# _framework density 19.464122
#
# number of rings (size 3 to 8) (size 9 to 14) (size 15 to 20)
#    0.000    1.333    5.556    0.333    4.667    0.000 
#    2.000    2.778    0.000    0.000    0.000    0.000 
#    0.000    0.000    0.000    0.000    0.000    0.000 
#
# Total GULP energy -445998.755139 kJ/mol
# GULP energy per Si atom -12388.854309 kJ/mol
# Density = 1.941982 g / cm^3
# Si number density = 19.464122 Si / 1000 Ang^3
#
#
#
# Elastic Constant Matrix: (Units=GPa)
#
#
# Indices 1 2 3 4 5 6 
#
# 1 174.7109 65.8682 62.8841 0.0000 0.0000 0.0000
# 2 65.8682 112.1924 27.5208 0.0000 0.0000 0.0000
# 3 62.8841 27.5208 82.9993 0.0000 0.0000 0.0000
# 4 0.0000 0.0000 0.0000 16.7342 0.0000 0.0000
# 5 0.0000 0.0000 0.0000 0.0000 23.5086 0.0000
# 6 0.0000 0.0000 0.0000 0.0000 0.0000 13.8430
#
#
#
# Elastic Compliance Matrix: (Units=1/GPa)
#
#
# Indices 1 2 3 4 5 6 
#
# 1 0.009311 -0.004067 -0.005706 0.000000 0.000000 0.000000
# 2 -0.004067 0.011479 -0.000725 0.000000 0.000000 0.000000
# 3 -0.005706 -0.000725 0.016612 0.000000 0.000000 0.000000
# 4 0.000000 0.000000 0.000000 0.059758 0.000000 0.000000
# 5 0.000000 0.000000 0.000000 0.000000 0.042538 0.000000
# 6 0.000000 0.000000 0.000000 0.000000 0.000000 0.072239
#
#
# Mechanical properties :
#
#
# Convention : Reuss Voigt Hill
#
# Bulk Modulus (GPa) = 60.95285 75.82762 68.39024
# Shear Modulus (GPa) = 20.97329 25.05912 23.01620
#
# Velocity S-wave (km/s) = 3.28615 3.59200 3.44247
# Velocity P-wave (km/s) = 6.76623 7.49970 7.14238
#
# Compressibility (1/GPa) = 0.01640612
#
# Stress axis : x y z
#
# Youngs Moduli (GPa) = 107.40465 87.11843 60.19886
#
# Poissons Ratio (x) = 0.35428 0.34348
# Poissons Ratio (y) = 0.43678 0.04364
# Poissons Ratio (z) = 0.61282 0.06316
#
# Static dielectric constant tensor:
#      x y z
#    x 3.565890 0.000000 0.000000 
#    y 0.000000 3.632820 0.000000 
#    z 0.000000 0.000000 3.530580 
# 
# 
# High freq. dielectric constant tensor:
#      x y z
#    x 1.746650 0.000000 0.000000 
#    y 0.000000 1.769300 0.000000 
#    z 0.000000 0.000000 1.750870 
# 
# From -- ./inp_files/26041.got.cif
#   From: 2010.03.12/outbox.cif.g09.slc.cpg/sg74_14_cif.got.tgz:26041.got - 2010.04.16 15:46:19.
