data_PCOD8301116
_publ_section_title
;
Structure prediction by ZEFSAII (Michael W. Deem and Ramdas Pophale) SiO2 
 PCOD8301116
Probable space group: I M M A
;
_chemical_formula_sum "Si O2"
_cell_formula_units_Z 80
_cell_length_a 8.849244
_cell_length_b 24.982253
_cell_length_c 18.216060
_cell_angle_alpha 90.000000
_cell_angle_beta 90.000000
_cell_angle_gamma 90.000000
_cell_volume 4027.098204
_symmetry_space_group_name_H-M "I M M A"
_symmetry_group_IT_number 74
_symmetry_cell_setting 'orthorhombic'
loop_
_space_group_symop_operation_xyz
x,y,z
-x,1/2-y,z
x,-y,-z
-x,1/2+y,-z
-x,-y,-z
x,1/2+y,-z
-x,y,z
x,1/2-y,z
1/2+x,1/2+y,1/2+z
1/2-x,-y,1/2+z
1/2+x,1/2-y,1/2-z
1/2-x,y,1/2-z
1/2-x,1/2-y,1/2-z
1/2+x,y,1/2-z
1/2-x,1/2+y,1/2+z
1/2+x,-y,1/2+z
loop_
_atom_site_type_symbol
_atom_site_label
_atom_site_fract_x
_atom_site_fract_y
_atom_site_fract_z
Si Si1 0.821644 0.401115 0.914226
Si Si2 0.676065 0.812099 0.173698
Si Si3 0.674572 0.096338 0.067937
Si Si4 0.322419 0.689462 0.826318
Si Si5 0.675396 0.996486 0.173263
O O1 0.754121 0.343536 0.892694
O O2 0.755515 0.444821 0.859476
O O3 0.000000 0.400377 0.906837
O O4 0.776172 0.413935 0.997250
O O5 0.500000 0.825752 0.176961
O O6 0.706234 0.750000 0.158326
O O7 0.750000 0.830470 0.250000
O O8 0.500000 0.101414 0.043854
O O9 0.730887 0.150204 0.108784
O O10 0.700018 0.046403 0.120435
O O11 0.500000 0.684712 0.815431
O O12 0.272824 0.750000 0.846729
O O13 0.250000 0.670877 0.750000
O O14 0.500000 0.983302 0.184509
O O15 0.750000 0.011902 0.250000
#
# Coordination Sequence:
#
# PCOD8301116 Si02
#       5
#    16  16  16  16  16
#     4  12  25  39  58  85 118 152 190 237 287 342
#     4  10  21  39  63  88 116 151 191 235 283 338
#     4  10  22  39  58  83 116 153 192 236 288 341
#     4   9  18  34  57  84 114 148 187 231 279 333
#     4  11  23  40  62  85 113 149 192 240 288 344
#
# _framework density 19.86542
#
# number of rings (size 3 to 8) (size 9 to 14) (size 15 to 20)
#    0.000    1.600    0.000    4.800    0.000    6.800 
#    0.000    2.000    0.000    0.000    0.000    0.000 
#    0.000    0.000    0.000    0.000    0.000    0.000 
#
# Total GULP energy -496244.187654 kJ/mol
# GULP energy per Si atom -12406.104691 kJ/mol
# Density = 1.982021 g / cm^3
# Si number density = 19.865420 Si / 1000 Ang^3
#
#
#
# Elastic Constant Matrix: (Units=GPa)
#
#
# Indices 1 2 3 4 5 6 
#
# 1 129.1847 54.7783 63.1376 0.0000 0.0000 0.0000
# 2 54.7783 90.7572 41.4427 0.0000 0.0000 0.0000
# 3 63.1376 41.4427 109.6914 -0.0001 0.0000 0.0000
# 4 0.0000 0.0000 -0.0001 23.0736 0.0000 0.0000
# 5 0.0000 0.0000 0.0000 0.0000 39.3346 0.0000
# 6 0.0000 0.0000 0.0000 0.0000 0.0000 19.2988
#
#
#
# Elastic Compliance Matrix: (Units=1/GPa)
#
#
# Indices 1 2 3 4 5 6 
#
# 1 0.012483 -0.005140 -0.005243 0.000000 0.000000 0.000000
# 2 -0.005140 0.015432 -0.002872 0.000000 0.000000 0.000000
# 3 -0.005243 -0.002872 0.013219 0.000000 0.000000 0.000000
# 4 0.000000 0.000000 0.000000 0.043340 0.000000 0.000000
# 5 0.000000 0.000000 0.000000 0.000000 0.025423 0.000000
# 6 0.000000 0.000000 0.000000 0.000000 0.000000 0.051817
#
#
# Mechanical properties :
#
#
# Convention : Reuss Voigt Hill
#
# Bulk Modulus (GPa) = 68.37892 72.03894 70.20893
# Shear Modulus (GPa) = 25.89347 27.69302 26.79325
#
# Velocity S-wave (km/s) = 3.61424 3.73772 3.67650
# Velocity P-wave (km/s) = 7.20505 7.41415 7.31035
#
# Compressibility (1/GPa) = 0.01462439
#
# Stress axis : x y z
#
# Youngs Moduli (GPa) = 80.10930 64.79941 75.64645
#
# Poissons Ratio (x) = 0.33308 0.39662
# Poissons Ratio (y) = 0.41177 0.21725
# Poissons Ratio (z) = 0.42002 0.18609
#
# Static dielectric constant tensor:
#      x y z
#    x 3.692020 0.000000 0.000000 
#    y 0.000000 3.829770 0.000000 
#    z 0.000000 0.000000 3.600650 
# 
# 
# High freq. dielectric constant tensor:
#      x y z
#    x 1.777770 0.000000 0.000000 
#    y 0.000000 1.789610 0.000000 
#    z 0.000000 0.000000 1.777860 
# 
# From -- ./inp_files/39749.got.cif
#   From: 2010.03.12/outbox.cif.g09.slc.cpg/sg74_20_cif.got.tgz:39749.got - 2010.04.16 15:46:19.
