data_PCOD8301742
_publ_section_title
;
Structure prediction by ZEFSAII (Michael W. Deem and Ramdas Pophale) SiO2 
 PCOD8301742
Probable space group: I M M A
;
_chemical_formula_sum "Si O2"
_cell_formula_units_Z 88
_cell_length_a 27.210304
_cell_length_b 8.956749
_cell_length_c 18.492664
_cell_angle_alpha 90.000000
_cell_angle_beta 90.000000
_cell_angle_gamma 90.000000
_cell_volume 4506.955569
_symmetry_space_group_name_H-M "I M M A"
_symmetry_group_IT_number 74
_symmetry_cell_setting 'orthorhombic'
loop_
_space_group_symop_operation_xyz
x,y,z
-x,1/2-y,z
x,-y,-z
-x,1/2+y,-z
-x,-y,-z
x,1/2+y,-z
-x,y,z
x,1/2-y,z
1/2+x,1/2+y,1/2+z
1/2-x,-y,1/2+z
1/2+x,1/2-y,1/2-z
1/2-x,y,1/2-z
1/2-x,1/2-y,1/2-z
1/2+x,y,1/2-z
1/2-x,1/2+y,1/2+z
1/2+x,-y,1/2+z
loop_
_atom_site_type_symbol
_atom_site_label
_atom_site_fract_x
_atom_site_fract_y
_atom_site_fract_z
Si Si1 0.251059 0.572963 0.925383
Si Si2 0.553298 0.426153 0.831514
Si Si3 0.339282 0.572421 0.145182
Si Si4 0.073277 0.917692 0.169030
Si Si5 0.500000 0.578256 0.574579
Si Si6 0.184576 0.418334 0.809369
O O1 0.250295 0.750000 0.933573
O O2 0.306538 0.514636 0.912893
O O3 0.218803 0.526731 0.855961
O O4 0.231059 0.500000 0.000000
O O5 0.500000 0.489262 0.861421
O O6 0.552985 0.250000 0.839739
O O7 0.604002 0.483899 0.868530
O O8 0.557583 0.470598 0.748214
O O9 0.335752 0.750000 0.133875
O O10 0.319444 0.531201 0.225618
O O11 0.053769 0.750000 0.154934
O O12 0.131059 0.923813 0.155746
O O13 0.049404 0.033917 0.115318
O O14 0.500000 0.750000 0.559967
O O15 0.500000 0.500000 0.500000
O O16 0.206103 0.250000 0.813839
#
# Coordination Sequence:
#
# PCOD8301742 Si02
#       6
#    16  16  16  16   8  16
#     4  12  25  39  56  77 108 148 186 231 278 330
#     4   8  13  26  55  86 109 135 170 211 258 313
#     4   9  18  34  58  87 115 144 179 222 269 325
#     4   9  17  33  55  76 102 134 173 218 260 312
#     4  12  24  34  46  66  98 142 183 222 267 314
#     4   9  19  36  60  86 110 141 179 224 274 327
#
# _framework density 19.525376000000001
#
# number of rings (size 3 to 8) (size 9 to 14) (size 15 to 20)
#    0.000    2.364    0.909    5.182    0.000    4.364 
#    0.000    2.727    0.000    0.545    0.000    0.000 
#    0.000    0.000    0.000    0.000    0.000    0.000 
#
# Total GULP energy -545220.942817 kJ/mol
# GULP energy per Si atom -12391.385064 kJ/mol
# Density = 1.948094 g / cm^3
# Si number density = 19.525376 Si / 1000 Ang^3
#
#
#
# Elastic Constant Matrix: (Units=GPa)
#
#
# Indices 1 2 3 4 5 6 
#
# 1 100.9568 22.9738 15.7965 0.0000 0.0000 0.0000
# 2 22.9738 88.7284 21.8741 0.0000 0.0000 0.0000
# 3 15.7965 21.8741 36.8916 0.0000 0.0000 0.0000
# 4 0.0000 0.0000 0.0000 25.5997 0.0000 0.0000
# 5 0.0000 0.0000 0.0000 0.0000 36.7961 0.0000
# 6 0.0000 0.0000 0.0000 0.0000 0.0000 23.9494
#
#
#
# Elastic Compliance Matrix: (Units=1/GPa)
#
#
# Indices 1 2 3 4 5 6 
#
# 1 0.010899 -0.001958 -0.003506 0.000000 0.000000 0.000000
# 2 -0.001958 0.013551 -0.007197 0.000000 0.000000 0.000000
# 3 -0.003506 -0.007197 0.032875 0.000000 0.000000 0.000000
# 4 0.000000 0.000000 0.000000 0.039063 0.000000 0.000000
# 5 0.000000 0.000000 0.000000 0.000000 0.027177 0.000000
# 6 0.000000 0.000000 0.000000 0.000000 0.000000 0.041755
#
#
# Mechanical properties :
#
#
# Convention : Reuss Voigt Hill
#
# Bulk Modulus (GPa) = 31.24570 38.65174 34.94872
# Shear Modulus (GPa) = 24.83735 28.33120 26.58428
#
# Velocity S-wave (km/s) = 3.57046 3.81332 3.69389
# Velocity P-wave (km/s) = 5.74760 6.26316 6.01091
#
# Compressibility (1/GPa) = 0.03200440
#
# Stress axis : x y z
#
# Youngs Moduli (GPa) = 91.74881 73.79275 30.41829
#
# Poissons Ratio (x) = 0.14447 0.10665
# Poissons Ratio (y) = 0.17962 0.21891
# Poissons Ratio (z) = 0.32169 0.53107
#
# Static dielectric constant tensor:
#      x y z
#    x 4.085010 0.000000 0.000000 
#    y 0.000000 3.146350 0.000000 
#    z 0.000000 0.000000 3.247030 
# 
# 
# High freq. dielectric constant tensor:
#      x y z
#    x 1.783410 0.000000 0.000000 
#    y 0.000000 1.726800 0.000000 
#    z 0.000000 0.000000 1.732440 
# 
# From -- ./inp_files/47002.got.cif
#   From: 2010.03.12/outbox.cif.g09.slc.cpg/sg74_24_cif.got.tgz:47002.got - 2010.04.16 15:46:19.
