data_PCOD8301216
_publ_section_title
;
Structure prediction by ZEFSAII (Michael W. Deem and Ramdas Pophale) SiO2 
 PCOD8301216
Probable space group: I M M A
;
_chemical_formula_sum "Si O2"
_cell_formula_units_Z 64
_cell_length_a 25.377792
_cell_length_b 10.501219
_cell_length_c 11.777911
_cell_angle_alpha 90.000000
_cell_angle_beta 90.000000
_cell_angle_gamma 90.000000
_cell_volume 3138.786799
_symmetry_space_group_name_H-M "I M M A"
_symmetry_group_IT_number 74
_symmetry_cell_setting 'orthorhombic'
loop_
_space_group_symop_operation_xyz
x,y,z
-x,1/2-y,z
x,-y,-z
-x,1/2+y,-z
-x,-y,-z
x,1/2+y,-z
-x,y,z
x,1/2-y,z
1/2+x,1/2+y,1/2+z
1/2-x,-y,1/2+z
1/2+x,1/2-y,1/2-z
1/2-x,y,1/2-z
1/2-x,1/2-y,1/2-z
1/2+x,y,1/2-z
1/2-x,1/2+y,1/2+z
1/2+x,-y,1/2+z
loop_
_atom_site_type_symbol
_atom_site_label
_atom_site_fract_x
_atom_site_fract_y
_atom_site_fract_z
Si Si1 0.500000 0.891523 0.594220
Si Si2 0.769306 0.750000 0.931594
Si Si3 0.823473 0.500000 0.000000
Si Si4 0.103900 0.970867 0.785267
Si Si5 0.668656 0.250000 0.198499
Si Si6 0.061972 0.891259 0.414417
O O1 0.500000 0.750000 0.537870
O O2 0.448477 0.901892 0.671065
O O3 0.500000 0.000000 0.500000
O O4 0.786445 0.875848 0.999994
O O5 0.706160 0.750000 0.912691
O O6 0.797066 0.750000 0.811535
O O7 0.860056 0.513483 0.110149
O O8 0.133146 0.875371 0.699582
O O9 0.089052 0.092514 0.708888
O O10 0.076540 0.750000 0.460902
O O11 0.000000 0.904817 0.396283
O O12 0.082373 0.000000 0.500000
#
# Coordination Sequence:
#
# PCOD8301216 Si02
#       6
#     8   8   8  16   8  16
#     4  12  24  36  59 102 147 180 213 255 327 419
#     4   9  20  42  62  88 118 163 210 279 321 390
#     4  10  22  37  68  96 128 163 212 272 350 396
#     4  11  21  38  64  97 131 173 214 265 331 410
#     4   9  20  39  64  83 121 169 219 252 327 383
#     4  10  23  40  59  85 126 177 220 266 311 384
#
# _framework density 20.390044
#
# number of rings (size 3 to 8) (size 9 to 14) (size 15 to 20)
#    0.000    1.750    3.750    0.000    3.500    1.000 
#    2.250    0.000    0.000    3.000    0.000    0.000 
#    0.000    0.000    0.000    0.000    0.000    0.000 
#
# Total GULP energy -396755.845294 kJ/mol
# GULP energy per Si atom -12398.620165 kJ/mol
# Density = 2.034363 g / cm^3
# Si number density = 20.390044 Si / 1000 Ang^3
#
#
#
# Elastic Constant Matrix: (Units=GPa)
#
#
# Indices 1 2 3 4 5 6 
#
# 1 114.1496 59.2934 42.5993 0.0000 0.0000 0.0000
# 2 59.2934 180.7101 71.3542 0.0000 0.0000 0.0000
# 3 42.5993 71.3542 93.4426 0.0000 0.0000 0.0000
# 4 0.0000 0.0000 0.0000 37.1868 0.0000 0.0000
# 5 0.0000 0.0000 0.0000 0.0000 26.5788 0.0000
# 6 0.0000 0.0000 0.0000 0.0000 0.0000 12.7157
#
#
#
# Elastic Compliance Matrix: (Units=1/GPa)
#
#
# Indices 1 2 3 4 5 6 
#
# 1 0.011229 -0.002381 -0.003301 0.000000 0.000000 0.000000
# 2 -0.002381 0.008427 -0.005350 0.000000 0.000000 0.000000
# 3 -0.003301 -0.005350 0.016292 0.000000 0.000000 0.000000
# 4 0.000000 0.000000 0.000000 0.026891 0.000000 0.000000
# 5 0.000000 0.000000 0.000000 0.000000 0.037624 0.000000
# 6 0.000000 0.000000 0.000000 0.000000 0.000000 0.078643
#
#
# Mechanical properties :
#
#
# Convention : Reuss Voigt Hill
#
# Bulk Modulus (GPa) = 72.02197 81.64402 76.83299
# Shear Modulus (GPa) = 24.29565 29.63329 26.96447
#
# Velocity S-wave (km/s) = 3.45562 3.81638 3.64047
# Velocity P-wave (km/s) = 7.16384 7.71672 7.44541
#
# Compressibility (1/GPa) = 0.01388465
#
# Stress axis : x y z
#
# Youngs Moduli (GPa) = 89.05420 118.66122 61.38039
#
# Poissons Ratio (x) = 0.28253 0.20262
# Poissons Ratio (y) = 0.21204 0.32837
# Poissons Ratio (z) = 0.29397 0.63481
#
# Static dielectric constant tensor:
#      x y z
#    x 3.930660 0.000000 0.000000 
#    y 0.000000 3.752000 0.000000 
#    z 0.000000 0.000000 3.505310 
# 
# 
# High freq. dielectric constant tensor:
#      x y z
#    x 1.797240 0.000000 0.000000 
#    y 0.000000 1.800770 0.000000 
#    z 0.000000 0.000000 1.784280 
# 
# From -- ./inp_files/24705.got.cif
#   From: 2010.03.12/outbox.cif.g09.slc.cpg/sg74_13_cif.got.tgz:24705.got - 2010.04.16 15:46:19.
