data_PCOD8301000
_publ_section_title
;
Structure prediction by ZEFSAII (Michael W. Deem and Ramdas Pophale) SiO2 
 PCOD8301000
Probable space group: I M M A
;
_chemical_formula_sum "Si O2"
_cell_formula_units_Z 80
_cell_length_a 18.057071
_cell_length_b 8.865153
_cell_length_c 25.523401
_cell_angle_alpha 90.000000
_cell_angle_beta 90.000000
_cell_angle_gamma 90.000000
_cell_volume 4085.752779
_symmetry_space_group_name_H-M "I M M A"
_symmetry_group_IT_number 74
_symmetry_cell_setting 'orthorhombic'
loop_
_space_group_symop_operation_xyz
x,y,z
-x,1/2-y,z
x,-y,-z
-x,1/2+y,-z
-x,-y,-z
x,1/2+y,-z
-x,y,z
x,1/2-y,z
1/2+x,1/2+y,1/2+z
1/2-x,-y,1/2+z
1/2+x,1/2-y,1/2-z
1/2-x,y,1/2-z
1/2-x,1/2-y,1/2-z
1/2+x,y,1/2-z
1/2-x,1/2+y,1/2+z
1/2+x,-y,1/2+z
loop_
_atom_site_type_symbol
_atom_site_label
_atom_site_fract_x
_atom_site_fract_y
_atom_site_fract_z
Si Si1 0.333485 0.426669 0.849977
Si Si2 0.415971 0.571959 0.553481
Si Si3 0.677526 0.074235 0.347004
Si Si4 0.084659 0.072754 0.445456
Si Si5 0.086094 0.422210 0.256452
O O1 0.337478 0.250000 0.860195
O O2 0.250183 0.476133 0.838305
O O3 0.361979 0.511531 0.901048
O O4 0.383869 0.466758 0.800524
O O5 0.384919 0.500000 0.500000
O O6 0.500000 0.516780 0.564124
O O7 0.413337 0.750000 0.547829
O O8 0.364397 0.517723 0.600979
O O9 0.698885 0.250000 0.350841
O O10 0.624448 0.042348 0.298365
O O11 0.095030 0.250000 0.450184
O O12 0.000000 0.029367 0.431730
O O13 0.109305 0.000000 0.500000
O O14 0.101247 0.250000 0.274185
O O15 0.000000 0.452885 0.248400
#
# Coordination Sequence:
#
# PCOD8301000 Si02
#       5
#    16  16  16  16  16
#     4  12  25  38  55  83 119 154 188 229 280 338
#     4   9  18  34  57  84 112 144 184 229 277 330
#     4  10  21  38  59  82 112 149 189 235 285 336
#     4  10  21  39  63  88 114 147 189 235 282 334
#     4  10  21  39  63  86 108 142 190 239 288 343
#
# _framework density 19.580234000000001
#
# number of rings (size 3 to 8) (size 9 to 14) (size 15 to 20)
#    0.000    1.800    0.000    4.200    0.000   11.200 
#    0.000    2.000    0.000    3.600    0.000    0.000 
#    0.000    0.000    0.000    0.000    0.000    0.000 
#
# Total GULP energy -496221.848514 kJ/mol
# GULP energy per Si atom -12405.546213 kJ/mol
# Density = 1.953567 g / cm^3
# Si number density = 19.580234 Si / 1000 Ang^3
#
#
#
# Elastic Constant Matrix: (Units=GPa)
#
#
# Indices 1 2 3 4 5 6 
#
# 1 106.3872 30.6878 55.9487 0.0000 0.0000 0.0000
# 2 30.6878 58.5861 40.5708 0.0000 0.0000 0.0000
# 3 55.9487 40.5708 130.5419 0.0000 0.0000 0.0000
# 4 0.0000 0.0000 0.0000 37.2427 0.0000 0.0000
# 5 0.0000 0.0000 0.0000 0.0000 80.3198 0.0000
# 6 0.0000 0.0000 0.0000 0.0000 0.0000 119.9177
#
#
#
# Elastic Compliance Matrix: (Units=1/GPa)
#
#
# Indices 1 2 3 4 5 6 
#
# 1 0.012729 -0.003682 -0.004311 0.000000 0.000000 0.000000
# 2 -0.003682 0.022815 -0.005513 0.000000 0.000000 0.000000
# 3 -0.004311 -0.005513 0.011221 0.000000 0.000000 0.000000
# 4 0.000000 0.000000 0.000000 0.026851 0.000000 0.000000
# 5 0.000000 0.000000 0.000000 0.000000 0.012450 0.000000
# 6 0.000000 0.000000 0.000000 0.000000 0.000000 0.008339
#
#
# Mechanical properties :
#
#
# Convention : Reuss Voigt Hill
#
# Bulk Modulus (GPa) = 50.62314 61.10332 55.86323
# Shear Modulus (GPa) = 39.06201 58.71655 48.88928
#
# Velocity S-wave (km/s) = 4.47136 5.48204 5.00229
# Velocity P-wave (km/s) = 7.25036 8.44658 7.87123
#
# Compressibility (1/GPa) = 0.01975381
#
# Stress axis : x y z
#
# Youngs Moduli (GPa) = 78.56111 43.83076 89.11609
#
# Poissons Ratio (x) = 0.16139 0.38419
# Poissons Ratio (y) = 0.28927 0.49126
# Poissons Ratio (z) = 0.33869 0.24162
#
# Static dielectric constant tensor:
#      x y z
#    x 3.642770 0.000000 0.000000 
#    y 0.000000 3.507640 0.000000 
#    z 0.000000 0.000000 3.981930 
# 
# 
# High freq. dielectric constant tensor:
#      x y z
#    x 1.768500 0.000000 0.000000 
#    y 0.000000 1.754590 0.000000 
#    z 0.000000 0.000000 1.778060 
# 
# From -- ./inp_files/67524.got.cif
#   From: 2010.03.12/outbox.cif.g09.slc.cpg/sg74_34_cif.got.tgz:67524.got - 2010.04.16 15:46:19.
