data_PCOD8301998
_publ_section_title
;
Structure prediction by ZEFSAII (Michael W. Deem and Ramdas Pophale) SiO2 
 PCOD8301998
Probable space group: P 42
;
_chemical_formula_sum "Si O2"
_cell_formula_units_Z 24
_cell_length_a 11.193512
_cell_length_b 11.193512
_cell_length_c 8.540872
_cell_angle_alpha 90.000000
_cell_angle_beta 90.000000
_cell_angle_gamma 90.000000
_cell_volume 1070.126088
_symmetry_space_group_name_H-M "P 42"
_symmetry_group_IT_number 77
_symmetry_cell_setting 'tetragonal'
loop_
_space_group_symop_operation_xyz
x,y,z
-y,x,1/2+z
-x,-y,z
y,-x,1/2+z
loop_
_atom_site_type_symbol
_atom_site_label
_atom_site_fract_x
_atom_site_fract_y
_atom_site_fract_z
Si Si1 0.017333 0.360478 0.684800
Si Si2 0.791938 0.224022 0.264226
Si Si3 0.591219 0.642654 0.300637
Si Si4 0.154045 0.740397 0.921394
Si Si5 0.866952 0.994161 0.964540
Si Si6 0.355637 0.601950 0.440919
O O1 0.156249 0.331704 0.717507
O O2 0.973348 0.251656 0.571192
O O3 0.000000 0.500000 0.625200
O O4 0.946296 0.345134 0.847026
O O5 0.761233 0.325070 0.390287
O O6 0.886695 0.131459 0.338873
O O7 0.850847 0.279368 0.108605
O O8 0.703423 0.720160 0.349393
O O9 0.477911 0.676572 0.410757
O O10 0.633178 0.507866 0.323090
O O11 0.559616 0.660828 0.118224
O O12 0.144268 0.879508 0.875681
O O13 0.000000 0.000000 0.047633
#
# Coordination Sequence:
#
# PCOD8301998 Si02
#       6
#     4   4   4   4   4   4
#     4  11  25  44  70 102 143 187 251 317 372 436
#     4  11  24  41  67 100 138 188 245 301 373 445
#     4  11  22  40  65  96 134 187 232 303 370 457
#     4  11  24  40  67  97 139 179 244 296 374 432
#     4  11  25  45  71 102 140 196 243 300 372 459
#     4  11  22  40  66  95 138 181 243 295 379 451
#
# _framework density 22.427261000000001
#
# number of rings (size 3 to 8) (size 9 to 14) (size 15 to 20)
#    0.000    1.000    1.667    6.000    4.667    5.333 
#    0.000    0.833    0.000    0.000    0.000    0.000 
#    0.000    0.000    0.000    0.000    0.000    0.000 
#
# Total GULP energy -297389.025963 kJ/mol
# GULP energy per Si atom -12391.209415 kJ/mol
# Density = 2.237622 g / cm^3
# Si number density = 22.427261 Si / 1000 Ang^3
#
#
#
# Elastic Constant Matrix: (Units=GPa)
#
#
# Indices 1 2 3 4 5 6 
#
# 1 94.2195 44.9426 31.4960 0.0000 0.0000 2.4343
# 2 44.9426 94.2195 31.4960 0.0000 0.0000 -2.4343
# 3 31.4960 31.4960 104.8273 0.0000 0.0000 0.0000
# 4 0.0000 0.0000 0.0000 37.3867 0.0000 0.0000
# 5 0.0000 0.0000 0.0000 0.0000 37.3867 0.0000
# 6 2.4343 -2.4343 0.0000 0.0000 0.0000 39.8090
#
#
#
# Elastic Compliance Matrix: (Units=1/GPa)
#
#
# Indices 1 2 3 4 5 6 
#
# 1 0.014367 -0.006050 -0.002499 0.000000 0.000000 -0.001248
# 2 -0.006050 0.014367 -0.002499 0.000000 0.000000 0.001248
# 3 -0.002499 -0.002499 0.011041 0.000000 0.000000 0.000000
# 4 0.000000 0.000000 0.000000 0.026747 0.000000 0.000000
# 5 0.000000 0.000000 0.000000 0.000000 0.026747 0.000000
# 6 -0.001248 0.001248 0.000000 0.000000 0.000000 0.025273
#
#
# Mechanical properties :
#
#
# Convention : Reuss Voigt Hill
#
# Bulk Modulus (GPa) = 56.56256 56.57059 56.56657
# Shear Modulus (GPa) = 34.12244 35.27192 34.69718
#
# Velocity S-wave (km/s) = 3.90484 3.97006 3.93758
# Velocity P-wave (km/s) = 6.75319 6.80397 6.77862
#
# Compressibility (1/GPa) = 0.01767954
#
# Stress axis : x y z
#
# Youngs Moduli (GPa) = 69.60436 69.60436 90.57060
#
# Poissons Ratio (x) = 0.42110 0.22633
# Poissons Ratio (y) = 0.42110 0.22633
# Poissons Ratio (z) = 0.17393 0.17393
#
# Static dielectric constant tensor:
#      x y z
#    x 4.233990 0.000000 0.000000 
#    y 0.000000 4.233990 0.000000 
#    z 0.000000 0.000000 3.901340 
# 
# 
# High freq. dielectric constant tensor:
#      x y z
#    x 1.887190 0.000000 0.000000 
#    y 0.000000 1.887190 0.000000 
#    z 0.000000 0.000000 1.874320 
# 
# From -- ./inp_files/421.got.cif
#   From: 2010.03.12/outbox.cif.g09.slc.cpg/sg77_cif.got.tgz:421.got - 2010.04.16 16:36:19.
