data_PCOD8301380
_publ_section_title
;
Structure prediction by ZEFSAII (Michael W. Deem and Ramdas Pophale) SiO2 
 PCOD8301380
Probable space group: I M M A
;
_chemical_formula_sum "Si O2"
_cell_formula_units_Z 104
_cell_length_a 24.938105
_cell_length_b 22.881328
_cell_length_c 8.644436
_cell_angle_alpha 90.000000
_cell_angle_beta 90.000000
_cell_angle_gamma 90.000000
_cell_volume 4932.661793
_symmetry_space_group_name_H-M "I M M A"
_symmetry_group_IT_number 74
_symmetry_cell_setting 'orthorhombic'
loop_
_space_group_symop_operation_xyz
x,y,z
-x,1/2-y,z
x,-y,-z
-x,1/2+y,-z
-x,-y,-z
x,1/2+y,-z
-x,y,z
x,1/2-y,z
1/2+x,1/2+y,1/2+z
1/2-x,-y,1/2+z
1/2+x,1/2-y,1/2-z
1/2-x,y,1/2-z
1/2-x,1/2-y,1/2-z
1/2+x,y,1/2-z
1/2-x,1/2+y,1/2+z
1/2+x,-y,1/2+z
loop_
_atom_site_type_symbol
_atom_site_label
_atom_site_fract_x
_atom_site_fract_y
_atom_site_fract_z
Si Si1 0.560314 0.981159 0.324496
Si Si2 0.750000 0.488155 0.750000
Si Si3 0.148364 0.591172 0.327400
Si Si4 0.209168 0.900531 0.864422
Si Si5 0.604134 0.090368 0.172035
Si Si6 0.940380 0.315803 0.126636
Si Si7 0.341366 0.817879 0.404850
O O1 0.500000 0.957045 0.304205
O O2 0.602770 0.931102 0.288969
O O3 0.570401 0.000000 0.500000
O O4 0.568105 0.033476 0.201503
O O5 0.798564 0.448473 0.687356
O O6 0.767041 0.533412 0.891061
O O7 0.126172 0.592062 0.499484
O O8 0.157646 0.658123 0.271111
O O9 0.250000 0.865804 0.750000
O O10 0.152654 0.911989 0.788719
O O11 0.203393 0.859984 0.015109
O O12 0.569863 0.147129 0.217697
O O13 0.936227 0.250000 0.185777
O O14 0.000000 0.330299 0.061886
O O15 0.898473 0.326733 0.988599
O O16 0.323532 0.750000 0.406114
#
# Coordination Sequence:
#
# PCOD8301380 Si02
#       7
#    16   8  16  16  16  16  16
#     4  11  23  40  62  91 127 166 212 267 333 403
#     4  10  24  40  66  94 126 170 226 262 324 394
#     4  12  26  38  63  92 134 172 212 266 328 404
#     4   9  20  38  66  88 117 160 218 276 313 379
#     4  11  22  38  57  96 127 163 208 268 332 391
#     4   9  19  40  68  90 117 166 223 271 318 388
#     4  10  23  42  63  93 128 168 218 271 329 392
#
# _framework density 21.083950999999999
#
# number of rings (size 3 to 8) (size 9 to 14) (size 15 to 20)
#    0.462    1.231    1.538    2.769    2.154    5.846 
#    0.000    0.385    0.000    1.846    0.000    0.000 
#    0.000    0.000    0.000    0.000    0.000    0.000 
#
# Total GULP energy -644278.880244 kJ/mol
# GULP energy per Si atom -12389.978466 kJ/mol
# Density = 2.103596 g / cm^3
# Si number density = 21.083951 Si / 1000 Ang^3
#
#
#
# Elastic Constant Matrix: (Units=GPa)
#
#
# Indices 1 2 3 4 5 6 
#
# 1 85.8099 37.9454 21.3683 0.0000 0.0000 0.0000
# 2 37.9454 120.6512 54.7937 0.0000 0.0000 0.0000
# 3 21.3683 54.7937 104.0294 0.0000 0.0000 0.0000
# 4 0.0000 0.0000 0.0000 72.3394 0.0000 0.0000
# 5 0.0000 0.0000 0.0000 0.0000 5.9399 0.0000
# 6 0.0000 0.0000 0.0000 0.0000 0.0000 18.8541
#
#
#
# Elastic Compliance Matrix: (Units=1/GPa)
#
#
# Indices 1 2 3 4 5 6 
#
# 1 0.013576 -0.003948 -0.000709 0.000000 0.000000 0.000000
# 2 -0.003948 0.012042 -0.005532 0.000000 0.000000 0.000000
# 3 -0.000709 -0.005532 0.012672 0.000000 0.000000 0.000000
# 4 0.000000 0.000000 0.000000 0.013824 0.000000 0.000000
# 5 0.000000 0.000000 0.000000 0.000000 0.168352 0.000000
# 6 0.000000 0.000000 0.000000 0.000000 0.000000 0.053039
#
#
# Mechanical properties :
#
#
# Convention : Reuss Voigt Hill
#
# Bulk Modulus (GPa) = 55.82673 59.85617 57.84145
# Shear Modulus (GPa) = 16.67483 32.51888 24.59686
#
# Velocity S-wave (km/s) = 2.81531 3.93154 3.41928
# Velocity P-wave (km/s) = 6.09128 7.00431 6.56369
#
# Compressibility (1/GPa) = 0.01791257
#
# Stress axis : x y z
#
# Youngs Moduli (GPa) = 73.65975 83.04119 78.91333
#
# Poissons Ratio (x) = 0.32781 0.05598
# Poissons Ratio (y) = 0.29078 0.43654
# Poissons Ratio (z) = 0.05225 0.45938
#
# Static dielectric constant tensor:
#      x y z
#    x 4.160810 0.000000 0.000000 
#    y 0.000000 4.031500 0.000000 
#    z 0.000000 0.000000 3.874920 
# 
# 
# High freq. dielectric constant tensor:
#      x y z
#    x 1.840070 0.000000 0.000000 
#    y 0.000000 1.821670 0.000000 
#    z 0.000000 0.000000 1.810310 
# 
# From -- ./inp_files/15224.got.cif
#   From: 2010.03.12/outbox.cif.g09.slc.cpg/sg74_8_cif.got.tgz:15224.got - 2010.04.16 15:46:19.
