data_PCOD8301512
_publ_section_title
;
Structure prediction by ZEFSAII (Michael W. Deem and Ramdas Pophale) SiO2 
 PCOD8301512
Probable space group: I M M A
;
_chemical_formula_sum "Si O2"
_cell_formula_units_Z 88
_cell_length_a 27.350944
_cell_length_b 12.006605
_cell_length_c 15.088677
_cell_angle_alpha 90.000000
_cell_angle_beta 90.000000
_cell_angle_gamma 90.000000
_cell_volume 4955.000530
_symmetry_space_group_name_H-M "I M M A"
_symmetry_group_IT_number 74
_symmetry_cell_setting 'orthorhombic'
loop_
_space_group_symop_operation_xyz
x,y,z
-x,1/2-y,z
x,-y,-z
-x,1/2+y,-z
-x,-y,-z
x,1/2+y,-z
-x,y,z
x,1/2-y,z
1/2+x,1/2+y,1/2+z
1/2-x,-y,1/2+z
1/2+x,1/2-y,1/2-z
1/2-x,y,1/2-z
1/2-x,1/2-y,1/2-z
1/2+x,y,1/2-z
1/2-x,1/2+y,1/2+z
1/2+x,-y,1/2+z
loop_
_atom_site_type_symbol
_atom_site_label
_atom_site_fract_x
_atom_site_fract_y
_atom_site_fract_z
Si Si1 0.555907 0.750000 0.503447
Si Si2 0.359979 0.514204 0.728596
Si Si3 0.856680 0.750000 0.854756
Si Si4 0.746746 0.250000 0.143062
Si Si5 0.554837 0.628007 0.333047
Si Si6 0.194907 0.521966 0.594294
Si Si7 0.723906 0.125666 0.656134
O O1 0.500000 0.750000 0.543940
O O2 0.599025 0.750000 0.575255
O O3 0.562095 0.640565 0.440180
O O4 0.361006 0.644197 0.708681
O O5 0.413367 0.465872 0.713216
O O6 0.344235 0.494507 0.829840
O O7 0.324549 0.448821 0.661260
O O8 0.802028 0.750000 0.897579
O O9 0.750000 0.250000 0.250000
O O10 0.717277 0.143538 0.109500
O O11 0.500000 0.590156 0.312904
O O12 0.565526 0.750000 0.289752
O O13 0.168268 0.500000 0.500000
O O14 0.238914 0.432485 0.589241
O O15 0.710396 0.250000 0.623012
O O16 0.750000 0.129792 0.750000
#
# Coordination Sequence:
#
# PCOD8301512 Si02
#       7
#     8  16   8   8  16  16  16
#     4   8  20  40  57  90 120 139 184 243 289 344
#     4  11  20  36  57  79 112 152 193 231 285 351
#     4  12  22  34  60  77 113 167 192 217 285 355
#     4  12  20  44  55  73 120 168 195 228 295 353
#     4   8  18  39  61  82 114 144 176 233 302 353
#     4  11  23  36  55  80 112 154 199 244 281 335
#     4   9  18  33  52  75 105 141 183 243 286 321
#
# _framework density 17.759836
#
# number of rings (size 3 to 8) (size 9 to 14) (size 15 to 20)
#    0.545    1.455    3.636    1.091    1.273    3.636 
#    0.000    1.818    0.000    0.545    0.000    0.000 
#    0.000    0.000    0.000    0.000    0.000    0.000 
#
# Total GULP energy -545244.261909 kJ/mol
# GULP energy per Si atom -12391.915043 kJ/mol
# Density = 1.771941 g / cm^3
# Si number density = 17.759836 Si / 1000 Ang^3
#
#
#
# Elastic Constant Matrix: (Units=GPa)
#
#
# Indices 1 2 3 4 5 6 
#
# 1 94.8330 37.5806 31.6967 0.0000 0.0000 0.0000
# 2 37.5806 120.0652 31.5240 0.0000 0.0000 0.0000
# 3 31.6967 31.5240 77.1857 0.0000 0.0000 0.0000
# 4 0.0000 0.0000 0.0000 15.9595 0.0000 0.0000
# 5 0.0000 0.0000 0.0000 0.0000 26.6060 0.0000
# 6 0.0000 0.0000 0.0000 0.0000 0.0000 27.4560
#
#
#
# Elastic Compliance Matrix: (Units=1/GPa)
#
#
# Indices 1 2 3 4 5 6 
#
# 1 0.013131 -0.003018 -0.004160 0.000000 0.000000 0.000000
# 2 -0.003018 0.010023 -0.002854 0.000000 0.000000 0.000000
# 3 -0.004160 -0.002854 0.015830 0.000000 0.000000 0.000000
# 4 0.000000 0.000000 0.000000 0.062659 0.000000 0.000000
# 5 0.000000 0.000000 0.000000 0.000000 0.037586 0.000000
# 6 0.000000 0.000000 0.000000 0.000000 0.000000 0.036422
#
#
# Mechanical properties :
#
#
# Convention : Reuss Voigt Hill
#
# Bulk Modulus (GPa) = 52.85438 54.85406 53.85422
# Shear Modulus (GPa) = 24.74999 26.75645 25.75322
#
# Velocity S-wave (km/s) = 3.73714 3.88567 3.81213
# Velocity P-wave (km/s) = 6.96037 7.14737 7.05449
#
# Compressibility (1/GPa) = 0.01891991
#
# Stress axis : x y z
#
# Youngs Moduli (GPa) = 76.15480 99.77253 63.17226
#
# Poissons Ratio (x) = 0.30110 0.26279
# Poissons Ratio (y) = 0.22983 0.18031
# Poissons Ratio (z) = 0.31679 0.28477
#
# Static dielectric constant tensor:
#      x y z
#    x 3.200090 0.000000 0.000000 
#    y 0.000000 3.456910 0.000000 
#    z 0.000000 0.000000 3.058950 
# 
# 
# High freq. dielectric constant tensor:
#      x y z
#    x 1.673480 0.000000 0.000000 
#    y 0.000000 1.697840 0.000000 
#    z 0.000000 0.000000 1.659100 
# 
# From -- ./inp_files/37245.got.cif
#   From: 2010.03.12/outbox.cif.g09.slc.cpg/sg74_19_cif.got.tgz:37245.got - 2010.04.16 15:46:19.
