data_PCOD8301681
_publ_section_title
;
Structure prediction by ZEFSAII (Michael W. Deem and Ramdas Pophale) SiO2 
 PCOD8301681
Probable space group: I M M A
;
_chemical_formula_sum "Si O2"
_cell_formula_units_Z 88
_cell_length_a 29.135626
_cell_length_b 21.917406
_cell_length_c 6.587249
_cell_angle_alpha 90.000000
_cell_angle_beta 90.000000
_cell_angle_gamma 90.000000
_cell_volume 4206.467971
_symmetry_space_group_name_H-M "I M M A"
_symmetry_group_IT_number 74
_symmetry_cell_setting 'orthorhombic'
loop_
_space_group_symop_operation_xyz
x,y,z
-x,1/2-y,z
x,-y,-z
-x,1/2+y,-z
-x,-y,-z
x,1/2+y,-z
-x,y,z
x,1/2-y,z
1/2+x,1/2+y,1/2+z
1/2-x,-y,1/2+z
1/2+x,1/2-y,1/2-z
1/2-x,y,1/2-z
1/2-x,1/2-y,1/2-z
1/2+x,y,1/2-z
1/2-x,1/2+y,1/2+z
1/2+x,-y,1/2+z
loop_
_atom_site_type_symbol
_atom_site_label
_atom_site_fract_x
_atom_site_fract_y
_atom_site_fract_z
Si Si1 0.250000 0.144665 0.750000
Si Si2 0.220387 0.750000 0.954408
Si Si3 0.379793 0.000000 0.500000
Si Si4 0.167621 0.559629 0.361555
Si Si5 0.550837 0.543994 0.818852
Si Si6 0.409023 0.151423 0.008112
Si Si7 0.054887 0.250000 0.795591
Si Si8 0.617298 0.750000 0.679060
O O1 0.269476 0.188140 0.574927
O O2 0.212567 0.101086 0.648367
O O3 0.250000 0.750000 0.750000
O O4 0.166130 0.750000 0.926209
O O5 0.346550 0.958336 0.366180
O O6 0.412892 0.958368 0.636965
O O7 0.176917 0.500000 0.500000
O O8 0.127695 0.600750 0.450650
O O9 0.500000 0.524657 0.744978
O O10 0.567893 0.500000 0.000000
O O11 0.548407 0.613627 0.898731
O O12 0.427228 0.189903 0.818564
O O13 0.385966 0.191470 0.180235
O O14 0.000000 0.250000 0.808741
O O15 0.075731 0.250000 0.019407
#
# Coordination Sequence:
#
# PCOD8301681 Si02
#       8
#     8   8   8  16  16  16   8   8
#     4  11  28  44  72 106 140 177 230 288 348 425
#     4  11  24  49  75 105 136 180 235 291 349 422
#     4  12  23  42  66  98 130 182 226 262 337 412
#     4  12  26  46  68 101 143 178 226 283 349 413
#     4  11  23  41  65  97 133 174 225 281 333 397
#     4  11  23  46  65  94 138 179 222 284 342 396
#     4  11  26  43  66 100 136 180 236 290 341 404
#     4  11  26  42  74  97 131 184 231 283 347 414
#
# _framework density 20.920164
#
# number of rings (size 3 to 8) (size 9 to 14) (size 15 to 20)
#    0.000    0.727    3.636    3.000    6.364    6.545 
#    0.000    0.000    0.000    0.000    0.000    0.000 
#    0.000    0.000    0.000    0.000    0.000    0.000 
#
# Total GULP energy -545642.740073 kJ/mol
# GULP energy per Si atom -12400.971365 kJ/mol
# Density = 2.087255 g / cm^3
# Si number density = 20.920164 Si / 1000 Ang^3
#
#
#
# Elastic Constant Matrix: (Units=GPa)
#
#
# Indices 1 2 3 4 5 6 
#
# 1 130.6862 61.5257 49.7544 0.0000 0.0000 0.0000
# 2 61.5257 154.5229 61.3001 0.0000 0.0000 0.0000
# 3 49.7544 61.3001 121.2264 0.0000 0.0000 0.0000
# 4 0.0000 0.0000 0.0000 -8.9646 0.0000 0.0000
# 5 0.0000 0.0000 0.0000 0.0000 28.6508 0.0000
# 6 0.0000 0.0000 0.0000 0.0000 0.0000 30.1573
#
#
#
# Elastic Compliance Matrix: (Units=1/GPa)
#
#
# Indices 1 2 3 4 5 6 
#
# 1 0.010044 -0.002957 -0.002627 0.000000 0.000000 0.000000
# 2 -0.002957 0.008966 -0.003320 0.000000 0.000000 0.000000
# 3 -0.002627 -0.003320 0.011006 0.000000 0.000000 0.000000
# 4 0.000000 0.000000 0.000000 -0.111550 0.000000 0.000000
# 5 0.000000 0.000000 0.000000 0.000000 0.034903 0.000000
# 6 0.000000 0.000000 0.000000 0.000000 0.000000 0.033159
#
#
# Mechanical properties :
#
#
# Convention : Reuss Voigt Hill
#
# Bulk Modulus (GPa) = 81.91528 83.51066 82.71297
# Shear Modulus (GPa) = 594.72544 25.55906 310.14225
#
# Velocity S-wave (km/s) = 16.87900 3.49914 12.18902
# Velocity P-wave (km/s) = 20.47214 7.50538 15.41816
#
# Compressibility (1/GPa) = 0.01220773
#
# Stress axis : x y z
#
# Youngs Moduli (GPa) = 99.55912 111.53149 90.85817
#
# Poissons Ratio (x) = 0.32981 0.23870
# Poissons Ratio (y) = 0.29441 0.30166
# Poissons Ratio (z) = 0.26155 0.37030
#
# Static dielectric constant tensor:
#      x y z
#    x 3.947450 0.000000 0.000000 
#    y 0.000000 4.148790 0.000000 
#    z 0.000000 0.000000 3.912700 
# 
# 
# High freq. dielectric constant tensor:
#      x y z
#    x 1.828700 0.000000 0.000000 
#    y 0.000000 1.837000 0.000000 
#    z 0.000000 0.000000 1.826980 
# 
# From -- ./inp_files/5189.got.cif
#   From: 2010.03.12/outbox.cif.g09.slc.cpg/sg74_3_cif.got.tgz:5189.got - 2010.04.16 15:46:19.
