data_PCOD8301612
_publ_section_title
;
Structure prediction by ZEFSAII (Michael W. Deem and Ramdas Pophale) SiO2 
 PCOD8301612
Probable space group: I M M A
;
_chemical_formula_sum "Si O2"
_cell_formula_units_Z 72
_cell_length_a 14.255409
_cell_length_b 9.097715
_cell_length_c 29.183446
_cell_angle_alpha 90.000000
_cell_angle_beta 90.000000
_cell_angle_gamma 90.000000
_cell_volume 3784.849215
_symmetry_space_group_name_H-M "I M M A"
_symmetry_group_IT_number 74
_symmetry_cell_setting 'orthorhombic'
loop_
_space_group_symop_operation_xyz
x,y,z
-x,1/2-y,z
x,-y,-z
-x,1/2+y,-z
-x,-y,-z
x,1/2+y,-z
-x,y,z
x,1/2-y,z
1/2+x,1/2+y,1/2+z
1/2-x,-y,1/2+z
1/2+x,1/2-y,1/2-z
1/2-x,y,1/2-z
1/2-x,1/2-y,1/2-z
1/2+x,y,1/2-z
1/2-x,1/2+y,1/2+z
1/2+x,-y,1/2+z
loop_
_atom_site_type_symbol
_atom_site_label
_atom_site_fract_x
_atom_site_fract_y
_atom_site_fract_z
Si Si1 0.350635 0.923317 0.626448
Si Si2 0.845941 0.574731 0.362815
Si Si3 0.393490 0.093018 0.960763
Si Si4 0.500000 0.077811 0.300463
Si Si5 0.500000 0.426407 0.197416
Si Si6 0.000000 0.077747 0.049609
O O1 0.326136 0.750000 0.626437
O O2 0.409190 0.970053 0.671081
O O3 0.407630 0.963757 0.579810
O O4 0.260250 0.023029 0.633263
O O5 0.853186 0.750000 0.354633
O O6 0.891650 0.522377 0.410686
O O7 0.904699 0.490650 0.324208
O O8 0.500000 0.115244 0.976595
O O9 0.341113 0.250000 0.958870
O O10 0.340246 0.000000 0.000000
O O11 0.500000 0.250000 0.295583
O O12 0.500000 0.012523 0.249409
O O13 0.500000 0.250000 0.193427
O O14 0.000000 0.250000 0.040020
O O15 0.000000 0.000000 0.000000
#
# Coordination Sequence:
#
# PCOD8301612 Si02
#       6
#    16  16  16   8   8   8
#     4   9  19  38  60  82 109 146 188 229 272 327
#     4  11  22  37  54  81 118 148 177 226 283 332
#     4   9  18  33  50  69 100 141 177 213 257 307
#     4   8  18  39  62  81 105 138 185 238 278 317
#     4  11  22  37  60  83 104 143 190 231 274 330
#     4   9  19  36  60  86 116 149 186 231 277 323
#
# _framework density 19.023213999999999
#
# number of rings (size 3 to 8) (size 9 to 14) (size 15 to 20)
#    0.000    2.444    1.111    2.333    0.000    4.444 
#    0.000   12.778    0.000    0.000    0.000    0.000 
#    0.000    0.000    0.000    0.000    0.000    0.000 
#
# Total GULP energy -446011.309896 kJ/mol
# GULP energy per Si atom -12389.203053 kJ/mol
# Density = 1.897992 g / cm^3
# Si number density = 19.023214 Si / 1000 Ang^3
#
#
#
# Elastic Constant Matrix: (Units=GPa)
#
#
# Indices 1 2 3 4 5 6 
#
# 1 104.2894 44.5261 53.9032 0.0000 0.0000 0.0000
# 2 44.5261 72.3938 61.4064 0.0000 0.0000 0.0000
# 3 53.9032 61.4064 180.1360 0.0000 0.0000 0.0000
# 4 0.0000 0.0000 0.0000 26.6305 0.0000 0.0000
# 5 0.0000 0.0000 0.0000 0.0000 -46.0582 0.0000
# 6 0.0000 0.0000 0.0000 0.0000 0.0000 25.1338
#
#
#
# Elastic Compliance Matrix: (Units=1/GPa)
#
#
# Indices 1 2 3 4 5 6 
#
# 1 0.013356 -0.006787 -0.001683 0.000000 0.000000 0.000000
# 2 -0.006787 0.022881 -0.005769 0.000000 0.000000 0.000000
# 3 -0.001683 -0.005769 0.008022 0.000000 0.000000 0.000000
# 4 0.000000 0.000000 0.000000 0.037551 0.000000 0.000000
# 5 0.000000 0.000000 0.000000 0.000000 -0.021712 0.000000
# 6 0.000000 0.000000 0.000000 0.000000 0.000000 0.039787
#
#
# Mechanical properties :
#
#
# Convention : Reuss Voigt Hill
#
# Bulk Modulus (GPa) = 63.36872 75.16563 69.26717
# Shear Modulus (GPa) = 37.41827 14.27345 25.84586
#
# Velocity S-wave (km/s) = 4.43988 2.74216 3.68998
# Velocity P-wave (km/s) = 7.72444 7.04445 7.39227
#
# Compressibility (1/GPa) = 0.01578066
#
# Stress axis : x y z
#
# Youngs Moduli (GPa) = 74.87035 43.70370 124.66425
#
# Poissons Ratio (x) = 0.29663 0.20981
# Poissons Ratio (y) = 0.50817 0.71918
# Poissons Ratio (z) = 0.12601 0.25213
#
# Static dielectric constant tensor:
#      x y z
#    x 3.361170 0.000000 0.000000 
#    y 0.000000 3.605700 0.000000 
#    z 0.000000 0.000000 4.024920 
# 
# 
# High freq. dielectric constant tensor:
#      x y z
#    x 1.728770 0.000000 0.000000 
#    y 0.000000 1.729890 0.000000 
#    z 0.000000 0.000000 1.750540 
# 
# From -- ./inp_files/63670.got.cif
#   From: 2010.03.12/outbox.cif.g09.slc.cpg/sg74_32_cif.got.tgz:63670.got - 2010.04.16 15:46:19.
