data_PCOD8301968
_publ_section_title
;
Structure prediction by ZEFSAII (Michael W. Deem and Ramdas Pophale) SiO2 
 PCOD8301968
Probable space group: P 41
;
_chemical_formula_sum "Si O2"
_cell_formula_units_Z 16
_cell_length_a 11.434790
_cell_length_b 11.434790
_cell_length_c 4.879374
_cell_angle_alpha 90.000000
_cell_angle_beta 90.000000
_cell_angle_gamma 90.000000
_cell_volume 637.999729
_symmetry_space_group_name_H-M "P 41"
_symmetry_group_IT_number 76
_symmetry_cell_setting 'tetragonal'
loop_
_space_group_symop_operation_xyz
x,y,z
-y,x,1/4+z
-x,-y,1/2+z
y,-x,3/4+z
loop_
_atom_site_type_symbol
_atom_site_label
_atom_site_fract_x
_atom_site_fract_y
_atom_site_fract_z
Si Si1 0.186861 0.501269 0.497960
Si Si2 0.736741 0.077597 0.680416
Si Si3 0.511737 0.326624 0.243936
Si Si4 0.257692 0.075851 0.680281
O O1 0.130191 0.389350 0.342745
O O2 0.223933 0.446449 0.791434
O O3 0.116089 0.619055 0.561908
O O4 0.287183 0.542437 0.283583
O O5 0.824076 0.165747 0.840737
O O6 0.794308 0.016426 0.407487
O O7 0.704971 0.979026 0.895652
O O8 0.617351 0.412320 0.303612
#
# Coordination Sequence:
#
# PCOD8301968 Si02
#       4
#     4   4   4   4
#     4  12  25  45  72 104 144 190 241 301 364 432
#     4  12  26  47  74 107 146 191 244 301 364 432
#     4  12  23  39  64 102 146 192 239 289 360 438
#     4  12  26  47  74 107 146 191 244 301 364 432
#
# _framework density 25.078381
#
# number of rings (size 3 to 8) (size 9 to 14) (size 15 to 20)
#    0.000    0.000    0.000   12.000    0.000    2.000 
#    0.000    0.000    0.000    0.000    0.000    0.000 
#    0.000    0.000    0.000    0.000    0.000    0.000 
#
# Total GULP energy -198258.580395 kJ/mol
# GULP energy per Si atom -12391.161275 kJ/mol
# Density = 2.502130 g / cm^3
# Si number density = 25.078381 Si / 1000 Ang^3
#
#
#
# Elastic Constant Matrix: (Units=GPa)
#
#
# Indices 1 2 3 4 5 6 
#
# 1 91.5357 42.2814 28.9585 0.0000 0.0000 -1.9263
# 2 42.2814 91.5357 28.9585 0.0000 0.0000 1.9263
# 3 28.9585 28.9585 158.9429 0.0000 0.0000 0.0000
# 4 0.0000 0.0000 0.0000 49.8484 0.0000 0.0000
# 5 0.0000 0.0000 0.0000 0.0000 49.8484 0.0000
# 6 -1.9263 1.9263 0.0000 0.0000 0.0000 19.4354
#
#
#
# Elastic Compliance Matrix: (Units=1/GPa)
#
#
# Indices 1 2 3 4 5 6 
#
# 1 0.014287 -0.006174 -0.001478 0.000000 0.000000 0.002028
# 2 -0.006174 0.014287 -0.001478 0.000000 0.000000 -0.002028
# 3 -0.001478 -0.001478 0.006830 0.000000 0.000000 0.000000
# 4 0.000000 0.000000 0.000000 0.020061 0.000000 0.000000
# 5 0.000000 0.000000 0.000000 0.000000 0.020061 0.000000
# 6 0.002028 -0.002028 0.000000 0.000000 0.000000 0.051855
#
#
# Mechanical properties :
#
#
# Convention : Reuss Voigt Hill
#
# Bulk Modulus (GPa) = 58.33253 60.26788 59.30021
# Shear Modulus (GPa) = 33.03474 39.94751 36.49112
#
# Velocity S-wave (km/s) = 3.63334 3.99545 3.81869
# Velocity P-wave (km/s) = 6.39626 6.73564 6.56814
#
# Compressibility (1/GPa) = 0.01714309
#
# Stress axis : x y z
#
# Youngs Moduli (GPa) = 69.99370 69.99370 146.40950
#
# Poissons Ratio (x) = 0.43217 0.21640
# Poissons Ratio (y) = 0.43217 0.21640
# Poissons Ratio (z) = 0.10346 0.10346
#
# Static dielectric constant tensor:
#      x y z
#    x 4.532370 0.000000 0.000000 
#    y 0.000000 4.532370 0.000000 
#    z 0.000000 0.000000 4.782140 
# 
# 
# High freq. dielectric constant tensor:
#      x y z
#    x 1.993200 0.000000 0.000000 
#    y 0.000000 1.993200 0.000000 
#    z 0.000000 0.000000 2.030920 
# 
# From -- ./inp_files/73.got.cif
#   From: 2010.03.12/outbox.cif.g09.slc.cpg/sg76_cif.got.tgz:73.got - 2010.04.16 16:34:25.
