data_PCOD8301522
_publ_section_title
;
Structure prediction by ZEFSAII (Michael W. Deem and Ramdas Pophale) SiO2 
 PCOD8301522
Probable space group: I M M A
;
_chemical_formula_sum "Si O2"
_cell_formula_units_Z 112
_cell_length_a 31.072975
_cell_length_b 9.580416
_cell_length_c 30.988537
_cell_angle_alpha 90.000000
_cell_angle_beta 90.000000
_cell_angle_gamma 90.000000
_cell_volume 9225.040389
_symmetry_space_group_name_H-M "I M M A"
_symmetry_group_IT_number 74
_symmetry_cell_setting 'orthorhombic'
loop_
_space_group_symop_operation_xyz
x,y,z
-x,1/2-y,z
x,-y,-z
-x,1/2+y,-z
-x,-y,-z
x,1/2+y,-z
-x,y,z
x,1/2-y,z
1/2+x,1/2+y,1/2+z
1/2-x,-y,1/2+z
1/2+x,1/2-y,1/2-z
1/2-x,y,1/2-z
1/2-x,1/2-y,1/2-z
1/2+x,y,1/2-z
1/2-x,1/2+y,1/2+z
1/2+x,-y,1/2+z
loop_
_atom_site_type_symbol
_atom_site_label
_atom_site_fract_x
_atom_site_fract_y
_atom_site_fract_z
Si Si1 0.950523 0.750000 0.564464
Si Si2 0.448654 0.250000 0.963201
Si Si3 0.227742 0.592157 0.816638
Si Si4 0.809073 0.418862 0.455809
Si Si5 0.182391 0.594736 0.732502
Si Si6 0.399419 0.494115 0.915832
Si Si7 0.765779 0.590768 0.384243
Si Si8 0.854237 0.902378 0.333053
O O1 0.939703 0.750000 0.513898
O O2 0.931723 0.619624 0.589340
O O3 0.000000 0.750000 0.573046
O O4 0.500000 0.250000 0.952955
O O5 0.424409 0.382061 0.944245
O O6 0.217531 0.750000 0.832967
O O7 0.192325 0.542930 0.781308
O O8 0.274127 0.593529 0.794688
O O9 0.227801 0.480897 0.855860
O O10 0.801630 0.500000 0.500000
O O11 0.803144 0.250000 0.459704
O O12 0.856481 0.454388 0.439343
O O13 0.773509 0.486824 0.424323
O O14 0.163344 0.750000 0.734216
O O15 0.146427 0.501525 0.708842
O O16 0.390514 0.442795 0.867519
O O17 0.752792 0.750000 0.398095
O O18 0.808664 0.598165 0.356473
O O19 0.865235 0.750000 0.315066
#
# Coordination Sequence:
#
# PCOD8301522 Si02
#       8
#     8   8  16  16  16  16  16  16
#     4  11  22  34  46  60  68  81 108 136 170 215
#     4  11  22  36  48  56  70  85 104 134 172 215
#     4   8  13  23  35  51  71  91 110 130 155 182
#     4  11  21  30  42  55  69  89 113 143 173 207
#     4   8  14  22  37  53  69  89 110 130 150 183
#     4  11  21  32  45  58  70  87 104 135 172 211
#     4   9  17  26  37  52  71  91 112 135 159 193
#     4   9  17  27  37  52  70  87 106 128 157 196
#
# _framework density 12.140869
#
# number of rings (size 3 to 8) (size 9 to 14) (size 15 to 20)
#    0.000    2.429    1.429    3.429    3.000    3.429 
#    0.000    2.857    0.000    0.000    0.000    0.000 
#    0.000    0.000    0.000    0.000    0.000    0.000 
#
# Total GULP energy -693896.163505 kJ/mol
# GULP energy per Si atom -12391.002920 kJ/mol
# Density = 1.211324 g / cm^3
# Si number density = 12.140869 Si / 1000 Ang^3
#
#
#
# Elastic Constant Matrix: (Units=GPa)
#
#
# Indices 1 2 3 4 5 6 
#
# 1 22.3387 21.7634 29.1258 0.0000 0.0000 0.0000
# 2 21.7634 104.7736 44.9461 0.0000 0.0000 0.0000
# 3 29.1258 44.9461 62.1926 0.0000 0.0000 0.0000
# 4 0.0000 0.0000 0.0000 20.7912 0.0000 0.0000
# 5 0.0000 0.0000 0.0000 0.0000 18.2164 0.0000
# 6 0.0000 0.0000 0.0000 0.0000 0.0000 9.7107
#
#
#
# Elastic Compliance Matrix: (Units=1/GPa)
#
#
# Indices 1 2 3 4 5 6 
#
# 1 0.115055 -0.001137 -0.053060 0.000000 0.000000 0.000000
# 2 -0.001137 0.013844 -0.009473 0.000000 0.000000 0.000000
# 3 -0.053060 -0.009473 0.047774 0.000000 0.000000 0.000000
# 4 0.000000 0.000000 0.000000 0.048097 0.000000 0.000000
# 5 0.000000 0.000000 0.000000 0.000000 0.054896 0.000000
# 6 0.000000 0.000000 0.000000 0.000000 0.000000 0.102979
#
#
# Mechanical properties :
#
#
# Convention : Reuss Voigt Hill
#
# Bulk Modulus (GPa) = 20.27045 42.33063 31.30054
# Shear Modulus (GPa) = 9.49797 15.97498 12.73647
#
# Velocity S-wave (km/s) = 2.80002 3.63133 3.24243
# Velocity P-wave (km/s) = 5.21400 7.24735 6.31307
#
# Compressibility (1/GPa) = 0.04933289
#
# Stress axis : x y z
#
# Youngs Moduli (GPa) = 8.69153 72.23279 20.93194
#
# Poissons Ratio (x) = 0.08212 1.11066
# Poissons Ratio (y) = 0.00988 0.19828
# Poissons Ratio (z) = 0.46118 0.68423
#
# Static dielectric constant tensor:
#      x y z
#    x 2.194610 0.000000 0.000000 
#    y 0.000000 2.830790 0.000000 
#    z 0.000000 0.000000 2.557500 
# 
# 
# High freq. dielectric constant tensor:
#      x y z
#    x 1.399040 0.000000 0.000000 
#    y 0.000000 1.482240 0.000000 
#    z 0.000000 0.000000 1.446150 
# 
# From -- ./inp_files/74056.got.cif
#   From: 2010.03.12/outbox.cif.g09.slc.cpg/sg74_38_cif.got.tgz:74056.got - 2010.04.16 15:46:19.
