data_PCOD8301517
_publ_section_title
;
Structure prediction by ZEFSAII (Michael W. Deem and Ramdas Pophale) SiO2 
 PCOD8301517
Probable space group: I M M A
;
_chemical_formula_sum "Si O2"
_cell_formula_units_Z 64
_cell_length_a 14.135965
_cell_length_b 9.560887
_cell_length_c 26.329902
_cell_angle_alpha 90.000000
_cell_angle_beta 90.000000
_cell_angle_gamma 90.000000
_cell_volume 3558.548499
_symmetry_space_group_name_H-M "I M M A"
_symmetry_group_IT_number 74
_symmetry_cell_setting 'orthorhombic'
loop_
_space_group_symop_operation_xyz
x,y,z
-x,1/2-y,z
x,-y,-z
-x,1/2+y,-z
-x,-y,-z
x,1/2+y,-z
-x,y,z
x,1/2-y,z
1/2+x,1/2+y,1/2+z
1/2-x,-y,1/2+z
1/2+x,1/2-y,1/2-z
1/2-x,y,1/2-z
1/2-x,1/2-y,1/2-z
1/2+x,y,1/2-z
1/2-x,1/2+y,1/2+z
1/2+x,-y,1/2+z
loop_
_atom_site_type_symbol
_atom_site_label
_atom_site_fract_x
_atom_site_fract_y
_atom_site_fract_z
Si Si1 0.611766 0.750000 0.580012
Si Si2 0.387050 0.250000 0.538362
Si Si3 0.500000 0.899196 0.315228
Si Si4 0.683426 0.088961 0.798003
Si Si5 0.672466 0.539842 0.383134
Si Si6 0.000000 0.081769 0.277512
O O1 0.500000 0.750000 0.589482
O O2 0.635512 0.750000 0.520856
O O3 0.660638 0.622923 0.608305
O O4 0.500000 0.250000 0.547994
O O5 0.335667 0.114644 0.562197
O O6 0.500000 0.750000 0.284418
O O7 0.408684 0.894770 0.349372
O O8 0.500000 0.037813 0.281397
O O9 0.651612 0.250000 0.790964
O O10 0.750000 0.045398 0.750000
O O11 0.731543 0.069970 0.852903
O O12 0.593787 0.985993 0.801564
O O13 0.000000 0.250000 0.283349
#
# Coordination Sequence:
#
# PCOD8301517 Si02
#       6
#     8   8   8  16  16   8
#     4  11  24  34  55  89 131 161 193 248 303 345
#     4  11  20  38  57  87 123 163 203 242 287 361
#     4  12  20  36  57  84 123 162 201 232 278 352
#     4  11  23  40  63  86 116 160 204 239 285 353
#     4  12  21  36  59  86 120 166 202 236 292 351
#     4  12  28  40  58  89 124 154 197 250 295 344
#
# _framework density 17.984860999999999
#
# number of rings (size 3 to 8) (size 9 to 14) (size 15 to 20)
#    0.000    0.500    7.500    1.875    3.500    2.500 
#    0.000    0.000    0.000    0.000    0.000    5.250 
#    0.000    0.000    0.000    0.000    0.000    0.000 
#
# Total GULP energy -396679.613499 kJ/mol
# GULP energy per Si atom -12396.237922 kJ/mol
# Density = 1.794393 g / cm^3
# Si number density = 17.984861 Si / 1000 Ang^3
#
#
#
# Elastic Constant Matrix: (Units=GPa)
#
#
# Indices 1 2 3 4 5 6 
#
# 1 100.4849 49.4520 35.1796 0.0000 0.0000 0.0000
# 2 49.4520 157.9337 30.5267 0.0000 0.0000 0.0000
# 3 35.1796 30.5267 73.3900 0.0000 0.0000 0.0000
# 4 0.0000 0.0000 0.0000 30.5157 0.0000 0.0000
# 5 0.0000 0.0000 0.0000 0.0000 21.0379 0.0000
# 6 0.0000 0.0000 0.0000 0.0000 0.0000 31.1067
#
#
#
# Elastic Compliance Matrix: (Units=1/GPa)
#
#
# Indices 1 2 3 4 5 6 
#
# 1 0.013285 -0.003185 -0.005043 0.000000 0.000000 0.000000
# 2 -0.003185 0.007649 -0.001655 0.000000 0.000000 0.000000
# 3 -0.005043 -0.001655 0.016732 0.000000 0.000000 0.000000
# 4 0.000000 0.000000 0.000000 0.032770 0.000000 0.000000
# 5 0.000000 0.000000 0.000000 0.000000 0.047533 0.000000
# 6 0.000000 0.000000 0.000000 0.000000 0.000000 0.032147
#
#
# Mechanical properties :
#
#
# Convention : Reuss Voigt Hill
#
# Bulk Modulus (GPa) = 55.86842 62.45833 59.16337
# Shear Modulus (GPa) = 28.43355 30.97542 29.70449
#
# Velocity S-wave (km/s) = 3.98046 4.15457 4.06844
# Velocity P-wave (km/s) = 7.22890 7.60379 7.41871
#
# Compressibility (1/GPa) = 0.01789920
#
# Stress axis : x y z
#
# Youngs Moduli (GPa) = 75.27398 130.73790 59.76675
#
# Poissons Ratio (x) = 0.41639 0.30142
# Poissons Ratio (y) = 0.23974 0.09891
# Poissons Ratio (z) = 0.37963 0.21636
#
# Static dielectric constant tensor:
#      x y z
#    x 3.198590 0.000000 0.000000 
#    y 0.000000 3.438730 0.000000 
#    z 0.000000 0.000000 3.321910 
# 
# 
# High freq. dielectric constant tensor:
#      x y z
#    x 1.672750 0.000000 0.000000 
#    y 0.000000 1.713450 0.000000 
#    z 0.000000 0.000000 1.688010 
# 
# From -- ./inp_files/56499.got.cif
#   From: 2010.03.12/outbox.cif.g09.slc.cpg/sg74_29_cif.got.tgz:56499.got - 2010.04.16 15:46:19.
