data_PCOD8301018
_publ_section_title
;
Structure prediction by ZEFSAII (Michael W. Deem and Ramdas Pophale) SiO2 
 PCOD8301018
Probable space group: I M M A
;
_chemical_formula_sum "Si O2"
_cell_formula_units_Z 96
_cell_length_a 17.412805
_cell_length_b 23.879754
_cell_length_c 11.128097
_cell_angle_alpha 90.000000
_cell_angle_beta 90.000000
_cell_angle_gamma 90.000000
_cell_volume 4627.212960
_symmetry_space_group_name_H-M "I M M A"
_symmetry_group_IT_number 74
_symmetry_cell_setting 'orthorhombic'
loop_
_space_group_symop_operation_xyz
x,y,z
-x,1/2-y,z
x,-y,-z
-x,1/2+y,-z
-x,-y,-z
x,1/2+y,-z
-x,y,z
x,1/2-y,z
1/2+x,1/2+y,1/2+z
1/2-x,-y,1/2+z
1/2+x,1/2-y,1/2-z
1/2-x,y,1/2-z
1/2-x,1/2-y,1/2-z
1/2+x,y,1/2-z
1/2-x,1/2+y,1/2+z
1/2+x,-y,1/2+z
loop_
_atom_site_type_symbol
_atom_site_label
_atom_site_fract_x
_atom_site_fract_y
_atom_site_fract_z
Si Si1 0.591483 0.131195 0.097551
Si Si2 0.591143 0.686011 0.146455
Si Si3 0.337901 0.411637 0.720282
Si Si4 0.410591 0.083554 0.472677
Si Si5 0.909015 0.310701 0.168114
Si Si6 0.410736 0.478624 0.224967
O O1 0.500000 0.132715 0.096535
O O2 0.624427 0.170768 0.202906
O O3 0.618049 0.067537 0.127734
O O4 0.624420 0.155442 0.973060
O O5 0.500000 0.687851 0.144214
O O6 0.622585 0.750000 0.157284
O O7 0.618536 0.647173 0.256224
O O8 0.250000 0.401602 0.750000
O O9 0.355519 0.430737 0.583875
O O10 0.367284 0.463272 0.802494
O O11 0.500000 0.079245 0.512053
O O12 0.386597 0.146268 0.435611
O O13 0.395106 0.042292 0.361201
O O14 0.875443 0.250000 0.133720
O O15 0.000000 0.309356 0.180720
O O16 0.500000 0.490420 0.206658
#
# Coordination Sequence:
#
# PCOD8301018 Si02
#       6
#    16  16  16  16  16  16
#     4   8  15  30  55  87 114 136 170 227 289 334
#     4  10  21  38  60  83 111 151 193 230 275 337
#     4  12  25  38  51  80 114 155 187 226 279 343
#     4   9  18  35  59  82 108 143 188 239 283 324
#     4   8  13  24  50  86 112 131 168 228 285 323
#     4   9  18  37  63  86 108 139 186 244 292 329
#
# _framework density 20.746829000000002
#
# number of rings (size 3 to 8) (size 9 to 14) (size 15 to 20)
#    0.000    2.667    0.000    4.500    0.000    5.000 
#    6.000    4.167    0.000    0.000    0.000    3.500 
#    0.000    0.000    0.000    0.000    0.000    0.000 
#
# Total GULP energy -594882.490414 kJ/mol
# GULP energy per Si atom -12393.385217 kJ/mol
# Density = 2.069961 g / cm^3
# Si number density = 20.746829 Si / 1000 Ang^3
#
#
#
# Elastic Constant Matrix: (Units=GPa)
#
#
# Indices 1 2 3 4 5 6 
#
# 1 34.2632 23.7154 16.5910 0.0000 0.0000 0.0000
# 2 23.7154 169.9861 22.8223 0.0000 0.0000 0.0000
# 3 16.5910 22.8223 54.3531 0.0000 0.0000 0.0000
# 4 0.0000 0.0000 0.0000 21.1758 0.0000 0.0000
# 5 0.0000 0.0000 0.0000 0.0000 -1.5726 0.0000
# 6 0.0000 0.0000 0.0000 0.0000 0.0000 3.2238
#
#
#
# Elastic Compliance Matrix: (Units=1/GPa)
#
#
# Indices 1 2 3 4 5 6 
#
# 1 0.036430 -0.003804 -0.009523 0.000000 0.000000 0.000000
# 2 -0.003804 0.006631 -0.001623 0.000000 0.000000 0.000000
# 3 -0.009523 -0.001623 0.021987 0.000000 0.000000 0.000000
# 4 0.000000 0.000000 0.000000 0.047224 0.000000 0.000000
# 5 0.000000 0.000000 0.000000 0.000000 -0.635885 0.000000
# 6 0.000000 0.000000 0.000000 0.000000 0.000000 0.310196
#
#
# Mechanical properties :
#
#
# Convention : Reuss Voigt Hill
#
# Bulk Modulus (GPa) = 28.45128 42.76221 35.60674
# Shear Modulus (GPa) = -29.10342 17.59697 -5.75322
#
# Velocity S-wave (km/s) = -3.74945 2.91551 -1.66706
# Velocity P-wave (km/s) = 2.23632 5.65595 3.67346
#
# Compressibility (1/GPa) = 0.03514780
#
# Stress axis : x y z
#
# Youngs Moduli (GPa) = 27.44992 150.79566 45.48218
#
# Poissons Ratio (x) = 0.57362 0.43312
# Poissons Ratio (y) = 0.10442 0.07383
# Poissons Ratio (z) = 0.26140 0.24479
#
# Static dielectric constant tensor:
#      x y z
#    x 3.071200 0.000000 0.000000 
#    y 0.000000 6.011960 0.000000 
#    z 0.000000 0.000000 3.751030 
# 
# 
# High freq. dielectric constant tensor:
#      x y z
#    x 1.744380 0.000000 0.000000 
#    y 0.000000 1.833980 0.000000 
#    z 0.000000 0.000000 1.805120 
# 
# From -- ./inp_files/22431.got.cif
#   From: 2010.03.12/outbox.cif.g09.slc.cpg/sg74_12_cif.got.tgz:22431.got - 2010.04.16 15:46:19.
