data_PCOD8301023
_publ_section_title
;
Structure prediction by ZEFSAII (Michael W. Deem and Ramdas Pophale) SiO2 
 PCOD8301023
Probable space group: I M M A
;
_chemical_formula_sum "Si O2"
_cell_formula_units_Z 96
_cell_length_a 26.935940
_cell_length_b 8.677954
_cell_length_c 20.141690
_cell_angle_alpha 90.000000
_cell_angle_beta 90.000000
_cell_angle_gamma 90.000000
_cell_volume 4708.096840
_symmetry_space_group_name_H-M "I M M A"
_symmetry_group_IT_number 74
_symmetry_cell_setting 'orthorhombic'
loop_
_space_group_symop_operation_xyz
x,y,z
-x,1/2-y,z
x,-y,-z
-x,1/2+y,-z
-x,-y,-z
x,1/2+y,-z
-x,y,z
x,1/2-y,z
1/2+x,1/2+y,1/2+z
1/2-x,-y,1/2+z
1/2+x,1/2-y,1/2-z
1/2-x,y,1/2-z
1/2-x,1/2-y,1/2-z
1/2+x,y,1/2-z
1/2-x,1/2+y,1/2+z
1/2+x,-y,1/2+z
loop_
_atom_site_type_symbol
_atom_site_label
_atom_site_fract_x
_atom_site_fract_y
_atom_site_fract_z
Si Si1 0.215142 0.072200 0.809323
Si Si2 0.057608 0.573047 0.674870
Si Si3 0.734019 0.431014 0.069995
Si Si4 0.600965 0.572283 0.301334
Si Si5 0.557801 0.570765 0.570194
Si Si6 0.628418 0.069181 0.930210
O O1 0.226408 0.250000 0.825840
O O2 0.250000 0.012406 0.750000
O O3 0.158877 0.047261 0.786333
O O4 0.225460 0.972686 0.874817
O O5 0.072460 0.750000 0.663024
O O6 0.069153 0.528870 0.750529
O O7 0.087969 0.464802 0.625550
O O8 0.000000 0.545465 0.660618
O O9 0.729152 0.250000 0.062251
O O10 0.680867 0.498413 0.091713
O O11 0.751759 0.500000 0.000000
O O12 0.585846 0.750000 0.293294
O O13 0.589663 0.517614 0.375328
O O14 0.573402 0.500000 0.500000
O O15 0.500000 0.542547 0.584705
O O16 0.571357 0.750000 0.570859
O O17 0.635104 0.250000 0.938267
O O18 0.610035 0.000000 0.000000
#
# Coordination Sequence:
#
# PCOD8301023 Si02
#       6
#    16  16  16  16  16  16
#     4  10  22  40  60  84 116 153 194 241 291 342
#     4  11  24  41  61  87 120 156 196 243 292 345
#     4  11  22  38  62  89 119 155 195 239 289 347
#     4  11  23  38  60  88 118 154 195 242 294 349
#     4  10  21  38  60  85 115 152 193 239 290 346
#     4  11  22  39  63  89 120 156 195 240 290 347
#
# _framework density 20.390404
#
# number of rings (size 3 to 8) (size 9 to 14) (size 15 to 20)
#    0.000    1.333    0.000    7.000    0.000    8.333 
#    0.000    0.000    0.000    0.000    0.000    0.000 
#    0.000    0.000    0.000    0.000    0.000    0.000 
#
# Total GULP energy -595586.609492 kJ/mol
# GULP energy per Si atom -12408.054364 kJ/mol
# Density = 2.034399 g / cm^3
# Si number density = 20.390404 Si / 1000 Ang^3
#
#
#
# Elastic Constant Matrix: (Units=GPa)
#
#
# Indices 1 2 3 4 5 6 
#
# 1 38.7823 29.8752 13.5231 0.0000 0.0000 0.0000
# 2 29.8752 126.1299 27.0833 0.0000 0.0000 0.0000
# 3 13.5231 27.0833 85.3403 0.0000 0.0000 0.0000
# 4 0.0000 0.0000 0.0000 40.2960 0.0000 0.0000
# 5 0.0000 0.0000 0.0000 0.0000 55.2059 0.0000
# 6 0.0000 0.0000 0.0000 0.0000 0.0000 27.8656
#
#
#
# Elastic Compliance Matrix: (Units=1/GPa)
#
#
# Indices 1 2 3 4 5 6 
#
# 1 0.032185 -0.007006 -0.002877 0.000000 0.000000 0.000000
# 2 -0.007006 0.010033 -0.002074 0.000000 0.000000 0.000000
# 3 -0.002877 -0.002074 0.012832 0.000000 0.000000 0.000000
# 4 0.000000 0.000000 0.000000 0.024816 0.000000 0.000000
# 5 0.000000 0.000000 0.000000 0.000000 0.018114 0.000000
# 6 0.000000 0.000000 0.000000 0.000000 0.000000 0.035887
#
#
# Mechanical properties :
#
#
# Convention : Reuss Voigt Hill
#
# Bulk Modulus (GPa) = 32.11613 43.46843 37.79228
# Shear Modulus (GPa) = 29.73396 36.65822 33.19609
#
# Velocity S-wave (km/s) = 3.82282 4.24467 4.03926
# Velocity P-wave (km/s) = 5.93887 6.73701 6.35049
#
# Compressibility (1/GPa) = 0.03113700
#
# Stress axis : x y z
#
# Youngs Moduli (GPa) = 31.07069 99.67099 77.93127
#
# Poissons Ratio (x) = 0.69825 0.22419
# Poissons Ratio (y) = 0.21767 0.16162
# Poissons Ratio (z) = 0.08938 0.20671
#
# Static dielectric constant tensor:
#      x y z
#    x 3.599080 0.000000 0.000000 
#    y 0.000000 3.777660 0.000000 
#    z 0.000000 0.000000 3.710190 
# 
# 
# High freq. dielectric constant tensor:
#      x y z
#    x 1.793440 0.000000 0.000000 
#    y 0.000000 1.808960 0.000000 
#    z 0.000000 0.000000 1.808070 
# 
# From -- ./inp_files/55043.got.cif
#   From: 2010.03.12/outbox.cif.g09.slc.cpg/sg74_28_cif.got.tgz:55043.got - 2010.04.16 15:46:19.
