data_PCOD8301610
_publ_section_title
;
Structure prediction by ZEFSAII (Michael W. Deem and Ramdas Pophale) SiO2 
 PCOD8301610
Probable space group: I M M A
;
_chemical_formula_sum "Si O2"
_cell_formula_units_Z 112
_cell_length_a 22.628838
_cell_length_b 14.979904
_cell_length_c 14.545204
_cell_angle_alpha 90.000000
_cell_angle_beta 90.000000
_cell_angle_gamma 90.000000
_cell_volume 4930.501556
_symmetry_space_group_name_H-M "I M M A"
_symmetry_group_IT_number 74
_symmetry_cell_setting 'orthorhombic'
loop_
_space_group_symop_operation_xyz
x,y,z
-x,1/2-y,z
x,-y,-z
-x,1/2+y,-z
-x,-y,-z
x,1/2+y,-z
-x,y,z
x,1/2-y,z
1/2+x,1/2+y,1/2+z
1/2-x,-y,1/2+z
1/2+x,1/2-y,1/2-z
1/2-x,y,1/2-z
1/2-x,1/2-y,1/2-z
1/2+x,y,1/2-z
1/2-x,1/2+y,1/2+z
1/2+x,-y,1/2+z
loop_
_atom_site_type_symbol
_atom_site_label
_atom_site_fract_x
_atom_site_fract_y
_atom_site_fract_z
Si Si1 0.602945 0.652640 0.580210
Si Si2 0.431196 0.146106 0.119607
Si Si3 0.566407 0.486551 0.280636
Si Si4 0.122912 0.650033 0.125536
Si Si5 0.744006 0.916041 0.351890
Si Si6 0.672958 0.849018 0.004478
Si Si7 0.232098 0.378679 0.149217
O O1 0.574993 0.750000 0.601653
O O2 0.566990 0.575116 0.629628
O O3 0.592945 0.631970 0.472401
O O4 0.670934 0.659970 0.612290
O O5 0.500000 0.131468 0.096310
O O6 0.419898 0.250000 0.149745
O O7 0.409364 0.076451 0.198087
O O8 0.392817 0.122926 0.028696
O O9 0.500000 0.517582 0.259836
O O10 0.604172 0.576967 0.297149
O O11 0.107963 0.750000 0.161638
O O12 0.192640 0.642801 0.102474
O O13 0.750000 0.876735 0.250000
O O14 0.803819 0.911809 0.412928
O O15 0.721719 0.016289 0.347420
O O16 0.671070 0.750000 0.046095
O O17 0.715165 0.851047 0.916835
O O18 0.250000 0.342154 0.250000
#
# Coordination Sequence:
#
# PCOD8301610 Si02
#       7
#    16  16  16  16  16  16  16
#     4  11  22  37  59  90 128 165 212 273 334 395
#     4   9  20  40  67 101 138 170 209 267 329 394
#     4  11  23  40  63  91 127 173 221 267 329 395
#     4  11  24  41  59  85 127 172 220 279 328 377
#     4  11  24  41  64  91 127 168 217 268 323 386
#     4  11  22  37  63  98 131 170 213 261 328 397
#     4  11  22  36  58  92 129 169 209 261 325 390
#
# _framework density 22.715741000000001
#
# number of rings (size 3 to 8) (size 9 to 14) (size 15 to 20)
#    0.000    1.286    2.857    3.000    2.000    5.714 
#    0.000    1.429    0.000    2.571    0.000    2.000 
#    0.000    0.000    0.000    0.000    0.000    0.000 
#
# Total GULP energy -694203.388354 kJ/mol
# GULP energy per Si atom -12396.489078 kJ/mol
# Density = 2.266404 g / cm^3
# Si number density = 22.715741 Si / 1000 Ang^3
#
#
#
# Elastic Constant Matrix: (Units=GPa)
#
#
# Indices 1 2 3 4 5 6 
#
# 1 76.2984 29.1984 32.8100 0.0000 0.0000 0.0000
# 2 29.1984 119.1254 49.4018 0.0000 0.0000 0.0000
# 3 32.8100 49.4018 109.6721 0.0000 0.0000 0.0000
# 4 0.0000 0.0000 0.0000 8.3808 0.0000 0.0000
# 5 0.0000 0.0000 0.0000 0.0000 31.5576 0.0000
# 6 0.0000 0.0000 0.0000 0.0000 0.0000 18.1405
#
#
#
# Elastic Compliance Matrix: (Units=1/GPa)
#
#
# Indices 1 2 3 4 5 6 
#
# 1 0.015543 -0.002314 -0.003608 0.000000 0.000000 0.000000
# 2 -0.002314 0.010667 -0.004113 0.000000 0.000000 0.000000
# 3 -0.003608 -0.004113 0.012050 0.000000 0.000000 0.000000
# 4 0.000000 0.000000 0.000000 0.119321 0.000000 0.000000
# 5 0.000000 0.000000 0.000000 0.000000 0.031688 0.000000
# 6 0.000000 0.000000 0.000000 0.000000 0.000000 0.055125
#
#
# Mechanical properties :
#
#
# Convention : Reuss Voigt Hill
#
# Bulk Modulus (GPa) = 54.96943 58.65735 56.81339
# Shear Modulus (GPa) = 18.48242 24.52814 21.50528
#
# Velocity S-wave (km/s) = 2.85553 3.28957 3.08021
# Velocity P-wave (km/s) = 5.92650 6.34876 6.14126
#
# Compressibility (1/GPa) = 0.01819193
#
# Stress axis : x y z
#
# Youngs Moduli (GPa) = 64.33654 93.74503 82.98695
#
# Poissons Ratio (x) = 0.21689 0.29940
# Poissons Ratio (y) = 0.14885 0.34132
# Poissons Ratio (z) = 0.23212 0.38557
#
# Static dielectric constant tensor:
#      x y z
#    x 3.983450 0.000000 0.000000 
#    y 0.000000 4.128780 0.000000 
#    z 0.000000 0.000000 3.936150 
# 
# 
# High freq. dielectric constant tensor:
#      x y z
#    x 1.885300 0.000000 0.000000 
#    y 0.000000 1.904210 0.000000 
#    z 0.000000 0.000000 1.880510 
# 
# From -- ./inp_files/36506.got.cif
#   From: 2010.03.12/outbox.cif.g09.slc.cpg/sg74_19_cif.got.tgz:36506.got - 2010.04.16 15:46:19.
