data_PCOD8301737
_publ_section_title
;
Structure prediction by ZEFSAII (Michael W. Deem and Ramdas Pophale) SiO2 
 PCOD8301737
Probable space group: I M M A
;
_chemical_formula_sum "Si O2"
_cell_formula_units_Z 40
_cell_length_a 18.363262
_cell_length_b 10.278600
_cell_length_c 9.789916
_cell_angle_alpha 90.000000
_cell_angle_beta 90.000000
_cell_angle_gamma 90.000000
_cell_volume 1847.833182
_symmetry_space_group_name_H-M "I M M A"
_symmetry_group_IT_number 74
_symmetry_cell_setting 'orthorhombic'
loop_
_space_group_symop_operation_xyz
x,y,z
-x,1/2-y,z
x,-y,-z
-x,1/2+y,-z
-x,-y,-z
x,1/2+y,-z
-x,y,z
x,1/2-y,z
1/2+x,1/2+y,1/2+z
1/2-x,-y,1/2+z
1/2+x,1/2-y,1/2-z
1/2-x,y,1/2-z
1/2-x,1/2-y,1/2-z
1/2+x,y,1/2-z
1/2-x,1/2+y,1/2+z
1/2+x,-y,1/2+z
loop_
_atom_site_type_symbol
_atom_site_label
_atom_site_fract_x
_atom_site_fract_y
_atom_site_fract_z
Si Si1 0.418438 0.750000 0.539467
Si Si2 0.771723 0.750000 0.093757
Si Si3 0.691576 0.500000 0.000000
Si Si4 0.580519 0.105744 0.198556
O O1 0.500000 0.750000 0.475645
O O2 0.359605 0.750000 0.418570
O O3 0.408113 0.622433 0.637530
O O4 0.750000 0.750000 0.250000
O O5 0.741664 0.874980 0.015434
O O6 0.641139 0.511649 0.865145
O O7 0.500000 0.047133 0.170342
O O8 0.586096 0.250000 0.130018
#
# Coordination Sequence:
#
# PCOD8301737 Si02
#       4
#     8   8   8  16
#     4   8  19  45  69  91 126 182 229 270 339 405
#     4  12  29  41  65 103 131 176 231 282 345 399
#     4  12  23  42  63  98 146 168 218 288 337 406
#     4   8  17  36  67  96 123 176 224 264 334 400
#
# _framework density 21.646975999999999
#
# number of rings (size 3 to 8) (size 9 to 14) (size 15 to 20)
#    1.200    1.200    2.000    0.600    5.600    1.600 
#    0.000    5.000    0.000    0.000    0.000    0.000 
#    0.000    0.000    0.000    0.000    0.000    0.000 
#
# Total GULP energy -247834.000128 kJ/mol
# GULP energy per Si atom -12391.700006 kJ/mol
# Density = 2.159771 g / cm^3
# Si number density = 21.646976 Si / 1000 Ang^3
#
#
#
# Elastic Constant Matrix: (Units=GPa)
#
#
# Indices 1 2 3 4 5 6 
#
# 1 188.7091 49.3022 67.7664 0.0000 0.0000 0.0000
# 2 49.3022 87.4084 18.3946 0.0000 0.0000 0.0000
# 3 67.7664 18.3946 85.2383 0.0000 0.0000 0.0000
# 4 0.0000 0.0000 0.0000 10.6718 0.0000 0.0000
# 5 0.0000 0.0000 0.0000 0.0000 46.2383 0.0000
# 6 0.0000 0.0000 0.0000 0.0000 0.0000 -0.2489
#
#
#
# Elastic Compliance Matrix: (Units=1/GPa)
#
#
# Indices 1 2 3 4 5 6 
#
# 1 0.008304 -0.003451 -0.005857 0.000000 0.000000 0.000000
# 2 -0.003451 0.013419 -0.000152 0.000000 0.000000 0.000000
# 3 -0.005857 -0.000152 0.016421 0.000000 0.000000 0.000000
# 4 0.000000 0.000000 0.000000 0.093705 0.000000 0.000000
# 5 0.000000 0.000000 0.000000 0.000000 0.021627 0.000000
# 6 0.000000 0.000000 0.000000 0.000000 0.000000 -4.016948
#
#
# Mechanical properties :
#
#
# Convention : Reuss Voigt Hill
#
# Bulk Modulus (GPa) = 52.01953 70.25358 61.13655
# Shear Modulus (GPa) = -1.30271 26.39176 12.54452
#
# Velocity S-wave (km/s) = -0.77660 3.49548 2.40990
# Velocity P-wave (km/s) = 4.82482 6.98683 6.00394
#
# Compressibility (1/GPa) = 0.01922355
#
# Stress axis : x y z
#
# Youngs Moduli (GPa) = 120.42075 74.51992 60.89668
#
# Poissons Ratio (x) = 0.25719 0.35669
# Poissons Ratio (y) = 0.41561 0.00926
# Poissons Ratio (z) = 0.70533 0.01133
#
# Static dielectric constant tensor:
#      x y z
#    x 3.892780 0.000000 0.000000 
#    y 0.000000 3.598610 0.000000 
#    z 0.000000 0.000000 3.443110 
# 
# 
# High freq. dielectric constant tensor:
#      x y z
#    x 1.864030 0.000000 0.000000 
#    y 0.000000 1.822580 0.000000 
#    z 0.000000 0.000000 1.819180 
# 
# From -- ./inp_files/21271.got.cif
#   From: 2010.03.12/outbox.cif.g09.slc.cpg/sg74_11_cif.got.tgz:21271.got - 2010.04.16 15:46:19.
