data_PCOD8301309
_publ_section_title
;
Structure prediction by ZEFSAII (Michael W. Deem and Ramdas Pophale) SiO2 
 PCOD8301309
Probable space group: I M M A
;
_chemical_formula_sum "Si O2"
_cell_formula_units_Z 48
_cell_length_a 14.717479
_cell_length_b 7.423393
_cell_length_c 22.310226
_cell_angle_alpha 90.000000
_cell_angle_beta 90.000000
_cell_angle_gamma 90.000000
_cell_volume 2437.473190
_symmetry_space_group_name_H-M "I M M A"
_symmetry_group_IT_number 74
_symmetry_cell_setting 'orthorhombic'
loop_
_space_group_symop_operation_xyz
x,y,z
-x,1/2-y,z
x,-y,-z
-x,1/2+y,-z
-x,-y,-z
x,1/2+y,-z
-x,y,z
x,1/2-y,z
1/2+x,1/2+y,1/2+z
1/2-x,-y,1/2+z
1/2+x,1/2-y,1/2-z
1/2-x,y,1/2-z
1/2-x,1/2-y,1/2-z
1/2+x,y,1/2-z
1/2-x,1/2+y,1/2+z
1/2+x,-y,1/2+z
loop_
_atom_site_type_symbol
_atom_site_label
_atom_site_fract_x
_atom_site_fract_y
_atom_site_fract_z
Si Si1 0.398683 0.955169 0.655244
Si Si2 0.603022 0.750000 0.114723
Si Si3 0.262085 0.959009 0.931638
Si Si4 0.856979 0.750000 0.248212
O O1 0.500000 0.977121 0.627947
O O2 0.379627 0.750000 0.674274
O O3 0.326415 0.019964 0.605810
O O4 0.391114 0.071814 0.715033
O O5 0.500000 0.750000 0.090644
O O6 0.651411 0.571463 0.089987
O O7 0.601367 0.750000 0.186165
O O8 0.285298 0.750000 0.922052
O O9 0.238767 0.000000 0.000000
O O10 0.750000 0.750000 0.250000
#
# Coordination Sequence:
#
# PCOD8301309 Si02
#       4
#    16   8  16   8
#     4  10  22  40  65  97 130 162 202 257 319 382
#     4  12  26  43  64  93 124 169 218 260 314 370
#     4  11  23  42  64  90 128 166 210 260 311 372
#     4  12  22  41  69  92 127 169 208 259 318 372
#
# _framework density 19.692523999999999
#
# number of rings (size 3 to 8) (size 9 to 14) (size 15 to 20)
#    0.000    1.000    5.000    1.500    0.000    4.000 
#    0.000    0.000    0.000    0.000    0.000    0.000 
#    0.000    0.000    0.000    0.000    0.000    0.000 
#
# Total GULP energy -297703.311282 kJ/mol
# GULP energy per Si atom -12404.304637 kJ/mol
# Density = 1.964770 g / cm^3
# Si number density = 19.692524 Si / 1000 Ang^3
#
#
#
# Elastic Constant Matrix: (Units=GPa)
#
#
# Indices 1 2 3 4 5 6 
#
# 1 141.6604 45.5868 25.3220 0.0000 0.0000 0.0000
# 2 45.5868 114.0557 38.7212 0.0000 0.0000 0.0000
# 3 25.3220 38.7212 118.0029 0.0000 0.0000 0.0000
# 4 0.0000 0.0000 0.0000 27.9113 0.0000 0.0000
# 5 0.0000 0.0000 0.0000 0.0000 11.2383 0.0000
# 6 0.0000 0.0000 0.0000 0.0000 0.0000 31.1607
#
#
#
# Elastic Compliance Matrix: (Units=1/GPa)
#
#
# Indices 1 2 3 4 5 6 
#
# 1 0.008162 -0.003002 -0.000766 0.000000 0.000000 0.000000
# 2 -0.003002 0.010971 -0.002956 0.000000 0.000000 0.000000
# 3 -0.000766 -0.002956 0.009609 0.000000 0.000000 0.000000
# 4 0.000000 0.000000 0.000000 0.035828 0.000000 0.000000
# 5 0.000000 0.000000 0.000000 0.000000 0.088982 0.000000
# 6 0.000000 0.000000 0.000000 0.000000 0.000000 0.032092
#
#
# Mechanical properties :
#
#
# Convention : Reuss Voigt Hill
#
# Bulk Modulus (GPa) = 65.38801 65.88655 65.63728
# Shear Modulus (GPa) = 24.48703 31.66798 28.07750
#
# Velocity S-wave (km/s) = 3.53011 4.01449 3.78007
# Velocity P-wave (km/s) = 7.06344 7.41744 7.24260
#
# Compressibility (1/GPa) = 0.01529332
#
# Stress axis : x y z
#
# Youngs Moduli (GPa) = 122.51544 91.14892 104.07205
#
# Poissons Ratio (x) = 0.27364 0.07976
# Poissons Ratio (y) = 0.36781 0.30761
# Poissons Ratio (z) = 0.09389 0.26942
#
# Static dielectric constant tensor:
#      x y z
#    x 3.754900 0.000000 0.000000 
#    y 0.000000 3.764530 0.000000 
#    z 0.000000 0.000000 3.674570 
# 
# 
# High freq. dielectric constant tensor:
#      x y z
#    x 1.778650 0.000000 0.000000 
#    y 0.000000 1.784280 0.000000 
#    z 0.000000 0.000000 1.763210 
# 
# From -- ./inp_files/42033.got.cif
#   From: 2010.03.12/outbox.cif.g09.slc.cpg/sg74_22_cif.got.tgz:42033.got - 2010.04.16 15:46:19.
