data_PCOD8301884
_publ_section_title
;
Structure prediction by ZEFSAII (Michael W. Deem and Ramdas Pophale) SiO2 
 PCOD8301884
Probable space group: P 41
;
_chemical_formula_sum "Si O2"
_cell_formula_units_Z 32
_cell_length_a 11.939974
_cell_length_b 11.939974
_cell_length_c 11.044997
_cell_angle_alpha 90.000000
_cell_angle_beta 90.000000
_cell_angle_gamma 90.000000
_cell_volume 1574.607677
_symmetry_space_group_name_H-M "P 41"
_symmetry_group_IT_number 76
_symmetry_cell_setting 'tetragonal'
loop_
_space_group_symop_operation_xyz
x,y,z
-y,x,1/4+z
-x,-y,1/2+z
y,-x,3/4+z
loop_
_atom_site_type_symbol
_atom_site_label
_atom_site_fract_x
_atom_site_fract_y
_atom_site_fract_z
Si Si1 0.297485 0.613470 0.568100
Si Si2 0.702515 0.613481 0.928409
Si Si3 0.936139 0.500014 0.498251
Si Si4 0.099099 0.319516 0.585314
Si Si5 0.680496 0.900900 0.161181
Si Si6 0.934603 0.934579 0.123236
Si Si7 0.473118 0.208776 0.469838
Si Si8 0.473115 0.791217 0.526669
O O1 0.326793 0.499987 0.498271
O O2 0.211608 0.690384 0.491623
O O3 0.410824 0.683169 0.582253
O O4 0.245948 0.579037 0.696486
O O5 0.754048 0.579031 0.800027
O O6 0.589175 0.683180 0.914246
O O7 0.788391 0.690405 0.004875
O O8 0.860564 0.527214 0.612905
O O9 0.860547 0.472795 0.383614
O O10 0.010174 0.389732 0.509757
O O11 0.010130 0.610323 0.486726
O O12 0.045483 0.198189 0.607790
O O13 0.128034 0.385121 0.708491
O O14 0.801835 0.954479 0.138695
O O15 0.614875 0.871975 0.038012
O O16 0.000014 0.973415 0.248230
#
# Coordination Sequence:
#
# PCOD8301884 Si02
#       8
#     4   4   4   4   4   4   4   4
#     4  10  20  40  66  92 126 171 218 255 330 408
#     4  10  20  40  66  92 126 171 218 255 330 408
#     4  12  24  38  66  98 130 166 222 280 330 396
#     4  11  21  42  70  92 126 172 220 278 328 398
#     4  11  21  42  70  92 126 172 220 278 328 398
#     4  12  26  48  70  98 136 188 234 280 346 406
#     4  11  22  41  62  99 127 173 212 267 339 402
#     4  11  22  41  62  99 127 173 212 267 339 402
#
# _framework density 20.322524000000001
#
# number of rings (size 3 to 8) (size 9 to 14) (size 15 to 20)
#    0.000    1.000    6.250    4.500    0.000    1.000 
#   11.250    0.000    0.000    0.000    0.000    0.000 
#    0.000    0.000    0.000    0.000    0.000    0.000 
#
# Total GULP energy -396816.506890 kJ/mol
# GULP energy per Si atom -12400.515840 kJ/mol
# Density = 2.027627 g / cm^3
# Si number density = 20.322524 Si / 1000 Ang^3
#
#
#
# Elastic Constant Matrix: (Units=GPa)
#
#
# Indices 1 2 3 4 5 6 
#
# 1 72.7121 25.5390 44.3758 0.0000 0.0000 -0.0001
# 2 25.5390 72.7121 44.3758 0.0000 0.0000 0.0001
# 3 44.3758 44.3758 128.2379 0.0000 0.0000 0.0000
# 4 0.0000 0.0000 0.0000 22.5255 0.0000 0.0000
# 5 0.0000 0.0000 0.0000 0.0000 22.5255 0.0000
# 6 -0.0001 0.0001 0.0000 0.0000 0.0000 24.8883
#
#
#
# Elastic Compliance Matrix: (Units=1/GPa)
#
#
# Indices 1 2 3 4 5 6 
#
# 1 0.018002 -0.003196 -0.005124 0.000000 0.000000 0.000000
# 2 -0.003196 0.018002 -0.005124 0.000000 0.000000 0.000000
# 3 -0.005124 -0.005124 0.011344 0.000000 0.000000 0.000000
# 4 0.000000 0.000000 0.000000 0.044394 0.000000 0.000000
# 5 0.000000 0.000000 0.000000 0.000000 0.044394 0.000000
# 6 0.000000 0.000000 0.000000 0.000000 0.000000 0.040179
#
#
# Mechanical properties :
#
#
# Convention : Reuss Voigt Hill
#
# Bulk Modulus (GPa) = 48.87094 55.80480 52.33787
# Shear Modulus (GPa) = 23.80683 24.61263 24.20973
#
# Velocity S-wave (km/s) = 3.42636 3.48386 3.45523
# Velocity P-wave (km/s) = 6.30501 6.61077 6.45970
#
# Compressibility (1/GPa) = 0.02046206
#
# Stress axis : x y z
#
# Youngs Moduli (GPa) = 55.54828 55.54828 88.15267
#
# Poissons Ratio (x) = 0.17754 0.45166
# Poissons Ratio (y) = 0.17754 0.45166
# Poissons Ratio (z) = 0.28461 0.28461
#
# Static dielectric constant tensor:
#      x y z
#    x 3.656860 0.000000 0.000000 
#    y 0.000000 3.656860 0.000000 
#    z 0.000000 0.000000 3.940800 
# 
# 
# High freq. dielectric constant tensor:
#      x y z
#    x 1.788610 0.000000 0.000000 
#    y 0.000000 1.788610 0.000000 
#    z 0.000000 0.000000 1.794440 
# 
# From -- ./inp_files/984.got.cif
#   From: 2010.03.12/outbox.cif.g09.slc.cpg/sg76_cif.got.tgz:984.got - 2010.04.16 16:34:25.
