data_PCOD8301435
_publ_section_title
;
Structure prediction by ZEFSAII (Michael W. Deem and Ramdas Pophale) SiO2 
 PCOD8301435
Probable space group: I M M A
;
_chemical_formula_sum "Si O2"
_cell_formula_units_Z 88
_cell_length_a 14.430880
_cell_length_b 17.321642
_cell_length_c 17.614884
_cell_angle_alpha 90.000000
_cell_angle_beta 90.000000
_cell_angle_gamma 90.000000
_cell_volume 4403.131555
_symmetry_space_group_name_H-M "I M M A"
_symmetry_group_IT_number 74
_symmetry_cell_setting 'orthorhombic'
loop_
_space_group_symop_operation_xyz
x,y,z
-x,1/2-y,z
x,-y,-z
-x,1/2+y,-z
-x,-y,-z
x,1/2+y,-z
-x,y,z
x,1/2-y,z
1/2+x,1/2+y,1/2+z
1/2-x,-y,1/2+z
1/2+x,1/2-y,1/2-z
1/2-x,y,1/2-z
1/2-x,1/2-y,1/2-z
1/2+x,y,1/2-z
1/2-x,1/2+y,1/2+z
1/2+x,-y,1/2+z
loop_
_atom_site_type_symbol
_atom_site_label
_atom_site_fract_x
_atom_site_fract_y
_atom_site_fract_z
Si Si1 0.500000 0.334295 0.743947
Si Si2 0.000000 0.578975 0.869556
Si Si3 0.320731 0.160625 0.961952
Si Si4 0.500000 0.839559 0.941816
Si Si5 0.500000 0.457931 0.196939
Si Si6 0.162249 0.918028 0.307857
Si Si7 0.849395 0.089458 0.019069
Si Si8 0.500000 0.408539 0.590491
O O1 0.500000 0.250000 0.707855
O O2 0.595274 0.345327 0.789805
O O3 0.500000 0.397825 0.679620
O O4 0.903036 0.611952 0.902326
O O5 0.000000 0.499893 0.917633
O O6 0.000000 0.582220 0.779258
O O7 0.316603 0.250000 0.936853
O O8 0.300746 0.102898 0.891170
O O9 0.415475 0.140369 0.003479
O O10 0.243264 0.139793 0.023896
O O11 0.500000 0.750000 0.915710
O O12 0.500000 0.892233 0.866893
O O13 0.595173 0.507068 0.190708
O O14 0.250000 0.928424 0.250000
O O15 0.909068 0.125265 0.949454
O O16 0.826760 0.000000 0.000000
#
# Coordination Sequence:
#
# PCOD8301435 Si02
#       8
#     8   8  16   8   8  16  16   8
#     4  11  21  35  54  82 127 172 202 231 286 360
#     4   9  18  39  60  87 117 148 189 257 310 345
#     4  11  24  41  60  86 123 162 201 247 296 354
#     4  10  25  47  63  82 116 161 214 264 300 338
#     4  11  24  41  65  91 117 156 208 250 301 364
#     4  11  24  37  59  93 128 159 199 241 296 361
#     4   9  20  34  61  87 115 153 197 241 297 359
#     4   9  16  34  53  85 121 155 193 237 293 354
#
# _framework density 19.985776000000001
#
# number of rings (size 3 to 8) (size 9 to 14) (size 15 to 20)
#    0.000    1.818    1.818    3.818    5.091    5.091 
#    0.000    2.273    0.000    2.727    0.000    0.000 
#    0.000    0.000    0.000    0.000    0.000    0.000 
#
# Total GULP energy -545097.954442 kJ/mol
# GULP energy per Si atom -12388.589874 kJ/mol
# Density = 1.994029 g / cm^3
# Si number density = 19.985776 Si / 1000 Ang^3
#
#
#
# Elastic Constant Matrix: (Units=GPa)
#
#
# Indices 1 2 3 4 5 6 
#
# 1 156.7364 48.6708 51.7467 0.0000 0.0000 0.0000
# 2 48.6708 57.6257 46.7689 0.0000 0.0000 0.0000
# 3 51.7467 46.7689 130.9356 0.0000 0.0000 0.0000
# 4 0.0000 0.0000 0.0000 20.6563 0.0000 0.0000
# 5 0.0000 0.0000 0.0000 0.0000 38.2517 0.0000
# 6 0.0000 0.0000 0.0000 0.0000 0.0000 -22.9461
#
#
#
# Elastic Compliance Matrix: (Units=1/GPa)
#
#
# Indices 1 2 3 4 5 6 
#
# 1 0.008771 -0.006470 -0.001155 0.000000 0.000000 0.000000
# 2 -0.006470 0.029211 -0.007877 0.000000 0.000000 0.000000
# 3 -0.001155 -0.007877 0.010907 0.000000 0.000000 0.000000
# 4 0.000000 0.000000 0.000000 0.048411 0.000000 0.000000
# 5 0.000000 0.000000 0.000000 0.000000 0.026143 0.000000
# 6 0.000000 0.000000 0.000000 0.000000 0.000000 -0.043580
#
#
# Mechanical properties :
#
#
# Convention : Reuss Voigt Hill
#
# Bulk Modulus (GPa) = 55.91374 71.07450 63.49412
# Shear Modulus (GPa) = 42.79783 20.39981 31.59882
#
# Velocity S-wave (km/s) = 4.63256 3.19833 3.98058
# Velocity P-wave (km/s) = 7.52673 7.01989 7.27772
#
# Compressibility (1/GPa) = 0.01788469
#
# Stress axis : x y z
#
# Youngs Moduli (GPa) = 114.01614 34.23380 91.68121
#
# Poissons Ratio (x) = 0.22150 0.10590
# Poissons Ratio (y) = 0.73771 0.72215
# Poissons Ratio (z) = 0.13170 0.26965
#
# Static dielectric constant tensor:
#      x y z
#    x 7.701540 0.000000 0.000000 
#    y 0.000000 3.318110 0.000000 
#    z 0.000000 0.000000 3.491480 
# 
# 
# High freq. dielectric constant tensor:
#      x y z
#    x 1.800050 0.000000 0.000000 
#    y 0.000000 1.749520 0.000000 
#    z 0.000000 0.000000 1.776760 
# 
# From -- ./inp_files/42864.got.cif
#   From: 2010.03.12/outbox.cif.g09.slc.cpg/sg74_22_cif.got.tgz:42864.got - 2010.04.16 15:46:19.
