data_PCOD8301534
_publ_section_title
;
Structure prediction by ZEFSAII (Michael W. Deem and Ramdas Pophale) SiO2 
 PCOD8301534
Probable space group: I M M A
;
_chemical_formula_sum "Si O2"
_cell_formula_units_Z 96
_cell_length_a 11.147122
_cell_length_b 14.482644
_cell_length_c 31.462775
_cell_angle_alpha 90.000000
_cell_angle_beta 90.000000
_cell_angle_gamma 90.000000
_cell_volume 5079.344089
_symmetry_space_group_name_H-M "I M M A"
_symmetry_group_IT_number 74
_symmetry_cell_setting 'orthorhombic'
loop_
_space_group_symop_operation_xyz
x,y,z
-x,1/2-y,z
x,-y,-z
-x,1/2+y,-z
-x,-y,-z
x,1/2+y,-z
-x,y,z
x,1/2-y,z
1/2+x,1/2+y,1/2+z
1/2-x,-y,1/2+z
1/2+x,1/2-y,1/2-z
1/2-x,y,1/2-z
1/2-x,1/2-y,1/2-z
1/2+x,y,1/2-z
1/2-x,1/2+y,1/2+z
1/2+x,-y,1/2+z
loop_
_atom_site_type_symbol
_atom_site_label
_atom_site_fract_x
_atom_site_fract_y
_atom_site_fract_z
Si Si1 0.266112 0.851024 0.434385
Si Si2 0.363210 0.103773 0.012963
Si Si3 0.245649 0.355118 0.397414
Si Si4 0.363258 0.469147 0.865117
Si Si5 0.500000 0.139590 0.518996
Si Si6 0.363187 0.355782 0.780657
Si Si7 0.000000 0.641691 0.924200
O O1 0.289933 0.750000 0.414005
O O2 0.169359 0.835932 0.471882
O O3 0.221981 0.918889 0.398180
O O4 0.384970 0.895587 0.454856
O O5 0.500000 0.117798 0.025671
O O6 0.288788 0.136544 0.053305
O O7 0.332134 0.000000 0.000000
O O8 0.224631 0.250000 0.381741
O O9 0.170839 0.422317 0.366160
O O10 0.385030 0.384931 0.395789
O O11 0.500000 0.456907 0.880203
O O12 0.344462 0.426907 0.818841
O O13 0.500000 0.250000 0.516876
O O14 0.500000 0.095473 0.471500
O O15 0.500000 0.370563 0.761326
O O16 0.354039 0.250000 0.796853
O O17 0.250000 0.376449 0.750000
O O18 0.000000 0.750000 0.933143
#
# Coordination Sequence:
#
# PCOD8301534 Si02
#       7
#    16  16  16  16   8  16   8
#     4  11  21  34  51  73 105 144 185 231 283 330
#     4  11  21  33  47  70 105 144 190 238 275 321
#     4  11  22  37  55  75 106 149 195 239 283 329
#     4  11  23  38  56  84 116 142 179 229 277 333
#     4   9  18  33  49  69 102 145 193 238 281 329
#     4   9  19  40  68  94 122 152 178 213 270 341
#     4   9  18  35  53  69  98 147 199 240 281 327
#
# _framework density 18.900079000000002
#
# number of rings (size 3 to 8) (size 9 to 14) (size 15 to 20)
#    0.000    1.667    3.333    2.000    0.000    4.667 
#    3.000    1.667    0.000    0.500    0.000    0.000 
#    0.000    0.000    0.000    0.000    0.000    0.000 
#
# Total GULP energy -594984.038278 kJ/mol
# GULP energy per Si atom -12395.500797 kJ/mol
# Density = 1.885706 g / cm^3
# Si number density = 18.900079 Si / 1000 Ang^3
#
#
#
# Elastic Constant Matrix: (Units=GPa)
#
#
# Indices 1 2 3 4 5 6 
#
# 1 97.2098 42.3336 40.7099 0.0000 0.0000 0.0000
# 2 42.3336 84.8392 35.2111 0.0000 0.0000 0.0000
# 3 40.7099 35.2111 66.0429 0.0000 0.0000 0.0000
# 4 0.0000 0.0000 0.0000 11.5700 0.0000 0.0000
# 5 0.0000 0.0000 0.0000 0.0000 25.3483 0.0000
# 6 0.0000 0.0000 0.0000 0.0000 0.0000 29.9353
#
#
#
# Elastic Compliance Matrix: (Units=1/GPa)
#
#
# Indices 1 2 3 4 5 6 
#
# 1 0.015227 -0.004754 -0.006851 0.000000 0.000000 0.000000
# 2 -0.004754 0.016621 -0.005931 0.000000 0.000000 0.000000
# 3 -0.006851 -0.005931 0.022527 0.000000 0.000000 0.000000
# 4 0.000000 0.000000 0.000000 0.086431 0.000000 0.000000
# 5 0.000000 0.000000 0.000000 0.000000 0.039450 0.000000
# 6 0.000000 0.000000 0.000000 0.000000 0.000000 0.033405
#
#
# Mechanical properties :
#
#
# Convention : Reuss Voigt Hill
#
# Bulk Modulus (GPa) = 51.80890 53.84455 52.82673
# Shear Modulus (GPa) = 19.59499 22.02653 20.81076
#
# Velocity S-wave (km/s) = 3.22338 3.41753 3.32187
# Velocity P-wave (km/s) = 6.42846 6.64256 6.53639
#
# Compressibility (1/GPa) = 0.01930170
#
# Stress axis : x y z
#
# Youngs Moduli (GPa) = 65.67429 60.16523 44.39150
#
# Poissons Ratio (x) = 0.28605 0.30413
# Poissons Ratio (y) = 0.31225 0.26328
# Poissons Ratio (z) = 0.44994 0.35683
#
# Static dielectric constant tensor:
#      x y z
#    x 3.864380 0.000000 0.000000 
#    y 0.000000 3.565710 0.000000 
#    z 0.000000 0.000000 2.989390 
# 
# 
# High freq. dielectric constant tensor:
#      x y z
#    x 1.756110 0.000000 0.000000 
#    y 0.000000 1.739710 0.000000 
#    z 0.000000 0.000000 1.675550 
# 
# From -- ./inp_files/71822.got.cif
#   From: 2010.03.12/outbox.cif.g09.slc.cpg/sg74_36_cif.got.tgz:71822.got - 2010.04.16 15:46:19.
