data_PCOD8301091
_publ_section_title
;
Structure prediction by ZEFSAII (Michael W. Deem and Ramdas Pophale) SiO2 
 PCOD8301091
Probable space group: I M M A
;
_chemical_formula_sum "Si O2"
_cell_formula_units_Z 96
_cell_length_a 8.716105
_cell_length_b 23.398173
_cell_length_c 23.900051
_cell_angle_alpha 90.000000
_cell_angle_beta 90.000000
_cell_angle_gamma 90.000000
_cell_volume 4874.198692
_symmetry_space_group_name_H-M "I M M A"
_symmetry_group_IT_number 74
_symmetry_cell_setting 'orthorhombic'
loop_
_space_group_symop_operation_xyz
x,y,z
-x,1/2-y,z
x,-y,-z
-x,1/2+y,-z
-x,-y,-z
x,1/2+y,-z
-x,y,z
x,1/2-y,z
1/2+x,1/2+y,1/2+z
1/2-x,-y,1/2+z
1/2+x,1/2-y,1/2-z
1/2-x,y,1/2-z
1/2-x,1/2-y,1/2-z
1/2+x,y,1/2-z
1/2-x,1/2+y,1/2+z
1/2+x,-y,1/2+z
loop_
_atom_site_type_symbol
_atom_site_label
_atom_site_fract_x
_atom_site_fract_y
_atom_site_fract_z
Si Si1 0.179804 0.107362 0.407658
Si Si2 0.678897 0.086182 0.807542
Si Si3 0.822006 0.484082 0.904130
Si Si4 0.319749 0.814401 0.370353
Si Si5 0.319840 0.183561 0.309855
Si Si6 0.323115 0.618944 0.480499
O O1 0.238314 0.146200 0.357101
O O2 0.216164 0.136812 0.467246
O O3 0.000000 0.096327 0.400091
O O4 0.273342 0.048807 0.412599
O O5 0.500000 0.088976 0.800379
O O6 0.750000 0.064406 0.750000
O O7 0.721769 0.040316 0.854040
O O8 0.738928 0.149269 0.822247
O O9 0.793817 0.446415 0.960063
O O10 0.000000 0.480331 0.887239
O O11 0.500000 0.819537 0.360815
O O12 0.260107 0.750000 0.365540
O O13 0.275708 0.838140 0.431217
O O14 0.500000 0.170368 0.309328
O O15 0.286459 0.250000 0.322619
O O16 0.250000 0.166122 0.250000
O O17 0.500000 0.627176 0.498090
#
# Coordination Sequence:
#
# PCOD8301091 Si02
#       6
#    16  16  16  16  16  16
#     4  12  24  36  57  89 119 149 187 227 271 331
#     4  11  22  37  57  82 113 148 188 234 285 337
#     4  10  21  39  60  82 112 149 189 233 282 334
#     4   9  19  37  59  82 111 149 192 236 283 334
#     4  10  22  42  65  86 112 146 184 229 280 331
#     4   9  19  36  57  82 114 152 189 230 281 332
#
# _framework density 19.695546
#
# number of rings (size 3 to 8) (size 9 to 14) (size 15 to 20)
#    0.000    1.833    0.000    5.500    0.000    8.333 
#    0.000    5.000    0.000    0.000    0.000    0.000 
#    0.000    0.000    0.000    0.000    0.000    0.000 
#
# Total GULP energy -595313.414119 kJ/mol
# GULP energy per Si atom -12402.362794 kJ/mol
# Density = 1.965072 g / cm^3
# Si number density = 19.695546 Si / 1000 Ang^3
#
#
#
# Elastic Constant Matrix: (Units=GPa)
#
#
# Indices 1 2 3 4 5 6 
#
# 1 65.5974 20.8493 29.5628 0.0000 0.0000 0.0000
# 2 20.8493 37.9718 12.1162 0.0000 0.0000 0.0000
# 3 29.5628 12.1162 103.0927 0.0000 0.0000 0.0000
# 4 0.0000 0.0000 0.0000 21.6923 0.0000 0.0000
# 5 0.0000 0.0000 0.0000 0.0000 38.4661 0.0000
# 6 0.0000 0.0000 0.0000 0.0000 0.0000 28.6674
#
#
#
# Elastic Compliance Matrix: (Units=1/GPa)
#
#
# Indices 1 2 3 4 5 6 
#
# 1 0.020467 -0.009730 -0.004725 0.000000 0.000000 0.000000
# 2 -0.009730 0.031987 -0.000969 0.000000 0.000000 0.000000
# 3 -0.004725 -0.000969 0.011169 0.000000 0.000000 0.000000
# 4 0.000000 0.000000 0.000000 0.046099 0.000000 0.000000
# 5 0.000000 0.000000 0.000000 0.000000 0.025997 0.000000
# 6 0.000000 0.000000 0.000000 0.000000 0.000000 0.034883
#
#
# Mechanical properties :
#
#
# Convention : Reuss Voigt Hill
#
# Bulk Modulus (GPa) = 30.51245 36.85763 33.68504
# Shear Modulus (GPa) = 23.54322 27.37406 25.45864
#
# Velocity S-wave (km/s) = 3.46114 3.73213 3.59919
# Velocity P-wave (km/s) = 5.61234 6.10950 5.86619
#
# Compressibility (1/GPa) = 0.03277351
#
# Stress axis : x y z
#
# Youngs Moduli (GPa) = 48.85994 31.26271 89.53362
#
# Poissons Ratio (x) = 0.30418 0.42309
# Poissons Ratio (y) = 0.47540 0.08678
# Poissons Ratio (z) = 0.23089 0.03030
#
# Static dielectric constant tensor:
#      x y z
#    x 3.556340 0.000000 0.000000 
#    y 0.000000 3.612800 0.000000 
#    z 0.000000 0.000000 3.618900 
# 
# 
# High freq. dielectric constant tensor:
#      x y z
#    x 1.770330 0.000000 0.000000 
#    y 0.000000 1.763270 0.000000 
#    z 0.000000 0.000000 1.776400 
# 
# From -- ./inp_files/57272.got.cif
#   From: 2010.03.12/outbox.cif.g09.slc.cpg/sg74_29_cif.got.tgz:57272.got - 2010.04.16 15:46:19.
