data_PCOD8301381
_publ_section_title
;
Structure prediction by ZEFSAII (Michael W. Deem and Ramdas Pophale) SiO2 
 PCOD8301381
Probable space group: I M M A
;
_chemical_formula_sum "Si O2"
_cell_formula_units_Z 116
_cell_length_a 8.628995
_cell_length_b 26.901120
_cell_length_c 25.111772
_cell_angle_alpha 90.000000
_cell_angle_beta 90.000000
_cell_angle_gamma 90.000000
_cell_volume 5829.186342
_symmetry_space_group_name_H-M "I M M A"
_symmetry_group_IT_number 74
_symmetry_cell_setting 'orthorhombic'
loop_
_space_group_symop_operation_xyz
x,y,z
-x,1/2-y,z
x,-y,-z
-x,1/2+y,-z
-x,-y,-z
x,1/2+y,-z
-x,y,z
x,1/2-y,z
1/2+x,1/2+y,1/2+z
1/2-x,-y,1/2+z
1/2+x,1/2-y,1/2-z
1/2-x,y,1/2-z
1/2-x,1/2-y,1/2-z
1/2+x,y,1/2-z
1/2-x,1/2+y,1/2+z
1/2+x,-y,1/2+z
loop_
_atom_site_type_symbol
_atom_site_label
_atom_site_fract_x
_atom_site_fract_y
_atom_site_fract_z
Si Si1 0.178056 0.961759 0.453382
Si Si2 0.820429 0.306304 0.600784
Si Si3 0.320618 0.638918 0.491707
Si Si4 0.500000 0.250000 0.131858
Si Si5 0.316922 0.416382 0.194142
Si Si6 0.316624 0.878395 0.195189
Si Si7 0.818575 0.480712 0.842346
Si Si8 0.667191 0.845487 0.898731
O O1 0.217909 0.907347 0.473626
O O2 0.285806 0.978166 0.404941
O O3 0.000000 0.962559 0.434203
O O4 0.210785 0.000000 0.500000
O O5 0.791831 0.250000 0.619517
O O6 0.721054 0.315898 0.547680
O O7 0.762523 0.342364 0.647725
O O8 0.000000 0.315749 0.587332
O O9 0.500000 0.625000 0.487253
O O10 0.283259 0.654968 0.551683
O O11 0.639328 0.210168 0.122619
O O12 0.500000 0.413816 0.198009
O O13 0.250000 0.396733 0.250000
O O14 0.263370 0.472063 0.183299
O O15 0.257333 0.379193 0.148033
O O16 0.500000 0.881980 0.198068
O O17 0.250000 0.856035 0.250000
O O18 0.245858 0.932530 0.186941
O O19 0.000000 0.485103 0.832039
O O20 0.500000 0.869287 0.916348
#
# Coordination Sequence:
#
# PCOD8301381 Si02
#       8
#    16  16  16   4  16  16  16  16
#     4  11  23  39  60  87 126 170 211 249 308 381
#     4  10  23  42  65  89 119 167 218 260 313 377
#     4  12  24  37  60  96 131 164 206 264 319 371
#     4   8  20  44  72  92 118 172 222 252 314 402
#     4  11  23  41  65  94 126 165 211 263 316 382
#     4  11  23  41  64  89 124 166 212 263 315 375
#     4  12  24  39  61  92 128 167 212 260 314 376
#     4   9  21  41  67  90 123 165 213 253 314 383
#
# _framework density 19.89986
#
# number of rings (size 3 to 8) (size 9 to 14) (size 15 to 20)
#    0.414    0.828    1.379    4.966    0.966    6.621 
#    0.000    0.345    0.000    0.000    0.000    0.000 
#    0.000    0.000    0.000    0.000    0.000    0.000 
#
# Total GULP energy -718553.414470 kJ/mol
# GULP energy per Si atom -12388.851974 kJ/mol
# Density = 1.985457 g / cm^3
# Si number density = 19.899860 Si / 1000 Ang^3
#
#
#
# Elastic Constant Matrix: (Units=GPa)
#
#
# Indices 1 2 3 4 5 6 
#
# 1 50.8093 17.6387 30.7209 0.0000 0.0000 0.0000
# 2 17.6387 89.9925 63.8982 0.0000 0.0000 0.0000
# 3 30.7209 63.8982 117.7113 0.0001 0.0000 0.0000
# 4 0.0000 0.0000 0.0001 -3.0138 0.0000 0.0000
# 5 0.0000 0.0000 0.0000 0.0000 37.9533 0.0000
# 6 0.0000 0.0000 0.0000 0.0000 0.0000 18.2124
#
#
#
# Elastic Compliance Matrix: (Units=1/GPa)
#
#
# Indices 1 2 3 4 5 6 
#
# 1 0.023378 -0.000407 -0.005881 0.000000 0.000000 0.000000
# 2 -0.000407 0.018088 -0.009713 0.000000 0.000000 0.000000
# 3 -0.005881 -0.009713 0.015303 0.000000 0.000000 0.000000
# 4 0.000000 0.000000 0.000000 -0.331809 0.000000 0.000000
# 5 0.000000 0.000000 0.000000 0.000000 0.026348 0.000000
# 6 0.000000 0.000000 0.000000 0.000000 0.000000 0.054908
#
#
# Mechanical properties :
#
#
# Convention : Reuss Voigt Hill
#
# Bulk Modulus (GPa) = 40.37344 53.66986 47.02165
# Shear Modulus (GPa) = -32.56734 20.38074 -6.09330
#
# Velocity S-wave (km/s) = -4.04983 3.20373 -1.75175
# Velocity P-wave (km/s) = 1.23929 6.38073 4.42594
#
# Compressibility (1/GPa) = 0.02476876
#
# Stress axis : x y z
#
# Youngs Moduli (GPa) = 42.77490 55.28453 65.34836
#
# Poissons Ratio (x) = 0.02249 0.38429
# Poissons Ratio (y) = 0.01740 0.63472
# Poissons Ratio (z) = 0.25154 0.53697
#
# Static dielectric constant tensor:
#      x y z
#    x 3.611170 0.000000 0.000000 
#    y 0.000000 3.714090 0.000000 
#    z 0.000000 0.000000 4.321900 
# 
# 
# High freq. dielectric constant tensor:
#      x y z
#    x 1.777530 0.000000 0.000000 
#    y 0.000000 1.785010 0.000000 
#    z 0.000000 0.000000 1.775550 
# 
# From -- ./inp_files/57702.got.cif
#   From: 2010.03.12/outbox.cif.g09.slc.cpg/sg74_29_cif.got.tgz:57702.got - 2010.04.16 15:46:19.
