data_PCOD8301794
_publ_section_title
;
Structure prediction by ZEFSAII (Michael W. Deem and Ramdas Pophale) SiO2 
 PCOD8301794
Probable space group: I M M A
;
_chemical_formula_sum "Si O2"
_cell_formula_units_Z 112
_cell_length_a 23.470913
_cell_length_b 9.348473
_cell_length_c 29.682240
_cell_angle_alpha 90.000000
_cell_angle_beta 90.000000
_cell_angle_gamma 90.000000
_cell_volume 6512.793886
_symmetry_space_group_name_H-M "I M M A"
_symmetry_group_IT_number 74
_symmetry_cell_setting 'orthorhombic'
loop_
_space_group_symop_operation_xyz
x,y,z
-x,1/2-y,z
x,-y,-z
-x,1/2+y,-z
-x,-y,-z
x,1/2+y,-z
-x,y,z
x,1/2-y,z
1/2+x,1/2+y,1/2+z
1/2-x,-y,1/2+z
1/2+x,1/2-y,1/2-z
1/2-x,y,1/2-z
1/2-x,1/2-y,1/2-z
1/2+x,y,1/2-z
1/2-x,1/2+y,1/2+z
1/2+x,-y,1/2+z
loop_
_atom_site_type_symbol
_atom_site_label
_atom_site_fract_x
_atom_site_fract_y
_atom_site_fract_z
Si Si1 0.768101 0.410850 0.198794
Si Si2 0.667891 0.920262 0.861532
Si Si3 0.392174 0.079388 0.292221
Si Si4 0.437943 0.580484 0.614656
Si Si5 0.345826 0.582400 0.544654
Si Si6 0.784917 0.916486 0.544558
Si Si7 0.936317 0.579514 0.696603
O O1 0.774827 0.250000 0.180075
O O2 0.750000 0.410404 0.250000
O O3 0.720002 0.486941 0.167924
O O4 0.829720 0.486633 0.196674
O O5 0.669529 0.750000 0.856793
O O6 0.675467 0.966196 0.913654
O O7 0.607627 0.976926 0.841724
O O8 0.387333 0.250000 0.287772
O O9 0.431813 0.030571 0.333538
O O10 0.417188 0.018582 0.245412
O O11 0.500000 0.526962 0.597405
O O12 0.434670 0.750000 0.613089
O O13 0.386907 0.520647 0.583747
O O14 0.363818 0.500000 0.500000
O O15 0.355082 0.750000 0.536409
O O16 0.280477 0.548979 0.557673
O O17 0.792873 0.750000 0.534227
O O18 0.804521 0.000000 0.500000
O O19 0.936213 0.750000 0.698030
O O20 0.000000 0.523091 0.685344
#
# Coordination Sequence:
#
# PCOD8301794 Si02
#       7
#    16  16  16  16  16  16  16
#     4   9  13  18  29  47  71 100 131 162 197 238
#     4   9  15  23  35  53  77 105 133 163 201 241
#     4   9  14  20  30  46  72 104 135 162 192 237
#     4   9  16  24  34  50  74 106 139 167 199 239
#     4   9  17  29  43  59  79 104 135 171 208 243
#     4   9  17  29  45  63  83 106 135 170 207 246
#     4   9  15  21  30  47  74 107 136 158 189 241
#
# _framework density 17.196922000000001
#
# number of rings (size 3 to 8) (size 9 to 14) (size 15 to 20)
#    0.000    3.000    1.429    1.286    0.000    5.429 
#    0.000    0.000    0.000    0.429    0.000    0.000 
#    0.000    1.714    0.000    1.000    0.000    0.857 
#
# Total GULP energy -693912.345171 kJ/mol
# GULP energy per Si atom -12391.291878 kJ/mol
# Density = 1.715778 g / cm^3
# Si number density = 17.196922 Si / 1000 Ang^3
#
#
#
# Elastic Constant Matrix: (Units=GPa)
#
#
# Indices 1 2 3 4 5 6 
#
# 1 135.1174 10.6801 79.4450 0.0000 0.0000 0.0000
# 2 10.6801 8.5059 17.8523 0.0000 0.0000 0.0000
# 3 79.4450 17.8523 142.3539 0.0000 0.0000 0.0000
# 4 0.0000 0.0000 0.0000 13.0269 0.0000 0.0000
# 5 0.0000 0.0000 0.0000 0.0000 25.0908 0.0000
# 6 0.0000 0.0000 0.0000 0.0000 0.0000 5.1464
#
#
#
# Elastic Compliance Matrix: (Units=1/GPa)
#
#
# Indices 1 2 3 4 5 6 
#
# 1 0.011026 -0.001262 -0.005995 0.000000 0.000000 0.000000
# 2 -0.001262 0.159709 -0.019325 0.000000 0.000000 0.000000
# 3 -0.005995 -0.019325 0.012794 0.000000 0.000000 0.000000
# 4 0.000000 0.000000 0.000000 0.076764 0.000000 0.000000
# 5 0.000000 0.000000 0.000000 0.000000 0.039855 0.000000
# 6 0.000000 0.000000 0.000000 0.000000 0.000000 0.194312
#
#
# Mechanical properties :
#
#
# Convention : Reuss Voigt Hill
#
# Bulk Modulus (GPa) = 7.67072 55.77021 31.72046
# Shear Modulus (GPa) = 8.45913 20.51947 14.48930
#
# Velocity S-wave (km/s) = 2.22028 3.45803 2.90582
# Velocity P-wave (km/s) = 3.32311 6.96022 5.45380
#
# Compressibility (1/GPa) = 0.13036592
#
# Stress axis : x y z
#
# Youngs Moduli (GPa) = 90.69864 6.26140 78.16249
#
# Poissons Ratio (x) = 0.00790 0.46858
# Poissons Ratio (y) = 0.11442 1.51046
# Poissons Ratio (z) = 0.54373 0.12100
#
# Static dielectric constant tensor:
#      x y z
#    x 3.515590 0.000000 0.000000 
#    y 0.000000 2.446640 0.000000 
#    z 0.000000 0.000000 3.296430 
# 
# 
# High freq. dielectric constant tensor:
#      x y z
#    x 1.669490 0.000000 0.000000 
#    y 0.000000 1.569790 0.000000 
#    z 0.000000 0.000000 1.668320 
# 
# From -- ./inp_files/59141.got.cif
#   From: 2010.03.12/outbox.cif.g09.slc.cpg/sg74_30_cif.got.tgz:59141.got - 2010.04.16 15:46:19.
