data_PCOD8301733
_publ_section_title
;
Structure prediction by ZEFSAII (Michael W. Deem and Ramdas Pophale) SiO2 
 PCOD8301733
Probable space group: I M M A
;
_chemical_formula_sum "Si O2"
_cell_formula_units_Z 80
_cell_length_a 7.588543
_cell_length_b 17.807967
_cell_length_c 31.325487
_cell_angle_alpha 90.000000
_cell_angle_beta 90.000000
_cell_angle_gamma 90.000000
_cell_volume 4233.217405
_symmetry_space_group_name_H-M "I M M A"
_symmetry_group_IT_number 74
_symmetry_cell_setting 'orthorhombic'
loop_
_space_group_symop_operation_xyz
x,y,z
-x,1/2-y,z
x,-y,-z
-x,1/2+y,-z
-x,-y,-z
x,1/2+y,-z
-x,y,z
x,1/2-y,z
1/2+x,1/2+y,1/2+z
1/2-x,-y,1/2+z
1/2+x,1/2-y,1/2-z
1/2-x,y,1/2-z
1/2-x,1/2-y,1/2-z
1/2+x,y,1/2-z
1/2-x,1/2+y,1/2+z
1/2+x,-y,1/2+z
loop_
_atom_site_type_symbol
_atom_site_label
_atom_site_fract_x
_atom_site_fract_y
_atom_site_fract_z
Si Si1 0.799085 0.090450 0.425727
Si Si2 0.791765 0.667928 0.661062
Si Si3 0.500000 0.161404 0.582313
Si Si4 0.000000 0.412400 0.008772
Si Si5 0.294248 0.978678 0.797421
Si Si6 0.296679 0.435432 0.878931
O O1 0.744541 0.145140 0.387175
O O2 0.675143 0.109446 0.465321
O O3 0.000000 0.104697 0.440044
O O4 0.773516 0.004450 0.411430
O O5 0.708634 0.750000 0.671305
O O6 0.712621 0.604386 0.693141
O O7 0.000000 0.671909 0.666318
O O8 0.500000 0.250000 0.585384
O O9 0.500000 0.136365 0.533547
O O10 0.675663 0.132421 0.605735
O O11 0.000000 0.500000 0.000000
O O12 0.500000 0.971661 0.805203
O O13 0.250000 0.006353 0.750000
O O14 0.226867 0.039252 0.831903
O O15 0.500000 0.408607 0.877570
#
# Coordination Sequence:
#
# PCOD8301733 Si02
#       6
#    16  16   8   8  16  16
#     4   9  18  34  58  80 107 152 198 227 267 324
#     4   8  15  30  50  74 113 157 189 224 270 321
#     4  12  26  40  58  86 114 146 180 232 300 339
#     4  12  22  36  56  86 114 142 186 242 274 322
#     4   9  18  31  53  85 108 140 189 231 272 329
#     4   9  19  38  59  81 110 147 189 227 272 334
#
# _framework density 18.898154999999999
#
# number of rings (size 3 to 8) (size 9 to 14) (size 15 to 20)
#    0.000    2.600    2.000    2.400    1.400    2.800 
#    1.800    0.000    0.000    0.600    0.000    0.000 
#    0.000    0.000    0.000    0.000    0.000    0.000 
#
# Total GULP energy -495826.255430 kJ/mol
# GULP energy per Si atom -12395.656386 kJ/mol
# Density = 1.885514 g / cm^3
# Si number density = 18.898155 Si / 1000 Ang^3
#
#
#
# Elastic Constant Matrix: (Units=GPa)
#
#
# Indices 1 2 3 4 5 6 
#
# 1 79.5991 36.3420 48.2787 0.0000 0.0000 0.0000
# 2 36.3420 105.6065 54.7128 0.0000 0.0000 0.0000
# 3 48.2787 54.7128 136.9211 0.0000 0.0000 0.0000
# 4 0.0000 0.0000 0.0000 14.3488 0.0000 0.0000
# 5 0.0000 0.0000 0.0000 0.0000 29.9400 0.0000
# 6 0.0000 0.0000 0.0000 0.0000 0.0000 9.2153
#
#
#
# Elastic Compliance Matrix: (Units=1/GPa)
#
#
# Indices 1 2 3 4 5 6 
#
# 1 0.016919 -0.003445 -0.004589 0.000000 0.000000 0.000000
# 2 -0.003445 0.012643 -0.003837 0.000000 0.000000 0.000000
# 3 -0.004589 -0.003837 0.010455 0.000000 0.000000 0.000000
# 4 0.000000 0.000000 0.000000 0.069692 0.000000 0.000000
# 5 0.000000 0.000000 0.000000 0.000000 0.033400 0.000000
# 6 0.000000 0.000000 0.000000 0.000000 0.000000 0.108516
#
#
# Mechanical properties :
#
#
# Convention : Reuss Voigt Hill
#
# Bulk Modulus (GPa) = 61.44678 66.75486 64.10082
# Shear Modulus (GPa) = 17.80677 22.88702 20.34690
#
# Velocity S-wave (km/s) = 3.07294 3.48382 3.28481
# Velocity P-wave (km/s) = 6.72130 7.18212 6.95553
#
# Compressibility (1/GPa) = 0.01627425
#
# Stress axis : x y z
#
# Youngs Moduli (GPa) = 59.10451 79.09794 95.64792
#
# Poissons Ratio (x) = 0.27247 0.43895
# Poissons Ratio (y) = 0.20360 0.36703
# Poissons Ratio (z) = 0.27125 0.30352
#
# Static dielectric constant tensor:
#      x y z
#    x 3.321300 0.000000 0.000000 
#    y 0.000000 3.366620 0.000000 
#    z 0.000000 0.000000 5.112220 
# 
# 
# High freq. dielectric constant tensor:
#      x y z
#    x 1.732370 0.000000 0.000000 
#    y 0.000000 1.703890 0.000000 
#    z 0.000000 0.000000 1.730050 
# 
# From -- ./inp_files/63986.got.cif
#   From: 2010.03.12/outbox.cif.g09.slc.cpg/sg74_32_cif.got.tgz:63986.got - 2010.04.16 15:46:19.
