data_PCOD8301986
_publ_section_title
;
Structure prediction by ZEFSAII (Michael W. Deem and Ramdas Pophale) SiO2 
 PCOD8301986
Probable space group: P 42
;
_chemical_formula_sum "Si O2"
_cell_formula_units_Z 22
_cell_length_a 8.888790
_cell_length_b 8.888790
_cell_length_c 14.276565
_cell_angle_alpha 90.000000
_cell_angle_beta 90.000000
_cell_angle_gamma 90.000000
_cell_volume 1127.999790
_symmetry_space_group_name_H-M "P 42"
_symmetry_group_IT_number 77
_symmetry_cell_setting 'tetragonal'
loop_
_space_group_symop_operation_xyz
x,y,z
-y,x,1/2+z
-x,-y,z
y,-x,1/2+z
loop_
_atom_site_type_symbol
_atom_site_label
_atom_site_fract_x
_atom_site_fract_y
_atom_site_fract_z
Si Si1 0.719794 0.424070 0.664100
Si Si2 0.280207 0.575929 0.119786
Si Si3 0.835925 0.786188 0.495099
Si Si4 0.000000 0.000000 0.141943
Si Si5 0.000000 0.500000 0.237019
Si Si6 0.786188 0.164074 0.788787
Si Si7 0.000000 0.500000 0.546868
O O1 0.594560 0.335801 0.601094
O O2 0.664203 0.594561 0.682791
O O3 0.742689 0.335528 0.761666
O O4 0.875847 0.420302 0.610520
O O5 0.257308 0.664470 0.022220
O O6 0.124155 0.579693 0.173367
O O7 0.901208 0.894533 0.574924
O O8 0.835707 0.863212 0.391943
O O9 0.929792 0.632155 0.484697
O O10 0.098791 0.105467 0.208962
O O11 0.070204 0.367843 0.299189
#
# Coordination Sequence:
#
# PCOD8301986 Si02
#       7
#     4   4   4   2   2   4   2
#     4   9  19  37  60  82 117 156 187 237 293 332
#     4   9  19  37  60  82 117 156 187 237 293 332
#     4  11  22  38  61  87 114 155 196 233 287 350
#     4  12  22  40  56  86 128 148 186 248 292 326
#     4  10  19  38  63  84 116 154 187 242 291 338
#     4  11  22  38  61  87 114 155 196 233 287 350
#     4  10  19  38  63  84 116 154 187 242 291 338
#
# _framework density 19.503549
#
# number of rings (size 3 to 8) (size 9 to 14) (size 15 to 20)
#    0.000    1.818    3.636    1.091    0.000    0.000 
#    0.000   17.273    0.000    0.000    0.000    0.000 
#    0.000    0.000    0.000    0.000    0.000    0.000 
#
# Total GULP energy -272669.668274 kJ/mol
# GULP energy per Si atom -12394.075831 kJ/mol
# Density = 1.945916 g / cm^3
# Si number density = 19.503549 Si / 1000 Ang^3
#
#
#
# Elastic Constant Matrix: (Units=GPa)
#
#
# Indices 1 2 3 4 5 6 
#
# 1 103.8844 27.9186 57.0921 0.0000 0.0000 5.9329
# 2 27.9186 103.8844 57.0921 0.0000 0.0000 -5.9329
# 3 57.0921 57.0921 144.4165 0.0000 0.0000 0.0000
# 4 0.0000 0.0000 0.0000 14.7483 0.0000 0.0000
# 5 0.0000 0.0000 0.0000 0.0000 14.7483 0.0000
# 6 5.9329 -5.9329 0.0000 0.0000 0.0000 28.5157
#
#
#
# Elastic Compliance Matrix: (Units=1/GPa)
#
#
# Indices 1 2 3 4 5 6 
#
# 1 0.012573 -0.001033 -0.004562 0.000000 0.000000 -0.002831
# 2 -0.001033 0.012573 -0.004562 0.000000 0.000000 0.002831
# 3 -0.004562 -0.004562 0.010531 0.000000 0.000000 0.000000
# 4 0.000000 0.000000 0.000000 0.067804 0.000000 0.000000
# 5 0.000000 0.000000 0.000000 0.000000 0.067804 0.000000
# 6 -0.002831 0.002831 0.000000 0.000000 0.000000 0.036246
#
#
# Mechanical properties :
#
#
# Convention : Reuss Voigt Hill
#
# Bulk Modulus (GPa) = 65.09421 70.71009 67.90215
# Shear Modulus (GPa) = 21.46238 25.60798 23.53518
#
# Velocity S-wave (km/s) = 3.32088 3.62745 3.47755
# Velocity P-wave (km/s) = 6.93919 7.34018 7.14250
#
# Compressibility (1/GPa) = 0.01536235
#
# Stress axis : x y z
#
# Youngs Moduli (GPa) = 79.53867 79.53867 94.95617
#
# Poissons Ratio (x) = 0.08220 0.43316
# Poissons Ratio (y) = 0.08220 0.43316
# Poissons Ratio (z) = 0.36283 0.36283
#
# Static dielectric constant tensor:
#      x y z
#    x 3.741610 0.000000 0.000000 
#    y 0.000000 3.741610 0.000000 
#    z 0.000000 0.000000 3.172910 
# 
# 
# High freq. dielectric constant tensor:
#      x y z
#    x 1.772100 0.000000 0.000000 
#    y 0.000000 1.772100 0.000000 
#    z 0.000000 0.000000 1.726120 
# 
# From -- ./inp_files/1054.got.cif
#   From: 2010.03.12/outbox.cif.g09.slc.cpg/sg77_cif.got.tgz:1054.got - 2010.04.16 16:36:19.
