data_PCOD8301041
_publ_section_title
;
Structure prediction by ZEFSAII (Michael W. Deem and Ramdas Pophale) SiO2 
 PCOD8301041
Probable space group: I M M A
;
_chemical_formula_sum "Si O2"
_cell_formula_units_Z 96
_cell_length_a 17.032630
_cell_length_b 14.934803
_cell_length_c 19.803183
_cell_angle_alpha 90.000000
_cell_angle_beta 90.000000
_cell_angle_gamma 90.000000
_cell_volume 5037.513366
_symmetry_space_group_name_H-M "I M M A"
_symmetry_group_IT_number 74
_symmetry_cell_setting 'orthorhombic'
loop_
_space_group_symop_operation_xyz
x,y,z
-x,1/2-y,z
x,-y,-z
-x,1/2+y,-z
-x,-y,-z
x,1/2+y,-z
-x,y,z
x,1/2-y,z
1/2+x,1/2+y,1/2+z
1/2-x,-y,1/2+z
1/2+x,1/2-y,1/2-z
1/2-x,y,1/2-z
1/2-x,1/2-y,1/2-z
1/2+x,y,1/2-z
1/2-x,1/2+y,1/2+z
1/2+x,-y,1/2+z
loop_
_atom_site_type_symbol
_atom_site_label
_atom_site_fract_x
_atom_site_fract_y
_atom_site_fract_z
Si Si1 0.500000 0.143611 0.346037
Si Si2 0.351478 0.076714 0.555060
Si Si3 0.500000 0.349063 0.491980
Si Si4 0.686032 0.147855 0.932133
Si Si5 0.351657 0.532794 0.684654
Si Si6 0.675167 0.017531 0.164140
Si Si7 0.409026 0.853336 0.934793
O O1 0.500000 0.250000 0.338898
O O2 0.500000 0.097889 0.421138
O O3 0.582311 0.110465 0.313986
O O4 0.424954 0.135364 0.536403
O O5 0.277910 0.142842 0.551659
O O6 0.336718 0.000000 0.500000
O O7 0.372048 0.042779 0.630087
O O8 0.500000 0.250000 0.464379
O O9 0.664460 0.250000 0.910711
O O10 0.668394 0.078015 0.872729
O O11 0.637414 0.118264 0.997990
O O12 0.352262 0.494320 0.760302
O O13 0.262548 0.562385 0.664355
O O14 0.618707 0.088962 0.128936
O O15 0.500000 0.872285 0.948527
O O16 0.393307 0.750000 0.916938
#
# Coordination Sequence:
#
# PCOD8301041 Si02
#       7
#     8  16   8  16  16  16  16
#     4  11  23  37  57  87 119 152 191 237 289 346
#     4  11  19  36  59  83 114 156 193 238 286 343
#     4  11  22  34  54  86 118 150 192 241 289 340
#     4  10  21  38  61  87 114 149 195 245 293 345
#     4  10  22  39  57  84 115 154 194 234 284 349
#     4  10  22  40  60  85 118 155 194 236 294 346
#     4  10  22  39  61  89 118 147 191 243 293 348
#
# _framework density 19.057020999999999
#
# number of rings (size 3 to 8) (size 9 to 14) (size 15 to 20)
#    0.000    1.667    1.667    3.750    1.167    2.667 
#    0.000    9.167    0.000    0.000    0.000    0.000 
#    0.000    0.000    0.000    0.000    0.000    0.000 
#
# Total GULP energy -594923.045273 kJ/mol
# GULP energy per Si atom -12394.230110 kJ/mol
# Density = 1.901365 g / cm^3
# Si number density = 19.057021 Si / 1000 Ang^3
#
#
#
# Elastic Constant Matrix: (Units=GPa)
#
#
# Indices 1 2 3 4 5 6 
#
# 1 93.4478 40.9525 46.7837 0.0000 0.0000 0.0000
# 2 40.9525 81.7198 48.9546 0.0000 0.0000 0.0000
# 3 46.7837 48.9546 140.6394 0.0000 0.0000 0.0000
# 4 0.0000 0.0000 0.0000 18.8383 0.0000 0.0000
# 5 0.0000 0.0000 0.0000 0.0000 36.3287 0.0000
# 6 0.0000 0.0000 0.0000 0.0000 0.0000 30.1598
#
#
#
# Elastic Compliance Matrix: (Units=1/GPa)
#
#
# Indices 1 2 3 4 5 6 
#
# 1 0.014603 -0.005569 -0.002919 0.000000 0.000000 0.000000
# 2 -0.005569 0.017585 -0.004268 0.000000 0.000000 0.000000
# 3 -0.002919 -0.004268 0.009567 0.000000 0.000000 0.000000
# 4 0.000000 0.000000 0.000000 0.053083 0.000000 0.000000
# 5 0.000000 0.000000 0.000000 0.000000 0.027526 0.000000
# 6 0.000000 0.000000 0.000000 0.000000 0.000000 0.033157
#
#
# Mechanical properties :
#
#
# Convention : Reuss Voigt Hill
#
# Bulk Modulus (GPa) = 61.57072 65.46540 63.51806
# Shear Modulus (GPa) = 26.81682 29.00643 27.91162
#
# Velocity S-wave (km/s) = 3.75532 3.90562 3.83121
# Velocity P-wave (km/s) = 7.15416 7.40037 7.27831
#
# Compressibility (1/GPa) = 0.01624149
#
# Stress axis : x y z
#
# Youngs Moduli (GPa) = 68.47733 56.86672 104.52378
#
# Poissons Ratio (x) = 0.31672 0.30512
# Poissons Ratio (y) = 0.38138 0.44615
# Poissons Ratio (z) = 0.19990 0.24273
#
# Static dielectric constant tensor:
#      x y z
#    x 3.680400 0.000000 0.000000 
#    y 0.000000 3.290960 0.000000 
#    z 0.000000 0.000000 3.606280 
# 
# 
# High freq. dielectric constant tensor:
#      x y z
#    x 1.756010 0.000000 0.000000 
#    y 0.000000 1.725710 0.000000 
#    z 0.000000 0.000000 1.746210 
# 
# From -- ./inp_files/51945.got.cif
#   From: 2010.03.12/outbox.cif.g09.slc.cpg/sg74_26_cif.got.tgz:51945.got - 2010.04.16 15:46:19.
