data_PCOD8301672
_publ_section_title
;
Structure prediction by ZEFSAII (Michael W. Deem and Ramdas Pophale) SiO2 
 PCOD8301672
Probable space group: I M M A
;
_chemical_formula_sum "Si O2"
_cell_formula_units_Z 48
_cell_length_a 14.055165
_cell_length_b 7.523619
_cell_length_c 22.770095
_cell_angle_alpha 90.000000
_cell_angle_beta 90.000000
_cell_angle_gamma 90.000000
_cell_volume 2407.839782
_symmetry_space_group_name_H-M "I M M A"
_symmetry_group_IT_number 74
_symmetry_cell_setting 'orthorhombic'
loop_
_space_group_symop_operation_xyz
x,y,z
-x,1/2-y,z
x,-y,-z
-x,1/2+y,-z
-x,-y,-z
x,1/2+y,-z
-x,y,z
x,1/2-y,z
1/2+x,1/2+y,1/2+z
1/2-x,-y,1/2+z
1/2+x,1/2-y,1/2-z
1/2-x,y,1/2-z
1/2-x,1/2-y,1/2-z
1/2+x,y,1/2-z
1/2-x,1/2+y,1/2+z
1/2+x,-y,1/2+z
loop_
_atom_site_type_symbol
_atom_site_label
_atom_site_fract_x
_atom_site_fract_y
_atom_site_fract_z
Si Si1 0.888302 0.250000 0.251695
Si Si2 0.886848 0.750000 0.616589
Si Si3 0.760695 0.045816 0.565725
Si Si4 0.890323 0.452730 0.836427
O O1 0.845180 0.250000 0.316999
O O2 0.853965 0.425442 0.217172
O O3 0.000000 0.250000 0.258391
O O4 0.850227 0.573595 0.584216
O O5 0.000000 0.750000 0.613771
O O6 0.792682 0.250000 0.571766
O O7 0.669498 0.002458 0.605650
O O8 0.728993 0.000000 0.500000
O O9 0.876360 0.250000 0.816061
O O10 0.000000 0.494442 0.851795
#
# Coordination Sequence:
#
# PCOD8301672 Si02
#       4
#     8   8  16  16
#     4   9  19  37  61  88 117 153 198 239 288 355
#     4  11  25  43  62  84 115 158 203 252 299 333
#     4  11  23  40  59  86 120 153 200 246 284 350
#     4   9  19  36  60  90 124 155 183 231 296 357
#
# _framework density 19.934881000000001
#
# number of rings (size 3 to 8) (size 9 to 14) (size 15 to 20)
#    0.000    2.000    1.667    1.000    0.000    6.000 
#    0.000    6.667    0.000    0.000    0.000    0.000 
#    0.000    0.000    0.000    0.000    0.000    0.000 
#
# Total GULP energy -297653.390289 kJ/mol
# GULP energy per Si atom -12402.224595 kJ/mol
# Density = 1.988951 g / cm^3
# Si number density = 19.934881 Si / 1000 Ang^3
#
#
#
# Elastic Constant Matrix: (Units=GPa)
#
#
# Indices 1 2 3 4 5 6 
#
# 1 68.3005 30.5310 17.5184 0.0000 0.0000 0.0000
# 2 30.5310 121.8317 41.7755 0.0000 0.0000 0.0000
# 3 17.5184 41.7755 122.7456 0.0000 0.0000 0.0000
# 4 0.0000 0.0000 0.0000 30.4260 0.0000 0.0000
# 5 0.0000 0.0000 0.0000 0.0000 28.9541 0.0000
# 6 0.0000 0.0000 0.0000 0.0000 0.0000 19.1634
#
#
#
# Elastic Compliance Matrix: (Units=1/GPa)
#
#
# Indices 1 2 3 4 5 6 
#
# 1 0.016614 -0.003793 -0.001080 0.000000 0.000000 0.000000
# 2 -0.003793 0.010158 -0.002916 0.000000 0.000000 0.000000
# 3 -0.001080 -0.002916 0.009294 0.000000 0.000000 0.000000
# 4 0.000000 0.000000 0.000000 0.032867 0.000000 0.000000
# 5 0.000000 0.000000 0.000000 0.000000 0.034537 0.000000
# 6 0.000000 0.000000 0.000000 0.000000 0.000000 0.052183
#
#
# Mechanical properties :
#
#
# Convention : Reuss Voigt Hill
#
# Bulk Modulus (GPa) = 48.81074 54.72530 51.76802
# Shear Modulus (GPa) = 28.08040 30.57890 29.32965
#
# Velocity S-wave (km/s) = 3.75721 3.92080 3.83988
# Velocity P-wave (km/s) = 6.58486 6.92882 6.75903
#
# Compressibility (1/GPa) = 0.02048730
#
# Stress axis : x y z
#
# Youngs Moduli (GPa) = 60.19109 98.44011 107.60159
#
# Poissons Ratio (x) = 0.37338 0.11623
# Poissons Ratio (y) = 0.22831 0.31377
# Poissons Ratio (z) = 0.06502 0.28705
#
# Static dielectric constant tensor:
#      x y z
#    x 3.429600 0.000000 0.000000 
#    y 0.000000 3.868460 0.000000 
#    z 0.000000 0.000000 3.835300 
# 
# 
# High freq. dielectric constant tensor:
#      x y z
#    x 1.771190 0.000000 0.000000 
#    y 0.000000 1.793000 0.000000 
#    z 0.000000 0.000000 1.781540 
# 
# From -- ./inp_files/42038.got.cif
#   From: 2010.03.12/outbox.cif.g09.slc.cpg/sg74_22_cif.got.tgz:42038.got - 2010.04.16 15:46:19.
