data_PCOD8301881
_publ_section_title
;
Structure prediction by ZEFSAII (Michael W. Deem and Ramdas Pophale) SiO2 
 PCOD8301881
Probable space group: P 41
;
_chemical_formula_sum "Si O2"
_cell_formula_units_Z 32
_cell_length_a 8.725055
_cell_length_b 8.725055
_cell_length_c 21.175873
_cell_angle_alpha 90.000000
_cell_angle_beta 90.000000
_cell_angle_gamma 90.000000
_cell_volume 1612.046891
_symmetry_space_group_name_H-M "P 41"
_symmetry_group_IT_number 76
_symmetry_cell_setting 'tetragonal'
loop_
_space_group_symop_operation_xyz
x,y,z
-y,x,1/4+z
-x,-y,1/2+z
y,-x,3/4+z
loop_
_atom_site_type_symbol
_atom_site_label
_atom_site_fract_x
_atom_site_fract_y
_atom_site_fract_z
Si Si1 0.159899 0.666690 0.454130
Si Si2 0.011339 0.824860 0.011495
Si Si3 0.098602 0.609436 0.122613
Si Si4 0.338769 0.846527 0.148677
Si Si5 0.968609 0.716141 0.575828
Si Si6 0.594404 0.107580 0.988908
Si Si7 0.958692 0.273374 0.281089
Si Si8 0.192905 0.966331 0.596015
O O1 0.192386 0.503622 0.424789
O O2 0.328868 0.730842 0.469786
O O3 0.055352 0.648209 0.515251
O O4 0.069681 0.779884 0.406859
O O5 0.024306 0.684617 0.060402
O O6 0.171823 0.911340 0.995290
O O7 0.907042 0.953069 0.042669
O O8 0.937960 0.768072 0.947208
O O9 0.267495 0.681234 0.130753
O O10 0.098881 0.425653 0.115714
O O11 0.011222 0.654456 0.186635
O O12 0.355024 0.955348 0.088848
O O13 0.824454 0.816349 0.555295
O O14 0.094305 0.815050 0.615969
O O15 0.409152 0.110394 0.987474
O O16 0.648230 0.070465 0.060478
#
# Coordination Sequence:
#
# PCOD8301881 Si02
#       8
#     4   4   4   4   4   4   4   4
#     4  11  22  41  62  89 130 165 201 255 317 375
#     4  10  20  39  62  89 118 159 207 260 303 364
#     4  11  22  38  62  91 120 160 212 248 305 373
#     4  11  22  41  62  89 130 165 201 255 317 375
#     4  10  24  38  61  92 125 158 211 259 308 362
#     4  11  22  38  62  91 120 160 212 248 305 373
#     4  10  24  38  61  92 125 158 211 259 308 362
#     4  10  20  39  62  89 118 159 207 260 303 364
#
# _framework density 19.850539999999999
#
# number of rings (size 3 to 8) (size 9 to 14) (size 15 to 20)
#    0.000    1.500    5.000    0.000    3.500    0.000 
#    0.000    7.500    0.000    0.000    0.000    0.000 
#    0.000    0.000    0.000    0.000    0.000    0.000 
#
# Total GULP energy -396683.460897 kJ/mol
# GULP energy per Si atom -12396.358153 kJ/mol
# Density = 1.980536 g / cm^3
# Si number density = 19.850540 Si / 1000 Ang^3
#
#
#
# Elastic Constant Matrix: (Units=GPa)
#
#
# Indices 1 2 3 4 5 6 
#
# 1 119.2805 58.4368 30.3532 0.0000 0.0000 -0.9438
# 2 58.4368 119.2805 30.3532 0.0000 0.0000 0.9438
# 3 30.3532 30.3532 55.7750 0.0000 0.0000 0.0000
# 4 0.0000 0.0000 0.0000 26.9947 0.0000 0.0000
# 5 0.0000 0.0000 0.0000 0.0000 26.9947 0.0000
# 6 -0.9438 0.9438 0.0000 0.0000 0.0000 24.1910
#
#
#
# Elastic Compliance Matrix: (Units=1/GPa)
#
#
# Indices 1 2 3 4 5 6 
#
# 1 0.011684 -0.004772 -0.003761 0.000000 0.000000 0.000642
# 2 -0.004772 0.011684 -0.003761 0.000000 0.000000 -0.000642
# 3 -0.003761 -0.003761 0.022023 0.000000 0.000000 0.000000
# 4 0.000000 0.000000 0.000000 0.037044 0.000000 0.000000
# 5 0.000000 0.000000 0.000000 0.000000 0.037044 0.000000
# 6 0.000642 -0.000642 0.000000 0.000000 0.000000 0.041388
#
#
# Mechanical properties :
#
#
# Convention : Reuss Voigt Hill
#
# Bulk Modulus (GPa) = 48.07464 59.18026 53.62745
# Shear Modulus (GPa) = 25.98889 27.31562 26.65225
#
# Velocity S-wave (km/s) = 3.62225 3.71356 3.66819
# Velocity P-wave (km/s) = 6.46260 6.94730 6.70933
#
# Compressibility (1/GPa) = 0.02080099
#
# Stress axis : x y z
#
# Youngs Moduli (GPa) = 85.58989 85.58989 45.40666
#
# Poissons Ratio (x) = 0.40842 0.17079
# Poissons Ratio (y) = 0.40842 0.17079
# Poissons Ratio (z) = 0.32194 0.32194
#
# Static dielectric constant tensor:
#      x y z
#    x 3.569090 0.000000 0.000000 
#    y 0.000000 3.569090 0.000000 
#    z 0.000000 0.000000 3.638380 
# 
# 
# High freq. dielectric constant tensor:
#      x y z
#    x 1.769980 0.000000 0.000000 
#    y 0.000000 1.769980 0.000000 
#    z 0.000000 0.000000 1.780100 
# 
# From -- ./inp_files/1443.got.cif
#   From: 2010.03.12/outbox.cif.g09.slc.cpg/sg76_cif.got.tgz:1443.got - 2010.04.16 16:34:25.
