data_PCOD8301402
_publ_section_title
;
Structure prediction by ZEFSAII (Michael W. Deem and Ramdas Pophale) SiO2 
 PCOD8301402
Probable space group: I M M A
;
_chemical_formula_sum "Si O2"
_cell_formula_units_Z 56
_cell_length_a 24.967844
_cell_length_b 9.914105
_cell_length_c 10.945136
_cell_angle_alpha 90.000000
_cell_angle_beta 90.000000
_cell_angle_gamma 90.000000
_cell_volume 2709.291402
_symmetry_space_group_name_H-M "I M M A"
_symmetry_group_IT_number 74
_symmetry_cell_setting 'orthorhombic'
loop_
_space_group_symop_operation_xyz
x,y,z
-x,1/2-y,z
x,-y,-z
-x,1/2+y,-z
-x,-y,-z
x,1/2+y,-z
-x,y,z
x,1/2-y,z
1/2+x,1/2+y,1/2+z
1/2-x,-y,1/2+z
1/2+x,1/2-y,1/2-z
1/2-x,y,1/2-z
1/2-x,1/2-y,1/2-z
1/2+x,y,1/2-z
1/2-x,1/2+y,1/2+z
1/2+x,-y,1/2+z
loop_
_atom_site_type_symbol
_atom_site_label
_atom_site_fract_x
_atom_site_fract_y
_atom_site_fract_z
Si Si1 0.746420 0.750000 0.938881
Si Si2 0.387944 0.533041 0.278631
Si Si3 0.638501 0.750000 0.822892
Si Si4 0.500000 0.402787 0.615127
Si Si5 0.851254 0.750000 0.407268
Si Si6 0.316404 0.000000 0.500000
O O1 0.712569 0.750000 0.065925
O O2 0.781494 0.614960 0.934337
O O3 0.704130 0.750000 0.824745
O O4 0.384154 0.375782 0.250714
O O5 0.449088 0.572354 0.299654
O O6 0.365551 0.615065 0.164298
O O7 0.353575 0.570311 0.398333
O O8 0.617113 0.750000 0.962918
O O9 0.500000 0.250000 0.565990
O O10 0.500000 0.500000 0.500000
#
# Coordination Sequence:
#
# PCOD8301402 Si02
#       6
#     8  16   8   8   8   8
#     4  10  24  42  62 102 140 178 232 260 350 392
#     4  12  24  44  71  97 142 170 237 281 342 401
#     4  10  25  44  66  98 141 184 222 282 327 406
#     4  12  28  48  73 105 134 176 219 286 348 400
#     4  10  23  46  64  94 141 186 218 284 325 408
#     4  12  24  37  68 106 126 189 218 282 346 400
#
# _framework density 20.669611
#
# number of rings (size 3 to 8) (size 9 to 14) (size 15 to 20)
#    0.857    0.000    2.857    4.286    2.000    6.857 
#    0.000    4.286    0.000    0.000    0.000    0.000 
#    0.000    0.000    0.000    0.000    0.000    0.000 
#
# Total GULP energy -347321.255990 kJ/mol
# GULP energy per Si atom -12404.330571 kJ/mol
# Density = 2.062257 g / cm^3
# Si number density = 20.669611 Si / 1000 Ang^3
#
#
#
# Elastic Constant Matrix: (Units=GPa)
#
#
# Indices 1 2 3 4 5 6 
#
# 1 125.9888 30.8231 19.7531 0.0000 0.0000 0.0000
# 2 30.8231 136.1495 5.6309 0.0000 0.0000 0.0000
# 3 19.7531 5.6309 64.5361 0.0000 0.0000 0.0000
# 4 0.0000 0.0000 0.0000 47.7156 0.0000 0.0000
# 5 0.0000 0.0000 0.0000 0.0000 2.2050 0.0000
# 6 0.0000 0.0000 0.0000 0.0000 0.0000 -231.4486
#
#
#
# Elastic Compliance Matrix: (Units=1/GPa)
#
#
# Indices 1 2 3 4 5 6 
#
# 1 0.008795 -0.001887 -0.002527 0.000000 0.000000 0.000000
# 2 -0.001887 0.007776 -0.000101 0.000000 0.000000 0.000000
# 3 -0.002527 -0.000101 0.016278 0.000000 0.000000 0.000000
# 4 0.000000 0.000000 0.000000 0.020958 0.000000 0.000000
# 5 0.000000 0.000000 0.000000 0.000000 0.453506 0.000000
# 6 0.000000 0.000000 0.000000 0.000000 0.000000 -0.004321
#
#
# Mechanical properties :
#
#
# Convention : Reuss Voigt Hill
#
# Bulk Modulus (GPa) = 41.98362 48.78758 45.38560
# Shear Modulus (GPa) = 9.61610 -18.27443 -4.32917
#
# Velocity S-wave (km/s) = 2.15926 -2.97664 -1.44879
# Velocity P-wave (km/s) = 5.15484 3.44106 4.38254
#
# Compressibility (1/GPa) = 0.02381881
#
# Stress axis : x y z
#
# Youngs Moduli (GPa) = 113.70073 128.59829 61.43413
#
# Poissons Ratio (x) = 0.24261 0.15527
# Poissons Ratio (y) = 0.21451 0.00621
# Poissons Ratio (z) = 0.28736 0.01299
#
# Static dielectric constant tensor:
#      x y z
#    x 3.855180 0.000000 0.000000 
#    y 0.000000 3.737710 0.000000 
#    z 0.000000 0.000000 3.691970 
# 
# 
# High freq. dielectric constant tensor:
#      x y z
#    x 1.805250 0.000000 0.000000 
#    y 0.000000 1.822720 0.000000 
#    z 0.000000 0.000000 1.813990 
# 
# From -- ./inp_files/24670.got.cif
#   From: 2010.03.12/outbox.cif.g09.slc.cpg/sg74_13_cif.got.tgz:24670.got - 2010.04.16 15:46:19.
