data_PCOD8301192
_publ_section_title
;
Structure prediction by ZEFSAII (Michael W. Deem and Ramdas Pophale) SiO2 
 PCOD8301192
Probable space group: I M M A
;
_chemical_formula_sum "Si O2"
_cell_formula_units_Z 72
_cell_length_a 17.976007
_cell_length_b 8.798031
_cell_length_c 23.123379
_cell_angle_alpha 90.000000
_cell_angle_beta 90.000000
_cell_angle_gamma 90.000000
_cell_volume 3657.042554
_symmetry_space_group_name_H-M "I M M A"
_symmetry_group_IT_number 74
_symmetry_cell_setting 'orthorhombic'
loop_
_space_group_symop_operation_xyz
x,y,z
-x,1/2-y,z
x,-y,-z
-x,1/2+y,-z
-x,-y,-z
x,1/2+y,-z
-x,y,z
x,1/2-y,z
1/2+x,1/2+y,1/2+z
1/2-x,-y,1/2+z
1/2+x,1/2-y,1/2-z
1/2-x,y,1/2-z
1/2-x,1/2-y,1/2-z
1/2+x,y,1/2-z
1/2-x,1/2+y,1/2+z
1/2+x,-y,1/2+z
loop_
_atom_site_type_symbol
_atom_site_label
_atom_site_fract_x
_atom_site_fract_y
_atom_site_fract_z
Si Si1 0.581834 0.930621 0.871178
Si Si2 0.086588 0.075091 0.241508
Si Si3 0.000000 0.929211 0.062687
Si Si4 0.224101 0.929947 0.561798
Si Si5 0.854942 0.428599 0.868186
O O1 0.500000 0.993797 0.889223
O O2 0.578996 0.750000 0.870029
O O3 0.602486 0.984797 0.806409
O O4 0.643355 0.989080 0.916477
O O5 0.110999 0.250000 0.234212
O O6 0.000000 0.055375 0.226765
O O7 0.135097 0.971433 0.198861
O O8 0.927180 0.984898 0.096697
O O9 0.000000 0.750000 0.056541
O O10 0.000000 0.000000 0.000000
O O11 0.226098 0.750000 0.556550
O O12 0.242580 0.000000 0.500000
O O13 0.284389 0.982515 0.607893
O O14 0.841844 0.250000 0.874621
#
# Coordination Sequence:
#
# PCOD8301192 Si02
#       5
#    16  16   8  16  16
#     4   8  17  36  61  86 112 145 186 231 280 337
#     4   9  17  33  59  87 112 144 188 232 275 329
#     4  10  22  36  52  74 104 146 189 226 267 320
#     4  11  23  39  58  82 113 148 189 236 283 332
#     4  11  22  37  55  80 115 152 188 229 281 331
#
# _framework density 19.688040999999998
#
# number of rings (size 3 to 8) (size 9 to 14) (size 15 to 20)
#    0.000    2.222    1.111    3.333    0.000    4.889 
#    0.000    6.667    0.000    4.667    0.000    0.000 
#    0.000    0.000    0.000    0.000    0.000    0.000 
#
# Total GULP energy -446430.224950 kJ/mol
# GULP energy per Si atom -12400.839582 kJ/mol
# Density = 1.964323 g / cm^3
# Si number density = 19.688041 Si / 1000 Ang^3
#
#
#
# Elastic Constant Matrix: (Units=GPa)
#
#
# Indices 1 2 3 4 5 6 
#
# 1 102.7383 28.8675 21.5337 0.0000 0.0000 0.0000
# 2 28.8675 47.5374 18.5352 0.0000 0.0000 0.0000
# 3 21.5337 18.5352 54.8405 0.0000 0.0000 0.0000
# 4 0.0000 0.0000 0.0000 28.5732 0.0000 0.0000
# 5 0.0000 0.0000 0.0000 0.0000 32.5293 0.0000
# 6 0.0000 0.0000 0.0000 0.0000 0.0000 22.6022
#
#
#
# Elastic Compliance Matrix: (Units=1/GPa)
#
#
# Indices 1 2 3 4 5 6 
#
# 1 0.012050 -0.006303 -0.002601 0.000000 0.000000 0.000000
# 2 -0.006303 0.027526 -0.006828 0.000000 0.000000 0.000000
# 3 -0.002601 -0.006828 0.021564 0.000000 0.000000 0.000000
# 4 0.000000 0.000000 0.000000 0.034998 0.000000 0.000000
# 5 0.000000 0.000000 0.000000 0.000000 0.030742 0.000000
# 6 0.000000 0.000000 0.000000 0.000000 0.000000 0.044243
#
#
# Mechanical properties :
#
#
# Convention : Reuss Voigt Hill
#
# Bulk Modulus (GPa) = 33.69891 38.10990 35.90440
# Shear Modulus (GPa) = 23.53169 25.81960 24.67564
#
# Velocity S-wave (km/s) = 3.46096 3.62530 3.54408
# Velocity P-wave (km/s) = 5.75539 6.07640 5.91808
#
# Compressibility (1/GPa) = 0.02967455
#
# Stress axis : x y z
#
# Youngs Moduli (GPa) = 82.98957 36.32905 46.37371
#
# Poissons Ratio (x) = 0.22899 0.12062
# Poissons Ratio (y) = 0.52309 0.31666
# Poissons Ratio (z) = 0.21586 0.24807
#
# Static dielectric constant tensor:
#      x y z
#    x 3.867400 0.000000 0.000000 
#    y 0.000000 3.296060 0.000000 
#    z 0.000000 0.000000 3.610350 
# 
# 
# High freq. dielectric constant tensor:
#      x y z
#    x 1.770660 0.000000 0.000000 
#    y 0.000000 1.742920 0.000000 
#    z 0.000000 0.000000 1.773650 
# 
# From -- ./inp_files/56638.got.cif
#   From: 2010.03.12/outbox.cif.g09.slc.cpg/sg74_29_cif.got.tgz:56638.got - 2010.04.16 15:46:19.
