data_PCOD8301527
_publ_section_title
;
Structure prediction by ZEFSAII (Michael W. Deem and Ramdas Pophale) SiO2 
 PCOD8301527
Probable space group: I M M A
;
_chemical_formula_sum "Si O2"
_cell_formula_units_Z 112
_cell_length_a 27.755395
_cell_length_b 13.912860
_cell_length_c 14.593819
_cell_angle_alpha 90.000000
_cell_angle_beta 90.000000
_cell_angle_gamma 90.000000
_cell_volume 5635.504267
_symmetry_space_group_name_H-M "I M M A"
_symmetry_group_IT_number 74
_symmetry_cell_setting 'orthorhombic'
loop_
_space_group_symop_operation_xyz
x,y,z
-x,1/2-y,z
x,-y,-z
-x,1/2+y,-z
-x,-y,-z
x,1/2+y,-z
-x,y,z
x,1/2-y,z
1/2+x,1/2+y,1/2+z
1/2-x,-y,1/2+z
1/2+x,1/2-y,1/2-z
1/2-x,y,1/2-z
1/2-x,1/2-y,1/2-z
1/2+x,y,1/2-z
1/2-x,1/2+y,1/2+z
1/2+x,-y,1/2+z
loop_
_atom_site_type_symbol
_atom_site_label
_atom_site_fract_x
_atom_site_fract_y
_atom_site_fract_z
Si Si1 0.706591 0.355541 0.687648
Si Si2 0.867791 0.996802 0.743722
Si Si3 0.710580 0.140527 0.173817
Si Si4 0.444260 0.138638 0.769628
Si Si5 0.381275 0.642492 0.599321
Si Si6 0.447705 0.636926 0.441001
Si Si7 0.219006 0.889860 0.983535
O O1 0.690560 0.250000 0.723568
O O2 0.750000 0.395266 0.750000
O O3 0.662963 0.428825 0.695697
O O4 0.722874 0.341340 0.582615
O O5 0.834238 0.933517 0.676576
O O6 0.893264 0.923263 0.813593
O O7 0.907543 0.059892 0.685026
O O8 0.692675 0.250000 0.191446
O O9 0.750000 0.110670 0.250000
O O10 0.732486 0.132160 0.072290
O O11 0.500000 0.118487 0.796314
O O12 0.431735 0.250000 0.793999
O O13 0.434128 0.115202 0.663371
O O14 0.399962 0.750000 0.621271
O O15 0.408613 0.595491 0.511981
O O16 0.324690 0.650143 0.577473
O O17 0.500000 0.592482 0.464332
O O18 0.449742 0.750000 0.452611
O O19 0.210500 0.000000 0.000000
#
# Coordination Sequence:
#
# PCOD8301527 Si02
#       7
#    16  16  16  16  16  16  16
#     4  11  23  37  52  77 109 139 175 229 289 338
#     4  12  21  34  52  77 105 142 193 238 275 329
#     4  11  22  37  54  76 109 149 192 236 275 322
#     4   9  19  35  53  74 104 143 187 236 291 345
#     4  11  21  31  48  71 101 143 190 231 271 318
#     4   8  16  30  45  66  98 135 179 230 276 321
#     4  12  21  36  55  75 105 143 189 230 281 333
#
# _framework density 19.873998
#
# number of rings (size 3 to 8) (size 9 to 14) (size 15 to 20)
#    0.000    1.429    2.857    5.143    0.000    1.714 
#    0.000    1.429    0.000    1.286    0.000    0.000 
#    0.000    5.143    0.000    7.571    0.000    2.286 
#
# Total GULP energy -694131.402797 kJ/mol
# GULP energy per Si atom -12395.203621 kJ/mol
# Density = 1.982876 g / cm^3
# Si number density = 19.873998 Si / 1000 Ang^3
#
#
#
# Elastic Constant Matrix: (Units=GPa)
#
#
# Indices 1 2 3 4 5 6 
#
# 1 101.7974 49.4055 16.3605 0.0000 0.0000 0.0000
# 2 49.4055 115.3030 9.3059 0.0000 0.0000 0.0000
# 3 16.3605 9.3059 29.0861 0.0000 0.0000 0.0000
# 4 0.0000 0.0000 0.0000 18.4164 0.0000 0.0000
# 5 0.0000 0.0000 0.0000 0.0000 27.6003 0.0000
# 6 0.0000 0.0000 0.0000 0.0000 0.0000 30.9659
#
#
#
# Elastic Compliance Matrix: (Units=1/GPa)
#
#
# Indices 1 2 3 4 5 6 
#
# 1 0.013293 -0.005228 -0.005805 0.000000 0.000000 0.000000
# 2 -0.005228 0.010958 -0.000566 0.000000 0.000000 0.000000
# 3 -0.005805 -0.000566 0.037827 0.000000 0.000000 0.000000
# 4 0.000000 0.000000 0.000000 0.054299 0.000000 0.000000
# 5 0.000000 0.000000 0.000000 0.000000 0.036232 0.000000
# 6 0.000000 0.000000 0.000000 0.000000 0.000000 0.032294
#
#
# Mechanical properties :
#
#
# Convention : Reuss Voigt Hill
#
# Bulk Modulus (GPa) = 25.71847 44.03669 34.87758
# Shear Modulus (GPa) = 22.61829 26.80416 24.71123
#
# Velocity S-wave (km/s) = 3.37721 3.67646 3.53001
# Velocity P-wave (km/s) = 5.30813 6.34254 5.84825
#
# Compressibility (1/GPa) = 0.03888256
#
# Stress axis : x y z
#
# Youngs Moduli (GPa) = 75.22501 91.25451 26.43629
#
# Poissons Ratio (x) = 0.47704 0.15346
# Poissons Ratio (y) = 0.39324 0.01495
# Poissons Ratio (z) = 0.43667 0.05162
#
# Static dielectric constant tensor:
#      x y z
#    x 3.711000 0.000000 0.000000 
#    y 0.000000 3.830770 0.000000 
#    z 0.000000 0.000000 3.303100 
# 
# 
# High freq. dielectric constant tensor:
#      x y z
#    x 1.759060 0.000000 0.000000 
#    y 0.000000 1.801420 0.000000 
#    z 0.000000 0.000000 1.717620 
# 
# From -- ./inp_files/33126.got.cif
#   From: 2010.03.12/outbox.cif.g09.slc.cpg/sg74_17_cif.got.tgz:33126.got - 2010.04.16 15:46:19.
