data_PCOD8301839
_publ_section_title
;
Structure prediction by ZEFSAII (Michael W. Deem and Ramdas Pophale) SiO2 
 PCOD8301839
Probable space group: P 4
;
_chemical_formula_sum "Si O2"
_cell_formula_units_Z 24
_cell_length_a 8.228546
_cell_length_b 8.228546
_cell_length_c 15.750990
_cell_angle_alpha 90.000000
_cell_angle_beta 90.000000
_cell_angle_gamma 90.000000
_cell_volume 1066.483298
_symmetry_space_group_name_H-M "P 4"
_symmetry_group_IT_number 75
_symmetry_cell_setting 'tetragonal'
loop_
_space_group_symop_operation_xyz
x,y,z
-y,x,z
-x,-y,z
y,-x,z
loop_
_atom_site_type_symbol
_atom_site_label
_atom_site_fract_x
_atom_site_fract_y
_atom_site_fract_z
Si Si1 0.908370 0.252589 0.583280
Si Si2 0.247924 0.107798 0.900093
Si Si3 0.107471 0.755533 0.083280
Si Si4 0.404825 0.249577 0.740688
Si Si5 0.247924 0.107798 0.266468
Si Si6 0.595175 0.750423 0.425872
O O1 0.874465 0.359598 0.666253
O O2 0.874465 0.359598 0.500308
O O3 0.095529 0.205546 0.583280
O O4 0.377795 0.161560 0.830467
O O5 0.082217 0.209224 0.889306
O O6 0.332342 0.144867 0.993010
O O7 0.144867 0.667658 0.173550
O O8 0.918600 0.791204 0.083280
O O9 0.592342 0.293125 0.732554
O O10 0.377795 0.161560 0.336093
O O11 0.082217 0.209224 0.277254
O O12 0.407658 0.706875 0.434006
#
# Coordination Sequence:
#
# PCOD8301839 Si02
#       6
#     4   4   4   4   4   4
#     4  11  24  41  62  86 106 129 170 221 268 316
#     4   9  17  32  56  83 108 138 180 226 269 314
#     4   7  12  26  50  79 108 136 172 223 272 309
#     4  11  24  39  54  77 111 147 179 213 259 315
#     4   9  17  32  56  83 108 138 180 226 269 314
#     4  11  24  39  54  77 111 147 179 213 259 315
#
# _framework density 22.503865999999999
#
# number of rings (size 3 to 8) (size 9 to 14) (size 15 to 20)
#    0.000    2.333    0.000    5.000    0.000   10.667 
#    0.000    1.667    0.000    8.000    0.000    0.000 
#    0.000    0.000    0.000    0.000    0.000    0.000 
#
# Total GULP energy -297463.561601 kJ/mol
# GULP energy per Si atom -12394.315067 kJ/mol
# Density = 2.245265 g / cm^3
# Si number density = 22.503866 Si / 1000 Ang^3
#
#
#
# Elastic Constant Matrix: (Units=GPa)
#
#
# Indices 1 2 3 4 5 6 
#
# 1 22.6712 -7.0231 5.0066 0.0000 0.0000 -0.3682
# 2 -7.0231 22.6712 5.0066 0.0000 0.0000 0.3682
# 3 5.0066 5.0066 182.9311 0.0000 0.0000 0.0000
# 4 0.0000 0.0000 0.0000 -13.0139 0.0000 0.0000
# 5 0.0000 0.0000 0.0000 0.0000 -13.0139 0.0000
# 6 -0.3682 0.3682 0.0000 0.0000 0.0000 29.0858
#
#
#
# Elastic Compliance Matrix: (Units=1/GPa)
#
#
# Indices 1 2 3 4 5 6 
#
# 1 0.049366 0.015679 -0.001780 0.000000 0.000000 0.000426
# 2 0.015679 0.049366 -0.001780 0.000000 0.000000 -0.000426
# 3 -0.001780 -0.001780 0.005564 0.000000 0.000000 0.000000
# 4 0.000000 0.000000 0.000000 -0.076841 0.000000 0.000000
# 5 0.000000 0.000000 0.000000 0.000000 -0.076841 0.000000
# 6 0.000426 -0.000426 0.000000 0.000000 0.000000 0.034392
#
#
# Mechanical properties :
#
#
# Convention : Reuss Voigt Hill
#
# Bulk Modulus (GPa) = 7.78016 26.02820 16.90418
# Shear Modulus (GPa) = 1384.16550 15.63051 699.89801
#
# Velocity S-wave (km/s) = 24.82769 2.63833 17.65467
# Velocity P-wave (km/s) = 28.72891 4.56862 20.56967
#
# Compressibility (1/GPa) = 0.12853199
#
# Stress axis : x y z
#
# Youngs Moduli (GPa) = 20.25697 20.25697 179.72736
#
# Poissons Ratio (x) = -0.31760 0.31995
# Poissons Ratio (y) = -0.31760 0.31995
# Poissons Ratio (z) = 0.03606 0.03606
#
# Static dielectric constant tensor:
#      x y z
#    x 3.763950 0.000000 0.000000 
#    y 0.000000 3.763950 0.000000 
#    z 0.000000 0.000000 4.568060 
# 
# 
# High freq. dielectric constant tensor:
#      x y z
#    x 1.867250 0.000000 0.000000 
#    y 0.000000 1.867250 0.000000 
#    z 0.000000 0.000000 1.912720 
# 
# From -- ./inp_files/655.got.cif
#   From: 2010.03.12/outbox.cif.g09.slc.cpg/sg75_cif.got.tgz:655.got - 2010.04.16 16:33:55.
