data_PCOD8301410
_publ_section_title
;
Structure prediction by ZEFSAII (Michael W. Deem and Ramdas Pophale) SiO2 
 PCOD8301410
Probable space group: I M M A
;
_chemical_formula_sum "Si O2"
_cell_formula_units_Z 52
_cell_length_a 10.208141
_cell_length_b 10.492455
_cell_length_c 23.767796
_cell_angle_alpha 90.000000
_cell_angle_beta 90.000000
_cell_angle_gamma 90.000000
_cell_volume 2545.732029
_symmetry_space_group_name_H-M "I M M A"
_symmetry_group_IT_number 74
_symmetry_cell_setting 'orthorhombic'
loop_
_space_group_symop_operation_xyz
x,y,z
-x,1/2-y,z
x,-y,-z
-x,1/2+y,-z
-x,-y,-z
x,1/2+y,-z
-x,y,z
x,1/2-y,z
1/2+x,1/2+y,1/2+z
1/2-x,-y,1/2+z
1/2+x,1/2-y,1/2-z
1/2-x,y,1/2-z
1/2-x,1/2-y,1/2-z
1/2+x,y,1/2-z
1/2-x,1/2+y,1/2+z
1/2+x,-y,1/2+z
loop_
_atom_site_type_symbol
_atom_site_label
_atom_site_fract_x
_atom_site_fract_y
_atom_site_fract_z
Si Si1 0.500000 0.750000 0.355120
Si Si2 0.000000 0.104816 0.295913
Si Si3 0.215846 0.022139 0.375894
Si Si4 0.148801 0.750000 0.542558
Si Si5 0.260079 0.250000 0.920588
Si Si6 0.000000 0.479684 0.171909
O O1 0.613896 0.750000 0.399758
O O2 0.500000 0.870010 0.313128
O O3 0.132120 0.040114 0.319049
O O4 0.000000 0.250000 0.316487
O O5 0.000000 0.100697 0.228651
O O6 0.173709 0.122651 0.422513
O O7 0.176637 0.880759 0.397188
O O8 0.369526 0.048662 0.364110
O O9 0.240563 0.750000 0.487983
O O10 0.000000 0.750000 0.521151
#
# Coordination Sequence:
#
# PCOD8301410 Si02
#       6
#     4   8  16   8   8   8
#     4   8  20  48  56  96 124 152 204 264 300 370
#     4  12  24  42  60  93 129 162 202 259 305 358
#     4  11  23  43  61  96 124 160 209 253 299 373
#     4  12  24  42  60  93 129 162 202 259 305 358
#     4  10  24  39  69  87 125 164 203 252 313 357
#     4  10  24  39  69  87 125 164 203 252 313 357
#
# _framework density 20.426344
#
# number of rings (size 3 to 8) (size 9 to 14) (size 15 to 20)
#    0.000    1.231    3.077    1.846    4.308    4.923 
#    0.000    9.231    0.000    0.000    0.000    0.000 
#    0.000    0.000    0.000    0.000    0.000    0.000 
#
# Total GULP energy -322356.433169 kJ/mol
# GULP energy per Si atom -12398.324353 kJ/mol
# Density = 2.037985 g / cm^3
# Si number density = 20.426344 Si / 1000 Ang^3
#
#
#
# Elastic Constant Matrix: (Units=GPa)
#
#
# Indices 1 2 3 4 5 6 
#
# 1 97.3255 28.5007 14.4778 0.0000 0.0000 0.0000
# 2 28.5007 156.1505 41.7400 0.0000 0.0000 0.0000
# 3 14.4778 41.7400 90.7342 0.0000 0.0000 0.0000
# 4 0.0000 0.0000 0.0000 23.7760 0.0000 0.0000
# 5 0.0000 0.0000 0.0000 0.0000 18.3930 0.0000
# 6 0.0000 0.0000 0.0000 0.0000 0.0000 29.7807
#
#
#
# Elastic Compliance Matrix: (Units=1/GPa)
#
#
# Indices 1 2 3 4 5 6 
#
# 1 0.010925 -0.001742 -0.000942 0.000000 0.000000 0.000000
# 2 -0.001742 0.007580 -0.003209 0.000000 0.000000 0.000000
# 3 -0.000942 -0.003209 0.012648 0.000000 0.000000 0.000000
# 4 0.000000 0.000000 0.000000 0.042059 0.000000 0.000000
# 5 0.000000 0.000000 0.000000 0.000000 0.054368 0.000000
# 6 0.000000 0.000000 0.000000 0.000000 0.000000 0.033579
#
#
# Mechanical properties :
#
#
# Convention : Reuss Voigt Hill
#
# Bulk Modulus (GPa) = 51.63509 57.07191 54.35350
# Shear Modulus (GPa) = 27.87061 31.68940 29.78000
#
# Velocity S-wave (km/s) = 3.69785 3.94305 3.82242
# Velocity P-wave (km/s) = 6.60043 6.98077 6.79326
#
# Compressibility (1/GPa) = 0.01936668
#
# Stress axis : x y z
#
# Youngs Moduli (GPa) = 91.53221 131.92867 79.06611
#
# Poissons Ratio (x) = 0.22986 0.07446
# Poissons Ratio (y) = 0.15948 0.25372
# Poissons Ratio (z) = 0.08620 0.42335
#
# Static dielectric constant tensor:
#      x y z
#    x 3.984240 0.000000 0.000000 
#    y 0.000000 4.141960 0.000000 
#    z 0.000000 0.000000 3.438980 
# 
# 
# High freq. dielectric constant tensor:
#      x y z
#    x 1.808610 0.000000 0.000000 
#    y 0.000000 1.819070 0.000000 
#    z 0.000000 0.000000 1.789060 
# 
# From -- ./inp_files/49970.got.cif
#   From: 2010.03.12/outbox.cif.g09.slc.cpg/sg74_25_cif.got.tgz:49970.got - 2010.04.16 15:46:19.
