data_PCOD8301329
_publ_section_title
;
Structure prediction by ZEFSAII (Michael W. Deem and Ramdas Pophale) SiO2 
 PCOD8301329
Probable space group: I M M A
;
_chemical_formula_sum "Si O2"
_cell_formula_units_Z 88
_cell_length_a 15.074722
_cell_length_b 27.480471
_cell_length_c 11.025314
_cell_angle_alpha 90.000000
_cell_angle_beta 90.000000
_cell_angle_gamma 90.000000
_cell_volume 4567.351658
_symmetry_space_group_name_H-M "I M M A"
_symmetry_group_IT_number 74
_symmetry_cell_setting 'orthorhombic'
loop_
_space_group_symop_operation_xyz
x,y,z
-x,1/2-y,z
x,-y,-z
-x,1/2+y,-z
-x,-y,-z
x,1/2+y,-z
-x,y,z
x,1/2-y,z
1/2+x,1/2+y,1/2+z
1/2-x,-y,1/2+z
1/2+x,1/2-y,1/2-z
1/2-x,y,1/2-z
1/2-x,1/2-y,1/2-z
1/2+x,y,1/2-z
1/2-x,1/2+y,1/2+z
1/2+x,-y,1/2+z
loop_
_atom_site_type_symbol
_atom_site_label
_atom_site_fract_x
_atom_site_fract_y
_atom_site_fract_z
Si Si1 0.897584 0.610189 0.454161
Si Si2 0.649061 0.524769 0.214167
Si Si3 0.500000 0.456886 0.595424
Si Si4 0.000000 0.618743 0.891389
Si Si5 0.850973 0.085008 0.289742
Si Si6 0.147121 0.693822 0.274115
Si Si7 0.000000 0.306555 0.917391
O O1 0.853197 0.562635 0.395516
O O2 0.861397 0.617061 0.589890
O O3 0.879133 0.660556 0.386941
O O4 0.000000 0.598567 0.457167
O O5 0.750000 0.521688 0.250000
O O6 0.588254 0.543198 0.323957
O O7 0.617802 0.470219 0.179798
O O8 0.500000 0.500000 0.500000
O O9 0.500000 0.407989 0.520386
O O10 0.912016 0.607087 0.815838
O O11 0.000000 0.673350 0.944225
O O12 0.750000 0.087844 0.250000
O O13 0.128205 0.750000 0.308771
O O14 0.250000 0.684585 0.250000
O O15 0.088329 0.678092 0.158073
O O16 0.000000 0.250000 0.938753
#
# Coordination Sequence:
#
# PCOD8301329 Si02
#       7
#    16  16   8   8  16  16   8
#     4  12  23  39  64  89 122 162 206 250 303 363
#     4  11  24  40  61  90 121 165 209 256 300 353
#     4  12  22  37  61  87 122 159 202 250 304 362
#     4  12  24  42  61  85 125 167 202 247 306 367
#     4  11  26  41  58  87 126 168 205 249 299 359
#     4  10  22  42  68  95 120 150 196 257 312 354
#     4  10  22  41  66  95 122 154 199 251 306 363
#
# _framework density 19.267182999999999
#
# number of rings (size 3 to 8) (size 9 to 14) (size 15 to 20)
#    0.000    0.909    4.545    2.182    5.091    0.727 
#    0.000    0.909    0.000    1.091    0.000    0.000 
#    0.000    0.000    0.000    0.000    0.000    0.000 
#
# Total GULP energy -545646.319024 kJ/mol
# GULP energy per Si atom -12401.052705 kJ/mol
# Density = 1.922333 g / cm^3
# Si number density = 19.267183 Si / 1000 Ang^3
#
#
#
# Elastic Constant Matrix: (Units=GPa)
#
#
# Indices 1 2 3 4 5 6 
#
# 1 114.4282 31.1744 41.3453 -0.0001 0.0001 0.0000
# 2 31.1744 85.2687 59.7962 0.0002 0.0000 0.0000
# 3 41.3453 59.7962 112.4839 -0.0005 -0.0002 -0.0002
# 4 -0.0001 0.0002 -0.0005 52.8048 0.0000 0.0001
# 5 0.0001 0.0000 -0.0002 0.0000 24.4318 0.0001
# 6 0.0000 0.0000 -0.0002 0.0001 0.0001 21.0730
#
#
#
# Elastic Compliance Matrix: (Units=1/GPa)
#
#
# Indices 1 2 3 4 5 6 
#
# 1 0.010241 -0.001761 -0.002828 0.000000 0.000000 0.000000
# 2 -0.001761 0.019001 -0.009454 0.000000 0.000000 0.000000
# 3 -0.002828 -0.009454 0.014955 0.000000 0.000000 0.000000
# 4 0.000000 0.000000 0.000000 0.018938 0.000000 0.000000
# 5 0.000000 0.000000 0.000000 0.000000 0.040930 0.000000
# 6 0.000000 0.000000 0.000000 0.000000 0.000000 0.047454
#
#
# Mechanical properties :
#
#
# Convention : Reuss Voigt Hill
#
# Bulk Modulus (GPa) = 62.06643 64.09030 63.07837
# Shear Modulus (GPa) = 27.03076 31.65292 29.34184
#
# Velocity S-wave (km/s) = 3.74965 4.05759 3.90666
# Velocity P-wave (km/s) = 7.14353 7.43561 7.29103
#
# Compressibility (1/GPa) = 0.01611177
#
# Stress axis : x y z
#
# Youngs Moduli (GPa) = 97.65010 52.62905 66.86622
#
# Poissons Ratio (x) = 0.09267 0.18911
# Poissons Ratio (y) = 0.17194 0.63213
# Poissons Ratio (z) = 0.27617 0.49754
#
# Static dielectric constant tensor:
#      x y z
#    x 2.771590 -0.000100 -0.000050 
#    y -0.000100 3.897150 0.000000 
#    z -0.000050 0.000000 3.523760 
# 
# 
# High freq. dielectric constant tensor:
#      x y z
#    x 1.768400 0.000000 0.000000 
#    y 0.000000 1.748300 0.000000 
#    z 0.000000 0.000000 1.746720 
# 
# From -- ./inp_files/20921.got.cif
#   From: 2010.03.12/outbox.cif.g09.slc.cpg/sg74_11_cif.got.tgz:20921.got - 2010.04.16 15:46:19.
