data_PCOD8301069
_publ_section_title
;
Structure prediction by ZEFSAII (Michael W. Deem and Ramdas Pophale) SiO2 
 PCOD8301069
Probable space group: I M M A
;
_chemical_formula_sum "Si O2"
_cell_formula_units_Z 104
_cell_length_a 25.763811
_cell_length_b 9.439239
_cell_length_c 22.193854
_cell_angle_alpha 90.000000
_cell_angle_beta 90.000000
_cell_angle_gamma 90.000000
_cell_volume 5397.340434
_symmetry_space_group_name_H-M "I M M A"
_symmetry_group_IT_number 74
_symmetry_cell_setting 'orthorhombic'
loop_
_space_group_symop_operation_xyz
x,y,z
-x,1/2-y,z
x,-y,-z
-x,1/2+y,-z
-x,-y,-z
x,1/2+y,-z
-x,y,z
x,1/2-y,z
1/2+x,1/2+y,1/2+z
1/2-x,-y,1/2+z
1/2+x,1/2-y,1/2-z
1/2-x,y,1/2-z
1/2-x,1/2-y,1/2-z
1/2+x,y,1/2-z
1/2-x,1/2+y,1/2+z
1/2+x,-y,1/2+z
loop_
_atom_site_type_symbol
_atom_site_label
_atom_site_fract_x
_atom_site_fract_y
_atom_site_fract_z
Si Si1 0.000000 0.088147 0.059976
Si Si2 0.107824 0.966002 0.371233
Si Si3 0.561409 0.250000 0.097034
Si Si4 0.440249 0.093657 0.748238
Si Si5 0.438909 0.250000 0.959927
Si Si6 0.401182 0.082706 0.359416
Si Si7 0.175938 0.583403 0.060829
Si Si8 0.703828 0.912836 0.058988
O O1 0.949865 0.049746 0.098460
O O2 0.000000 0.250000 0.040245
O O3 0.000000 0.000000 0.000000
O O4 0.093403 0.891334 0.308941
O O5 0.081608 0.890348 0.428189
O O6 0.169891 0.963929 0.383519
O O7 0.085180 0.121234 0.366467
O O8 0.500000 0.250000 0.102028
O O9 0.580674 0.250000 0.028349
O O10 0.500000 0.052522 0.762775
O O11 0.438224 0.250000 0.717464
O O12 0.414610 0.973816 0.706791
O O13 0.500000 0.250000 0.956370
O O14 0.388037 0.250000 0.356450
O O15 0.353052 0.992295 0.384160
O O16 0.160833 0.750000 0.054455
O O17 0.236335 0.564902 0.075784
O O18 0.160636 0.500000 0.000000
O O19 0.691268 0.750000 0.044500
O O20 0.688159 0.000000 0.000000
#
# Coordination Sequence:
#
# PCOD8301069 Si02
#       8
#     8  16   8  16   8  16  16  16
#     4  10  22  38  60  92 126 156 189 240 303 365
#     4  12  23  38  58  87 121 163 209 254 309 368
#     4  11  24  36  54  86 119 158 200 259 328 373
#     4  11  23  40  62  86 120 166 215 254 300 364
#     4  11  20  36  58  82 119 154 200 259 312 373
#     4  11  23  41  62  91 124 163 202 251 304 368
#     4  10  21  39  64  95 127 161 201 251 311 370
#     4  10  21  38  62  90 123 161 206 259 312 366
#
# _framework density 19.268747999999999
#
# number of rings (size 3 to 8) (size 9 to 14) (size 15 to 20)
#    0.000    1.231    2.308    4.154    2.154    4.308 
#    0.000    0.769    0.000    3.692    0.000    0.000 
#    0.000    0.000    0.000    0.000    0.000    0.000 
#
# Total GULP energy -644935.387134 kJ/mol
# GULP energy per Si atom -12402.603599 kJ/mol
# Density = 1.922489 g / cm^3
# Si number density = 19.268748 Si / 1000 Ang^3
#
#
#
# Elastic Constant Matrix: (Units=GPa)
#
#
# Indices 1 2 3 4 5 6 
#
# 1 99.2750 46.4664 49.3357 0.0000 0.0000 0.0000
# 2 46.4664 130.9384 38.1890 0.0000 0.0000 0.0000
# 3 49.3357 38.1890 90.3505 0.0000 0.0000 0.0000
# 4 0.0000 0.0000 0.0000 34.2877 0.0000 0.0000
# 5 0.0000 0.0000 0.0000 0.0000 -155.1066 0.0000
# 6 0.0000 0.0000 0.0000 0.0000 0.0000 30.3672
#
#
#
# Elastic Compliance Matrix: (Units=1/GPa)
#
#
# Indices 1 2 3 4 5 6 
#
# 1 0.015010 -0.003349 -0.006781 0.000000 0.000000 0.000000
# 2 -0.003349 0.009458 -0.002169 0.000000 0.000000 0.000000
# 3 -0.006781 -0.002169 0.015687 0.000000 0.000000 0.000000
# 4 0.000000 0.000000 0.000000 0.029165 0.000000 0.000000
# 5 0.000000 0.000000 0.000000 0.000000 -0.006447 0.000000
# 6 0.000000 0.000000 0.000000 0.000000 0.000000 0.032930
#
#
# Mechanical properties :
#
#
# Convention : Reuss Voigt Hill
#
# Bulk Modulus (GPa) = 64.27453 65.39401 64.83427
# Shear Modulus (GPa) = 39.81269 -5.65214 17.08027
#
# Velocity S-wave (km/s) = 4.55046 -1.71455 2.98052
# Velocity P-wave (km/s) = 7.81269 5.48561 6.75019
#
# Compressibility (1/GPa) = 0.01555826
#
# Stress axis : x y z
#
# Youngs Moduli (GPa) = 66.62053 105.72739 63.74529
#
# Poissons Ratio (x) = 0.35409 0.43224
# Poissons Ratio (y) = 0.22312 0.13826
# Poissons Ratio (z) = 0.45174 0.22932
#
# Static dielectric constant tensor:
#      x y z
#    x 3.640680 0.000000 0.000000 
#    y 0.000000 3.770790 0.000000 
#    z 0.000000 0.000000 3.316610 
# 
# 
# High freq. dielectric constant tensor:
#      x y z
#    x 1.752650 0.000000 0.000000 
#    y 0.000000 1.767750 0.000000 
#    z 0.000000 0.000000 1.732030 
# 
# From -- ./inp_files/62403.got.cif
#   From: 2010.03.12/outbox.cif.g09.slc.cpg/sg74_32_cif.got.tgz:62403.got - 2010.04.16 15:46:19.
