data_PCOD8301294
_publ_section_title
;
Structure prediction by ZEFSAII (Michael W. Deem and Ramdas Pophale) SiO2 
 PCOD8301294
Probable space group: I M M A
;
_chemical_formula_sum "Si O2"
_cell_formula_units_Z 104
_cell_length_a 24.978578
_cell_length_b 17.448304
_cell_length_c 12.756064
_cell_angle_alpha 90.000000
_cell_angle_beta 90.000000
_cell_angle_gamma 90.000000
_cell_volume 5559.524132
_symmetry_space_group_name_H-M "I M M A"
_symmetry_group_IT_number 74
_symmetry_cell_setting 'orthorhombic'
loop_
_space_group_symop_operation_xyz
x,y,z
-x,1/2-y,z
x,-y,-z
-x,1/2+y,-z
-x,-y,-z
x,1/2+y,-z
-x,y,z
x,1/2-y,z
1/2+x,1/2+y,1/2+z
1/2-x,-y,1/2+z
1/2+x,1/2-y,1/2-z
1/2-x,y,1/2-z
1/2-x,1/2-y,1/2-z
1/2+x,y,1/2-z
1/2-x,1/2+y,1/2+z
1/2+x,-y,1/2+z
loop_
_atom_site_type_symbol
_atom_site_label
_atom_site_fract_x
_atom_site_fract_y
_atom_site_fract_z
Si Si1 0.000000 0.164422 0.027338
Si Si2 0.250000 0.082689 0.250000
Si Si3 0.593721 0.437429 0.415316
Si Si4 0.198116 0.160606 0.057873
Si Si5 0.226402 0.166135 0.634985
Si Si6 0.440010 0.477072 0.788239
Si Si7 0.500000 0.838691 0.278789
Si Si8 0.331785 0.017569 0.883186
O O1 0.948374 0.129796 0.080376
O O2 0.000000 0.250000 0.065259
O O3 0.000000 0.156510 0.902965
O O4 0.233717 0.140406 0.158051
O O5 0.298402 0.030347 0.204108
O O6 0.578277 0.500000 0.500000
O O7 0.650231 0.399529 0.438880
O O8 0.589435 0.478883 0.304900
O O9 0.180178 0.250000 0.062937
O O10 0.228478 0.142875 0.949490
O O11 0.203537 0.250000 0.605240
O O12 0.250000 0.167377 0.750000
O O13 0.177849 0.107255 0.635141
O O14 0.500000 0.510914 0.814329
O O15 0.447519 0.385829 0.761975
O O16 0.396567 0.491553 0.879561
O O17 0.500000 0.750000 0.239367
O O18 0.311485 0.000000 0.000000
#
# Coordination Sequence:
#
# PCOD8301294 Si02
#       8
#     8   8  16  16  16  16   8  16
#     4  11  20  34  56  86 123 159 200 247 308 369
#     4  12  23  40  67  90 122 160 208 258 305 372
#     4  12  21  35  58  89 122 159 200 253 304 365
#     4  11  25  41  60  90 125 166 208 253 312 372
#     4  10  23  40  59  91 132 165 201 253 313 374
#     4  10  22  40  61  87 116 161 202 253 310 364
#     4   9  19  37  58  87 120 157 199 247 308 368
#     4  12  24  40  66  94 119 162 210 260 318 376
#
# _framework density 18.706638000000002
#
# number of rings (size 3 to 8) (size 9 to 14) (size 15 to 20)
#    0.462    0.615    6.154    0.923    4.308    0.923 
#    0.000    0.000    0.000    0.000    0.000    0.000 
#    0.000    0.000    0.000    0.000    0.000    0.000 
#
# Total GULP energy -644327.236313 kJ/mol
# GULP energy per Si atom -12390.908391 kJ/mol
# Density = 1.866406 g / cm^3
# Si number density = 18.706638 Si / 1000 Ang^3
#
#
#
# Elastic Constant Matrix: (Units=GPa)
#
#
# Indices 1 2 3 4 5 6 
#
# 1 86.2843 22.2288 28.8353 0.0000 0.0000 0.0000
# 2 22.2288 94.8394 25.7438 0.0000 0.0000 0.0000
# 3 28.8353 25.7438 91.5391 0.0000 0.0000 0.0000
# 4 0.0000 0.0000 0.0000 20.0946 0.0000 0.0000
# 5 0.0000 0.0000 0.0000 0.0000 34.5988 0.0000
# 6 0.0000 0.0000 0.0000 0.0000 0.0000 26.5512
#
#
#
# Elastic Compliance Matrix: (Units=1/GPa)
#
#
# Indices 1 2 3 4 5 6 
#
# 1 0.013347 -0.002151 -0.003599 0.000000 0.000000 0.000000
# 2 -0.002151 0.011762 -0.002630 0.000000 0.000000 0.000000
# 3 -0.003599 -0.002630 0.012798 0.000000 0.000000 0.000000
# 4 0.000000 0.000000 0.000000 0.049765 0.000000 0.000000
# 5 0.000000 0.000000 0.000000 0.000000 0.028903 0.000000
# 6 0.000000 0.000000 0.000000 0.000000 0.000000 0.037663
#
#
# Mechanical properties :
#
#
# Convention : Reuss Voigt Hill
#
# Bulk Modulus (GPa) = 47.29207 47.36427 47.32817
# Shear Modulus (GPa) = 28.08244 29.30592 28.69418
#
# Velocity S-wave (km/s) = 3.87874 3.96233 3.92076
# Velocity P-wave (km/s) = 6.73760 6.80499 6.77138
#
# Compressibility (1/GPa) = 0.02114519
#
# Stress axis : x y z
#
# Youngs Moduli (GPa) = 74.92528 85.01707 78.13835
#
# Poissons Ratio (x) = 0.18289 0.28124
# Poissons Ratio (y) = 0.16118 0.20553
# Poissons Ratio (z) = 0.26968 0.22362
#
# Static dielectric constant tensor:
#      x y z
#    x 3.320510 0.000000 0.000000 
#    y 0.000000 3.676090 0.000000 
#    z 0.000000 0.000000 3.341220 
# 
# 
# High freq. dielectric constant tensor:
#      x y z
#    x 1.720460 0.000000 0.000000 
#    y 0.000000 1.734560 0.000000 
#    z 0.000000 0.000000 1.721940 
# 
# From -- ./inp_files/26382.got.cif
#   From: 2010.03.12/outbox.cif.g09.slc.cpg/sg74_14_cif.got.tgz:26382.got - 2010.04.16 15:46:19.
