data_PCOD8301336
_publ_section_title
;
Structure prediction by ZEFSAII (Michael W. Deem and Ramdas Pophale) SiO2 
 PCOD8301336
Probable space group: I M M A
;
_chemical_formula_sum "Si O2"
_cell_formula_units_Z 96
_cell_length_a 8.906430
_cell_length_b 23.118787
_cell_length_c 24.020101
_cell_angle_alpha 90.000000
_cell_angle_beta 90.000000
_cell_angle_gamma 90.000000
_cell_volume 4945.879508
_symmetry_space_group_name_H-M "I M M A"
_symmetry_group_IT_number 74
_symmetry_cell_setting 'orthorhombic'
loop_
_space_group_symop_operation_xyz
x,y,z
-x,1/2-y,z
x,-y,-z
-x,1/2+y,-z
-x,-y,-z
x,1/2+y,-z
-x,y,z
x,1/2-y,z
1/2+x,1/2+y,1/2+z
1/2-x,-y,1/2+z
1/2+x,1/2-y,1/2-z
1/2-x,y,1/2-z
1/2-x,1/2-y,1/2-z
1/2+x,y,1/2-z
1/2-x,1/2+y,1/2+z
1/2+x,-y,1/2+z
loop_
_atom_site_type_symbol
_atom_site_label
_atom_site_fract_x
_atom_site_fract_y
_atom_site_fract_z
Si Si1 0.824109 0.878484 0.520563
Si Si2 0.829946 0.007760 0.413629
Si Si3 0.320662 0.813981 0.871185
Si Si4 0.323626 0.612323 0.408410
Si Si5 0.830090 0.581089 0.695772
Si Si6 0.676765 0.683182 0.191190
O O1 0.791582 0.945204 0.538498
O O2 0.765809 0.835635 0.568575
O O3 0.733377 0.859412 0.465862
O O4 0.000000 0.870190 0.509197
O O5 0.814803 0.035714 0.353316
O O6 0.000000 0.984728 0.422787
O O7 0.714583 0.955304 0.413805
O O8 0.500000 0.816213 0.871229
O O9 0.257660 0.750000 0.859452
O O10 0.259149 0.857325 0.823723
O O11 0.500000 0.621094 0.401471
O O12 0.242827 0.642235 0.356454
O O13 0.750000 0.556204 0.750000
O O14 0.000000 0.591089 0.712914
O O15 0.500000 0.672387 0.195547
O O16 0.713529 0.750000 0.176807
O O17 0.750000 0.665728 0.250000
#
# Coordination Sequence:
#
# PCOD8301336 Si02
#       6
#    16  16  16  16  16  16
#     4   9  18  34  55  77 104 142 185 228 272 315
#     4   9  19  36  54  73 104 144 185 229 272 315
#     4   8  15  30  52  76 102 135 177 220 261 309
#     4  12  24  35  54  84 113 141 174 214 263 323
#     4   9  18  32  51  75 103 137 175 218 265 310
#     4  10  22  42  65  85 108 139 174 214 261 313
#
# _framework density 19.410097
#
# number of rings (size 3 to 8) (size 9 to 14) (size 15 to 20)
#    0.000    2.500    0.000    4.500    0.000    6.000 
#    0.000    5.833    0.000    1.000    0.000    0.000 
#    0.000    0.000    0.000    0.000    0.000    0.000 
#
# Total GULP energy -595066.080827 kJ/mol
# GULP energy per Si atom -12397.210017 kJ/mol
# Density = 1.936592 g / cm^3
# Si number density = 19.410097 Si / 1000 Ang^3
#
#
#
# Elastic Constant Matrix: (Units=GPa)
#
#
# Indices 1 2 3 4 5 6 
#
# 1 76.2681 14.1364 41.5165 0.0000 0.0000 0.0000
# 2 14.1364 35.7078 3.9416 0.0000 0.0000 0.0000
# 3 41.5165 3.9416 110.8916 0.0000 0.0000 0.0000
# 4 0.0000 0.0000 0.0000 13.2338 0.0000 0.0000
# 5 0.0000 0.0000 0.0000 0.0000 34.0012 0.0000
# 6 0.0000 0.0000 0.0000 0.0000 0.0000 13.6656
#
#
#
# Elastic Compliance Matrix: (Units=1/GPa)
#
#
# Indices 1 2 3 4 5 6 
#
# 1 0.017788 -0.006332 -0.006434 0.000000 0.000000 0.000000
# 2 -0.006332 0.030369 0.001291 0.000000 0.000000 0.000000
# 3 -0.006434 0.001291 0.011381 0.000000 0.000000 0.000000
# 4 0.000000 0.000000 0.000000 0.075564 0.000000 0.000000
# 5 0.000000 0.000000 0.000000 0.000000 0.029411 0.000000
# 6 0.000000 0.000000 0.000000 0.000000 0.000000 0.073177
#
#
# Mechanical properties :
#
#
# Convention : Reuss Voigt Hill
#
# Bulk Modulus (GPa) = 27.33163 38.00628 32.66896
# Shear Modulus (GPa) = 18.32604 23.06499 20.69551
#
# Velocity S-wave (km/s) = 3.07604 3.45091 3.26885
# Velocity P-wave (km/s) = 5.16988 5.95832 5.57805
#
# Compressibility (1/GPa) = 0.03658764
#
# Stress axis : x y z
#
# Youngs Moduli (GPa) = 56.21809 32.92800 87.86638
#
# Poissons Ratio (x) = 0.20849 0.56538
# Poissons Ratio (y) = 0.35596 -0.11344
# Poissons Ratio (z) = 0.36174 -0.04251
#
# Static dielectric constant tensor:
#      x y z
#    x 3.265820 0.000000 0.000000 
#    y 0.000000 3.591550 0.000000 
#    z 0.000000 0.000000 3.646880 
# 
# 
# High freq. dielectric constant tensor:
#      x y z
#    x 1.727800 0.000000 0.000000 
#    y 0.000000 1.751050 0.000000 
#    z 0.000000 0.000000 1.769680 
# 
# From -- ./inp_files/57285.got.cif
#   From: 2010.03.12/outbox.cif.g09.slc.cpg/sg74_29_cif.got.tgz:57285.got - 2010.04.16 15:46:19.
