data_PCOD8301751
_publ_section_title
;
Structure prediction by ZEFSAII (Michael W. Deem and Ramdas Pophale) SiO2 
 PCOD8301751
Probable space group: I M M A
;
_chemical_formula_sum "Si O2"
_cell_formula_units_Z 80
_cell_length_a 18.431538
_cell_length_b 9.135322
_cell_length_c 27.956746
_cell_angle_alpha 90.000000
_cell_angle_beta 90.000000
_cell_angle_gamma 90.000000
_cell_volume 4707.301945
_symmetry_space_group_name_H-M "I M M A"
_symmetry_group_IT_number 74
_symmetry_cell_setting 'orthorhombic'
loop_
_space_group_symop_operation_xyz
x,y,z
-x,1/2-y,z
x,-y,-z
-x,1/2+y,-z
-x,-y,-z
x,1/2+y,-z
-x,y,z
x,1/2-y,z
1/2+x,1/2+y,1/2+z
1/2-x,-y,1/2+z
1/2+x,1/2-y,1/2-z
1/2-x,y,1/2-z
1/2-x,1/2-y,1/2-z
1/2+x,y,1/2-z
1/2-x,1/2+y,1/2+z
1/2+x,-y,1/2+z
loop_
_atom_site_type_symbol
_atom_site_label
_atom_site_fract_x
_atom_site_fract_y
_atom_site_fract_z
Si Si1 0.643028 0.424008 0.190844
Si Si2 0.081247 0.424764 0.209813
Si Si3 0.289883 0.423741 0.353484
Si Si4 0.226205 0.576613 0.547812
Si Si5 0.079090 0.076146 0.407252
O O1 0.642298 0.250000 0.193912
O O2 0.611715 0.489151 0.240168
O O3 0.725199 0.479735 0.181230
O O4 0.593086 0.478421 0.146918
O O5 0.080987 0.250000 0.211664
O O6 0.133269 0.481508 0.166888
O O7 0.000000 0.484479 0.200701
O O8 0.287813 0.250000 0.353154
O O9 0.277069 0.476073 0.408100
O O10 0.255228 0.500000 0.500000
O O11 0.229866 0.750000 0.541136
O O12 0.143481 0.522213 0.557934
O O13 0.080002 0.250000 0.407064
O O14 0.000000 0.016707 0.424251
#
# Coordination Sequence:
#
# PCOD8301751 Si02
#       5
#    16  16  16  16  16
#     4   8  12  18  29  46  71 102 127 143 170 220
#     4   9  14  18  28  48  73  99 123 147 180 224
#     4   8  14  23  33  47  70  98 124 151 185 223
#     4   9  17  28  41  55  72  98 129 159 192 225
#     4   8  13  21  33  51  76 102 125 150 182 221
#
# _framework density 16.994872999999998
#
# number of rings (size 3 to 8) (size 9 to 14) (size 15 to 20)
#    0.000    3.600    0.000    3.600    0.000    5.200 
#    0.000    0.000    0.000    0.600    0.000    0.000 
#    0.000   12.800    0.000    3.200    0.000    0.000 
#
# Total GULP energy -495532.846361 kJ/mol
# GULP energy per Si atom -12388.321159 kJ/mol
# Density = 1.695619 g / cm^3
# Si number density = 16.994873 Si / 1000 Ang^3
#
#
#
# Elastic Constant Matrix: (Units=GPa)
#
#
# Indices 1 2 3 4 5 6 
#
# 1 121.8658 7.6315 68.7168 0.0000 0.0000 0.0000
# 2 7.6315 6.2215 14.0793 0.0000 0.0000 0.0000
# 3 68.7168 14.0793 129.3396 0.0000 0.0000 0.0000
# 4 0.0000 0.0000 0.0000 14.9557 0.0000 0.0000
# 5 0.0000 0.0000 0.0000 0.0000 16.9282 0.0000
# 6 0.0000 0.0000 0.0000 0.0000 0.0000 3.6942
#
#
#
# Elastic Compliance Matrix: (Units=1/GPa)
#
#
# Indices 1 2 3 4 5 6 
#
# 1 0.011716 -0.000378 -0.006184 0.000000 0.000000 0.000000
# 2 -0.000378 0.213280 -0.023016 0.000000 0.000000 0.000000
# 3 -0.006184 -0.023016 0.013522 0.000000 0.000000 0.000000
# 4 0.000000 0.000000 0.000000 0.066864 0.000000 0.000000
# 5 0.000000 0.000000 0.000000 0.000000 0.059073 0.000000
# 6 0.000000 0.000000 0.000000 0.000000 0.000000 0.270695
#
#
# Mechanical properties :
#
#
# Convention : Reuss Voigt Hill
#
# Bulk Modulus (GPa) = 5.57526 48.69803 27.13665
# Shear Modulus (GPa) = 6.63048 18.24891 12.43969
#
# Velocity S-wave (km/s) = 1.97735 3.28043 2.70842
# Velocity P-wave (km/s) = 2.91563 6.56239 5.07769
#
# Compressibility (1/GPa) = 0.17936370
#
# Stress axis : x y z
#
# Youngs Moduli (GPa) = 85.35239 4.68867 73.95234
#
# Poissons Ratio (x) = 0.00177 0.45728
# Poissons Ratio (y) = 0.03227 1.70208
# Poissons Ratio (z) = 0.52778 0.10791
#
# Static dielectric constant tensor:
#      x y z
#    x 3.542860 0.000000 0.000000 
#    y 0.000000 2.338990 0.000000 
#    z 0.000000 0.000000 3.290040 
# 
# 
# High freq. dielectric constant tensor:
#      x y z
#    x 1.653040 0.000000 0.000000 
#    y 0.000000 1.563620 0.000000 
#    z 0.000000 0.000000 1.655360 
# 
# From -- ./inp_files/52178.got.cif
#   From: 2010.03.12/outbox.cif.g09.slc.cpg/sg74_27_cif.got.tgz:52178.got - 2010.04.16 15:46:19.
