data_PCOD8301296
_publ_section_title
;
Structure prediction by ZEFSAII (Michael W. Deem and Ramdas Pophale) SiO2 
 PCOD8301296
Probable space group: I M M A
;
_chemical_formula_sum "Si O2"
_cell_formula_units_Z 96
_cell_length_a 17.876451
_cell_length_b 22.340772
_cell_length_c 12.120403
_cell_angle_alpha 90.000000
_cell_angle_beta 90.000000
_cell_angle_gamma 90.000000
_cell_volume 4840.570385
_symmetry_space_group_name_H-M "I M M A"
_symmetry_group_IT_number 74
_symmetry_cell_setting 'orthorhombic'
loop_
_space_group_symop_operation_xyz
x,y,z
-x,1/2-y,z
x,-y,-z
-x,1/2+y,-z
-x,-y,-z
x,1/2+y,-z
-x,y,z
x,1/2-y,z
1/2+x,1/2+y,1/2+z
1/2-x,-y,1/2+z
1/2+x,1/2-y,1/2-z
1/2-x,y,1/2-z
1/2-x,1/2-y,1/2-z
1/2+x,y,1/2-z
1/2-x,1/2+y,1/2+z
1/2+x,-y,1/2+z
loop_
_atom_site_type_symbol
_atom_site_label
_atom_site_fract_x
_atom_site_fract_y
_atom_site_fract_z
Si Si1 0.166885 0.133389 0.199639
Si Si2 0.585645 0.553953 0.856426
Si Si3 0.913316 0.250000 0.468041
Si Si4 0.645092 0.376351 0.950963
Si Si5 0.338651 0.558375 0.254602
Si Si6 0.799827 0.932671 0.011707
Si Si7 0.587708 0.250000 0.292481
O O1 0.250000 0.139702 0.250000
O O2 0.109649 0.114934 0.295900
O O3 0.159551 0.085225 0.101223
O O4 0.132757 0.194928 0.154230
O O5 0.500000 0.537857 0.837955
O O6 0.634279 0.502521 0.801277
O O7 0.600147 0.570466 0.984767
O O8 0.876622 0.309036 0.520199
O O9 0.900104 0.250000 0.338487
O O10 0.000000 0.250000 0.499077
O O11 0.629899 0.387113 0.820264
O O12 0.732985 0.385354 0.973819
O O13 0.250000 0.554409 0.250000
O O14 0.358384 0.568715 0.384119
O O15 0.767930 0.000000 0.000000
O O16 0.500000 0.250000 0.324928
#
# Coordination Sequence:
#
# PCOD8301296 Si02
#       7
#    16  16   8  16  16  16   8
#     4  12  22  38  65  95 124 163 214 252 306 370
#     4  12  22  36  61  94 128 159 202 262 317 367
#     4  11  22  39  59  85 125 164 198 252 318 371
#     4  11  22  37  62  90 123 157 210 258 310 364
#     4  10  22  40  61  90 124 165 204 254 314 372
#     4  11  21  39  65  90 124 162 205 256 308 368
#     4  11  23  41  62  91 128 162 204 262 317 362
#
# _framework density 19.832374000000002
#
# number of rings (size 3 to 8) (size 9 to 14) (size 15 to 20)
#    0.000    0.833    5.000    4.250    0.000    2.667 
#    0.000    7.083    0.000    1.000    0.000    0.000 
#    0.000    0.000    0.000    0.000    0.000    0.000 
#
# Total GULP energy -594971.604798 kJ/mol
# GULP energy per Si atom -12395.241767 kJ/mol
# Density = 1.978723 g / cm^3
# Si number density = 19.832374 Si / 1000 Ang^3
#
#
#
# Elastic Constant Matrix: (Units=GPa)
#
#
# Indices 1 2 3 4 5 6 
#
# 1 66.9220 42.2218 45.5877 0.0000 0.0000 0.0000
# 2 42.2218 121.0543 38.2305 0.0000 0.0000 0.0000
# 3 45.5877 38.2305 109.5277 0.0000 0.0000 0.0000
# 4 0.0000 0.0000 0.0000 29.9109 0.0000 0.0000
# 5 0.0000 0.0000 0.0000 0.0000 17.1974 0.0000
# 6 0.0000 0.0000 0.0000 0.0000 0.0000 7.2843
#
#
#
# Elastic Compliance Matrix: (Units=1/GPa)
#
#
# Indices 1 2 3 4 5 6 
#
# 1 0.024084 -0.005883 -0.007971 0.000000 0.000000 0.000000
# 2 -0.005883 0.010721 -0.001294 0.000000 0.000000 0.000000
# 3 -0.007971 -0.001294 0.012899 0.000000 0.000000 0.000000
# 4 0.000000 0.000000 0.000000 0.033433 0.000000 0.000000
# 5 0.000000 0.000000 0.000000 0.000000 0.058148 0.000000
# 6 0.000000 0.000000 0.000000 0.000000 0.000000 0.137282
#
#
# Mechanical properties :
#
#
# Convention : Reuss Voigt Hill
#
# Bulk Modulus (GPa) = 57.43891 61.06489 59.25190
# Shear Modulus (GPa) = 15.99151 22.30945 19.15048
#
# Velocity S-wave (km/s) = 2.84268 3.35759 3.11081
# Velocity P-wave (km/s) = 6.30869 6.77411 6.54554
#
# Compressibility (1/GPa) = 0.01740980
#
# Stress axis : x y z
#
# Youngs Moduli (GPa) = 41.52111 93.27367 77.52350
#
# Poissons Ratio (x) = 0.54871 0.61793
# Poissons Ratio (y) = 0.24426 0.10029
# Poissons Ratio (z) = 0.33096 0.12066
#
# Static dielectric constant tensor:
#      x y z
#    x 3.408400 0.000000 0.000000 
#    y 0.000000 3.642250 0.000000 
#    z 0.000000 0.000000 4.313290 
# 
# 
# High freq. dielectric constant tensor:
#      x y z
#    x 1.751240 0.000000 0.000000 
#    y 0.000000 1.773940 0.000000 
#    z 0.000000 0.000000 1.777130 
# 
# From -- ./inp_files/22517.got.cif
#   From: 2010.03.12/outbox.cif.g09.slc.cpg/sg74_12_cif.got.tgz:22517.got - 2010.04.16 15:46:19.
