data_PCOD8301748
_publ_section_title
;
Structure prediction by ZEFSAII (Michael W. Deem and Ramdas Pophale) SiO2 
 PCOD8301748
Probable space group: I M M A
;
_chemical_formula_sum "Si O2"
_cell_formula_units_Z 40
_cell_length_a 16.034327
_cell_length_b 22.077672
_cell_length_c 4.877926
_cell_angle_alpha 90.000000
_cell_angle_beta 90.000000
_cell_angle_gamma 90.000000
_cell_volume 1726.788790
_symmetry_space_group_name_H-M "I M M A"
_symmetry_group_IT_number 74
_symmetry_cell_setting 'orthorhombic'
loop_
_space_group_symop_operation_xyz
x,y,z
-x,1/2-y,z
x,-y,-z
-x,1/2+y,-z
-x,-y,-z
x,1/2+y,-z
-x,y,z
x,1/2-y,z
1/2+x,1/2+y,1/2+z
1/2-x,-y,1/2+z
1/2+x,1/2-y,1/2-z
1/2-x,y,1/2-z
1/2-x,1/2-y,1/2-z
1/2+x,y,1/2-z
1/2-x,1/2+y,1/2+z
1/2+x,-y,1/2+z
loop_
_atom_site_type_symbol
_atom_site_label
_atom_site_fract_x
_atom_site_fract_y
_atom_site_fract_z
Si Si1 0.842556 0.063566 0.130745
Si Si2 0.595061 0.630264 0.124302
Si Si3 0.688914 0.250000 0.998721
O O1 0.750000 0.061337 0.250000
O O2 0.901762 0.079254 0.386763
O O3 0.849579 0.113111 0.889434
O O4 0.870387 0.000000 0.000000
O O5 0.500000 0.638325 0.221027
O O6 0.629448 0.691873 0.995412
O O7 0.750000 0.250000 0.750000
O O8 0.750000 0.250000 0.250000
#
# Coordination Sequence:
#
# PCOD8301748 Si02
#       3
#    16  16   8
#     4  12  25  44  70  98 134 180 227 273 327 400
#     4  12  26  44  68 101 138 174 221 280 340 394
#     4  12  25  44  71  96 129 176 225 270 325 398
#
# _framework density 23.164383000000001
#
# number of rings (size 3 to 8) (size 9 to 14) (size 15 to 20)
#    0.000    0.000    0.000   12.600    0.000    4.800 
#    0.000    6.000    0.000    0.000    0.000    0.000 
#    0.000    0.000    0.000    0.000    0.000    0.000 
#
# Total GULP energy -248114.351582 kJ/mol
# GULP energy per Si atom -12405.717579 kJ/mol
# Density = 2.311166 g / cm^3
# Si number density = 23.164383 Si / 1000 Ang^3
#
#
#
# Elastic Constant Matrix: (Units=GPa)
#
#
# Indices 1 2 3 4 5 6 
#
# 1 97.1791 48.8502 32.1448 0.0000 0.0000 0.0000
# 2 48.8502 103.9411 37.1702 0.0000 0.0000 0.0000
# 3 32.1448 37.1702 156.7148 0.0000 0.0000 0.0000
# 4 0.0000 0.0000 0.0000 43.0573 0.0000 0.0000
# 5 0.0000 0.0000 0.0000 0.0000 38.4587 0.0000
# 6 0.0000 0.0000 0.0000 0.0000 0.0000 16.8702
#
#
#
# Elastic Compliance Matrix: (Units=1/GPa)
#
#
# Indices 1 2 3 4 5 6 
#
# 1 0.013752 -0.005960 -0.001407 0.000000 0.000000 0.000000
# 2 -0.005960 0.013095 -0.001884 0.000000 0.000000 0.000000
# 3 -0.001407 -0.001884 0.007116 0.000000 0.000000 0.000000
# 4 0.000000 0.000000 0.000000 0.023225 0.000000 0.000000
# 5 0.000000 0.000000 0.000000 0.000000 0.026002 0.000000
# 6 0.000000 0.000000 0.000000 0.000000 0.000000 0.059276
#
#
# Mechanical properties :
#
#
# Convention : Reuss Voigt Hill
#
# Bulk Modulus (GPa) = 64.67278 66.01840 65.34559
# Shear Modulus (GPa) = 30.09848 35.65523 32.87685
#
# Velocity S-wave (km/s) = 3.60855 3.92755 3.77143
# Velocity P-wave (km/s) = 6.73364 7.00924 6.87282
#
# Compressibility (1/GPa) = 0.01546245
#
# Stress axis : x y z
#
# Youngs Moduli (GPa) = 72.71881 76.36278 140.52062
#
# Poissons Ratio (x) = 0.45511 0.19773
# Poissons Ratio (y) = 0.43339 0.26468
# Poissons Ratio (z) = 0.10232 0.14383
#
# Static dielectric constant tensor:
#      x y z
#    x 4.030700 0.000000 0.000000 
#    y 0.000000 4.498650 0.000000 
#    z 0.000000 0.000000 4.418440 
# 
# 
# High freq. dielectric constant tensor:
#      x y z
#    x 1.913160 0.000000 0.000000 
#    y 0.000000 1.922680 0.000000 
#    z 0.000000 0.000000 1.940390 
# 
# From -- ./inp_files/1146.got.cif
#   From: 2010.03.12/outbox.cif.g09.slc.cpg/sg74_1_cif.got.tgz:1146.got - 2010.04.16 15:46:19.
