data_PCOD8301006
_publ_section_title
;
Structure prediction by ZEFSAII (Michael W. Deem and Ramdas Pophale) SiO2 
 PCOD8301006
Probable space group: I M M A
;
_chemical_formula_sum "Si O2"
_cell_formula_units_Z 96
_cell_length_a 8.700936
_cell_length_b 20.997060
_cell_length_c 24.586424
_cell_angle_alpha 90.000000
_cell_angle_beta 90.000000
_cell_angle_gamma 90.000000
_cell_volume 4491.793996
_symmetry_space_group_name_H-M "I M M A"
_symmetry_group_IT_number 74
_symmetry_cell_setting 'orthorhombic'
loop_
_space_group_symop_operation_xyz
x,y,z
-x,1/2-y,z
x,-y,-z
-x,1/2+y,-z
-x,-y,-z
x,1/2+y,-z
-x,y,z
x,1/2-y,z
1/2+x,1/2+y,1/2+z
1/2-x,-y,1/2+z
1/2+x,1/2-y,1/2-z
1/2-x,y,1/2-z
1/2-x,1/2-y,1/2-z
1/2+x,y,1/2-z
1/2-x,1/2+y,1/2+z
1/2+x,-y,1/2+z
loop_
_atom_site_type_symbol
_atom_site_label
_atom_site_fract_x
_atom_site_fract_y
_atom_site_fract_z
Si Si1 0.180806 0.144855 0.194051
Si Si2 0.829217 0.675367 0.303947
Si Si3 0.323172 0.820736 0.915718
Si Si4 0.178087 0.908791 0.116505
Si Si5 0.180922 0.492927 0.304950
Si Si6 0.820423 0.075270 0.504519
O O1 0.250000 0.174130 0.250000
O O2 0.230240 0.183012 0.140552
O O3 0.237482 0.073534 0.185438
O O4 0.000000 0.147233 0.199985
O O5 0.844420 0.750000 0.301360
O O6 0.750000 0.647962 0.250000
O O7 0.722198 0.657343 0.354622
O O8 0.000000 0.644537 0.308915
O O9 0.500000 0.833119 0.901221
O O10 0.302297 0.750000 0.943264
O O11 0.267559 0.879993 0.953804
O O12 0.219862 0.899474 0.054040
O O13 0.000000 0.925026 0.123620
O O14 0.281661 0.963744 0.143300
O O15 0.250000 0.524566 0.250000
O O16 0.000000 0.482442 0.299642
O O17 0.000000 0.086144 0.515894
O O18 0.783491 0.000000 0.500000
#
# Coordination Sequence:
#
# PCOD8301006 Si02
#       6
#    16  16  16  16  16  16
#     4  11  22  38  62  92 125 159 197 241 295 357
#     4  10  21  38  59  83 115 155 199 248 303 362
#     4  10  22  41  64  90 122 160 202 250 305 364
#     4  12  24  37  57  86 119 155 198 247 300 361
#     4  11  21  36  58  86 122 159 199 247 300 358
#     4  10  22  41  64  88 117 158 205 253 306 363
#
# _framework density 21.372306999999999
#
# number of rings (size 3 to 8) (size 9 to 14) (size 15 to 20)
#    0.000    1.333    0.000    7.500    0.000    4.667 
#    0.000    1.667    0.000    0.000    0.000    0.000 
#    0.000    0.000    0.000    0.000    0.000    0.000 
#
# Total GULP energy -595108.694488 kJ/mol
# GULP energy per Si atom -12398.097802 kJ/mol
# Density = 2.132366 g / cm^3
# Si number density = 21.372307 Si / 1000 Ang^3
#
#
#
# Elastic Constant Matrix: (Units=GPa)
#
#
# Indices 1 2 3 4 5 6 
#
# 1 133.8106 28.0952 64.2132 0.0000 0.0000 0.0000
# 2 28.0952 96.3639 44.8480 0.0000 0.0000 0.0000
# 3 64.2132 44.8480 141.3514 0.0000 0.0000 0.0000
# 4 0.0000 0.0000 0.0000 27.8977 0.0000 0.0000
# 5 0.0000 0.0000 0.0000 0.0000 40.2726 0.0000
# 6 0.0000 0.0000 0.0000 0.0000 0.0000 17.8246
#
#
#
# Elastic Compliance Matrix: (Units=1/GPa)
#
#
# Indices 1 2 3 4 5 6 
#
# 1 0.009623 -0.000905 -0.004085 0.000000 0.000000 0.000000
# 2 -0.000905 0.012260 -0.003479 0.000000 0.000000 0.000000
# 3 -0.004085 -0.003479 0.010034 0.000000 0.000000 0.000000
# 4 0.000000 0.000000 0.000000 0.035845 0.000000 0.000000
# 5 0.000000 0.000000 0.000000 0.000000 0.024831 0.000000
# 6 0.000000 0.000000 0.000000 0.000000 0.000000 0.056102
#
#
# Mechanical properties :
#
#
# Convention : Reuss Voigt Hill
#
# Bulk Modulus (GPa) = 66.75159 71.75984 69.25572
# Shear Modulus (GPa) = 29.30384 32.82360 31.06372
#
# Velocity S-wave (km/s) = 3.70687 3.92318 3.81656
# Velocity P-wave (km/s) = 7.04427 7.36008 7.20391
#
# Compressibility (1/GPa) = 0.01498092
#
# Stress axis : x y z
#
# Youngs Moduli (GPa) = 103.91381 81.56473 99.66168
#
# Poissons Ratio (x) = 0.07379 0.40708
# Poissons Ratio (y) = 0.09401 0.34672
# Poissons Ratio (z) = 0.42445 0.28376
#
# Static dielectric constant tensor:
#      x y z
#    x 3.917250 0.000000 0.000000 
#    y 0.000000 3.888150 0.000000 
#    z 0.000000 0.000000 3.986220 
# 
# 
# High freq. dielectric constant tensor:
#      x y z
#    x 1.841170 0.000000 0.000000 
#    y 0.000000 1.844360 0.000000 
#    z 0.000000 0.000000 1.836140 
# 
# From -- ./inp_files/57277.got.cif
#   From: 2010.03.12/outbox.cif.g09.slc.cpg/sg74_29_cif.got.tgz:57277.got - 2010.04.16 15:46:19.
