data_PCOD8301332
_publ_section_title
;
Structure prediction by ZEFSAII (Michael W. Deem and Ramdas Pophale) SiO2 
 PCOD8301332
Probable space group: I M M A
;
_chemical_formula_sum "Si O2"
_cell_formula_units_Z 52
_cell_length_a 13.781777
_cell_length_b 22.706667
_cell_length_c 8.521804
_cell_angle_alpha 90.000000
_cell_angle_beta 90.000000
_cell_angle_gamma 90.000000
_cell_volume 2666.798184
_symmetry_space_group_name_H-M "I M M A"
_symmetry_group_IT_number 74
_symmetry_cell_setting 'orthorhombic'
loop_
_space_group_symop_operation_xyz
x,y,z
-x,1/2-y,z
x,-y,-z
-x,1/2+y,-z
-x,-y,-z
x,1/2+y,-z
-x,y,z
x,1/2-y,z
1/2+x,1/2+y,1/2+z
1/2-x,-y,1/2+z
1/2+x,1/2-y,1/2-z
1/2-x,y,1/2-z
1/2-x,1/2-y,1/2-z
1/2+x,y,1/2-z
1/2-x,1/2+y,1/2+z
1/2+x,-y,1/2+z
loop_
_atom_site_type_symbol
_atom_site_label
_atom_site_fract_x
_atom_site_fract_y
_atom_site_fract_z
Si Si1 0.156166 0.534362 0.655358
Si Si2 0.500000 0.368726 0.185651
Si Si3 0.000000 0.532299 0.162727
Si Si4 0.000000 0.250000 0.507908
Si Si5 0.000000 0.339638 0.945122
Si Si6 0.363257 0.250000 0.709321
O O1 0.188884 0.500000 0.500000
O O2 0.250000 0.554658 0.750000
O O3 0.093587 0.593723 0.631486
O O4 0.096290 0.485718 0.747850
O O5 0.500000 0.306912 0.100460
O O6 0.500000 0.355314 0.371301
O O7 0.000000 0.601689 0.154460
O O8 0.000000 0.500000 0.000000
O O9 0.906251 0.250000 0.616800
O O10 0.901627 0.305515 0.893223
O O11 0.250000 0.250000 0.750000
#
# Coordination Sequence:
#
# PCOD8301332 Si02
#       6
#    16   8   8   4   8   8
#     4  11  25  39  64  98 132 168 218 259 326 381
#     4  11  23  45  66  91 129 172 217 262 316 378
#     4  11  20  41  64  93 129 171 205 271 315 381
#     4  10  24  44  66  92 126 168 220 266 314 374
#     4  10  22  41  68  88 129 169 211 261 323 381
#     4  10  25  43  65  97 123 166 216 266 332 370
#
# _framework density 19.499037999999999
#
# number of rings (size 3 to 8) (size 9 to 14) (size 15 to 20)
#    0.000    1.538    3.077    3.692    8.615    3.692 
#    0.000    2.308    0.000    0.000    0.000    0.000 
#    0.000    0.000    0.000    0.000    0.000    0.000 
#
# Total GULP energy -322271.619394 kJ/mol
# GULP energy per Si atom -12395.062284 kJ/mol
# Density = 1.945466 g / cm^3
# Si number density = 19.499038 Si / 1000 Ang^3
#
#
#
# Elastic Constant Matrix: (Units=GPa)
#
#
# Indices 1 2 3 4 5 6 
#
# 1 143.4713 38.8241 28.1164 0.0001 0.0001 0.0000
# 2 38.8241 161.9827 36.9521 -0.0004 0.0001 0.0001
# 3 28.1164 36.9521 93.4694 -0.0022 -0.0002 0.0000
# 4 0.0001 -0.0004 -0.0022 39.0097 0.0000 0.0001
# 5 0.0001 0.0001 -0.0002 0.0000 19.3593 0.0000
# 6 0.0000 0.0001 0.0000 0.0001 0.0000 7.9130
#
#
#
# Elastic Compliance Matrix: (Units=1/GPa)
#
#
# Indices 1 2 3 4 5 6 
#
# 1 0.007704 -0.001448 -0.001745 0.000000 0.000000 0.000000
# 2 -0.001448 0.007058 -0.002355 0.000000 0.000000 0.000000
# 3 -0.001745 -0.002355 0.012154 0.000001 0.000000 0.000000
# 4 0.000000 0.000000 0.000001 0.025635 0.000000 0.000000
# 5 0.000000 0.000000 0.000000 0.000000 0.051655 0.000000
# 6 0.000000 0.000000 0.000000 0.000000 0.000000 0.126375
#
#
# Mechanical properties :
#
#
# Convention : Reuss Voigt Hill
#
# Bulk Modulus (GPa) = 63.20880 67.41208 65.31044
# Shear Modulus (GPa) = 20.24707 32.92510 26.58609
#
# Velocity S-wave (km/s) = 3.22586 4.11365 3.69651
# Velocity P-wave (km/s) = 6.80894 7.56372 7.19623
#
# Compressibility (1/GPa) = 0.01582058
#
# Stress axis : x y z
#
# Youngs Moduli (GPa) = 129.80395 141.68754 82.27501
#
# Poissons Ratio (x) = 0.20523 0.14355
# Poissons Ratio (y) = 0.18802 0.19372
# Poissons Ratio (z) = 0.22648 0.33360
#
# Static dielectric constant tensor:
#      x y z
#    x 3.517930 0.000000 0.000000 
#    y 0.000000 3.664940 0.000000 
#    z 0.000000 0.000000 3.574760 
# 
# 
# High freq. dielectric constant tensor:
#      x y z
#    x 1.754160 0.000000 0.000000 
#    y 0.000000 1.771800 0.000000 
#    z 0.000000 0.000000 1.775840 
# 
# From -- ./inp_files/8629.got.cif
#   From: 2010.03.12/outbox.cif.g09.slc.cpg/sg74_5_cif.got.tgz:8629.got - 2010.04.16 15:46:19.
