data_PCOD8301005
_publ_section_title
;
Structure prediction by ZEFSAII (Michael W. Deem and Ramdas Pophale) SiO2 
 PCOD8301005
Probable space group: I M M A
;
_chemical_formula_sum "Si O2"
_cell_formula_units_Z 96
_cell_length_a 8.482006
_cell_length_b 20.031320
_cell_length_c 28.840633
_cell_angle_alpha 90.000000
_cell_angle_beta 90.000000
_cell_angle_gamma 90.000000
_cell_volume 4900.190143
_symmetry_space_group_name_H-M "I M M A"
_symmetry_group_IT_number 74
_symmetry_cell_setting 'orthorhombic'
loop_
_space_group_symop_operation_xyz
x,y,z
-x,1/2-y,z
x,-y,-z
-x,1/2+y,-z
-x,-y,-z
x,1/2+y,-z
-x,y,z
x,1/2-y,z
1/2+x,1/2+y,1/2+z
1/2-x,-y,1/2+z
1/2+x,1/2-y,1/2-z
1/2-x,y,1/2-z
1/2-x,1/2-y,1/2-z
1/2+x,y,1/2-z
1/2-x,1/2+y,1/2+z
1/2+x,-y,1/2+z
loop_
_atom_site_type_symbol
_atom_site_label
_atom_site_fract_x
_atom_site_fract_y
_atom_site_fract_z
Si Si1 0.681306 0.556641 0.947403
Si Si2 0.814810 0.673397 0.381087
Si Si3 0.319244 0.059226 0.350328
Si Si4 0.317351 0.413029 0.538725
Si Si5 0.679977 0.822455 0.799717
Si Si6 0.313750 0.571407 0.198547
O O1 0.500000 0.569956 0.958140
O O2 0.721526 0.577907 0.895833
O O3 0.716294 0.477996 0.949258
O O4 0.780668 0.601218 0.984407
O O5 0.764154 0.750000 0.373014
O O6 0.730364 0.647368 0.427662
O O7 0.761950 0.631504 0.335783
O O8 0.000000 0.666466 0.389115
O O9 0.500000 0.044588 0.362768
O O10 0.301570 0.125654 0.321116
O O11 0.253762 0.996851 0.321712
O O12 0.500000 0.429052 0.545612
O O13 0.500000 0.850260 0.798895
O O14 0.683243 0.750000 0.825372
O O15 0.750000 0.810318 0.750000
O O16 0.500000 0.565116 0.201384
O O17 0.250000 0.586153 0.250000
#
# Coordination Sequence:
#
# PCOD8301005 Si02
#       6
#    16  16  16  16  16  16
#     4  11  21  36  60  87 118 153 191 237 290 349
#     4  10  22  41  63  86 118 163 208 252 306 366
#     4  12  23  37  59  89 122 155 196 248 299 353
#     4  11  21  36  59  89 119 150 192 240 291 348
#     4  10  21  38  59  83 114 154 197 239 289 352
#     4  11  23  39  60  86 120 158 204 257 306 361
#
# _framework density 19.591076000000001
#
# number of rings (size 3 to 8) (size 9 to 14) (size 15 to 20)
#    0.000    1.167    1.667    7.000    0.000    2.333 
#    0.000    0.833    0.000    5.000    0.000    0.000 
#    0.000    0.000    0.000    0.000    0.000    0.000 
#
# Total GULP energy -595115.784658 kJ/mol
# GULP energy per Si atom -12398.245514 kJ/mol
# Density = 1.954649 g / cm^3
# Si number density = 19.591076 Si / 1000 Ang^3
#
#
#
# Elastic Constant Matrix: (Units=GPa)
#
#
# Indices 1 2 3 4 5 6 
#
# 1 87.2737 30.5114 27.1230 0.0000 0.0000 0.0000
# 2 30.5114 117.0329 62.5349 0.0000 0.0000 0.0000
# 3 27.1230 62.5349 124.9996 0.0000 0.0000 0.0000
# 4 0.0000 0.0000 0.0000 42.6323 0.0000 0.0000
# 5 0.0000 0.0000 0.0000 0.0000 35.3041 0.0000
# 6 0.0000 0.0000 0.0000 0.0000 0.0000 20.4920
#
#
#
# Elastic Compliance Matrix: (Units=1/GPa)
#
#
# Indices 1 2 3 4 5 6 
#
# 1 0.012814 -0.002532 -0.001514 0.000000 0.000000 0.000000
# 2 -0.002532 0.012162 -0.005535 0.000000 0.000000 0.000000
# 3 -0.001514 -0.005535 0.011098 0.000000 0.000000 0.000000
# 4 0.000000 0.000000 0.000000 0.023456 0.000000 0.000000
# 5 0.000000 0.000000 0.000000 0.000000 0.028325 0.000000
# 6 0.000000 0.000000 0.000000 0.000000 0.000000 0.048800
#
#
# Mechanical properties :
#
#
# Convention : Reuss Voigt Hill
#
# Bulk Modulus (GPa) = 59.12898 63.29388 61.21143
# Shear Modulus (GPa) = 30.96856 33.62814 32.29835
#
# Velocity S-wave (km/s) = 3.98018 4.14756 4.06473
# Velocity P-wave (km/s) = 7.16725 7.43734 7.30355
#
# Compressibility (1/GPa) = 0.01691218
#
# Stress axis : x y z
#
# Youngs Moduli (GPa) = 78.04094 82.22112 90.10911
#
# Poissons Ratio (x) = 0.20817 0.13641
# Poissons Ratio (y) = 0.19758 0.49877
# Poissons Ratio (z) = 0.11814 0.45511
#
# Static dielectric constant tensor:
#      x y z
#    x 3.665140 0.000000 0.000000 
#    y 0.000000 3.600160 0.000000 
#    z 0.000000 0.000000 4.027760 
# 
# 
# High freq. dielectric constant tensor:
#      x y z
#    x 1.775370 0.000000 0.000000 
#    y 0.000000 1.747280 0.000000 
#    z 0.000000 0.000000 1.772030 
# 
# From -- ./inp_files/64255.got.cif
#   From: 2010.03.12/outbox.cif.g09.slc.cpg/sg74_33_cif.got.tgz:64255.got - 2010.04.16 15:46:19.
