data_PCOD8301501
_publ_section_title
;
Structure prediction by ZEFSAII (Michael W. Deem and Ramdas Pophale) SiO2 
 PCOD8301501
Probable space group: I M M A
;
_chemical_formula_sum "Si O2"
_cell_formula_units_Z 84
_cell_length_a 19.642310
_cell_length_b 10.968863
_cell_length_c 22.770662
_cell_angle_alpha 90.000000
_cell_angle_beta 90.000000
_cell_angle_gamma 90.000000
_cell_volume 4906.025825
_symmetry_space_group_name_H-M "I M M A"
_symmetry_group_IT_number 74
_symmetry_cell_setting 'orthorhombic'
loop_
_space_group_symop_operation_xyz
x,y,z
-x,1/2-y,z
x,-y,-z
-x,1/2+y,-z
-x,-y,-z
x,1/2+y,-z
-x,y,z
x,1/2-y,z
1/2+x,1/2+y,1/2+z
1/2-x,-y,1/2+z
1/2+x,1/2-y,1/2-z
1/2-x,y,1/2-z
1/2-x,1/2-y,1/2-z
1/2+x,y,1/2-z
1/2-x,1/2+y,1/2+z
1/2+x,-y,1/2+z
loop_
_atom_site_type_symbol
_atom_site_label
_atom_site_fract_x
_atom_site_fract_y
_atom_site_fract_z
Si Si1 0.000000 0.611244 0.379018
Si Si2 0.730365 0.606663 0.160672
Si Si3 0.115884 0.750000 0.621958
Si Si4 0.000000 0.250000 0.281749
Si Si5 0.174334 0.250000 0.266537
Si Si6 0.852671 0.516128 0.229309
Si Si7 0.868834 0.003268 0.567747
Si Si8 0.500000 0.988860 0.249646
O O1 0.066941 0.589174 0.418501
O O2 0.000000 0.528683 0.321035
O O3 0.000000 0.750000 0.357926
O O4 0.739143 0.750000 0.150652
O O5 0.805030 0.547892 0.173413
O O6 0.679468 0.582528 0.214328
O O7 0.698311 0.545855 0.102680
O O8 0.183567 0.750000 0.661813
O O9 0.107459 0.633042 0.582121
O O10 0.065265 0.750000 0.677185
O O11 0.000000 0.133381 0.239531
O O12 0.250000 0.250000 0.250000
O O13 0.139894 0.128320 0.240260
O O14 0.930499 0.566722 0.221762
O O15 0.848939 0.000000 0.500000
#
# Coordination Sequence:
#
# PCOD8301501 Si02
#       8
#     8  16   8   4   8  16  16   8
#     4  12  23  36  51  78 115 148 188 223 266 320
#     4  11  22  38  53  76 108 143 183 227 276 328
#     4  12  20  36  54  74 106 139 192 223 266 313
#     4  12  16  34  52  76 110 144 174 226 270 314
#     4  12  16  30  54  78 108 139 182 227 272 328
#     4  11  20  33  55  81 108 144 181 225 281 326
#     4  12  25  39  55  78 106 151 192 233 269 317
#     4  12  20  33  54  84 112 148 181 224 273 336
#
# _framework density 17.121801000000001
#
# number of rings (size 3 to 8) (size 9 to 14) (size 15 to 20)
#    0.000    0.381    9.524    2.000    2.667    0.762 
#    0.000    0.000    0.000    0.000    0.000    0.667 
#    0.000    0.000    0.000    0.000    0.000    0.000 
#
# Total GULP energy -520563.365114 kJ/mol
# GULP energy per Si atom -12394.365836 kJ/mol
# Density = 1.708283 g / cm^3
# Si number density = 17.121801 Si / 1000 Ang^3
#
#
#
# Elastic Constant Matrix: (Units=GPa)
#
#
# Indices 1 2 3 4 5 6 
#
# 1 141.7292 10.8813 45.7966 0.0000 0.0000 0.0000
# 2 10.8813 91.7349 8.4096 0.0000 0.0000 0.0000
# 3 45.7966 8.4096 69.1419 0.0000 0.0000 0.0000
# 4 0.0000 0.0000 0.0000 9.5070 0.0000 0.0000
# 5 0.0000 0.0000 0.0000 0.0000 25.5735 0.0000
# 6 0.0000 0.0000 0.0000 0.0000 0.0000 15.6569
#
#
#
# Elastic Compliance Matrix: (Units=1/GPa)
#
#
# Indices 1 2 3 4 5 6 
#
# 1 0.009002 -0.000527 -0.005899 0.000000 0.000000 0.000000
# 2 -0.000527 0.011055 -0.000995 0.000000 0.000000 0.000000
# 3 -0.005899 -0.000995 0.018491 0.000000 0.000000 0.000000
# 4 0.000000 0.000000 0.000000 0.105185 0.000000 0.000000
# 5 0.000000 0.000000 0.000000 0.000000 0.039103 0.000000
# 6 0.000000 0.000000 0.000000 0.000000 0.000000 0.063870
#
#
# Mechanical properties :
#
#
# Convention : Reuss Voigt Hill
#
# Bulk Modulus (GPa) = 42.18375 48.08676 45.13525
# Shear Modulus (GPa) = 18.55632 25.98205 22.26918
#
# Velocity S-wave (km/s) = 3.29566 3.89971 3.61034
# Velocity P-wave (km/s) = 6.25881 6.95867 6.61800
#
# Compressibility (1/GPa) = 0.02370581
#
# Stress axis : x y z
#
# Youngs Moduli (GPa) = 111.08456 90.45883 54.08032
#
# Poissons Ratio (x) = 0.04768 0.31899
# Poissons Ratio (y) = 0.05855 0.05383
# Poissons Ratio (z) = 0.65524 0.09005
#
# Static dielectric constant tensor:
#      x y z
#    x 3.906810 0.000000 0.000000 
#    y 0.000000 3.300410 0.000000 
#    z 0.000000 0.000000 2.987130 
# 
# 
# High freq. dielectric constant tensor:
#      x y z
#    x 1.667100 0.000000 0.000000 
#    y 0.000000 1.679060 0.000000 
#    z 0.000000 0.000000 1.607620 
# 
# From -- ./inp_files/50744.got.cif
#   From: 2010.03.12/outbox.cif.g09.slc.cpg/sg74_26_cif.got.tgz:50744.got - 2010.04.16 15:46:19.
