data_PCOD8301634
_publ_section_title
;
Structure prediction by ZEFSAII (Michael W. Deem and Ramdas Pophale) SiO2 
 PCOD8301634
Probable space group: I M M A
;
_chemical_formula_sum "Si O2"
_cell_formula_units_Z 96
_cell_length_a 21.165765
_cell_length_b 15.488542
_cell_length_c 15.771855
_cell_angle_alpha 90.000000
_cell_angle_beta 90.000000
_cell_angle_gamma 90.000000
_cell_volume 5170.437388
_symmetry_space_group_name_H-M "I M M A"
_symmetry_group_IT_number 74
_symmetry_cell_setting 'orthorhombic'
loop_
_space_group_symop_operation_xyz
x,y,z
-x,1/2-y,z
x,-y,-z
-x,1/2+y,-z
-x,-y,-z
x,1/2+y,-z
-x,y,z
x,1/2-y,z
1/2+x,1/2+y,1/2+z
1/2-x,-y,1/2+z
1/2+x,1/2-y,1/2-z
1/2-x,y,1/2-z
1/2-x,1/2-y,1/2-z
1/2+x,y,1/2-z
1/2-x,1/2+y,1/2+z
1/2+x,-y,1/2+z
loop_
_atom_site_type_symbol
_atom_site_label
_atom_site_fract_x
_atom_site_fract_y
_atom_site_fract_z
Si Si1 0.848470 0.250000 0.277687
Si Si2 0.188892 0.351181 0.799709
Si Si3 0.429136 0.409217 0.802685
Si Si4 0.372678 0.349569 0.970544
Si Si5 0.724440 0.250000 0.390215
Si Si6 0.071123 0.895348 0.644759
Si Si7 0.733486 0.401555 0.522491
O O1 0.790256 0.250000 0.341613
O O2 0.830877 0.250000 0.178956
O O3 0.888334 0.335532 0.294084
O O4 0.188656 0.250000 0.784456
O O5 0.250000 0.390685 0.750000
O O6 0.122424 0.387519 0.767634
O O7 0.190905 0.374260 0.898346
O O8 0.500000 0.385262 0.771064
O O9 0.416763 0.356103 0.888639
O O10 0.423994 0.509845 0.819297
O O11 0.361264 0.250000 0.995183
O O12 0.306199 0.394045 0.949387
O O13 0.404315 0.397874 0.048808
O O14 0.718364 0.337297 0.444980
O O15 0.000000 0.860020 0.644108
O O16 0.716994 0.500000 0.500000
#
# Coordination Sequence:
#
# PCOD8301634 Si02
#       7
#     8  16  16  16   8  16  16
#     4  11  23  38  64  86 126 158 201 249 304 359
#     4  11  23  40  64  90 122 162 208 251 300 363
#     4  11  25  39  59  91 126 163 209 252 300 370
#     4  12  21  37  58  90 128 164 202 241 308 378
#     4  11  24  42  59  96 123 157 206 258 300 363
#     4  11  22  39  60  88 124 162 201 247 305 375
#     4  12  23  40  63  90 128 162 200 257 310 358
#
# _framework density 18.567094999999998
#
# number of rings (size 3 to 8) (size 9 to 14) (size 15 to 20)
#    0.000    0.667    5.833    2.750    2.333    3.333 
#    0.000    0.000    0.000    2.500    0.000    0.000 
#    0.000    0.000    0.000    0.000    0.000    0.000 
#
# Total GULP energy -595421.747248 kJ/mol
# GULP energy per Si atom -12404.619734 kJ/mol
# Density = 1.852484 g / cm^3
# Si number density = 18.567095 Si / 1000 Ang^3
#
#
#
# Elastic Constant Matrix: (Units=GPa)
#
#
# Indices 1 2 3 4 5 6 
#
# 1 135.5949 32.5519 78.7176 0.0000 0.0000 0.0000
# 2 32.5519 73.9155 38.3285 0.0000 0.0000 0.0000
# 3 78.7176 38.3285 117.6130 0.0000 0.0000 0.0000
# 4 0.0000 0.0000 0.0000 24.1990 0.0000 0.0000
# 5 0.0000 0.0000 0.0000 0.0000 61.5827 0.0000
# 6 0.0000 0.0000 0.0000 0.0000 0.0000 32.2058
#
#
#
# Elastic Compliance Matrix: (Units=1/GPa)
#
#
# Indices 1 2 3 4 5 6 
#
# 1 0.012175 -0.001367 -0.007703 0.000000 0.000000 0.000000
# 2 -0.001367 0.016434 -0.004440 0.000000 0.000000 0.000000
# 3 -0.007703 -0.004440 0.015105 0.000000 0.000000 0.000000
# 4 0.000000 0.000000 0.000000 0.041324 0.000000 0.000000
# 5 0.000000 0.000000 0.000000 0.000000 0.016238 0.000000
# 6 0.000000 0.000000 0.000000 0.000000 0.000000 0.031050
#
#
# Mechanical properties :
#
#
# Convention : Reuss Voigt Hill
#
# Bulk Modulus (GPa) = 59.90804 69.59106 64.74955
# Shear Modulus (GPa) = 30.31914 35.43251 32.87582
#
# Velocity S-wave (km/s) = 4.04536 4.37321 4.21247
# Velocity P-wave (km/s) = 7.35905 7.94117 7.65565
#
# Compressibility (1/GPa) = 0.01669225
#
# Stress axis : x y z
#
# Youngs Moduli (GPa) = 82.13483 60.85067 66.20277
#
# Poissons Ratio (x) = 0.08321 0.50997
# Poissons Ratio (y) = 0.11232 0.29396
# Poissons Ratio (z) = 0.63269 0.27019
#
# Static dielectric constant tensor:
#      x y z
#    x 3.565960 0.000000 0.000000 
#    y 0.000000 3.413410 0.000000 
#    z 0.000000 0.000000 3.358190 
# 
# 
# High freq. dielectric constant tensor:
#      x y z
#    x 1.715540 0.000000 0.000000 
#    y 0.000000 1.733220 0.000000 
#    z 0.000000 0.000000 1.712810 
# 
# From -- ./inp_files/35338.got.cif
#   From: 2010.03.12/outbox.cif.g09.slc.cpg/sg74_18_cif.got.tgz:35338.got - 2010.04.16 15:46:19.
