data_PCOD8301087
_publ_section_title
;
Structure prediction by ZEFSAII (Michael W. Deem and Ramdas Pophale) SiO2 
 PCOD8301087
Probable space group: I M M A
;
_chemical_formula_sum "Si O2"
_cell_formula_units_Z 64
_cell_length_a 10.840249
_cell_length_b 10.187258
_cell_length_c 29.535195
_cell_angle_alpha 90.000000
_cell_angle_beta 90.000000
_cell_angle_gamma 90.000000
_cell_volume 3261.642863
_symmetry_space_group_name_H-M "I M M A"
_symmetry_group_IT_number 74
_symmetry_cell_setting 'orthorhombic'
loop_
_space_group_symop_operation_xyz
x,y,z
-x,1/2-y,z
x,-y,-z
-x,1/2+y,-z
-x,-y,-z
x,1/2+y,-z
-x,y,z
x,1/2-y,z
1/2+x,1/2+y,1/2+z
1/2-x,-y,1/2+z
1/2+x,1/2-y,1/2-z
1/2-x,y,1/2-z
1/2-x,1/2-y,1/2-z
1/2+x,y,1/2-z
1/2-x,1/2+y,1/2+z
1/2+x,-y,1/2+z
loop_
_atom_site_type_symbol
_atom_site_label
_atom_site_fract_x
_atom_site_fract_y
_atom_site_fract_z
Si Si1 0.361199 0.250000 0.214255
Si Si2 0.644795 0.250000 0.858040
Si Si3 0.247189 0.009501 0.697382
Si Si4 0.000000 0.100433 0.165489
Si Si5 0.712524 0.500000 0.500000
Si Si6 0.854018 0.750000 0.463765
Si Si7 0.500000 0.101295 0.441090
O O1 0.500000 0.250000 0.234752
O O2 0.250000 0.250000 0.250000
O O3 0.341644 0.384240 0.186272
O O4 0.500000 0.250000 0.850252
O O5 0.701461 0.376399 0.834622
O O6 0.679858 0.250000 0.910782
O O7 0.250000 0.052048 0.750000
O O8 0.385503 0.975276 0.685480
O O9 0.000000 0.093739 0.112092
O O10 0.000000 0.250000 0.182409
O O11 0.798795 0.621902 0.487641
O O12 0.624265 0.469268 0.457616
O O13 0.000000 0.750000 0.471439
O O14 0.500000 0.250000 0.459493
#
# Coordination Sequence:
#
# PCOD8301087 Si02
#       7
#     8   8  16   8   8   8   8
#     4  10  22  36  62  89 117 162 222 277 322 376
#     4  11  25  44  60  90 131 173 212 273 322 385
#     4  11  24  39  65  88 129 172 223 271 322 383
#     4  11  23  40  62 100 128 164 218 278 325 372
#     4  11  21  42  68  96 125 165 214 258 332 399
#     4  11  24  42  66  93 130 167 212 259 323 394
#     4  10  21  38  66  96 130 164 206 274 324 385
#
# _framework density 19.622014
#
# number of rings (size 3 to 8) (size 9 to 14) (size 15 to 20)
#    0.000    1.250    2.500    3.000    8.750    0.500 
#    0.000    2.500    0.000    6.000    0.000    0.000 
#    0.000    0.000    0.000    0.000    0.000    0.000 
#
# Total GULP energy -396785.434034 kJ/mol
# GULP energy per Si atom -12399.544814 kJ/mol
# Density = 1.957735 g / cm^3
# Si number density = 19.622014 Si / 1000 Ang^3
#
#
#
# Elastic Constant Matrix: (Units=GPa)
#
#
# Indices 1 2 3 4 5 6 
#
# 1 163.7927 81.0391 58.9249 0.0000 0.0000 0.0000
# 2 81.0391 165.4416 62.8939 0.0000 0.0000 0.0000
# 3 58.9249 62.8939 98.6871 0.0000 0.0000 0.0000
# 4 0.0000 0.0000 0.0000 29.9587 0.0000 0.0000
# 5 0.0000 0.0000 0.0000 0.0000 11.1905 0.0000
# 6 0.0000 0.0000 0.0000 0.0000 0.0000 37.2092
#
#
#
# Elastic Compliance Matrix: (Units=1/GPa)
#
#
# Indices 1 2 3 4 5 6 
#
# 1 0.008809 -0.003056 -0.003312 0.000000 0.000000 0.000000
# 2 -0.003056 0.009037 -0.003935 0.000000 0.000000 0.000000
# 3 -0.003312 -0.003935 0.014618 0.000000 0.000000 0.000000
# 4 0.000000 0.000000 0.000000 0.033379 0.000000 0.000000
# 5 0.000000 0.000000 0.000000 0.000000 0.089362 0.000000
# 6 0.000000 0.000000 0.000000 0.000000 0.000000 0.026875
#
#
# Mechanical properties :
#
#
# Convention : Reuss Voigt Hill
#
# Bulk Modulus (GPa) = 84.32594 92.62638 88.47616
# Shear Modulus (GPa) = 24.19681 30.67590 27.43635
#
# Velocity S-wave (km/s) = 3.51543 3.95820 3.74337
# Velocity P-wave (km/s) = 7.71661 8.25818 7.99199
#
# Compressibility (1/GPa) = 0.01185875
#
# Stress axis : x y z
#
# Youngs Moduli (GPa) = 113.52448 110.65535 68.40685
#
# Poissons Ratio (x) = 0.33812 0.22658
# Poissons Ratio (y) = 0.34689 0.26917
# Poissons Ratio (z) = 0.37601 0.43542
#
# Static dielectric constant tensor:
#      x y z
#    x 3.682230 0.000000 0.000000 
#    y 0.000000 4.114540 0.000000 
#    z 0.000000 0.000000 3.699310 
# 
# 
# High freq. dielectric constant tensor:
#      x y z
#    x 1.781120 0.000000 0.000000 
#    y 0.000000 1.779220 0.000000 
#    z 0.000000 0.000000 1.759910 
# 
# From -- ./inp_files/71370.got.cif
#   From: 2010.03.12/outbox.cif.g09.slc.cpg/sg74_36_cif.got.tgz:71370.got - 2010.04.16 15:46:19.
