data_PCOD8301828
_publ_section_title
;
Structure prediction by ZEFSAII (Michael W. Deem and Ramdas Pophale) SiO2 
 PCOD8301828
Probable space group: I M M A
;
_chemical_formula_sum "Si O2"
_cell_formula_units_Z 32
_cell_length_a 24.000000
_cell_length_b 15.000000
_cell_length_c 9.000000
_cell_angle_alpha 90.000000
_cell_angle_beta 90.000000
_cell_angle_gamma 90.000000
_cell_volume 3240.000000
_symmetry_space_group_name_H-M "I M M A"
_symmetry_group_IT_number 74
_symmetry_cell_setting 'orthorhombic'
loop_
_space_group_symop_operation_xyz
x,y,z
-x,1/2-y,z
x,-y,-z
-x,1/2+y,-z
-x,-y,-z
x,1/2+y,-z
-x,y,z
x,1/2-y,z
1/2+x,1/2+y,1/2+z
1/2-x,-y,1/2+z
1/2+x,1/2-y,1/2-z
1/2-x,y,1/2-z
1/2-x,1/2-y,1/2-z
1/2+x,y,1/2-z
1/2-x,1/2+y,1/2+z
1/2+x,-y,1/2+z
loop_
_atom_site_type_symbol
_atom_site_label
_atom_site_fract_x
_atom_site_fract_y
_atom_site_fract_z
Si Si1 0.500000 0.854506 0.902028
Si Si2 0.889979 0.409190 0.571411
Si Si3 0.889459 0.904901 0.074059
Si Si4 0.187282 0.250000 0.573435
Si Si5 0.690448 0.250000 0.575350
Si Si6 0.000000 0.098997 0.063042
O O1 0.500000 0.750000 0.872403
O O2 0.500000 0.902336 0.741861
O O3 0.448359 0.884426 0.999530
O O4 0.867759 0.500000 0.500000
O O5 0.896141 0.415310 0.749025
O O6 0.845205 0.336874 0.519802
O O7 0.839820 0.840205 0.024791
O O8 0.944358 0.856965 0.004487
O O9 0.877409 0.000000 0.000000
O O10 0.248594 0.250000 0.501247
O O11 0.192916 0.250000 0.748719
O O12 0.000000 0.000000 0.000000
#
# Coordination Sequence:
#
# PCOD8301828 Si02
#       6
#     8  16  16   8   8   8
#     4  12  24  38  61  92 123 155 196 244 296 355
#     4  11  21  39  63  86 121 156 194 244 293 353
#     4  10  21  38  60  89 117 156 199 236 295 354
#     4   9  20  39  57  88 112 157 202 237 294 351
#     4   9  20  37  61  80 120 155 196 247 288 347
#     4  10  21  38  57  87 122 152 192 236 289 352
#
# _framework density 9.8765429999999999
#
# number of rings (size 3 to 8) (size 9 to 14) (size 15 to 20)
#    0.000    1.750    1.250    4.125    1.750    1.000 
#    0.000    0.000    0.000   10.500    0.000    0.000 
#    0.000    0.000    0.000    0.000    0.000    0.000 
#
# Total GULP energy -396704.418122 kJ/mol
# GULP energy per Si atom -12397.013066 kJ/mol
# Density = 0.985406 g / cm^3
# Si number density = 9.876543 Si / 1000 Ang^3
#
#
#
# Elastic Constant Matrix: (Units=GPa)
#
#
# Indices 1 2 3 4 5 6 
#
# 1 186.4830 89.6625 55.2514 0.0000 0.0000 0.0000
# 2 89.6625 153.2144 50.2312 0.0000 0.0000 0.0000
# 3 55.2514 50.2312 122.0686 0.0000 0.0000 0.0000
# 4 0.0000 0.0000 0.0000 25.4197 0.0000 0.0000
# 5 0.0000 0.0000 0.0000 0.0000 112.9998 0.0000
# 6 0.0000 0.0000 0.0000 0.0000 0.0000 35.1452
#
#
#
# Elastic Compliance Matrix: (Units=1/GPa)
#
#
# Indices 1 2 3 4 5 6 
#
# 1 0.007832 -0.003955 -0.001918 0.000000 0.000000 0.000000
# 2 -0.003955 0.009542 -0.002136 0.000000 0.000000 0.000000
# 3 -0.001918 -0.002136 0.009939 0.000000 0.000000 0.000000
# 4 0.000000 0.000000 0.000000 0.039340 0.000000 0.000000
# 5 0.000000 0.000000 0.000000 0.000000 0.008850 0.000000
# 6 0.000000 0.000000 0.000000 0.000000 0.000000 0.028453
#
#
# Mechanical properties :
#
#
# Convention : Reuss Voigt Hill
#
# Bulk Modulus (GPa) = 88.53137 94.67289 91.60213
# Shear Modulus (GPa) = 40.40806 52.48767 46.44787
#
# Velocity S-wave (km/s) = 4.52780 5.16038 4.85441
# Velocity P-wave (km/s) = 8.50006 9.13993 8.82579
#
# Compressibility (1/GPa) = 0.01129543
#
# Stress axis : x y z
#
# Youngs Moduli (GPa) = 127.68108 104.80522 100.61187
#
# Poissons Ratio (x) = 0.41447 0.19294
# Poissons Ratio (y) = 0.50494 0.21494
# Poissons Ratio (z) = 0.24484 0.22390
#
# Static dielectric constant tensor:
#      x y z
#    x 4.634430 0.000000 0.000000 
#    y 0.000000 3.734270 0.000000 
#    z 0.000000 0.000000 3.553320 
# 
# 
# High freq. dielectric constant tensor:
#      x y z
#    x 1.770070 0.000000 0.000000 
#    y 0.000000 1.777060 0.000000 
#    z 0.000000 0.000000 1.764810 
# 
# From -- ./inp_files/10370.got.cif
#   From: 2010.03.12/outbox.ucp.g09.slc.cvg/sg74_6_cif.got.tgz:10370.got - 2010.05.04 20:08:06.
