data_PCOD8301874
_publ_section_title
;
Structure prediction by ZEFSAII (Michael W. Deem and Ramdas Pophale) SiO2 
 PCOD8301874
Probable space group: P 41
;
_chemical_formula_sum "Si O2"
_cell_formula_units_Z 24
_cell_length_a 9.109080
_cell_length_b 9.109080
_cell_length_c 15.203484
_cell_angle_alpha 90.000000
_cell_angle_beta 90.000000
_cell_angle_gamma 90.000000
_cell_volume 1261.514230
_symmetry_space_group_name_H-M "P 41"
_symmetry_group_IT_number 76
_symmetry_cell_setting 'tetragonal'
loop_
_space_group_symop_operation_xyz
x,y,z
-y,x,1/4+z
-x,-y,1/2+z
y,-x,3/4+z
loop_
_atom_site_type_symbol
_atom_site_label
_atom_site_fract_x
_atom_site_fract_y
_atom_site_fract_z
Si Si1 0.468848 0.771813 0.958280
Si Si2 0.210812 0.982990 0.019187
Si Si3 0.020143 0.702918 0.279784
Si Si4 0.049175 0.044082 0.650032
Si Si5 0.546506 0.801957 0.578190
Si Si6 0.512752 0.340457 0.264223
O O1 0.481743 0.755775 0.853070
O O2 0.322504 0.860110 0.984371
O O3 0.458714 0.618481 0.010832
O O4 0.620606 0.842748 0.987730
O O5 0.084650 0.919728 0.083325
O O6 0.302535 0.105601 0.072477
O O7 0.124540 0.045007 0.934308
O O8 0.961111 0.839471 0.226140
O O9 0.889444 0.589555 0.290797
O O10 0.071819 0.784154 0.367837
O O11 0.565236 0.662159 0.513901
O O12 0.510661 0.763145 0.679384
#
# Coordination Sequence:
#
# PCOD8301874 Si02
#       6
#     4   4   4   4   4   4
#     4  10  21  37  57  82 109 144 186 228 274 329
#     4  10  20  36  58  82 112 148 186 222 274 340
#     4  10  22  36  54  82 110 138 180 228 274 320
#     4  10  20  36  56  80 112 146 178 224 276 328
#     4  10  21  37  57  82 109 144 186 228 274 329
#     4  10  20  36  58  78 108 146 184 224 276 334
#
# _framework density 19.024757000000001
#
# number of rings (size 3 to 8) (size 9 to 14) (size 15 to 20)
#    0.000    2.000    0.000    4.000    0.000    5.333 
#    0.000    0.000    0.000    6.000    0.000    0.000 
#    0.000    0.000    0.000    0.000    0.000    0.000 
#
# Total GULP energy -297432.609005 kJ/mol
# GULP energy per Si atom -12393.025375 kJ/mol
# Density = 1.898146 g / cm^3
# Si number density = 19.024757 Si / 1000 Ang^3
#
#
#
# Elastic Constant Matrix: (Units=GPa)
#
#
# Indices 1 2 3 4 5 6 
#
# 1 103.1996 38.8050 23.7969 0.0000 0.0000 0.6695
# 2 38.8050 103.1996 23.7969 0.0000 0.0000 -0.6695
# 3 23.7969 23.7969 77.6111 0.0000 0.0000 0.0000
# 4 0.0000 0.0000 0.0000 32.6754 0.0000 0.0000
# 5 0.0000 0.0000 0.0000 0.0000 32.6754 0.0000
# 6 0.6695 -0.6695 0.0000 0.0000 0.0000 22.4002
#
#
#
# Elastic Compliance Matrix: (Units=1/GPa)
#
#
# Indices 1 2 3 4 5 6 
#
# 1 0.011694 -0.003845 -0.002407 0.000000 0.000000 -0.000464
# 2 -0.003845 0.011694 -0.002407 0.000000 0.000000 0.000464
# 3 -0.002407 -0.002407 0.014361 0.000000 0.000000 0.000000
# 4 0.000000 0.000000 0.000000 0.030604 0.000000 0.000000
# 5 0.000000 0.000000 0.000000 0.000000 0.030604 0.000000
# 6 -0.000464 0.000464 0.000000 0.000000 0.000000 0.044670
#
#
# Mechanical properties :
#
#
# Convention : Reuss Voigt Hill
#
# Bulk Modulus (GPa) = 48.94371 50.75643 49.85007
# Shear Modulus (GPa) = 29.80569 30.72431 30.26500
#
# Velocity S-wave (km/s) = 3.96242 4.02302 3.99284
# Velocity P-wave (km/s) = 6.83495 6.95102 6.89323
#
# Compressibility (1/GPa) = 0.02043163
#
# Stress axis : x y z
#
# Youngs Moduli (GPa) = 85.51573 85.51573 69.63544
#
# Poissons Ratio (x) = 0.32882 0.16758
# Poissons Ratio (y) = 0.32882 0.16758
# Poissons Ratio (z) = 0.20579 0.20579
#
# Static dielectric constant tensor:
#      x y z
#    x 3.660970 0.000000 0.000000 
#    y 0.000000 3.660970 0.000000 
#    z 0.000000 0.000000 3.564440 
# 
# 
# High freq. dielectric constant tensor:
#      x y z
#    x 1.745490 0.000000 0.000000 
#    y 0.000000 1.745490 0.000000 
#    z 0.000000 0.000000 1.743000 
# 
# From -- ./inp_files/1064.got.cif
#   From: 2010.03.12/outbox.cif.g09.slc.cpg/sg76_cif.got.tgz:1064.got - 2010.04.16 16:34:25.
