data_PCOD8301805
_publ_section_title
;
Structure prediction by ZEFSAII (Michael W. Deem and Ramdas Pophale) SiO2 
 PCOD8301805
Probable space group: I M M A
;
_chemical_formula_sum "Si O2"
_cell_formula_units_Z 80
_cell_length_a 9.269474
_cell_length_b 18.158464
_cell_length_c 36.597115
_cell_angle_alpha 90.000000
_cell_angle_beta 90.000000
_cell_angle_gamma 90.000000
_cell_volume 6160.004802
_symmetry_space_group_name_H-M "I M M A"
_symmetry_group_IT_number 74
_symmetry_cell_setting 'orthorhombic'
loop_
_space_group_symop_operation_xyz
x,y,z
-x,1/2-y,z
x,-y,-z
-x,1/2+y,-z
-x,-y,-z
x,1/2+y,-z
-x,y,z
x,1/2-y,z
1/2+x,1/2+y,1/2+z
1/2-x,-y,1/2+z
1/2+x,1/2-y,1/2-z
1/2-x,y,1/2-z
1/2-x,1/2-y,1/2-z
1/2+x,y,1/2-z
1/2-x,1/2+y,1/2+z
1/2+x,-y,1/2+z
loop_
_atom_site_type_symbol
_atom_site_label
_atom_site_fract_x
_atom_site_fract_y
_atom_site_fract_z
Si Si1 0.667882 0.419933 0.571755
Si Si2 0.167567 0.335123 0.855571
Si Si3 0.163064 0.543936 0.537601
Si Si4 0.831948 0.834512 0.998766
Si Si5 0.336912 0.337697 0.784734
O O1 0.500000 0.440324 0.571328
O O2 0.714477 0.381273 0.609187
O O3 0.756729 0.495674 0.568331
O O4 0.705435 0.363911 0.539103
O O5 0.201711 0.250000 0.863793
O O6 0.259612 0.365274 0.821567
O O7 0.000000 0.345831 0.846073
O O8 0.168996 0.500000 0.500000
O O9 0.243777 0.621536 0.532159
O O10 0.000000 0.558982 0.550358
O O11 0.783986 0.750000 0.996848
O O12 0.000000 0.844714 0.990213
O O13 0.500000 0.368140 0.783728
O O14 0.335778 0.250000 0.783464
O O15 0.250000 0.369477 0.750000
#
# Coordination Sequence:
#
# PCOD8301805 Si02
#       5
#    16  16  16  16  16
#     4   9  16  26  39  53  70  92 117 146 180 216
#     4   9  16  25  37  53  71  90 115 148 183 215
#     4   9  17  27  37  50  69  92 116 143 177 215
#     4   9  16  26  40  55  69  88 117 150 181 214
#     4   9  16  25  36  49  66  89 116 145 176 209
#
# _framework density 12.987003
#
# number of rings (size 3 to 8) (size 9 to 14) (size 15 to 20)
#    0.000    3.000    0.000    1.800    0.000    8.400 
#    0.000    0.000    0.000    3.600    0.000    0.000 
#    0.000    0.000    0.000    0.000    0.000    1.000 
#
# Total GULP energy -495970.026361 kJ/mol
# GULP energy per Si atom -12399.250659 kJ/mol
# Density = 1.295744 g / cm^3
# Si number density = 12.987003 Si / 1000 Ang^3
#
#
#
# Elastic Constant Matrix: (Units=GPa)
#
#
# Indices 1 2 3 4 5 6 
#
# 1 81.7291 44.3453 52.9319 0.0000 0.0000 0.0000
# 2 44.3453 71.9127 42.5432 0.0000 0.0000 0.0000
# 3 52.9319 42.5432 88.2822 0.0000 0.0000 0.0000
# 4 0.0000 0.0000 0.0000 14.0986 0.0000 0.0000
# 5 0.0000 0.0000 0.0000 0.0000 21.0019 0.0000
# 6 0.0000 0.0000 0.0000 0.0000 0.0000 13.9644
#
#
#
# Elastic Compliance Matrix: (Units=1/GPa)
#
#
# Indices 1 2 3 4 5 6 
#
# 1 0.023207 -0.008503 -0.009817 0.000000 0.000000 0.000000
# 2 -0.008503 0.022567 -0.005777 0.000000 0.000000 0.000000
# 3 -0.009817 -0.005777 0.019997 0.000000 0.000000 0.000000
# 4 0.000000 0.000000 0.000000 0.070929 0.000000 0.000000
# 5 0.000000 0.000000 0.000000 0.000000 0.047615 0.000000
# 6 0.000000 0.000000 0.000000 0.000000 0.000000 0.071611
#
#
# Mechanical properties :
#
#
# Convention : Reuss Voigt Hill
#
# Bulk Modulus (GPa) = 56.89030 57.95163 57.42097
# Shear Modulus (GPa) = 16.13020 16.61988 16.37504
#
# Velocity S-wave (km/s) = 3.52806 3.58121 3.55474
# Velocity P-wave (km/s) = 7.77798 7.86256 7.82038
#
# Compressibility (1/GPa) = 0.01757769
#
# Stress axis : x y z
#
# Youngs Moduli (GPa) = 43.09024 44.31308 50.00778
#
# Poissons Ratio (x) = 0.37681 0.49091
# Poissons Ratio (y) = 0.36641 0.28887
# Poissons Ratio (z) = 0.42300 0.25598
#
# Static dielectric constant tensor:
#      x y z
#    x 2.725710 0.000000 0.000000 
#    y 0.000000 2.413010 0.000000 
#    z 0.000000 0.000000 2.527290 
# 
# 
# High freq. dielectric constant tensor:
#      x y z
#    x 1.503600 0.000000 0.000000 
#    y 0.000000 1.455110 0.000000 
#    z 0.000000 0.000000 1.472540 
# 
# From -- ./inp_files/70127.got.cif
#   From: 2010.03.12/outbox.cif.g09.slc.cpg/sg74_36_cif.got.tgz:70127.got - 2010.04.16 15:46:19.
