data_PCOD8301807
_publ_section_title
;
Structure prediction by ZEFSAII (Michael W. Deem and Ramdas Pophale) SiO2 
 PCOD8301807
Probable space group: I M M A
;
_chemical_formula_sum "Si O2"
_cell_formula_units_Z 80
_cell_length_a 14.493357
_cell_length_b 9.260091
_cell_length_c 38.286552
_cell_angle_alpha 90.000000
_cell_angle_beta 90.000000
_cell_angle_gamma 90.000000
_cell_volume 5138.430667
_symmetry_space_group_name_H-M "I M M A"
_symmetry_group_IT_number 74
_symmetry_cell_setting 'orthorhombic'
loop_
_space_group_symop_operation_xyz
x,y,z
-x,1/2-y,z
x,-y,-z
-x,1/2+y,-z
-x,-y,-z
x,1/2+y,-z
-x,y,z
x,1/2-y,z
1/2+x,1/2+y,1/2+z
1/2-x,-y,1/2+z
1/2+x,1/2-y,1/2-z
1/2-x,y,1/2-z
1/2-x,1/2-y,1/2-z
1/2+x,y,1/2-z
1/2-x,1/2+y,1/2+z
1/2+x,-y,1/2+z
loop_
_atom_site_type_symbol
_atom_site_label
_atom_site_fract_x
_atom_site_fract_y
_atom_site_fract_z
Si Si1 0.852506 0.410659 0.763888
Si Si2 0.099650 0.414809 0.300570
Si Si3 0.893454 0.917777 0.898761
Si Si4 0.294024 0.919169 0.671558
Si Si5 0.890252 0.912888 0.033111
O O1 0.893161 0.250000 0.769695
O O2 0.750000 0.402070 0.750000
O O3 0.910649 0.493127 0.734681
O O4 0.855807 0.496453 0.800299
O O5 0.116784 0.250000 0.289114
O O6 0.185299 0.462978 0.325136
O O7 0.000000 0.431196 0.320246
O O8 0.881243 0.750000 0.908044
O O9 0.829519 0.964867 0.866470
O O10 0.000000 0.952214 0.889789
O O11 0.857464 0.009205 0.931587
O O12 0.309702 0.750000 0.677881
O O13 0.851255 0.750000 0.032433
O O14 0.000000 0.912120 0.031297
O O15 0.849867 0.000000 0.000000
#
# Coordination Sequence:
#
# PCOD8301807 Si02
#       5
#    16  16  16  16  16
#     4   9  17  28  41  57  77 101 130 167 210 250
#     4   9  17  29  44  59  76 103 139 174 207 245
#     4   9  17  28  41  58  81 108 135 162 195 235
#     4   9  17  29  43  59  81 107 135 169 206 244
#     4   9  16  26  41  60  82 108 136 163 190 225
#
# _framework density 15.568955000000001
#
# number of rings (size 3 to 8) (size 9 to 14) (size 15 to 20)
#    0.000    3.000    0.000    1.200    0.000    6.800 
#    0.000    2.000    0.000    0.000    0.000    0.000 
#    0.000    0.800    0.000    1.400    0.000    2.000 
#
# Total GULP energy -495774.918820 kJ/mol
# GULP energy per Si atom -12394.372970 kJ/mol
# Density = 1.553352 g / cm^3
# Si number density = 15.568955 Si / 1000 Ang^3
#
#
#
# Elastic Constant Matrix: (Units=GPa)
#
#
# Indices 1 2 3 4 5 6 
#
# 1 61.6223 23.4493 42.6772 0.0000 0.0000 0.0000
# 2 23.4493 83.0198 63.7437 0.0000 0.0000 0.0000
# 3 42.6772 63.7437 133.1659 0.0000 0.0000 0.0000
# 4 0.0000 0.0000 0.0000 26.4310 0.0000 0.0000
# 5 0.0000 0.0000 0.0000 0.0000 16.9870 0.0000
# 6 0.0000 0.0000 0.0000 0.0000 0.0000 7.2518
#
#
#
# Elastic Compliance Matrix: (Units=1/GPa)
#
#
# Indices 1 2 3 4 5 6 
#
# 1 0.020933 -0.001204 -0.006132 0.000000 0.000000 0.000000
# 2 -0.001204 0.019114 -0.008764 0.000000 0.000000 0.000000
# 3 -0.006132 -0.008764 0.013670 0.000000 0.000000 0.000000
# 4 0.000000 0.000000 0.000000 0.037834 0.000000 0.000000
# 5 0.000000 0.000000 0.000000 0.000000 0.058869 0.000000
# 6 0.000000 0.000000 0.000000 0.000000 0.000000 0.137897
#
#
# Mechanical properties :
#
#
# Convention : Reuss Voigt Hill
#
# Bulk Modulus (GPa) = 46.47534 59.72760 53.10147
# Shear Modulus (GPa) = 15.25832 19.99647 17.62740
#
# Velocity S-wave (km/s) = 3.13397 3.58771 3.36849
# Velocity P-wave (km/s) = 6.55834 7.45713 7.02213
#
# Compressibility (1/GPa) = 0.02151679
#
# Stress axis : x y z
#
# Youngs Moduli (GPa) = 47.77127 52.31680 73.15465
#
# Poissons Ratio (x) = 0.06300 0.44860
# Poissons Ratio (y) = 0.05753 0.64110
# Poissons Ratio (z) = 0.29294 0.45849
#
# Static dielectric constant tensor:
#      x y z
#    x 2.808090 0.000000 0.000000 
#    y 0.000000 3.192540 0.000000 
#    z 0.000000 0.000000 2.905160 
# 
# 
# High freq. dielectric constant tensor:
#      x y z
#    x 1.564110 0.000000 0.000000 
#    y 0.000000 1.605530 0.000000 
#    z 0.000000 0.000000 1.578800 
# 
# From -- ./inp_files/72860.got.cif
#   From: 2010.03.12/outbox.cif.g09.slc.cpg/sg74_37_cif.got.tgz:72860.got - 2010.04.16 15:46:19.
