data_PCOD8301396
_publ_section_title
;
Structure prediction by ZEFSAII (Michael W. Deem and Ramdas Pophale) SiO2 
 PCOD8301396
Probable space group: I M M A
;
_chemical_formula_sum "Si O2"
_cell_formula_units_Z 88
_cell_length_a 15.079454
_cell_length_b 11.430032
_cell_length_c 25.494436
_cell_angle_alpha 90.000000
_cell_angle_beta 90.000000
_cell_angle_gamma 90.000000
_cell_volume 4394.186361
_symmetry_space_group_name_H-M "I M M A"
_symmetry_group_IT_number 74
_symmetry_cell_setting 'orthorhombic'
loop_
_space_group_symop_operation_xyz
x,y,z
-x,1/2-y,z
x,-y,-z
-x,1/2+y,-z
-x,-y,-z
x,1/2+y,-z
-x,y,z
x,1/2-y,z
1/2+x,1/2+y,1/2+z
1/2-x,-y,1/2+z
1/2+x,1/2-y,1/2-z
1/2-x,y,1/2-z
1/2-x,1/2-y,1/2-z
1/2+x,y,1/2-z
1/2-x,1/2+y,1/2+z
1/2+x,-y,1/2+z
loop_
_atom_site_type_symbol
_atom_site_label
_atom_site_fract_x
_atom_site_fract_y
_atom_site_fract_z
Si Si1 0.829818 0.387118 0.886039
Si Si2 0.500000 0.387475 0.225495
Si Si3 0.157094 0.474151 0.768996
Si Si4 0.598311 0.750000 0.092926
Si Si5 0.894989 0.750000 0.293175
Si Si6 0.163429 0.981598 0.441349
Si Si7 0.000000 0.387786 0.392890
Si Si8 0.000000 0.111693 0.959229
O O1 0.801508 0.250000 0.887027
O O2 0.852959 0.432368 0.828544
O O3 0.749961 0.471283 0.905004
O O4 0.913899 0.405127 0.923372
O O5 0.500000 0.250000 0.221952
O O6 0.414848 0.427215 0.257836
O O7 0.500000 0.440914 0.166216
O O8 0.250000 0.529503 0.750000
O O9 0.144196 0.363411 0.732730
O O10 0.500000 0.750000 0.114345
O O11 0.649017 0.750000 0.148652
O O12 0.613893 0.640925 0.056159
O O13 0.000000 0.750000 0.287004
O O14 0.197314 0.000000 0.500000
O O15 0.091326 0.075135 0.421365
O O16 0.000000 0.250000 0.391541
O O17 0.000000 0.250000 0.981695
O O18 0.000000 0.000000 0.000000
#
# Coordination Sequence:
#
# PCOD8301396 Si02
#       8
#    16   8  16   8   8  16   8   8
#     4  11  23  41  65  99 130 163 210 274 335 392
#     4  11  25  45  63  88 133 178 215 254 305 388
#     4  12  23  38  67  99 134 163 208 260 334 390
#     4  11  22  37  61  94 132 167 210 259 319 378
#     4  11  21  35  65 102 137 159 196 266 344 389
#     4  12  25  40  64  91 130 170 216 266 316 375
#     4  11  25  43  65  93 130 175 219 254 309 381
#     4  10  23  44  68  91 128 173 225 282 338 386
#
# _framework density 20.026461000000001
#
# number of rings (size 3 to 8) (size 9 to 14) (size 15 to 20)
#    0.000    0.727    3.636    4.909    1.273    0.364 
#    0.000    3.636    0.000    0.000    0.000    0.000 
#    0.000    0.000    0.000    0.000    0.000    0.000 
#
# Total GULP energy -545345.318679 kJ/mol
# GULP energy per Si atom -12394.211788 kJ/mol
# Density = 1.998088 g / cm^3
# Si number density = 20.026461 Si / 1000 Ang^3
#
#
#
# Elastic Constant Matrix: (Units=GPa)
#
#
# Indices 1 2 3 4 5 6 
#
# 1 135.9612 33.1546 32.7413 0.0000 0.0000 0.0000
# 2 33.1546 87.8360 45.3663 0.0000 0.0000 0.0000
# 3 32.7413 45.3663 128.7853 0.0000 0.0000 0.0000
# 4 0.0000 0.0000 0.0000 37.7653 0.0000 0.0000
# 5 0.0000 0.0000 0.0000 0.0000 35.2530 0.0000
# 6 0.0000 0.0000 0.0000 0.0000 0.0000 17.0209
#
#
#
# Elastic Compliance Matrix: (Units=1/GPa)
#
#
# Indices 1 2 3 4 5 6 
#
# 1 0.008255 -0.002484 -0.001224 0.000000 0.000000 0.000000
# 2 -0.002484 0.014664 -0.004534 0.000000 0.000000 0.000000
# 3 -0.001224 -0.004534 0.009673 0.000000 0.000000 0.000000
# 4 0.000000 0.000000 0.000000 0.026479 0.000000 0.000000
# 5 0.000000 0.000000 0.000000 0.000000 0.028366 0.000000
# 6 0.000000 0.000000 0.000000 0.000000 0.000000 0.058751
#
#
# Mechanical properties :
#
#
# Convention : Reuss Voigt Hill
#
# Bulk Modulus (GPa) = 62.07700 63.90077 62.98889
# Shear Modulus (GPa) = 29.75417 34.09587 31.92502
#
# Velocity S-wave (km/s) = 3.85872 4.13066 3.99700
# Velocity P-wave (km/s) = 7.13566 7.39779 7.26791
#
# Compressibility (1/GPa) = 0.01610903
#
# Stress axis : x y z
#
# Youngs Moduli (GPa) = 121.13164 68.19262 103.37836
#
# Poissons Ratio (x) = 0.16939 0.12651
# Poissons Ratio (y) = 0.30090 0.46874
# Poissons Ratio (z) = 0.14824 0.30920
#
# Static dielectric constant tensor:
#      x y z
#    x 1.902310 0.000000 0.000000 
#    y 0.000000 4.040740 0.000000 
#    z 0.000000 0.000000 3.776700 
# 
# 
# High freq. dielectric constant tensor:
#      x y z
#    x 1.803840 0.000000 0.000000 
#    y 0.000000 1.771430 0.000000 
#    z 0.000000 0.000000 1.790430 
# 
# From -- ./inp_files/59868.got.cif
#   From: 2010.03.12/outbox.cif.g09.slc.cpg/sg74_30_cif.got.tgz:59868.got - 2010.04.16 15:46:19.
