data_PCOD8301276
_publ_section_title
;
Structure prediction by ZEFSAII (Michael W. Deem and Ramdas Pophale) SiO2 
 PCOD8301276
Probable space group: I M M A
;
_chemical_formula_sum "Si O2"
_cell_formula_units_Z 96
_cell_length_a 20.891415
_cell_length_b 14.545385
_cell_length_c 13.641126
_cell_angle_alpha 90.000000
_cell_angle_beta 90.000000
_cell_angle_gamma 90.000000
_cell_volume 4145.179080
_symmetry_space_group_name_H-M "I M M A"
_symmetry_group_IT_number 74
_symmetry_cell_setting 'orthorhombic'
loop_
_space_group_symop_operation_xyz
x,y,z
-x,1/2-y,z
x,-y,-z
-x,1/2+y,-z
-x,-y,-z
x,1/2+y,-z
-x,y,z
x,1/2-y,z
1/2+x,1/2+y,1/2+z
1/2-x,-y,1/2+z
1/2+x,1/2-y,1/2-z
1/2-x,y,1/2-z
1/2-x,1/2-y,1/2-z
1/2+x,y,1/2-z
1/2-x,1/2+y,1/2+z
1/2+x,-y,1/2+z
loop_
_atom_site_type_symbol
_atom_site_label
_atom_site_fract_x
_atom_site_fract_y
_atom_site_fract_z
Si Si1 0.185202 0.353138 0.395330
Si Si2 0.189469 0.148100 0.811317
Si Si3 0.929608 0.043928 0.738828
Si Si4 0.427575 0.644103 0.039790
Si Si5 0.612093 0.648888 0.708173
Si Si6 0.812244 0.901455 0.974902
O O1 0.205713 0.250000 0.424925
O O2 0.120248 0.381572 0.452104
O O3 0.173347 0.360233 0.279386
O O4 0.244298 0.418793 0.421085
O O5 0.175153 0.250000 0.769753
O O6 0.250000 0.107280 0.750000
O O7 0.126801 0.084978 0.804359
O O8 0.203136 0.155852 0.926981
O O9 0.913350 0.072399 0.627339
O O10 0.000000 0.084622 0.765803
O O11 0.934363 0.934629 0.761130
O O12 0.500000 0.630022 0.000671
O O13 0.417881 0.750000 0.075338
O O14 0.579170 0.750000 0.724293
O O15 0.636760 0.647336 0.596198
O O16 0.841925 0.000000 0.000000
#
# Coordination Sequence:
#
# PCOD8301276 Si02
#       6
#    16  16  16  16  16  16
#     4  10  22  39  64  96 131 174 218 263 328 403
#     4  11  24  43  70 103 135 167 215 275 337 401
#     4  11  24  42  67  99 135 176 223 274 334 395
#     4   9  19  38  65  99 136 168 207 266 333 403
#     4  11  25  44  64  92 133 178 223 270 325 390
#     4  12  24  40  66  94 129 170 218 274 332 397
#
# _framework density 23.159434000000001
#
# number of rings (size 3 to 8) (size 9 to 14) (size 15 to 20)
#    0.000    1.333    1.667    3.500    4.667    6.000 
#    0.000    5.000    0.000    2.000    0.000    0.000 
#    0.000    0.000    0.000    0.000    0.000    0.000 
#
# Total GULP energy -594988.188351 kJ/mol
# GULP energy per Si atom -12395.587257 kJ/mol
# Density = 2.310672 g / cm^3
# Si number density = 23.159434 Si / 1000 Ang^3
#
#
#
# Elastic Constant Matrix: (Units=GPa)
#
#
# Indices 1 2 3 4 5 6 
#
# 1 82.6194 26.3570 21.1510 0.0000 0.0000 0.0000
# 2 26.3570 107.1329 25.0231 0.0000 0.0000 0.0000
# 3 21.1510 25.0231 114.2622 0.0000 0.0000 0.0000
# 4 0.0000 0.0000 0.0000 31.7109 0.0000 0.0000
# 5 0.0000 0.0000 0.0000 0.0000 25.4148 0.0000
# 6 0.0000 0.0000 0.0000 0.0000 0.0000 24.0353
#
#
#
# Elastic Compliance Matrix: (Units=1/GPa)
#
#
# Indices 1 2 3 4 5 6 
#
# 1 0.013502 -0.002886 -0.001867 0.000000 0.000000 0.000000
# 2 -0.002886 0.010454 -0.001755 0.000000 0.000000 0.000000
# 3 -0.001867 -0.001755 0.009482 0.000000 0.000000 0.000000
# 4 0.000000 0.000000 0.000000 0.031535 0.000000 0.000000
# 5 0.000000 0.000000 0.000000 0.000000 0.039347 0.000000
# 6 0.000000 0.000000 0.000000 0.000000 0.000000 0.041606
#
#
# Mechanical properties :
#
#
# Convention : Reuss Voigt Hill
#
# Bulk Modulus (GPa) = 48.96788 49.89743 49.43265
# Shear Modulus (GPa) = 30.16591 31.66440 30.91516
#
# Velocity S-wave (km/s) = 3.61298 3.70163 3.65757
# Velocity P-wave (km/s) = 6.21245 6.31358 6.26322
#
# Compressibility (1/GPa) = 0.02042155
#
# Stress axis : x y z
#
# Youngs Moduli (GPa) = 74.06112 95.65603 105.46427
#
# Poissons Ratio (x) = 0.27603 0.19695
# Poissons Ratio (y) = 0.21372 0.18512
# Poissons Ratio (z) = 0.13831 0.16790
#
# Static dielectric constant tensor:
#      x y z
#    x 3.830060 0.000000 0.000000 
#    y 0.000000 4.236160 0.000000 
#    z 0.000000 0.000000 4.078130 
# 
# 
# High freq. dielectric constant tensor:
#      x y z
#    x 1.893780 0.000000 0.000000 
#    y 0.000000 1.922860 0.000000 
#    z 0.000000 0.000000 1.912930 
# 
# From -- ./inp_files/35290.got.cif
#   From: 2010.03.12/outbox.cif.g09.slc.cpg/sg74_18_cif.got.tgz:35290.got - 2010.04.16 15:46:19.
