data_PCOD8301311
_publ_section_title
;
Structure prediction by ZEFSAII (Michael W. Deem and Ramdas Pophale) SiO2 
 PCOD8301311
Probable space group: I M M A
;
_chemical_formula_sum "Si O2"
_cell_formula_units_Z 88
_cell_length_a 10.112562
_cell_length_b 19.334003
_cell_length_c 21.106338
_cell_angle_alpha 90.000000
_cell_angle_beta 90.000000
_cell_angle_gamma 90.000000
_cell_volume 4126.633198
_symmetry_space_group_name_H-M "I M M A"
_symmetry_group_IT_number 74
_symmetry_cell_setting 'orthorhombic'
loop_
_space_group_symop_operation_xyz
x,y,z
-x,1/2-y,z
x,-y,-z
-x,1/2+y,-z
-x,-y,-z
x,1/2+y,-z
-x,y,z
x,1/2-y,z
1/2+x,1/2+y,1/2+z
1/2-x,-y,1/2+z
1/2+x,1/2-y,1/2-z
1/2-x,y,1/2-z
1/2-x,1/2-y,1/2-z
1/2+x,y,1/2-z
1/2-x,1/2+y,1/2+z
1/2+x,-y,1/2+z
loop_
_atom_site_type_symbol
_atom_site_label
_atom_site_fract_x
_atom_site_fract_y
_atom_site_fract_z
Si Si1 0.237953 0.899955 0.326036
Si Si2 0.000000 0.420729 0.033184
Si Si3 0.853125 0.169473 0.201926
Si Si4 0.730856 0.671835 0.561247
Si Si5 0.342010 0.750000 0.189112
Si Si6 0.000000 0.105561 0.469877
Si Si7 0.500000 0.534001 0.104377
Si Si8 0.000000 0.041472 0.889938
O O1 0.250000 0.906035 0.250000
O O2 0.197031 0.821265 0.347194
O O3 0.374909 0.922721 0.357642
O O4 0.127587 0.951887 0.352237
O O5 0.869857 0.375507 0.023795
O O6 0.000000 0.457199 0.105156
O O7 0.000000 0.459657 0.966299
O O8 0.867093 0.250000 0.218149
O O9 0.750000 0.133159 0.250000
O O10 0.787325 0.157842 0.134794
O O11 0.000000 0.135934 0.206763
O O12 0.697395 0.750000 0.543276
O O13 0.876960 0.654816 0.539847
O O14 0.500000 0.750000 0.204813
O O15 0.250000 0.750000 0.250000
O O16 0.000000 0.080000 0.541695
O O17 0.000000 0.045207 0.417597
#
# Coordination Sequence:
#
# PCOD8301311 Si02
#       8
#    16   8  16  16   8   8   8   8
#     4  11  23  43  70 101 137 169 218 276 341 400
#     4  11  23  46  65  89 132 176 230 262 334 394
#     4   9  18  33  56  83 117 161 202 247 317 382
#     4  11  22  41  64  94 129 166 214 287 333 378
#     4  10  22  40  68 100 142 180 208 266 345 412
#     4  11  25  42  67  91 130 178 224 262 336 400
#     4  11  23  47  67  91 129 182 218 266 327 405
#     4  11  25  43  69  95 125 184 220 266 325 409
#
# _framework density 21.32489
#
# number of rings (size 3 to 8) (size 9 to 14) (size 15 to 20)
#    0.000    1.455    1.818    3.273    5.091    2.909 
#    9.818    5.455    0.000    0.000    0.000    0.000 
#    0.000    0.000    0.000    0.000    0.000    0.000 
#
# Total GULP energy -545166.340981 kJ/mol
# GULP energy per Si atom -12390.144113 kJ/mol
# Density = 2.127635 g / cm^3
# Si number density = 21.324890 Si / 1000 Ang^3
#
#
#
# Elastic Constant Matrix: (Units=GPa)
#
#
# Indices 1 2 3 4 5 6 
#
# 1 172.7079 26.8709 44.5661 0.0000 0.0000 0.0000
# 2 26.8709 63.4356 38.6028 0.0000 0.0000 0.0000
# 3 44.5661 38.6028 89.4275 0.0000 0.0000 0.0000
# 4 0.0000 0.0000 0.0000 28.6770 0.0000 0.0000
# 5 0.0000 0.0000 0.0000 0.0000 42.8968 0.0000
# 6 0.0000 0.0000 0.0000 0.0000 0.0000 35.4540
#
#
#
# Elastic Compliance Matrix: (Units=1/GPa)
#
#
# Indices 1 2 3 4 5 6 
#
# 1 0.006700 -0.001093 -0.002867 0.000000 0.000000 0.000000
# 2 -0.001093 0.021559 -0.008761 0.000000 0.000000 0.000000
# 3 -0.002867 -0.008761 0.016393 0.000000 0.000000 0.000000
# 4 0.000000 0.000000 0.000000 0.034871 0.000000 0.000000
# 5 0.000000 0.000000 0.000000 0.000000 0.023312 0.000000
# 6 0.000000 0.000000 0.000000 0.000000 0.000000 0.028206
#
#
# Mechanical properties :
#
#
# Convention : Reuss Voigt Hill
#
# Bulk Modulus (GPa) = 52.06060 60.62784 56.34422
# Shear Modulus (GPa) = 30.69626 35.77431 33.23529
#
# Velocity S-wave (km/s) = 3.79813 4.10028 3.95209
# Velocity P-wave (km/s) = 6.61063 7.13503 6.87783
#
# Compressibility (1/GPa) = 0.01920838
#
# Stress axis : x y z
#
# Youngs Moduli (GPa) = 149.25269 46.38491 61.00196
#
# Poissons Ratio (x) = 0.05072 0.17489
# Poissons Ratio (y) = 0.16320 0.53445
# Poissons Ratio (z) = 0.42790 0.40639
#
# Static dielectric constant tensor:
#      x y z
#    x 4.299640 0.000000 0.000000 
#    y 0.000000 4.055770 0.000000 
#    z 0.000000 0.000000 3.802170 
# 
# 
# High freq. dielectric constant tensor:
#      x y z
#    x 1.855050 0.000000 0.000000 
#    y 0.000000 1.837480 0.000000 
#    z 0.000000 0.000000 1.833190 
# 
# From -- ./inp_files/57105.got.cif
#   From: 2010.03.12/outbox.cif.g09.slc.cpg/sg74_29_cif.got.tgz:57105.got - 2010.04.16 15:46:19.
