data_PCOD8301460
_publ_section_title
;
Structure prediction by ZEFSAII (Michael W. Deem and Ramdas Pophale) SiO2 
 PCOD8301460
Probable space group: I M M A
;
_chemical_formula_sum "Si O2"
_cell_formula_units_Z 96
_cell_length_a 27.557353
_cell_length_b 9.777039
_cell_length_c 26.866946
_cell_angle_alpha 90.000000
_cell_angle_beta 90.000000
_cell_angle_gamma 90.000000
_cell_volume 7238.742857
_symmetry_space_group_name_H-M "I M M A"
_symmetry_group_IT_number 74
_symmetry_cell_setting 'orthorhombic'
loop_
_space_group_symop_operation_xyz
x,y,z
-x,1/2-y,z
x,-y,-z
-x,1/2+y,-z
-x,-y,-z
x,1/2+y,-z
-x,y,z
x,1/2-y,z
1/2+x,1/2+y,1/2+z
1/2-x,-y,1/2+z
1/2+x,1/2-y,1/2-z
1/2-x,y,1/2-z
1/2-x,1/2-y,1/2-z
1/2+x,y,1/2-z
1/2-x,1/2+y,1/2+z
1/2+x,-y,1/2+z
loop_
_atom_site_type_symbol
_atom_site_label
_atom_site_fract_x
_atom_site_fract_y
_atom_site_fract_z
Si Si1 0.557116 0.750000 0.427500
Si Si2 0.946983 0.910874 0.781207
Si Si3 0.851872 0.404355 0.267565
Si Si4 0.226517 0.405951 0.695705
Si Si5 0.096264 0.475631 0.113284
Si Si6 0.805197 0.403509 0.159655
Si Si7 0.943569 0.750000 0.955666
O O1 0.500000 0.750000 0.414974
O O2 0.584905 0.627589 0.401896
O O3 0.566034 0.750000 0.485990
O O4 0.948352 0.750000 0.775298
O O5 0.906176 0.964217 0.742426
O O6 0.934305 0.942068 0.837886
O O7 0.000000 0.974351 0.768392
O O8 0.852373 0.250000 0.290700
O O9 0.824509 0.511708 0.303266
O O10 0.825026 0.396306 0.215195
O O11 0.218250 0.250000 0.676824
O O12 0.250000 0.402504 0.750000
O O13 0.261027 0.488303 0.657400
O O14 0.153463 0.455610 0.122204
O O15 0.080402 0.383354 0.067318
O O16 0.788080 0.250000 0.144256
O O17 0.000000 0.750000 0.942953
#
# Coordination Sequence:
#
# PCOD8301460 Si02
#       7
#     8  16  16  16  16  16   8
#     4  11  24  32  40  58  75  92 116 152 196 235
#     4   9  15  25  42  57  71  97 129 155 182 215
#     4   8  14  24  36  53  72  93 119 145 170 210
#     4   9  16  24  37  54  74  93 109 136 177 219
#     4  11  19  31  44  57  73  91 118 155 192 230
#     4   9  16  27  41  56  68  90 116 142 178 219
#     4  11  20  34  48  54  67  94 124 150 186 237
#
# _framework density 13.261971000000001
#
# number of rings (size 3 to 8) (size 9 to 14) (size 15 to 20)
#    0.000    2.500    1.667    3.500    1.167    3.333 
#    4.500    0.000    0.000    0.000    0.000    0.000 
#    0.000    0.000    0.000    0.000    0.000    0.000 
#
# Total GULP energy -594874.061627 kJ/mol
# GULP energy per Si atom -12393.209617 kJ/mol
# Density = 1.323179 g / cm^3
# Si number density = 13.261971 Si / 1000 Ang^3
#
#
#
# Elastic Constant Matrix: (Units=GPa)
#
#
# Indices 1 2 3 4 5 6 
#
# 1 117.2176 84.1459 49.5423 0.0000 0.0000 0.0000
# 2 84.1459 187.0027 61.4754 0.0000 0.0000 0.0000
# 3 49.5423 61.4754 42.0982 0.0000 0.0000 0.0000
# 4 0.0000 0.0000 0.0000 22.3414 0.0000 0.0000
# 5 0.0000 0.0000 0.0000 0.0000 16.9727 0.0000
# 6 0.0000 0.0000 0.0000 0.0000 0.0000 16.7776
#
#
#
# Elastic Compliance Matrix: (Units=1/GPa)
#
#
# Indices 1 2 3 4 5 6 
#
# 1 0.017396 -0.002111 -0.017390 0.000000 0.000000 0.000000
# 2 -0.002111 0.010541 -0.012908 0.000000 0.000000 0.000000
# 3 -0.017390 -0.012908 0.063068 0.000000 0.000000 0.000000
# 4 0.000000 0.000000 0.000000 0.044760 0.000000 0.000000
# 5 0.000000 0.000000 0.000000 0.000000 0.058918 0.000000
# 6 0.000000 0.000000 0.000000 0.000000 0.000000 0.059603
#
#
# Mechanical properties :
#
#
# Convention : Reuss Voigt Hill
#
# Bulk Modulus (GPa) = 38.18612 81.84955 60.01783
# Shear Modulus (GPa) = 15.25158 21.29533 18.27345
#
# Velocity S-wave (km/s) = 3.39488 4.01152 3.71601
# Velocity P-wave (km/s) = 6.65005 9.12731 7.98533
#
# Compressibility (1/GPa) = 0.02618753
#
# Stress axis : x y z
#
# Youngs Moduli (GPa) = 57.48284 94.86758 15.85579
#
# Poissons Ratio (x) = 0.20029 0.27573
# Poissons Ratio (y) = 0.12136 0.20467
# Poissons Ratio (z) = 0.99961 1.22458
#
# Static dielectric constant tensor:
#      x y z
#    x 2.957580 0.000000 0.000000 
#    y 0.000000 2.804730 0.000000 
#    z 0.000000 0.000000 2.104000 
# 
# 
# High freq. dielectric constant tensor:
#      x y z
#    x 1.502380 0.000000 0.000000 
#    y 0.000000 1.513840 0.000000 
#    z 0.000000 0.000000 1.440230 
# 
# From -- ./inp_files/74005.got.cif
#   From: 2010.03.12/outbox.cif.g09.slc.cpg/sg74_38_cif.got.tgz:74005.got - 2010.04.16 15:46:19.
