data_PCOD8301729
_publ_section_title
;
Structure prediction by ZEFSAII (Michael W. Deem and Ramdas Pophale) SiO2 
 PCOD8301729
Probable space group: I M M A
;
_chemical_formula_sum "Si O2"
_cell_formula_units_Z 112
_cell_length_a 14.054658
_cell_length_b 14.218997
_cell_length_c 31.864901
_cell_angle_alpha 90.000000
_cell_angle_beta 90.000000
_cell_angle_gamma 90.000000
_cell_volume 6367.981870
_symmetry_space_group_name_H-M "I M M A"
_symmetry_group_IT_number 74
_symmetry_cell_setting 'orthorhombic'
loop_
_space_group_symop_operation_xyz
x,y,z
-x,1/2-y,z
x,-y,-z
-x,1/2+y,-z
-x,-y,-z
x,1/2+y,-z
-x,y,z
x,1/2-y,z
1/2+x,1/2+y,1/2+z
1/2-x,-y,1/2+z
1/2+x,1/2-y,1/2-z
1/2-x,y,1/2-z
1/2-x,1/2-y,1/2-z
1/2+x,y,1/2-z
1/2-x,1/2+y,1/2+z
1/2+x,-y,1/2+z
loop_
_atom_site_type_symbol
_atom_site_label
_atom_site_fract_x
_atom_site_fract_y
_atom_site_fract_z
Si Si1 0.609229 0.852383 0.492533
Si Si2 0.387149 0.144321 0.934012
Si Si3 0.792538 0.861272 0.685200
Si Si4 0.608572 0.013729 0.432179
Si Si5 0.392477 0.139791 0.028950
Si Si6 0.702502 0.969510 0.896915
Si Si7 0.394601 0.861208 0.730469
O O1 0.500000 0.839334 0.480999
O O2 0.661179 0.750000 0.490908
O O3 0.649188 0.923453 0.457662
O O4 0.616828 0.894258 0.538940
O O5 0.500000 0.137975 0.931422
O O6 0.353413 0.250000 0.922822
O O7 0.341984 0.073547 0.900057
O O8 0.355561 0.118115 0.981739
O O9 0.797423 0.750000 0.676226
O O10 0.831861 0.917161 0.644916
O O11 0.684191 0.893109 0.696410
O O12 0.861609 0.891370 0.723063
O O13 0.500000 0.001410 0.416031
O O14 0.682048 0.025808 0.394021
O O15 0.500000 0.101893 0.034796
O O16 0.389378 0.250000 0.037881
O O17 0.325037 0.087924 0.061560
O O18 0.500000 0.903738 0.720718
O O19 0.399530 0.750000 0.729311
#
# Coordination Sequence:
#
# PCOD8301729 Si02
#       7
#    16  16  16  16  16  16  16
#     4   8  15  30  46  55  74 115 164 209 242 268
#     4   9  20  37  51  65  91 130 176 216 246 284
#     4   9  19  32  46  75 108 125 153 194 230 287
#     4   9  20  32  40  62  93 120 159 204 240 280
#     4   9  19  34  49  67  94 128 167 209 251 295
#     4  12  21  29  48  74  99 130 160 204 252 289
#     4   8  15  32  55  72  95 132 159 181 227 291
#
# _framework density 17.587990000000001
#
# number of rings (size 3 to 8) (size 9 to 14) (size 15 to 20)
#    0.000    2.857    0.000    3.857    4.000    4.571 
#    0.000    1.429    0.000    0.000    0.000    2.000 
#    0.000    1.143    0.000    0.000    0.000    0.000 
#
# Total GULP energy -693991.013092 kJ/mol
# GULP energy per Si atom -12392.696662 kJ/mol
# Density = 1.754796 g / cm^3
# Si number density = 17.587990 Si / 1000 Ang^3
#
#
#
# Elastic Constant Matrix: (Units=GPa)
#
#
# Indices 1 2 3 4 5 6 
#
# 1 63.7604 18.1564 18.1114 0.0000 0.0000 0.0000
# 2 18.1564 84.8277 40.0070 0.0000 0.0000 0.0000
# 3 18.1114 40.0070 68.4187 0.0000 0.0000 0.0000
# 4 0.0000 0.0000 0.0000 22.4949 0.0000 0.0000
# 5 0.0000 0.0000 0.0000 0.0000 14.7010 0.0000
# 6 0.0000 0.0000 0.0000 0.0000 0.0000 17.0315
#
#
#
# Elastic Compliance Matrix: (Units=1/GPa)
#
#
# Indices 1 2 3 4 5 6 
#
# 1 0.017231 -0.002122 -0.003320 0.000000 0.000000 0.000000
# 2 -0.002122 0.016539 -0.009109 0.000000 0.000000 0.000000
# 3 -0.003320 -0.009109 0.020821 0.000000 0.000000 0.000000
# 4 0.000000 0.000000 0.000000 0.044455 0.000000 0.000000
# 5 0.000000 0.000000 0.000000 0.000000 0.068023 0.000000
# 6 0.000000 0.000000 0.000000 0.000000 0.000000 0.058715
#
#
# Mechanical properties :
#
#
# Convention : Reuss Voigt Hill
#
# Bulk Modulus (GPa) = 39.23422 41.06182 40.14802
# Shear Modulus (GPa) = 18.98377 20.22761 19.60569
#
# Velocity S-wave (km/s) = 3.28893 3.39496 3.34236
# Velocity P-wave (km/s) = 6.06453 6.22615 6.14587
#
# Compressibility (1/GPa) = 0.02548795
#
# Stress axis : x y z
#
# Youngs Moduli (GPa) = 58.03427 60.46324 48.02762
#
# Poissons Ratio (x) = 0.12831 0.15947
# Poissons Ratio (y) = 0.12316 0.43749
# Poissons Ratio (z) = 0.19270 0.55077
#
# Static dielectric constant tensor:
#      x y z
#    x 3.537270 0.000000 0.000000 
#    y 0.000000 3.450820 0.000000 
#    z 0.000000 0.000000 2.876390 
# 
# 
# High freq. dielectric constant tensor:
#      x y z
#    x 1.695010 0.000000 0.000000 
#    y 0.000000 1.662530 0.000000 
#    z 0.000000 0.000000 1.632780 
# 
# From -- ./inp_files/67233.got.cif
#   From: 2010.03.12/outbox.cif.g09.slc.cpg/sg74_34_cif.got.tgz:67233.got - 2010.04.16 15:46:19.
