data_PCOD8301142
_publ_section_title
;
Structure prediction by ZEFSAII (Michael W. Deem and Ramdas Pophale) SiO2 
 PCOD8301142
Probable space group: I M M A
;
_chemical_formula_sum "Si O2"
_cell_formula_units_Z 64
_cell_length_a 14.614668
_cell_length_b 19.310918
_cell_length_c 9.752803
_cell_angle_alpha 90.000000
_cell_angle_beta 90.000000
_cell_angle_gamma 90.000000
_cell_volume 2752.461960
_symmetry_space_group_name_H-M "I M M A"
_symmetry_group_IT_number 74
_symmetry_cell_setting 'orthorhombic'
loop_
_space_group_symop_operation_xyz
x,y,z
-x,1/2-y,z
x,-y,-z
-x,1/2+y,-z
-x,-y,-z
x,1/2+y,-z
-x,y,z
x,1/2-y,z
1/2+x,1/2+y,1/2+z
1/2-x,-y,1/2+z
1/2+x,1/2-y,1/2-z
1/2-x,y,1/2-z
1/2-x,1/2-y,1/2-z
1/2+x,y,1/2-z
1/2-x,1/2+y,1/2+z
1/2+x,-y,1/2+z
loop_
_atom_site_type_symbol
_atom_site_label
_atom_site_fract_x
_atom_site_fract_y
_atom_site_fract_z
Si Si1 0.600384 0.372249 0.990340
Si Si2 0.100314 0.587943 0.793933
Si Si3 0.352226 0.440290 0.721411
Si Si4 0.300048 0.671867 0.491563
O O1 0.500000 0.333629 0.997030
O O2 0.616595 0.414139 0.130518
O O3 0.594940 0.424028 0.861911
O O4 0.689833 0.323942 0.968918
O O5 0.104211 0.508535 0.847744
O O6 0.000000 0.617822 0.830254
O O7 0.175544 0.638116 0.862027
O O8 0.250000 0.463465 0.750000
O O9 0.353271 0.373517 0.622065
O O10 0.337524 0.750000 0.482897
#
# Coordination Sequence:
#
# PCOD8301142 Si02
#       4
#    16  16  16  16
#     4  10  22  40  66  97 124 156 206 264 316 367
#     4  11  23  40  65  95 125 162 209 259 312 368
#     4  10  21  39  66  95 124 159 203 258 316 371
#     4  11  25  43  62  90 130 171 209 251 304 370
#
# _framework density 23.251909999999999
#
# number of rings (size 3 to 8) (size 9 to 14) (size 15 to 20)
#    0.000    1.500    0.000    4.500    0.000   16.500 
#    0.000    2.500    0.000    0.000    0.000    0.000 
#    0.000    0.000    0.000    0.000    0.000    0.000 
#
# Total GULP energy -396553.308345 kJ/mol
# GULP energy per Si atom -12392.290886 kJ/mol
# Density = 2.319899 g / cm^3
# Si number density = 23.251910 Si / 1000 Ang^3
#
#
#
# Elastic Constant Matrix: (Units=GPa)
#
#
# Indices 1 2 3 4 5 6 
#
# 1 99.5909 17.6053 33.9369 0.0000 0.0000 0.0000
# 2 17.6053 150.1517 40.2201 0.0000 0.0000 0.0000
# 3 33.9369 40.2201 112.9444 0.0000 0.0000 0.0000
# 4 0.0000 0.0000 0.0000 6.3712 0.0000 0.0000
# 5 0.0000 0.0000 0.0000 0.0000 30.1267 0.0000
# 6 0.0000 0.0000 0.0000 0.0000 0.0000 3.9538
#
#
#
# Elastic Compliance Matrix: (Units=1/GPa)
#
#
# Indices 1 2 3 4 5 6 
#
# 1 0.011215 -0.000456 -0.003207 0.000000 0.000000 0.000000
# 2 -0.000456 0.007381 -0.002491 0.000000 0.000000 0.000000
# 3 -0.003207 -0.002491 0.010705 0.000000 0.000000 0.000000
# 4 0.000000 0.000000 0.000000 0.156955 0.000000 0.000000
# 5 0.000000 0.000000 0.000000 0.000000 0.033193 0.000000
# 6 0.000000 0.000000 0.000000 0.000000 0.000000 0.252923
#
#
# Mechanical properties :
#
#
# Convention : Reuss Voigt Hill
#
# Bulk Modulus (GPa) = 58.85435 60.69018 59.77227
# Shear Modulus (GPa) = 10.19692 26.15198 18.17445
#
# Velocity S-wave (km/s) = 2.09641 3.35733 2.79880
# Velocity P-wave (km/s) = 5.58807 6.41769 6.01719
#
# Compressibility (1/GPa) = 0.01699110
#
# Stress axis : x y z
#
# Youngs Moduli (GPa) = 89.16932 135.48819 93.41557
#
# Poissons Ratio (x) = 0.06175 0.29962
# Poissons Ratio (y) = 0.04064 0.23273
# Poissons Ratio (z) = 0.28600 0.33755
#
# Static dielectric constant tensor:
#      x y z
#    x 4.503140 0.000000 0.000000 
#    y 0.000000 3.673210 0.000000 
#    z 0.000000 0.000000 4.185860 
# 
# 
# High freq. dielectric constant tensor:
#      x y z
#    x 1.930990 0.000000 0.000000 
#    y 0.000000 1.883960 0.000000 
#    z 0.000000 0.000000 1.923770 
# 
# From -- ./inp_files/8811.got.cif
#   From: 2010.03.12/outbox.cif.g09.slc.cpg/sg74_5_cif.got.tgz:8811.got - 2010.04.16 15:46:19.
