data_PCOD8301444
_publ_section_title
;
Structure prediction by ZEFSAII (Michael W. Deem and Ramdas Pophale) SiO2 
 PCOD8301444
Probable space group: I M M A
;
_chemical_formula_sum "Si O2"
_cell_formula_units_Z 96
_cell_length_a 13.918088
_cell_length_b 19.161882
_cell_length_c 20.331734
_cell_angle_alpha 90.000000
_cell_angle_beta 90.000000
_cell_angle_gamma 90.000000
_cell_volume 5422.407581
_symmetry_space_group_name_H-M "I M M A"
_symmetry_group_IT_number 74
_symmetry_cell_setting 'orthorhombic'
loop_
_space_group_symop_operation_xyz
x,y,z
-x,1/2-y,z
x,-y,-z
-x,1/2+y,-z
-x,-y,-z
x,1/2+y,-z
-x,y,z
x,1/2-y,z
1/2+x,1/2+y,1/2+z
1/2-x,-y,1/2+z
1/2+x,1/2-y,1/2-z
1/2-x,y,1/2-z
1/2-x,1/2-y,1/2-z
1/2+x,y,1/2-z
1/2-x,1/2+y,1/2+z
1/2+x,-y,1/2+z
loop_
_atom_site_type_symbol
_atom_site_label
_atom_site_fract_x
_atom_site_fract_y
_atom_site_fract_z
Si Si1 0.606435 0.328164 0.278319
Si Si2 0.203861 0.417054 0.117622
Si Si3 0.114146 0.325896 0.857457
Si Si4 0.112153 0.170241 0.007181
Si Si5 0.613779 0.467065 0.700151
Si Si6 0.892832 0.554016 0.676668
O O1 0.500000 0.331554 0.311706
O O2 0.635209 0.250000 0.259351
O O3 0.685312 0.357082 0.328443
O O4 0.603497 0.371486 0.211606
O O5 0.173629 0.386790 0.047249
O O6 0.144149 0.485343 0.138378
O O7 0.316889 0.438951 0.117083
O O8 0.152735 0.250000 0.832756
O O9 0.153233 0.388257 0.811031
O O10 0.000000 0.325021 0.856242
O O11 0.147130 0.338384 0.932334
O O12 0.131608 0.250000 0.031110
O O13 0.000000 0.152547 0.015137
O O14 0.500000 0.469128 0.701435
O O15 0.648701 0.496648 0.770922
O O16 0.000000 0.534083 0.650533
#
# Coordination Sequence:
#
# PCOD8301444 Si02
#       6
#    16  16  16  16  16  16
#     4   9  16  25  37  54  77 107 142 174 206 250
#     4  11  18  25  40  59  85 117 145 175 215 259
#     4   8  15  28  45  66  93 119 139 167 213 269
#     4   9  17  28  42  65  96 123 146 172 206 257
#     4   9  16  27  44  65  88 113 143 177 216 264
#     4   9  19  31  40  55  81 114 152 191 221 249
#
# _framework density 17.704312999999999
#
# number of rings (size 3 to 8) (size 9 to 14) (size 15 to 20)
#    0.000    2.833    0.000    6.000    0.000    4.000 
#    0.000    2.500    0.000    2.000    0.000    2.333 
#    0.000    1.333    0.000    0.000    0.000    0.000 
#
# Total GULP energy -594777.180041 kJ/mol
# GULP energy per Si atom -12391.191251 kJ/mol
# Density = 1.766402 g / cm^3
# Si number density = 17.704313 Si / 1000 Ang^3
#
#
#
# Elastic Constant Matrix: (Units=GPa)
#
#
# Indices 1 2 3 4 5 6 
#
# 1 63.6810 20.0324 22.6953 0.0000 0.0000 0.0000
# 2 20.0324 133.6794 36.4072 0.0000 0.0000 0.0000
# 3 22.6953 36.4072 33.4588 0.0000 0.0000 0.0000
# 4 0.0000 0.0000 0.0000 18.7599 0.0000 0.0000
# 5 0.0000 0.0000 0.0000 0.0000 14.0583 0.0000
# 6 0.0000 0.0000 0.0000 0.0000 0.0000 6.7502
#
#
#
# Elastic Compliance Matrix: (Units=1/GPa)
#
#
# Indices 1 2 3 4 5 6 
#
# 1 0.020809 0.001032 -0.015238 0.000000 0.000000 0.000000
# 2 0.001032 0.010682 -0.012323 0.000000 0.000000 0.000000
# 3 -0.015238 -0.012323 0.053632 0.000000 0.000000 0.000000
# 4 0.000000 0.000000 0.000000 0.053305 0.000000 0.000000
# 5 0.000000 0.000000 0.000000 0.000000 0.071133 0.000000
# 6 0.000000 0.000000 0.000000 0.000000 0.000000 0.148144
#
#
# Mechanical properties :
#
#
# Convention : Reuss Voigt Hill
#
# Bulk Modulus (GPa) = 31.18618 43.23210 37.20914
# Shear Modulus (GPa) = 11.86374 18.02596 14.94485
#
# Velocity S-wave (km/s) = 2.59145 3.19434 2.90855
# Velocity P-wave (km/s) = 5.15823 6.17066 5.68702
#
# Compressibility (1/GPa) = 0.03206548
#
# Stress axis : x y z
#
# Youngs Moduli (GPa) = 48.05544 93.61381 18.64545
#
# Poissons Ratio (x) = -0.09657 0.28411
# Poissons Ratio (y) = -0.04957 0.22977
# Poissons Ratio (z) = 0.73225 1.15362
#
# Static dielectric constant tensor:
#      x y z
#    x 3.199840 0.000000 0.000000 
#    y 0.000000 3.718260 0.000000 
#    z 0.000000 0.000000 2.906200 
# 
# 
# High freq. dielectric constant tensor:
#      x y z
#    x 1.662520 0.000000 0.000000 
#    y 0.000000 1.692390 0.000000 
#    z 0.000000 0.000000 1.633490 
# 
# From -- ./inp_files/52231.got.cif
#   From: 2010.03.12/outbox.cif.g09.slc.cpg/sg74_27_cif.got.tgz:52231.got - 2010.04.16 15:46:19.
