data_PCOD8301835
_publ_section_title
;
Structure prediction by ZEFSAII (Michael W. Deem and Ramdas Pophale) SiO2 
 PCOD8301835
Probable space group: P 4
;
_chemical_formula_sum "Si O2"
_cell_formula_units_Z 24
_cell_length_a 12.527273
_cell_length_b 12.527273
_cell_length_c 6.347995
_cell_angle_alpha 90.000000
_cell_angle_beta 90.000000
_cell_angle_gamma 90.000000
_cell_volume 996.207162
_symmetry_space_group_name_H-M "P 4"
_symmetry_group_IT_number 75
_symmetry_cell_setting 'tetragonal'
loop_
_space_group_symop_operation_xyz
x,y,z
-y,x,z
-x,-y,z
y,-x,z
loop_
_atom_site_type_symbol
_atom_site_label
_atom_site_fract_x
_atom_site_fract_y
_atom_site_fract_z
Si Si1 0.479958 0.832020 0.268550
Si Si2 0.153845 0.622474 0.892922
Si Si3 0.289672 0.824683 0.981551
Si Si4 0.672860 0.467520 0.607104
Si Si5 0.352050 0.951244 0.601302
Si Si6 0.171748 0.964929 0.277158
O O1 0.377055 0.782289 0.148334
O O2 0.541599 0.736599 0.387365
O O3 0.443802 0.922998 0.433441
O O4 0.564716 0.885935 0.107337
O O5 0.251296 0.551956 0.806092
O O6 0.938952 0.379531 0.719085
O O7 0.194253 0.741116 0.946940
O O8 0.243601 0.937889 0.072331
O O9 0.347709 0.852496 0.763293
O O10 0.623915 0.584706 0.619827
O O11 0.236980 0.958037 0.492968
O O12 0.082134 0.874528 0.271276
#
# Coordination Sequence:
#
# PCOD8301835 Si02
#       6
#     4   4   4   4   4   4
#     4  11  25  44  66  96 134 179 230 286 346 413
#     4  12  25  43  70 102 139 183 229 287 348 415
#     4  11  24  44  68 100 137 181 233 283 344 413
#     4  11  25  45  69  98 134 179 231 287 348 414
#     4  11  25  43  68 101 138 180 228 284 349 416
#     4  10  22  42  69 102 140 181 227 280 341 413
#
# _framework density 24.091373999999998
#
# number of rings (size 3 to 8) (size 9 to 14) (size 15 to 20)
#    0.000    1.000    0.000    6.000    0.000   10.667 
#    0.000    3.333    0.000    0.000    0.000    0.000 
#    0.000    0.000    0.000    0.000    0.000    0.000 
#
# Total GULP energy -297687.861532 kJ/mol
# GULP energy per Si atom -12403.660897 kJ/mol
# Density = 2.403654 g / cm^3
# Si number density = 24.091374 Si / 1000 Ang^3
#
#
#
# Elastic Constant Matrix: (Units=GPa)
#
#
# Indices 1 2 3 4 5 6 
#
# 1 110.7848 49.1791 62.8759 0.0000 0.0000 -13.1978
# 2 49.1791 110.7848 62.8759 0.0000 0.0000 13.1978
# 3 62.8759 62.8759 155.0041 0.0000 0.0000 0.0000
# 4 0.0000 0.0000 0.0000 47.3053 0.0000 0.0000
# 5 0.0000 0.0000 0.0000 0.0000 47.3053 0.0000
# 6 -13.1978 13.1978 0.0000 0.0000 0.0000 2.7562
#
#
#
# Elastic Compliance Matrix: (Units=1/GPa)
#
#
# Indices 1 2 3 4 5 6 
#
# 1 -0.003128 0.012307 -0.003723 0.000000 0.000000 -0.073909
# 2 0.012307 -0.003128 -0.003723 0.000000 0.000000 0.073909
# 3 -0.003723 -0.003723 0.009472 0.000000 0.000000 0.000000
# 4 0.000000 0.000000 0.000000 0.021139 0.000000 0.000000
# 5 0.000000 0.000000 0.000000 0.000000 0.021139 0.000000
# 6 -0.073909 0.073909 0.000000 0.000000 0.000000 -0.345000
#
#
# Mechanical properties :
#
#
# Convention : Reuss Voigt Hill
#
# Bulk Modulus (GPa) = 77.30317 80.71507 79.00912
# Shear Modulus (GPa) = -16.39801 32.91620 8.25909
#
# Velocity S-wave (km/s) = -2.61177 3.70037 1.85356
# Velocity P-wave (km/s) = 4.80229 7.19954 6.11945
#
# Compressibility (1/GPa) = 0.01293608
#
# Stress axis : x y z
#
# Youngs Moduli (GPa) = -319.65000 -319.65000 105.57568
#
# Poissons Ratio (x) = 3.93381 0.39306
# Poissons Ratio (y) = 3.93381 0.39306
# Poissons Ratio (z) = -1.19007 -1.19007
#
# Static dielectric constant tensor:
#      x y z
#    x 4.346770 0.000000 0.000000 
#    y 0.000000 4.346770 0.000000 
#    z 0.000000 0.000000 4.583680 
# 
# 
# High freq. dielectric constant tensor:
#      x y z
#    x 1.965240 0.000000 0.000000 
#    y 0.000000 1.965240 0.000000 
#    z 0.000000 0.000000 1.967130 
# 
# From -- ./inp_files/145.got.cif
#   From: 2010.03.12/outbox.cif.g09.slc.cpg/sg75_cif.got.tgz:145.got - 2010.04.16 16:33:55.
