data_PCOD8301001
_publ_section_title
;
Structure prediction by ZEFSAII (Michael W. Deem and Ramdas Pophale) SiO2 
 PCOD8301001
Probable space group: I M M A
;
_chemical_formula_sum "Si O2"
_cell_formula_units_Z 96
_cell_length_a 8.757808
_cell_length_b 19.784705
_cell_length_c 28.627991
_cell_angle_alpha 90.000000
_cell_angle_beta 90.000000
_cell_angle_gamma 90.000000
_cell_volume 4960.390544
_symmetry_space_group_name_H-M "I M M A"
_symmetry_group_IT_number 74
_symmetry_cell_setting 'orthorhombic'
loop_
_space_group_symop_operation_xyz
x,y,z
-x,1/2-y,z
x,-y,-z
-x,1/2+y,-z
-x,-y,-z
x,1/2+y,-z
-x,y,z
x,1/2-y,z
1/2+x,1/2+y,1/2+z
1/2-x,-y,1/2+z
1/2+x,1/2-y,1/2-z
1/2-x,y,1/2-z
1/2-x,1/2-y,1/2-z
1/2+x,y,1/2-z
1/2-x,1/2+y,1/2+z
1/2+x,-y,1/2+z
loop_
_atom_site_type_symbol
_atom_site_label
_atom_site_fract_x
_atom_site_fract_y
_atom_site_fract_z
Si Si1 0.670220 0.551981 0.938460
Si Si2 0.678001 0.671392 0.379676
Si Si3 0.324449 0.052277 0.344114
Si Si4 0.169295 0.397135 0.534976
Si Si5 0.326818 0.824702 0.799609
Si Si6 0.319448 0.578350 0.199525
O O1 0.500000 0.573206 0.920379
O O2 0.798436 0.552199 0.899172
O O3 0.661608 0.475284 0.953781
O O4 0.720216 0.603507 0.980260
O O5 0.500000 0.659247 0.371164
O O6 0.721751 0.750000 0.376845
O O7 0.717585 0.643706 0.431317
O O8 0.767806 0.632347 0.339192
O O9 0.500000 0.038299 0.332602
O O10 0.274739 0.126729 0.330435
O O11 0.227923 0.996528 0.316262
O O12 0.000000 0.365335 0.540764
O O13 0.500000 0.851668 0.795400
O O14 0.324251 0.750000 0.822390
O O15 0.250000 0.822016 0.750000
O O16 0.500000 0.581461 0.203734
O O17 0.250000 0.596661 0.250000
#
# Coordination Sequence:
#
# PCOD8301001 Si02
#       6
#    16  16  16  16  16  16
#     4   9  18  34  58  88 118 149 190 239 287 340
#     4  11  24  41  61  88 123 159 199 248 303 362
#     4  12  23  36  58  90 123 156 194 242 297 351
#     4   9  18  35  60  87 115 150 193 238 285 344
#     4  10  21  38  59  82 112 152 195 238 287 346
#     4  12  25  42  63  87 118 155 202 254 302 357
#
# _framework density 19.353314999999998
#
# number of rings (size 3 to 8) (size 9 to 14) (size 15 to 20)
#    0.000    1.500    1.667    5.500    0.000    3.333 
#    0.000    2.500    0.000    1.000    0.000    0.000 
#    0.000    0.000    0.000    0.000    0.000    0.000 
#
# Total GULP energy -595008.553795 kJ/mol
# GULP energy per Si atom -12396.011537 kJ/mol
# Density = 1.930927 g / cm^3
# Si number density = 19.353315 Si / 1000 Ang^3
#
#
#
# Elastic Constant Matrix: (Units=GPa)
#
#
# Indices 1 2 3 4 5 6 
#
# 1 123.1114 40.7540 38.2189 0.0000 0.0000 0.0000
# 2 40.7540 77.0816 20.3207 0.0000 0.0000 0.0000
# 3 38.2189 20.3207 64.8394 0.0000 0.0000 0.0000
# 4 0.0000 0.0000 0.0000 11.6183 0.0000 0.0000
# 5 0.0000 0.0000 0.0000 0.0000 33.9541 0.0000
# 6 0.0000 0.0000 0.0000 0.0000 0.0000 32.5062
#
#
#
# Elastic Compliance Matrix: (Units=1/GPa)
#
#
# Indices 1 2 3 4 5 6 
#
# 1 0.011252 -0.004579 -0.005197 0.000000 0.000000 0.000000
# 2 -0.004579 0.016005 -0.002317 0.000000 0.000000 0.000000
# 3 -0.005197 -0.002317 0.019212 0.000000 0.000000 0.000000
# 4 0.000000 0.000000 0.000000 0.086071 0.000000 0.000000
# 5 0.000000 0.000000 0.000000 0.000000 0.029452 0.000000
# 6 0.000000 0.000000 0.000000 0.000000 0.000000 0.030763
#
#
# Mechanical properties :
#
#
# Convention : Reuss Voigt Hill
#
# Bulk Modulus (GPa) = 44.87743 51.51328 48.19536
# Shear Modulus (GPa) = 22.28470 26.66497 24.47483
#
# Velocity S-wave (km/s) = 3.39701 3.71590 3.56003
# Velocity P-wave (km/s) = 6.21491 6.71458 6.46957
#
# Compressibility (1/GPa) = 0.02228291
#
# Stress axis : x y z
#
# Youngs Moduli (GPa) = 88.87339 62.48041 52.04986
#
# Poissons Ratio (x) = 0.28609 0.27052
# Poissons Ratio (y) = 0.40694 0.12060
# Poissons Ratio (z) = 0.46190 0.14477
#
# Static dielectric constant tensor:
#      x y z
#    x 3.539050 0.000000 0.000000 
#    y 0.000000 3.724470 0.000000 
#    z 0.000000 0.000000 2.729380 
# 
# 
# High freq. dielectric constant tensor:
#      x y z
#    x 1.759360 0.000000 0.000000 
#    y 0.000000 1.741340 0.000000 
#    z 0.000000 0.000000 1.759140 
# 
# From -- ./inp_files/64257.got.cif
#   From: 2010.03.12/outbox.cif.g09.slc.cpg/sg74_33_cif.got.tgz:64257.got - 2010.04.16 15:46:19.
