data_PCOD8301362
_publ_section_title
;
Structure prediction by ZEFSAII (Michael W. Deem and Ramdas Pophale) SiO2 
 PCOD8301362
Probable space group: I M M A
;
_chemical_formula_sum "Si O2"
_cell_formula_units_Z 112
_cell_length_a 31.537923
_cell_length_b 13.591914
_cell_length_c 12.552649
_cell_angle_alpha 90.000000
_cell_angle_beta 90.000000
_cell_angle_gamma 90.000000
_cell_volume 5380.827774
_symmetry_space_group_name_H-M "I M M A"
_symmetry_group_IT_number 74
_symmetry_cell_setting 'orthorhombic'
loop_
_space_group_symop_operation_xyz
x,y,z
-x,1/2-y,z
x,-y,-z
-x,1/2+y,-z
-x,-y,-z
x,1/2+y,-z
-x,y,z
x,1/2-y,z
1/2+x,1/2+y,1/2+z
1/2-x,-y,1/2+z
1/2+x,1/2-y,1/2-z
1/2-x,y,1/2-z
1/2-x,1/2-y,1/2-z
1/2+x,y,1/2-z
1/2-x,1/2+y,1/2+z
1/2+x,-y,1/2+z
loop_
_atom_site_type_symbol
_atom_site_label
_atom_site_fract_x
_atom_site_fract_y
_atom_site_fract_z
Si Si1 0.217208 0.366926 0.159820
Si Si2 0.878318 0.365135 0.217947
Si Si3 0.547030 0.978069 0.622636
Si Si4 0.763265 0.634475 0.075043
Si Si5 0.548637 0.861454 0.205336
Si Si6 0.615822 0.482812 0.883834
Si Si7 0.313304 0.365452 0.777409
O O1 0.221170 0.250000 0.157162
O O2 0.250000 0.408159 0.250000
O O3 0.168887 0.399141 0.182952
O O4 0.230691 0.411834 0.043717
O O5 0.880216 0.250000 0.229365
O O6 0.915393 0.399408 0.138274
O O7 0.889512 0.409605 0.333288
O O8 0.500000 0.938078 0.657469
O O9 0.546135 0.000000 0.500000
O O10 0.556907 0.079392 0.685059
O O11 0.772103 0.750000 0.066203
O O12 0.716604 0.614317 0.120595
O O13 0.795302 0.590829 0.165200
O O14 0.500000 0.859170 0.172231
O O15 0.565879 0.750000 0.218989
O O16 0.572160 0.920829 0.110061
O O17 0.643512 0.419356 0.802182
O O18 0.635287 0.500000 0.000000
O O19 0.320829 0.250000 0.763840
#
# Coordination Sequence:
#
# PCOD8301362 Si02
#       7
#    16  16  16  16  16  16  16
#     4   9  18  33  55  81 113 159 204 245 295 356
#     4  10  23  40  56  82 122 163 204 245 301 369
#     4   9  19  37  63  95 129 158 194 247 302 362
#     4   8  16  33  56  82 112 148 192 243 300 357
#     4   9  19  38  62  87 116 151 192 238 296 366
#     4  11  24  38  56  85 114 147 199 254 310 362
#     4   9  18  35  58  83 112 146 190 249 308 362
#
# _framework density 20.814641000000002
#
# number of rings (size 3 to 8) (size 9 to 14) (size 15 to 20)
#    0.000    2.714    0.000    1.286    2.000    4.571 
#    2.571    2.857    0.000    0.000    0.000    0.000 
#    0.000    0.000    0.000    0.000    0.000    0.000 
#
# Total GULP energy -694080.041377 kJ/mol
# GULP energy per Si atom -12394.286453 kJ/mol
# Density = 2.076727 g / cm^3
# Si number density = 20.814641 Si / 1000 Ang^3
#
#
#
# Elastic Constant Matrix: (Units=GPa)
#
#
# Indices 1 2 3 4 5 6 
#
# 1 122.1619 44.0270 50.5176 0.0000 0.0000 0.0000
# 2 44.0270 70.9105 30.7209 0.0000 0.0000 0.0000
# 3 50.5176 30.7209 133.9485 0.0000 0.0000 0.0000
# 4 0.0000 0.0000 0.0000 16.5741 0.0000 0.0000
# 5 0.0000 0.0000 0.0000 0.0000 23.5280 0.0000
# 6 0.0000 0.0000 0.0000 0.0000 0.0000 33.2640
#
#
#
# Elastic Compliance Matrix: (Units=1/GPa)
#
#
# Indices 1 2 3 4 5 6 
#
# 1 0.011543 -0.005864 -0.003009 0.000000 0.000000 0.000000
# 2 -0.005864 0.018637 -0.002063 0.000000 0.000000 0.000000
# 3 -0.003009 -0.002063 0.009073 0.000000 0.000000 0.000000
# 4 0.000000 0.000000 0.000000 0.060335 0.000000 0.000000
# 5 0.000000 0.000000 0.000000 0.000000 0.042502 0.000000
# 6 0.000000 0.000000 0.000000 0.000000 0.000000 0.030063
#
#
# Mechanical properties :
#
#
# Convention : Reuss Voigt Hill
#
# Bulk Modulus (GPa) = 57.52736 64.17242 60.84989
# Shear Modulus (GPa) = 25.02280 28.12359 26.57319
#
# Velocity S-wave (km/s) = 3.47100 3.67978 3.57691
# Velocity P-wave (km/s) = 6.61526 6.99655 6.80858
#
# Compressibility (1/GPa) = 0.01738303
#
# Stress axis : x y z
#
# Youngs Moduli (GPa) = 86.63087 53.65804 110.21275
#
# Poissons Ratio (x) = 0.31462 0.33159
# Poissons Ratio (y) = 0.50796 0.22736
# Poissons Ratio (z) = 0.26064 0.11069
#
# Static dielectric constant tensor:
#      x y z
#    x 4.017260 0.000000 0.000000 
#    y 0.000000 3.725560 0.000000 
#    z 0.000000 0.000000 3.796430 
# 
# 
# High freq. dielectric constant tensor:
#      x y z
#    x 1.817120 0.000000 0.000000 
#    y 0.000000 1.820180 0.000000 
#    z 0.000000 0.000000 1.806090 
# 
# From -- ./inp_files/27225.got.cif
#   From: 2010.03.12/outbox.cif.g09.slc.cpg/sg74_14_cif.got.tgz:27225.got - 2010.04.16 15:46:19.
