data_PCOD8301698
_publ_section_title
;
Structure prediction by ZEFSAII (Michael W. Deem and Ramdas Pophale) SiO2 
 PCOD8301698
Probable space group: I M M A
;
_chemical_formula_sum "Si O2"
_cell_formula_units_Z 88
_cell_length_a 31.449173
_cell_length_b 10.164045
_cell_length_c 14.009854
_cell_angle_alpha 90.000000
_cell_angle_beta 90.000000
_cell_angle_gamma 90.000000
_cell_volume 4478.261173
_symmetry_space_group_name_H-M "I M M A"
_symmetry_group_IT_number 74
_symmetry_cell_setting 'orthorhombic'
loop_
_space_group_symop_operation_xyz
x,y,z
-x,1/2-y,z
x,-y,-z
-x,1/2+y,-z
-x,-y,-z
x,1/2+y,-z
-x,y,z
x,1/2-y,z
1/2+x,1/2+y,1/2+z
1/2-x,-y,1/2+z
1/2+x,1/2-y,1/2-z
1/2-x,y,1/2-z
1/2-x,1/2-y,1/2-z
1/2+x,y,1/2-z
1/2-x,1/2+y,1/2+z
1/2+x,-y,1/2+z
loop_
_atom_site_type_symbol
_atom_site_label
_atom_site_fract_x
_atom_site_fract_y
_atom_site_fract_z
Si Si1 0.366044 0.600010 0.656724
Si Si2 0.076483 0.898138 0.578458
Si Si3 0.760206 0.601086 0.359827
Si Si4 0.545878 0.904474 0.712078
Si Si5 0.808296 0.500000 0.000000
Si Si6 0.669698 0.900356 0.851760
O O1 0.373733 0.750000 0.687259
O O2 0.413986 0.537201 0.650765
O O3 0.339942 0.593137 0.559402
O O4 0.339355 0.541466 0.745352
O O5 0.063817 0.750000 0.547896
O O6 0.054415 0.936204 0.677370
O O7 0.127428 0.908527 0.585674
O O8 0.059487 0.000000 0.500000
O O9 0.777510 0.750000 0.370777
O O10 0.750000 0.569726 0.250000
O O11 0.718870 0.587093 0.426903
O O12 0.794772 0.495950 0.397116
O O13 0.500000 0.968376 0.682651
O O14 0.542395 0.750000 0.695333
O O15 0.687429 0.750000 0.849902
#
# Coordination Sequence:
#
# PCOD8301698 Si02
#       6
#    16  16  16  16   8  16
#     4   9  18  34  55  77 101 136 181 222 270 330
#     4   9  18  31  50  79 111 143 180 221 271 324
#     4  11  24  39  54  80 113 144 185 237 288 332
#     4   8  15  31  55  79 104 136 177 226 274 325
#     4  12  22  36  55  78 108 148 185 234 276 340
#     4   9  19  37  55  72 102 145 186 223 265 323
#
# _framework density 19.650485
#
# number of rings (size 3 to 8) (size 9 to 14) (size 15 to 20)
#    0.000    2.545    1.818    2.727    1.273    2.909 
#    0.000    0.455    0.000    0.000    0.000    0.000 
#    0.000    0.000    0.000    0.000    0.000    0.000 
#
# Total GULP energy -545223.466250 kJ/mol
# GULP energy per Si atom -12391.442415 kJ/mol
# Density = 1.960576 g / cm^3
# Si number density = 19.650485 Si / 1000 Ang^3
#
#
#
# Elastic Constant Matrix: (Units=GPa)
#
#
# Indices 1 2 3 4 5 6 
#
# 1 136.3091 33.5927 33.6278 0.0000 0.0000 0.0000
# 2 33.5927 63.1341 12.1142 0.0000 0.0000 0.0000
# 3 33.6278 12.1142 70.6648 0.0000 0.0000 0.0000
# 4 0.0000 0.0000 0.0000 18.8480 0.0000 0.0000
# 5 0.0000 0.0000 0.0000 0.0000 22.1685 0.0000
# 6 0.0000 0.0000 0.0000 0.0000 0.0000 13.6139
#
#
#
# Elastic Compliance Matrix: (Units=1/GPa)
#
#
# Indices 1 2 3 4 5 6 
#
# 1 0.009292 -0.004235 -0.003696 0.000000 0.000000 0.000000
# 2 -0.004235 0.018308 -0.001123 0.000000 0.000000 0.000000
# 3 -0.003696 -0.001123 0.016103 0.000000 0.000000 0.000000
# 4 0.000000 0.000000 0.000000 0.053056 0.000000 0.000000
# 5 0.000000 0.000000 0.000000 0.000000 0.045109 0.000000
# 6 0.000000 0.000000 0.000000 0.000000 0.000000 0.073454
#
#
# Mechanical properties :
#
#
# Convention : Reuss Voigt Hill
#
# Bulk Modulus (GPa) = 39.07069 47.64195 43.35632
# Shear Modulus (GPa) = 20.66449 23.64430 22.15440
#
# Velocity S-wave (km/s) = 3.24636 3.47254 3.36135
# Velocity P-wave (km/s) = 5.82905 6.35416 6.09726
#
# Compressibility (1/GPa) = 0.02559463
#
# Stress axis : x y z
#
# Youngs Moduli (GPa) = 107.62346 54.62057 62.10175
#
# Poissons Ratio (x) = 0.23131 0.22951
# Poissons Ratio (y) = 0.45576 0.06976
# Poissons Ratio (z) = 0.39775 0.06136
#
# Static dielectric constant tensor:
#      x y z
#    x 3.844280 0.000000 0.000000 
#    y 0.000000 3.191990 0.000000 
#    z 0.000000 0.000000 3.367410 
# 
# 
# High freq. dielectric constant tensor:
#      x y z
#    x 1.774800 0.000000 0.000000 
#    y 0.000000 1.725010 0.000000 
#    z 0.000000 0.000000 1.752830 
# 
# From -- ./inp_files/37715.got.cif
#   From: 2010.03.12/outbox.cif.g09.slc.cpg/sg74_19_cif.got.tgz:37715.got - 2010.04.16 15:46:19.
