data_PCOD8301152
_publ_section_title
;
Structure prediction by ZEFSAII (Michael W. Deem and Ramdas Pophale) SiO2 
 PCOD8301152
Probable space group: I M M A
;
_chemical_formula_sum "Si O2"
_cell_formula_units_Z 120
_cell_length_a 8.903641
_cell_length_b 26.521181
_cell_length_c 27.680817
_cell_angle_alpha 90.000000
_cell_angle_beta 90.000000
_cell_angle_gamma 90.000000
_cell_volume 6536.411785
_symmetry_space_group_name_H-M "I M M A"
_symmetry_group_IT_number 74
_symmetry_cell_setting 'orthorhombic'
loop_
_space_group_symop_operation_xyz
x,y,z
-x,1/2-y,z
x,-y,-z
-x,1/2+y,-z
-x,-y,-z
x,1/2+y,-z
-x,y,z
x,1/2-y,z
1/2+x,1/2+y,1/2+z
1/2-x,-y,1/2+z
1/2+x,1/2-y,1/2-z
1/2-x,y,1/2-z
1/2-x,1/2-y,1/2-z
1/2+x,y,1/2-z
1/2-x,1/2+y,1/2+z
1/2+x,-y,1/2+z
loop_
_atom_site_type_symbol
_atom_site_label
_atom_site_fract_x
_atom_site_fract_y
_atom_site_fract_z
Si Si1 0.174674 0.461975 0.299782
Si Si2 0.828618 0.603978 0.610024
Si Si3 0.323367 0.153218 0.863264
Si Si4 0.829269 0.309274 0.955167
Si Si5 0.678192 0.950486 0.359304
Si Si6 0.322716 0.694258 0.563324
Si Si7 0.822892 0.750000 0.302139
Si Si8 0.323047 0.505020 0.944601
O O1 0.250000 0.445564 0.250000
O O2 0.196480 0.414744 0.335470
O O3 0.255862 0.511138 0.320299
O O4 0.000000 0.474852 0.292848
O O5 0.734286 0.654461 0.602421
O O6 0.774924 0.560424 0.573248
O O7 0.000000 0.617650 0.599774
O O8 0.500000 0.143759 0.859228
O O9 0.281788 0.162331 0.919065
O O10 0.234937 0.104648 0.843849
O O11 0.269875 0.200601 0.831266
O O12 0.819699 0.250000 0.946133
O O13 0.000000 0.328146 0.946705
O O14 0.773482 0.322109 0.009322
O O15 0.500000 0.952802 0.357978
O O16 0.736230 0.963311 0.413226
O O17 0.500000 0.696544 0.565362
O O18 0.258002 0.750000 0.575528
O O19 0.750000 0.750000 0.250000
O O20 0.000000 0.750000 0.296041
O O21 0.500000 0.496271 0.936611
O O22 0.274479 0.500000 0.000000
#
# Coordination Sequence:
#
# PCOD8301152 Si02
#       8
#    16  16  16  16  16  16   8  16
#     4  10  21  40  63  86 111 142 182 230 282 336
#     4   9  19  34  54  83 114 146 184 224 275 331
#     4  11  22  38  56  78 108 142 185 235 284 340
#     4   9  18  33  52  76 107 145 186 228 274 325
#     4  11  23  37  55  83 112 145 187 230 281 334
#     4   9  19  34  52  79 116 153 188 226 269 319
#     4  10  24  42  60  80 102 136 184 234 289 344
#     4   9  19  36  54  77 113 152 186 229 283 334
#
# _framework density 18.358695999999998
#
# number of rings (size 3 to 8) (size 9 to 14) (size 15 to 20)
#    0.000    2.267    0.667    3.600    1.867    5.333 
#    0.000    2.667    0.000    0.400    0.000    0.000 
#    0.000    0.000    0.000    0.000    0.000    0.000 
#
# Total GULP energy -744121.017286 kJ/mol
# GULP energy per Si atom -12402.016955 kJ/mol
# Density = 1.831691 g / cm^3
# Si number density = 18.358696 Si / 1000 Ang^3
#
#
#
# Elastic Constant Matrix: (Units=GPa)
#
#
# Indices 1 2 3 4 5 6 
#
# 1 81.0657 45.7142 43.9173 0.0000 0.0000 0.0000
# 2 45.7142 112.9024 53.7683 0.0000 0.0000 0.0000
# 3 43.9173 53.7683 109.9417 0.0000 0.0000 0.0000
# 4 0.0000 0.0000 0.0000 17.8983 0.0000 0.0000
# 5 0.0000 0.0000 0.0000 0.0000 33.9148 0.0000
# 6 0.0000 0.0000 0.0000 0.0000 0.0000 31.2867
#
#
#
# Elastic Compliance Matrix: (Units=1/GPa)
#
#
# Indices 1 2 3 4 5 6 
#
# 1 0.017624 -0.004932 -0.004628 0.000000 0.000000 0.000000
# 2 -0.004932 0.012927 -0.004352 0.000000 0.000000 0.000000
# 3 -0.004628 -0.004352 0.013073 0.000000 0.000000 0.000000
# 4 0.000000 0.000000 0.000000 0.055871 0.000000 0.000000
# 5 0.000000 0.000000 0.000000 0.000000 0.029486 0.000000
# 6 0.000000 0.000000 0.000000 0.000000 0.000000 0.031962
#
#
# Mechanical properties :
#
#
# Convention : Reuss Voigt Hill
#
# Bulk Modulus (GPa) = 63.29181 65.63437 64.46309
# Shear Modulus (GPa) = 25.76877 27.32062 26.54470
#
# Velocity S-wave (km/s) = 3.75057 3.86185 3.80661
# Velocity P-wave (km/s) = 7.30107 7.46417 7.38307
#
# Compressibility (1/GPa) = 0.01579983
#
# Stress axis : x y z
#
# Youngs Moduli (GPa) = 56.74036 77.35959 76.49481
#
# Poissons Ratio (x) = 0.38153 0.35403
# Poissons Ratio (y) = 0.27984 0.33289
# Poissons Ratio (z) = 0.26260 0.33665
#
# Static dielectric constant tensor:
#      x y z
#    x 3.292410 0.000000 0.000000 
#    y 0.000000 3.418690 0.000000 
#    z 0.000000 0.000000 3.379430 
# 
# 
# High freq. dielectric constant tensor:
#      x y z
#    x 1.710570 0.000000 0.000000 
#    y 0.000000 1.709520 0.000000 
#    z 0.000000 0.000000 1.702960 
# 
# From -- ./inp_files/65048.got.cif
#   From: 2010.03.12/outbox.cif.g09.slc.cpg/sg74_33_cif.got.tgz:65048.got - 2010.04.16 15:46:19.
