data_PCOD8301171
_publ_section_title
;
Structure prediction by ZEFSAII (Michael W. Deem and Ramdas Pophale) SiO2 
 PCOD8301171
Probable space group: I M M A
;
_chemical_formula_sum "Si O2"
_cell_formula_units_Z 56
_cell_length_a 10.127509
_cell_length_b 10.367744
_cell_length_c 26.956794
_cell_angle_alpha 90.000000
_cell_angle_beta 90.000000
_cell_angle_gamma 90.000000
_cell_volume 2830.447753
_symmetry_space_group_name_H-M "I M M A"
_symmetry_group_IT_number 74
_symmetry_cell_setting 'orthorhombic'
loop_
_space_group_symop_operation_xyz
x,y,z
-x,1/2-y,z
x,-y,-z
-x,1/2+y,-z
-x,-y,-z
x,1/2+y,-z
-x,y,z
x,1/2-y,z
1/2+x,1/2+y,1/2+z
1/2-x,-y,1/2+z
1/2+x,1/2-y,1/2-z
1/2-x,y,1/2-z
1/2-x,1/2-y,1/2-z
1/2+x,y,1/2-z
1/2-x,1/2+y,1/2+z
1/2+x,-y,1/2+z
loop_
_atom_site_type_symbol
_atom_site_label
_atom_site_fract_x
_atom_site_fract_y
_atom_site_fract_z
Si Si1 0.000000 0.594924 0.805651
Si Si2 0.000000 0.390182 0.304632
Si Si3 0.153567 0.099829 0.544012
Si Si4 0.648295 0.250000 0.793253
Si Si5 0.234612 0.492239 0.646563
O O1 0.000000 0.535595 0.749117
O O2 0.124220 0.535209 0.834030
O O3 0.000000 0.750000 0.810814
O O4 0.128382 0.399141 0.339526
O O5 0.000000 0.250000 0.281582
O O6 0.191381 0.250000 0.531124
O O7 0.242107 0.043581 0.588647
O O8 0.000000 0.093799 0.559045
O O9 0.184185 0.000000 0.500000
O O10 0.500000 0.250000 0.772316
O O11 0.750000 0.250000 0.750000
O O12 0.670927 0.128434 0.826871
#
# Coordination Sequence:
#
# PCOD8301171 Si02
#       5
#     8   8  16   8  16
#     4  11  26  43  60  93 134 176 218 267 317 394
#     4  11  22  39  64  91 128 174 220 263 321 386
#     4  10  21  41  66  96 128 163 214 277 331 391
#     4  12  24  38  64  98 136 170 214 264 321 393
#     4  12  23  41  64  92 132 169 215 268 324 385
#
# _framework density 19.784856000000001
#
# number of rings (size 3 to 8) (size 9 to 14) (size 15 to 20)
#    0.000    0.857    4.286    3.429    2.000    4.571 
#    0.000    0.714    0.000    0.000    0.000    0.000 
#    0.000    0.000    0.000    0.000    0.000    0.000 
#
# Total GULP energy -346966.914610 kJ/mol
# GULP energy per Si atom -12391.675522 kJ/mol
# Density = 1.973982 g / cm^3
# Si number density = 19.784856 Si / 1000 Ang^3
#
#
#
# Elastic Constant Matrix: (Units=GPa)
#
#
# Indices 1 2 3 4 5 6 
#
# 1 144.3671 39.9922 48.5774 0.0000 0.0000 0.0000
# 2 39.9922 99.4855 50.0247 0.0000 0.0000 0.0000
# 3 48.5774 50.0247 136.8093 0.0000 0.0000 0.0000
# 4 0.0000 0.0000 0.0000 39.7073 0.0000 0.0000
# 5 0.0000 0.0000 0.0000 0.0000 10.7119 0.0000
# 6 0.0000 0.0000 0.0000 0.0000 0.0000 -10.9708
#
#
#
# Elastic Compliance Matrix: (Units=1/GPa)
#
#
# Indices 1 2 3 4 5 6 
#
# 1 0.008262 -0.002262 -0.002107 0.000000 0.000000 0.000000
# 2 -0.002262 0.012936 -0.003927 0.000000 0.000000 0.000000
# 3 -0.002107 -0.003927 0.009493 0.000000 0.000000 0.000000
# 4 0.000000 0.000000 0.000000 0.025184 0.000000 0.000000
# 5 0.000000 0.000000 0.000000 0.000000 0.093354 0.000000
# 6 0.000000 0.000000 0.000000 0.000000 0.000000 -0.091151
#
#
# Mechanical properties :
#
#
# Convention : Reuss Voigt Hill
#
# Bulk Modulus (GPa) = 70.92046 73.09449 72.00747
# Shear Modulus (GPa) = 62.99690 24.02752 43.51221
#
# Velocity S-wave (km/s) = 5.64890 3.48866 4.69472
# Velocity P-wave (km/s) = 8.85835 7.29743 8.11551
#
# Compressibility (1/GPa) = 0.01410030
#
# Stress axis : x y z
#
# Youngs Moduli (GPa) = 121.03240 77.30640 105.33805
#
# Poissons Ratio (x) = 0.17487 0.22190
# Poissons Ratio (y) = 0.27379 0.41363
# Poissons Ratio (z) = 0.25496 0.30356
#
# Static dielectric constant tensor:
#      x y z
#    x 3.416060 0.000000 0.000000 
#    y 0.000000 3.941940 0.000000 
#    z 0.000000 0.000000 3.767100 
# 
# 
# High freq. dielectric constant tensor:
#      x y z
#    x 1.755780 0.000000 0.000000 
#    y 0.000000 1.792990 0.000000 
#    z 0.000000 0.000000 1.770290 
# 
# From -- ./inp_files/63295.got.cif
#   From: 2010.03.12/outbox.cif.g09.slc.cpg/sg74_32_cif.got.tgz:63295.got - 2010.04.16 15:46:19.
