data_PCOD8301691
_publ_section_title
;
Structure prediction by ZEFSAII (Michael W. Deem and Ramdas Pophale) SiO2 
 PCOD8301691
Probable space group: I M M A
;
_chemical_formula_sum "Si O2"
_cell_formula_units_Z 64
_cell_length_a 10.218330
_cell_length_b 16.191627
_cell_length_c 18.697331
_cell_angle_alpha 90.000000
_cell_angle_beta 90.000000
_cell_angle_gamma 90.000000
_cell_volume 3093.499364
_symmetry_space_group_name_H-M "I M M A"
_symmetry_group_IT_number 74
_symmetry_cell_setting 'orthorhombic'
loop_
_space_group_symop_operation_xyz
x,y,z
-x,1/2-y,z
x,-y,-z
-x,1/2+y,-z
-x,-y,-z
x,1/2+y,-z
-x,y,z
x,1/2-y,z
1/2+x,1/2+y,1/2+z
1/2-x,-y,1/2+z
1/2+x,1/2-y,1/2-z
1/2-x,y,1/2-z
1/2-x,1/2-y,1/2-z
1/2+x,y,1/2-z
1/2-x,1/2+y,1/2+z
1/2+x,-y,1/2+z
loop_
_atom_site_type_symbol
_atom_site_label
_atom_site_fract_x
_atom_site_fract_y
_atom_site_fract_z
Si Si1 0.000000 0.653396 0.385299
Si Si2 0.250000 0.460430 0.250000
Si Si3 0.650490 0.155977 0.130458
Si Si4 0.500000 0.152576 0.583252
Si Si5 0.500000 0.573854 0.264905
Si Si6 0.768862 0.405241 0.519007
O O1 0.870072 0.613952 0.418077
O O2 0.000000 0.750000 0.400228
O O3 0.000000 0.635681 0.301508
O O4 0.265405 0.403316 0.180568
O O5 0.374041 0.516367 0.265111
O O6 0.500000 0.127798 0.134334
O O7 0.667279 0.250000 0.156575
O O8 0.700579 0.150494 0.049576
O O9 0.500000 0.250000 0.572478
O O10 0.500000 0.132326 0.666650
O O11 0.375710 0.112967 0.545383
O O12 0.784798 0.500000 0.500000
#
# Coordination Sequence:
#
# PCOD8301691 Si02
#       6
#     8   8  16   8   8  16
#     4  12  24  43  71 102 132 178 230 270 327 399
#     4  12  25  44  67  98 130 174 222 268 335 396
#     4  11  23  43  68  97 132 171 218 274 331 396
#     4  12  26  45  65  98 140 176 218 278 339 391
#     4  12  25  44  67  96 136 176 222 274 327 394
#     4  12  25  43  71 101 134 176 226 275 332 394
#
# _framework density 20.688544
#
# number of rings (size 3 to 8) (size 9 to 14) (size 15 to 20)
#    0.000    0.250    2.500    8.250    0.000    1.000 
#    0.000    5.000    0.000    0.000    0.000    0.000 
#    0.000    0.000    0.000    0.000    0.000    0.000 
#
# Total GULP energy -397091.798230 kJ/mol
# GULP energy per Si atom -12409.118695 kJ/mol
# Density = 2.064146 g / cm^3
# Si number density = 20.688544 Si / 1000 Ang^3
#
#
#
# Elastic Constant Matrix: (Units=GPa)
#
#
# Indices 1 2 3 4 5 6 
#
# 1 154.6979 53.7279 30.0387 0.0000 0.0000 0.0000
# 2 53.7279 125.8143 32.7578 0.0000 0.0000 0.0000
# 3 30.0387 32.7578 96.7824 0.0000 0.0000 0.0000
# 4 0.0000 0.0000 0.0000 19.5761 0.0000 0.0000
# 5 0.0000 0.0000 0.0000 0.0000 38.4443 0.0000
# 6 0.0000 0.0000 0.0000 0.0000 0.0000 -101.5657
#
#
#
# Elastic Compliance Matrix: (Units=1/GPa)
#
#
# Indices 1 2 3 4 5 6 
#
# 1 0.007762 -0.002947 -0.001412 0.000000 0.000000 0.000000
# 2 -0.002947 0.009835 -0.002414 0.000000 0.000000 0.000000
# 3 -0.001412 -0.002414 0.011588 0.000000 0.000000 0.000000
# 4 0.000000 0.000000 0.000000 0.051083 0.000000 0.000000
# 5 0.000000 0.000000 0.000000 0.000000 0.026012 0.000000
# 6 0.000000 0.000000 0.000000 0.000000 0.000000 -0.009846
#
#
# Mechanical properties :
#
#
# Convention : Reuss Voigt Hill
#
# Bulk Modulus (GPa) = 63.94245 67.81593 65.87919
# Shear Modulus (GPa) = 43.40572 8.67564 26.04068
#
# Velocity S-wave (km/s) = 4.58542 2.05001 3.55167
# Velocity P-wave (km/s) = 7.68174 6.20113 6.98080
#
# Compressibility (1/GPa) = 0.01563906
#
# Stress axis : x y z
#
# Youngs Moduli (GPa) = 128.83508 101.67405 86.29828
#
# Poissons Ratio (x) = 0.29964 0.12182
# Poissons Ratio (y) = 0.37969 0.20835
# Poissons Ratio (z) = 0.18186 0.24547
#
# Static dielectric constant tensor:
#      x y z
#    x 3.900540 0.000000 0.000000 
#    y 0.000000 3.854880 0.000000 
#    z 0.000000 0.000000 3.921000 
# 
# 
# High freq. dielectric constant tensor:
#      x y z
#    x 1.822510 0.000000 0.000000 
#    y 0.000000 1.828980 0.000000 
#    z 0.000000 0.000000 1.824440 
# 
# From -- ./inp_files/40747.got.cif
#   From: 2010.03.12/outbox.cif.g09.slc.cpg/sg74_21_cif.got.tgz:40747.got - 2010.04.16 15:46:19.
