data_PCOD8301864
_publ_section_title
;
Structure prediction by ZEFSAII (Michael W. Deem and Ramdas Pophale) SiO2 
 PCOD8301864
Probable space group: P 41
;
_chemical_formula_sum "Si O2"
_cell_formula_units_Z 32
_cell_length_a 12.341769
_cell_length_b 12.341769
_cell_length_c 10.956499
_cell_angle_alpha 90.000000
_cell_angle_beta 90.000000
_cell_angle_gamma 90.000000
_cell_volume 1668.885842
_symmetry_space_group_name_H-M "P 41"
_symmetry_group_IT_number 76
_symmetry_cell_setting 'tetragonal'
loop_
_space_group_symop_operation_xyz
x,y,z
-y,x,1/4+z
-x,-y,1/2+z
y,-x,3/4+z
loop_
_atom_site_type_symbol
_atom_site_label
_atom_site_fract_x
_atom_site_fract_y
_atom_site_fract_z
Si Si1 0.764698 0.882952 0.002840
Si Si2 0.587319 0.938695 0.176338
Si Si3 0.783630 0.557272 0.777212
Si Si4 0.073196 0.961693 0.896626
Si Si5 0.224899 0.981505 0.286302
Si Si6 0.002721 0.325075 0.177393
Si Si7 0.403800 0.091045 0.158328
Si Si8 0.616925 0.735945 0.844774
O O1 0.707520 0.937259 0.118707
O O2 0.853572 0.794734 0.039448
O O3 0.675766 0.828821 0.919130
O O4 0.816993 0.976304 0.917959
O O5 0.521094 0.831295 0.133554
O O6 0.604075 0.949207 0.320389
O O7 0.524941 0.047169 0.132446
O O8 0.690365 0.629761 0.838362
O O9 0.718918 0.494187 0.669516
O O10 0.880564 0.628191 0.719486
O O11 0.028671 0.985087 0.759007
O O12 0.200873 0.981914 0.891195
O O13 0.045035 0.837492 0.927914
O O14 0.350735 0.005805 0.256615
O O15 0.913487 0.335655 0.283732
O O16 0.406203 0.213720 0.210070
#
# Coordination Sequence:
#
# PCOD8301864 Si02
#       8
#     4   4   4   4   4   4   4   4
#     4  10  21  34  55  85 119 158 201 237 298 358
#     4  10  22  37  57  90 119 153 202 258 301 355
#     4  10  21  39  67  89 113 156 204 254 310 371
#     4  12  25  38  55  89 132 178 211 242 300 374
#     4  11  19  35  55  80 115 161 203 238 288 365
#     4  11  21  37  60  87 126 160 201 252 300 363
#     4  10  19  37  60  87 112 153 209 248 301 363
#     4  10  20  39  65  87 112 151 209 251 304 363
#
# _framework density 19.174468999999998
#
# number of rings (size 3 to 8) (size 9 to 14) (size 15 to 20)
#    0.000    1.500    3.750    3.000    3.500    0.000 
#    0.000    0.000    2.750    0.000    0.000    0.000 
#    0.000    0.000    0.000    0.000    0.000    0.000 
#
# Total GULP energy -396560.777101 kJ/mol
# GULP energy per Si atom -12392.524284 kJ/mol
# Density = 1.913083 g / cm^3
# Si number density = 19.174469 Si / 1000 Ang^3
#
#
#
# Elastic Constant Matrix: (Units=GPa)
#
#
# Indices 1 2 3 4 5 6 
#
# 1 63.4896 9.3074 35.8748 0.0000 0.0000 -2.7387
# 2 9.3074 63.4896 35.8748 0.0000 0.0000 2.7387
# 3 35.8748 35.8748 87.1220 0.0000 0.0000 0.0000
# 4 0.0000 0.0000 0.0000 27.8882 0.0000 0.0000
# 5 0.0000 0.0000 0.0000 0.0000 27.8882 0.0000
# 6 -2.7387 2.7387 0.0000 0.0000 0.0000 24.7774
#
#
#
# Elastic Compliance Matrix: (Units=1/GPa)
#
#
# Indices 1 2 3 4 5 6 
#
# 1 0.020893 0.002228 -0.009520 0.000000 0.000000 0.002063
# 2 0.002228 0.020893 -0.009520 0.000000 0.000000 -0.002063
# 3 -0.009520 -0.009520 0.019319 0.000000 0.000000 0.000000
# 4 0.000000 0.000000 0.000000 0.035857 0.000000 0.000000
# 5 0.000000 0.000000 0.000000 0.000000 0.035857 0.000000
# 6 0.002063 -0.002063 0.000000 0.000000 0.000000 0.040816
#
#
# Mechanical properties :
#
#
# Convention : Reuss Voigt Hill
#
# Bulk Modulus (GPa) = 36.39318 41.80166 39.09742
# Shear Modulus (GPa) = 23.10330 24.98038 24.04184
#
# Velocity S-wave (km/s) = 3.47493 3.61334 3.54481
# Velocity P-wave (km/s) = 5.92633 6.26549 6.09827
#
# Compressibility (1/GPa) = 0.02747768
#
# Stress axis : x y z
#
# Youngs Moduli (GPa) = 47.86406 47.86406 51.76338
#
# Poissons Ratio (x) = -0.10663 0.49281
# Poissons Ratio (y) = -0.10663 0.49281
# Poissons Ratio (z) = 0.45568 0.45568
#
# Static dielectric constant tensor:
#      x y z
#    x 3.424850 0.000000 0.000000 
#    y 0.000000 3.424850 0.000000 
#    z 0.000000 0.000000 3.783600 
# 
# 
# High freq. dielectric constant tensor:
#      x y z
#    x 1.731780 0.000000 0.000000 
#    y 0.000000 1.731780 0.000000 
#    z 0.000000 0.000000 1.749750 
# 
# From -- ./inp_files/971.got.cif
#   From: 2010.03.12/outbox.cif.g09.slc.cpg/sg76_cif.got.tgz:971.got - 2010.04.16 16:34:25.
