data_PCOD8301560
_publ_section_title
;
Structure prediction by ZEFSAII (Michael W. Deem and Ramdas Pophale) SiO2 
 PCOD8301560
Probable space group: I M M A
;
_chemical_formula_sum "Si O2"
_cell_formula_units_Z 64
_cell_length_a 7.421169
_cell_length_b 22.857697
_cell_length_c 23.253889
_cell_angle_alpha 90.000000
_cell_angle_beta 90.000000
_cell_angle_gamma 90.000000
_cell_volume 3944.576547
_symmetry_space_group_name_H-M "I M M A"
_symmetry_group_IT_number 74
_symmetry_cell_setting 'orthorhombic'
loop_
_space_group_symop_operation_xyz
x,y,z
-x,1/2-y,z
x,-y,-z
-x,1/2+y,-z
-x,-y,-z
x,1/2+y,-z
-x,y,z
x,1/2-y,z
1/2+x,1/2+y,1/2+z
1/2-x,-y,1/2+z
1/2+x,1/2-y,1/2-z
1/2-x,y,1/2-z
1/2-x,1/2-y,1/2-z
1/2+x,y,1/2-z
1/2-x,1/2+y,1/2+z
1/2+x,-y,1/2+z
loop_
_atom_site_type_symbol
_atom_site_label
_atom_site_fract_x
_atom_site_fract_y
_atom_site_fract_z
Si Si1 0.212701 0.906682 0.021953
Si Si2 0.710682 0.017769 0.415184
Si Si3 0.209447 0.098499 0.184692
Si Si4 0.000000 0.817043 0.637188
Si Si5 0.500000 0.817015 0.999465
O O1 0.321656 0.846359 0.026898
O O2 0.000000 0.892327 0.022545
O O3 0.273000 0.950828 0.073772
O O4 0.282124 0.937502 0.963376
O O5 0.500000 0.017403 0.423908
O O6 0.768752 0.041515 0.352606
O O7 0.250000 0.081934 0.250000
O O8 0.321532 0.154457 0.164416
O O9 0.000000 0.113572 0.175153
O O10 0.000000 0.750000 0.656763
O O11 0.000000 0.823070 0.569060
O O12 0.500000 0.750000 0.018960
#
# Coordination Sequence:
#
# PCOD8301560 Si02
#       5
#    16  16  16   8   8
#     4   9  17  32  50  70  96 124 155 196 243 297
#     4   8  16  30  51  72  92 122 158 192 248 303
#     4  11  21  36  51  69  95 125 160 210 248 280
#     4  11  24  37  47  65  93 135 181 202 230 276
#     4  11  22  32  48  74  98 128 171 200 228 282
#
# _framework density 16.224807999999999
#
# number of rings (size 3 to 8) (size 9 to 14) (size 15 to 20)
#    0.000    2.250    3.750    1.500    0.000    4.500 
#    0.000    2.500    0.000    0.000    0.000    0.000 
#    0.000    1.000    0.500    0.000    0.000    0.000 
#
# Total GULP energy -396593.730383 kJ/mol
# GULP energy per Si atom -12393.554074 kJ/mol
# Density = 1.618788 g / cm^3
# Si number density = 16.224808 Si / 1000 Ang^3
#
#
#
# Elastic Constant Matrix: (Units=GPa)
#
#
# Indices 1 2 3 4 5 6 
#
# 1 94.1773 58.4136 32.8056 0.0000 0.0000 0.0000
# 2 58.4136 142.0082 66.0522 0.0000 0.0000 0.0000
# 3 32.8056 66.0522 83.0123 0.0000 0.0000 0.0000
# 4 0.0000 0.0000 0.0000 21.9044 0.0000 0.0000
# 5 0.0000 0.0000 0.0000 0.0000 9.3126 0.0000
# 6 0.0000 0.0000 0.0000 0.0000 0.0000 25.1293
#
#
#
# Elastic Compliance Matrix: (Units=1/GPa)
#
#
# Indices 1 2 3 4 5 6 
#
# 1 0.014380 -0.005194 -0.001550 0.000000 0.000000 0.000000
# 2 -0.005194 0.013055 -0.008335 0.000000 0.000000 0.000000
# 3 -0.001550 -0.008335 0.019291 0.000000 0.000000 0.000000
# 4 0.000000 0.000000 0.000000 0.045653 0.000000 0.000000
# 5 0.000000 0.000000 0.000000 0.000000 0.107381 0.000000
# 6 0.000000 0.000000 0.000000 0.000000 0.000000 0.039794
#
#
# Mechanical properties :
#
#
# Convention : Reuss Voigt Hill
#
# Bulk Modulus (GPa) = 60.35809 70.41561 65.38685
# Shear Modulus (GPa) = 18.16623 22.06436 20.11530
#
# Velocity S-wave (km/s) = 3.34976 3.69170 3.52488
# Velocity P-wave (km/s) = 7.22794 7.85275 7.54681
#
# Compressibility (1/GPa) = 0.01656779
#
# Stress axis : x y z
#
# Youngs Moduli (GPa) = 69.54212 76.59630 51.83666
#
# Poissons Ratio (x) = 0.39785 0.08034
# Poissons Ratio (y) = 0.36121 0.43208
# Poissons Ratio (z) = 0.10778 0.63847
#
# Static dielectric constant tensor:
#      x y z
#    x 3.097120 0.000000 0.000000 
#    y 0.000000 3.099480 0.000000 
#    z 0.000000 0.000000 3.093320 
# 
# 
# High freq. dielectric constant tensor:
#      x y z
#    x 1.636190 0.000000 0.000000 
#    y 0.000000 1.605970 0.000000 
#    z 0.000000 0.000000 1.595880 
# 
# From -- ./inp_files/48067.got.cif
#   From: 2010.03.12/outbox.cif.g09.slc.cpg/sg74_25_cif.got.tgz:48067.got - 2010.04.16 15:46:19.
