data_PCOD8301620
_publ_section_title
;
Structure prediction by ZEFSAII (Michael W. Deem and Ramdas Pophale) SiO2 
 PCOD8301620
Probable space group: I M M A
;
_chemical_formula_sum "Si O2"
_cell_formula_units_Z 80
_cell_length_a 8.690233
_cell_length_b 22.825166
_cell_length_c 19.448553
_cell_angle_alpha 90.000000
_cell_angle_beta 90.000000
_cell_angle_gamma 90.000000
_cell_volume 3857.737389
_symmetry_space_group_name_H-M "I M M A"
_symmetry_group_IT_number 74
_symmetry_cell_setting 'orthorhombic'
loop_
_space_group_symop_operation_xyz
x,y,z
-x,1/2-y,z
x,-y,-z
-x,1/2+y,-z
-x,-y,-z
x,1/2+y,-z
-x,y,z
x,1/2-y,z
1/2+x,1/2+y,1/2+z
1/2-x,-y,1/2+z
1/2+x,1/2-y,1/2-z
1/2-x,y,1/2-z
1/2-x,1/2-y,1/2-z
1/2+x,y,1/2-z
1/2-x,1/2+y,1/2+z
1/2+x,-y,1/2+z
loop_
_atom_site_type_symbol
_atom_site_label
_atom_site_fract_x
_atom_site_fract_y
_atom_site_fract_z
Si Si1 0.172827 0.485779 0.420640
Si Si2 0.818845 0.682172 0.413291
Si Si3 0.319560 0.132999 0.449673
Si Si4 0.834337 0.817262 0.813733
Si Si5 0.317036 0.085122 0.674774
O O1 0.161519 0.500000 0.500000
O O2 0.282124 0.429623 0.416270
O O3 0.250215 0.537995 0.378372
O O4 0.000000 0.474035 0.391947
O O5 0.765459 0.750000 0.415787
O O6 0.778001 0.648922 0.483636
O O7 0.733114 0.649912 0.350489
O O8 0.000000 0.677004 0.401194
O O9 0.500000 0.138500 0.468361
O O10 0.260895 0.176851 0.389369
O O11 0.851951 0.750000 0.794378
O O12 0.750000 0.849154 0.750000
O O13 0.000000 0.848471 0.818326
O O14 0.500000 0.080697 0.676535
O O15 0.250000 0.072977 0.750000
#
# Coordination Sequence:
#
# PCOD8301620 Si02
#       5
#    16  16  16  16  16
#     4  11  23  41  66  93 127 165 206 256 312 373
#     4  11  24  42  65  95 130 169 215 265 320 383
#     4  11  22  37  62  93 126 164 211 263 316 377
#     4   9  19  35  54  80 117 159 202 250 303 359
#     4  12  26  45  70  97 130 168 213 265 321 382
#
# _framework density 20.737545000000001
#
# number of rings (size 3 to 8) (size 9 to 14) (size 15 to 20)
#    0.000    1.200    2.000    4.200    0.000    6.000 
#    0.000    4.000    0.000    0.000    0.000    0.000 
#    0.000    0.000    0.000    0.000    0.000    0.000 
#
# Total GULP energy -495814.768445 kJ/mol
# GULP energy per Si atom -12395.369211 kJ/mol
# Density = 2.069035 g / cm^3
# Si number density = 20.737545 Si / 1000 Ang^3
#
#
#
# Elastic Constant Matrix: (Units=GPa)
#
#
# Indices 1 2 3 4 5 6 
#
# 1 102.9474 32.7104 46.5893 0.0000 0.0000 0.0000
# 2 32.7104 101.3457 34.3574 0.0000 0.0000 0.0000
# 3 46.5893 34.3574 121.1247 0.0001 0.0000 0.0000
# 4 0.0000 0.0000 0.0001 32.5848 0.0000 0.0000
# 5 0.0000 0.0000 0.0000 0.0000 26.6981 0.0000
# 6 0.0000 0.0000 0.0000 0.0000 0.0000 32.8925
#
#
#
# Elastic Compliance Matrix: (Units=1/GPa)
#
#
# Indices 1 2 3 4 5 6 
#
# 1 0.012364 -0.002631 -0.004009 0.000000 0.000000 0.000000
# 2 -0.002631 0.011477 -0.002243 0.000000 0.000000 0.000000
# 3 -0.004009 -0.002243 0.010434 0.000000 0.000000 0.000000
# 4 0.000000 0.000000 0.000000 0.030689 0.000000 0.000000
# 5 0.000000 0.000000 0.000000 0.000000 0.037456 0.000000
# 6 0.000000 0.000000 0.000000 0.000000 0.000000 0.030402
#
#
# Mechanical properties :
#
#
# Convention : Reuss Voigt Hill
#
# Bulk Modulus (GPa) = 60.57876 61.41468 60.99672
# Shear Modulus (GPa) = 32.03205 32.55246 32.29225
#
# Velocity S-wave (km/s) = 3.93445 3.96629 3.95040
# Velocity P-wave (km/s) = 7.06509 7.11721 7.09120
#
# Compressibility (1/GPa) = 0.01650744
#
# Stress axis : x y z
#
# Youngs Moduli (GPa) = 80.87821 87.13020 95.83644
#
# Poissons Ratio (x) = 0.22928 0.38424
# Poissons Ratio (y) = 0.21283 0.21499
# Poissons Ratio (z) = 0.32427 0.19546
#
# Static dielectric constant tensor:
#      x y z
#    x 4.075890 0.000000 0.000000 
#    y 0.000000 4.104010 0.000000 
#    z 0.000000 0.000000 3.898570 
# 
# 
# High freq. dielectric constant tensor:
#      x y z
#    x 1.820160 0.000000 0.000000 
#    y 0.000000 1.807110 0.000000 
#    z 0.000000 0.000000 1.820830 
# 
# From -- ./inp_files/39739.got.cif
#   From: 2010.03.12/outbox.cif.g09.slc.cpg/sg74_20_cif.got.tgz:39739.got - 2010.04.16 15:46:19.
