data_PCOD8301549
_publ_section_title
;
Structure prediction by ZEFSAII (Michael W. Deem and Ramdas Pophale) SiO2 
 PCOD8301549
Probable space group: I M M A
;
_chemical_formula_sum "Si O2"
_cell_formula_units_Z 64
_cell_length_a 8.643362
_cell_length_b 20.660771
_cell_length_c 18.487339
_cell_angle_alpha 90.000000
_cell_angle_beta 90.000000
_cell_angle_gamma 90.000000
_cell_volume 3301.441692
_symmetry_space_group_name_H-M "I M M A"
_symmetry_group_IT_number 74
_symmetry_cell_setting 'orthorhombic'
loop_
_space_group_symop_operation_xyz
x,y,z
-x,1/2-y,z
x,-y,-z
-x,1/2+y,-z
-x,-y,-z
x,1/2+y,-z
-x,y,z
x,1/2-y,z
1/2+x,1/2+y,1/2+z
1/2-x,-y,1/2+z
1/2+x,1/2-y,1/2-z
1/2-x,y,1/2-z
1/2-x,1/2-y,1/2-z
1/2+x,y,1/2-z
1/2-x,1/2+y,1/2+z
1/2+x,-y,1/2+z
loop_
_atom_site_type_symbol
_atom_site_label
_atom_site_fract_x
_atom_site_fract_y
_atom_site_fract_z
Si Si1 0.817308 0.615888 0.096602
Si Si2 0.315109 0.611818 0.939844
Si Si3 0.831459 0.750000 0.570167
Si Si4 0.316430 0.003987 0.173692
Si Si5 0.828965 0.250000 0.600914
O O1 0.756479 0.564896 0.154867
O O2 0.763172 0.686024 0.124819
O O3 0.000000 0.614473 0.092665
O O4 0.751007 0.595980 0.018525
O O5 0.500000 0.616372 0.947063
O O6 0.248399 0.681671 0.909948
O O7 0.261686 0.556474 0.885299
O O8 0.847557 0.750000 0.484378
O O9 0.000000 0.750000 0.607487
O O10 0.500000 0.998376 0.176495
O O11 0.250000 0.027669 0.250000
O O12 0.000000 0.250000 0.636720
#
# Coordination Sequence:
#
# PCOD8301549 Si02
#       5
#    16  16   8  16   8
#     4  11  21  34  56  85 112 139 177 224 271 321
#     4   9  18  34  57  81 107 143 184 223 268 323
#     4   7  12  27  52  79 103 131 171 216 259 309
#     4  11  23  38  54  75 107 147 188 228 273 323
#     4   9  17  33  56  81 110 141 174 216 267 321
#
# _framework density 19.385472
#
# number of rings (size 3 to 8) (size 9 to 14) (size 15 to 20)
#    0.000    2.250    0.000    5.625    0.000    5.000 
#    0.000    1.250    0.000    0.000    0.000    0.000 
#    0.000    0.000    0.000    0.000    0.000    0.000 
#
# Total GULP energy -396648.305821 kJ/mol
# GULP energy per Si atom -12395.259557 kJ/mol
# Density = 1.934135 g / cm^3
# Si number density = 19.385472 Si / 1000 Ang^3
#
#
#
# Elastic Constant Matrix: (Units=GPa)
#
#
# Indices 1 2 3 4 5 6 
#
# 1 77.7025 22.9480 17.1010 0.0000 0.0000 0.0000
# 2 22.9480 111.1618 17.3298 0.0000 0.0000 0.0000
# 3 17.1010 17.3298 48.2734 0.0000 0.0000 0.0000
# 4 0.0000 0.0000 0.0000 8.4943 0.0000 0.0000
# 5 0.0000 0.0000 0.0000 0.0000 26.2566 0.0000
# 6 0.0000 0.0000 0.0000 0.0000 0.0000 21.7665
#
#
#
# Elastic Compliance Matrix: (Units=1/GPa)
#
#
# Indices 1 2 3 4 5 6 
#
# 1 0.014503 -0.002323 -0.004304 0.000000 0.000000 0.000000
# 2 -0.002323 0.009901 -0.002732 0.000000 0.000000 0.000000
# 3 -0.004304 -0.002732 0.023221 0.000000 0.000000 0.000000
# 4 0.000000 0.000000 0.000000 0.117726 0.000000 0.000000
# 5 0.000000 0.000000 0.000000 0.000000 0.038086 0.000000
# 6 0.000000 0.000000 0.000000 0.000000 0.000000 0.045942
#
#
# Mechanical properties :
#
#
# Convention : Reuss Voigt Hill
#
# Bulk Modulus (GPa) = 34.59240 39.09949 36.84595
# Shear Modulus (GPa) = 18.00300 23.28740 20.64520
#
# Velocity S-wave (km/s) = 3.05074 3.46971 3.26695
# Velocity P-wave (km/s) = 5.50387 6.02205 5.76878
#
# Compressibility (1/GPa) = 0.02890808
#
# Stress axis : x y z
#
# Youngs Moduli (GPa) = 68.95206 100.99696 43.06530
#
# Poissons Ratio (x) = 0.23462 0.18534
# Poissons Ratio (y) = 0.16018 0.11764
# Poissons Ratio (z) = 0.29675 0.27588
#
# Static dielectric constant tensor:
#      x y z
#    x 3.420280 0.000000 0.000000 
#    y 0.000000 4.129720 0.000000 
#    z 0.000000 0.000000 3.184490 
# 
# 
# High freq. dielectric constant tensor:
#      x y z
#    x 1.744180 0.000000 0.000000 
#    y 0.000000 1.779790 0.000000 
#    z 0.000000 0.000000 1.717230 
# 
# From -- ./inp_files/28860.got.cif
#   From: 2010.03.12/outbox.cif.g09.slc.cpg/sg74_15_cif.got.tgz:28860.got - 2010.04.16 15:46:19.
