data_PCOD8301791
_publ_section_title
;
Structure prediction by ZEFSAII (Michael W. Deem and Ramdas Pophale) SiO2 
 PCOD8301791
Probable space group: I M M A
;
_chemical_formula_sum "Si O2"
_cell_formula_units_Z 80
_cell_length_a 27.737494
_cell_length_b 16.282414
_cell_length_c 9.754581
_cell_angle_alpha 90.000000
_cell_angle_beta 90.000000
_cell_angle_gamma 90.000000
_cell_volume 4405.494199
_symmetry_space_group_name_H-M "I M M A"
_symmetry_group_IT_number 74
_symmetry_cell_setting 'orthorhombic'
loop_
_space_group_symop_operation_xyz
x,y,z
-x,1/2-y,z
x,-y,-z
-x,1/2+y,-z
-x,-y,-z
x,1/2+y,-z
-x,y,z
x,1/2-y,z
1/2+x,1/2+y,1/2+z
1/2-x,-y,1/2+z
1/2+x,1/2-y,1/2-z
1/2-x,y,1/2-z
1/2-x,1/2-y,1/2-z
1/2+x,y,1/2-z
1/2-x,1/2+y,1/2+z
1/2+x,-y,1/2+z
loop_
_atom_site_type_symbol
_atom_site_label
_atom_site_fract_x
_atom_site_fract_y
_atom_site_fract_z
Si Si1 0.613146 0.922974 0.905077
Si Si2 0.362284 0.156433 0.832166
Si Si3 0.053737 0.347679 0.868883
Si Si4 0.556492 0.158937 0.326549
Si Si5 0.794244 0.509186 0.345489
O O1 0.574437 0.902805 0.789956
O O2 0.662753 0.943686 0.825476
O O3 0.620564 0.847009 0.009355
O O4 0.597277 0.000000 0.000000
O O5 0.349205 0.250000 0.793389
O O6 0.405943 0.121309 0.737634
O O7 0.314848 0.100277 0.811729
O O8 0.051012 0.250000 0.866931
O O9 0.000000 0.382141 0.830912
O O10 0.068895 0.376405 0.022257
O O11 0.500000 0.165919 0.309911
O O12 0.579472 0.250000 0.307362
O O13 0.775010 0.500000 0.500000
O O14 0.750000 0.486379 0.250000
#
# Coordination Sequence:
#
# PCOD8301791 Si02
#       5
#    16  16  16  16  16
#     4   9  19  33  48  69  98 130 160 194 236 285
#     4   9  17  31  52  75  96 121 158 202 241 279
#     4   8  15  28  46  71 100 125 154 193 234 277
#     4   9  17  30  49  72  99 131 163 196 234 276
#     4   9  20  36  51  68  93 125 157 195 245 292
#
# _framework density 18.159143
#
# number of rings (size 3 to 8) (size 9 to 14) (size 15 to 20)
#    0.000    3.600    0.000    1.800    0.000    3.200 
#    0.000    8.000    0.000   25.200    0.000    0.000 
#    0.000    0.000    0.000    0.000    0.000    0.000 
#
# Total GULP energy -495638.864241 kJ/mol
# GULP energy per Si atom -12390.971606 kJ/mol
# Density = 1.811781 g / cm^3
# Si number density = 18.159143 Si / 1000 Ang^3
#
#
#
# Elastic Constant Matrix: (Units=GPa)
#
#
# Indices 1 2 3 4 5 6 
#
# 1 74.9713 35.6000 71.5086 0.0000 0.0000 0.0000
# 2 35.6000 52.3788 37.1925 0.0000 0.0000 0.0000
# 3 71.5086 37.1925 103.4425 0.0000 0.0000 0.0000
# 4 0.0000 0.0000 0.0000 20.7375 0.0000 0.0000
# 5 0.0000 0.0000 0.0000 0.0000 40.3030 0.0000
# 6 0.0000 0.0000 0.0000 0.0000 0.0000 16.7771
#
#
#
# Elastic Compliance Matrix: (Units=1/GPa)
#
#
# Indices 1 2 3 4 5 6 
#
# 1 0.043420 -0.011008 -0.026058 0.000000 0.000000 0.000000
# 2 -0.011008 0.028428 -0.002611 0.000000 0.000000 0.000000
# 3 -0.026058 -0.002611 0.028619 0.000000 0.000000 0.000000
# 4 0.000000 0.000000 0.000000 0.048222 0.000000 0.000000
# 5 0.000000 0.000000 0.000000 0.000000 0.024812 0.000000
# 6 0.000000 0.000000 0.000000 0.000000 0.000000 0.059605
#
#
# Mechanical properties :
#
#
# Convention : Reuss Voigt Hill
#
# Bulk Modulus (GPa) = 47.36479 57.71055 52.53767
# Shear Modulus (GPa) = 15.64956 21.32960 18.48958
#
# Velocity S-wave (km/s) = 2.93883 3.43095 3.19438
# Velocity P-wave (km/s) = 6.13640 6.89526 6.52687
#
# Compressibility (1/GPa) = 0.02111273
#
# Stress axis : x y z
#
# Youngs Moduli (GPa) = 23.03099 35.17690 34.94135
#
# Poissons Ratio (x) = 0.38724 0.91049
# Poissons Ratio (y) = 0.25353 0.09124
# Poissons Ratio (z) = 0.60013 0.09186
#
# Static dielectric constant tensor:
#      x y z
#    x 3.182830 0.000000 0.000000 
#    y 0.000000 3.192160 0.000000 
#    z 0.000000 0.000000 3.517430 
# 
# 
# High freq. dielectric constant tensor:
#      x y z
#    x 1.682100 0.000000 0.000000 
#    y 0.000000 1.688180 0.000000 
#    z 0.000000 0.000000 1.708180 
# 
# From -- ./inp_files/16037.got.cif
#   From: 2010.03.12/outbox.cif.g09.slc.cpg/sg74_9_cif.got.tgz:16037.got - 2010.04.16 15:46:19.
