data_PCOD8301600
_publ_section_title
;
Structure prediction by ZEFSAII (Michael W. Deem and Ramdas Pophale) SiO2 
 PCOD8301600
Probable space group: I M M A
;
_chemical_formula_sum "Si O2"
_cell_formula_units_Z 72
_cell_length_a 25.419129
_cell_length_b 8.989074
_cell_length_c 16.961407
_cell_angle_alpha 90.000000
_cell_angle_beta 90.000000
_cell_angle_gamma 90.000000
_cell_volume 3875.587052
_symmetry_space_group_name_H-M "I M M A"
_symmetry_group_IT_number 74
_symmetry_cell_setting 'orthorhombic'
loop_
_space_group_symop_operation_xyz
x,y,z
-x,1/2-y,z
x,-y,-z
-x,1/2+y,-z
-x,-y,-z
x,1/2+y,-z
-x,y,z
x,1/2-y,z
1/2+x,1/2+y,1/2+z
1/2-x,-y,1/2+z
1/2+x,1/2-y,1/2-z
1/2-x,y,1/2-z
1/2-x,1/2-y,1/2-z
1/2+x,y,1/2-z
1/2-x,1/2+y,1/2+z
1/2+x,-y,1/2+z
loop_
_atom_site_type_symbol
_atom_site_label
_atom_site_fract_x
_atom_site_fract_y
_atom_site_fract_z
Si Si1 0.155802 0.077264 0.575965
Si Si2 0.310023 0.420082 0.228921
Si Si3 0.000000 0.572210 0.086388
Si Si4 0.941597 0.418072 0.373064
Si Si5 0.915254 0.079509 0.194150
O O1 0.162938 0.250000 0.565966
O O2 0.182243 0.000000 0.500000
O O3 0.183937 0.025048 0.654550
O O4 0.094420 0.033542 0.580185
O O5 0.322029 0.250000 0.204534
O O6 0.250000 0.443380 0.250000
O O7 0.352369 0.462140 0.298202
O O8 0.053409 0.522413 0.131880
O O9 0.000000 0.750000 0.079411
O O10 0.000000 0.500000 0.000000
O O11 0.922209 0.250000 0.390638
O O12 0.940348 0.446901 0.279608
O O13 0.000000 0.444368 0.404335
O O14 0.922265 0.250000 0.166452
#
# Coordination Sequence:
#
# PCOD8301600 Si02
#       5
#    16  16   8  16  16
#     4  11  22  35  52  77 110 144 180 223 269 318
#     4   9  19  38  63  86 109 143 185 228 280 340
#     4  12  24  36  54  80 113 150 191 236 286 340
#     4   9  17  32  54  77 105 143 179 214 262 321
#     4   9  17  34  57  81 110 142 178 223 276 333
#
# _framework density 18.577831
#
# number of rings (size 3 to 8) (size 9 to 14) (size 15 to 20)
#    0.000    2.222    1.111    4.333    0.000    4.889 
#    0.000    1.111    0.000    0.000    0.000    0.000 
#    0.000    0.000    0.000    0.000    0.000    0.000 
#
# Total GULP energy -446164.798123 kJ/mol
# GULP energy per Si atom -12393.466615 kJ/mol
# Density = 1.853555 g / cm^3
# Si number density = 18.577831 Si / 1000 Ang^3
#
#
#
# Elastic Constant Matrix: (Units=GPa)
#
#
# Indices 1 2 3 4 5 6 
#
# 1 126.8208 44.4471 28.6468 0.0000 0.0000 0.0000
# 2 44.4471 137.7924 61.8787 0.0000 0.0000 0.0000
# 3 28.6468 61.8787 81.6906 0.0000 0.0000 0.0000
# 4 0.0000 0.0000 0.0000 31.7586 0.0000 0.0000
# 5 0.0000 0.0000 0.0000 0.0000 7.6259 0.0000
# 6 0.0000 0.0000 0.0000 0.0000 0.0000 23.5213
#
#
#
# Elastic Compliance Matrix: (Units=1/GPa)
#
#
# Indices 1 2 3 4 5 6 
#
# 1 0.009002 -0.002252 -0.001451 0.000000 0.000000 0.000000
# 2 -0.002252 0.011562 -0.007968 0.000000 0.000000 0.000000
# 3 -0.001451 -0.007968 0.018786 0.000000 0.000000 0.000000
# 4 0.000000 0.000000 0.000000 0.031488 0.000000 0.000000
# 5 0.000000 0.000000 0.000000 0.000000 0.131133 0.000000
# 6 0.000000 0.000000 0.000000 0.000000 0.000000 0.042515
#
#
# Mechanical properties :
#
#
# Convention : Reuss Voigt Hill
#
# Bulk Modulus (GPa) = 62.47054 68.47212 65.47133
# Shear Modulus (GPa) = 18.30406 26.66992 22.48699
#
# Velocity S-wave (km/s) = 3.14230 3.79301 3.48288
# Velocity P-wave (km/s) = 6.84578 7.49129 7.17580
#
# Compressibility (1/GPa) = 0.01600754
#
# Stress axis : x y z
#
# Youngs Moduli (GPa) = 111.08378 86.48952 53.23179
#
# Poissons Ratio (x) = 0.19480 0.07723
# Poissons Ratio (y) = 0.25019 0.42416
# Poissons Ratio (z) = 0.16116 0.68916
#
# Static dielectric constant tensor:
#      x y z
#    x 3.503590 0.000000 0.000000 
#    y 0.000000 3.317980 0.000000 
#    z 0.000000 0.000000 3.318380 
# 
# 
# High freq. dielectric constant tensor:
#      x y z
#    x 1.718930 0.000000 0.000000 
#    y 0.000000 1.714230 0.000000 
#    z 0.000000 0.000000 1.707850 
# 
# From -- ./inp_files/29215.got.cif
#   From: 2010.03.12/outbox.cif.g09.slc.cpg/sg74_15_cif.got.tgz:29215.got - 2010.04.16 15:46:19.
