data_PCOD8301817
_publ_section_title
;
Structure prediction by ZEFSAII (Michael W. Deem and Ramdas Pophale) SiO2 
 PCOD8301817
Probable space group: I M M A
;
_chemical_formula_sum "Si O2"
_cell_formula_units_Z 80
_cell_length_a 26.642166
_cell_length_b 18.954194
_cell_length_c 8.514664
_cell_angle_alpha 90.000000
_cell_angle_beta 90.000000
_cell_angle_gamma 90.000000
_cell_volume 4299.741693
_symmetry_space_group_name_H-M "I M M A"
_symmetry_group_IT_number 74
_symmetry_cell_setting 'orthorhombic'
loop_
_space_group_symop_operation_xyz
x,y,z
-x,1/2-y,z
x,-y,-z
-x,1/2+y,-z
-x,-y,-z
x,1/2+y,-z
-x,y,z
x,1/2-y,z
1/2+x,1/2+y,1/2+z
1/2-x,-y,1/2+z
1/2+x,1/2-y,1/2-z
1/2-x,y,1/2-z
1/2-x,1/2-y,1/2-z
1/2+x,y,1/2-z
1/2-x,1/2+y,1/2+z
1/2+x,-y,1/2+z
loop_
_atom_site_type_symbol
_atom_site_label
_atom_site_fract_x
_atom_site_fract_y
_atom_site_fract_z
Si Si1 0.056625 0.936061 0.829121
Si Si2 0.112223 0.050781 0.632601
Si Si3 0.350102 0.572903 0.454535
Si Si4 0.196606 0.831309 0.801486
Si Si5 0.900792 0.832210 0.602783
O O1 0.092456 0.931092 0.980712
O O2 0.061436 0.862565 0.733373
O O3 0.000000 0.944225 0.889863
O O4 0.069973 0.002192 0.715613
O O5 0.090717 0.122526 0.555693
O O6 0.137985 0.000000 0.500000
O O7 0.150868 0.078240 0.765447
O O8 0.322536 0.500000 0.500000
O O9 0.319980 0.636216 0.532452
O O10 0.202941 0.750000 0.839721
O O11 0.250000 0.863997 0.750000
O O12 0.156116 0.844786 0.664386
O O13 0.912228 0.750000 0.570754
#
# Coordination Sequence:
#
# PCOD8301817 Si02
#       5
#    16  16  16  16  16
#     4   9  18  33  52  71  95 131 171 206 246 300
#     4   9  18  31  49  72 102 132 163 201 249 300
#     4   9  18  33  52  75 100 129 169 212 250 292
#     4   9  18  35  56  75  99 133 170 206 249 299
#     4   9  18  32  50  72  99 129 162 205 252 298
#
# _framework density 18.605768999999999
#
# number of rings (size 3 to 8) (size 9 to 14) (size 15 to 20)
#    0.000    3.000    0.000    1.200    0.000    8.400 
#    0.000    8.000    0.000    3.600    0.000    5.600 
#    0.000    0.000    0.000    0.000    0.000    0.000 
#
# Total GULP energy -495609.113393 kJ/mol
# GULP energy per Si atom -12390.227835 kJ/mol
# Density = 1.856342 g / cm^3
# Si number density = 18.605769 Si / 1000 Ang^3
#
#
#
# Elastic Constant Matrix: (Units=GPa)
#
#
# Indices 1 2 3 4 5 6 
#
# 1 86.2235 19.5806 22.7167 0.0000 0.0000 0.0000
# 2 19.5806 107.6624 46.0196 0.0000 0.0000 0.0000
# 3 22.7167 46.0196 123.1242 0.0000 0.0000 0.0000
# 4 0.0000 0.0000 0.0000 32.3772 0.0000 0.0000
# 5 0.0000 0.0000 0.0000 0.0000 6.4440 0.0000
# 6 0.0000 0.0000 0.0000 0.0000 0.0000 15.5555
#
#
#
# Elastic Compliance Matrix: (Units=1/GPa)
#
#
# Indices 1 2 3 4 5 6 
#
# 1 0.012396 -0.001520 -0.001719 0.000000 0.000000 0.000000
# 2 -0.001520 0.011241 -0.003921 0.000000 0.000000 0.000000
# 3 -0.001719 -0.003921 0.009905 0.000000 0.000000 0.000000
# 4 0.000000 0.000000 0.000000 0.030886 0.000000 0.000000
# 5 0.000000 0.000000 0.000000 0.000000 0.155182 0.000000
# 6 0.000000 0.000000 0.000000 0.000000 0.000000 0.064286
#
#
# Mechanical properties :
#
#
# Convention : Reuss Voigt Hill
#
# Bulk Modulus (GPa) = 52.02466 54.84932 53.43699
# Shear Modulus (GPa) = 16.41379 26.12156 21.26767
#
# Velocity S-wave (km/s) = 2.97339 3.75100 3.38460
# Velocity P-wave (km/s) = 6.30954 6.95009 6.63755
#
# Compressibility (1/GPa) = 0.01922165
#
# Stress axis : x y z
#
# Youngs Moduli (GPa) = 80.67273 88.96265 100.96327
#
# Poissons Ratio (x) = 0.13519 0.17356
# Poissons Ratio (y) = 0.12259 0.39588
# Poissons Ratio (z) = 0.13868 0.34882
#
# Static dielectric constant tensor:
#      x y z
#    x 3.128230 0.000000 0.000000 
#    y 0.000000 3.553120 0.000000 
#    z 0.000000 0.000000 3.489390 
# 
# 
# High freq. dielectric constant tensor:
#      x y z
#    x 1.683570 0.000000 0.000000 
#    y 0.000000 1.728910 0.000000 
#    z 0.000000 0.000000 1.722030 
# 
# From -- ./inp_files/11153.got.cif
#   From: 2010.03.12/outbox.cif.g09.slc.cpg/sg74_6_cif.got.tgz:11153.got - 2010.04.16 15:46:19.
