data_PCOD8301730
_publ_section_title
;
Structure prediction by ZEFSAII (Michael W. Deem and Ramdas Pophale) SiO2 
 PCOD8301730
Probable space group: I M M A
;
_chemical_formula_sum "Si O2"
_cell_formula_units_Z 96
_cell_length_a 15.030449
_cell_length_b 20.779816
_cell_length_c 17.188788
_cell_angle_alpha 90.000000
_cell_angle_beta 90.000000
_cell_angle_gamma 90.000000
_cell_volume 5368.573548
_symmetry_space_group_name_H-M "I M M A"
_symmetry_group_IT_number 74
_symmetry_cell_setting 'orthorhombic'
loop_
_space_group_symop_operation_xyz
x,y,z
-x,1/2-y,z
x,-y,-z
-x,1/2+y,-z
-x,-y,-z
x,1/2+y,-z
-x,y,z
x,1/2-y,z
1/2+x,1/2+y,1/2+z
1/2-x,-y,1/2+z
1/2+x,1/2-y,1/2-z
1/2-x,y,1/2-z
1/2-x,1/2-y,1/2-z
1/2+x,y,1/2-z
1/2-x,1/2+y,1/2+z
1/2+x,-y,1/2+z
loop_
_atom_site_type_symbol
_atom_site_label
_atom_site_fract_x
_atom_site_fract_y
_atom_site_fract_z
Si Si1 0.265133 0.821681 0.943994
Si Si2 0.231814 0.439415 0.554434
Si Si3 0.601105 0.980206 0.359432
Si Si4 0.399130 0.130392 0.357354
Si Si5 0.601772 0.129212 0.179374
Si Si6 0.101863 0.019574 0.681346
O O1 0.274457 0.750000 0.978884
O O2 0.165454 0.829259 0.911882
O O3 0.334908 0.828627 0.874059
O O4 0.285619 0.872841 0.010842
O O5 0.209252 0.500000 0.500000
O O6 0.333671 0.441272 0.583931
O O7 0.165501 0.438247 0.627511
O O8 0.500000 0.965361 0.385106
O O9 0.616403 0.959041 0.270405
O O10 0.622881 0.055340 0.368181
O O11 0.500000 0.145168 0.382629
O O12 0.384322 0.150956 0.268173
O O13 0.500000 0.140279 0.153803
O O14 0.628138 0.054720 0.170875
O O15 0.000000 0.031023 0.656492
#
# Coordination Sequence:
#
# PCOD8301730 Si02
#       6
#    16  16  16  16  16  16
#     4  12  25  36  47  74 113 146 176 213 257 305
#     4  12  21  33  55  81 105 142 176 210 260 315
#     4   9  18  34  58  84 105 129 171 224 266 305
#     4   9  18  34  55  78 105 139 177 212 251 307
#     4   9  18  34  55  78 105 139 177 212 251 307
#     4   9  18  34  58  84 105 129 171 224 266 305
#
# _framework density 17.881844999999998
#
# number of rings (size 3 to 8) (size 9 to 14) (size 15 to 20)
#    0.000    2.000    3.333    3.000    0.000    6.667 
#    0.000    1.667    0.000    2.000    0.000    2.333 
#    0.000    0.000    0.000    0.000    0.000    0.000 
#
# Total GULP energy -595304.352912 kJ/mol
# GULP energy per Si atom -12402.174019 kJ/mol
# Density = 1.784114 g / cm^3
# Si number density = 17.881845 Si / 1000 Ang^3
#
#
#
# Elastic Constant Matrix: (Units=GPa)
#
#
# Indices 1 2 3 4 5 6 
#
# 1 50.7754 9.1850 1.6249 0.0000 0.0000 0.0000
# 2 9.1850 75.6130 19.4956 -0.0002 0.0000 0.0000
# 3 1.6249 19.4956 31.4193 -0.0004 0.0000 0.0000
# 4 0.0000 -0.0002 -0.0004 20.2555 0.0000 0.0000
# 5 0.0000 0.0000 0.0000 0.0000 19.0083 0.0000
# 6 0.0000 0.0000 0.0000 0.0000 0.0000 12.5237
#
#
#
# Elastic Compliance Matrix: (Units=1/GPa)
#
#
# Indices 1 2 3 4 5 6 
#
# 1 0.020146 -0.002593 0.000567 0.000000 0.000000 0.000000
# 2 -0.002593 0.016078 -0.009842 0.000000 0.000000 0.000000
# 3 0.000567 -0.009842 0.037905 0.000001 0.000000 0.000000
# 4 0.000000 0.000000 0.000001 0.049369 0.000000 0.000000
# 5 0.000000 0.000000 0.000000 0.000000 0.052609 0.000000
# 6 0.000000 0.000000 0.000000 0.000000 0.000000 0.079848
#
#
# Mechanical properties :
#
#
# Convention : Reuss Voigt Hill
#
# Bulk Modulus (GPa) = 19.84435 24.26875 22.05655
# Shear Modulus (GPa) = 16.86403 18.85764 17.86083
#
# Velocity S-wave (km/s) = 3.07429 3.25094 3.16385
# Velocity P-wave (km/s) = 4.87066 5.26238 5.07030
#
# Compressibility (1/GPa) = 0.05039217
#
# Stress axis : x y z
#
# Youngs Moduli (GPa) = 49.63877 62.19708 26.38155
#
# Poissons Ratio (x) = 0.16130 -0.01497
# Poissons Ratio (y) = 0.12873 0.25965
# Poissons Ratio (z) = -0.02816 0.61216
#
# Static dielectric constant tensor:
#      x y z
#    x 3.446000 0.000000 0.000000 
#    y 0.000000 2.912330 0.000000 
#    z 0.000000 0.000000 3.247630 
# 
# 
# High freq. dielectric constant tensor:
#      x y z
#    x 1.710020 0.000000 0.000000 
#    y 0.000000 1.644720 0.000000 
#    z 0.000000 0.000000 1.684730 
# 
# From -- ./inp_files/32383.got.cif
#   From: 2010.03.12/outbox.cif.g09.slc.cpg/sg74_17_cif.got.tgz:32383.got - 2010.04.16 15:46:19.
