data_PCOD8301544
_publ_section_title
;
Structure prediction by ZEFSAII (Michael W. Deem and Ramdas Pophale) SiO2 
 PCOD8301544
Probable space group: I M M A
;
_chemical_formula_sum "Si O2"
_cell_formula_units_Z 96
_cell_length_a 24.882443
_cell_length_b 17.786346
_cell_length_c 11.728885
_cell_angle_alpha 90.000000
_cell_angle_beta 90.000000
_cell_angle_gamma 90.000000
_cell_volume 5190.826133
_symmetry_space_group_name_H-M "I M M A"
_symmetry_group_IT_number 74
_symmetry_cell_setting 'orthorhombic'
loop_
_space_group_symop_operation_xyz
x,y,z
-x,1/2-y,z
x,-y,-z
-x,1/2+y,-z
-x,-y,-z
x,1/2+y,-z
-x,y,z
x,1/2-y,z
1/2+x,1/2+y,1/2+z
1/2-x,-y,1/2+z
1/2+x,1/2-y,1/2-z
1/2-x,y,1/2-z
1/2-x,1/2-y,1/2-z
1/2+x,y,1/2-z
1/2-x,1/2+y,1/2+z
1/2+x,-y,1/2+z
loop_
_atom_site_type_symbol
_atom_site_label
_atom_site_fract_x
_atom_site_fract_y
_atom_site_fract_z
Si Si1 0.866397 0.332874 0.926305
Si Si2 0.824074 0.660530 0.498108
Si Si3 0.061718 0.162258 0.119440
Si Si4 0.685673 0.573730 0.230020
Si Si5 0.779759 0.832911 0.881415
Si Si6 0.645810 0.592244 0.785316
O O1 0.866866 0.250000 0.867310
O O2 0.844127 0.394842 0.841284
O O3 0.923806 0.353188 0.984838
O O4 0.831027 0.330554 0.039125
O O5 0.827571 0.750000 0.488821
O O6 0.830531 0.628624 0.372175
O O7 0.767659 0.627724 0.546943
O O8 0.867113 0.628100 0.589671
O O9 0.072666 0.250000 0.148790
O O10 0.095124 0.109105 0.205243
O O11 0.000000 0.140576 0.136615
O O12 0.750000 0.569173 0.250000
O O13 0.657416 0.495554 0.203073
O O14 0.759864 0.750000 0.849213
O O15 0.798191 0.872712 0.763908
#
# Coordination Sequence:
#
# PCOD8301544 Si02
#       6
#    16  16  16  16  16  16
#     4   9  18  34  54  80 109 144 193 233 270 329
#     4  11  21  34  53  74 106 152 196 229 266 329
#     4   9  19  39  66  88 107 140 190 246 295 332
#     4  12  23  34  50  77 119 161 186 219 275 345
#     4   9  17  31  51  73 102 141 183 226 267 323
#     4  11  22  34  51  82 113 140 180 237 291 336
#
# _framework density 18.494167000000001
#
# number of rings (size 3 to 8) (size 9 to 14) (size 15 to 20)
#    0.000    1.833    1.667    5.000    0.000    4.667 
#    0.000    1.667    0.000    3.000    0.000    2.333 
#    0.000    0.000    0.000    0.000    0.000    0.000 
#
# Total GULP energy -594846.870324 kJ/mol
# GULP energy per Si atom -12392.643132 kJ/mol
# Density = 1.845207 g / cm^3
# Si number density = 18.494167 Si / 1000 Ang^3
#
#
#
# Elastic Constant Matrix: (Units=GPa)
#
#
# Indices 1 2 3 4 5 6 
#
# 1 79.9848 32.8308 32.4229 0.0000 0.0000 0.0000
# 2 32.8308 113.5135 52.0465 0.0000 0.0000 0.0000
# 3 32.4229 52.0465 107.6180 0.0000 0.0000 0.0000
# 4 0.0000 0.0000 0.0000 23.2652 0.0000 0.0000
# 5 0.0000 0.0000 0.0000 0.0000 19.6497 0.0000
# 6 0.0000 0.0000 0.0000 0.0000 0.0000 18.6840
#
#
#
# Elastic Compliance Matrix: (Units=1/GPa)
#
#
# Indices 1 2 3 4 5 6 
#
# 1 0.014951 -0.002902 -0.003101 0.000000 0.000000 0.000000
# 2 -0.002902 0.011883 -0.004872 0.000000 0.000000 0.000000
# 3 -0.003101 -0.004872 0.012583 0.000000 0.000000 0.000000
# 4 0.000000 0.000000 0.000000 0.042983 0.000000 0.000000
# 5 0.000000 0.000000 0.000000 0.000000 0.050891 0.000000
# 6 0.000000 0.000000 0.000000 0.000000 0.000000 0.053522
#
#
# Mechanical properties :
#
#
# Convention : Reuss Voigt Hill
#
# Bulk Modulus (GPa) = 56.60804 59.52407 58.06605
# Shear Modulus (GPa) = 23.31529 24.57418 23.94473
#
# Velocity S-wave (km/s) = 3.55446 3.64916 3.60212
# Velocity P-wave (km/s) = 6.89352 7.07180 6.98323
#
# Compressibility (1/GPa) = 0.01766534
#
# Stress axis : x y z
#
# Youngs Moduli (GPa) = 66.88705 84.15369 79.47418
#
# Poissons Ratio (x) = 0.24425 0.24642
# Poissons Ratio (y) = 0.19413 0.38724
# Poissons Ratio (z) = 0.20739 0.41004
#
# Static dielectric constant tensor:
#      x y z
#    x 3.279510 0.000000 0.000000 
#    y 0.000000 3.332620 0.000000 
#    z 0.000000 0.000000 3.439670 
# 
# 
# High freq. dielectric constant tensor:
#      x y z
#    x 1.685840 0.000000 0.000000 
#    y 0.000000 1.713130 0.000000 
#    z 0.000000 0.000000 1.725200 
# 
# From -- ./inp_files/22682.got.cif
#   From: 2010.03.12/outbox.cif.g09.slc.cpg/sg74_12_cif.got.tgz:22682.got - 2010.04.16 15:46:19.
