data_PCOD8301029
_publ_section_title
;
Structure prediction by ZEFSAII (Michael W. Deem and Ramdas Pophale) SiO2 
 PCOD8301029
Probable space group: I M M A
;
_chemical_formula_sum "Si O2"
_cell_formula_units_Z 64
_cell_length_a 24.045146
_cell_length_b 15.828142
_cell_length_c 8.265470
_cell_angle_alpha 90.000000
_cell_angle_beta 90.000000
_cell_angle_gamma 90.000000
_cell_volume 3145.755106
_symmetry_space_group_name_H-M "I M M A"
_symmetry_group_IT_number 74
_symmetry_cell_setting 'orthorhombic'
loop_
_space_group_symop_operation_xyz
x,y,z
-x,1/2-y,z
x,-y,-z
-x,1/2+y,-z
-x,-y,-z
x,1/2+y,-z
-x,y,z
x,1/2-y,z
1/2+x,1/2+y,1/2+z
1/2-x,-y,1/2+z
1/2+x,1/2-y,1/2-z
1/2-x,y,1/2-z
1/2-x,1/2-y,1/2-z
1/2+x,y,1/2-z
1/2-x,1/2+y,1/2+z
1/2+x,-y,1/2+z
loop_
_atom_site_type_symbol
_atom_site_label
_atom_site_fract_x
_atom_site_fract_y
_atom_site_fract_z
Si Si1 0.687824 0.481912 0.188052
Si Si2 0.500000 0.343873 0.783209
Si Si3 0.399258 0.078242 0.607230
Si Si4 0.894045 0.846438 0.781938
Si Si5 0.000000 0.913712 0.606961
O O1 0.750000 0.480480 0.250000
O O2 0.655666 0.553869 0.291191
O O3 0.661548 0.389282 0.213126
O O4 0.685233 0.500000 0.000000
O O5 0.500000 0.250000 0.708318
O O6 0.553929 0.395655 0.732471
O O7 0.500000 0.337721 0.977210
O O8 0.389511 0.153498 0.477992
O O9 0.420045 0.000000 0.500000
O O10 0.898766 0.750000 0.721744
O O11 0.945902 0.903385 0.720002
O O12 0.000000 0.000000 0.500000
#
# Coordination Sequence:
#
# PCOD8301029 Si02
#       5
#    16   8  16  16   8
#     4  11  23  42  65  87 115 157 206 251 298 361
#     4  12  22  34  56  88 122 151 191 245 297 348
#     4  10  21  38  60  86 119 159 201 242 294 359
#     4  11  22  38  61  90 125 160 199 251 307 356
#     4  12  23  38  59  88 125 163 202 239 291 362
#
# _framework density 20.344875999999999
#
# number of rings (size 3 to 8) (size 9 to 14) (size 15 to 20)
#    0.000    1.000    0.000   10.500    0.000    0.500 
#    0.000    1.250    0.000    5.250    0.000    0.000 
#    0.000    0.000    0.000    0.000    0.000    0.000 
#
# Total GULP energy -396729.258993 kJ/mol
# GULP energy per Si atom -12397.789344 kJ/mol
# Density = 2.029857 g / cm^3
# Si number density = 20.344876 Si / 1000 Ang^3
#
#
#
# Elastic Constant Matrix: (Units=GPa)
#
#
# Indices 1 2 3 4 5 6 
#
# 1 171.8019 59.0921 61.3612 0.0000 0.0000 0.0000
# 2 59.0921 105.0825 34.7478 0.0000 0.0000 0.0000
# 3 61.3612 34.7478 145.4725 0.0000 0.0000 0.0000
# 4 0.0000 0.0000 0.0000 28.4217 0.0000 0.0000
# 5 0.0000 0.0000 0.0000 0.0000 47.1194 0.0000
# 6 0.0000 0.0000 0.0000 0.0000 0.0000 32.9090
#
#
#
# Elastic Compliance Matrix: (Units=1/GPa)
#
#
# Indices 1 2 3 4 5 6 
#
# 1 0.007967 -0.003658 -0.002487 0.000000 0.000000 0.000000
# 2 -0.003658 0.012012 -0.001326 0.000000 0.000000 0.000000
# 3 -0.002487 -0.001326 0.008240 0.000000 0.000000 0.000000
# 4 0.000000 0.000000 0.000000 0.035184 0.000000 0.000000
# 5 0.000000 0.000000 0.000000 0.000000 0.021223 0.000000
# 6 0.000000 0.000000 0.000000 0.000000 0.000000 0.030387
#
#
# Mechanical properties :
#
#
# Convention : Reuss Voigt Hill
#
# Bulk Modulus (GPa) = 75.31881 81.41767 78.36824
# Shear Modulus (GPa) = 37.20791 39.50041 38.35416
#
# Velocity S-wave (km/s) = 4.28116 4.41107 4.34660
# Velocity P-wave (km/s) = 7.84469 8.12706 7.98712
#
# Compressibility (1/GPa) = 0.01327690
#
# Stress axis : x y z
#
# Youngs Moduli (GPa) = 125.51810 83.25122 121.36077
#
# Poissons Ratio (x) = 0.30452 0.30180
# Poissons Ratio (y) = 0.45912 0.16096
# Poissons Ratio (z) = 0.31214 0.11041
#
# Static dielectric constant tensor:
#      x y z
#    x 3.544330 0.000000 0.000000 
#    y 0.000000 3.653490 0.000000 
#    z 0.000000 0.000000 4.140460 
# 
# 
# High freq. dielectric constant tensor:
#      x y z
#    x 1.787400 0.000000 0.000000 
#    y 0.000000 1.788840 0.000000 
#    z 0.000000 0.000000 1.820200 
# 
# From -- ./inp_files/11865.got.cif
#   From: 2010.03.12/outbox.cif.g09.slc.cpg/sg74_6_cif.got.tgz:11865.got - 2010.04.16 15:46:19.
