data_PCOD8301215
_publ_section_title
;
Structure prediction by ZEFSAII (Michael W. Deem and Ramdas Pophale) SiO2 
 PCOD8301215
Probable space group: I M M A
;
_chemical_formula_sum "Si O2"
_cell_formula_units_Z 68
_cell_length_a 26.602770
_cell_length_b 14.629970
_cell_length_c 8.729553
_cell_angle_alpha 90.000000
_cell_angle_beta 90.000000
_cell_angle_gamma 90.000000
_cell_volume 3397.522185
_symmetry_space_group_name_H-M "I M M A"
_symmetry_group_IT_number 74
_symmetry_cell_setting 'orthorhombic'
loop_
_space_group_symop_operation_xyz
x,y,z
-x,1/2-y,z
x,-y,-z
-x,1/2+y,-z
-x,-y,-z
x,1/2+y,-z
-x,y,z
x,1/2-y,z
1/2+x,1/2+y,1/2+z
1/2-x,-y,1/2+z
1/2+x,1/2-y,1/2-z
1/2-x,y,1/2-z
1/2-x,1/2-y,1/2-z
1/2+x,y,1/2-z
1/2-x,1/2+y,1/2+z
1/2+x,-y,1/2+z
loop_
_atom_site_type_symbol
_atom_site_label
_atom_site_fract_x
_atom_site_fract_y
_atom_site_fract_z
Si Si1 0.500000 0.895653 0.459180
Si Si2 0.608429 0.408115 0.597377
Si Si3 0.152163 0.599256 0.429669
Si Si4 0.104232 0.750000 0.613186
Si Si5 0.500000 0.750000 0.716554
Si Si6 0.265882 0.250000 0.924610
Si Si7 0.161466 0.750000 0.918639
O O1 0.448718 0.873417 0.366135
O O2 0.500000 0.840741 0.616772
O O3 0.500000 0.000000 0.500000
O O4 0.606877 0.500000 0.500000
O O5 0.638650 0.417455 0.753512
O O6 0.636819 0.338248 0.490657
O O7 0.160143 0.500000 0.500000
O O8 0.108367 0.657710 0.511853
O O9 0.202745 0.657594 0.450328
O O10 0.049233 0.750000 0.681301
O O11 0.149548 0.750000 0.737861
O O12 0.250000 0.250000 0.750000
O O13 0.220802 0.250000 0.047130
#
# Coordination Sequence:
#
# PCOD8301215 Si02
#       7
#     8  16  16   8   4   8   8
#     4  10  22  37  66 100 127 169 235 268 311 396
#     4  11  22  40  67  96 129 173 222 269 325 396
#     4  11  25  44  64  99 138 169 219 279 341 395
#     4  11  25  43  67 101 140 172 214 275 337 398
#     4  12  22  42  68 104 134 174 218 270 330 396
#     4  11  23  46  66  94 129 169 229 283 323 395
#     4  12  21  42  69  89 127 178 217 270 335 394
#
# _framework density 20.014585
#
# number of rings (size 3 to 8) (size 9 to 14) (size 15 to 20)
#    0.000    0.941    4.706    2.118    3.294    3.765 
#    4.235    1.176    0.000    0.000    0.000    0.000 
#    0.000    0.000    0.000    0.000    0.000    0.000 
#
# Total GULP energy -421534.381651 kJ/mol
# GULP energy per Si atom -12398.070049 kJ/mol
# Density = 1.996903 g / cm^3
# Si number density = 20.014585 Si / 1000 Ang^3
#
#
#
# Elastic Constant Matrix: (Units=GPa)
#
#
# Indices 1 2 3 4 5 6 
#
# 1 134.0184 48.1734 19.3475 0.0000 0.0000 0.0000
# 2 48.1734 159.3998 46.5129 0.0000 0.0000 0.0000
# 3 19.3475 46.5129 93.8530 0.0000 0.0000 0.0000
# 4 0.0000 0.0000 0.0000 38.7369 0.0000 0.0000
# 5 0.0000 0.0000 0.0000 0.0000 15.6454 0.0000
# 6 0.0000 0.0000 0.0000 0.0000 0.0000 22.5136
#
#
#
# Elastic Compliance Matrix: (Units=1/GPa)
#
#
# Indices 1 2 3 4 5 6 
#
# 1 0.008396 -0.002376 -0.000553 0.000000 0.000000 0.000000
# 2 -0.002376 0.008006 -0.003478 0.000000 0.000000 0.000000
# 3 -0.000553 -0.003478 0.012493 0.000000 0.000000 0.000000
# 4 0.000000 0.000000 0.000000 0.025815 0.000000 0.000000
# 5 0.000000 0.000000 0.000000 0.000000 0.063917 0.000000
# 6 0.000000 0.000000 0.000000 0.000000 0.000000 0.044418
#
#
# Mechanical properties :
#
#
# Convention : Reuss Voigt Hill
#
# Bulk Modulus (GPa) = 62.18816 68.37097 65.27957
# Shear Modulus (GPa) = 27.59094 33.59499 30.59297
#
# Velocity S-wave (km/s) = 3.71690 4.10143 3.91389
# Velocity P-wave (km/s) = 7.03984 7.52753 7.28776
#
# Compressibility (1/GPa) = 0.01608023
#
# Stress axis : x y z
#
# Youngs Moduli (GPa) = 119.11091 124.89866 80.04618
#
# Poissons Ratio (x) = 0.29674 0.04429
# Poissons Ratio (y) = 0.28299 0.27842
# Poissons Ratio (z) = 0.06590 0.43442
#
# Static dielectric constant tensor:
#      x y z
#    x 4.147540 0.000000 0.000000 
#    y 0.000000 5.880100 0.000000 
#    z 0.000000 0.000000 3.838250 
# 
# 
# High freq. dielectric constant tensor:
#      x y z
#    x 1.791200 0.000000 0.000000 
#    y 0.000000 1.797460 0.000000 
#    z 0.000000 0.000000 1.781410 
# 
# From -- ./inp_files/9103.got.cif
#   From: 2010.03.12/outbox.cif.g09.slc.cpg/sg74_5_cif.got.tgz:9103.got - 2010.04.16 15:46:19.
