data_PCOD8301819
_publ_section_title
;
Structure prediction by ZEFSAII (Michael W. Deem and Ramdas Pophale) SiO2 
 PCOD8301819
Probable space group: I M M A
;
_chemical_formula_sum "Si O2"
_cell_formula_units_Z 52
_cell_length_a 9.000000
_cell_length_b 21.000000
_cell_length_c 30.000000
_cell_angle_alpha 90.000000
_cell_angle_beta 90.000000
_cell_angle_gamma 90.000000
_cell_volume 5670.000000
_symmetry_space_group_name_H-M "I M M A"
_symmetry_group_IT_number 74
_symmetry_cell_setting 'orthorhombic'
loop_
_space_group_symop_operation_xyz
x,y,z
-x,1/2-y,z
x,-y,-z
-x,1/2+y,-z
-x,-y,-z
x,1/2+y,-z
-x,y,z
x,1/2-y,z
1/2+x,1/2+y,1/2+z
1/2-x,-y,1/2+z
1/2+x,1/2-y,1/2-z
1/2-x,y,1/2-z
1/2-x,1/2-y,1/2-z
1/2+x,y,1/2-z
1/2-x,1/2+y,1/2+z
1/2+x,-y,1/2+z
loop_
_atom_site_type_symbol
_atom_site_label
_atom_site_fract_x
_atom_site_fract_y
_atom_site_fract_z
Si Si1 0.823030 0.637414 0.146329
Si Si2 0.331581 0.607651 0.794198
Si Si3 0.830794 0.825605 0.441165
Si Si4 0.824912 0.177403 0.126473
Si Si5 0.164780 0.825634 0.972269
Si Si6 0.329150 0.457064 0.794720
Si Si7 0.178693 0.750000 0.298458
O O1 0.777965 0.643002 0.094808
O O2 0.765674 0.569246 0.163668
O O3 0.734956 0.688755 0.175295
O O4 0.000000 0.645081 0.151370
O O5 0.500000 0.631528 0.791439
O O6 0.250000 0.633386 0.750000
O O7 0.257854 0.634154 0.838366
O O8 0.320935 0.532319 0.797187
O O9 0.817187 0.750000 0.437075
O O10 0.778381 0.849663 0.489890
O O11 0.000000 0.847937 0.433551
O O12 0.773250 0.250000 0.133215
O O13 0.780960 0.152633 0.076853
O O14 0.000000 0.171105 0.133503
O O15 0.155815 0.750000 0.972112
O O16 0.000000 0.853032 0.982332
O O17 0.500000 0.433068 0.795545
O O18 0.250000 0.431403 0.750000
O O19 0.250000 0.750000 0.250000
O O20 0.000000 0.750000 0.295885
#
# Coordination Sequence:
#
# PCOD8301819 Si02
#       7
#    16  16  16  16  16  16   8
#     4  12  23  35  53  76 102 136 175 217 265 314
#     4  10  21  36  56  79 105 139 176 216 258 307
#     4  10  19  31  49  74 105 138 172 215 263 309
#     4   9  18  33  54  81 112 143 173 210 258 309
#     4   8  15  29  49  73 103 138 173 209 252 308
#     4  10  21  38  56  75 100 133 176 219 261 311
#     4  12  24  38  52  72 104 138 172 216 269 318
#
# _framework density 9.1710759999999993
#
# number of rings (size 3 to 8) (size 9 to 14) (size 15 to 20)
#    0.000    2.000    0.769    4.846    0.000    3.692 
#    0.000    1.538    0.000    0.923    0.000    6.462 
#    0.000    0.000    0.000    0.000    0.000    0.000 
#
# Total GULP energy -644786.990380 kJ/mol
# GULP energy per Si atom -12399.749815 kJ/mol
# Density = 0.915020 g / cm^3
# Si number density = 9.171076 Si / 1000 Ang^3
#
#
#
# Elastic Constant Matrix: (Units=GPa)
#
#
# Indices 1 2 3 4 5 6 
#
# 1 139.4551 23.4224 72.0276 0.0000 0.0000 0.0000
# 2 23.4224 16.0880 26.2369 0.0000 0.0000 0.0000
# 3 72.0276 26.2369 152.3059 0.0000 0.0000 0.0000
# 4 0.0000 0.0000 0.0000 17.8957 0.0000 0.0000
# 5 0.0000 0.0000 0.0000 0.0000 38.4480 0.0000
# 6 0.0000 0.0000 0.0000 0.0000 0.0000 25.2505
#
#
#
# Elastic Compliance Matrix: (Units=1/GPa)
#
#
# Indices 1 2 3 4 5 6 
#
# 1 0.010537 -0.010032 -0.003255 0.000000 0.000000 0.000000
# 2 -0.010032 0.095995 -0.011792 0.000000 0.000000 0.000000
# 3 -0.003255 -0.011792 0.010136 0.000000 0.000000 0.000000
# 4 0.000000 0.000000 0.000000 0.055879 0.000000 0.000000
# 5 0.000000 0.000000 0.000000 0.000000 0.026009 0.000000
# 6 0.000000 0.000000 0.000000 0.000000 0.000000 0.039603
#
#
# Mechanical properties :
#
#
# Convention : Reuss Voigt Hill
#
# Bulk Modulus (GPa) = 15.03536 61.24698 38.14117
# Shear Modulus (GPa) = 16.10362 28.72965 22.41664
#
# Velocity S-wave (km/s) = 2.96625 3.96197 3.49970
# Velocity P-wave (km/s) = 4.46615 7.37519 6.09672
#
# Compressibility (1/GPa) = 0.06650987
#
# Stress axis : x y z
#
# Youngs Moduli (GPa) = 94.90495 10.41716 98.65501
#
# Poissons Ratio (x) = 0.10451 0.32110
# Poissons Ratio (y) = 0.95213 1.16335
# Poissons Ratio (z) = 0.30890 0.12284
#
# Static dielectric constant tensor:
#      x y z
#    x 3.610630 0.000000 0.000000 
#    y 0.000000 2.943950 0.000000 
#    z 0.000000 0.000000 3.637310 
# 
# 
# High freq. dielectric constant tensor:
#      x y z
#    x 1.726530 0.000000 0.000000 
#    y 0.000000 1.670480 0.000000 
#    z 0.000000 0.000000 1.725420 
# 
# From -- ./inp_files/70541.got.cif
#   From: 2010.03.12/outbox.ucp.g09.slc.cvg/sg74_36_cif.got.tgz:70541.got - 2010.05.04 20:08:06.
