data_PCOD8301687
_publ_section_title
;
Structure prediction by ZEFSAII (Michael W. Deem and Ramdas Pophale) SiO2 
 PCOD8301687
Probable space group: I M M A
;
_chemical_formula_sum "Si O2"
_cell_formula_units_Z 64
_cell_length_a 10.285864
_cell_length_b 13.985535
_cell_length_c 21.550087
_cell_angle_alpha 90.000000
_cell_angle_beta 90.000000
_cell_angle_gamma 90.000000
_cell_volume 3100.051367
_symmetry_space_group_name_H-M "I M M A"
_symmetry_group_IT_number 74
_symmetry_cell_setting 'orthorhombic'
loop_
_space_group_symop_operation_xyz
x,y,z
-x,1/2-y,z
x,-y,-z
-x,1/2+y,-z
-x,-y,-z
x,1/2+y,-z
-x,y,z
x,1/2-y,z
1/2+x,1/2+y,1/2+z
1/2-x,-y,1/2+z
1/2+x,1/2-y,1/2-z
1/2-x,y,1/2-z
1/2-x,1/2-y,1/2-z
1/2+x,y,1/2-z
1/2-x,1/2+y,1/2+z
1/2+x,-y,1/2+z
loop_
_atom_site_type_symbol
_atom_site_label
_atom_site_fract_x
_atom_site_fract_y
_atom_site_fract_z
Si Si1 0.500000 0.137458 0.489667
Si Si2 0.500000 0.888611 0.991406
Si Si3 0.000000 0.364756 0.870754
Si Si4 0.250438 0.469451 0.822355
Si Si5 0.000000 0.144149 0.632907
Si Si6 0.254344 0.858078 0.587098
O O1 0.500000 0.250000 0.494630
O O2 0.500000 0.095761 0.558924
O O3 0.371627 0.101434 0.454739
O O4 0.374719 0.855631 0.953822
O O5 0.500000 0.841812 0.058900
O O6 0.500000 0.000000 0.000000
O O7 0.874165 0.406010 0.837378
O O8 0.000000 0.250000 0.866281
O O9 0.250000 0.490459 0.750000
O O10 0.374515 0.411188 0.844295
O O11 0.255294 0.573226 0.854030
O O12 0.000000 0.250000 0.662671
O O13 0.282898 0.750000 0.610571
#
# Coordination Sequence:
#
# PCOD8301687 Si02
#       6
#     8   8   8  16   8  16
#     4   9  21  39  64  97 123 153 201 253 319 379
#     4  12  22  41  66  98 127 162 203 263 325 378
#     4  11  24  42  65  93 126 163 204 261 319 373
#     4  12  26  42  62  91 125 171 219 252 303 373
#     4  12  25  42  65  93 127 163 208 264 318 374
#     4  11  23  42  66  95 129 163 205 262 318 372
#
# _framework density 20.644818999999998
#
# number of rings (size 3 to 8) (size 9 to 14) (size 15 to 20)
#    0.000    0.750    2.500    4.875    0.000    6.500 
#    0.000    0.000    0.000    6.000    0.000    0.000 
#    0.000    0.000    0.000    0.000    0.000    0.000 
#
# Total GULP energy -396914.900262 kJ/mol
# GULP energy per Si atom -12403.590633 kJ/mol
# Density = 2.059783 g / cm^3
# Si number density = 20.644819 Si / 1000 Ang^3
#
#
#
# Elastic Constant Matrix: (Units=GPa)
#
#
# Indices 1 2 3 4 5 6 
#
# 1 186.4560 41.7137 74.4325 0.0000 0.0000 0.0000
# 2 41.7137 142.4554 56.5748 0.0000 0.0000 0.0000
# 3 74.4325 56.5748 182.7056 0.0000 0.0000 0.0000
# 4 0.0000 0.0000 0.0000 224.6402 0.0000 0.0000
# 5 0.0000 0.0000 0.0000 0.0000 90.6957 0.0000
# 6 0.0000 0.0000 0.0000 0.0000 0.0000 34.1740
#
#
#
# Elastic Compliance Matrix: (Units=1/GPa)
#
#
# Indices 1 2 3 4 5 6 
#
# 1 0.006521 -0.000974 -0.002355 0.000000 0.000000 0.000000
# 2 -0.000974 0.008150 -0.002127 0.000000 0.000000 0.000000
# 3 -0.002355 -0.002127 0.007091 0.000000 0.000000 0.000000
# 4 0.000000 0.000000 0.000000 0.004452 0.000000 0.000000
# 5 0.000000 0.000000 0.000000 0.000000 0.011026 0.000000
# 6 0.000000 0.000000 0.000000 0.000000 0.000000 0.029262
#
#
# Mechanical properties :
#
#
# Convention : Reuss Voigt Hill
#
# Bulk Modulus (GPa) = 92.16377 95.22878 93.69627
# Shear Modulus (GPa) = 61.70552 92.49506 77.10029
#
# Velocity S-wave (km/s) = 5.47302 6.70077 6.11777
# Velocity P-wave (km/s) = 9.20207 10.30021 9.76659
#
# Compressibility (1/GPa) = 0.01085025
#
# Stress axis : x y z
#
# Youngs Moduli (GPa) = 153.34434 122.70558 141.01988
#
# Poissons Ratio (x) = 0.11955 0.33210
# Poissons Ratio (y) = 0.14940 0.29989
# Poissons Ratio (z) = 0.36113 0.26095
#
# Static dielectric constant tensor:
#      x y z
#    x 3.955120 0.000000 0.000000 
#    y 0.000000 3.780380 0.000000 
#    z 0.000000 0.000000 3.849110 
# 
# 
# High freq. dielectric constant tensor:
#      x y z
#    x 1.828780 0.000000 0.000000 
#    y 0.000000 1.828680 0.000000 
#    z 0.000000 0.000000 1.800960 
# 
# From -- ./inp_files/56515.got.cif
#   From: 2010.03.12/outbox.cif.g09.slc.cpg/sg74_29_cif.got.tgz:56515.got - 2010.04.16 15:46:19.
