data_PCOD8301989
_publ_section_title
;
Structure prediction by ZEFSAII (Michael W. Deem and Ramdas Pophale) SiO2 
 PCOD8301989
Probable space group: P 42
;
_chemical_formula_sum "Si O2"
_cell_formula_units_Z 24
_cell_length_a 8.292398
_cell_length_b 8.292398
_cell_length_c 16.129560
_cell_angle_alpha 90.000000
_cell_angle_beta 90.000000
_cell_angle_gamma 90.000000
_cell_volume 1109.130880
_symmetry_space_group_name_H-M "P 42"
_symmetry_group_IT_number 77
_symmetry_cell_setting 'tetragonal'
loop_
_space_group_symop_operation_xyz
x,y,z
-y,x,1/2+z
-x,-y,z
y,-x,1/2+z
loop_
_atom_site_type_symbol
_atom_site_label
_atom_site_fract_x
_atom_site_fract_y
_atom_site_fract_z
Si Si1 0.238686 0.772924 0.614300
Si Si2 0.952248 0.326341 0.767434
Si Si3 0.206471 0.797724 0.910120
Si Si4 0.543758 0.812951 0.969533
Si Si5 0.738121 0.880665 0.811510
Si Si6 0.000000 0.500000 0.179143
Si Si7 0.000000 0.000000 0.029661
O O1 0.191855 0.726001 0.706927
O O2 0.266829 0.622461 0.551451
O O3 0.397041 0.884426 0.618352
O O4 0.079198 0.862948 0.583875
O O5 0.873795 0.347503 0.858794
O O6 0.000000 0.500000 0.733666
O O7 0.103540 0.204536 0.774578
O O8 0.371706 0.730318 0.950051
O O9 0.227177 0.938279 0.841263
O O10 0.080252 0.857474 0.977630
O O11 0.663939 0.787902 0.891411
O O12 0.500000 0.000000 0.984318
O O13 0.611482 0.886419 0.736272
#
# Coordination Sequence:
#
# PCOD8301989 Si02
#       7
#     4   4   4   4   4   2   2
#     4  12  24  40  63 104 134 177 220 288 346 389
#     4  12  25  40  68 102 137 170 229 283 335 402
#     4  11  20  42  71  96 123 180 233 275 329 403
#     4  10  19  40  69  91 133 169 219 277 344 393
#     4  11  19  43  70  94 122 178 229 273 323 402
#     4  12  24  42  72  96 140 178 230 282 334 408
#     4  12  22  38  72  96 128 168 246 288 316 392
#
# _framework density 21.638566000000001
#
# number of rings (size 3 to 8) (size 9 to 14) (size 15 to 20)
#    0.000    0.667    9.167    1.500    0.000    0.000 
#    6.000    3.333    0.000    0.000    0.000    0.000 
#    0.000    0.000    0.000    0.000    0.000    0.000 
#
# Total GULP energy -297526.073078 kJ/mol
# GULP energy per Si atom -12396.919712 kJ/mol
# Density = 2.158932 g / cm^3
# Si number density = 21.638566 Si / 1000 Ang^3
#
#
#
# Elastic Constant Matrix: (Units=GPa)
#
#
# Indices 1 2 3 4 5 6 
#
# 1 88.1600 26.7871 38.3780 0.0000 0.0000 1.3940
# 2 26.7871 88.1600 38.3780 0.0000 0.0000 -1.3940
# 3 38.3780 38.3780 103.1414 0.0000 0.0000 0.0000
# 4 0.0000 0.0000 0.0000 -89.6265 0.0000 0.0000
# 5 0.0000 0.0000 0.0000 0.0000 -89.6265 0.0000
# 6 1.3940 -1.3940 0.0000 0.0000 0.0000 24.3258
#
#
#
# Elastic Compliance Matrix: (Units=1/GPa)
#
#
# Indices 1 2 3 4 5 6 
#
# 1 0.013956 -0.002380 -0.004307 0.000000 0.000000 -0.000936
# 2 -0.002380 0.013956 -0.004307 0.000000 0.000000 0.000936
# 3 -0.004307 -0.004307 0.012901 0.000000 0.000000 0.000000
# 4 0.000000 0.000000 0.000000 -0.011157 0.000000 0.000000
# 5 0.000000 0.000000 0.000000 0.000000 -0.011157 0.000000
# 6 -0.000936 0.000936 0.000000 0.000000 0.000000 0.041216
#
#
# Mechanical properties :
#
#
# Convention : Reuss Voigt Hill
#
# Bulk Modulus (GPa) = 53.12531 54.06086 53.59308
# Shear Modulus (GPa) = 56.83234 -19.25753 18.78740
#
# Velocity S-wave (km/s) = 5.13044 -2.98646 2.94978
# Velocity P-wave (km/s) = 7.72656 3.62572 6.03513
#
# Compressibility (1/GPa) = 0.01882342
#
# Stress axis : x y z
#
# Youngs Moduli (GPa) = 71.65330 71.65330 77.51444
#
# Poissons Ratio (x) = 0.17055 0.33388
# Poissons Ratio (y) = 0.17055 0.33388
# Poissons Ratio (z) = 0.30863 0.30863
#
# Static dielectric constant tensor:
#      x y z
#    x 5.608800 0.000000 0.000000 
#    y 0.000000 5.608800 0.000000 
#    z 0.000000 0.000000 3.999540 
# 
# 
# High freq. dielectric constant tensor:
#      x y z
#    x 1.834410 0.000000 0.000000 
#    y 0.000000 1.834410 0.000000 
#    z 0.000000 0.000000 1.860670 
# 
# From -- ./inp_files/1132.got.cif
#   From: 2010.03.12/outbox.cif.g09.slc.cpg/sg77_cif.got.tgz:1132.got - 2010.04.16 16:36:19.
