data_PCOD8301283
_publ_section_title
;
Structure prediction by ZEFSAII (Michael W. Deem and Ramdas Pophale) SiO2 
 PCOD8301283
Probable space group: I M M A
;
_chemical_formula_sum "Si O2"
_cell_formula_units_Z 80
_cell_length_a 25.479396
_cell_length_b 8.968101
_cell_length_c 20.488848
_cell_angle_alpha 90.000000
_cell_angle_beta 90.000000
_cell_angle_gamma 90.000000
_cell_volume 4681.738581
_symmetry_space_group_name_H-M "I M M A"
_symmetry_group_IT_number 74
_symmetry_cell_setting 'orthorhombic'
loop_
_space_group_symop_operation_xyz
x,y,z
-x,1/2-y,z
x,-y,-z
-x,1/2+y,-z
-x,-y,-z
x,1/2+y,-z
-x,y,z
x,1/2-y,z
1/2+x,1/2+y,1/2+z
1/2-x,-y,1/2+z
1/2+x,1/2-y,1/2-z
1/2-x,y,1/2-z
1/2-x,1/2-y,1/2-z
1/2+x,y,1/2-z
1/2-x,1/2+y,1/2+z
1/2+x,-y,1/2+z
loop_
_atom_site_type_symbol
_atom_site_label
_atom_site_fract_x
_atom_site_fract_y
_atom_site_fract_z
Si Si1 0.339775 0.420935 0.296885
Si Si2 0.061890 0.421607 0.433881
Si Si3 0.175074 0.920153 0.937934
Si Si4 0.248054 0.574320 0.354326
Si Si5 0.629053 0.925155 0.175155
O O1 0.333767 0.250000 0.274594
O O2 0.361250 0.430884 0.372247
O O3 0.282398 0.501223 0.295400
O O4 0.378829 0.506414 0.247707
O O5 0.081708 0.500000 0.500000
O O6 0.079247 0.250000 0.436467
O O7 0.087263 0.501258 0.372213
O O8 0.000000 0.439247 0.426069
O O9 0.187024 0.750000 0.955877
O O10 0.230361 0.004689 0.922532
O O11 0.147635 0.000000 0.000000
O O12 0.257198 0.750000 0.352520
O O13 0.187280 0.532157 0.348548
O O14 0.619023 0.750000 0.177470
#
# Coordination Sequence:
#
# PCOD8301283 Si02
#       5
#    16  16  16  16  16
#     4   9  19  31  46  69  97 130 166 204 245 290
#     4  10  22  40  59  76  97 126 162 209 261 308
#     4   9  18  29  43  62  90 130 166 199 238 277
#     4   9  18  30  44  65  95 128 164 202 242 290
#     4  11  21  32  51  74  96 127 163 203 250 300
#
# _framework density 17.087669999999999
#
# number of rings (size 3 to 8) (size 9 to 14) (size 15 to 20)
#    1.200    1.200    0.000    3.000    0.000    7.600 
#    0.000    0.000    0.000    0.000    0.000    0.000 
#    0.000    0.800    0.000    2.600    0.000    3.200 
#
# Total GULP energy -495611.405595 kJ/mol
# GULP energy per Si atom -12390.285140 kJ/mol
# Density = 1.704878 g / cm^3
# Si number density = 17.087670 Si / 1000 Ang^3
#
#
#
# Elastic Constant Matrix: (Units=GPa)
#
#
# Indices 1 2 3 4 5 6 
#
# 1 21.5602 27.9572 27.1622 0.0000 0.0000 0.0000
# 2 27.9572 133.4956 68.8578 0.0000 0.0000 0.0000
# 3 27.1622 68.8578 127.8617 0.0000 0.0000 0.0000
# 4 0.0000 0.0000 0.0000 37.0348 0.0000 0.0000
# 5 0.0000 0.0000 0.0000 0.0000 23.3735 0.0000
# 6 0.0000 0.0000 0.0000 0.0000 0.0000 21.5338
#
#
#
# Elastic Compliance Matrix: (Units=1/GPa)
#
#
# Indices 1 2 3 4 5 6 
#
# 1 0.071699 -0.009913 -0.009893 0.000000 0.000000 0.000000
# 2 -0.009913 0.011742 -0.004218 0.000000 0.000000 0.000000
# 3 -0.009893 -0.004218 0.012194 0.000000 0.000000 0.000000
# 4 0.000000 0.000000 0.000000 0.027002 0.000000 0.000000
# 5 0.000000 0.000000 0.000000 0.000000 0.042784 0.000000
# 6 0.000000 0.000000 0.000000 0.000000 0.000000 0.046439
#
#
# Mechanical properties :
#
#
# Convention : Reuss Voigt Hill
#
# Bulk Modulus (GPa) = 21.01347 58.98576 39.99962
# Shear Modulus (GPa) = 18.13107 26.98443 22.55775
#
# Velocity S-wave (km/s) = 3.26093 3.97820 3.63729
# Velocity P-wave (km/s) = 5.14804 7.46296 6.41086
#
# Compressibility (1/GPa) = 0.04758851
#
# Stress axis : x y z
#
# Youngs Moduli (GPa) = 13.94714 85.16101 82.00697
#
# Poissons Ratio (x) = 0.84417 0.81130
# Poissons Ratio (y) = 0.13825 0.34590
# Poissons Ratio (z) = 0.13798 0.35920
#
# Static dielectric constant tensor:
#      x y z
#    x 2.663840 0.000000 0.000000 
#    y 0.000000 3.328250 0.000000 
#    z 0.000000 0.000000 3.293760 
# 
# 
# High freq. dielectric constant tensor:
#      x y z
#    x 1.591090 0.000000 0.000000 
#    y 0.000000 1.683020 0.000000 
#    z 0.000000 0.000000 1.669510 
# 
# From -- ./inp_files/55494.got.cif
#   From: 2010.03.12/outbox.cif.g09.slc.cpg/sg74_28_cif.got.tgz:55494.got - 2010.04.16 15:46:19.
