data_PCOD8301319
_publ_section_title
;
Structure prediction by ZEFSAII (Michael W. Deem and Ramdas Pophale) SiO2 
 PCOD8301319
Probable space group: I M M A
;
_chemical_formula_sum "Si O2"
_cell_formula_units_Z 80
_cell_length_a 19.480300
_cell_length_b 10.670782
_cell_length_c 19.450071
_cell_angle_alpha 90.000000
_cell_angle_beta 90.000000
_cell_angle_gamma 90.000000
_cell_volume 4043.086932
_symmetry_space_group_name_H-M "I M M A"
_symmetry_group_IT_number 74
_symmetry_cell_setting 'orthorhombic'
loop_
_space_group_symop_operation_xyz
x,y,z
-x,1/2-y,z
x,-y,-z
-x,1/2+y,-z
-x,-y,-z
x,1/2+y,-z
-x,y,z
x,1/2-y,z
1/2+x,1/2+y,1/2+z
1/2-x,-y,1/2+z
1/2+x,1/2-y,1/2-z
1/2-x,y,1/2-z
1/2-x,1/2-y,1/2-z
1/2+x,y,1/2-z
1/2-x,1/2+y,1/2+z
1/2+x,-y,1/2+z
loop_
_atom_site_type_symbol
_atom_site_label
_atom_site_fract_x
_atom_site_fract_y
_atom_site_fract_z
Si Si1 0.418582 0.004665 0.826664
Si Si2 0.828851 0.105619 0.557382
Si Si3 0.075782 0.606124 0.182298
Si Si4 0.352584 0.250000 0.196733
Si Si5 0.818570 0.991869 0.078967
Si Si6 0.695642 0.750000 0.654711
O O1 0.500000 0.013918 0.835011
O O2 0.391436 0.865240 0.838361
O O3 0.384838 0.096524 0.882480
O O4 0.393905 0.040894 0.750244
O O5 0.830406 0.250000 0.528595
O O6 0.754170 0.076813 0.588829
O O7 0.845655 0.000000 0.500000
O O8 0.069874 0.750000 0.201017
O O9 0.124728 0.588921 0.117619
O O10 0.000000 0.551812 0.164811
O O11 0.355977 0.250000 0.279980
O O12 0.273874 0.250000 0.176725
O O13 0.818732 0.130590 0.108537
O O14 0.839931 0.000000 0.000000
#
# Coordination Sequence:
#
# PCOD8301319 Si02
#       6
#    16  16  16   8  16   8
#     4  11  23  41  65  91 127 167 211 265 321 380
#     4  11  26  43  66  96 129 166 215 267 323 390
#     4  10  22  41  62  88 122 163 210 258 315 384
#     4  11  21  40  64  96 129 165 212 266 327 380
#     4  11  24  39  65  90 129 165 210 260 323 377
#     4  11  22  40  64  98 128 163 208 276 320 380
#
# _framework density 19.786861999999999
#
# number of rings (size 3 to 8) (size 9 to 14) (size 15 to 20)
#    0.000    1.200    4.000    1.500    8.400    2.800 
#    0.000    2.500    0.000    0.000    0.000    0.000 
#    0.000    0.000    0.000    0.000    0.000    0.000 
#
# Total GULP energy -496066.843475 kJ/mol
# GULP energy per Si atom -12401.671087 kJ/mol
# Density = 1.974183 g / cm^3
# Si number density = 19.786862 Si / 1000 Ang^3
#
#
#
# Elastic Constant Matrix: (Units=GPa)
#
#
# Indices 1 2 3 4 5 6 
#
# 1 89.2378 14.5730 47.7591 0.0000 0.0000 0.0000
# 2 14.5730 114.4126 23.1258 0.0000 0.0000 0.0000
# 3 47.7591 23.1258 90.5965 0.0000 0.0000 0.0000
# 4 0.0000 0.0000 0.0000 37.5180 0.0000 0.0000
# 5 0.0000 0.0000 0.0000 0.0000 34.4237 0.0000
# 6 0.0000 0.0000 0.0000 0.0000 0.0000 27.7498
#
#
#
# Elastic Compliance Matrix: (Units=1/GPa)
#
#
# Indices 1 2 3 4 5 6 
#
# 1 0.015623 -0.000343 -0.008148 0.000000 0.000000 0.000000
# 2 -0.000343 0.009223 -0.002174 0.000000 0.000000 0.000000
# 3 -0.008148 -0.002174 0.015888 0.000000 0.000000 0.000000
# 4 0.000000 0.000000 0.000000 0.026654 0.000000 0.000000
# 5 0.000000 0.000000 0.000000 0.000000 0.029050 0.000000
# 6 0.000000 0.000000 0.000000 0.000000 0.000000 0.036036
#
#
# Mechanical properties :
#
#
# Convention : Reuss Voigt Hill
#
# Bulk Modulus (GPa) = 51.53342 51.68475 51.60909
# Shear Modulus (GPa) = 31.19691 33.85755 32.52723
#
# Velocity S-wave (km/s) = 3.97501 4.14105 4.05888
# Velocity P-wave (km/s) = 6.86793 7.00299 6.93578
#
# Compressibility (1/GPa) = 0.01940488
#
# Stress axis : x y z
#
# Youngs Moduli (GPa) = 64.00867 108.42085 62.93959
#
# Poissons Ratio (x) = 0.03718 0.51285
# Poissons Ratio (y) = 0.02195 0.13680
# Poissons Ratio (z) = 0.52156 0.23566
#
# Static dielectric constant tensor:
#      x y z
#    x 3.604010 0.000000 0.000000 
#    y 0.000000 3.611760 0.000000 
#    z 0.000000 0.000000 3.610100 
# 
# 
# High freq. dielectric constant tensor:
#      x y z
#    x 1.768850 0.000000 0.000000 
#    y 0.000000 1.785430 0.000000 
#    z 0.000000 0.000000 1.772380 
# 
# From -- ./inp_files/45079.got.cif
#   From: 2010.03.12/outbox.cif.g09.slc.cpg/sg74_23_cif.got.tgz:45079.got - 2010.04.16 15:46:19.
