data_PCOD8301138
_publ_section_title
;
Structure prediction by ZEFSAII (Michael W. Deem and Ramdas Pophale) SiO2 
 PCOD8301138
Probable space group: I M M A
;
_chemical_formula_sum "Si O2"
_cell_formula_units_Z 96
_cell_length_a 22.136271
_cell_length_b 18.229795
_cell_length_c 11.983533
_cell_angle_alpha 90.000000
_cell_angle_beta 90.000000
_cell_angle_gamma 90.000000
_cell_volume 4835.831101
_symmetry_space_group_name_H-M "I M M A"
_symmetry_group_IT_number 74
_symmetry_cell_setting 'orthorhombic'
loop_
_space_group_symop_operation_xyz
x,y,z
-x,1/2-y,z
x,-y,-z
-x,1/2+y,-z
-x,-y,-z
x,1/2+y,-z
-x,y,z
x,1/2-y,z
1/2+x,1/2+y,1/2+z
1/2-x,-y,1/2+z
1/2+x,1/2-y,1/2-z
1/2-x,y,1/2-z
1/2-x,1/2-y,1/2-z
1/2+x,y,1/2-z
1/2-x,1/2+y,1/2+z
1/2+x,-y,1/2+z
loop_
_atom_site_type_symbol
_atom_site_label
_atom_site_fract_x
_atom_site_fract_y
_atom_site_fract_z
Si Si1 0.821995 0.665909 0.033417
Si Si2 0.500000 0.887257 0.946479
Si Si3 0.189399 0.332942 0.601152
Si Si4 0.314926 0.422806 0.306625
Si Si5 0.874586 0.167668 0.376062
Si Si6 0.874354 0.425434 0.787115
Si Si7 0.500000 0.959715 0.179665
O O1 0.837473 0.750000 0.003958
O O2 0.761669 0.660513 0.109193
O O3 0.875183 0.631952 0.109917
O O4 0.813641 0.621100 0.921020
O O5 0.557570 0.838384 0.919415
O O6 0.500000 0.959726 0.871766
O O7 0.500000 0.902407 0.078436
O O8 0.168670 0.250000 0.632210
O O9 0.171181 0.352635 0.475033
O O10 0.157287 0.391298 0.679194
O O11 0.250000 0.419168 0.250000
O O12 0.364362 0.387139 0.225541
O O13 0.335193 0.505626 0.328720
O O14 0.862246 0.250000 0.334078
O O15 0.942270 0.447992 0.758149
#
# Coordination Sequence:
#
# PCOD8301138 Si02
#       7
#    16   8  16  16  16  16   8
#     4  11  24  43  64  91 130 171 207 254 320 385
#     4  11  21  44  63  93 131 169 207 256 320 372
#     4  10  21  39  65  96 129 164 202 257 321 380
#     4  12  24  40  65  96 129 164 209 260 315 378
#     4  11  22  38  65  98 130 164 207 255 311 378
#     4  12  24  42  63  94 127 164 214 264 318 374
#     4  11  24  40  66  90 127 167 208 270 319 366
#
# _framework density 19.85181
#
# number of rings (size 3 to 8) (size 9 to 14) (size 15 to 20)
#    0.000    0.833    5.000    3.250    0.000    2.667 
#    0.000    4.167    0.000    0.000    0.000    0.000 
#    0.000    0.000    0.000    0.000    0.000    0.000 
#
# Total GULP energy -595460.589092 kJ/mol
# GULP energy per Si atom -12405.428939 kJ/mol
# Density = 1.980663 g / cm^3
# Si number density = 19.851810 Si / 1000 Ang^3
#
#
#
# Elastic Constant Matrix: (Units=GPa)
#
#
# Indices 1 2 3 4 5 6 
#
# 1 74.9695 18.6689 32.6447 0.0000 0.0000 0.0000
# 2 18.6689 113.2720 51.0437 0.0000 0.0000 0.0000
# 3 32.6447 51.0437 73.6026 0.0000 0.0000 0.0000
# 4 0.0000 0.0000 0.0000 38.1504 0.0000 0.0000
# 5 0.0000 0.0000 0.0000 0.0000 29.0840 0.0000
# 6 0.0000 0.0000 0.0000 0.0000 0.0000 29.2453
#
#
#
# Elastic Compliance Matrix: (Units=1/GPa)
#
#
# Indices 1 2 3 4 5 6 
#
# 1 0.016587 0.000846 -0.007943 0.000000 0.000000 0.000000
# 2 0.000846 0.012885 -0.009311 0.000000 0.000000 0.000000
# 3 -0.007943 -0.009311 0.023566 0.000000 0.000000 0.000000
# 4 0.000000 0.000000 0.000000 0.026212 0.000000 0.000000
# 5 0.000000 0.000000 0.000000 0.000000 0.034383 0.000000
# 6 0.000000 0.000000 0.000000 0.000000 0.000000 0.034193
#
#
# Mechanical properties :
#
#
# Convention : Reuss Voigt Hill
#
# Bulk Modulus (GPa) = 49.45186 51.83987 50.64586
# Shear Modulus (GPa) = 26.68326 29.92840 28.30583
#
# Velocity S-wave (km/s) = 3.67020 3.88698 3.78015
# Velocity P-wave (km/s) = 6.55173 6.80551 6.67982
#
# Compressibility (1/GPa) = 0.02022169
#
# Stress axis : x y z
#
# Youngs Moduli (GPa) = 60.28828 77.61242 42.43329
#
# Poissons Ratio (x) = -0.06563 0.33706
# Poissons Ratio (y) = -0.05098 0.39508
# Poissons Ratio (z) = 0.47888 0.72261
#
# Static dielectric constant tensor:
#      x y z
#    x 3.533430 0.000000 0.000000 
#    y 0.000000 3.697110 0.000000 
#    z 0.000000 0.000000 3.550430 
# 
# 
# High freq. dielectric constant tensor:
#      x y z
#    x 1.765960 0.000000 0.000000 
#    y 0.000000 1.788140 0.000000 
#    z 0.000000 0.000000 1.775560 
# 
# From -- ./inp_files/25213.got.cif
#   From: 2010.03.12/outbox.cif.g09.slc.cpg/sg74_13_cif.got.tgz:25213.got - 2010.04.16 15:46:19.
