data_PCOD8301642
_publ_section_title
;
Structure prediction by ZEFSAII (Michael W. Deem and Ramdas Pophale) SiO2 
 PCOD8301642
Probable space group: I M M A
;
_chemical_formula_sum "Si O2"
_cell_formula_units_Z 64
_cell_length_a 8.706415
_cell_length_b 11.894795
_cell_length_c 30.493814
_cell_angle_alpha 90.000000
_cell_angle_beta 90.000000
_cell_angle_gamma 90.000000
_cell_volume 3157.970531
_symmetry_space_group_name_H-M "I M M A"
_symmetry_group_IT_number 74
_symmetry_cell_setting 'orthorhombic'
loop_
_space_group_symop_operation_xyz
x,y,z
-x,1/2-y,z
x,-y,-z
-x,1/2+y,-z
-x,-y,-z
x,1/2+y,-z
-x,y,z
x,1/2-y,z
1/2+x,1/2+y,1/2+z
1/2-x,-y,1/2+z
1/2+x,1/2-y,1/2-z
1/2-x,y,1/2-z
1/2-x,1/2-y,1/2-z
1/2+x,y,1/2-z
1/2-x,1/2+y,1/2+z
1/2+x,-y,1/2+z
loop_
_atom_site_type_symbol
_atom_site_label
_atom_site_fract_x
_atom_site_fract_y
_atom_site_fract_z
Si Si1 0.321706 0.618379 0.625684
Si Si2 0.825483 0.750000 0.183226
Si Si3 0.181041 0.984759 0.294583
Si Si4 0.825153 0.750000 0.079438
Si Si5 0.320360 0.020257 0.949673
O O1 0.500000 0.589571 0.631701
O O2 0.288274 0.750000 0.627299
O O3 0.230090 0.559316 0.664419
O O4 0.267276 0.572685 0.578829
O O5 0.739761 0.641789 0.201314
O O6 0.821555 0.750000 0.131297
O O7 0.000000 0.750000 0.200577
O O8 0.250000 0.038078 0.250000
O O9 0.000000 0.984918 0.291554
O O10 0.735235 0.643388 0.062096
O O11 0.000000 0.750000 0.062042
O O12 0.500000 0.009474 0.939964
O O13 0.279853 0.000000 0.000000
#
# Coordination Sequence:
#
# PCOD8301642 Si02
#       5
#    16   8  16   8  16
#     4  11  25  45  67  94 128 168 215 266 318 379
#     4  11  22  40  65  97 133 167 210 263 319 379
#     4  12  25  42  67  96 129 169 212 262 319 380
#     4  11  23  40  68  97 130 171 213 264 319 378
#     4  11  25  43  66  97 132 170 214 265 319 380
#
# _framework density 20.266181
#
# number of rings (size 3 to 8) (size 9 to 14) (size 15 to 20)
#    0.000    0.750    2.500    4.875    1.750    5.500 
#    0.000    0.000    0.000    0.000    0.000    0.000 
#    0.000    0.000    0.000    0.000    0.000    0.000 
#
# Total GULP energy -397021.234315 kJ/mol
# GULP energy per Si atom -12406.913572 kJ/mol
# Density = 2.022005 g / cm^3
# Si number density = 20.266181 Si / 1000 Ang^3
#
#
#
# Elastic Constant Matrix: (Units=GPa)
#
#
# Indices 1 2 3 4 5 6 
#
# 1 150.7128 65.5636 65.9894 0.0000 0.0000 0.0000
# 2 65.5636 103.7341 55.0459 0.0000 0.0000 0.0000
# 3 65.9894 55.0459 127.8140 0.0000 0.0000 0.0000
# 4 0.0000 0.0000 0.0000 26.0253 0.0000 0.0000
# 5 0.0000 0.0000 0.0000 0.0000 38.9999 0.0000
# 6 0.0000 0.0000 0.0000 0.0000 0.0000 -13.6321
#
#
#
# Elastic Compliance Matrix: (Units=1/GPa)
#
#
# Indices 1 2 3 4 5 6 
#
# 1 0.010060 -0.004669 -0.003183 0.000000 0.000000 0.000000
# 2 -0.004669 0.014663 -0.003904 0.000000 0.000000 0.000000
# 3 -0.003183 -0.003904 0.011149 0.000000 0.000000 0.000000
# 4 0.000000 0.000000 0.000000 0.038424 0.000000 0.000000
# 5 0.000000 0.000000 0.000000 0.000000 0.025641 0.000000
# 6 0.000000 0.000000 0.000000 0.000000 0.000000 -0.073356
#
#
# Mechanical properties :
#
#
# Convention : Reuss Voigt Hill
#
# Bulk Modulus (GPa) = 80.91477 83.93985 82.42731
# Shear Modulus (GPa) = 92.22818 23.32274 57.77546
#
# Velocity S-wave (km/s) = 6.75331 3.39605 5.34511
# Velocity P-wave (km/s) = 10.04103 7.54229 8.87999
#
# Compressibility (1/GPa) = 0.01235868
#
# Stress axis : x y z
#
# Youngs Moduli (GPa) = 99.40305 68.19933 89.69687
#
# Poissons Ratio (x) = 0.31844 0.28551
# Poissons Ratio (y) = 0.46414 0.35019
# Poissons Ratio (z) = 0.31640 0.26626
#
# Static dielectric constant tensor:
#      x y z
#    x 3.921230 0.000000 0.000000 
#    y 0.000000 3.681870 0.000000 
#    z 0.000000 0.000000 4.067720 
# 
# 
# High freq. dielectric constant tensor:
#      x y z
#    x 1.812080 0.000000 0.000000 
#    y 0.000000 1.797240 0.000000 
#    z 0.000000 0.000000 1.810690 
# 
# From -- ./inp_files/69741.got.cif
#   From: 2010.03.12/outbox.cif.g09.slc.cpg/sg74_35_cif.got.tgz:69741.got - 2010.04.16 15:46:19.
