data_PCOD8301941
_publ_section_title
;
Structure prediction by ZEFSAII (Michael W. Deem and Ramdas Pophale) SiO2 
 PCOD8301941
Probable space group: P 41
;
_chemical_formula_sum "Si O2"
_cell_formula_units_Z 28
_cell_length_a 8.435726
_cell_length_b 8.435726
_cell_length_c 17.635605
_cell_angle_alpha 90.000000
_cell_angle_beta 90.000000
_cell_angle_gamma 90.000000
_cell_volume 1254.975632
_symmetry_space_group_name_H-M "P 41"
_symmetry_group_IT_number 76
_symmetry_cell_setting 'tetragonal'
loop_
_space_group_symop_operation_xyz
x,y,z
-y,x,1/4+z
-x,-y,1/2+z
y,-x,3/4+z
loop_
_atom_site_type_symbol
_atom_site_label
_atom_site_fract_x
_atom_site_fract_y
_atom_site_fract_z
Si Si1 0.510294 0.504394 0.878670
Si Si2 0.170209 0.540753 0.454327
Si Si3 0.693137 0.653955 0.742323
Si Si4 0.744084 0.985826 0.078036
Si Si5 0.998210 0.269933 0.535714
Si Si6 0.456353 0.020411 0.439980
Si Si7 0.806647 0.326908 0.106626
O O1 0.640593 0.475122 0.944500
O O2 0.586083 0.616858 0.815283
O O3 0.354979 0.584257 0.917178
O O4 0.444168 0.342035 0.845481
O O5 0.110377 0.613845 0.375293
O O6 0.115653 0.656957 0.522883
O O7 0.096493 0.367147 0.472073
O O8 0.774060 0.827288 0.749520
O O9 0.819664 0.515133 0.729361
O O10 0.901942 0.884575 0.059951
O O11 0.783663 0.143039 0.126122
O O12 0.669446 0.050876 0.999325
O O13 0.958210 0.373294 0.609316
O O14 0.607875 0.908406 0.426963
#
# Coordination Sequence:
#
# PCOD8301941 Si02
#       7
#     4   4   4   4   4   4   4
#     4  12  22  44  73 100 137 189 244 296 358 443
#     4  11  22  44  68 100 136 193 245 289 356 455
#     4  12  24  43  71 106 140 184 243 310 360 439
#     4  12  24  45  71 104 146 197 240 310 379 435
#     4  11  26  44  69 104 148 191 245 305 381 442
#     4  11  25  43  69 104 136 189 248 292 375 447
#     4  11  25  43  67 102 141 181 239 304 359 445
#
# _framework density 22.311191999999998
#
# number of rings (size 3 to 8) (size 9 to 14) (size 15 to 20)
#    0.000    0.571    4.286    5.143    0.000    2.286 
#    0.000    0.000    0.000    0.000    0.000    0.000 
#    0.000    0.000    0.000    0.000    0.000    0.000 
#
# Total GULP energy -347130.979003 kJ/mol
# GULP energy per Si atom -12397.534964 kJ/mol
# Density = 2.226041 g / cm^3
# Si number density = 22.311192 Si / 1000 Ang^3
#
#
#
# Elastic Constant Matrix: (Units=GPa)
#
#
# Indices 1 2 3 4 5 6 
#
# 1 115.2209 33.3195 42.9758 0.0000 0.0000 -6.4571
# 2 33.3195 115.2209 42.9758 0.0000 0.0000 6.4571
# 3 42.9758 42.9758 101.3719 0.0000 0.0000 0.0000
# 4 0.0000 0.0000 0.0000 33.3725 0.0000 0.0000
# 5 0.0000 0.0000 0.0000 0.0000 33.3725 0.0000
# 6 -6.4571 6.4571 0.0000 0.0000 0.0000 37.6167
#
#
#
# Elastic Compliance Matrix: (Units=1/GPa)
#
#
# Indices 1 2 3 4 5 6 
#
# 1 0.010735 -0.001815 -0.003782 0.000000 0.000000 0.002154
# 2 -0.001815 0.010735 -0.003782 0.000000 0.000000 -0.002154
# 3 -0.003782 -0.003782 0.013071 0.000000 0.000000 0.000000
# 4 0.000000 0.000000 0.000000 0.029965 0.000000 0.000000
# 5 0.000000 0.000000 0.000000 0.000000 0.029965 0.000000
# 6 0.002154 -0.002154 0.000000 0.000000 0.000000 0.027324
#
#
# Mechanical properties :
#
#
# Convention : Reuss Voigt Hill
#
# Bulk Modulus (GPa) = 63.35110 63.37288 63.36199
# Shear Modulus (GPa) = 34.29076 35.04184 34.66630
#
# Velocity S-wave (km/s) = 3.92462 3.96737 3.94606
# Velocity P-wave (km/s) = 6.99949 7.03224 7.01589
#
# Compressibility (1/GPa) = 0.01578505
#
# Stress axis : x y z
#
# Youngs Moduli (GPa) = 93.15351 93.15351 76.50431
#
# Poissons Ratio (x) = 0.16903 0.28932
# Poissons Ratio (y) = 0.16903 0.28932
# Poissons Ratio (z) = 0.35228 0.35228
#
# Static dielectric constant tensor:
#      x y z
#    x 3.918220 0.000000 0.000000 
#    y 0.000000 3.918220 0.000000 
#    z 0.000000 0.000000 4.050650 
# 
# 
# High freq. dielectric constant tensor:
#      x y z
#    x 1.872320 0.000000 0.000000 
#    y 0.000000 1.872320 0.000000 
#    z 0.000000 0.000000 1.889760 
# 
# From -- ./inp_files/1238.got.cif
#   From: 2010.03.12/outbox.cif.g09.slc.cpg/sg76_cif.got.tgz:1238.got - 2010.04.16 16:34:25.
