data_PCOD8301796
_publ_section_title
;
Structure prediction by ZEFSAII (Michael W. Deem and Ramdas Pophale) SiO2 
 PCOD8301796
Probable space group: I M M A
;
_chemical_formula_sum "Si O2"
_cell_formula_units_Z 96
_cell_length_a 9.252163
_cell_length_b 20.742978
_cell_length_c 30.286232
_cell_angle_alpha 90.000000
_cell_angle_beta 90.000000
_cell_angle_gamma 90.000000
_cell_volume 5812.455312
_symmetry_space_group_name_H-M "I M M A"
_symmetry_group_IT_number 74
_symmetry_cell_setting 'orthorhombic'
loop_
_space_group_symop_operation_xyz
x,y,z
-x,1/2-y,z
x,-y,-z
-x,1/2+y,-z
-x,-y,-z
x,1/2+y,-z
-x,y,z
x,1/2-y,z
1/2+x,1/2+y,1/2+z
1/2-x,-y,1/2+z
1/2+x,1/2-y,1/2-z
1/2-x,y,1/2-z
1/2-x,1/2-y,1/2-z
1/2+x,y,1/2-z
1/2-x,1/2+y,1/2+z
1/2+x,-y,1/2+z
loop_
_atom_site_type_symbol
_atom_site_label
_atom_site_fract_x
_atom_site_fract_y
_atom_site_fract_z
Si Si1 0.836786 0.474159 0.707849
Si Si2 0.165716 0.524768 0.122716
Si Si3 0.836775 0.127820 0.292060
Si Si4 0.172217 0.561026 0.027053
Si Si5 0.665865 0.627229 0.622861
Si Si6 0.328078 0.178458 0.470183
O O1 0.750000 0.446805 0.750000
O O2 0.761443 0.449090 0.663141
O O3 0.834817 0.550947 0.708750
O O4 0.000000 0.447666 0.709589
O O5 0.222541 0.558538 0.077959
O O6 0.182174 0.448750 0.116015
O O7 0.000000 0.542798 0.132882
O O8 0.750000 0.155174 0.250000
O O9 0.760430 0.153041 0.336409
O O10 0.000000 0.154242 0.290405
O O11 0.000000 0.558480 0.024987
O O12 0.234964 0.500000 0.000000
O O13 0.233254 0.626922 0.005438
O O14 0.500000 0.645712 0.632447
O O15 0.726143 0.661424 0.578955
O O16 0.500000 0.174772 0.470235
O O17 0.273449 0.250000 0.483145
#
# Coordination Sequence:
#
# PCOD8301796 Si02
#       6
#    16  16  16  16  16  16
#     4   9  16  25  37  56  85 114 139 169 210 255
#     4   9  15  23  39  60  82 110 144 175 206 248
#     4   9  16  25  38  57  80 106 137 174 215 256
#     4   9  14  23  39  60  84 112 144 176 210 251
#     4   9  15  24  39  58  80 107 139 175 213 250
#     4   9  16  25  39  61  86 110 140 179 216 248
#
# _framework density 16.516255999999998
#
# number of rings (size 3 to 8) (size 9 to 14) (size 15 to 20)
#    0.000    3.000    1.667    1.000    0.000    4.000 
#    0.000    0.000    0.000    2.500    0.000    0.000 
#    0.000    0.667    0.000    1.167    0.000    1.667 
#
# Total GULP energy -595033.557684 kJ/mol
# GULP energy per Si atom -12396.532452 kJ/mol
# Density = 1.647866 g / cm^3
# Si number density = 16.516256 Si / 1000 Ang^3
#
#
#
# Elastic Constant Matrix: (Units=GPa)
#
#
# Indices 1 2 3 4 5 6 
#
# 1 77.8105 19.6325 59.8445 0.0000 0.0000 0.0000
# 2 19.6325 54.9822 53.3697 0.0000 0.0000 0.0000
# 3 59.8445 53.3697 162.5084 0.0000 0.0000 0.0000
# 4 0.0000 0.0000 0.0000 11.4324 0.0000 0.0000
# 5 0.0000 0.0000 0.0000 0.0000 24.5307 0.0000
# 6 0.0000 0.0000 0.0000 0.0000 0.0000 4.0680
#
#
#
# Elastic Compliance Matrix: (Units=1/GPa)
#
#
# Indices 1 2 3 4 5 6 
#
# 1 0.017930 0.000010 -0.006606 0.000000 0.000000 0.000000
# 2 0.000010 0.026699 -0.008772 0.000000 0.000000 0.000000
# 3 -0.006606 -0.008772 0.011467 0.000000 0.000000 0.000000
# 4 0.000000 0.000000 0.000000 0.087471 0.000000 0.000000
# 5 0.000000 0.000000 0.000000 0.000000 0.040765 0.000000
# 6 0.000000 0.000000 0.000000 0.000000 0.000000 0.245823
#
#
# Mechanical properties :
#
#
# Convention : Reuss Voigt Hill
#
# Bulk Modulus (GPa) = 39.43224 62.33273 50.88248
# Shear Modulus (GPa) = 10.65317 18.83651 14.74484
#
# Velocity S-wave (km/s) = 2.54246 3.38077 2.99113
# Velocity P-wave (km/s) = 5.70486 7.28434 6.54244
#
# Compressibility (1/GPa) = 0.02535996
#
# Stress axis : x y z
#
# Youngs Moduli (GPa) = 55.77251 37.45496 87.20624
#
# Poissons Ratio (x) = -0.00038 0.57610
# Poissons Ratio (y) = -0.00057 0.76497
# Poissons Ratio (z) = 0.36844 0.32855
#
# Static dielectric constant tensor:
#      x y z
#    x 2.902440 0.000000 0.000000 
#    y 0.000000 2.765950 0.000000 
#    z 0.000000 0.000000 3.338490 
# 
# 
# High freq. dielectric constant tensor:
#      x y z
#    x 1.604540 0.000000 0.000000 
#    y 0.000000 1.577000 0.000000 
#    z 0.000000 0.000000 1.650440 
# 
# From -- ./inp_files/64658.got.cif
#   From: 2010.03.12/outbox.cif.g09.slc.cpg/sg74_33_cif.got.tgz:64658.got - 2010.04.16 15:46:19.
