data_PCOD8301917
_publ_section_title
;
Structure prediction by ZEFSAII (Michael W. Deem and Ramdas Pophale) SiO2 
 PCOD8301917
Probable space group: P 41
;
_chemical_formula_sum "Si O2"
_cell_formula_units_Z 28
_cell_length_a 12.018289
_cell_length_b 12.018289
_cell_length_c 7.685732
_cell_angle_alpha 90.000000
_cell_angle_beta 90.000000
_cell_angle_gamma 90.000000
_cell_volume 1110.121523
_symmetry_space_group_name_H-M "P 41"
_symmetry_group_IT_number 76
_symmetry_cell_setting 'tetragonal'
loop_
_space_group_symop_operation_xyz
x,y,z
-y,x,1/4+z
-x,-y,1/2+z
y,-x,3/4+z
loop_
_atom_site_type_symbol
_atom_site_label
_atom_site_fract_x
_atom_site_fract_y
_atom_site_fract_z
Si Si1 0.502267 0.861200 0.512970
Si Si2 0.602221 0.802527 0.887639
Si Si3 0.024990 0.316862 0.239821
Si Si4 0.261943 0.375108 0.205998
Si Si5 0.628337 0.447780 0.167814
Si Si6 0.109484 0.076614 0.854085
Si Si7 0.031164 0.288536 0.649182
O O1 0.540358 0.832980 0.707487
O O2 0.535868 0.759579 0.385635
O O3 0.371512 0.883078 0.493925
O O4 0.560360 0.976381 0.455232
O O5 0.678734 0.692924 0.861161
O O6 0.500675 0.772082 0.019961
O O7 0.679833 0.904006 0.954686
O O8 0.147444 0.310102 0.152309
O O9 0.041446 0.289718 0.442553
O O10 0.929799 0.239845 0.152188
O O11 0.341495 0.389826 0.041488
O O12 0.577065 0.562244 0.242487
O O13 0.069696 0.168455 0.716297
O O14 0.084992 0.954537 0.782948
#
# Coordination Sequence:
#
# PCOD8301917 Si02
#       7
#     4   4   4   4   4   4   4
#     4  10  23  43  72 102 143 188 245 299 361 451
#     4  10  23  41  74 102 146 194 245 303 375 440
#     4  11  27  45  76 105 144 198 242 306 376 440
#     4  11  21  43  71 101 141 195 242 297 371 445
#     4  11  24  42  71 103 147 192 245 306 379 442
#     4  12  30  47  74 103 148 187 248 305 378 438
#     4  11  26  47  70 112 141 194 255 304 368 458
#
# _framework density 25.222466000000001
#
# number of rings (size 3 to 8) (size 9 to 14) (size 15 to 20)
#    0.000    1.143    4.286    0.857   14.000    1.143 
#    0.000    0.000    0.000    0.000    0.000    0.000 
#    0.000    0.000    0.000    0.000    0.000    0.000 
#
# Total GULP energy -347094.646658 kJ/mol
# GULP energy per Si atom -12396.237381 kJ/mol
# Density = 2.516506 g / cm^3
# Si number density = 25.222466 Si / 1000 Ang^3
#
#
#
# Elastic Constant Matrix: (Units=GPa)
#
#
# Indices 1 2 3 4 5 6 
#
# 1 114.1609 69.9206 6.9025 0.0000 0.0000 3.3207
# 2 69.9206 114.1609 6.9025 0.0000 0.0000 -3.3207
# 3 6.9025 6.9025 42.1465 0.0000 0.0000 0.0000
# 4 0.0000 0.0000 0.0000 24.1084 0.0000 0.0000
# 5 0.0000 0.0000 0.0000 0.0000 24.1084 0.0000
# 6 3.3207 -3.3207 0.0000 0.0000 0.0000 49.1187
#
#
#
# Elastic Compliance Matrix: (Units=1/GPa)
#
#
# Indices 1 2 3 4 5 6 
#
# 1 0.014168 -0.008668 -0.000901 0.000000 0.000000 -0.001544
# 2 -0.008668 0.014168 -0.000901 0.000000 0.000000 0.001544
# 3 -0.000901 -0.000901 0.024022 0.000000 0.000000 0.000000
# 4 0.000000 0.000000 0.000000 0.041479 0.000000 0.000000
# 5 0.000000 0.000000 0.000000 0.000000 0.041479 0.000000
# 6 -0.001544 0.001544 0.000000 0.000000 0.000000 0.020568
#
#
# Mechanical properties :
#
#
# Convention : Reuss Voigt Hill
#
# Bulk Modulus (GPa) = 31.82822 48.65771 40.24296
# Shear Modulus (GPa) = 26.69587 31.91663 29.30625
#
# Velocity S-wave (km/s) = 3.25686 3.56111 3.41238
# Velocity P-wave (km/s) = 5.17583 6.02013 5.61388
#
# Compressibility (1/GPa) = 0.03141866
#
# Stress axis : x y z
#
# Youngs Moduli (GPa) = 70.58289 70.58289 41.62890
#
# Poissons Ratio (x) = 0.61180 0.03750
# Poissons Ratio (y) = 0.61180 0.03750
# Poissons Ratio (z) = 0.06358 0.06358
#
# Static dielectric constant tensor:
#      x y z
#    x 4.959810 0.000000 0.000000 
#    y 0.000000 4.959810 0.000000 
#    z 0.000000 0.000000 4.010130 
# 
# 
# High freq. dielectric constant tensor:
#      x y z
#    x 2.022180 0.000000 0.000000 
#    y 0.000000 2.022180 0.000000 
#    z 0.000000 0.000000 1.971090 
# 
# From -- ./inp_files/590.got.cif
#   From: 2010.03.12/outbox.cif.g09.slc.cpg/sg76_cif.got.tgz:590.got - 2010.04.16 16:34:25.
