data_PCOD8301780
_publ_section_title
;
Structure prediction by ZEFSAII (Michael W. Deem and Ramdas Pophale) SiO2 
 PCOD8301780
Probable space group: I M M A
;
_chemical_formula_sum "Si O2"
_cell_formula_units_Z 104
_cell_length_a 22.087885
_cell_length_b 9.825114
_cell_length_c 30.095050
_cell_angle_alpha 90.000000
_cell_angle_beta 90.000000
_cell_angle_gamma 90.000000
_cell_volume 6531.107014
_symmetry_space_group_name_H-M "I M M A"
_symmetry_group_IT_number 74
_symmetry_cell_setting 'orthorhombic'
loop_
_space_group_symop_operation_xyz
x,y,z
-x,1/2-y,z
x,-y,-z
-x,1/2+y,-z
-x,-y,-z
x,1/2+y,-z
-x,y,z
x,1/2-y,z
1/2+x,1/2+y,1/2+z
1/2-x,-y,1/2+z
1/2+x,1/2-y,1/2-z
1/2-x,y,1/2-z
1/2-x,1/2-y,1/2-z
1/2+x,y,1/2-z
1/2-x,1/2+y,1/2+z
1/2+x,-y,1/2+z
loop_
_atom_site_type_symbol
_atom_site_label
_atom_site_fract_x
_atom_site_fract_y
_atom_site_fract_z
Si Si1 0.190012 0.097255 0.802671
Si Si2 0.166423 0.096918 0.705915
Si Si3 0.851137 0.407969 0.372218
Si Si4 0.629933 0.594263 0.542261
Si Si5 0.789328 0.406610 0.122039
Si Si6 0.929499 0.907957 0.542083
Si Si7 0.500000 0.401834 0.459227
O O1 0.171294 0.250000 0.816737
O O2 0.153857 0.057191 0.757470
O O3 0.261815 0.088930 0.797635
O O4 0.173917 0.990685 0.840906
O O5 0.143624 0.250000 0.695727
O O6 0.132080 0.995519 0.671807
O O7 0.862562 0.250000 0.361008
O O8 0.781443 0.438967 0.383105
O O9 0.891484 0.453112 0.414447
O O10 0.636586 0.500000 0.500000
O O11 0.639095 0.750000 0.527151
O O12 0.682068 0.549904 0.575605
O O13 0.563691 0.575238 0.566628
O O14 0.800644 0.250000 0.133801
O O15 0.916444 0.750000 0.530398
O O16 0.000000 0.931399 0.553101
O O17 0.909612 0.000000 0.500000
O O18 0.500000 0.250000 0.478999
O O19 0.500000 0.500000 0.500000
#
# Coordination Sequence:
#
# PCOD8301780 Si02
#       7
#    16  16  16  16  16  16   8
#     4   8  14  25  40  59  84 111 136 163 198 241
#     4   8  14  25  41  61  84 108 135 166 199 240
#     4   9  17  28  42  62  86 109 134 168 210 249
#     4   9  17  28  41  58  80 106 136 169 201 236
#     4   9  17  27  39  60  88 111 134 167 207 249
#     4   9  18  32  47  62  82 110 144 179 212 251
#     4   8  14  26  42  56  72  98 132 166 194 222
#
# _framework density 15.923793999999999
#
# number of rings (size 3 to 8) (size 9 to 14) (size 15 to 20)
#    0.000    3.385    0.000    0.923    0.000    2.462 
#    0.000    3.077    0.000    0.000    2.000    0.000 
#    0.000    0.000    0.000    0.000    0.000    0.000 
#
# Total GULP energy -644181.704950 kJ/mol
# GULP energy per Si atom -12388.109711 kJ/mol
# Density = 1.588755 g / cm^3
# Si number density = 15.923794 Si / 1000 Ang^3
#
#
#
# Elastic Constant Matrix: (Units=GPa)
#
#
# Indices 1 2 3 4 5 6 
#
# 1 44.3642 32.0234 45.2860 0.0000 0.0000 0.0000
# 2 32.0234 77.1870 74.0435 0.0000 0.0000 0.0000
# 3 45.2860 74.0435 126.3459 0.0000 0.0000 0.0000
# 4 0.0000 0.0000 0.0000 34.4204 0.0000 0.0000
# 5 0.0000 0.0000 0.0000 0.0000 11.6449 0.0000
# 6 0.0000 0.0000 0.0000 0.0000 0.0000 14.6073
#
#
#
# Elastic Compliance Matrix: (Units=1/GPa)
#
#
# Indices 1 2 3 4 5 6 
#
# 1 0.036707 -0.005957 -0.009666 0.000000 0.000000 0.000000
# 2 -0.005957 0.030557 -0.015772 0.000000 0.000000 0.000000
# 3 -0.009666 -0.015772 0.020623 0.000000 0.000000 0.000000
# 4 0.000000 0.000000 0.000000 0.029053 0.000000 0.000000
# 5 0.000000 0.000000 0.000000 0.000000 0.085874 0.000000
# 6 0.000000 0.000000 0.000000 0.000000 0.000000 0.068459
#
#
# Mechanical properties :
#
#
# Convention : Reuss Voigt Hill
#
# Bulk Modulus (GPa) = 39.84638 61.17809 50.51223
# Shear Modulus (GPa) = 14.60157 18.57081 16.58619
#
# Velocity S-wave (km/s) = 3.03143 3.41872 3.23088
# Velocity P-wave (km/s) = 6.10985 7.35433 6.76078
#
# Compressibility (1/GPa) = 0.02509638
#
# Stress axis : x y z
#
# Youngs Moduli (GPa) = 27.24250 32.72575 48.49038
#
# Poissons Ratio (x) = 0.19494 0.46871
# Poissons Ratio (y) = 0.16228 0.76481
# Poissons Ratio (z) = 0.26333 0.51617
#
# Static dielectric constant tensor:
#      x y z
#    x 2.993850 0.000000 0.000000 
#    y 0.000000 3.166830 0.000000 
#    z 0.000000 0.000000 3.221750 
# 
# 
# High freq. dielectric constant tensor:
#      x y z
#    x 1.580070 0.000000 0.000000 
#    y 0.000000 1.617350 0.000000 
#    z 0.000000 0.000000 1.600650 
# 
# From -- ./inp_files/68939.got.cif
#   From: 2010.03.12/outbox.cif.g09.slc.cpg/sg74_35_cif.got.tgz:68939.got - 2010.04.16 15:46:19.
