data_PCOD8301465
_publ_section_title
;
Structure prediction by ZEFSAII (Michael W. Deem and Ramdas Pophale) SiO2 
 PCOD8301465
Probable space group: I M M A
;
_chemical_formula_sum "Si O2"
_cell_formula_units_Z 64
_cell_length_a 14.569433
_cell_length_b 20.012700
_cell_length_c 11.284019
_cell_angle_alpha 90.000000
_cell_angle_beta 90.000000
_cell_angle_gamma 90.000000
_cell_volume 3290.123078
_symmetry_space_group_name_H-M "I M M A"
_symmetry_group_IT_number 74
_symmetry_cell_setting 'orthorhombic'
loop_
_space_group_symop_operation_xyz
x,y,z
-x,1/2-y,z
x,-y,-z
-x,1/2+y,-z
-x,-y,-z
x,1/2+y,-z
-x,y,z
x,1/2-y,z
1/2+x,1/2+y,1/2+z
1/2-x,-y,1/2+z
1/2+x,1/2-y,1/2-z
1/2-x,y,1/2-z
1/2-x,1/2-y,1/2-z
1/2+x,y,1/2-z
1/2-x,1/2+y,1/2+z
1/2+x,-y,1/2+z
loop_
_atom_site_type_symbol
_atom_site_label
_atom_site_fract_x
_atom_site_fract_y
_atom_site_fract_z
Si Si1 0.652857 0.993174 0.310205
Si Si2 0.898580 0.942325 0.580354
Si Si3 0.606899 0.101355 0.496486
Si Si4 0.261891 0.325798 0.111797
O O1 0.750000 0.979569 0.250000
O O2 0.614254 0.923559 0.366229
O O3 0.588935 0.027131 0.211676
O O4 0.656924 0.046242 0.415764
O O5 0.839598 0.875507 0.564775
O O6 0.000000 0.924195 0.533187
O O7 0.852456 0.000000 0.500000
O O8 0.500000 0.113151 0.464624
O O9 0.667295 0.166839 0.465057
O O10 0.296083 0.250000 0.095694
O O11 0.250000 0.343064 0.250000
#
# Coordination Sequence:
#
# PCOD8301465 Si02
#       4
#    16  16  16  16
#     4  11  19  33  57  84 118 146 194 244 297 343
#     4  11  21  36  59  86 116 153 197 245 295 352
#     4  11  21  35  57  85 117 156 197 246 293 345
#     4  11  23  37  55  84 120 158 193 237 301 360
#
# _framework density 19.452159000000002
#
# number of rings (size 3 to 8) (size 9 to 14) (size 15 to 20)
#    0.000    1.000    5.000    4.500    0.000    1.000 
#    0.000    2.500    0.000    6.750    0.000    7.000 
#    0.000    0.000    0.000    0.000    0.000    0.000 
#
# Total GULP energy -396542.669829 kJ/mol
# GULP energy per Si atom -12391.958432 kJ/mol
# Density = 1.940789 g / cm^3
# Si number density = 19.452159 Si / 1000 Ang^3
#
#
#
# Elastic Constant Matrix: (Units=GPa)
#
#
# Indices 1 2 3 4 5 6 
#
# 1 127.4333 57.2225 28.6611 0.0000 0.0000 0.0000
# 2 57.2225 115.3099 36.3746 0.0000 0.0000 0.0000
# 3 28.6611 36.3746 64.4058 0.0000 0.0000 0.0000
# 4 0.0000 0.0000 0.0000 25.8257 0.0000 0.0000
# 5 0.0000 0.0000 0.0000 0.0000 28.7870 0.0000
# 6 0.0000 0.0000 0.0000 0.0000 0.0000 12.0090
#
#
#
# Elastic Compliance Matrix: (Units=1/GPa)
#
#
# Indices 1 2 3 4 5 6 
#
# 1 0.010319 -0.004468 -0.002068 0.000000 0.000000 0.000000
# 2 -0.004468 0.012487 -0.005064 0.000000 0.000000 0.000000
# 3 -0.002068 -0.005064 0.019307 0.000000 0.000000 0.000000
# 4 0.000000 0.000000 0.000000 0.038721 0.000000 0.000000
# 5 0.000000 0.000000 0.000000 0.000000 0.034738 0.000000
# 6 0.000000 0.000000 0.000000 0.000000 0.000000 0.083271
#
#
# Mechanical properties :
#
#
# Convention : Reuss Voigt Hill
#
# Bulk Modulus (GPa) = 52.87736 61.29617 57.08677
# Shear Modulus (GPa) = 21.89640 25.65040 23.77340
#
# Velocity S-wave (km/s) = 3.35872 3.63525 3.49971
# Velocity P-wave (km/s) = 6.50258 7.01425 6.76326
#
# Compressibility (1/GPa) = 0.01891168
#
# Stress axis : x y z
#
# Youngs Moduli (GPa) = 96.90983 80.08284 51.79466
#
# Poissons Ratio (x) = 0.35783 0.10713
# Poissons Ratio (y) = 0.43302 0.26229
# Poissons Ratio (z) = 0.20045 0.40554
#
# Static dielectric constant tensor:
#      x y z
#    x 3.471490 0.000000 0.000000 
#    y 0.000000 3.430690 0.000000 
#    z 0.000000 0.000000 3.912880 
# 
# 
# High freq. dielectric constant tensor:
#      x y z
#    x 1.768650 0.000000 0.000000 
#    y 0.000000 1.724380 0.000000 
#    z 0.000000 0.000000 1.751420 
# 
# From -- ./inp_files/19944.got.cif
#   From: 2010.03.12/outbox.cif.g09.slc.cpg/sg74_10_cif.got.tgz:19944.got - 2010.04.16 15:46:19.
