data_PCOD8301914
_publ_section_title
;
Structure prediction by ZEFSAII (Michael W. Deem and Ramdas Pophale) SiO2 
 PCOD8301914
Probable space group: P 41
;
_chemical_formula_sum "Si O2"
_cell_formula_units_Z 28
_cell_length_a 8.954254
_cell_length_b 8.954254
_cell_length_c 17.095274
_cell_angle_alpha 90.000000
_cell_angle_beta 90.000000
_cell_angle_gamma 90.000000
_cell_volume 1370.676242
_symmetry_space_group_name_H-M "P 41"
_symmetry_group_IT_number 76
_symmetry_cell_setting 'tetragonal'
loop_
_space_group_symop_operation_xyz
x,y,z
-y,x,1/4+z
-x,-y,1/2+z
y,-x,3/4+z
loop_
_atom_site_type_symbol
_atom_site_label
_atom_site_fract_x
_atom_site_fract_y
_atom_site_fract_z
Si Si1 0.473139 0.961357 0.772440
Si Si2 0.575145 0.230070 0.665860
Si Si3 0.182936 0.884246 0.695685
Si Si4 0.016267 0.899879 0.290919
Si Si5 0.784881 0.828301 0.796212
Si Si6 0.644389 0.037689 0.442113
Si Si7 0.385012 0.210066 0.519268
O O1 0.531522 0.111599 0.732186
O O2 0.357528 0.879474 0.715413
O O3 0.608011 0.851217 0.792968
O O4 0.382742 0.992051 0.851426
O O5 0.704776 0.168651 0.609788
O O6 0.433343 0.261976 0.607599
O O7 0.641238 0.374633 0.713505
O O8 0.113045 0.725731 0.724182
O O9 0.170165 0.902965 0.603098
O O10 0.094662 0.029487 0.727397
O O11 0.130162 0.774046 0.261231
O O12 0.126989 0.026346 0.324029
O O13 0.832972 0.768329 0.709708
O O14 0.494571 0.081888 0.486903
#
# Coordination Sequence:
#
# PCOD8301914 Si02
#       7
#     4   4   4   4   4   4   4
#     4  12  22  41  68  96 135 170 226 288 337 408
#     4  11  23  40  67  98 134 182 225 282 344 415
#     4  11  23  39  65  99 128 170 221 294 337 389
#     4  11  21  38  67  98 124 165 233 282 330 391
#     4  10  23  40  70  94 131 180 226 277 343 420
#     4  10  24  42  65  97 132 171 229 275 346 406
#     4  11  22  42  68  98 134 180 230 280 347 423
#
# _framework density 20.427871
#
# number of rings (size 3 to 8) (size 9 to 14) (size 15 to 20)
#    0.000    1.143    5.714    0.857    2.000    1.143 
#    0.000    2.857    0.000    0.000    0.000    0.000 
#    0.000    0.000    0.000    0.000    0.000    0.000 
#
# Total GULP energy -346916.028472 kJ/mol
# GULP energy per Si atom -12389.858160 kJ/mol
# Density = 2.038138 g / cm^3
# Si number density = 20.427871 Si / 1000 Ang^3
#
#
#
# Elastic Constant Matrix: (Units=GPa)
#
#
# Indices 1 2 3 4 5 6 
#
# 1 93.0128 21.1614 25.0053 0.0000 0.0000 -2.7022
# 2 21.1614 93.0128 25.0053 0.0000 0.0000 2.7022
# 3 25.0053 25.0053 99.9375 0.0000 0.0000 0.0000
# 4 0.0000 0.0000 0.0000 36.5978 0.0000 0.0000
# 5 0.0000 0.0000 0.0000 0.0000 36.5978 0.0000
# 6 -2.7022 2.7022 0.0000 0.0000 0.0000 30.9895
#
#
#
# Elastic Compliance Matrix: (Units=1/GPa)
#
#
# Indices 1 2 3 4 5 6 
#
# 1 0.011923 -0.002086 -0.002461 0.000000 0.000000 0.001222
# 2 -0.002086 0.011923 -0.002461 0.000000 0.000000 -0.001222
# 3 -0.002461 -0.002461 0.011238 0.000000 0.000000 0.000000
# 4 0.000000 0.000000 0.000000 0.027324 0.000000 0.000000
# 5 0.000000 0.000000 0.000000 0.000000 0.027324 0.000000
# 6 0.001222 -0.001222 0.000000 0.000000 0.000000 0.032482
#
#
# Mechanical properties :
#
#
# Convention : Reuss Voigt Hill
#
# Bulk Modulus (GPa) = 47.46926 47.58966 47.52946
# Shear Modulus (GPa) = 34.90303 35.15641 35.02972
#
# Velocity S-wave (km/s) = 4.13800 4.15300 4.14551
# Velocity P-wave (km/s) = 6.79108 6.80761 6.79935
#
# Compressibility (1/GPa) = 0.02106627
#
# Stress axis : x y z
#
# Youngs Moduli (GPa) = 83.87110 83.87110 88.98472
#
# Poissons Ratio (x) = 0.17499 0.21901
# Poissons Ratio (y) = 0.17499 0.21901
# Poissons Ratio (z) = 0.20642 0.20642
#
# Static dielectric constant tensor:
#      x y z
#    x 3.736820 0.000000 0.000000 
#    y 0.000000 3.736820 0.000000 
#    z 0.000000 0.000000 3.936120 
# 
# 
# High freq. dielectric constant tensor:
#      x y z
#    x 1.789290 0.000000 0.000000 
#    y 0.000000 1.789290 0.000000 
#    z 0.000000 0.000000 1.807260 
# 
# From -- ./inp_files/1249.got.cif
#   From: 2010.03.12/outbox.cif.g09.slc.cpg/sg76_cif.got.tgz:1249.got - 2010.04.16 16:34:25.
