data_PCOD8301131
_publ_section_title
;
Structure prediction by ZEFSAII (Michael W. Deem and Ramdas Pophale) SiO2 
 PCOD8301131
Probable space group: I M M A
;
_chemical_formula_sum "Si O2"
_cell_formula_units_Z 112
_cell_length_a 23.876250
_cell_length_b 13.464726
_cell_length_c 16.495094
_cell_angle_alpha 90.000000
_cell_angle_beta 90.000000
_cell_angle_gamma 90.000000
_cell_volume 5302.960993
_symmetry_space_group_name_H-M "I M M A"
_symmetry_group_IT_number 74
_symmetry_cell_setting 'orthorhombic'
loop_
_space_group_symop_operation_xyz
x,y,z
-x,1/2-y,z
x,-y,-z
-x,1/2+y,-z
-x,-y,-z
x,1/2+y,-z
-x,y,z
x,1/2-y,z
1/2+x,1/2+y,1/2+z
1/2-x,-y,1/2+z
1/2+x,1/2-y,1/2-z
1/2-x,y,1/2-z
1/2-x,1/2-y,1/2-z
1/2+x,y,1/2-z
1/2-x,1/2+y,1/2+z
1/2+x,-y,1/2+z
loop_
_atom_site_type_symbol
_atom_site_label
_atom_site_fract_x
_atom_site_fract_y
_atom_site_fract_z
Si Si1 0.843611 0.861990 0.573443
Si Si2 0.262723 0.139547 0.541407
Si Si3 0.108494 0.633338 0.280849
Si Si4 0.434563 0.036157 0.619295
Si Si5 0.711824 0.518195 0.179266
Si Si6 0.937287 0.867626 0.453013
Si Si7 0.381335 0.363340 0.471253
O O1 0.855861 0.750000 0.604467
O O2 0.791427 0.862346 0.513927
O O3 0.896495 0.907897 0.524067
O O4 0.829851 0.931533 0.649464
O O5 0.271230 0.250000 0.578598
O O6 0.254124 0.059008 0.611341
O O7 0.316550 0.110545 0.488389
O O8 0.100249 0.750000 0.266149
O O9 0.079788 0.574144 0.208296
O O10 0.174433 0.608769 0.286286
O O11 0.079962 0.595397 0.363891
O O12 0.500000 0.015545 0.612132
O O13 0.416815 0.117707 0.552862
O O14 0.402197 0.933035 0.601807
O O15 0.750000 0.472649 0.250000
O O16 0.931508 0.750000 0.452622
O O17 0.000000 0.903299 0.473304
O O18 0.389218 0.250000 0.443743
#
# Coordination Sequence:
#
# PCOD8301131 Si02
#       7
#    16  16  16  16  16  16  16
#     4  10  22  41  63  92 126 165 211 256 309 378
#     4  10  21  39  64  91 122 160 204 258 318 374
#     4  11  23  40  60  92 130 163 208 265 325 378
#     4  11  24  39  61  92 126 168 214 260 324 390
#     4  12  25  37  62  92 128 170 208 258 316 379
#     4   9  18  37  66  94 122 160 204 252 310 373
#     4  10  22  39  63  91 123 166 216 267 318 381
#
# _framework density 21.120276
#
# number of rings (size 3 to 8) (size 9 to 14) (size 15 to 20)
#    0.000    1.571    1.429    3.429    6.000    5.143 
#    0.000    2.857    0.000    0.000    0.000    0.000 
#    0.000    0.000    0.000    0.000    0.000    0.000 
#
# Total GULP energy -694510.378403 kJ/mol
# GULP energy per Si atom -12401.971043 kJ/mol
# Density = 2.107220 g / cm^3
# Si number density = 21.120276 Si / 1000 Ang^3
#
#
#
# Elastic Constant Matrix: (Units=GPa)
#
#
# Indices 1 2 3 4 5 6 
#
# 1 163.6614 42.2591 56.8642 0.0000 0.0000 0.0000
# 2 42.2591 106.9468 45.1135 0.0000 0.0000 0.0000
# 3 56.8642 45.1135 87.3572 0.0000 0.0000 0.0000
# 4 0.0000 0.0000 0.0000 11.2325 0.0000 0.0000
# 5 0.0000 0.0000 0.0000 0.0000 29.5257 0.0000
# 6 0.0000 0.0000 0.0000 0.0000 0.0000 21.7368
#
#
#
# Elastic Compliance Matrix: (Units=1/GPa)
#
#
# Indices 1 2 3 4 5 6 
#
# 1 0.008022 -0.001236 -0.004583 0.000000 0.000000 0.000000
# 2 -0.001236 0.012145 -0.005467 0.000000 0.000000 0.000000
# 3 -0.004583 -0.005467 0.017254 0.000000 0.000000 0.000000
# 4 0.000000 0.000000 0.000000 0.089027 0.000000 0.000000
# 5 0.000000 0.000000 0.000000 0.000000 0.033869 0.000000
# 6 0.000000 0.000000 0.000000 0.000000 0.000000 0.046005
#
#
# Mechanical properties :
#
#
# Convention : Reuss Voigt Hill
#
# Bulk Modulus (GPa) = 67.35204 71.82655 69.58930
# Shear Modulus (GPa) = 21.38163 26.74756 24.06460
#
# Velocity S-wave (km/s) = 3.18524 3.56257 3.37917
# Velocity P-wave (km/s) = 6.74438 7.14176 6.94591
#
# Compressibility (1/GPa) = 0.01484736
#
# Stress axis : x y z
#
# Youngs Moduli (GPa) = 124.65907 82.33648 57.95716
#
# Poissons Ratio (x) = 0.10180 0.26563
# Poissons Ratio (y) = 0.15413 0.31687
# Poissons Ratio (z) = 0.57134 0.45016
#
# Static dielectric constant tensor:
#      x y z
#    x 4.002210 0.000000 0.000000 
#    y 0.000000 4.145990 0.000000 
#    z 0.000000 0.000000 3.689370 
# 
# 
# High freq. dielectric constant tensor:
#      x y z
#    x 1.839690 0.000000 0.000000 
#    y 0.000000 1.832070 0.000000 
#    z 0.000000 0.000000 1.808670 
# 
# From -- ./inp_files/36482.got.cif
#   From: 2010.03.12/outbox.cif.g09.slc.cpg/sg74_19_cif.got.tgz:36482.got - 2010.04.16 15:46:19.
