data_PCOD8301037
_publ_section_title
;
Structure prediction by ZEFSAII (Michael W. Deem and Ramdas Pophale) SiO2 
 PCOD8301037
Probable space group: I M M A
;
_chemical_formula_sum "Si O2"
_cell_formula_units_Z 112
_cell_length_a 14.498286
_cell_length_b 23.629899
_cell_length_c 16.104168
_cell_angle_alpha 90.000000
_cell_angle_beta 90.000000
_cell_angle_gamma 90.000000
_cell_volume 5517.175773
_symmetry_space_group_name_H-M "I M M A"
_symmetry_group_IT_number 74
_symmetry_cell_setting 'orthorhombic'
loop_
_space_group_symop_operation_xyz
x,y,z
-x,1/2-y,z
x,-y,-z
-x,1/2+y,-z
-x,-y,-z
x,1/2+y,-z
-x,y,z
x,1/2-y,z
1/2+x,1/2+y,1/2+z
1/2-x,-y,1/2+z
1/2+x,1/2-y,1/2-z
1/2-x,y,1/2-z
1/2-x,1/2-y,1/2-z
1/2+x,y,1/2-z
1/2-x,1/2+y,1/2+z
1/2+x,-y,1/2+z
loop_
_atom_site_type_symbol
_atom_site_label
_atom_site_fract_x
_atom_site_fract_y
_atom_site_fract_z
Si Si1 0.605181 0.395607 0.664525
Si Si2 0.765589 0.355070 0.552902
Si Si3 0.894749 0.687810 0.310487
Si Si4 0.396128 0.865943 0.748169
Si Si5 0.247889 0.815854 0.630941
Si Si6 0.400005 0.546298 0.069116
Si Si7 0.644346 0.492729 0.245168
O O1 0.500000 0.382716 0.639860
O O2 0.667152 0.373856 0.589214
O O3 0.634671 0.360477 0.746059
O O4 0.618150 0.462280 0.682930
O O5 0.824347 0.314719 0.612972
O O6 0.748576 0.322657 0.467591
O O7 0.823404 0.411249 0.537414
O O8 0.884620 0.750000 0.269354
O O9 0.000000 0.678486 0.340734
O O10 0.500000 0.840635 0.750106
O O11 0.341514 0.842061 0.668600
O O12 0.341560 0.847686 0.831526
O O13 0.408320 0.933856 0.742188
O O14 0.241914 0.750000 0.654448
O O15 0.500000 0.576604 0.077210
O O16 0.377583 0.519724 0.157260
O O17 0.405676 0.500000 0.000000
O O18 0.750000 0.476671 0.250000
#
# Coordination Sequence:
#
# PCOD8301037 Si02
#       7
#    16  16  16  16  16  16  16
#     4  11  23  39  60  91 130 177 220 254 301 369
#     4  12  23  38  61  90 127 166 210 260 317 367
#     4  10  21  38  60  88 124 167 214 258 303 362
#     4  11  24  45  71  95 123 163 208 264 332 397
#     4  11  26  45  66  96 127 160 213 270 319 391
#     4  11  23  37  59  92 128 163 203 254 317 380
#     4  12  20  40  66  95 130 168 211 261 319 379
#
# _framework density 20.300241
#
# number of rings (size 3 to 8) (size 9 to 14) (size 15 to 20)
#    0.000    0.857    4.286    4.286    0.000    5.714 
#    0.000    0.000    0.000    2.143    0.000    0.000 
#    0.000    0.000    0.000    0.000    0.000    0.000 
#
# Total GULP energy -694424.379892 kJ/mol
# GULP energy per Si atom -12400.435355 kJ/mol
# Density = 2.025404 g / cm^3
# Si number density = 20.300241 Si / 1000 Ang^3
#
#
#
# Elastic Constant Matrix: (Units=GPa)
#
#
# Indices 1 2 3 4 5 6 
#
# 1 130.6202 15.5010 36.8722 -0.0001 0.0006 0.0000
# 2 15.5010 120.5374 20.8794 0.0005 0.0000 0.0001
# 3 36.8722 20.8794 85.0330 0.0008 -0.0005 0.0001
# 4 -0.0001 0.0005 0.0008 29.6139 -0.0005 0.0001
# 5 0.0006 0.0000 -0.0005 -0.0005 -12.9411 0.0001
# 6 0.0000 0.0001 0.0001 0.0001 0.0001 25.6708
#
#
#
# Elastic Compliance Matrix: (Units=1/GPa)
#
#
# Indices 1 2 3 4 5 6 
#
# 1 0.008751 -0.000489 -0.003675 0.000000 0.000001 0.000000
# 2 -0.000489 0.008692 -0.001922 0.000000 0.000000 0.000000
# 3 -0.003675 -0.001922 0.013826 0.000000 -0.000001 0.000000
# 4 0.000000 0.000000 0.000000 0.033768 -0.000001 0.000000
# 5 0.000001 0.000000 -0.000001 -0.000001 -0.077273 0.000000
# 6 0.000000 0.000000 0.000000 0.000000 0.000000 0.038955
#
#
# Mechanical properties :
#
#
# Convention : Reuss Voigt Hill
#
# Bulk Modulus (GPa) = 52.36402 53.63287 52.99844
# Shear Modulus (GPa) = 110.48349 25.99791 68.24070
#
# Velocity S-wave (km/s) = 7.38531 3.58253 5.80420
# Velocity P-wave (km/s) = 9.92847 6.60226 8.43103
#
# Compressibility (1/GPa) = 0.01909708
#
# Stress axis : x y z
#
# Youngs Moduli (GPa) = 114.27136 115.04797 72.32983
#
# Poissons Ratio (x) = 0.05624 0.26579
# Poissons Ratio (y) = 0.05586 0.13904
# Poissons Ratio (z) = 0.41991 0.22116
#
# Static dielectric constant tensor:
#      x y z
#    x 3.875410 0.000000 0.000000 
#    y 0.000000 3.768310 0.000000 
#    z 0.000000 0.000000 3.434340 
# 
# 
# High freq. dielectric constant tensor:
#      x y z
#    x 1.807490 0.000000 0.000000 
#    y 0.000000 1.805600 0.000000 
#    z 0.000000 0.000000 1.775110 
# 
# From -- ./inp_files/32764.got.cif
#   From: 2010.03.12/outbox.cif.g09.slc.cpg/sg74_17_cif.got.tgz:32764.got - 2010.04.16 15:46:19.
