data_PCOD8301421
_publ_section_title
;
Structure prediction by ZEFSAII (Michael W. Deem and Ramdas Pophale) SiO2 
 PCOD8301421
Probable space group: I M M A
;
_chemical_formula_sum "Si O2"
_cell_formula_units_Z 96
_cell_length_a 18.809193
_cell_length_b 15.783490
_cell_length_c 15.843605
_cell_angle_alpha 90.000000
_cell_angle_beta 90.000000
_cell_angle_gamma 90.000000
_cell_volume 4703.565634
_symmetry_space_group_name_H-M "I M M A"
_symmetry_group_IT_number 74
_symmetry_cell_setting 'orthorhombic'
loop_
_space_group_symop_operation_xyz
x,y,z
-x,1/2-y,z
x,-y,-z
-x,1/2+y,-z
-x,-y,-z
x,1/2+y,-z
-x,y,z
x,1/2-y,z
1/2+x,1/2+y,1/2+z
1/2-x,-y,1/2+z
1/2+x,1/2-y,1/2-z
1/2-x,y,1/2-z
1/2-x,1/2-y,1/2-z
1/2+x,y,1/2-z
1/2-x,1/2+y,1/2+z
1/2+x,-y,1/2+z
loop_
_atom_site_type_symbol
_atom_site_label
_atom_site_fract_x
_atom_site_fract_y
_atom_site_fract_z
Si Si1 0.821292 0.118453 0.203548
Si Si2 0.083989 0.250000 0.289652
Si Si3 0.583762 0.750000 0.982122
Si Si4 0.670575 0.428496 0.757334
Si Si5 0.921259 0.650756 0.120058
Si Si6 0.196431 0.652087 0.991933
Si Si7 0.843626 0.082964 0.547922
O O1 0.750000 0.149921 0.250000
O O2 0.887924 0.165897 0.244286
O O3 0.817213 0.141824 0.106243
O O4 0.831873 0.019116 0.212586
O O5 0.110739 0.250000 0.385965
O O6 0.000000 0.250000 0.282823
O O7 0.500000 0.750000 0.987948
O O8 0.611318 0.834200 0.027043
O O9 0.750000 0.389530 0.750000
O O10 0.614895 0.369025 0.709774
O O11 0.647883 0.436303 0.853775
O O12 0.930063 0.750000 0.112798
O O13 0.000000 0.608601 0.114466
O O14 0.872362 0.618180 0.042847
O O15 0.212797 0.750000 0.013803
O O16 0.262016 0.595529 0.021969
O O17 0.873705 0.000000 0.500000
#
# Coordination Sequence:
#
# PCOD8301421 Si02
#       7
#    16   8   8  16  16  16  16
#     4  11  23  40  65  98 128 165 217 270 330 389
#     4  11  23  41  63  91 131 168 211 268 330 395
#     4  11  26  45  66  97 132 175 224 276 345 404
#     4  11  23  41  65  95 130 169 220 276 324 390
#     4  10  24  43  64  93 134 178 217 266 328 395
#     4  11  22  40  68  99 132 170 219 277 327 398
#     4  12  24  42  70  99 133 173 225 281 339 397
#
# _framework density 20.410049000000001
#
# number of rings (size 3 to 8) (size 9 to 14) (size 15 to 20)
#    0.000    1.000    3.333    4.250    1.167    2.667 
#    0.000    0.833    0.000    0.000    0.000    0.000 
#    0.000    0.000    0.000    0.000    0.000    0.000 
#
# Total GULP energy -595439.192493 kJ/mol
# GULP energy per Si atom -12404.983177 kJ/mol
# Density = 2.036359 g / cm^3
# Si number density = 20.410049 Si / 1000 Ang^3
#
#
#
# Elastic Constant Matrix: (Units=GPa)
#
#
# Indices 1 2 3 4 5 6 
#
# 1 93.3832 22.9366 33.3335 0.0000 0.0000 0.0000
# 2 22.9366 69.8808 12.7426 0.0000 0.0000 0.0000
# 3 33.3335 12.7426 135.7558 0.0000 0.0000 0.0000
# 4 0.0000 0.0000 0.0000 8.3513 0.0000 0.0000
# 5 0.0000 0.0000 0.0000 0.0000 26.8811 0.0000
# 6 0.0000 0.0000 0.0000 0.0000 0.0000 9.8884
#
#
#
# Elastic Compliance Matrix: (Units=1/GPa)
#
#
# Indices 1 2 3 4 5 6 
#
# 1 0.012581 -0.003628 -0.002749 0.000000 0.000000 0.000000
# 2 -0.003628 0.015606 -0.000574 0.000000 0.000000 0.000000
# 3 -0.002749 -0.000574 0.008095 0.000000 0.000000 0.000000
# 4 0.000000 0.000000 0.000000 0.119741 0.000000 0.000000
# 5 0.000000 0.000000 0.000000 0.000000 0.037201 0.000000
# 6 0.000000 0.000000 0.000000 0.000000 0.000000 0.101129
#
#
# Mechanical properties :
#
#
# Convention : Reuss Voigt Hill
#
# Bulk Modulus (GPa) = 44.68264 48.56057 46.62161
# Shear Modulus (GPa) = 15.83714 24.35797 20.09755
#
# Velocity S-wave (km/s) = 2.78861 3.45835 3.14138
# Velocity P-wave (km/s) = 5.68405 6.30802 6.00414
#
# Compressibility (1/GPa) = 0.02238005
#
# Stress axis : x y z
#
# Youngs Moduli (GPa) = 79.48617 64.07960 123.53434
#
# Poissons Ratio (x) = 0.23249 0.33954
# Poissons Ratio (y) = 0.28839 0.07090
# Poissons Ratio (z) = 0.21847 0.03678
#
# Static dielectric constant tensor:
#      x y z
#    x 3.894100 0.000000 0.000000 
#    y 0.000000 3.758060 0.000000 
#    z 0.000000 0.000000 3.860800 
# 
# 
# High freq. dielectric constant tensor:
#      x y z
#    x 1.794760 0.000000 0.000000 
#    y 0.000000 1.800480 0.000000 
#    z 0.000000 0.000000 1.813390 
# 
# From -- ./inp_files/35334.got.cif
#   From: 2010.03.12/outbox.cif.g09.slc.cpg/sg74_18_cif.got.tgz:35334.got - 2010.04.16 15:46:19.
