data_PCOD8301109
_publ_section_title
;
Structure prediction by ZEFSAII (Michael W. Deem and Ramdas Pophale) SiO2 
 PCOD8301109
Probable space group: I M M A
;
_chemical_formula_sum "Si O2"
_cell_formula_units_Z 88
_cell_length_a 8.533951
_cell_length_b 21.682434
_cell_length_c 23.866817
_cell_angle_alpha 90.000000
_cell_angle_beta 90.000000
_cell_angle_gamma 90.000000
_cell_volume 4416.240144
_symmetry_space_group_name_H-M "I M M A"
_symmetry_group_IT_number 74
_symmetry_cell_setting 'orthorhombic'
loop_
_space_group_symop_operation_xyz
x,y,z
-x,1/2-y,z
x,-y,-z
-x,1/2+y,-z
-x,-y,-z
x,1/2+y,-z
-x,y,z
x,1/2-y,z
1/2+x,1/2+y,1/2+z
1/2-x,-y,1/2+z
1/2+x,1/2-y,1/2-z
1/2-x,y,1/2-z
1/2-x,1/2-y,1/2-z
1/2+x,y,1/2-z
1/2-x,1/2+y,1/2+z
1/2+x,-y,1/2+z
loop_
_atom_site_type_symbol
_atom_site_label
_atom_site_fract_x
_atom_site_fract_y
_atom_site_fract_z
Si Si1 0.821139 0.680162 0.810729
Si Si2 0.815347 0.981557 0.063438
Si Si3 0.686596 0.250000 0.686597
Si Si4 0.823987 0.316353 0.004222
Si Si5 0.819899 0.898676 0.595725
Si Si6 0.818030 0.850891 0.396184
O O1 0.812659 0.750000 0.833037
O O2 0.750000 0.675430 0.750000
O O3 0.711287 0.637550 0.847706
O O4 0.000000 0.656422 0.811750
O O5 0.762818 0.915841 0.087884
O O6 0.000000 0.986587 0.068656
O O7 0.732653 0.030952 0.104230
O O8 0.760724 0.000000 0.000000
O O9 0.500000 0.250000 0.687166
O O10 0.750000 0.250000 0.750000
O O11 0.744307 0.187031 0.655869
O O12 0.816397 0.250000 0.035566
O O13 0.782497 0.370900 0.045687
O O14 0.000000 0.329766 0.982123
O O15 0.706773 0.310785 0.951922
O O16 0.000000 0.893385 0.579070
O O17 0.000000 0.861160 0.383068
#
# Coordination Sequence:
#
# PCOD8301109 Si02
#       6
#    16  16   8  16  16  16
#     4  10  21  39  62  87 119 160 206 254 306 362
#     4  11  23  40  63  89 126 171 212 254 316 384
#     4  12  26  48  74 100 132 172 219 268 325 384
#     4  11  22  36  57  87 125 166 208 256 314 374
#     4  12  24  37  58  89 126 164 209 258 309 371
#     4  12  24  40  65  96 128 162 208 261 320 380
#
# _framework density 19.926452000000001
#
# number of rings (size 3 to 8) (size 9 to 14) (size 15 to 20)
#    0.000    0.727    2.727    6.273    0.000    5.091 
#    0.000    0.909    0.000    0.000    0.000    0.000 
#    0.000    0.000    0.000    0.000    0.000    0.000 
#
# Total GULP energy -545477.560165 kJ/mol
# GULP energy per Si atom -12397.217276 kJ/mol
# Density = 1.988110 g / cm^3
# Si number density = 19.926452 Si / 1000 Ang^3
#
#
#
# Elastic Constant Matrix: (Units=GPa)
#
#
# Indices 1 2 3 4 5 6 
#
# 1 117.2644 42.9945 25.3985 0.0000 0.0000 0.0000
# 2 42.9945 134.1378 52.7571 0.0000 0.0000 0.0000
# 3 25.3985 52.7571 90.6270 0.0000 0.0000 0.0000
# 4 0.0000 0.0000 0.0000 47.4253 0.0000 0.0000
# 5 0.0000 0.0000 0.0000 0.0000 33.0631 0.0000
# 6 0.0000 0.0000 0.0000 0.0000 0.0000 68.6037
#
#
#
# Elastic Compliance Matrix: (Units=1/GPa)
#
#
# Indices 1 2 3 4 5 6 
#
# 1 0.009761 -0.002662 -0.001186 0.000000 0.000000 0.000000
# 2 -0.002662 0.010395 -0.005305 0.000000 0.000000 0.000000
# 3 -0.001186 -0.005305 0.014455 0.000000 0.000000 0.000000
# 4 0.000000 0.000000 0.000000 0.021086 0.000000 0.000000
# 5 0.000000 0.000000 0.000000 0.000000 0.030245 0.000000
# 6 0.000000 0.000000 0.000000 0.000000 0.000000 0.014576
#
#
# Mechanical properties :
#
#
# Convention : Reuss Voigt Hill
#
# Bulk Modulus (GPa) = 61.33346 64.92547 63.12946
# Shear Modulus (GPa) = 40.23870 44.54369 42.39119
#
# Velocity S-wave (km/s) = 4.49860 4.73314 4.61736
# Velocity P-wave (km/s) = 7.60460 7.90717 7.75736
#
# Compressibility (1/GPa) = 0.01630432
#
# Stress axis : x y z
#
# Youngs Moduli (GPa) = 102.45249 96.20156 69.18105
#
# Poissons Ratio (x) = 0.25611 0.08203
# Poissons Ratio (y) = 0.27275 0.36701
# Poissons Ratio (z) = 0.12148 0.51036
#
# Static dielectric constant tensor:
#      x y z
#    x 3.717540 0.000000 0.000000 
#    y 0.000000 3.921800 0.000000 
#    z 0.000000 0.000000 3.411060 
# 
# 
# High freq. dielectric constant tensor:
#      x y z
#    x 1.793330 0.000000 0.000000 
#    y 0.000000 1.792280 0.000000 
#    z 0.000000 0.000000 1.755380 
# 
# From -- ./inp_files/57015.got.cif
#   From: 2010.03.12/outbox.cif.g09.slc.cpg/sg74_29_cif.got.tgz:57015.got - 2010.04.16 15:46:19.
