data_PCOD8301510
_publ_section_title
;
Structure prediction by ZEFSAII (Michael W. Deem and Ramdas Pophale) SiO2 
 PCOD8301510
Probable space group: I M M A
;
_chemical_formula_sum "Si O2"
_cell_formula_units_Z 96
_cell_length_a 9.503088
_cell_length_b 24.428025
_cell_length_c 23.895856
_cell_angle_alpha 90.000000
_cell_angle_beta 90.000000
_cell_angle_gamma 90.000000
_cell_volume 5547.223948
_symmetry_space_group_name_H-M "I M M A"
_symmetry_group_IT_number 74
_symmetry_cell_setting 'orthorhombic'
loop_
_space_group_symop_operation_xyz
x,y,z
-x,1/2-y,z
x,-y,-z
-x,1/2+y,-z
-x,-y,-z
x,1/2+y,-z
-x,y,z
x,1/2-y,z
1/2+x,1/2+y,1/2+z
1/2-x,-y,1/2+z
1/2+x,1/2-y,1/2-z
1/2-x,y,1/2-z
1/2-x,1/2-y,1/2-z
1/2+x,y,1/2-z
1/2-x,1/2+y,1/2+z
1/2+x,-y,1/2+z
loop_
_atom_site_type_symbol
_atom_site_label
_atom_site_fract_x
_atom_site_fract_y
_atom_site_fract_z
Si Si1 0.153526 0.812352 0.479128
Si Si2 0.163308 0.411666 0.000159
Si Si3 0.165015 0.001527 0.908922
Si Si4 0.163321 0.469614 0.692080
Si Si5 0.202524 0.852539 0.361065
Si Si6 0.500000 0.190764 0.776591
Si Si7 0.500000 0.184665 0.656425
O O1 0.214636 0.750000 0.479060
O O2 0.257079 0.854387 0.510330
O O3 0.124605 0.835463 0.417219
O O4 0.000000 0.812499 0.508657
O O5 0.201505 0.440700 0.940512
O O6 0.000000 0.398387 0.002446
O O7 0.205410 0.452311 0.049951
O O8 0.000000 0.000675 0.893713
O O9 0.256232 0.991652 0.852637
O O10 0.250000 0.469283 0.750000
O O11 0.164337 0.412092 0.660904
O O12 0.000000 0.487422 0.702361
O O13 0.142750 0.814722 0.311624
O O14 0.365795 0.841396 0.373682
O O15 0.500000 0.250000 0.749657
O O16 0.500000 0.156683 0.718816
O O17 0.500000 0.250000 0.649230
#
# Coordination Sequence:
#
# PCOD8301510 Si02
#       7
#    16  16  16  16  16   8   8
#     4  11  22  35  51  73 103 138 175 219 266 308
#     4   9  19  36  57  79 102 133 172 218 271 319
#     4   9  19  37  57  79 104 132 170 220 271 319
#     4  12  24  36  54  77 102 138 177 218 265 312
#     4  12  23  35  46  66  94 130 171 217 267 306
#     4  11  20  36  48  56  83 122 170 222 267 308
#     4  11  24  34  46  62  79 120 176 226 271 312
#
# _framework density 17.305952999999999
#
# number of rings (size 3 to 8) (size 9 to 14) (size 15 to 20)
#    0.000    1.333    3.333    4.500    3.500    2.333 
#    0.000    1.667    0.000    0.000    0.000    0.000 
#    0.000    0.667    0.000    2.167    0.000    3.167 
#
# Total GULP energy -594757.867165 kJ/mol
# GULP energy per Si atom -12390.788899 kJ/mol
# Density = 1.726656 g / cm^3
# Si number density = 17.305953 Si / 1000 Ang^3
#
#
#
# Elastic Constant Matrix: (Units=GPa)
#
#
# Indices 1 2 3 4 5 6 
#
# 1 107.5206 35.4028 32.5211 0.0000 0.0000 0.0000
# 2 35.4028 80.1308 33.8545 0.0000 0.0000 0.0000
# 3 32.5211 33.8545 63.5984 0.0000 0.0000 0.0000
# 4 0.0000 0.0000 0.0000 17.7024 0.0000 0.0000
# 5 0.0000 0.0000 0.0000 0.0000 21.8818 0.0000
# 6 0.0000 0.0000 0.0000 0.0000 0.0000 29.1769
#
#
#
# Elastic Compliance Matrix: (Units=1/GPa)
#
#
# Indices 1 2 3 4 5 6 
#
# 1 0.011679 -0.003402 -0.004161 0.000000 0.000000 0.000000
# 2 -0.003402 0.017092 -0.007358 0.000000 0.000000 0.000000
# 3 -0.004161 -0.007358 0.021769 0.000000 0.000000 0.000000
# 4 0.000000 0.000000 0.000000 0.056490 0.000000 0.000000
# 5 0.000000 0.000000 0.000000 0.000000 0.045700 0.000000
# 6 0.000000 0.000000 0.000000 0.000000 0.000000 0.034274
#
#
# Mechanical properties :
#
#
# Convention : Reuss Voigt Hill
#
# Bulk Modulus (GPa) = 48.31873 50.53404 49.42639
# Shear Modulus (GPa) = 22.34688 23.71699 23.03193
#
# Velocity S-wave (km/s) = 3.59734 3.70598 3.65206
# Velocity P-wave (km/s) = 6.72573 6.89755 6.81218
#
# Compressibility (1/GPa) = 0.02069591
#
# Stress axis : x y z
#
# Youngs Moduli (GPa) = 85.62126 58.50860 45.93773
#
# Poissons Ratio (x) = 0.19904 0.19116
# Poissons Ratio (y) = 0.29128 0.33803
# Poissons Ratio (z) = 0.35630 0.43053
#
# Static dielectric constant tensor:
#      x y z
#    x 4.141990 0.000000 0.000000 
#    y 0.000000 3.064970 0.000000 
#    z 0.000000 0.000000 3.092390 
# 
# 
# High freq. dielectric constant tensor:
#      x y z
#    x 1.684140 0.000000 0.000000 
#    y 0.000000 1.640140 0.000000 
#    z 0.000000 0.000000 1.640120 
# 
# From -- ./inp_files/57557.got.cif
#   From: 2010.03.12/outbox.cif.g09.slc.cpg/sg74_29_cif.got.tgz:57557.got - 2010.04.16 15:46:19.
