data_PCOD8301067
_publ_section_title
;
Structure prediction by ZEFSAII (Michael W. Deem and Ramdas Pophale) SiO2 
 PCOD8301067
Probable space group: I M M A
;
_chemical_formula_sum "Si O2"
_cell_formula_units_Z 80
_cell_length_a 18.190383
_cell_length_b 15.689279
_cell_length_c 14.397642
_cell_angle_alpha 90.000000
_cell_angle_beta 90.000000
_cell_angle_gamma 90.000000
_cell_volume 4109.000555
_symmetry_space_group_name_H-M "I M M A"
_symmetry_group_IT_number 74
_symmetry_cell_setting 'orthorhombic'
loop_
_space_group_symop_operation_xyz
x,y,z
-x,1/2-y,z
x,-y,-z
-x,1/2+y,-z
-x,-y,-z
x,1/2+y,-z
-x,y,z
x,1/2-y,z
1/2+x,1/2+y,1/2+z
1/2-x,-y,1/2+z
1/2+x,1/2-y,1/2-z
1/2-x,y,1/2-z
1/2-x,1/2-y,1/2-z
1/2+x,y,1/2-z
1/2-x,1/2+y,1/2+z
1/2+x,-y,1/2+z
loop_
_atom_site_type_symbol
_atom_site_label
_atom_site_fract_x
_atom_site_fract_y
_atom_site_fract_z
Si Si1 0.413587 0.088250 0.050955
Si Si2 0.086770 0.592613 0.892100
Si Si3 0.411957 0.750000 0.275269
Si Si4 0.413122 0.250000 0.932517
Si Si5 0.412777 0.901385 0.401166
Si Si6 0.330421 0.653248 0.776817
O O1 0.500000 0.095240 0.075276
O O2 0.386995 0.165147 0.985189
O O3 0.367561 0.092638 0.146127
O O4 0.395534 0.000000 0.000000
O O5 0.112283 0.495623 0.870982
O O6 0.121724 0.654234 0.816527
O O7 0.000000 0.601610 0.885787
O O8 0.115033 0.619695 0.994526
O O9 0.500000 0.750000 0.274599
O O10 0.379592 0.750000 0.171221
O O11 0.380922 0.833151 0.328417
O O12 0.500000 0.250000 0.924865
O O13 0.500000 0.897526 0.402391
O O14 0.326825 0.750000 0.814822
O O15 0.250000 0.618365 0.750000
#
# Coordination Sequence:
#
# PCOD8301067 Si02
#       6
#    16  16   8   8  16  16
#     4  10  21  38  62  89 117 154 201 250 297 349
#     4   9  18  33  55  80 108 141 184 236 283 335
#     4   9  16  26  47  77 114 144 169 217 284 341
#     4   9  18  32  52  83 117 148 185 237 290 339
#     4   8  16  30  49  80 112 138 174 223 278 339
#     4  11  24  40  57  82 115 153 193 241 297 357
#
# _framework density 19.469455
#
# number of rings (size 3 to 8) (size 9 to 14) (size 15 to 20)
#    0.000    2.600    1.000    1.800    4.200    1.200 
#    3.600    0.000    0.000    0.000    0.000    2.800 
#    0.000    0.000    0.000    0.000    0.000    0.000 
#
# Total GULP energy -495918.405461 kJ/mol
# GULP energy per Si atom -12397.960137 kJ/mol
# Density = 1.942514 g / cm^3
# Si number density = 19.469455 Si / 1000 Ang^3
#
#
#
# Elastic Constant Matrix: (Units=GPa)
#
#
# Indices 1 2 3 4 5 6 
#
# 1 53.0493 27.6163 44.8691 0.0000 0.0000 0.0000
# 2 27.6163 101.8097 53.3702 0.0000 0.0000 0.0000
# 3 44.8691 53.3702 140.2317 0.0000 0.0000 0.0000
# 4 0.0000 0.0000 0.0000 36.0231 0.0000 0.0000
# 5 0.0000 0.0000 0.0000 0.0000 11.2511 0.0000
# 6 0.0000 0.0000 0.0000 0.0000 0.0000 13.4964
#
#
#
# Elastic Compliance Matrix: (Units=1/GPa)
#
#
# Indices 1 2 3 4 5 6 
#
# 1 0.026788 -0.003464 -0.007253 0.000000 0.000000 0.000000
# 2 -0.003464 0.012718 -0.003732 0.000000 0.000000 0.000000
# 3 -0.007253 -0.003732 0.010872 0.000000 0.000000 0.000000
# 4 0.000000 0.000000 0.000000 0.027760 0.000000 0.000000
# 5 0.000000 0.000000 0.000000 0.000000 0.088880 0.000000
# 6 0.000000 0.000000 0.000000 0.000000 0.000000 0.074094
#
#
# Mechanical properties :
#
#
# Convention : Reuss Voigt Hill
#
# Bulk Modulus (GPa) = 46.55414 60.75577 53.65495
# Shear Modulus (GPa) = 18.03941 23.43647 20.73794
#
# Velocity S-wave (km/s) = 3.04723 3.47328 3.26721
# Velocity P-wave (km/s) = 6.02861 6.88174 6.46925
#
# Compressibility (1/GPa) = 0.02148037
#
# Stress axis : x y z
#
# Youngs Moduli (GPa) = 37.32971 78.62675 91.97937
#
# Poissons Ratio (x) = 0.27240 0.66711
# Poissons Ratio (y) = 0.12933 0.34326
# Poissons Ratio (z) = 0.27074 0.29343
#
# Static dielectric constant tensor:
#      x y z
#    x 3.029630 0.000000 0.000000 
#    y 0.000000 3.683310 0.000000 
#    z 0.000000 0.000000 3.760550 
# 
# 
# High freq. dielectric constant tensor:
#      x y z
#    x 1.700760 0.000000 0.000000 
#    y 0.000000 1.762350 0.000000 
#    z 0.000000 0.000000 1.769790 
# 
# From -- ./inp_files/23592.got.cif
#   From: 2010.03.12/outbox.cif.g09.slc.cpg/sg74_12_cif.got.tgz:23592.got - 2010.04.16 15:46:19.
