data_PCOD8301239
_publ_section_title
;
Structure prediction by ZEFSAII (Michael W. Deem and Ramdas Pophale) SiO2 
 PCOD8301239
Probable space group: I M M A
;
_chemical_formula_sum "Si O2"
_cell_formula_units_Z 72
_cell_length_a 14.275628
_cell_length_b 24.424510
_cell_length_c 10.037137
_cell_angle_alpha 90.000000
_cell_angle_beta 90.000000
_cell_angle_gamma 90.000000
_cell_volume 3499.700940
_symmetry_space_group_name_H-M "I M M A"
_symmetry_group_IT_number 74
_symmetry_cell_setting 'orthorhombic'
loop_
_space_group_symop_operation_xyz
x,y,z
-x,1/2-y,z
x,-y,-z
-x,1/2+y,-z
-x,-y,-z
x,1/2+y,-z
-x,y,z
x,1/2-y,z
1/2+x,1/2+y,1/2+z
1/2-x,-y,1/2+z
1/2+x,1/2-y,1/2-z
1/2-x,y,1/2-z
1/2-x,1/2-y,1/2-z
1/2+x,y,1/2-z
1/2-x,1/2+y,1/2+z
1/2+x,-y,1/2+z
loop_
_atom_site_type_symbol
_atom_site_label
_atom_site_fract_x
_atom_site_fract_y
_atom_site_fract_z
Si Si1 0.324200 0.812059 0.859702
Si Si2 0.000000 0.002647 0.159271
Si Si3 0.293910 0.839680 0.388167
Si Si4 0.690743 0.534775 0.367528
Si Si5 0.500000 0.626824 0.759949
Si Si6 0.500000 0.812702 0.479898
O O1 0.360587 0.750000 0.834764
O O2 0.250000 0.830367 0.750000
O O3 0.410300 0.854518 0.847009
O O4 0.270417 0.812771 0.999579
O O5 0.000000 0.062070 0.229955
O O6 0.089131 0.967628 0.201132
O O7 0.000000 0.000000 0.000000
O O8 0.250000 0.818132 0.250000
O O9 0.279710 0.904237 0.402221
O O10 0.404681 0.825112 0.397336
O O11 0.701151 0.500000 0.500000
O O12 0.750000 0.507897 0.250000
O O13 0.500000 0.653640 0.615202
O O14 0.500000 0.750000 0.521398
#
# Coordination Sequence:
#
# PCOD8301239 Si02
#       6
#    16   8  16  16   8   8
#     4  11  24  41  66  97 129 171 226 276 334 404
#     4  10  22  38  61  94 123 169 212 262 319 393
#     4  11  25  43  66  96 135 175 222 278 336 405
#     4  10  22  39  64  90 124 165 214 261 320 386
#     4  12  24  39  68  99 138 169 224 282 337 393
#     4  12  22  39  66  90 125 174 218 263 334 397
#
# _framework density 20.573186
#
# number of rings (size 3 to 8) (size 9 to 14) (size 15 to 20)
#    0.000    1.111    2.222    5.000    3.111    2.667 
#    0.000    1.667    0.000    0.000    0.000    0.000 
#    0.000    0.000    0.000    0.000    0.000    0.000 
#
# Total GULP energy -446174.996017 kJ/mol
# GULP energy per Si atom -12393.749889 kJ/mol
# Density = 2.052636 g / cm^3
# Si number density = 20.573186 Si / 1000 Ang^3
#
#
#
# Elastic Constant Matrix: (Units=GPa)
#
#
# Indices 1 2 3 4 5 6 
#
# 1 139.9133 1.4485 58.8608 0.0009 -0.0004 -0.0012
# 2 1.4485 58.8680 7.6728 -0.0036 0.0002 -0.0317
# 3 58.8608 7.6728 109.3807 -0.0157 0.0038 -0.1222
# 4 0.0009 -0.0036 -0.0157 22.7064 0.0019 -0.0999
# 5 -0.0004 0.0002 0.0038 0.0019 37.4180 0.0140
# 6 -0.0012 -0.0317 -0.1222 -0.0999 0.0140 191.9845
#
#
#
# Elastic Compliance Matrix: (Units=1/GPa)
#
#
# Indices 1 2 3 4 5 6 
#
# 1 0.009249 0.000425 -0.005007 -0.000004 0.000001 -0.000003
# 2 0.000425 0.017163 -0.001433 0.000002 0.000000 0.000002
# 3 -0.005007 -0.001433 0.011937 0.000008 -0.000001 0.000007
# 4 -0.000004 0.000002 0.000008 0.044040 -0.000002 0.000023
# 5 0.000001 0.000000 -0.000001 -0.000002 0.026725 -0.000002
# 6 -0.000003 0.000002 0.000007 0.000023 -0.000002 0.005209
#
#
# Mechanical properties :
#
#
# Convention : Reuss Voigt Hill
#
# Bulk Modulus (GPa) = 37.99312 49.34734 43.67023
# Shear Modulus (GPa) = 37.00204 66.43379 51.71791
#
# Velocity S-wave (km/s) = 4.24554 5.68872 5.01927
# Velocity P-wave (km/s) = 6.52229 8.19677 7.40700
#
# Compressibility (1/GPa) = 0.02632056
#
# Stress axis : x y z
#
# Youngs Moduli (GPa) = 108.11553 58.26338 83.77044
#
# Poissons Ratio (x) = -0.02476 0.41945
# Poissons Ratio (y) = -0.04595 0.12002
# Poissons Ratio (z) = 0.54135 0.08347
#
# Static dielectric constant tensor:
#      x y z
#    x 3.751690 0.000000 0.000010 
#    y 0.000000 3.761730 0.000000 
#    z 0.000010 0.000000 3.747640 
# 
# 
# High freq. dielectric constant tensor:
#      x y z
#    x 1.821620 0.000000 0.000000 
#    y 0.000000 1.810420 0.000000 
#    z 0.000000 0.000000 1.795480 
# 
# From -- ./inp_files/9213.got.cif
#   From: 2010.03.12/outbox.cif.g09.slc.cpg/sg74_5_cif.got.tgz:9213.got - 2010.04.16 15:46:19.
