data_PCOD8301043
_publ_section_title
;
Structure prediction by ZEFSAII (Michael W. Deem and Ramdas Pophale) SiO2 
 PCOD8301043
Probable space group: I M M A
;
_chemical_formula_sum "Si O2"
_cell_formula_units_Z 112
_cell_length_a 13.515716
_cell_length_b 15.823212
_cell_length_c 25.041711
_cell_angle_alpha 90.000000
_cell_angle_beta 90.000000
_cell_angle_gamma 90.000000
_cell_volume 5355.471390
_symmetry_space_group_name_H-M "I M M A"
_symmetry_group_IT_number 74
_symmetry_cell_setting 'orthorhombic'
loop_
_space_group_symop_operation_xyz
x,y,z
-x,1/2-y,z
x,-y,-z
-x,1/2+y,-z
-x,-y,-z
x,1/2+y,-z
-x,y,z
x,1/2-y,z
1/2+x,1/2+y,1/2+z
1/2-x,-y,1/2+z
1/2+x,1/2-y,1/2-z
1/2-x,y,1/2-z
1/2-x,1/2-y,1/2-z
1/2+x,y,1/2-z
1/2-x,1/2+y,1/2+z
1/2+x,-y,1/2+z
loop_
_atom_site_type_symbol
_atom_site_label
_atom_site_fract_x
_atom_site_fract_y
_atom_site_fract_z
Si Si1 0.611583 0.596660 0.886889
Si Si2 0.264874 0.345285 0.688152
Si Si3 0.780004 0.658466 0.810322
Si Si4 0.696139 0.653046 0.996469
Si Si5 0.613166 0.401856 0.892373
Si Si6 0.884814 0.504463 0.850250
Si Si7 0.109142 0.577686 0.961634
O O1 0.500000 0.628115 0.875455
O O2 0.685159 0.646024 0.848206
O O3 0.633912 0.611176 0.949226
O O4 0.621026 0.498125 0.873771
O O5 0.309093 0.250000 0.683236
O O6 0.250000 0.368581 0.750000
O O7 0.162411 0.347300 0.655091
O O8 0.337357 0.414315 0.662740
O O9 0.826967 0.750000 0.827568
O O10 0.750000 0.665867 0.750000
O O11 0.856695 0.580616 0.810640
O O12 0.667222 0.750000 0.001530
O O13 0.813758 0.645138 0.985002
O O14 0.670073 0.607789 0.051735
O O15 0.500000 0.371939 0.899011
O O16 0.846986 0.539498 0.906991
O O17 0.000000 0.487523 0.849403
O O18 0.000000 0.619994 0.953353
O O19 0.096804 0.500000 0.000000
#
# Coordination Sequence:
#
# PCOD8301043 Si02
#       7
#    16  16  16  16  16  16  16
#     4  11  23  40  65  93 126 171 217 263 322 392
#     4  11  24  43  66  94 131 173 219 270 325 387
#     4  11  24  43  65  93 131 168 213 273 329 385
#     4  12  23  37  61  93 132 168 208 265 322 386
#     4  11  24  42  66  95 128 169 216 267 325 386
#     4  11  23  41  66  93 127 168 217 269 321 388
#     4  10  21  38  61  87 119 163 210 260 318 377
#
# _framework density 20.913191999999999
#
# number of rings (size 3 to 8) (size 9 to 14) (size 15 to 20)
#    0.000    1.000    2.857    3.857    0.000    6.000 
#    0.000    4.286    0.000    4.286    0.000    0.000 
#    0.000    0.000    0.000    0.000    0.000    0.000 
#
# Total GULP energy -694349.166742 kJ/mol
# GULP energy per Si atom -12399.092263 kJ/mol
# Density = 2.086559 g / cm^3
# Si number density = 20.913192 Si / 1000 Ang^3
#
#
#
# Elastic Constant Matrix: (Units=GPa)
#
#
# Indices 1 2 3 4 5 6 
#
# 1 96.6769 35.5851 38.2222 0.0000 0.0000 0.0000
# 2 35.5851 108.5277 18.3868 0.0000 0.0000 0.0000
# 3 38.2222 18.3868 122.9572 0.0000 0.0000 0.0000
# 4 0.0000 0.0000 0.0000 34.5910 0.0000 0.0000
# 5 0.0000 0.0000 0.0000 0.0000 20.2946 0.0000
# 6 0.0000 0.0000 0.0000 0.0000 0.0000 17.0214
#
#
#
# Elastic Compliance Matrix: (Units=1/GPa)
#
#
# Indices 1 2 3 4 5 6 
#
# 1 0.013096 -0.003698 -0.003518 0.000000 0.000000 0.000000
# 2 -0.003698 0.010498 -0.000420 0.000000 0.000000 0.000000
# 3 -0.003518 -0.000420 0.009289 0.000000 0.000000 0.000000
# 4 0.000000 0.000000 0.000000 0.028909 0.000000 0.000000
# 5 0.000000 0.000000 0.000000 0.000000 0.049274 0.000000
# 6 0.000000 0.000000 0.000000 0.000000 0.000000 0.058750
#
#
# Mechanical properties :
#
#
# Convention : Reuss Voigt Hill
#
# Bulk Modulus (GPa) = 56.78377 56.95001 56.86689
# Shear Modulus (GPa) = 26.18365 30.11256 28.14811
#
# Velocity S-wave (km/s) = 3.54222 3.79870 3.67270
# Velocity P-wave (km/s) = 6.62879 6.82135 6.72576
#
# Compressibility (1/GPa) = 0.01761066
#
# Stress axis : x y z
#
# Youngs Moduli (GPa) = 76.36079 95.25658 107.65029
#
# Poissons Ratio (x) = 0.35225 0.37871
# Poissons Ratio (y) = 0.28238 0.04525
# Poissons Ratio (z) = 0.26863 0.04004
#
# Static dielectric constant tensor:
#      x y z
#    x 4.085310 0.000000 0.000000 
#    y 0.000000 3.692470 0.000000 
#    z 0.000000 0.000000 3.848700 
# 
# 
# High freq. dielectric constant tensor:
#      x y z
#    x 1.818180 0.000000 0.000000 
#    y 0.000000 1.824620 0.000000 
#    z 0.000000 0.000000 1.827260 
# 
# From -- ./inp_files/60194.got.cif
#   From: 2010.03.12/outbox.cif.g09.slc.cpg/sg74_31_cif.got.tgz:60194.got - 2010.04.16 15:46:19.
