data_PCOD8301024
_publ_section_title
;
Structure prediction by ZEFSAII (Michael W. Deem and Ramdas Pophale) SiO2 
 PCOD8301024
Probable space group: I M M A
;
_chemical_formula_sum "Si O2"
_cell_formula_units_Z 88
_cell_length_a 8.838097
_cell_length_b 21.850773
_cell_length_c 22.749803
_cell_angle_alpha 90.000000
_cell_angle_beta 90.000000
_cell_angle_gamma 90.000000
_cell_volume 4393.424923
_symmetry_space_group_name_H-M "I M M A"
_symmetry_group_IT_number 74
_symmetry_cell_setting 'orthorhombic'
loop_
_space_group_symop_operation_xyz
x,y,z
-x,1/2-y,z
x,-y,-z
-x,1/2+y,-z
-x,-y,-z
x,1/2+y,-z
-x,y,z
x,1/2-y,z
1/2+x,1/2+y,1/2+z
1/2-x,-y,1/2+z
1/2+x,1/2-y,1/2-z
1/2-x,y,1/2-z
1/2-x,1/2-y,1/2-z
1/2+x,y,1/2-z
1/2-x,1/2+y,1/2+z
1/2+x,-y,1/2+z
loop_
_atom_site_type_symbol
_atom_site_label
_atom_site_fract_x
_atom_site_fract_y
_atom_site_fract_z
Si Si1 0.677439 0.014976 0.691112
Si Si2 0.173152 0.905002 0.892669
Si Si3 0.678936 0.372379 0.865660
Si Si4 0.323898 0.681397 0.807316
Si Si5 0.171052 0.072409 0.507776
Si Si6 0.181622 0.250000 0.815862
O O1 0.500000 0.025885 0.699795
O O2 0.750000 0.985637 0.750000
O O3 0.761350 0.079255 0.681731
O O4 0.710700 0.970855 0.635855
O O5 0.280083 0.854518 0.865027
O O6 0.209840 0.901532 0.961312
O O7 0.000000 0.887490 0.881794
O O8 0.500000 0.363158 0.858362
O O9 0.762543 0.308516 0.853184
O O10 0.720978 0.400371 0.929452
O O11 0.500000 0.679730 0.797914
O O12 0.261544 0.750000 0.814624
O O13 0.250000 0.650125 0.750000
O O14 0.000000 0.093834 0.493783
O O15 0.181526 0.000000 0.500000
O O16 0.250000 0.250000 0.750000
O O17 0.000000 0.250000 0.811560
#
# Coordination Sequence:
#
# PCOD8301024 Si02
#       6
#    16  16  16  16  16   8
#     4  11  23  37  57  89 124 159 199 249 307 366
#     4  11  23  37  59  89 122 160 202 251 303 364
#     4  11  23  42  67  93 124 163 209 257 312 374
#     4  10  21  38  60  85 117 157 200 249 303 361
#     4  10  21  40  65  91 121 161 201 246 305 365
#     4  12  26  46  70  96 130 168 213 264 323 382
#
# _framework density 20.029931000000001
#
# number of rings (size 3 to 8) (size 9 to 14) (size 15 to 20)
#    0.000    1.273    1.818    4.091    0.000    6.545 
#    1.636    0.000    0.000    0.000    0.000    0.000 
#    0.000    0.000    0.000    0.000    0.000    0.000 
#
# Total GULP energy -545647.108872 kJ/mol
# GULP energy per Si atom -12401.070656 kJ/mol
# Density = 1.998434 g / cm^3
# Si number density = 20.029931 Si / 1000 Ang^3
#
#
#
# Elastic Constant Matrix: (Units=GPa)
#
#
# Indices 1 2 3 4 5 6 
#
# 1 100.3451 49.7374 48.4085 0.0000 0.0000 0.0000
# 2 49.7374 95.7307 41.5853 0.0000 0.0000 0.0000
# 3 48.4085 41.5853 119.4246 0.0000 0.0000 0.0000
# 4 0.0000 0.0000 0.0000 34.9719 0.0000 0.0000
# 5 0.0000 0.0000 0.0000 0.0000 39.5693 0.0000
# 6 0.0000 0.0000 0.0000 0.0000 0.0000 39.6639
#
#
#
# Elastic Compliance Matrix: (Units=1/GPa)
#
#
# Indices 1 2 3 4 5 6 
#
# 1 0.014833 -0.006003 -0.003922 0.000000 0.000000 0.000000
# 2 -0.006003 0.014737 -0.002698 0.000000 0.000000 0.000000
# 3 -0.003922 -0.002698 0.010903 0.000000 0.000000 0.000000
# 4 0.000000 0.000000 0.000000 0.028594 0.000000 0.000000
# 5 0.000000 0.000000 0.000000 0.000000 0.025272 0.000000
# 6 0.000000 0.000000 0.000000 0.000000 0.000000 0.025212
#
#
# Mechanical properties :
#
#
# Convention : Reuss Voigt Hill
#
# Bulk Modulus (GPa) = 65.67677 66.10696 65.89186
# Shear Modulus (GPa) = 33.36136 34.55895 33.96016
#
# Velocity S-wave (km/s) = 4.08557 4.15826 4.12208
# Velocity P-wave (km/s) = 7.42404 7.49203 7.45811
#
# Compressibility (1/GPa) = 0.01522608
#
# Stress axis : x y z
#
# Youngs Moduli (GPa) = 67.41631 67.85671 91.71773
#
# Poissons Ratio (x) = 0.40733 0.35975
# Poissons Ratio (y) = 0.40469 0.24749
# Poissons Ratio (z) = 0.26443 0.18310
#
# Static dielectric constant tensor:
#      x y z
#    x 3.656620 0.000000 0.000000 
#    y 0.000000 3.638000 0.000000 
#    z 0.000000 0.000000 3.743870 
# 
# 
# High freq. dielectric constant tensor:
#      x y z
#    x 1.791930 0.000000 0.000000 
#    y 0.000000 1.777760 0.000000 
#    z 0.000000 0.000000 1.787460 
# 
# From -- ./inp_files/48720.got.cif
#   From: 2010.03.12/outbox.cif.g09.slc.cpg/sg74_25_cif.got.tgz:48720.got - 2010.04.16 15:46:19.
