data_PCOD8301586
_publ_section_title
;
Structure prediction by ZEFSAII (Michael W. Deem and Ramdas Pophale) SiO2 
 PCOD8301586
Probable space group: I M M A
;
_chemical_formula_sum "Si O2"
_cell_formula_units_Z 56
_cell_length_a 14.268114
_cell_length_b 18.984969
_cell_length_c 10.890879
_cell_angle_alpha 90.000000
_cell_angle_beta 90.000000
_cell_angle_gamma 90.000000
_cell_volume 2950.118058
_symmetry_space_group_name_H-M "I M M A"
_symmetry_group_IT_number 74
_symmetry_cell_setting 'orthorhombic'
loop_
_space_group_symop_operation_xyz
x,y,z
-x,1/2-y,z
x,-y,-z
-x,1/2+y,-z
-x,-y,-z
x,1/2+y,-z
-x,y,z
x,1/2-y,z
1/2+x,1/2+y,1/2+z
1/2-x,-y,1/2+z
1/2+x,1/2-y,1/2-z
1/2-x,y,1/2-z
1/2-x,1/2-y,1/2-z
1/2+x,y,1/2-z
1/2-x,1/2+y,1/2+z
1/2+x,-y,1/2+z
loop_
_atom_site_type_symbol
_atom_site_label
_atom_site_fract_x
_atom_site_fract_y
_atom_site_fract_z
Si Si1 0.000000 0.492285 0.645142
Si Si2 0.147652 0.750000 0.697849
Si Si3 0.500000 0.860063 0.718387
Si Si4 0.641869 0.617375 0.239710
Si Si5 0.500000 0.165634 0.561912
Si Si6 0.108045 0.250000 0.572338
O O1 0.000000 0.500000 0.500000
O O2 0.000000 0.565905 0.714353
O O3 0.907241 0.450844 0.684171
O O4 0.250000 0.750000 0.750000
O O5 0.093187 0.819311 0.741241
O O6 0.165299 0.750000 0.552720
O O7 0.500000 0.869842 0.571583
O O8 0.750000 0.597237 0.250000
O O9 0.593601 0.639727 0.368017
O O10 0.633392 0.681667 0.147690
O O11 0.500000 0.250000 0.551123
O O12 0.000000 0.250000 0.535450
#
# Coordination Sequence:
#
# PCOD8301586 Si02
#       6
#     8   8   8  16   8   8
#     4  11  24  48  64  87 133 173 209 259 314 376
#     4  11  25  39  64  98 120 162 216 266 320 371
#     4  11  24  42  64  90 132 167 199 262 324 371
#     4  11  24  39  67  96 121 169 213 258 313 374
#     4  11  21  41  64  94 132 158 204 264 323 369
#     4  12  19  40  66  92 125 166 218 262 312 382
#
# _framework density 18.982291
#
# number of rings (size 3 to 8) (size 9 to 14) (size 15 to 20)
#    0.000    0.857    7.143    2.143    4.000    3.429 
#    5.143    0.000    0.000    0.000    0.000    0.000 
#    0.000    0.000    0.000    0.000    0.000    0.000 
#
# Total GULP energy -347295.147487 kJ/mol
# GULP energy per Si atom -12403.398125 kJ/mol
# Density = 1.893909 g / cm^3
# Si number density = 18.982291 Si / 1000 Ang^3
#
#
#
# Elastic Constant Matrix: (Units=GPa)
#
#
# Indices 1 2 3 4 5 6 
#
# 1 167.8040 79.3355 59.0259 0.0000 0.0000 0.0000
# 2 79.3355 162.7681 83.3882 0.0000 0.0000 0.0000
# 3 59.0259 83.3882 193.1014 0.0000 0.0000 0.0000
# 4 0.0000 0.0000 0.0000 22.6716 0.0000 0.0000
# 5 0.0000 0.0000 0.0000 0.0000 22.2485 0.0000
# 6 0.0000 0.0000 0.0000 0.0000 0.0000 18.7580
#
#
#
# Elastic Compliance Matrix: (Units=1/GPa)
#
#
# Indices 1 2 3 4 5 6 
#
# 1 0.007881 -0.003348 -0.000963 0.000000 0.000000 0.000000
# 2 -0.003348 0.009311 -0.002998 0.000000 0.000000 0.000000
# 3 -0.000963 -0.002998 0.006768 0.000000 0.000000 0.000000
# 4 0.000000 0.000000 0.000000 0.044108 0.000000 0.000000
# 5 0.000000 0.000000 0.000000 0.000000 0.044947 0.000000
# 6 0.000000 0.000000 0.000000 0.000000 0.000000 0.053311
#
#
# Mechanical properties :
#
#
# Convention : Reuss Voigt Hill
#
# Bulk Modulus (GPa) = 107.03943 107.46366 107.25154
# Shear Modulus (GPa) = 27.16555 32.86388 30.01471
#
# Velocity S-wave (km/s) = 3.78709 4.16539 3.98074
# Velocity P-wave (km/s) = 8.69680 8.93697 8.81770
#
# Compressibility (1/GPa) = 0.00934235
#
# Stress axis : x y z
#
# Youngs Moduli (GPa) = 126.88796 107.39801 147.76415
#
# Poissons Ratio (x) = 0.35955 0.14234
# Poissons Ratio (y) = 0.42479 0.44293
# Poissons Ratio (z) = 0.12223 0.32193
#
# Static dielectric constant tensor:
#      x y z
#    x 2.539410 0.000000 0.000000 
#    y 0.000000 3.555150 0.000000 
#    z 0.000000 0.000000 3.758310 
# 
# 
# High freq. dielectric constant tensor:
#      x y z
#    x 1.740200 0.000000 0.000000 
#    y 0.000000 1.740550 0.000000 
#    z 0.000000 0.000000 1.756250 
# 
# From -- ./inp_files/19860.got.cif
#   From: 2010.03.12/outbox.cif.g09.slc.cpg/sg74_10_cif.got.tgz:19860.got - 2010.04.16 15:46:19.
