data_PCOD8301232
_publ_section_title
;
Structure prediction by ZEFSAII (Michael W. Deem and Ramdas Pophale) SiO2 
 PCOD8301232
Probable space group: I M M A
;
_chemical_formula_sum "Si O2"
_cell_formula_units_Z 72
_cell_length_a 16.630089
_cell_length_b 8.723161
_cell_length_c 24.684050
_cell_angle_alpha 90.000000
_cell_angle_beta 90.000000
_cell_angle_gamma 90.000000
_cell_volume 3580.839694
_symmetry_space_group_name_H-M "I M M A"
_symmetry_group_IT_number 74
_symmetry_cell_setting 'orthorhombic'
loop_
_space_group_symop_operation_xyz
x,y,z
-x,1/2-y,z
x,-y,-z
-x,1/2+y,-z
-x,-y,-z
x,1/2+y,-z
-x,y,z
x,1/2-y,z
1/2+x,1/2+y,1/2+z
1/2-x,-y,1/2+z
1/2+x,1/2-y,1/2-z
1/2-x,y,1/2-z
1/2-x,1/2-y,1/2-z
1/2+x,y,1/2-z
1/2-x,1/2+y,1/2+z
1/2+x,-y,1/2+z
loop_
_atom_site_type_symbol
_atom_site_label
_atom_site_fract_x
_atom_site_fract_y
_atom_site_fract_z
Si Si1 0.000000 0.932039 0.060095
Si Si2 0.408963 0.069085 0.054781
Si Si3 0.123557 0.569462 0.858516
Si Si4 0.192702 0.069057 0.344585
Si Si5 0.911257 0.573825 0.253057
O O1 0.000000 0.750000 0.056584
O O2 0.919982 0.986709 0.091462
O O3 0.000000 0.000000 0.000000
O O4 0.500000 0.010987 0.062265
O O5 0.403688 0.250000 0.051152
O O6 0.358675 0.006646 0.105156
O O7 0.371506 0.000000 0.000000
O O8 0.113328 0.750000 0.866689
O O9 0.216515 0.519484 0.856415
O O10 0.083955 0.520094 0.802394
O O11 0.184274 0.250000 0.336429
O O12 0.159275 0.990844 0.290603
O O13 0.891903 0.750000 0.239942
O O14 0.000000 0.556647 0.280428
#
# Coordination Sequence:
#
# PCOD8301232 Si02
#       5
#     8  16  16  16  16
#     4  12  26  46  70  94 122 162 211 260 315 376
#     4   9  18  34  55  79 112 152 192 238 290 349
#     4  11  23  41  64  90 121 158 201 255 313 371
#     4  10  22  38  59  89 121 157 204 251 306 372
#     4  11  23  38  59  89 125 164 205 250 305 368
#
# _framework density 20.107016000000002
#
# number of rings (size 3 to 8) (size 9 to 14) (size 15 to 20)
#    0.000    1.556    1.111    3.667    0.000    8.444 
#    0.000    4.444    0.000    0.000    0.000    0.000 
#    0.000    0.000    0.000    0.000    0.000    0.000 
#
# Total GULP energy -446499.770479 kJ/mol
# GULP energy per Si atom -12402.771402 kJ/mol
# Density = 2.006125 g / cm^3
# Si number density = 20.107016 Si / 1000 Ang^3
#
#
#
# Elastic Constant Matrix: (Units=GPa)
#
#
# Indices 1 2 3 4 5 6 
#
# 1 132.9719 51.3970 68.5794 0.0000 0.0000 0.0000
# 2 51.3970 83.0293 47.8981 0.0000 0.0000 0.0000
# 3 68.5794 47.8981 150.9357 0.0000 0.0000 0.0000
# 4 0.0000 0.0000 0.0000 37.9402 0.0000 0.0000
# 5 0.0000 0.0000 0.0000 0.0000 17.5917 0.0000
# 6 0.0000 0.0000 0.0000 0.0000 0.0000 29.3615
#
#
#
# Elastic Compliance Matrix: (Units=1/GPa)
#
#
# Indices 1 2 3 4 5 6 
#
# 1 0.011253 -0.004916 -0.003553 0.000000 0.000000 0.000000
# 2 -0.004916 0.016891 -0.003126 0.000000 0.000000 0.000000
# 3 -0.003553 -0.003126 0.009232 0.000000 0.000000 0.000000
# 4 0.000000 0.000000 0.000000 0.026357 0.000000 0.000000
# 5 0.000000 0.000000 0.000000 0.000000 0.056845 0.000000
# 6 0.000000 0.000000 0.000000 0.000000 0.000000 0.034058
#
#
# Mechanical properties :
#
#
# Convention : Reuss Voigt Hill
#
# Bulk Modulus (GPa) = 70.49909 78.07622 74.28765
# Shear Modulus (GPa) = 27.38899 30.24951 28.81925
#
# Velocity S-wave (km/s) = 3.69475 3.88290 3.78999
# Velocity P-wave (km/s) = 7.30340 7.68226 7.49523
#
# Compressibility (1/GPa) = 0.01418458
#
# Stress axis : x y z
#
# Youngs Moduli (GPa) = 88.86522 59.20383 108.32231
#
# Poissons Ratio (x) = 0.29107 0.38485
# Poissons Ratio (y) = 0.43689 0.33865
# Poissons Ratio (z) = 0.31572 0.18509
#
# Static dielectric constant tensor:
#      x y z
#    x 3.866110 0.000000 0.000000 
#    y 0.000000 3.570190 0.000000 
#    z 0.000000 0.000000 3.715980 
# 
# 
# High freq. dielectric constant tensor:
#      x y z
#    x 1.795700 0.000000 0.000000 
#    y 0.000000 1.783940 0.000000 
#    z 0.000000 0.000000 1.787750 
# 
# From -- ./inp_files/56692.got.cif
#   From: 2010.03.12/outbox.cif.g09.slc.cpg/sg74_29_cif.got.tgz:56692.got - 2010.04.16 15:46:19.
