data_PCOD8301483
_publ_section_title
;
Structure prediction by ZEFSAII (Michael W. Deem and Ramdas Pophale) SiO2 
 PCOD8301483
Probable space group: I M M A
;
_chemical_formula_sum "Si O2"
_cell_formula_units_Z 64
_cell_length_a 34.581620
_cell_length_b 8.832958
_cell_length_c 13.639216
_cell_angle_alpha 90.000000
_cell_angle_beta 90.000000
_cell_angle_gamma 90.000000
_cell_volume 4166.207600
_symmetry_space_group_name_H-M "I M M A"
_symmetry_group_IT_number 74
_symmetry_cell_setting 'orthorhombic'
loop_
_space_group_symop_operation_xyz
x,y,z
-x,1/2-y,z
x,-y,-z
-x,1/2+y,-z
-x,-y,-z
x,1/2+y,-z
-x,y,z
x,1/2-y,z
1/2+x,1/2+y,1/2+z
1/2-x,-y,1/2+z
1/2+x,1/2-y,1/2-z
1/2-x,y,1/2-z
1/2-x,1/2-y,1/2-z
1/2+x,y,1/2-z
1/2-x,1/2+y,1/2+z
1/2+x,-y,1/2+z
loop_
_atom_site_type_symbol
_atom_site_label
_atom_site_fract_x
_atom_site_fract_y
_atom_site_fract_z
Si Si1 0.882165 0.571195 0.107334
Si Si2 0.690059 0.071937 0.296386
Si Si3 0.958085 0.427226 0.106163
Si Si4 0.767759 0.926733 0.601282
O O1 0.884032 0.750000 0.097245
O O2 0.847350 0.524519 0.177525
O O3 0.921819 0.509173 0.158816
O O4 0.876194 0.500000 0.000000
O O5 0.681926 0.250000 0.309620
O O6 0.725178 0.017967 0.366142
O O7 0.700915 0.032760 0.184353
O O8 0.949098 0.250000 0.096780
O O9 0.000000 0.453325 0.159331
O O10 0.960716 0.500000 0.000000
O O11 0.766024 0.750000 0.585414
O O12 0.780986 0.000000 0.500000
#
# Coordination Sequence:
#
# PCOD8301483 Si02
#       4
#    16  16  16  16
#     4  11  20  28  41  61  85 114 144 176 211 247
#     4   9  18  32  45  61  85 112 142 175 211 250
#     4   9  16  26  40  57  79 109 141 171 205 246
#     4   9  18  31  47  63  83 111 141 176 215 251
#
# _framework density 15.361693000000001
#
# number of rings (size 3 to 8) (size 9 to 14) (size 15 to 20)
#    0.000    2.500    0.000    6.750    0.000    5.500 
#    0.000    2.500    0.000    0.000    0.000    0.000 
#    0.000    1.000    0.000    3.250    0.000    4.500 
#
# Total GULP energy -396565.570772 kJ/mol
# GULP energy per Si atom -12392.674087 kJ/mol
# Density = 1.532673 g / cm^3
# Si number density = 15.361693 Si / 1000 Ang^3
#
#
#
# Elastic Constant Matrix: (Units=GPa)
#
#
# Indices 1 2 3 4 5 6 
#
# 1 138.4130 62.6870 41.0528 0.0000 0.0000 0.0000
# 2 62.6870 95.6706 33.4473 0.0000 0.0000 0.0000
# 3 41.0528 33.4473 72.0559 0.0000 0.0000 0.0000
# 4 0.0000 0.0000 0.0000 22.1861 0.0000 0.0000
# 5 0.0000 0.0000 0.0000 0.0000 13.5825 0.0000
# 6 0.0000 0.0000 0.0000 0.0000 0.0000 23.6148
#
#
#
# Elastic Compliance Matrix: (Units=1/GPa)
#
#
# Indices 1 2 3 4 5 6 
#
# 1 0.010956 -0.005965 -0.003474 0.000000 0.000000 0.000000
# 2 -0.005965 0.015725 -0.003901 0.000000 0.000000 0.000000
# 3 -0.003474 -0.003901 0.017668 0.000000 0.000000 0.000000
# 4 0.000000 0.000000 0.000000 0.045073 0.000000 0.000000
# 5 0.000000 0.000000 0.000000 0.000000 0.073624 0.000000
# 6 0.000000 0.000000 0.000000 0.000000 0.000000 0.042346
#
#
# Mechanical properties :
#
#
# Convention : Reuss Voigt Hill
#
# Bulk Modulus (GPa) = 56.59083 64.50152 60.54617
# Shear Modulus (GPa) = 21.01183 23.14014 22.07599
#
# Velocity S-wave (km/s) = 3.70240 3.88539 3.79500
# Velocity P-wave (km/s) = 7.42940 7.88721 7.66172
#
# Compressibility (1/GPa) = 0.01767071
#
# Stress axis : x y z
#
# Youngs Moduli (GPa) = 91.27112 63.59472 56.60009
#
# Poissons Ratio (x) = 0.37932 0.19660
# Poissons Ratio (y) = 0.54440 0.22079
# Poissons Ratio (z) = 0.31703 0.24807
#
# Static dielectric constant tensor:
#      x y z
#    x 3.541380 0.000000 0.000000 
#    y 0.000000 2.965790 0.000000 
#    z 0.000000 0.000000 2.341660 
# 
# 
# High freq. dielectric constant tensor:
#      x y z
#    x 1.599200 0.000000 0.000000 
#    y 0.000000 1.598540 0.000000 
#    z 0.000000 0.000000 1.536030 
# 
# From -- ./inp_files/29321.got.cif
#   From: 2010.03.12/outbox.cif.g09.slc.cpg/sg74_15_cif.got.tgz:29321.got - 2010.04.16 15:46:19.
