data_PCOD8301753
_publ_section_title
;
Structure prediction by ZEFSAII (Michael W. Deem and Ramdas Pophale) SiO2 
 PCOD8301753
Probable space group: I M M A
;
_chemical_formula_sum "Si O2"
_cell_formula_units_Z 80
_cell_length_a 9.675789
_cell_length_b 23.762948
_cell_length_c 24.586363
_cell_angle_alpha 90.000000
_cell_angle_beta 90.000000
_cell_angle_gamma 90.000000
_cell_volume 5653.026172
_symmetry_space_group_name_H-M "I M M A"
_symmetry_group_IT_number 74
_symmetry_cell_setting 'orthorhombic'
loop_
_space_group_symop_operation_xyz
x,y,z
-x,1/2-y,z
x,-y,-z
-x,1/2+y,-z
-x,-y,-z
x,1/2+y,-z
-x,y,z
x,1/2-y,z
1/2+x,1/2+y,1/2+z
1/2-x,-y,1/2+z
1/2+x,1/2-y,1/2-z
1/2-x,y,1/2-z
1/2-x,1/2-y,1/2-z
1/2+x,y,1/2-z
1/2-x,1/2+y,1/2+z
1/2+x,-y,1/2+z
loop_
_atom_site_type_symbol
_atom_site_label
_atom_site_fract_x
_atom_site_fract_y
_atom_site_fract_z
Si Si1 0.835624 0.586204 0.481518
Si Si2 0.341504 0.866551 0.199841
Si Si3 0.336022 0.978600 0.917424
Si Si4 0.664552 0.687385 0.087712
Si Si5 0.658519 0.999122 0.200001
O O1 0.776962 0.536346 0.443239
O O2 0.789996 0.574035 0.544237
O O3 0.777995 0.646077 0.459895
O O4 0.000000 0.586169 0.477700
O O5 0.500000 0.850861 0.212120
O O6 0.250000 0.845008 0.250000
O O7 0.286118 0.835197 0.146211
O O8 0.324211 0.932831 0.190851
O O9 0.500000 0.983962 0.916070
O O10 0.285232 0.970892 0.855234
O O11 0.500000 0.687969 0.086555
O O12 0.724177 0.750000 0.077663
O O13 0.500000 0.014929 0.212378
O O14 0.750000 0.021292 0.250000
#
# Coordination Sequence:
#
# PCOD8301753 Si02
#       5
#    16  16  16  16  16
#     4   8  12  19  31  48  66  86 112 142 175 205
#     4   9  16  25  35  48  68  94 122 148 172 199
#     4   8  12  19  33  49  66  85 111 144 171 203
#     4   9  15  22  32  47  69  92 114 143 177 208
#     4   9  15  23  35  52  72  93 116 143 172 203
#
# _framework density 14.151712
#
# number of rings (size 3 to 8) (size 9 to 14) (size 15 to 20)
#    0.000    3.400    2.000    1.200    0.000    0.400 
#    0.000    0.000    0.000    0.000    0.000    4.200 
#    0.000    0.800    0.000    0.600    0.000    1.200 
#
# Total GULP energy -495565.146868 kJ/mol
# GULP energy per Si atom -12389.128672 kJ/mol
# Density = 1.411950 g / cm^3
# Si number density = 14.151712 Si / 1000 Ang^3
#
#
#
# Elastic Constant Matrix: (Units=GPa)
#
#
# Indices 1 2 3 4 5 6 
#
# 1 20.8911 13.5126 30.8788 0.0000 0.0000 0.0000
# 2 13.5126 66.2917 63.5054 0.0000 0.0000 0.0000
# 3 30.8788 63.5054 150.4237 0.0000 0.0000 0.0000
# 4 0.0000 0.0000 0.0000 21.4548 0.0000 0.0000
# 5 0.0000 0.0000 0.0000 0.0000 16.9270 0.0000
# 6 0.0000 0.0000 0.0000 0.0000 0.0000 5.0760
#
#
#
# Elastic Compliance Matrix: (Units=1/GPa)
#
#
# Indices 1 2 3 4 5 6 
#
# 1 0.068744 -0.000829 -0.013762 0.000000 0.000000 0.000000
# 2 -0.000829 0.025339 -0.010527 0.000000 0.000000 0.000000
# 3 -0.013762 -0.010527 0.013917 0.000000 0.000000 0.000000
# 4 0.000000 0.000000 0.000000 0.046610 0.000000 0.000000
# 5 0.000000 0.000000 0.000000 0.000000 0.059077 0.000000
# 6 0.000000 0.000000 0.000000 0.000000 0.000000 0.197007
#
#
# Mechanical properties :
#
#
# Convention : Reuss Voigt Hill
#
# Bulk Modulus (GPa) = 17.31181 50.37778 33.84480
# Shear Modulus (GPa) = 10.41265 17.33887 13.87576
#
# Velocity S-wave (km/s) = 2.71548 3.50410 3.13469
# Velocity P-wave (km/s) = 4.70015 7.21438 6.08846
#
# Compressibility (1/GPa) = 0.05776402
#
# Stress axis : x y z
#
# Youngs Moduli (GPa) = 14.54662 39.46557 71.85372
#
# Poissons Ratio (x) = 0.03273 0.98883
# Poissons Ratio (y) = 0.01206 0.75641
# Poissons Ratio (z) = 0.20019 0.41546
#
# Static dielectric constant tensor:
#      x y z
#    x 2.324550 0.000000 0.000000 
#    y 0.000000 2.780170 0.000000 
#    z 0.000000 0.000000 3.089530 
# 
# 
# High freq. dielectric constant tensor:
#      x y z
#    x 1.482680 0.000000 0.000000 
#    y 0.000000 1.506040 0.000000 
#    z 0.000000 0.000000 1.547790 
# 
# From -- ./inp_files/70394.got.cif
#   From: 2010.03.12/outbox.cif.g09.slc.cpg/sg74_36_cif.got.tgz:70394.got - 2010.04.16 15:46:19.
