data_PCOD8301394
_publ_section_title
;
Structure prediction by ZEFSAII (Michael W. Deem and Ramdas Pophale) SiO2 
 PCOD8301394
Probable space group: I M M A
;
_chemical_formula_sum "Si O2"
_cell_formula_units_Z 104
_cell_length_a 22.882926
_cell_length_b 24.608640
_cell_length_c 9.271960
_cell_angle_alpha 90.000000
_cell_angle_beta 90.000000
_cell_angle_gamma 90.000000
_cell_volume 5221.204679
_symmetry_space_group_name_H-M "I M M A"
_symmetry_group_IT_number 74
_symmetry_cell_setting 'orthorhombic'
loop_
_space_group_symop_operation_xyz
x,y,z
-x,1/2-y,z
x,-y,-z
-x,1/2+y,-z
-x,-y,-z
x,1/2+y,-z
-x,y,z
x,1/2-y,z
1/2+x,1/2+y,1/2+z
1/2-x,-y,1/2+z
1/2+x,1/2-y,1/2-z
1/2-x,y,1/2-z
1/2-x,1/2-y,1/2-z
1/2+x,y,1/2-z
1/2-x,1/2+y,1/2+z
1/2+x,-y,1/2+z
loop_
_atom_site_type_symbol
_atom_site_label
_atom_site_fract_x
_atom_site_fract_y
_atom_site_fract_z
Si Si1 0.180984 0.574725 0.239002
Si Si2 0.500000 0.636811 0.096442
Si Si3 0.000000 0.813684 0.105613
Si Si4 0.385473 0.467540 0.280404
Si Si5 0.315249 0.186147 0.240701
Si Si6 0.123034 0.882953 0.527772
Si Si7 0.615651 0.372271 0.489873
Si Si8 0.500000 0.982346 0.166665
O O1 0.250000 0.579875 0.250000
O O2 0.165310 0.512404 0.198429
O O3 0.150151 0.591393 0.386403
O O4 0.158807 0.618821 0.123730
O O5 0.500000 0.683266 0.219124
O O6 0.556830 0.638263 0.994162
O O7 0.500000 0.581616 0.186089
O O8 0.000000 0.750000 0.063336
O O9 0.056468 0.843117 0.039377
O O10 0.395334 0.432000 0.423531
O O11 0.444718 0.498228 0.252088
O O12 0.370968 0.429776 0.145731
O O13 0.314296 0.250000 0.247420
O O14 0.250000 0.161870 0.250000
O O15 0.353637 0.165611 0.373212
O O16 0.341384 0.168661 0.086155
O O17 0.500000 0.000000 0.000000
#
# Coordination Sequence:
#
# PCOD8301394 Si02
#       8
#    16   8   8  16  16  16  16   8
#     4  12  24  39  61  94 134 177 218 259 321 395
#     4  12  22  39  65  95 128 162 214 264 331 382
#     4  12  25  44  68  93 130 169 218 287 343 384
#     4  11  22  36  63  93 128 170 211 258 315 389
#     4  10  23  44  67  90 122 167 219 273 327 384
#     4  11  22  40  63  92 127 165 214 265 319 386
#     4  11  24  43  64  95 131 172 217 273 329 393
#     4  12  17  35  62  88 122 167 203 251 311 396
#
# _framework density 19.918773000000002
#
# number of rings (size 3 to 8) (size 9 to 14) (size 15 to 20)
#    0.000    0.769    4.615    2.769    0.000    7.385 
#    0.000    3.077    0.000    3.231    0.000    0.000 
#    0.000    0.000    0.000    0.000    0.000    0.000 
#
# Total GULP energy -644891.198028 kJ/mol
# GULP energy per Si atom -12401.753808 kJ/mol
# Density = 1.987344 g / cm^3
# Si number density = 19.918773 Si / 1000 Ang^3
#
#
#
# Elastic Constant Matrix: (Units=GPa)
#
#
# Indices 1 2 3 4 5 6 
#
# 1 155.0857 55.3154 26.4732 0.0000 0.0000 0.0000
# 2 55.3154 89.9393 38.2127 0.0000 0.0000 0.0000
# 3 26.4732 38.2127 71.1266 0.0000 0.0000 0.0000
# 4 0.0000 0.0000 0.0000 28.6020 0.0000 0.0000
# 5 0.0000 0.0000 0.0000 0.0000 23.4291 0.0000
# 6 0.0000 0.0000 0.0000 0.0000 0.0000 47.7966
#
#
#
# Elastic Compliance Matrix: (Units=1/GPa)
#
#
# Indices 1 2 3 4 5 6 
#
# 1 0.008271 -0.004897 -0.000448 0.000000 0.000000 0.000000
# 2 -0.004897 0.017306 -0.007475 0.000000 0.000000 0.000000
# 3 -0.000448 -0.007475 0.018242 0.000000 0.000000 0.000000
# 4 0.000000 0.000000 0.000000 0.034963 0.000000 0.000000
# 5 0.000000 0.000000 0.000000 0.000000 0.042682 0.000000
# 6 0.000000 0.000000 0.000000 0.000000 0.000000 0.020922
#
#
# Mechanical properties :
#
#
# Convention : Reuss Voigt Hill
#
# Bulk Modulus (GPa) = 55.00514 61.79492 58.40003
# Shear Modulus (GPa) = 28.72155 33.04221 30.88188
#
# Velocity S-wave (km/s) = 3.80140 4.07731 3.94177
# Velocity P-wave (km/s) = 6.85144 7.29773 7.07810
#
# Compressibility (1/GPa) = 0.01818012
#
# Stress axis : x y z
#
# Youngs Moduli (GPa) = 120.90425 57.78261 54.81817
#
# Poissons Ratio (x) = 0.28294 0.02454
# Poissons Ratio (y) = 0.59203 0.40978
# Poissons Ratio (z) = 0.05413 0.43194
#
# Static dielectric constant tensor:
#      x y z
#    x 3.565810 0.000000 0.000000 
#    y 0.000000 -0.003830 0.000000 
#    z 0.000000 0.000000 3.797030 
# 
# 
# High freq. dielectric constant tensor:
#      x y z
#    x 1.789740 0.000000 0.000000 
#    y 0.000000 1.776020 0.000000 
#    z 0.000000 0.000000 1.788160 
# 
# From -- ./inp_files/14183.got.cif
#   From: 2010.03.12/outbox.cif.g09.slc.cpg/sg74_8_cif.got.tgz:14183.got - 2010.04.16 15:46:19.
