data_PCOD8301050
_publ_section_title
;
Structure prediction by ZEFSAII (Michael W. Deem and Ramdas Pophale) SiO2 
 PCOD8301050
Probable space group: I M M A
;
_chemical_formula_sum "Si O2"
_cell_formula_units_Z 96
_cell_length_a 29.355849
_cell_length_b 16.487996
_cell_length_c 9.564551
_cell_angle_alpha 90.000000
_cell_angle_beta 90.000000
_cell_angle_gamma 90.000000
_cell_volume 4629.425567
_symmetry_space_group_name_H-M "I M M A"
_symmetry_group_IT_number 74
_symmetry_cell_setting 'orthorhombic'
loop_
_space_group_symop_operation_xyz
x,y,z
-x,1/2-y,z
x,-y,-z
-x,1/2+y,-z
-x,-y,-z
x,1/2+y,-z
-x,y,z
x,1/2-y,z
1/2+x,1/2+y,1/2+z
1/2-x,-y,1/2+z
1/2+x,1/2-y,1/2-z
1/2-x,y,1/2-z
1/2-x,1/2-y,1/2-z
1/2+x,y,1/2-z
1/2-x,1/2+y,1/2+z
1/2+x,-y,1/2+z
loop_
_atom_site_type_symbol
_atom_site_label
_atom_site_fract_x
_atom_site_fract_y
_atom_site_fract_z
Si Si1 0.447303 0.094433 0.985484
Si Si2 0.370848 0.653394 0.523190
Si Si3 0.868714 0.845378 0.295597
Si Si4 0.724693 0.156316 0.383321
Si Si5 0.449923 0.654768 0.713987
Si Si6 0.777474 0.574239 0.391858
O O1 0.500000 0.110960 0.946770
O O2 0.416767 0.134966 0.866660
O O3 0.433352 0.136711 0.129962
O O4 0.436947 0.000000 0.000000
O O5 0.370227 0.750000 0.533339
O O6 0.373375 0.625711 0.363635
O O7 0.325405 0.616983 0.596168
O O8 0.414248 0.616448 0.604729
O O9 0.857412 0.750000 0.307673
O O10 0.828867 0.898080 0.364615
O O11 0.718264 0.250000 0.349919
O O12 0.750000 0.114745 0.250000
O O13 0.752331 0.147344 0.527604
O O14 0.500000 0.615801 0.688136
O O15 0.452522 0.750000 0.691488
O O16 0.776700 0.500000 0.500000
O O17 0.750000 0.553979 0.250000
#
# Coordination Sequence:
#
# PCOD8301050 Si02
#       6
#    16  16  16  16  16  16
#     4  10  22  41  62  90 128 166 206 253 306 368
#     4   9  19  36  58  89 120 152 200 255 310 361
#     4  11  23  40  65  94 122 160 207 258 311 365
#     4  10  21  38  61  88 118 159 207 255 306 367
#     4   9  18  35  60  88 119 158 203 251 303 364
#     4  12  25  43  62  88 127 166 208 255 313 373
#
# _framework density 20.736913999999999
#
# number of rings (size 3 to 8) (size 9 to 14) (size 15 to 20)
#    0.000    1.833    1.667    2.000    2.333    2.333 
#    3.000    2.500    0.000    3.000    0.000    0.000 
#    0.000    0.000    0.000    0.000    0.000    0.000 
#
# Total GULP energy -595167.329646 kJ/mol
# GULP energy per Si atom -12399.319368 kJ/mol
# Density = 2.068972 g / cm^3
# Si number density = 20.736914 Si / 1000 Ang^3
#
#
#
# Elastic Constant Matrix: (Units=GPa)
#
#
# Indices 1 2 3 4 5 6 
#
# 1 160.0296 22.2780 104.9133 0.0000 0.0000 0.0000
# 2 22.2780 32.6984 25.3371 0.0000 0.0000 0.0000
# 3 104.9133 25.3371 170.7564 0.0000 0.0000 0.0000
# 4 0.0000 0.0000 0.0000 16.5877 0.0000 0.0000
# 5 0.0000 0.0000 0.0000 0.0000 48.3096 0.0000
# 6 0.0000 0.0000 0.0000 0.0000 0.0000 18.2274
#
#
#
# Elastic Compliance Matrix: (Units=1/GPa)
#
#
# Indices 1 2 3 4 5 6 
#
# 1 0.010637 -0.002467 -0.006169 0.000000 0.000000 0.000000
# 2 -0.002467 0.035128 -0.003697 0.000000 0.000000 0.000000
# 3 -0.006169 -0.003697 0.010195 0.000000 0.000000 0.000000
# 4 0.000000 0.000000 0.000000 0.060286 0.000000 0.000000
# 5 0.000000 0.000000 0.000000 0.000000 0.020700 0.000000
# 6 0.000000 0.000000 0.000000 0.000000 0.000000 0.054863
#
#
# Mechanical properties :
#
#
# Convention : Reuss Voigt Hill
#
# Bulk Modulus (GPa) = 31.95474 74.28235 53.11855
# Shear Modulus (GPa) = 22.03575 30.68868 26.36221
#
# Velocity S-wave (km/s) = 3.26334 3.85113 3.56936
# Velocity P-wave (km/s) = 5.44447 7.46150 6.53132
#
# Compressibility (1/GPa) = 0.03129426
#
# Stress axis : x y z
#
# Youngs Moduli (GPa) = 94.01432 28.46766 98.08525
#
# Poissons Ratio (x) = 0.07022 0.60511
# Poissons Ratio (y) = 0.23190 0.36260
# Poissons Ratio (z) = 0.57999 0.10524
#
# Static dielectric constant tensor:
#      x y z
#    x 4.115080 0.000000 0.000000 
#    y 0.000000 3.461010 0.000000 
#    z 0.000000 0.000000 3.908800 
# 
# 
# High freq. dielectric constant tensor:
#      x y z
#    x 1.824230 0.000000 0.000000 
#    y 0.000000 1.789570 0.000000 
#    z 0.000000 0.000000 1.819440 
# 
# From -- ./inp_files/15090.got.cif
#   From: 2010.03.12/outbox.cif.g09.slc.cpg/sg74_8_cif.got.tgz:15090.got - 2010.04.16 15:46:19.
