data_PCOD8301675
_publ_section_title
;
Structure prediction by ZEFSAII (Michael W. Deem and Ramdas Pophale) SiO2 
 PCOD8301675
Probable space group: I M M A
;
_chemical_formula_sum "Si O2"
_cell_formula_units_Z 112
_cell_length_a 15.233874
_cell_length_b 13.261092
_cell_length_c 26.641235
_cell_angle_alpha 90.000000
_cell_angle_beta 90.000000
_cell_angle_gamma 90.000000
_cell_volume 5382.003807
_symmetry_space_group_name_H-M "I M M A"
_symmetry_group_IT_number 74
_symmetry_cell_setting 'orthorhombic'
loop_
_space_group_symop_operation_xyz
x,y,z
-x,1/2-y,z
x,-y,-z
-x,1/2+y,-z
-x,-y,-z
x,1/2+y,-z
-x,y,z
x,1/2-y,z
1/2+x,1/2+y,1/2+z
1/2-x,-y,1/2+z
1/2+x,1/2-y,1/2-z
1/2-x,y,1/2-z
1/2-x,1/2-y,1/2-z
1/2+x,y,1/2-z
1/2-x,1/2+y,1/2+z
1/2+x,-y,1/2+z
loop_
_atom_site_type_symbol
_atom_site_label
_atom_site_fract_x
_atom_site_fract_y
_atom_site_fract_z
Si Si1 0.752660 0.631659 0.018524
Si Si2 0.599788 0.867559 0.947124
Si Si3 0.598569 0.509809 0.655492
Si Si4 0.599016 0.489129 0.152381
Si Si5 0.353446 0.133364 0.248818
Si Si6 0.399856 0.367864 0.443505
Si Si7 0.251002 0.630205 0.367429
O O1 0.755863 0.750000 0.020606
O O2 0.755016 0.592302 0.075110
O O3 0.663497 0.594319 0.991588
O O4 0.836749 0.590895 0.987691
O O5 0.500000 0.888127 0.964598
O O6 0.615405 0.750000 0.935925
O O7 0.624221 0.925842 0.896700
O O8 0.500000 0.467135 0.650018
O O9 0.603256 0.580111 0.703776
O O10 0.625106 0.576648 0.607728
O O11 0.663667 0.414588 0.660496
O O12 0.500000 0.531058 0.149002
O O13 0.607196 0.415055 0.199074
O O14 0.663267 0.584961 0.157718
O O15 0.380396 0.250000 0.249849
O O16 0.250000 0.117983 0.250000
O O17 0.500000 0.388766 0.460132
O O18 0.383473 0.250000 0.433812
O O19 0.249908 0.750000 0.360777
#
# Coordination Sequence:
#
# PCOD8301675 Si02
#       7
#    16  16  16  16  16  16  16
#     4   9  19  35  57  80 115 163 204 248 300 350
#     4   9  18  33  56  89 125 157 192 239 298 367
#     4  11  23  40  63  91 123 160 201 244 299 362
#     4  11  23  40  63  91 123 160 201 244 299 362
#     4  11  23  41  69 101 131 158 183 226 296 374
#     4   9  18  33  56  89 125 157 192 239 298 367
#     4  11  25  44  60  82 117 160 214 267 302 336
#
# _framework density 20.810092999999998
#
# number of rings (size 3 to 8) (size 9 to 14) (size 15 to 20)
#    0.000    1.857    1.429    2.143    0.000    6.286 
#    0.000    7.143    0.000    1.714    0.000    0.000 
#    0.000    0.000    0.000    0.000    0.000    0.000 
#
# Total GULP energy -694535.348111 kJ/mol
# GULP energy per Si atom -12402.416931 kJ/mol
# Density = 2.076273 g / cm^3
# Si number density = 20.810093 Si / 1000 Ang^3
#
#
#
# Elastic Constant Matrix: (Units=GPa)
#
#
# Indices 1 2 3 4 5 6 
#
# 1 105.9010 32.1740 6.8218 0.0000 0.0000 0.0000
# 2 32.1740 98.7119 17.4372 0.0000 0.0000 0.0000
# 3 6.8218 17.4372 63.5574 0.0000 0.0000 0.0000
# 4 0.0000 0.0000 0.0000 21.2049 0.0000 0.0000
# 5 0.0000 0.0000 0.0000 0.0000 37.8282 0.0000
# 6 0.0000 0.0000 0.0000 0.0000 0.0000 0.1830
#
#
#
# Elastic Compliance Matrix: (Units=1/GPa)
#
#
# Indices 1 2 3 4 5 6 
#
# 1 0.010483 -0.003382 -0.000197 0.000000 0.000000 0.000000
# 2 -0.003382 0.011738 -0.002857 0.000000 0.000000 0.000000
# 3 -0.000197 -0.002857 0.016539 0.000000 0.000000 0.000000
# 4 0.000000 0.000000 0.000000 0.047159 0.000000 0.000000
# 5 0.000000 0.000000 0.000000 0.000000 0.026435 0.000000
# 6 0.000000 0.000000 0.000000 0.000000 0.000000 5.463849
#
#
# Mechanical properties :
#
#
# Convention : Reuss Voigt Hill
#
# Bulk Modulus (GPa) = 38.63035 42.33734 40.48385
# Shear Modulus (GPa) = 0.89322 25.95906 13.42614
#
# Velocity S-wave (km/s) = 0.65586 3.53572 2.54278
# Velocity P-wave (km/s) = 4.37917 6.08747 5.30256
#
# Compressibility (1/GPa) = 0.02588638
#
# Stress axis : x y z
#
# Youngs Moduli (GPa) = 95.39283 85.19692 60.46361
#
# Poissons Ratio (x) = 0.28813 0.01193
# Poissons Ratio (y) = 0.32261 0.17276
# Poissons Ratio (z) = 0.01882 0.24343
#
# Static dielectric constant tensor:
#      x y z
#    x 3.950780 0.000000 0.000000 
#    y 0.000000 3.608340 0.000000 
#    z 0.000000 0.000000 3.889670 
# 
# 
# High freq. dielectric constant tensor:
#      x y z
#    x 1.829100 0.000000 0.000000 
#    y 0.000000 1.812310 0.000000 
#    z 0.000000 0.000000 1.809030 
# 
# From -- ./inp_files/60107.got.cif
#   From: 2010.03.12/outbox.cif.g09.slc.cpg/sg74_31_cif.got.tgz:60107.got - 2010.04.16 15:46:19.
