data_PCOD8301034
_publ_section_title
;
Structure prediction by ZEFSAII (Michael W. Deem and Ramdas Pophale) SiO2 
 PCOD8301034
Probable space group: I M M A
;
_chemical_formula_sum "Si O2"
_cell_formula_units_Z 64
_cell_length_a 15.561478
_cell_length_b 20.878078
_cell_length_c 8.759767
_cell_angle_alpha 90.000000
_cell_angle_beta 90.000000
_cell_angle_gamma 90.000000
_cell_volume 2845.993563
_symmetry_space_group_name_H-M "I M M A"
_symmetry_group_IT_number 74
_symmetry_cell_setting 'orthorhombic'
loop_
_space_group_symop_operation_xyz
x,y,z
-x,1/2-y,z
x,-y,-z
-x,1/2+y,-z
-x,-y,-z
x,1/2+y,-z
-x,y,z
x,1/2-y,z
1/2+x,1/2+y,1/2+z
1/2-x,-y,1/2+z
1/2+x,1/2-y,1/2-z
1/2-x,y,1/2-z
1/2-x,1/2-y,1/2-z
1/2+x,y,1/2-z
1/2-x,1/2+y,1/2+z
1/2+x,-y,1/2+z
loop_
_atom_site_type_symbol
_atom_site_label
_atom_site_fract_x
_atom_site_fract_y
_atom_site_fract_z
Si Si1 0.344126 0.750000 0.675591
Si Si2 0.902236 0.006195 0.833678
Si Si3 0.099760 0.250000 0.841570
Si Si4 0.398641 0.125397 0.853498
Si Si5 0.346222 0.378587 0.191386
O O1 0.250000 0.750000 0.750000
O O2 0.341764 0.750000 0.492535
O O3 0.390076 0.684933 0.734146
O O4 0.899978 0.940394 0.740345
O O5 0.000000 0.026809 0.862232
O O6 0.860859 0.063903 0.736759
O O7 0.856384 0.000000 0.000000
O O8 0.123078 0.188031 0.743491
O O9 0.000000 0.250000 0.890831
O O10 0.500000 0.119632 0.889138
O O11 0.346521 0.129267 0.010159
O O12 0.250000 0.388218 0.250000
#
# Coordination Sequence:
#
# PCOD8301034 Si02
#       5
#     8  16   8  16  16
#     4  10  23  42  58  85 125 161 196 242 307 362
#     4  10  21  38  60  88 121 155 195 248 306 355
#     4  10  21  40  68  95 117 153 206 254 296 354
#     4  10  21  39  64  92 121 154 198 255 308 352
#     4  11  23  39  58  86 121 161 204 241 294 363
#
# _framework density 22.487752
#
# number of rings (size 3 to 8) (size 9 to 14) (size 15 to 20)
#    0.000    1.750    0.000    3.750    0.000    8.000 
#    0.000   15.000    0.000    0.000    0.000    0.000 
#    0.000    0.000    0.000    0.000    0.000    0.000 
#
# Total GULP energy -396845.430583 kJ/mol
# GULP energy per Si atom -12401.419706 kJ/mol
# Density = 2.243657 g / cm^3
# Si number density = 22.487752 Si / 1000 Ang^3
#
#
#
# Elastic Constant Matrix: (Units=GPa)
#
#
# Indices 1 2 3 4 5 6 
#
# 1 45.0714 8.2234 41.3770 0.0000 0.0000 0.0000
# 2 8.2234 219.0281 95.3308 0.0000 0.0000 0.0000
# 3 41.3770 95.3308 232.0734 0.0000 0.0000 0.0000
# 4 0.0000 0.0000 0.0000 48.6663 0.0000 0.0000
# 5 0.0000 0.0000 0.0000 0.0000 36.8792 0.0000
# 6 0.0000 0.0000 0.0000 0.0000 0.0000 17.8012
#
#
#
# Elastic Compliance Matrix: (Units=1/GPa)
#
#
# Indices 1 2 3 4 5 6 
#
# 1 0.026834 0.001309 -0.005322 0.000000 0.000000 0.000000
# 2 0.001309 0.005623 -0.002543 0.000000 0.000000 0.000000
# 3 -0.005322 -0.002543 0.006303 0.000000 0.000000 0.000000
# 4 0.000000 0.000000 0.000000 0.020548 0.000000 0.000000
# 5 0.000000 0.000000 0.000000 0.000000 0.027116 0.000000
# 6 0.000000 0.000000 0.000000 0.000000 0.000000 0.056176
#
#
# Mechanical properties :
#
#
# Convention : Reuss Voigt Hill
#
# Bulk Modulus (GPa) = 38.99069 87.33723 63.16396
# Shear Modulus (GPa) = 30.43924 44.08546 37.26235
#
# Velocity S-wave (km/s) = 3.68311 4.43247 4.07505
# Velocity P-wave (km/s) = 5.95511 8.06955 7.09158
#
# Compressibility (1/GPa) = 0.02564715
#
# Stress axis : x y z
#
# Youngs Moduli (GPa) = 37.26622 177.82620 158.66453
#
# Poissons Ratio (x) = -0.23275 0.84441
# Poissons Ratio (y) = -0.04878 0.40354
# Poissons Ratio (z) = 0.19833 0.45228
#
# Static dielectric constant tensor:
#      x y z
#    x 3.541280 0.000000 0.000000 
#    y 0.000000 4.596870 0.000000 
#    z 0.000000 0.000000 4.131350 
# 
# 
# High freq. dielectric constant tensor:
#      x y z
#    x 1.849950 0.000000 0.000000 
#    y 0.000000 1.911330 0.000000 
#    z 0.000000 0.000000 1.901380 
# 
# From -- ./inp_files/11826.got.cif
#   From: 2010.03.12/outbox.cif.g09.slc.cpg/sg74_6_cif.got.tgz:11826.got - 2010.04.16 15:46:19.
