data_PCOD8301122
_publ_section_title
;
Structure prediction by ZEFSAII (Michael W. Deem and Ramdas Pophale) SiO2 
 PCOD8301122
Probable space group: I M M A
;
_chemical_formula_sum "Si O2"
_cell_formula_units_Z 96
_cell_length_a 8.470628
_cell_length_b 25.082365
_cell_length_c 23.294443
_cell_angle_alpha 90.000000
_cell_angle_beta 90.000000
_cell_angle_gamma 90.000000
_cell_volume 4949.216171
_symmetry_space_group_name_H-M "I M M A"
_symmetry_group_IT_number 74
_symmetry_cell_setting 'orthorhombic'
loop_
_space_group_symop_operation_xyz
x,y,z
-x,1/2-y,z
x,-y,-z
-x,1/2+y,-z
-x,-y,-z
x,1/2+y,-z
-x,y,z
x,1/2-y,z
1/2+x,1/2+y,1/2+z
1/2-x,-y,1/2+z
1/2+x,1/2-y,1/2-z
1/2-x,y,1/2-z
1/2-x,1/2-y,1/2-z
1/2+x,y,1/2-z
1/2-x,1/2+y,1/2+z
1/2+x,-y,1/2+z
loop_
_atom_site_type_symbol
_atom_site_label
_atom_site_fract_x
_atom_site_fract_y
_atom_site_fract_z
Si Si1 0.816591 0.311637 0.687931
Si Si2 0.813807 0.690691 0.810919
Si Si3 0.184219 0.907133 0.885601
Si Si4 0.183064 0.596004 0.119040
Si Si5 0.684784 0.499130 0.811700
Si Si6 0.183683 0.060916 0.500786
O O1 0.787477 0.250000 0.673460
O O2 0.750000 0.326434 0.750000
O O3 0.721598 0.344765 0.640566
O O4 0.000000 0.326805 0.686133
O O5 0.746911 0.750000 0.825147
O O6 0.750000 0.670138 0.750000
O O7 0.758893 0.649464 0.859818
O O8 0.000000 0.692625 0.807084
O O9 0.283663 0.954284 0.857040
O O10 0.000000 0.917025 0.873681
O O11 0.219194 0.906103 0.953288
O O12 0.228326 0.554549 0.168781
O O13 0.285152 0.585888 0.062543
O O14 0.000000 0.590584 0.103684
O O15 0.500000 0.487708 0.808361
O O16 0.750000 0.516916 0.750000
O O17 0.000000 0.064638 0.485873
O O18 0.242676 0.000000 0.500000
#
# Coordination Sequence:
#
# PCOD8301122 Si02
#       6
#    16  16  16  16  16  16
#     4  10  21  39  63  90 122 158 196 240 292 350
#     4   9  19  36  58  85 117 152 190 233 284 340
#     4  11  22  37  59  86 115 151 194 240 291 348
#     4  12  24  39  61  87 117 153 196 243 291 349
#     4  12  24  38  56  83 118 152 189 238 293 350
#     4  11  23  40  61  84 114 156 198 242 292 350
#
# _framework density 19.397012
#
# number of rings (size 3 to 8) (size 9 to 14) (size 15 to 20)
#    0.000    1.167    1.667    5.500    0.000    4.333 
#    0.000    0.833    0.000    3.000    0.000    0.000 
#    0.000    0.000    0.000    0.000    0.000    0.000 
#
# Total GULP energy -595532.552501 kJ/mol
# GULP energy per Si atom -12406.928177 kJ/mol
# Density = 1.935286 g / cm^3
# Si number density = 19.397012 Si / 1000 Ang^3
#
#
#
# Elastic Constant Matrix: (Units=GPa)
#
#
# Indices 1 2 3 4 5 6 
#
# 1 63.2634 27.6465 15.4066 0.0000 0.0000 0.0000
# 2 27.6465 104.8973 48.9845 0.0000 0.0000 0.0000
# 3 15.4066 48.9845 104.9542 0.0000 0.0000 0.0000
# 4 0.0000 0.0000 0.0000 21.2299 0.0000 0.0000
# 5 0.0000 0.0000 0.0000 0.0000 35.7305 0.0000
# 6 0.0000 0.0000 0.0000 0.0000 0.0000 25.7620
#
#
#
# Elastic Compliance Matrix: (Units=1/GPa)
#
#
# Indices 1 2 3 4 5 6 
#
# 1 0.017889 -0.004461 -0.000544 0.000000 0.000000 0.000000
# 2 -0.004461 0.013302 -0.005554 0.000000 0.000000 0.000000
# 3 -0.000544 -0.005554 0.012200 0.000000 0.000000 0.000000
# 4 0.000000 0.000000 0.000000 0.047103 0.000000 0.000000
# 5 0.000000 0.000000 0.000000 0.000000 0.027987 0.000000
# 6 0.000000 0.000000 0.000000 0.000000 0.000000 0.038817
#
#
# Mechanical properties :
#
#
# Convention : Reuss Voigt Hill
#
# Bulk Modulus (GPa) = 44.89526 50.79890 47.84708
# Shear Modulus (GPa) = 26.90492 28.61632 27.76062
#
# Velocity S-wave (km/s) = 3.72837 3.84512 3.78720
# Velocity P-wave (km/s) = 6.45988 6.77932 6.62153
#
# Compressibility (1/GPa) = 0.02227406
#
# Stress axis : x y z
#
# Youngs Moduli (GPa) = 55.90106 75.17565 81.96840
#
# Poissons Ratio (x) = 0.33533 0.04460
# Poissons Ratio (y) = 0.24936 0.45522
# Poissons Ratio (z) = 0.03041 0.41750
#
# Static dielectric constant tensor:
#      x y z
#    x 3.545030 0.000000 0.000000 
#    y 0.000000 3.732650 0.000000 
#    z 0.000000 0.000000 1.610180 
# 
# 
# High freq. dielectric constant tensor:
#      x y z
#    x 1.764880 0.000000 0.000000 
#    y 0.000000 1.754290 0.000000 
#    z 0.000000 0.000000 1.754060 
# 
# From -- ./inp_files/57234.got.cif
#   From: 2010.03.12/outbox.cif.g09.slc.cpg/sg74_29_cif.got.tgz:57234.got - 2010.04.16 15:46:19.
