data_PCOD8301292
_publ_section_title
;
Structure prediction by ZEFSAII (Michael W. Deem and Ramdas Pophale) SiO2 
 PCOD8301292
Probable space group: I M M A
;
_chemical_formula_sum "Si O2"
_cell_formula_units_Z 56
_cell_length_a 8.920996
_cell_length_b 23.038540
_cell_length_c 13.970571
_cell_angle_alpha 90.000000
_cell_angle_beta 90.000000
_cell_angle_gamma 90.000000
_cell_volume 2871.325679
_symmetry_space_group_name_H-M "I M M A"
_symmetry_group_IT_number 74
_symmetry_cell_setting 'orthorhombic'
loop_
_space_group_symop_operation_xyz
x,y,z
-x,1/2-y,z
x,-y,-z
-x,1/2+y,-z
-x,-y,-z
x,1/2+y,-z
-x,y,z
x,1/2-y,z
1/2+x,1/2+y,1/2+z
1/2-x,-y,1/2+z
1/2+x,1/2-y,1/2-z
1/2-x,y,1/2-z
1/2-x,1/2-y,1/2-z
1/2+x,y,1/2-z
1/2-x,1/2+y,1/2+z
1/2+x,-y,1/2+z
loop_
_atom_site_type_symbol
_atom_site_label
_atom_site_fract_x
_atom_site_fract_y
_atom_site_fract_z
Si Si1 0.823986 0.596212 0.844862
Si Si2 0.676936 0.750000 0.146908
Si Si3 0.663862 0.515548 0.109628
Si Si4 0.823162 0.364884 0.538303
O O1 0.750000 0.624515 0.750000
O O2 0.784784 0.527260 0.843532
O O3 0.000000 0.604767 0.841440
O O4 0.760779 0.628778 0.937540
O O5 0.500000 0.750000 0.160687
O O6 0.750000 0.750000 0.250000
O O7 0.731221 0.694043 0.087779
O O8 0.500000 0.507894 0.159789
O O9 0.718438 0.582679 0.112061
O O10 0.644058 0.500000 0.000000
O O11 0.000000 0.365339 0.516828
#
# Coordination Sequence:
#
# PCOD8301292 Si02
#       4
#    16   8  16  16
#     4  11  21  33  53  81 112 145 181 221 268 325
#     4  10  22  40  61  82 107 140 179 224 270 318
#     4   8  15  30  51  75 106 140 173 213 262 312
#     4   9  19  37  57  79 110 145 180 223 271 315
#
# _framework density 19.503185999999999
#
# number of rings (size 3 to 8) (size 9 to 14) (size 15 to 20)
#    0.000    2.571    0.000    4.286    0.000    7.429 
#    0.000    3.571    0.000    0.000    0.000    0.000 
#    0.000    0.000    0.000    0.000    0.000    0.000 
#
# Total GULP energy -347054.804830 kJ/mol
# GULP energy per Si atom -12394.814458 kJ/mol
# Density = 1.945880 g / cm^3
# Si number density = 19.503186 Si / 1000 Ang^3
#
#
#
# Elastic Constant Matrix: (Units=GPa)
#
#
# Indices 1 2 3 4 5 6 
#
# 1 100.8510 36.2853 61.9227 0.0000 0.0000 0.0001
# 2 36.2853 142.2070 57.1133 0.0000 0.0000 0.0000
# 3 61.9227 57.1133 120.6728 -0.0004 0.0002 0.0007
# 4 0.0000 0.0000 -0.0004 19.1678 0.0001 0.0002
# 5 0.0000 0.0000 0.0002 0.0001 33.6007 -0.0002
# 6 0.0001 0.0000 0.0007 0.0002 -0.0002 11.6746
#
#
#
# Elastic Compliance Matrix: (Units=1/GPa)
#
#
# Indices 1 2 3 4 5 6 
#
# 1 0.014566 -0.000882 -0.007057 0.000000 0.000000 0.000000
# 2 -0.000882 0.008736 -0.003682 0.000000 0.000000 0.000000
# 3 -0.007057 -0.003682 0.013651 0.000000 0.000000 -0.000001
# 4 0.000000 0.000000 0.000000 0.052171 0.000000 -0.000001
# 5 0.000000 0.000000 0.000000 0.000000 0.029761 0.000000
# 6 0.000000 0.000000 -0.000001 -0.000001 0.000000 0.085656
#
#
# Mechanical properties :
#
#
# Convention : Reuss Voigt Hill
#
# Bulk Modulus (GPa) = 72.93758 74.93037 73.93398
# Shear Modulus (GPa) = 21.51901 26.78259 24.15080
#
# Velocity S-wave (km/s) = 3.32529 3.70975 3.52277
# Velocity P-wave (km/s) = 7.22650 7.54007 7.38495
#
# Compressibility (1/GPa) = 0.01371035
#
# Stress axis : x y z
#
# Youngs Moduli (GPa) = 68.65290 114.47091 73.25694
#
# Poissons Ratio (x) = 0.10102 0.51696
# Poissons Ratio (y) = 0.06058 0.26971
# Poissons Ratio (z) = 0.48447 0.42145
#
# Static dielectric constant tensor:
#      x y z
#    x 3.400640 0.000000 0.000000 
#    y 0.000000 3.965390 0.000000 
#    z 0.000000 0.000000 3.570860 
# 
# 
# High freq. dielectric constant tensor:
#      x y z
#    x 1.750220 0.000000 0.000000 
#    y 0.000000 1.745990 0.000000 
#    z 0.000000 0.000000 1.758000 
# 
# From -- ./inp_files/28537.got.cif
#   From: 2010.03.12/outbox.cif.g09.slc.cpg/sg74_15_cif.got.tgz:28537.got - 2010.04.16 15:46:19.
