data_PCOD8301592
_publ_section_title
;
Structure prediction by ZEFSAII (Michael W. Deem and Ramdas Pophale) SiO2 
 PCOD8301592
Probable space group: I M M A
;
_chemical_formula_sum "Si O2"
_cell_formula_units_Z 72
_cell_length_a 15.139546
_cell_length_b 9.407097
_cell_length_c 28.688622
_cell_angle_alpha 90.000000
_cell_angle_beta 90.000000
_cell_angle_gamma 90.000000
_cell_volume 4085.809956
_symmetry_space_group_name_H-M "I M M A"
_symmetry_group_IT_number 74
_symmetry_cell_setting 'orthorhombic'
loop_
_space_group_symop_operation_xyz
x,y,z
-x,1/2-y,z
x,-y,-z
-x,1/2+y,-z
-x,-y,-z
x,1/2+y,-z
-x,y,z
x,1/2-y,z
1/2+x,1/2+y,1/2+z
1/2-x,-y,1/2+z
1/2+x,1/2-y,1/2-z
1/2-x,y,1/2-z
1/2-x,1/2-y,1/2-z
1/2+x,y,1/2-z
1/2-x,1/2+y,1/2+z
1/2+x,-y,1/2+z
loop_
_atom_site_type_symbol
_atom_site_label
_atom_site_fract_x
_atom_site_fract_y
_atom_site_fract_z
Si Si1 0.898379 0.911685 0.196890
Si Si2 0.898944 0.414054 0.694594
Si Si3 0.191602 0.586468 0.546973
Si Si4 0.000000 0.411104 0.454532
Si Si5 0.753093 0.417487 0.144726
O O1 0.871268 0.750000 0.184908
O O2 0.881385 0.941218 0.251038
O O3 0.000000 0.938596 0.184090
O O4 0.841158 0.019308 0.166718
O O5 0.879765 0.250000 0.682240
O O6 0.834377 0.514384 0.666238
O O7 0.000000 0.452851 0.681831
O O8 0.212918 0.500000 0.500000
O O9 0.199855 0.750000 0.532175
O O10 0.257933 0.549654 0.589134
O O11 0.093762 0.554592 0.570152
O O12 0.000000 0.500000 0.500000
O O13 0.000000 0.250000 0.470772
O O14 0.749089 0.250000 0.154327
#
# Coordination Sequence:
#
# PCOD8301592 Si02
#       5
#    16  16  16   8  16
#     4   9  19  37  57  74  98 135 177 217 254 297
#     4   9  19  35  53  75 104 139 177 211 244 295
#     4   9  19  33  49  70  99 134 169 206 249 297
#     4   8  14  28  46  62  88 126 162 194 232 282
#     4  11  22  32  50  80 109 135 166 210 263 311
#
# _framework density 17.621966
#
# number of rings (size 3 to 8) (size 9 to 14) (size 15 to 20)
#    0.000    2.667    0.000    2.667    1.556    6.222 
#    0.000    2.222    0.000    0.667    0.000    0.000 
#    0.000    0.000    0.000    0.000    0.000    0.000 
#
# Total GULP energy -446078.124947 kJ/mol
# GULP energy per Si atom -12391.059026 kJ/mol
# Density = 1.758186 g / cm^3
# Si number density = 17.621966 Si / 1000 Ang^3
#
#
#
# Elastic Constant Matrix: (Units=GPa)
#
#
# Indices 1 2 3 4 5 6 
#
# 1 81.4852 56.9450 56.9062 0.0000 0.0000 0.0000
# 2 56.9450 96.3952 64.3929 0.0000 0.0000 0.0000
# 3 56.9062 64.3929 94.8697 0.0000 0.0000 0.0000
# 4 0.0000 0.0000 0.0000 29.3799 0.0000 0.0000
# 5 0.0000 0.0000 0.0000 0.0000 19.4264 0.0000
# 6 0.0000 0.0000 0.0000 0.0000 0.0000 30.2337
#
#
#
# Elastic Compliance Matrix: (Units=1/GPa)
#
#
# Indices 1 2 3 4 5 6 
#
# 1 0.024402 -0.008484 -0.008878 0.000000 0.000000 0.000000
# 2 -0.008484 0.021930 -0.009795 0.000000 0.000000 0.000000
# 3 -0.008878 -0.009795 0.022515 0.000000 0.000000 0.000000
# 4 0.000000 0.000000 0.000000 0.034037 0.000000 0.000000
# 5 0.000000 0.000000 0.000000 0.000000 0.051476 0.000000
# 6 0.000000 0.000000 0.000000 0.000000 0.000000 0.033076
#
#
# Mechanical properties :
#
#
# Convention : Reuss Voigt Hill
#
# Bulk Modulus (GPa) = 68.82317 69.91536 69.36927
# Shear Modulus (GPa) = 20.27624 22.10840 21.19232
#
# Velocity S-wave (km/s) = 3.39576 3.54587 3.47163
# Velocity P-wave (km/s) = 7.38343 7.51834 7.45119
#
# Compressibility (1/GPa) = 0.01452999
#
# Stress axis : x y z
#
# Youngs Moduli (GPa) = 40.98103 45.60055 44.41528
#
# Poissons Ratio (x) = 0.38690 0.39432
# Poissons Ratio (y) = 0.34770 0.43507
# Poissons Ratio (z) = 0.36383 0.44668
#
# Static dielectric constant tensor:
#      x y z
#    x 3.062580 0.000000 0.000000 
#    y 0.000000 3.253350 0.000000 
#    z 0.000000 0.000000 3.085020 
# 
# 
# High freq. dielectric constant tensor:
#      x y z
#    x 1.673310 0.000000 0.000000 
#    y 0.000000 1.684890 0.000000 
#    z 0.000000 0.000000 1.669180 
# 
# From -- ./inp_files/63628.got.cif
#   From: 2010.03.12/outbox.cif.g09.slc.cpg/sg74_32_cif.got.tgz:63628.got - 2010.04.16 15:46:19.
