data_PCOD8301897
_publ_section_title
;
Structure prediction by ZEFSAII (Michael W. Deem and Ramdas Pophale) SiO2 
 PCOD8301897
Probable space group: P 41
;
_chemical_formula_sum "Si O2"
_cell_formula_units_Z 28
_cell_length_a 8.437692
_cell_length_b 8.437692
_cell_length_c 17.957293
_cell_angle_alpha 90.000000
_cell_angle_beta 90.000000
_cell_angle_gamma 90.000000
_cell_volume 1278.463123
_symmetry_space_group_name_H-M "P 41"
_symmetry_group_IT_number 76
_symmetry_cell_setting 'tetragonal'
loop_
_space_group_symop_operation_xyz
x,y,z
-y,x,1/4+z
-x,-y,1/2+z
y,-x,3/4+z
loop_
_atom_site_type_symbol
_atom_site_label
_atom_site_fract_x
_atom_site_fract_y
_atom_site_fract_z
Si Si1 0.617001 0.168828 0.508940
Si Si2 0.226858 0.166531 0.973856
Si Si3 0.095879 0.358220 0.416041
Si Si4 0.250303 0.662866 0.873009
Si Si5 0.277701 0.709788 0.299729
Si Si6 0.320168 0.642050 0.583346
Si Si7 0.115976 0.724466 0.447331
O O1 0.672788 0.211619 0.594060
O O2 0.640387 0.298810 0.444132
O O3 0.427520 0.160890 0.519450
O O4 0.704429 0.008006 0.487132
O O5 0.345873 0.228978 0.910978
O O6 0.042429 0.168241 0.950591
O O7 0.234522 0.278369 0.047855
O O8 0.156107 0.264686 0.487470
O O9 0.073613 0.541989 0.435416
O O10 0.924531 0.291224 0.398671
O O11 0.269115 0.484280 0.846332
O O12 0.459491 0.650255 0.310002
O O13 0.216501 0.785434 0.376588
O O14 0.222691 0.740249 0.521281
#
# Coordination Sequence:
#
# PCOD8301897 Si02
#       7
#     4   4   4   4   4   4   4
#     4  10  24  41  65  98 137 178 229 275 340 403
#     4  11  23  44  65  96 140 180 226 281 346 414
#     4   9  21  44  61  95 137 170 224 278 337 401
#     4  11  23  40  65  99 131 177 226 281 333 409
#     4  10  23  43  67 100 136 176 229 280 338 405
#     4  11  23  39  72 102 132 180 232 284 343 400
#     4  10  21  43  67  96 135 177 224 283 339 408
#
# _framework density 21.901299000000002
#
# number of rings (size 3 to 8) (size 9 to 14) (size 15 to 20)
#    0.000    1.714    1.429    1.714    8.000    0.000 
#   12.857    0.000    0.000    0.000    0.000    0.000 
#    0.000    0.000    0.000    0.000    0.000    0.000 
#
# Total GULP energy -346968.725759 kJ/mol
# GULP energy per Si atom -12391.740206 kJ/mol
# Density = 2.185145 g / cm^3
# Si number density = 21.901299 Si / 1000 Ang^3
#
#
#
# Elastic Constant Matrix: (Units=GPa)
#
#
# Indices 1 2 3 4 5 6 
#
# 1 69.7690 51.4379 51.6511 0.0000 0.0000 -1.0492
# 2 51.4379 69.7690 51.6511 0.0000 0.0000 1.0492
# 3 51.6511 51.6511 181.6502 0.0000 0.0000 0.0000
# 4 0.0000 0.0000 0.0000 37.3473 0.0000 0.0000
# 5 0.0000 0.0000 0.0000 0.0000 37.3473 0.0000
# 6 -1.0492 1.0492 0.0000 0.0000 0.0000 34.1766
#
#
#
# Elastic Compliance Matrix: (Units=1/GPa)
#
#
# Indices 1 2 3 4 5 6 
#
# 1 0.032817 -0.021928 -0.003096 0.000000 0.000000 0.001681
# 2 -0.021928 0.032817 -0.003096 0.000000 0.000000 -0.001681
# 3 -0.003096 -0.003096 0.007266 0.000000 0.000000 0.000000
# 4 0.000000 0.000000 0.000000 0.026776 0.000000 0.000000
# 5 0.000000 0.000000 0.000000 0.000000 0.026776 0.000000
# 6 0.001681 -0.001681 0.000000 0.000000 0.000000 0.029363
#
#
# Mechanical properties :
#
#
# Convention : Reuss Voigt Hill
#
# Bulk Modulus (GPa) = 60.02666 70.07424 65.05045
# Shear Modulus (GPa) = 22.97711 32.87078 27.92394
#
# Velocity S-wave (km/s) = 3.24253 3.87830 3.57457
# Velocity P-wave (km/s) = 6.44096 7.21941 6.84126
#
# Compressibility (1/GPa) = 0.01665927
#
# Stress axis : x y z
#
# Youngs Moduli (GPa) = 30.47203 30.47203 137.62902
#
# Poissons Ratio (x) = 0.66818 0.42614
# Poissons Ratio (y) = 0.66818 0.42614
# Poissons Ratio (z) = 0.09435 0.09435
#
# Static dielectric constant tensor:
#      x y z
#    x 3.731890 0.000000 0.000000 
#    y 0.000000 3.731890 0.000000 
#    z 0.000000 0.000000 4.714690 
# 
# 
# High freq. dielectric constant tensor:
#      x y z
#    x 1.843280 0.000000 0.000000 
#    y 0.000000 1.843280 0.000000 
#    z 0.000000 0.000000 1.895240 
# 
# From -- ./inp_files/1270.got.cif
#   From: 2010.03.12/outbox.cif.g09.slc.cpg/sg76_cif.got.tgz:1270.got - 2010.04.16 16:34:25.
