data_PCOD8301013
_publ_section_title
;
Structure prediction by ZEFSAII (Michael W. Deem and Ramdas Pophale) SiO2 
 PCOD8301013
Probable space group: I M M A
;
_chemical_formula_sum "Si O2"
_cell_formula_units_Z 72
_cell_length_a 8.806873
_cell_length_b 21.669964
_cell_length_c 19.375353
_cell_angle_alpha 90.000000
_cell_angle_beta 90.000000
_cell_angle_gamma 90.000000
_cell_volume 3697.681897
_symmetry_space_group_name_H-M "I M M A"
_symmetry_group_IT_number 74
_symmetry_cell_setting 'orthorhombic'
loop_
_space_group_symop_operation_xyz
x,y,z
-x,1/2-y,z
x,-y,-z
-x,1/2+y,-z
-x,-y,-z
x,1/2+y,-z
-x,y,z
x,1/2-y,z
1/2+x,1/2+y,1/2+z
1/2-x,-y,1/2+z
1/2+x,1/2-y,1/2-z
1/2-x,y,1/2-z
1/2-x,1/2-y,1/2-z
1/2+x,y,1/2-z
1/2-x,1/2+y,1/2+z
1/2+x,-y,1/2+z
loop_
_atom_site_type_symbol
_atom_site_label
_atom_site_fract_x
_atom_site_fract_y
_atom_site_fract_z
Si Si1 0.677767 0.862707 0.405382
Si Si2 0.679836 0.250000 0.825154
Si Si3 0.323122 0.608272 0.820449
Si Si4 0.319892 0.967242 0.177839
Si Si5 0.674211 0.821196 0.557068
O O1 0.500000 0.856606 0.388338
O O2 0.767402 0.810366 0.365073
O O3 0.742837 0.928913 0.383446
O O4 0.708537 0.857103 0.486596
O O5 0.500000 0.250000 0.819212
O O6 0.750000 0.250000 0.750000
O O7 0.500000 0.612348 0.809390
O O8 0.250000 0.633311 0.750000
O O9 0.272680 0.538021 0.835312
O O10 0.277610 0.651248 0.883453
O O11 0.500000 0.957208 0.178547
O O12 0.250000 0.943770 0.250000
O O13 0.500000 0.829011 0.579219
O O14 0.716568 0.750000 0.545795
#
# Coordination Sequence:
#
# PCOD8301013 Si02
#       5
#    16   8  16  16  16
#     4  11  22  39  60  85 119 157 198 241 291 349
#     4  12  24  38  58  84 117 158 201 244 290 342
#     4  10  22  40  63  89 118 152 195 245 296 354
#     4  10  21  38  59  87 120 155 197 244 294 348
#     4  10  22  41  62  85 118 156 196 243 293 351
#
# _framework density 19.47166
#
# number of rings (size 3 to 8) (size 9 to 14) (size 15 to 20)
#    0.000    1.556    1.111    3.667    0.000    6.222 
#    0.000    4.444    0.000    0.000    0.000    0.000 
#    0.000    0.000    0.000    0.000    0.000    0.000 
#
# Total GULP energy -446611.404190 kJ/mol
# GULP energy per Si atom -12405.872339 kJ/mol
# Density = 1.942734 g / cm^3
# Si number density = 19.471660 Si / 1000 Ang^3
#
#
#
# Elastic Constant Matrix: (Units=GPa)
#
#
# Indices 1 2 3 4 5 6 
#
# 1 97.3911 28.0380 48.4701 0.0000 0.0000 0.0000
# 2 28.0380 59.2339 41.4480 0.0000 0.0000 0.0000
# 3 48.4701 41.4480 112.7902 0.0000 0.0000 0.0000
# 4 0.0000 0.0000 0.0000 44.5659 0.0000 0.0000
# 5 0.0000 0.0000 0.0000 0.0000 36.7694 0.0000
# 6 0.0000 0.0000 0.0000 0.0000 0.0000 35.6524
#
#
#
# Elastic Compliance Matrix: (Units=1/GPa)
#
#
# Indices 1 2 3 4 5 6 
#
# 1 0.013480 -0.003133 -0.004642 0.000000 0.000000 0.000000
# 2 -0.003133 0.023454 -0.007273 0.000000 0.000000 0.000000
# 3 -0.004642 -0.007273 0.013533 0.000000 0.000000 0.000000
# 4 0.000000 0.000000 0.000000 0.022439 0.000000 0.000000
# 5 0.000000 0.000000 0.000000 0.000000 0.027197 0.000000
# 6 0.000000 0.000000 0.000000 0.000000 0.000000 0.028049
#
#
# Mechanical properties :
#
#
# Convention : Reuss Voigt Hill
#
# Bulk Modulus (GPa) = 49.08406 56.14747 52.61577
# Shear Modulus (GPa) = 30.29652 33.49482 31.89567
#
# Velocity S-wave (km/s) = 3.94881 4.15201 4.05168
# Velocity P-wave (km/s) = 6.78627 7.20303 6.99775
#
# Compressibility (1/GPa) = 0.02037321
#
# Stress axis : x y z
#
# Youngs Moduli (GPa) = 74.18515 42.63679 73.89246
#
# Poissons Ratio (x) = 0.13357 0.34298
# Poissons Ratio (y) = 0.23240 0.53739
# Poissons Ratio (z) = 0.34433 0.31008
#
# Static dielectric constant tensor:
#      x y z
#    x 3.655390 0.000000 0.000000 
#    y 0.000000 3.657920 0.000000 
#    z 0.000000 0.000000 3.555520 
# 
# 
# High freq. dielectric constant tensor:
#      x y z
#    x 1.769530 0.000000 0.000000 
#    y 0.000000 1.761440 0.000000 
#    z 0.000000 0.000000 1.763680 
# 
# From -- ./inp_files/39442.got.cif
#   From: 2010.03.12/outbox.cif.g09.slc.cpg/sg74_20_cif.got.tgz:39442.got - 2010.04.16 15:46:19.
