data_PCOD8301645
_publ_section_title
;
Structure prediction by ZEFSAII (Michael W. Deem and Ramdas Pophale) SiO2 
 PCOD8301645
Probable space group: I M M A
;
_chemical_formula_sum "Si O2"
_cell_formula_units_Z 64
_cell_length_a 25.160348
_cell_length_b 9.564042
_cell_length_c 13.064035
_cell_angle_alpha 90.000000
_cell_angle_beta 90.000000
_cell_angle_gamma 90.000000
_cell_volume 3143.659163
_symmetry_space_group_name_H-M "I M M A"
_symmetry_group_IT_number 74
_symmetry_cell_setting 'orthorhombic'
loop_
_space_group_symop_operation_xyz
x,y,z
-x,1/2-y,z
x,-y,-z
-x,1/2+y,-z
-x,-y,-z
x,1/2+y,-z
-x,y,z
x,1/2-y,z
1/2+x,1/2+y,1/2+z
1/2-x,-y,1/2+z
1/2+x,1/2-y,1/2-z
1/2-x,y,1/2-z
1/2-x,1/2-y,1/2-z
1/2+x,y,1/2-z
1/2-x,1/2+y,1/2+z
1/2+x,-y,1/2+z
loop_
_atom_site_type_symbol
_atom_site_label
_atom_site_fract_x
_atom_site_fract_y
_atom_site_fract_z
Si Si1 0.061153 0.750000 0.164946
Si Si2 0.167433 0.411426 0.411252
Si Si3 0.265896 0.404752 0.634842
Si Si4 0.375794 0.985679 0.693206
Si Si5 0.061991 0.250000 0.077338
O O1 0.088526 0.618732 0.218290
O O2 0.000000 0.750000 0.194888
O O3 0.070054 0.750000 0.043618
O O4 0.135957 0.500000 0.500000
O O5 0.172279 0.250000 0.444453
O O6 0.225778 0.482041 0.411461
O O7 0.139065 0.417149 0.301692
O O8 0.264418 0.250000 0.580917
O O9 0.250000 0.378081 0.750000
O O10 0.324322 0.471608 0.627288
O O11 0.410730 0.885347 0.623745
O O12 0.000000 0.250000 0.106546
#
# Coordination Sequence:
#
# PCOD8301645 Si02
#       5
#     8  16  16  16   8
#     4  11  24  42  66  93 121 161 206 260 320 375
#     4  11  24  39  63  94 129 168 208 251 303 369
#     4   9  19  36  59  89 125 162 205 248 293 358
#     4  11  22  41  66  92 128 167 206 254 311 371
#     4  11  24  42  64  95 125 157 208 264 318 371
#
# _framework density 20.358440000000002
#
# number of rings (size 3 to 8) (size 9 to 14) (size 15 to 20)
#    0.000    1.500    2.500    2.250    5.250    5.500 
#    0.000    0.000    0.000    4.500    0.000    0.000 
#    0.000    0.000    0.000    0.000    0.000    0.000 
#
# Total GULP energy -396681.874643 kJ/mol
# GULP energy per Si atom -12396.308583 kJ/mol
# Density = 2.031210 g / cm^3
# Si number density = 20.358440 Si / 1000 Ang^3
#
#
#
# Elastic Constant Matrix: (Units=GPa)
#
#
# Indices 1 2 3 4 5 6 
#
# 1 112.0478 40.0428 20.8958 0.0000 0.0000 0.0000
# 2 40.0428 173.0454 25.0873 0.0000 0.0000 0.0000
# 3 20.8958 25.0873 59.4241 0.0000 0.0000 0.0000
# 4 0.0000 0.0000 0.0000 42.6828 0.0000 0.0000
# 5 0.0000 0.0000 0.0000 0.0000 20.3023 0.0000
# 6 0.0000 0.0000 0.0000 0.0000 0.0000 66.6388
#
#
#
# Elastic Compliance Matrix: (Units=1/GPa)
#
#
# Indices 1 2 3 4 5 6 
#
# 1 0.010132 -0.001947 -0.002741 0.000000 0.000000 0.000000
# 2 -0.001947 0.006530 -0.002072 0.000000 0.000000 0.000000
# 3 -0.002741 -0.002072 0.018667 0.000000 0.000000 0.000000
# 4 0.000000 0.000000 0.000000 0.023429 0.000000 0.000000
# 5 0.000000 0.000000 0.000000 0.000000 0.049255 0.000000
# 6 0.000000 0.000000 0.000000 0.000000 0.000000 0.015006
#
#
# Mechanical properties :
#
#
# Convention : Reuss Voigt Hill
#
# Bulk Modulus (GPa) = 45.85366 57.39656 51.62511
# Shear Modulus (GPa) = 34.76865 43.15754 38.96310
#
# Velocity S-wave (km/s) = 4.13707 4.60922 4.37951
# Velocity P-wave (km/s) = 6.73740 7.52201 7.14049
#
# Compressibility (1/GPa) = 0.02180851
#
# Stress axis : x y z
#
# Youngs Moduli (GPa) = 98.69983 153.14414 53.57147
#
# Poissons Ratio (x) = 0.29820 0.14682
# Poissons Ratio (y) = 0.19218 0.11100
# Poissons Ratio (z) = 0.27050 0.31732
#
# Static dielectric constant tensor:
#      x y z
#    x 3.699080 0.000000 0.000000 
#    y 0.000000 3.777890 0.000000 
#    z 0.000000 0.000000 -0.085710 
# 
# 
# High freq. dielectric constant tensor:
#      x y z
#    x 1.778290 0.000000 0.000000 
#    y 0.000000 1.819650 0.000000 
#    z 0.000000 0.000000 1.795150 
# 
# From -- ./inp_files/28853.got.cif
#   From: 2010.03.12/outbox.cif.g09.slc.cpg/sg74_15_cif.got.tgz:28853.got - 2010.04.16 15:46:19.
