data_PCOD8301978
_publ_section_title
;
Structure prediction by ZEFSAII (Michael W. Deem and Ramdas Pophale) SiO2 
 PCOD8301978
Probable space group: P 41
;
_chemical_formula_sum "Si O2"
_cell_formula_units_Z 20
_cell_length_a 13.139809
_cell_length_b 13.139809
_cell_length_c 4.870801
_cell_angle_alpha 90.000000
_cell_angle_beta 90.000000
_cell_angle_gamma 90.000000
_cell_volume 840.966104
_symmetry_space_group_name_H-M "P 41"
_symmetry_group_IT_number 76
_symmetry_cell_setting 'tetragonal'
loop_
_space_group_symop_operation_xyz
x,y,z
-y,x,1/4+z
-x,-y,1/2+z
y,-x,3/4+z
loop_
_atom_site_type_symbol
_atom_site_label
_atom_site_fract_x
_atom_site_fract_y
_atom_site_fract_z
Si Si1 0.924625 0.776095 0.720370
Si Si2 0.360957 0.570817 0.843296
Si Si3 0.768926 0.397137 0.823345
Si Si4 0.858254 0.186076 0.984650
Si Si5 0.056146 0.460297 0.302413
O O1 0.842471 0.779147 0.475283
O O2 0.936880 0.660767 0.819370
O O3 0.028448 0.823841 0.603513
O O4 0.889085 0.844661 0.976624
O O5 0.463900 0.621539 0.743744
O O6 0.289027 0.556841 0.583455
O O7 0.307780 0.638598 0.080710
O O8 0.838264 0.301423 0.897533
O O9 0.838793 0.488082 0.703926
O O10 0.034464 0.504182 0.604519
#
# Coordination Sequence:
#
# PCOD8301978 Si02
#       5
#     4   4   4   4   4
#     4  12  28  50  81 110 153 198 251 321 380 460
#     4  12  27  48  68 106 154 202 247 300 377 461
#     4  12  27  46  77 109 147 196 258 310 375 458
#     4  12  28  51  75 114 149 198 262 313 386 451
#     4  12  26  49  77 109 149 190 244 310 384 434
#
# _framework density 23.782174999999999
#
# number of rings (size 3 to 8) (size 9 to 14) (size 15 to 20)
#    0.000    0.000    2.000    7.200   11.200    1.600 
#    0.000    0.000    0.000    0.000    0.000    0.000 
#    0.000    0.000    0.000    0.000    0.000    0.000 
#
# Total GULP energy -248143.347140 kJ/mol
# GULP energy per Si atom -12407.167357 kJ/mol
# Density = 2.372805 g / cm^3
# Si number density = 23.782175 Si / 1000 Ang^3
#
#
#
# Elastic Constant Matrix: (Units=GPa)
#
#
# Indices 1 2 3 4 5 6 
#
# 1 80.0794 36.7528 28.5002 0.0000 0.0000 -11.1404
# 2 36.7528 80.0794 28.5002 0.0000 0.0000 11.1404
# 3 28.5002 28.5002 138.2044 0.0000 0.0000 0.0000
# 4 0.0000 0.0000 0.0000 46.9075 0.0000 0.0000
# 5 0.0000 0.0000 0.0000 0.0000 46.9075 0.0000
# 6 -11.1404 11.1404 0.0000 0.0000 0.0000 19.4947
#
#
#
# Elastic Compliance Matrix: (Units=1/GPa)
#
#
# Indices 1 2 3 4 5 6 
#
# 1 0.021101 -0.011585 -0.001963 0.000000 0.000000 0.018679
# 2 -0.011585 0.021101 -0.001963 0.000000 0.000000 -0.018679
# 3 -0.001963 -0.001963 0.008045 0.000000 0.000000 0.000000
# 4 0.000000 0.000000 0.000000 0.021319 0.000000 0.000000
# 5 0.000000 0.000000 0.000000 0.000000 0.021319 0.000000
# 6 0.018679 -0.018679 0.000000 0.000000 0.000000 0.072645
#
#
# Mechanical properties :
#
#
# Convention : Reuss Voigt Hill
#
# Bulk Modulus (GPa) = 52.00613 53.98552 52.99582
# Shear Modulus (GPa) = 24.63554 36.30260 30.46907
#
# Velocity S-wave (km/s) = 3.22200 3.91124 3.58323
# Velocity P-wave (km/s) = 5.97971 6.56858 6.28105
#
# Compressibility (1/GPa) = 0.01922850
#
# Stress axis : x y z
#
# Youngs Moduli (GPa) = 47.39001 47.39001 124.29970
#
# Poissons Ratio (x) = 0.54900 0.24394
# Poissons Ratio (y) = 0.54900 0.24394
# Poissons Ratio (z) = 0.09300 0.09300
#
# Static dielectric constant tensor:
#      x y z
#    x 4.226060 0.000000 0.000000 
#    y 0.000000 4.226060 0.000000 
#    z 0.000000 0.000000 4.699470 
# 
# 
# High freq. dielectric constant tensor:
#      x y z
#    x 1.946860 0.000000 0.000000 
#    y 0.000000 1.946860 0.000000 
#    z 0.000000 0.000000 1.965750 
# 
# From -- ./inp_files/153.got.cif
#   From: 2010.03.12/outbox.cif.g09.slc.cpg/sg76_cif.got.tgz:153.got - 2010.04.16 16:34:25.
