data_PCOD8301648
_publ_section_title
;
Structure prediction by ZEFSAII (Michael W. Deem and Ramdas Pophale) SiO2 
 PCOD8301648
Probable space group: I M M A
;
_chemical_formula_sum "Si O2"
_cell_formula_units_Z 80
_cell_length_a 18.012112
_cell_length_b 24.685370
_cell_length_c 8.749404
_cell_angle_alpha 90.000000
_cell_angle_beta 90.000000
_cell_angle_gamma 90.000000
_cell_volume 3890.296928
_symmetry_space_group_name_H-M "I M M A"
_symmetry_group_IT_number 74
_symmetry_cell_setting 'orthorhombic'
loop_
_space_group_symop_operation_xyz
x,y,z
-x,1/2-y,z
x,-y,-z
-x,1/2+y,-z
-x,-y,-z
x,1/2+y,-z
-x,y,z
x,1/2-y,z
1/2+x,1/2+y,1/2+z
1/2-x,-y,1/2+z
1/2+x,1/2-y,1/2-z
1/2-x,y,1/2-z
1/2-x,1/2-y,1/2-z
1/2+x,y,1/2-z
1/2-x,1/2+y,1/2+z
1/2+x,-y,1/2+z
loop_
_atom_site_type_symbol
_atom_site_label
_atom_site_fract_x
_atom_site_fract_y
_atom_site_fract_z
Si Si1 0.916501 0.441452 0.200897
Si Si2 0.415413 0.617719 0.392911
Si Si3 0.329849 0.455256 0.817707
Si Si4 0.277556 0.188113 0.578158
Si Si5 0.305942 0.898058 0.883590
O O1 0.861631 0.488863 0.253952
O O2 0.885541 0.389283 0.297113
O O3 0.000000 0.455510 0.249596
O O4 0.911200 0.429718 0.020810
O O5 0.500000 0.638985 0.376406
O O6 0.387259 0.591636 0.235537
O O7 0.361989 0.667276 0.439259
O O8 0.250000 0.441740 0.750000
O O9 0.318713 0.448842 0.000087
O O10 0.275531 0.250000 0.524368
O O11 0.250000 0.181225 0.750000
O O12 0.221630 0.155738 0.467667
O O13 0.250000 0.916963 0.750000
#
# Coordination Sequence:
#
# PCOD8301648 Si02
#       5
#    16  16  16  16  16
#     4  11  25  39  58  94 136 173 212 259 316 385
#     4  11  22  42  66  94 131 170 213 264 326 384
#     4  12  22  38  63  94 127 171 217 259 306 379
#     4  11  23  45  70  95 120 159 221 276 327 380
#     4  12  22  41  64  93 127 174 214 260 323 381
#
# _framework density 20.563983
#
# number of rings (size 3 to 8) (size 9 to 14) (size 15 to 20)
#    0.000    0.600    6.000    2.400    0.000    6.400 
#    0.000    0.000    0.000    0.600    0.000    0.000 
#    0.000    0.000    0.000    0.000    0.000    0.000 
#
# Total GULP energy -495737.407914 kJ/mol
# GULP energy per Si atom -12393.435198 kJ/mol
# Density = 2.051718 g / cm^3
# Si number density = 20.563983 Si / 1000 Ang^3
#
#
#
# Elastic Constant Matrix: (Units=GPa)
#
#
# Indices 1 2 3 4 5 6 
#
# 1 99.3973 34.3115 37.8256 0.0000 0.0000 0.0000
# 2 34.3115 98.4043 23.2679 0.0000 0.0000 0.0000
# 3 37.8256 23.2679 106.6994 0.0000 0.0000 0.0000
# 4 0.0000 0.0000 0.0000 23.3686 0.0000 0.0000
# 5 0.0000 0.0000 0.0000 0.0000 34.6681 0.0000
# 6 0.0000 0.0000 0.0000 0.0000 0.0000 22.9891
#
#
#
# Elastic Compliance Matrix: (Units=1/GPa)
#
#
# Indices 1 2 3 4 5 6 
#
# 1 0.012705 -0.003548 -0.003730 0.000000 0.000000 0.000000
# 2 -0.003548 0.011705 -0.001295 0.000000 0.000000 0.000000
# 3 -0.003730 -0.001295 0.010977 0.000000 0.000000 0.000000
# 4 0.000000 0.000000 0.000000 0.042792 0.000000 0.000000
# 5 0.000000 0.000000 0.000000 0.000000 0.028845 0.000000
# 6 0.000000 0.000000 0.000000 0.000000 0.000000 0.043499
#
#
# Mechanical properties :
#
#
# Convention : Reuss Voigt Hill
#
# Bulk Modulus (GPa) = 54.82106 55.03456 54.92781
# Shear Modulus (GPa) = 28.77698 30.14489 29.46093
#
# Velocity S-wave (km/s) = 3.74490 3.83287 3.78914
# Velocity P-wave (km/s) = 6.73911 6.81238 6.77585
#
# Compressibility (1/GPa) = 0.01824116
#
# Stress axis : x y z
#
# Youngs Moduli (GPa) = 78.70977 85.43064 91.10040
#
# Poissons Ratio (x) = 0.30310 0.33983
# Poissons Ratio (y) = 0.27925 0.11796
# Poissons Ratio (z) = 0.29361 0.11062
#
# Static dielectric constant tensor:
#      x y z
#    x 3.982480 0.000000 0.000000 
#    y 0.000000 3.554020 0.000000 
#    z 0.000000 0.000000 4.090870 
# 
# 
# High freq. dielectric constant tensor:
#      x y z
#    x 1.812160 0.000000 0.000000 
#    y 0.000000 1.774650 0.000000 
#    z 0.000000 0.000000 1.821470 
# 
# From -- ./inp_files/10897.got.cif
#   From: 2010.03.12/outbox.cif.g09.slc.cpg/sg74_6_cif.got.tgz:10897.got - 2010.04.16 15:46:19.
