data_PCOD8301190
_publ_section_title
;
Structure prediction by ZEFSAII (Michael W. Deem and Ramdas Pophale) SiO2 
 PCOD8301190
Probable space group: I M M A
;
_chemical_formula_sum "Si O2"
_cell_formula_units_Z 76
_cell_length_a 20.385112
_cell_length_b 15.412428
_cell_length_c 11.307309
_cell_angle_alpha 90.000000
_cell_angle_beta 90.000000
_cell_angle_gamma 90.000000
_cell_volume 3552.576373
_symmetry_space_group_name_H-M "I M M A"
_symmetry_group_IT_number 74
_symmetry_cell_setting 'orthorhombic'
loop_
_space_group_symop_operation_xyz
x,y,z
-x,1/2-y,z
x,-y,-z
-x,1/2+y,-z
-x,-y,-z
x,1/2+y,-z
-x,y,z
x,1/2-y,z
1/2+x,1/2+y,1/2+z
1/2-x,-y,1/2+z
1/2+x,1/2-y,1/2-z
1/2-x,y,1/2-z
1/2-x,1/2-y,1/2-z
1/2+x,y,1/2-z
1/2-x,1/2+y,1/2+z
1/2+x,-y,1/2+z
loop_
_atom_site_type_symbol
_atom_site_label
_atom_site_fract_x
_atom_site_fract_y
_atom_site_fract_z
Si Si1 0.000000 0.250000 0.294221
Si Si2 0.732294 0.404866 0.958394
Si Si3 0.613413 0.910120 0.437356
Si Si4 0.596246 0.250000 0.417764
Si Si5 0.000000 0.654770 0.475776
Si Si6 0.248611 0.250000 0.112496
Si Si7 0.385919 0.646996 0.184787
O O1 0.064744 0.250000 0.212963
O O2 0.000000 0.164084 0.380167
O O3 0.808512 0.397670 0.927900
O O4 0.688315 0.381397 0.845140
O O5 0.712573 0.500000 0.000000
O O6 0.715504 0.335450 0.061790
O O7 0.575393 0.836674 0.512668
O O8 0.589041 0.903183 0.302167
O O9 0.594393 0.000000 0.500000
O O10 0.673417 0.250000 0.419610
O O11 0.933343 0.613057 0.422610
O O12 0.000000 0.750000 0.417563
O O13 0.250000 0.250000 0.250000
O O14 0.386618 0.750000 0.207501
#
# Coordination Sequence:
#
# PCOD8301190 Si02
#       7
#     4  16  16   8   8   8  16
#     4  10  22  42  64  86 128 162 216 262 312 376
#     4  10  22  37  61  99 128 167 206 258 321 374
#     4  10  22  40  62  99 130 156 209 260 326 379
#     4  10  22  38  62  88 119 172 201 253 323 377
#     4   8  22  39  61  91 113 164 216 256 304 367
#     4  10  22  35  60  90 129 165 208 251 323 377
#     4  11  20  40  68  88 127 166 215 263 306 379
#
# _framework density 21.392925999999999
#
# number of rings (size 3 to 8) (size 9 to 14) (size 15 to 20)
#    0.316    1.684    2.105    0.632    2.947    6.737 
#    0.000    2.632    0.000    0.000    0.000    0.000 
#    0.000    0.000    0.000    0.000    0.000    0.000 
#
# Total GULP energy -470898.149395 kJ/mol
# GULP energy per Si atom -12392.056563 kJ/mol
# Density = 2.134423 g / cm^3
# Si number density = 21.392926 Si / 1000 Ang^3
#
#
#
# Elastic Constant Matrix: (Units=GPa)
#
#
# Indices 1 2 3 4 5 6 
#
# 1 53.1906 28.7867 27.2799 0.0000 0.0000 0.0000
# 2 28.7867 145.8204 69.9658 0.0000 0.0000 0.0000
# 3 27.2799 69.9658 175.4276 0.0000 0.0000 0.0000
# 4 0.0000 0.0000 0.0000 35.1334 0.0000 0.0000
# 5 0.0000 0.0000 0.0000 0.0000 37.5602 0.0000
# 6 0.0000 0.0000 0.0000 0.0000 0.0000 6.8627
#
#
#
# Elastic Compliance Matrix: (Units=1/GPa)
#
#
# Indices 1 2 3 4 5 6 
#
# 1 0.021631 -0.003285 -0.002054 0.000000 0.000000 0.000000
# 2 -0.003285 0.008979 -0.003070 0.000000 0.000000 0.000000
# 3 -0.002054 -0.003070 0.007244 0.000000 0.000000 0.000000
# 4 0.000000 0.000000 0.000000 0.028463 0.000000 0.000000
# 5 0.000000 0.000000 0.000000 0.000000 0.026624 0.000000
# 6 0.000000 0.000000 0.000000 0.000000 0.000000 0.145716
#
#
# Mechanical properties :
#
#
# Convention : Reuss Voigt Hill
#
# Bulk Modulus (GPa) = 47.53517 69.61148 58.57332
# Shear Modulus (GPa) = 19.04847 32.47166 25.76006
#
# Velocity S-wave (km/s) = 2.98721 3.90021 3.47384
# Velocity P-wave (km/s) = 5.84518 7.27271 6.59767
#
# Compressibility (1/GPa) = 0.02103706
#
# Stress axis : x y z
#
# Youngs Moduli (GPa) = 46.22909 111.36515 138.03949
#
# Poissons Ratio (x) = 0.36583 0.28349
# Poissons Ratio (y) = 0.15186 0.42384
# Poissons Ratio (z) = 0.09494 0.34194
#
# Static dielectric constant tensor:
#      x y z
#    x 3.663820 0.000000 0.000000 
#    y 0.000000 3.959970 0.000000 
#    z 0.000000 0.000000 3.698680 
# 
# 
# High freq. dielectric constant tensor:
#      x y z
#    x 1.833420 0.000000 0.000000 
#    y 0.000000 1.823610 0.000000 
#    z 0.000000 0.000000 1.840160 
# 
# From -- ./inp_files/24942.got.cif
#   From: 2010.03.12/outbox.cif.g09.slc.cpg/sg74_13_cif.got.tgz:24942.got - 2010.04.16 15:46:19.
