data_PCOD8301911
_publ_section_title
;
Structure prediction by ZEFSAII (Michael W. Deem and Ramdas Pophale) SiO2 
 PCOD8301911
Probable space group: P 41
;
_chemical_formula_sum "Si O2"
_cell_formula_units_Z 24
_cell_length_a 9.391092
_cell_length_b 9.391092
_cell_length_c 11.489207
_cell_angle_alpha 90.000000
_cell_angle_beta 90.000000
_cell_angle_gamma 90.000000
_cell_volume 1013.263140
_symmetry_space_group_name_H-M "P 41"
_symmetry_group_IT_number 76
_symmetry_cell_setting 'tetragonal'
loop_
_space_group_symop_operation_xyz
x,y,z
-y,x,1/4+z
-x,-y,1/2+z
y,-x,3/4+z
loop_
_atom_site_type_symbol
_atom_site_label
_atom_site_fract_x
_atom_site_fract_y
_atom_site_fract_z
Si Si1 0.551271 0.943977 0.122390
Si Si2 0.478689 0.258652 0.085333
Si Si3 0.692250 0.237238 0.504185
Si Si4 0.537239 0.739805 0.332218
Si Si5 0.750056 0.766343 0.997786
Si Si6 0.026847 0.914771 0.965157
O O1 0.440061 0.862146 0.038540
O O2 0.564558 0.872083 0.247950
O O3 0.699697 0.914928 0.055277
O O4 0.529065 0.111332 0.144819
O O5 0.361471 0.342662 0.161332
O O6 0.601636 0.370039 0.053003
O O7 0.415288 0.211419 0.960878
O O8 0.746699 0.318748 0.620048
O O9 0.813906 0.139250 0.449000
O O10 0.367723 0.705408 0.327452
O O11 0.920522 0.778766 0.975741
O O12 0.997660 0.994379 0.840318
#
# Coordination Sequence:
#
# PCOD8301911 Si02
#       6
#     4   4   4   4   4   4
#     4  11  26  47  70 101 147 190 226 296 372 427
#     4  12  27  43  73 112 140 185 244 307 350 430
#     4  10  24  44  72  98 138 188 237 284 364 435
#     4  11  26  45  70 108 143 179 248 299 354 429
#     4  10  23  45  72  93 139 197 224 282 372 437
#     4  10  22  46  75 106 141 193 245 296 370 444
#
# _framework density 23.685852000000001
#
# number of rings (size 3 to 8) (size 9 to 14) (size 15 to 20)
#    0.000    1.333    1.667    3.000   11.667    0.000 
#   12.000    0.000    0.000    0.000    0.000    0.000 
#    0.000    0.000    0.000    0.000    0.000    0.000 
#
# Total GULP energy -297363.778529 kJ/mol
# GULP energy per Si atom -12390.157439 kJ/mol
# Density = 2.363194 g / cm^3
# Si number density = 23.685852 Si / 1000 Ang^3
#
#
#
# Elastic Constant Matrix: (Units=GPa)
#
#
# Indices 1 2 3 4 5 6 
#
# 1 72.7818 4.5667 14.5282 0.0000 0.0000 -1.5683
# 2 4.5667 72.7818 14.5282 0.0000 0.0000 1.5683
# 3 14.5282 14.5282 150.3427 0.0000 0.0000 0.0000
# 4 0.0000 0.0000 0.0000 36.5142 0.0000 0.0000
# 5 0.0000 0.0000 0.0000 0.0000 36.5142 0.0000
# 6 -1.5683 1.5683 0.0000 0.0000 0.0000 27.6801
#
#
#
# Elastic Compliance Matrix: (Units=1/GPa)
#
#
# Indices 1 2 3 4 5 6 
#
# 1 0.014057 -0.000641 -0.001296 0.000000 0.000000 0.000833
# 2 -0.000641 0.014057 -0.001296 0.000000 0.000000 -0.000833
# 3 -0.001296 -0.001296 0.006902 0.000000 0.000000 0.000000
# 4 0.000000 0.000000 0.000000 0.027387 0.000000 0.000000
# 5 0.000000 0.000000 0.000000 0.000000 0.027387 0.000000
# 6 0.000833 -0.000833 0.000000 0.000000 0.000000 0.036221
#
#
# Mechanical properties :
#
#
# Convention : Reuss Voigt Hill
#
# Bulk Modulus (GPa) = 35.02943 40.35029 37.68986
# Shear Modulus (GPa) = 35.21285 37.62726 36.42005
#
# Velocity S-wave (km/s) = 3.85991 3.99004 3.92552
# Velocity P-wave (km/s) = 5.88952 6.18869 6.04096
#
# Compressibility (1/GPa) = 0.02854742
#
# Stress axis : x y z
#
# Youngs Moduli (GPa) = 71.14075 71.14075 144.88511
#
# Poissons Ratio (x) = 0.04561 0.18783
# Poissons Ratio (y) = 0.04561 0.18783
# Poissons Ratio (z) = 0.09223 0.09223
#
# Static dielectric constant tensor:
#      x y z
#    x 4.107490 0.000000 0.000000 
#    y 0.000000 4.107490 0.000000 
#    z 0.000000 0.000000 4.599750 
# 
# 
# High freq. dielectric constant tensor:
#      x y z
#    x 1.925380 0.000000 0.000000 
#    y 0.000000 1.925380 0.000000 
#    z 0.000000 0.000000 1.961420 
# 
# From -- ./inp_files/843.got.cif
#   From: 2010.03.12/outbox.cif.g09.slc.cpg/sg76_cif.got.tgz:843.got - 2010.04.16 16:34:25.
