data_PCOD8301151
_publ_section_title
;
Structure prediction by ZEFSAII (Michael W. Deem and Ramdas Pophale) SiO2 
 PCOD8301151
Probable space group: I M M A
;
_chemical_formula_sum "Si O2"
_cell_formula_units_Z 72
_cell_length_a 16.450670
_cell_length_b 14.105471
_cell_length_c 17.006979
_cell_angle_alpha 90.000000
_cell_angle_beta 90.000000
_cell_angle_gamma 90.000000
_cell_volume 3946.375065
_symmetry_space_group_name_H-M "I M M A"
_symmetry_group_IT_number 74
_symmetry_cell_setting 'orthorhombic'
loop_
_space_group_symop_operation_xyz
x,y,z
-x,1/2-y,z
x,-y,-z
-x,1/2+y,-z
-x,-y,-z
x,1/2+y,-z
-x,y,z
x,1/2-y,z
1/2+x,1/2+y,1/2+z
1/2-x,-y,1/2+z
1/2+x,1/2-y,1/2-z
1/2-x,y,1/2-z
1/2-x,1/2-y,1/2-z
1/2+x,y,1/2-z
1/2-x,1/2+y,1/2+z
1/2+x,-y,1/2+z
loop_
_atom_site_type_symbol
_atom_site_label
_atom_site_fract_x
_atom_site_fract_y
_atom_site_fract_z
Si Si1 0.596937 0.250000 0.893413
Si Si2 0.092377 0.439723 0.187466
Si Si3 0.674258 0.424818 0.801157
Si Si4 0.346584 0.750000 0.766301
Si Si5 0.736892 0.944686 0.579038
Si Si6 0.820108 0.250000 0.440193
O O1 0.500000 0.250000 0.884660
O O2 0.634182 0.342215 0.852074
O O3 0.618932 0.250000 0.985747
O O4 0.107232 0.529986 0.243840
O O5 0.113825 0.342495 0.230132
O O6 0.144635 0.448969 0.108475
O O7 0.000000 0.439980 0.160260
O O8 0.750000 0.384403 0.750000
O O9 0.703953 0.511072 0.855695
O O10 0.250000 0.750000 0.750000
O O11 0.369717 0.750000 0.858625
O O12 0.760498 0.838538 0.558574
O O13 0.746080 0.000000 0.500000
#
# Coordination Sequence:
#
# PCOD8301151 Si02
#       6
#     8  16  16   8  16   8
#     4  12  25  39  57  88 123 151 188 243 293 333
#     4  11  22  36  60  90 118 148 190 250 298 329
#     4  10  21  40  63  84 110 157 201 232 284 352
#     4  12  19  37  61  84 116 152 196 237 282 359
#     4  11  21  39  62  83 115 157 199 232 280 357
#     4  12  22  38  59  88 116 154 195 232 280 353
#
# _framework density 18.244592000000001
#
# number of rings (size 3 to 8) (size 9 to 14) (size 15 to 20)
#    0.000    0.889    6.667    2.000    0.000    1.333 
#    0.000    1.111    0.000    0.000    0.000    0.000 
#    0.000    0.000    0.000    0.000    0.000    0.000 
#
# Total GULP energy -446444.210033 kJ/mol
# GULP energy per Si atom -12401.228056 kJ/mol
# Density = 1.820307 g / cm^3
# Si number density = 18.244592 Si / 1000 Ang^3
#
#
#
# Elastic Constant Matrix: (Units=GPa)
#
#
# Indices 1 2 3 4 5 6 
#
# 1 110.3941 21.3155 3.8172 0.0000 0.0000 0.0000
# 2 21.3155 79.7565 -4.0876 0.0000 0.0000 0.0000
# 3 3.8172 -4.0876 48.4413 0.0000 0.0000 0.0000
# 4 0.0000 0.0000 0.0000 39.5250 0.0000 0.0000
# 5 0.0000 0.0000 0.0000 0.0000 -25.6447 0.0000
# 6 0.0000 0.0000 0.0000 0.0000 0.0000 22.9749
#
#
#
# Elastic Compliance Matrix: (Units=1/GPa)
#
#
# Indices 1 2 3 4 5 6 
#
# 1 0.009597 -0.002615 -0.000977 0.000000 0.000000 0.000000
# 2 -0.002615 0.013305 0.001329 0.000000 0.000000 0.000000
# 3 -0.000977 0.001329 0.020833 0.000000 0.000000 0.000000
# 4 0.000000 0.000000 0.000000 0.025300 0.000000 0.000000
# 5 0.000000 0.000000 0.000000 0.000000 -0.038994 0.000000
# 6 0.000000 0.000000 0.000000 0.000000 0.000000 0.043526
#
#
# Mechanical properties :
#
#
# Convention : Reuss Voigt Hill
#
# Bulk Modulus (GPa) = 25.50453 31.18690 28.34571
# Shear Modulus (GPa) = 54.84706 21.87415 38.36060
#
# Velocity S-wave (km/s) = 5.48884 3.46633 4.59036
# Velocity P-wave (km/s) = 7.36066 5.75773 6.60798
#
# Compressibility (1/GPa) = 0.03920872
#
# Stress axis : x y z
#
# Youngs Moduli (GPa) = 104.19756 75.15898 48.00154
#
# Poissons Ratio (x) = 0.19654 0.04689
# Poissons Ratio (y) = 0.27247 -0.06378
# Poissons Ratio (z) = 0.10179 -0.09987
#
# Static dielectric constant tensor:
#      x y z
#    x 2.678660 0.000000 0.000000 
#    y 0.000000 3.429960 0.000000 
#    z 0.000000 0.000000 3.254150 
# 
# 
# High freq. dielectric constant tensor:
#      x y z
#    x 1.696980 0.000000 0.000000 
#    y 0.000000 1.721550 0.000000 
#    z 0.000000 0.000000 1.715570 
# 
# From -- ./inp_files/33860.got.cif
#   From: 2010.03.12/outbox.cif.g09.slc.cpg/sg74_17_cif.got.tgz:33860.got - 2010.04.16 15:46:19.
