data_PCOD8301165
_publ_section_title
;
Structure prediction by ZEFSAII (Michael W. Deem and Ramdas Pophale) SiO2 
 PCOD8301165
Probable space group: I M M A
;
_chemical_formula_sum "Si O2"
_cell_formula_units_Z 64
_cell_length_a 19.847920
_cell_length_b 16.467291
_cell_length_c 8.398733
_cell_angle_alpha 90.000000
_cell_angle_beta 90.000000
_cell_angle_gamma 90.000000
_cell_volume 2745.054277
_symmetry_space_group_name_H-M "I M M A"
_symmetry_group_IT_number 74
_symmetry_cell_setting 'orthorhombic'
loop_
_space_group_symop_operation_xyz
x,y,z
-x,1/2-y,z
x,-y,-z
-x,1/2+y,-z
-x,-y,-z
x,1/2+y,-z
-x,y,z
x,1/2-y,z
1/2+x,1/2+y,1/2+z
1/2-x,-y,1/2+z
1/2+x,1/2-y,1/2-z
1/2-x,y,1/2-z
1/2-x,1/2-y,1/2-z
1/2+x,y,1/2-z
1/2-x,1/2+y,1/2+z
1/2+x,-y,1/2+z
loop_
_atom_site_type_symbol
_atom_site_label
_atom_site_fract_x
_atom_site_fract_y
_atom_site_fract_z
Si Si1 0.424069 0.076074 0.605484
Si Si2 0.811143 0.426270 0.374818
Si Si3 0.923983 0.159480 0.204949
Si Si4 0.820506 0.158518 0.677665
O O1 0.500000 0.060611 0.669879
O O2 0.422024 0.153148 0.486916
O O3 0.375359 0.094116 0.755163
O O4 0.398846 0.000000 0.500000
O O5 0.810967 0.500000 0.500000
O O6 0.750000 0.430171 0.250000
O O7 0.880383 0.414660 0.277610
O O8 0.809925 0.346894 0.487602
O O9 0.897951 0.250000 0.250113
O O10 0.000000 0.147121 0.267975
O O11 0.841616 0.250000 0.722628
O O12 0.750000 0.132050 0.750000
#
# Coordination Sequence:
#
# PCOD8301165 Si02
#       4
#    16  16  16  16
#     4  10  21  40  67  98 135 177 219 268 326 390
#     4  12  26  43  66  94 130 173 223 280 340 401
#     4  10  22  41  66  97 134 177 221 266 326 399
#     4  11  24  40  61  93 131 172 222 277 331 391
#
# _framework density 23.314658000000001
#
# number of rings (size 3 to 8) (size 9 to 14) (size 15 to 20)
#    0.000    1.250    0.000    5.250    0.000    9.000 
#    0.000    0.000    0.000    0.000    0.000    0.000 
#    0.000    0.000    0.000    0.000    0.000    0.000 
#
# Total GULP energy -396579.435932 kJ/mol
# GULP energy per Si atom -12393.107373 kJ/mol
# Density = 2.326159 g / cm^3
# Si number density = 23.314658 Si / 1000 Ang^3
#
#
#
# Elastic Constant Matrix: (Units=GPa)
#
#
# Indices 1 2 3 4 5 6 
#
# 1 124.5732 60.7365 66.6322 0.0000 0.0000 0.0000
# 2 60.7365 108.8375 36.9054 0.0000 0.0000 0.0000
# 3 66.6322 36.9054 128.0802 0.0000 0.0000 0.0000
# 4 0.0000 0.0000 0.0000 41.2454 0.0000 0.0000
# 5 0.0000 0.0000 0.0000 0.0000 43.9822 0.0000
# 6 0.0000 0.0000 0.0000 0.0000 0.0000 27.0973
#
#
#
# Elastic Compliance Matrix: (Units=1/GPa)
#
#
# Indices 1 2 3 4 5 6 
#
# 1 0.013824 -0.005847 -0.005507 0.000000 0.000000 0.000000
# 2 -0.005847 0.012656 -0.000605 0.000000 0.000000 0.000000
# 3 -0.005507 -0.000605 0.010847 0.000000 0.000000 0.000000
# 4 0.000000 0.000000 0.000000 0.024245 0.000000 0.000000
# 5 0.000000 0.000000 0.000000 0.000000 0.022736 0.000000
# 6 0.000000 0.000000 0.000000 0.000000 0.000000 0.036904
#
#
# Mechanical properties :
#
#
# Convention : Reuss Voigt Hill
#
# Bulk Modulus (GPa) = 74.57672 76.67099 75.62386
# Shear Modulus (GPa) = 33.42262 35.61275 34.51768
#
# Velocity S-wave (km/s) = 3.79033 3.91254 3.85192
# Velocity P-wave (km/s) = 7.15625 7.30530 7.23116
#
# Compressibility (1/GPa) = 0.01340901
#
# Stress axis : x y z
#
# Youngs Moduli (GPa) = 72.33979 79.01379 92.19327
#
# Poissons Ratio (x) = 0.46199 0.50769
# Poissons Ratio (y) = 0.42297 0.05577
# Poissons Ratio (z) = 0.39836 0.04780
#
# Static dielectric constant tensor:
#      x y z
#    x 4.083110 0.000000 0.000000 
#    y 0.000000 4.261070 0.000000 
#    z 0.000000 0.000000 4.464330 
# 
# 
# High freq. dielectric constant tensor:
#      x y z
#    x 1.917160 0.000000 0.000000 
#    y 0.000000 1.937480 0.000000 
#    z 0.000000 0.000000 1.920030 
# 
# From -- ./inp_files/11792.got.cif
#   From: 2010.03.12/outbox.cif.g09.slc.cpg/sg74_6_cif.got.tgz:11792.got - 2010.04.16 15:46:19.
