data_PCOD8301104
_publ_section_title
;
Structure prediction by ZEFSAII (Michael W. Deem and Ramdas Pophale) SiO2 
 PCOD8301104
Probable space group: I M M A
;
_chemical_formula_sum "Si O2"
_cell_formula_units_Z 96
_cell_length_a 18.518049
_cell_length_b 18.762800
_cell_length_c 13.413772
_cell_angle_alpha 90.000000
_cell_angle_beta 90.000000
_cell_angle_gamma 90.000000
_cell_volume 4660.621115
_symmetry_space_group_name_H-M "I M M A"
_symmetry_group_IT_number 74
_symmetry_cell_setting 'orthorhombic'
loop_
_space_group_symop_operation_xyz
x,y,z
-x,1/2-y,z
x,-y,-z
-x,1/2+y,-z
-x,-y,-z
x,1/2+y,-z
-x,y,z
x,1/2-y,z
1/2+x,1/2+y,1/2+z
1/2-x,-y,1/2+z
1/2+x,1/2-y,1/2-z
1/2-x,y,1/2-z
1/2-x,1/2-y,1/2-z
1/2+x,y,1/2-z
1/2-x,1/2+y,1/2+z
1/2+x,-y,1/2+z
loop_
_atom_site_type_symbol
_atom_site_label
_atom_site_fract_x
_atom_site_fract_y
_atom_site_fract_z
Si Si1 0.151784 0.331168 0.469685
Si Si2 0.584896 0.947429 0.831447
Si Si3 0.918507 0.668415 0.155916
Si Si4 0.082115 0.602983 0.353506
Si Si5 0.310789 0.026395 0.333594
Si Si6 0.300466 0.610152 0.472136
O O1 0.149124 0.250000 0.429903
O O2 0.133359 0.384440 0.378563
O O3 0.093055 0.343087 0.555643
O O4 0.226134 0.346248 0.528110
O O5 0.500000 0.927002 0.832680
O O6 0.610913 0.964841 0.718776
O O7 0.600901 0.022177 0.889452
O O8 0.919866 0.750000 0.188394
O O9 0.880572 0.626045 0.249050
O O10 0.868202 0.658758 0.058970
O O11 0.000000 0.642608 0.128994
O O12 0.000000 0.607348 0.321925
O O13 0.250000 0.036860 0.250000
O O14 0.310200 0.089060 0.413537
O O15 0.296741 0.953897 0.393172
#
# Coordination Sequence:
#
# PCOD8301104 Si02
#       6
#    16  16  16  16  16  16
#     4  12  25  40  62  97 136 171 214 264 325 397
#     4  11  23  42  68  96 127 170 220 270 322 382
#     4  10  21  39  61  90 131 170 208 263 329 389
#     4  10  21  39  63  92 128 169 215 269 323 382
#     4  11  22  42  65  93 126 164 214 269 318 378
#     4  11  24  38  66  95 126 165 213 269 325 386
#
# _framework density 20.598113000000001
#
# number of rings (size 3 to 8) (size 9 to 14) (size 15 to 20)
#    0.000    1.167    3.333    3.000    2.333    4.000 
#    0.000    5.833    0.000    0.000    0.000    0.000 
#    0.000    0.000    0.000    0.000    0.000    0.000 
#
# Total GULP energy -594875.527367 kJ/mol
# GULP energy per Si atom -12393.240153 kJ/mol
# Density = 2.055123 g / cm^3
# Si number density = 20.598113 Si / 1000 Ang^3
#
#
#
# Elastic Constant Matrix: (Units=GPa)
#
#
# Indices 1 2 3 4 5 6 
#
# 1 77.5815 52.0149 42.7681 0.0000 0.0000 0.0000
# 2 52.0149 111.4040 39.4113 0.0000 0.0000 0.0000
# 3 42.7681 39.4113 107.4558 0.0000 0.0000 0.0000
# 4 0.0000 0.0000 0.0000 24.5702 0.0000 0.0000
# 5 0.0000 0.0000 0.0000 0.0000 37.7287 0.0000
# 6 0.0000 0.0000 0.0000 0.0000 0.0000 24.8408
#
#
#
# Elastic Compliance Matrix: (Units=1/GPa)
#
#
# Indices 1 2 3 4 5 6 
#
# 1 0.021301 -0.007982 -0.005550 0.000000 0.000000 0.000000
# 2 -0.007982 0.013306 -0.001703 0.000000 0.000000 0.000000
# 3 -0.005550 -0.001703 0.012140 0.000000 0.000000 0.000000
# 4 0.000000 0.000000 0.000000 0.040700 0.000000 0.000000
# 5 0.000000 0.000000 0.000000 0.000000 0.026505 0.000000
# 6 0.000000 0.000000 0.000000 0.000000 0.000000 0.040256
#
#
# Mechanical properties :
#
#
# Convention : Reuss Voigt Hill
#
# Bulk Modulus (GPa) = 61.44227 62.75887 62.10057
# Shear Modulus (GPa) = 26.30140 28.24441 27.27291
#
# Velocity S-wave (km/s) = 3.57723 3.70701 3.64270
# Velocity P-wave (km/s) = 6.85244 6.98977 6.92145
#
# Compressibility (1/GPa) = 0.01627544
#
# Stress axis : x y z
#
# Youngs Moduli (GPa) = 46.94623 75.15589 82.37271
#
# Poissons Ratio (x) = 0.59989 0.45720
# Poissons Ratio (y) = 0.37472 0.14030
# Poissons Ratio (z) = 0.26057 0.12801
#
# Static dielectric constant tensor:
#      x y z
#    x 3.836690 0.000000 0.000000 
#    y 0.000000 3.688080 0.000000 
#    z 0.000000 0.000000 3.686930 
# 
# 
# High freq. dielectric constant tensor:
#      x y z
#    x 1.808570 0.000000 0.000000 
#    y 0.000000 1.797450 0.000000 
#    z 0.000000 0.000000 1.801170 
# 
# From -- ./inp_files/23930.got.cif
#   From: 2010.03.12/outbox.cif.g09.slc.cpg/sg74_12_cif.got.tgz:23930.got - 2010.04.16 15:46:19.
