data_PCOD8301248
_publ_section_title
;
Structure prediction by ZEFSAII (Michael W. Deem and Ramdas Pophale) SiO2 
 PCOD8301248
Probable space group: I M M A
;
_chemical_formula_sum "Si O2"
_cell_formula_units_Z 112
_cell_length_a 18.843099
_cell_length_b 19.759074
_cell_length_c 17.369846
_cell_angle_alpha 90.000000
_cell_angle_beta 90.000000
_cell_angle_gamma 90.000000
_cell_volume 6467.179060
_symmetry_space_group_name_H-M "I M M A"
_symmetry_group_IT_number 74
_symmetry_cell_setting 'orthorhombic'
loop_
_space_group_symop_operation_xyz
x,y,z
-x,1/2-y,z
x,-y,-z
-x,1/2+y,-z
-x,-y,-z
x,1/2+y,-z
-x,y,z
x,1/2-y,z
1/2+x,1/2+y,1/2+z
1/2-x,-y,1/2+z
1/2+x,1/2-y,1/2-z
1/2-x,y,1/2-z
1/2-x,1/2-y,1/2-z
1/2+x,y,1/2-z
1/2-x,1/2+y,1/2+z
1/2+x,-y,1/2+z
loop_
_atom_site_type_symbol
_atom_site_label
_atom_site_fract_x
_atom_site_fract_y
_atom_site_fract_z
Si Si1 0.917849 0.598274 0.700167
Si Si2 0.819109 0.572467 0.461620
Si Si3 0.325519 0.032127 0.790263
Si Si4 0.080452 0.063785 0.842974
Si Si5 0.917451 0.173618 0.453062
Si Si6 0.662119 0.919892 0.490538
Si Si7 0.421911 0.096500 0.367438
O O1 0.864512 0.536848 0.686173
O O2 0.902259 0.653926 0.635549
O O3 0.903194 0.630677 0.784993
O O4 0.000000 0.572562 0.696581
O O5 0.835401 0.500000 0.500000
O O6 0.815134 0.571599 0.369488
O O7 0.878801 0.624644 0.487391
O O8 0.743528 0.601855 0.487865
O O9 0.250000 0.016227 0.750000
O O10 0.374113 0.078351 0.734156
O O11 0.117806 0.101559 0.914845
O O12 0.000000 0.090979 0.834188
O O13 0.081418 0.983710 0.854824
O O14 0.890417 0.250000 0.464889
O O15 0.000000 0.167099 0.471944
O O16 0.631405 0.881241 0.565363
O O17 0.655357 0.000000 0.500000
O O18 0.500000 0.118187 0.395015
#
# Coordination Sequence:
#
# PCOD8301248 Si02
#       7
#    16  16  16  16  16  16  16
#     4   9  18  31  48  71 100 137 176 216 265 313
#     4  11  21  33  51  79 106 138 174 217 273 321
#     4  11  19  30  47  76 112 140 170 213 270 325
#     4   9  16  26  41  65  99 136 168 207 259 313
#     4  10  22  39  56  74 103 143 185 228 270 315
#     4   9  16  26  42  69 100 133 166 206 258 314
#     4   8  14  24  42  66  96 133 170 209 255 308
#
# _framework density 17.318216
#
# number of rings (size 3 to 8) (size 9 to 14) (size 15 to 20)
#    0.000    2.429    2.857    1.714    2.000    3.143 
#    0.000    0.000    0.000    4.286    0.000    0.000 
#    0.000    1.714    0.000    0.286    0.000    0.000 
#
# Total GULP energy -694133.153257 kJ/mol
# GULP energy per Si atom -12395.234880 kJ/mol
# Density = 1.727880 g / cm^3
# Si number density = 17.318216 Si / 1000 Ang^3
#
#
#
# Elastic Constant Matrix: (Units=GPa)
#
#
# Indices 1 2 3 4 5 6 
#
# 1 104.0286 37.9581 55.4438 0.0000 0.0000 0.0000
# 2 37.9581 46.9813 33.0941 0.0000 0.0000 0.0000
# 3 55.4438 33.0941 124.3589 0.0000 0.0000 0.0000
# 4 0.0000 0.0000 0.0000 12.3069 0.0000 0.0000
# 5 0.0000 0.0000 0.0000 0.0000 35.9495 0.0000
# 6 0.0000 0.0000 0.0000 0.0000 0.0000 8.3894
#
#
#
# Elastic Compliance Matrix: (Units=1/GPa)
#
#
# Indices 1 2 3 4 5 6 
#
# 1 0.015336 -0.009322 -0.004357 0.000000 0.000000 0.000000
# 2 -0.009322 0.031862 -0.004323 0.000000 0.000000 0.000000
# 3 -0.004357 -0.004323 0.011134 0.000000 0.000000 0.000000
# 4 0.000000 0.000000 0.000000 0.081255 0.000000 0.000000
# 5 0.000000 0.000000 0.000000 0.000000 0.027817 0.000000
# 6 0.000000 0.000000 0.000000 0.000000 0.000000 0.119198
#
#
# Mechanical properties :
#
#
# Convention : Reuss Voigt Hill
#
# Bulk Modulus (GPa) = 44.78495 58.70677 51.74586
# Shear Modulus (GPa) = 15.14936 21.25401 18.20169
#
# Velocity S-wave (km/s) = 2.96085 3.50703 3.24545
# Velocity P-wave (km/s) = 6.13229 7.09729 6.63236
#
# Compressibility (1/GPa) = 0.02232893
#
# Stress axis : x y z
#
# Youngs Moduli (GPa) = 65.20583 31.38569 89.81462
#
# Poissons Ratio (x) = 0.29257 0.39130
# Poissons Ratio (y) = 0.60783 0.38827
# Poissons Ratio (z) = 0.28408 0.13568
#
# Static dielectric constant tensor:
#      x y z
#    x 3.424590 0.000000 0.000000 
#    y 0.000000 2.557010 0.000000 
#    z 0.000000 0.000000 3.560980 
# 
# 
# High freq. dielectric constant tensor:
#      x y z
#    x 1.683160 0.000000 0.000000 
#    y 0.000000 1.582630 0.000000 
#    z 0.000000 0.000000 1.689280 
# 
# From -- ./inp_files/44385.got.cif
#   From: 2010.03.12/outbox.cif.g09.slc.cpg/sg74_23_cif.got.tgz:44385.got - 2010.04.16 15:46:19.
