data_PCOD8301118
_publ_section_title
;
Structure prediction by ZEFSAII (Michael W. Deem and Ramdas Pophale) SiO2 
 PCOD8301118
Probable space group: I M M A
;
_chemical_formula_sum "Si O2"
_cell_formula_units_Z 72
_cell_length_a 15.211143
_cell_length_b 8.876393
_cell_length_c 26.327777
_cell_angle_alpha 90.000000
_cell_angle_beta 90.000000
_cell_angle_gamma 90.000000
_cell_volume 3554.778642
_symmetry_space_group_name_H-M "I M M A"
_symmetry_group_IT_number 74
_symmetry_cell_setting 'orthorhombic'
loop_
_space_group_symop_operation_xyz
x,y,z
-x,1/2-y,z
x,-y,-z
-x,1/2+y,-z
-x,-y,-z
x,1/2+y,-z
-x,y,z
x,1/2-y,z
1/2+x,1/2+y,1/2+z
1/2-x,-y,1/2+z
1/2+x,1/2-y,1/2-z
1/2-x,y,1/2-z
1/2-x,1/2-y,1/2-z
1/2+x,y,1/2-z
1/2-x,1/2+y,1/2+z
1/2+x,-y,1/2+z
loop_
_atom_site_type_symbol
_atom_site_label
_atom_site_fract_x
_atom_site_fract_y
_atom_site_fract_z
Si Si1 0.500000 0.070454 0.379336
Si Si2 0.166310 0.577617 0.399278
Si Si3 0.648340 0.927724 0.446193
Si Si4 0.167946 0.576084 0.282274
Si Si5 0.000000 0.926332 0.554633
Si Si6 0.500000 0.573051 0.736656
O O1 0.500000 0.250000 0.384774
O O2 0.500000 0.014896 0.321134
O O3 0.587184 0.003129 0.404226
O O4 0.137669 0.750000 0.408502
O O5 0.250835 0.536022 0.432864
O O6 0.190849 0.549654 0.340943
O O7 0.086275 0.471650 0.414447
O O8 0.629982 0.750000 0.447728
O O9 0.624648 0.000000 0.500000
O O10 0.148708 0.750000 0.270142
O O11 0.250000 0.515973 0.250000
O O12 0.083832 0.482135 0.267158
O O13 0.000000 0.750000 0.546902
O O14 0.000000 0.000000 0.500000
O O15 0.500000 0.750000 0.737221
#
# Coordination Sequence:
#
# PCOD8301118 Si02
#       6
#     8  16  16  16   8   8
#     4  11  24  41  60  85 120 158 197 242 291 346
#     4  10  22  40  62  89 120 154 195 242 290 345
#     4  11  23  40  63  89 118 153 195 242 293 349
#     4  10  21  39  63  89 118 155 198 241 287 344
#     4  12  25  40  61  87 118 156 197 242 293 350
#     4  11  24  39  58  88 122 156 195 242 295 346
#
# _framework density 20.254425000000001
#
# number of rings (size 3 to 8) (size 9 to 14) (size 15 to 20)
#    0.000    1.333    0.000    5.333    0.000   11.111 
#    0.000    0.000    0.000    0.000    0.000    0.000 
#    0.000    0.000    0.000    0.000    0.000    0.000 
#
# Total GULP energy -446654.785086 kJ/mol
# GULP energy per Si atom -12407.077364 kJ/mol
# Density = 2.020833 g / cm^3
# Si number density = 20.254425 Si / 1000 Ang^3
#
#
#
# Elastic Constant Matrix: (Units=GPa)
#
#
# Indices 1 2 3 4 5 6 
#
# 1 93.2109 34.2334 10.5301 0.0000 0.0000 0.0000
# 2 34.2334 88.6771 25.9796 0.0000 0.0000 0.0000
# 3 10.5301 25.9796 77.5891 0.0000 0.0000 0.0000
# 4 0.0000 0.0000 0.0000 32.4419 0.0000 0.0000
# 5 0.0000 0.0000 0.0000 0.0000 43.1157 0.0000
# 6 0.0000 0.0000 0.0000 0.0000 0.0000 47.1906
#
#
#
# Elastic Compliance Matrix: (Units=1/GPa)
#
#
# Indices 1 2 3 4 5 6 
#
# 1 0.012501 -0.004800 -0.000089 0.000000 0.000000 0.000000
# 2 -0.004800 0.014346 -0.004152 0.000000 0.000000 0.000000
# 3 -0.000089 -0.004152 0.014291 0.000000 0.000000 0.000000
# 4 0.000000 0.000000 0.000000 0.030824 0.000000 0.000000
# 5 0.000000 0.000000 0.000000 0.000000 0.023193 0.000000
# 6 0.000000 0.000000 0.000000 0.000000 0.000000 0.021191
#
#
# Mechanical properties :
#
#
# Convention : Reuss Voigt Hill
#
# Bulk Modulus (GPa) = 43.37387 44.55147 43.96267
# Shear Modulus (GPa) = 35.18273 37.13189 36.15731
#
# Velocity S-wave (km/s) = 4.17230 4.28632 4.22969
# Velocity P-wave (km/s) = 6.68370 6.82205 6.75323
#
# Compressibility (1/GPa) = 0.02305536
#
# Stress axis : x y z
#
# Youngs Moduli (GPa) = 79.99162 69.70431 69.97477
#
# Poissons Ratio (x) = 0.33457 0.00626
# Poissons Ratio (y) = 0.38395 0.29055
# Poissons Ratio (z) = 0.00716 0.28943
#
# Static dielectric constant tensor:
#      x y z
#    x 3.586460 0.000000 0.000000 
#    y 0.000000 3.704030 0.000000 
#    z 0.000000 0.000000 3.855180 
# 
# 
# High freq. dielectric constant tensor:
#      x y z
#    x 1.805010 0.000000 0.000000 
#    y 0.000000 1.791240 0.000000 
#    z 0.000000 0.000000 1.809470 
# 
# From -- ./inp_files/63712.got.cif
#   From: 2010.03.12/outbox.cif.g09.slc.cpg/sg74_32_cif.got.tgz:63712.got - 2010.04.16 15:46:19.
