data_PCOD8301076
_publ_section_title
;
Structure prediction by ZEFSAII (Michael W. Deem and Ramdas Pophale) SiO2 
 PCOD8301076
Probable space group: I M M A
;
_chemical_formula_sum "Si O2"
_cell_formula_units_Z 112
_cell_length_a 13.329334
_cell_length_b 23.721468
_cell_length_c 16.244104
_cell_angle_alpha 90.000000
_cell_angle_beta 90.000000
_cell_angle_gamma 90.000000
_cell_volume 5136.245497
_symmetry_space_group_name_H-M "I M M A"
_symmetry_group_IT_number 74
_symmetry_cell_setting 'orthorhombic'
loop_
_space_group_symop_operation_xyz
x,y,z
-x,1/2-y,z
x,-y,-z
-x,1/2+y,-z
-x,-y,-z
x,1/2+y,-z
-x,y,z
x,1/2-y,z
1/2+x,1/2+y,1/2+z
1/2-x,-y,1/2+z
1/2+x,1/2-y,1/2-z
1/2-x,y,1/2-z
1/2-x,1/2-y,1/2-z
1/2+x,y,1/2-z
1/2-x,1/2+y,1/2+z
1/2+x,-y,1/2+z
loop_
_atom_site_type_symbol
_atom_site_label
_atom_site_fract_x
_atom_site_fract_y
_atom_site_fract_z
Si Si1 0.215154 0.812215 0.339600
Si Si2 0.187678 0.463852 0.924963
Si Si3 0.389254 0.422441 0.882683
Si Si4 0.885896 0.154618 0.954220
Si Si5 0.111774 0.490910 0.237871
Si Si6 0.615180 0.367491 0.208113
Si Si7 0.199736 0.817068 0.871380
O O1 0.166031 0.750000 0.336850
O O2 0.250000 0.831987 0.250000
O O3 0.131574 0.856202 0.369416
O O4 0.311830 0.808053 0.399183
O O5 0.303734 0.446789 0.942951
O O6 0.118226 0.408955 0.919545
O O7 0.184479 0.498085 0.839328
O O8 0.146334 0.500000 0.000000
O O9 0.500000 0.429302 0.922577
O O10 0.383559 0.455364 0.796843
O O11 0.000000 0.177046 0.946667
O O12 0.850740 0.156051 0.048641
O O13 0.144224 0.433377 0.283270
O O14 0.000000 0.482654 0.202620
O O15 0.500000 0.359684 0.180184
O O16 0.686911 0.340895 0.138219
O O17 0.632785 0.335011 0.293685
O O18 0.203057 0.750000 0.878738
#
# Coordination Sequence:
#
# PCOD8301076 Si02
#       7
#    16  16  16  16  16  16  16
#     4  10  22  41  64  92 123 161 210 260 315 381
#     4  11  23  36  60  89 125 163 200 256 311 371
#     4  10  22  39  59  86 117 159 203 244 302 367
#     4  11  24  42  64  95 131 167 211 266 328 389
#     4  10  21  38  63  91 121 159 204 253 314 378
#     4  10  22  39  63  92 126 171 220 270 323 384
#     4  11  24  39  61  93 130 172 219 268 321 385
#
# _framework density 21.805810000000001
#
# number of rings (size 3 to 8) (size 9 to 14) (size 15 to 20)
#    0.000    1.571    0.000    5.143    6.000    7.429 
#    0.000    4.286    0.000    3.429    0.000    0.000 
#    0.000    0.000    0.000    0.000    0.000    0.000 
#
# Total GULP energy -694425.635682 kJ/mol
# GULP energy per Si atom -12400.457780 kJ/mol
# Density = 2.175618 g / cm^3
# Si number density = 21.805810 Si / 1000 Ang^3
#
#
#
# Elastic Constant Matrix: (Units=GPa)
#
#
# Indices 1 2 3 4 5 6 
#
# 1 127.7160 18.5575 9.8169 0.0000 0.0000 0.0000
# 2 18.5575 108.6958 3.8210 0.0000 0.0000 0.0000
# 3 9.8169 3.8210 54.7781 -0.0001 0.0000 0.0000
# 4 0.0000 0.0000 -0.0001 -4.7998 0.0000 0.0000
# 5 0.0000 0.0000 0.0000 0.0000 24.9778 0.0000
# 6 0.0000 0.0000 0.0000 0.0000 0.0000 22.4745
#
#
#
# Elastic Compliance Matrix: (Units=1/GPa)
#
#
# Indices 1 2 3 4 5 6 
#
# 1 0.008129 -0.001340 -0.001363 0.000000 0.000000 0.000000
# 2 -0.001340 0.009443 -0.000419 0.000000 0.000000 0.000000
# 3 -0.001363 -0.000419 0.018529 0.000000 0.000000 0.000000
# 4 0.000000 0.000000 0.000000 -0.208343 0.000000 0.000000
# 5 0.000000 0.000000 0.000000 0.000000 0.040036 0.000000
# 6 0.000000 0.000000 0.000000 0.000000 0.000000 0.044495
#
#
# Mechanical properties :
#
#
# Convention : Reuss Voigt Hill
#
# Bulk Modulus (GPa) = 33.49200 39.50899 36.50049
# Shear Modulus (GPa) = -69.91588 25.79681 -22.05953
#
# Velocity S-wave (km/s) = -5.66856 3.44324 -3.18407
# Velocity P-wave (km/s) = 5.23936 5.82802 1.80485
#
# Compressibility (1/GPa) = 0.02985788
#
# Stress axis : x y z
#
# Youngs Moduli (GPa) = 123.01065 105.89322 53.96945
#
# Poissons Ratio (x) = 0.14190 0.07358
# Poissons Ratio (y) = 0.16483 0.02259
# Poissons Ratio (z) = 0.16771 0.04432
#
# Static dielectric constant tensor:
#      x y z
#    x 4.169860 0.000000 0.000000 
#    y 0.000000 3.967590 0.000000 
#    z 0.000000 0.000000 3.675980 
# 
# 
# High freq. dielectric constant tensor:
#      x y z
#    x 1.861250 0.000000 0.000000 
#    y 0.000000 1.870370 0.000000 
#    z 0.000000 0.000000 1.836890 
# 
# From -- ./inp_files/32766.got.cif
#   From: 2010.03.12/outbox.cif.g09.slc.cpg/sg74_17_cif.got.tgz:32766.got - 2010.04.16 15:46:19.
