data_PCOD8301360
_publ_section_title
;
Structure prediction by ZEFSAII (Michael W. Deem and Ramdas Pophale) SiO2 
 PCOD8301360
Probable space group: I M M A
;
_chemical_formula_sum "Si O2"
_cell_formula_units_Z 64
_cell_length_a 9.999655
_cell_length_b 22.693613
_cell_length_c 13.416289
_cell_angle_alpha 90.000000
_cell_angle_beta 90.000000
_cell_angle_gamma 90.000000
_cell_volume 3044.535665
_symmetry_space_group_name_H-M "I M M A"
_symmetry_group_IT_number 74
_symmetry_cell_setting 'orthorhombic'
loop_
_space_group_symop_operation_xyz
x,y,z
-x,1/2-y,z
x,-y,-z
-x,1/2+y,-z
-x,-y,-z
x,1/2+y,-z
-x,y,z
x,1/2-y,z
1/2+x,1/2+y,1/2+z
1/2-x,-y,1/2+z
1/2+x,1/2-y,1/2-z
1/2-x,y,1/2-z
1/2-x,1/2-y,1/2-z
1/2+x,y,1/2-z
1/2-x,1/2+y,1/2+z
1/2+x,-y,1/2+z
loop_
_atom_site_type_symbol
_atom_site_label
_atom_site_fract_x
_atom_site_fract_y
_atom_site_fract_z
Si Si1 0.500000 0.372698 0.332465
Si Si2 0.229417 0.097551 0.860970
Si Si3 0.283800 0.317904 0.467752
Si Si4 0.500000 0.960390 0.096421
Si Si5 0.000000 0.316715 0.375865
Si Si6 0.000000 0.507758 0.181702
O O1 0.366865 0.343382 0.375604
O O2 0.500000 0.362894 0.214252
O O3 0.500000 0.441828 0.360627
O O4 0.250000 0.123412 0.750000
O O5 0.369457 0.079589 0.908630
O O6 0.171566 0.148889 0.931083
O O7 0.130930 0.041496 0.857636
O O8 0.320399 0.250000 0.483046
O O9 0.127980 0.327341 0.445156
O O10 0.500000 0.997593 0.198604
O O11 0.500000 0.000000 0.000000
O O12 0.000000 0.250000 0.332639
#
# Coordination Sequence:
#
# PCOD8301360 Si02
#       6
#     8  16  16   8   8   8
#     4  12  25  39  62  91 129 165 206 250 309 371
#     4  10  23  43  63  92 128 158 206 262 305 365
#     4  11  24  41  65  92 121 166 211 251 311 367
#     4  10  23  39  65  90 124 161 208 250 304 372
#     4  10  23  42  62  91 126 158 206 259 302 365
#     4  10  25  42  59  95 127 164 203 251 314 369
#
# _framework density 21.021267999999999
#
# number of rings (size 3 to 8) (size 9 to 14) (size 15 to 20)
#    0.000    1.500    0.000    3.375    7.000    7.500 
#    0.000    0.000    0.000    7.500    0.000    0.000 
#    0.000    0.000    0.000    0.000    0.000    0.000 
#
# Total GULP energy -396940.904472 kJ/mol
# GULP energy per Si atom -12404.403265 kJ/mol
# Density = 2.097342 g / cm^3
# Si number density = 21.021268 Si / 1000 Ang^3
#
#
#
# Elastic Constant Matrix: (Units=GPa)
#
#
# Indices 1 2 3 4 5 6 
#
# 1 112.5885 45.2330 22.0267 0.0000 0.0000 0.0000
# 2 45.2330 152.4207 69.8671 0.0001 0.0000 0.0000
# 3 22.0267 69.8671 113.4838 0.0004 -0.0001 0.0000
# 4 0.0000 0.0001 0.0004 41.6608 0.0000 0.0000
# 5 0.0000 0.0000 -0.0001 0.0000 10.9261 0.0000
# 6 0.0000 0.0000 0.0000 0.0000 0.0000 25.0643
#
#
#
# Elastic Compliance Matrix: (Units=1/GPa)
#
#
# Indices 1 2 3 4 5 6 
#
# 1 0.010086 -0.002920 -0.000160 0.000000 0.000000 0.000000
# 2 -0.002920 0.009985 -0.005581 0.000000 0.000000 0.000000
# 3 -0.000160 -0.005581 0.012279 0.000000 0.000000 0.000000
# 4 0.000000 0.000000 0.000000 0.024003 0.000000 0.000000
# 5 0.000000 0.000000 0.000000 0.000000 0.091524 0.000000
# 6 0.000000 0.000000 0.000000 0.000000 0.000000 0.039897
#
#
# Mechanical properties :
#
#
# Convention : Reuss Voigt Hill
#
# Bulk Modulus (GPa) = 66.53838 72.52738 69.53288
# Shear Modulus (GPa) = 23.79744 31.62133 27.70938
#
# Velocity S-wave (km/s) = 3.36827 3.88268 3.63459
# Velocity P-wave (km/s) = 6.84460 7.39439 7.12480
#
# Compressibility (1/GPa) = 0.01502892
#
# Stress axis : x y z
#
# Youngs Moduli (GPa) = 99.14449 100.14523 81.44108
#
# Poissons Ratio (x) = 0.29241 0.01304
# Poissons Ratio (y) = 0.28949 0.45451
# Poissons Ratio (z) = 0.01587 0.55890
#
# Static dielectric constant tensor:
#      x y z
#    x 3.905240 0.000000 0.000000 
#    y 0.000000 3.705480 0.000000 
#    z 0.000000 0.000000 3.769930 
# 
# 
# High freq. dielectric constant tensor:
#      x y z
#    x 1.840690 0.000000 0.000000 
#    y 0.000000 1.817820 0.000000 
#    z 0.000000 0.000000 1.827840 
# 
# From -- ./inp_files/28919.got.cif
#   From: 2010.03.12/outbox.cif.g09.slc.cpg/sg74_15_cif.got.tgz:28919.got - 2010.04.16 15:46:19.
