data_PCOD8301213
_publ_section_title
;
Structure prediction by ZEFSAII (Michael W. Deem and Ramdas Pophale) SiO2 
 PCOD8301213
Probable space group: I M M A
;
_chemical_formula_sum "Si O2"
_cell_formula_units_Z 60
_cell_length_a 7.503944
_cell_length_b 15.461578
_cell_length_c 24.684311
_cell_angle_alpha 90.000000
_cell_angle_beta 90.000000
_cell_angle_gamma 90.000000
_cell_volume 2863.943260
_symmetry_space_group_name_H-M "I M M A"
_symmetry_group_IT_number 74
_symmetry_cell_setting 'orthorhombic'
loop_
_space_group_symop_operation_xyz
x,y,z
-x,1/2-y,z
x,-y,-z
-x,1/2+y,-z
-x,-y,-z
x,1/2+y,-z
-x,y,z
x,1/2-y,z
1/2+x,1/2+y,1/2+z
1/2-x,-y,1/2+z
1/2+x,1/2-y,1/2-z
1/2-x,y,1/2-z
1/2-x,1/2-y,1/2-z
1/2+x,y,1/2-z
1/2-x,1/2+y,1/2+z
1/2+x,-y,1/2+z
loop_
_atom_site_type_symbol
_atom_site_label
_atom_site_fract_x
_atom_site_fract_y
_atom_site_fract_z
Si Si1 0.212861 0.750000 0.363369
Si Si2 0.208291 0.750000 0.813177
Si Si3 0.500000 0.589532 0.531596
Si Si4 0.707149 0.073422 0.811699
Si Si5 0.500000 0.250000 0.546728
Si Si6 0.796344 0.914734 0.619612
O O1 0.280006 0.667045 0.329243
O O2 0.316984 0.750000 0.419551
O O3 0.000000 0.750000 0.374125
O O4 0.250000 0.750000 0.750000
O O5 0.294502 0.665904 0.839867
O O6 0.000000 0.750000 0.824850
O O7 0.500000 0.500000 0.500000
O O8 0.500000 0.664792 0.488465
O O9 0.322261 0.600835 0.566937
O O10 0.500000 0.071654 0.821090
O O11 0.750000 0.053497 0.750000
O O12 0.787566 0.997639 0.849105
O O13 0.000000 0.930401 0.600790
#
# Coordination Sequence:
#
# PCOD8301213 Si02
#       6
#     8   8   8  16   4  16
#     4  10  23  43  61  93 133 160 213 268 307 384
#     4  12  23  40  65  97 132 173 211 259 329 399
#     4  12  26  44  68  94 126 174 226 276 324 372
#     4  10  22  37  63  95 128 172 205 249 322 381
#     4  12  26  42  68  92 116 176 222 260 338 354
#     4  11  24  43  64  94 132 167 216 272 321 385
#
# _framework density 20.950135
#
# number of rings (size 3 to 8) (size 9 to 14) (size 15 to 20)
#    0.000    1.067    1.333    4.800    3.733    3.733 
#    0.000    0.000    0.000    0.000    0.000    0.000 
#    0.000    0.000    0.000    0.000    0.000    0.000 
#
# Total GULP energy -372101.552803 kJ/mol
# GULP energy per Si atom -12403.385093 kJ/mol
# Density = 2.090245 g / cm^3
# Si number density = 20.950135 Si / 1000 Ang^3
#
#
#
# Elastic Constant Matrix: (Units=GPa)
#
#
# Indices 1 2 3 4 5 6 
#
# 1 95.7050 11.1321 34.7089 0.0000 0.0000 0.0000
# 2 11.1321 127.9167 26.1602 0.0000 0.0000 0.0000
# 3 34.7089 26.1602 110.3236 0.0000 0.0000 0.0000
# 4 0.0000 0.0000 0.0000 57.4595 0.0000 0.0000
# 5 0.0000 0.0000 0.0000 0.0000 44.4859 0.0000
# 6 0.0000 0.0000 0.0000 0.0000 0.0000 4.4247
#
#
#
# Elastic Compliance Matrix: (Units=1/GPa)
#
#
# Indices 1 2 3 4 5 6 
#
# 1 0.011804 -0.000281 -0.003647 0.000000 0.000000 0.000000
# 2 -0.000281 0.008223 -0.001861 0.000000 0.000000 0.000000
# 3 -0.003647 -0.001861 0.010653 0.000000 0.000000 0.000000
# 4 0.000000 0.000000 0.000000 0.017404 0.000000 0.000000
# 5 0.000000 0.000000 0.000000 0.000000 0.022479 0.000000
# 6 0.000000 0.000000 0.000000 0.000000 0.000000 0.226003
#
#
# Mechanical properties :
#
#
# Convention : Reuss Voigt Hill
#
# Bulk Modulus (GPa) = 52.35457 53.10530 52.72994
# Shear Modulus (GPa) = 15.89766 38.73696 27.31731
#
# Velocity S-wave (km/s) = 2.75768 4.30467 3.61490
# Velocity P-wave (km/s) = 5.93162 7.07887 6.53049
#
# Compressibility (1/GPa) = 0.01910053
#
# Stress axis : x y z
#
# Youngs Moduli (GPa) = 84.71607 121.61418 93.87061
#
# Poissons Ratio (x) = 0.03423 0.34234
# Poissons Ratio (y) = 0.02384 0.17472
# Poissons Ratio (z) = 0.30896 0.22635
#
# Static dielectric constant tensor:
#      x y z
#    x 3.804770 0.000000 0.000000 
#    y 0.000000 4.381750 0.000000 
#    z 0.000000 0.000000 3.830320 
# 
# 
# High freq. dielectric constant tensor:
#      x y z
#    x 1.829500 0.000000 0.000000 
#    y 0.000000 1.844770 0.000000 
#    z 0.000000 0.000000 1.818270 
# 
# From -- ./inp_files/56354.got.cif
#   From: 2010.03.12/outbox.cif.g09.slc.cpg/sg74_29_cif.got.tgz:56354.got - 2010.04.16 15:46:19.
