data_PCOD8301057
_publ_section_title
;
Structure prediction by ZEFSAII (Michael W. Deem and Ramdas Pophale) SiO2 
 PCOD8301057
Probable space group: I M M A
;
_chemical_formula_sum "Si O2"
_cell_formula_units_Z 72
_cell_length_a 8.905075
_cell_length_b 22.310506
_cell_length_c 18.919248
_cell_angle_alpha 90.000000
_cell_angle_beta 90.000000
_cell_angle_gamma 90.000000
_cell_volume 3758.814312
_symmetry_space_group_name_H-M "I M M A"
_symmetry_group_IT_number 74
_symmetry_cell_setting 'orthorhombic'
loop_
_space_group_symop_operation_xyz
x,y,z
-x,1/2-y,z
x,-y,-z
-x,1/2+y,-z
-x,-y,-z
x,1/2+y,-z
-x,y,z
x,1/2-y,z
1/2+x,1/2+y,1/2+z
1/2-x,-y,1/2+z
1/2+x,1/2-y,1/2-z
1/2-x,y,1/2-z
1/2-x,1/2-y,1/2-z
1/2+x,y,1/2-z
1/2-x,1/2+y,1/2+z
1/2+x,-y,1/2+z
loop_
_atom_site_type_symbol
_atom_site_label
_atom_site_fract_x
_atom_site_fract_y
_atom_site_fract_z
Si Si1 0.326488 0.514400 0.078455
Si Si2 0.672819 0.153052 0.920819
Si Si3 0.322783 0.750000 0.326146
Si Si4 0.171780 0.318346 0.064673
Si Si5 0.324565 0.418935 0.325302
O O1 0.500000 0.495212 0.083248
O O2 0.302557 0.583696 0.096717
O O3 0.233474 0.478002 0.135711
O O4 0.264669 0.500000 0.000000
O O5 0.500000 0.171854 0.911261
O O6 0.774072 0.190676 0.867570
O O7 0.718703 0.166402 0.000758
O O8 0.500000 0.750000 0.318170
O O9 0.250000 0.750000 0.250000
O O10 0.194578 0.250000 0.088974
O O11 0.216892 0.359956 0.130118
O O12 0.000000 0.330093 0.040729
O O13 0.500000 0.426294 0.314119
O O14 0.250000 0.411591 0.250000
#
# Coordination Sequence:
#
# PCOD8301057 Si02
#       5
#    16  16   8  16  16
#     4  10  21  39  63  91 123 159 202 252 303 363
#     4  11  22  38  64  94 122 158 204 249 302 364
#     4  12  26  44  64  90 127 162 201 252 306 362
#     4  10  21  38  61  90 122 160 205 252 301 360
#     4  11  24  40  61  89 125 164 206 254 308 363
#
# _framework density 19.154976000000001
#
# number of rings (size 3 to 8) (size 9 to 14) (size 15 to 20)
#    0.000    1.333    3.333    2.333    0.000    4.444 
#    0.000    0.000    0.000    0.000    0.000    0.000 
#    0.000    0.000    0.000    0.000    0.000    0.000 
#
# Total GULP energy -446617.776970 kJ/mol
# GULP energy per Si atom -12406.049360 kJ/mol
# Density = 1.911138 g / cm^3
# Si number density = 19.154976 Si / 1000 Ang^3
#
#
#
# Elastic Constant Matrix: (Units=GPa)
#
#
# Indices 1 2 3 4 5 6 
#
# 1 117.9692 64.7411 76.9663 0.0000 0.0000 0.0000
# 2 64.7411 129.5495 66.5103 0.0000 0.0000 0.0000
# 3 76.9663 66.5103 155.0044 0.0000 0.0000 0.0000
# 4 0.0000 0.0000 0.0000 26.7971 0.0000 0.0000
# 5 0.0000 0.0000 0.0000 0.0000 34.3384 0.0000
# 6 0.0000 0.0000 0.0000 0.0000 0.0000 19.8025
#
#
#
# Elastic Compliance Matrix: (Units=1/GPa)
#
#
# Indices 1 2 3 4 5 6 
#
# 1 0.014328 -0.004499 -0.005184 0.000000 0.000000 0.000000
# 2 -0.004499 0.011312 -0.002620 0.000000 0.000000 0.000000
# 3 -0.005184 -0.002620 0.010150 0.000000 0.000000 0.000000
# 4 0.000000 0.000000 0.000000 0.037317 0.000000 0.000000
# 5 0.000000 0.000000 0.000000 0.000000 0.029122 0.000000
# 6 0.000000 0.000000 0.000000 0.000000 0.000000 0.050499
#
#
# Mechanical properties :
#
#
# Convention : Reuss Voigt Hill
#
# Bulk Modulus (GPa) = 89.41208 90.99538 90.20373
# Shear Modulus (GPa) = 27.61481 29.14131 28.37806
#
# Velocity S-wave (km/s) = 3.80103 3.90467 3.85320
# Velocity P-wave (km/s) = 8.12671 8.24236 8.18474
#
# Compressibility (1/GPa) = 0.01118417
#
# Stress axis : x y z
#
# Youngs Moduli (GPa) = 69.79382 88.39807 98.52382
#
# Poissons Ratio (x) = 0.39768 0.51075
# Poissons Ratio (y) = 0.31399 0.25815
# Poissons Ratio (z) = 0.36182 0.23162
#
# Static dielectric constant tensor:
#      x y z
#    x 3.621200 0.000000 0.000000 
#    y 0.000000 3.538600 0.000000 
#    z 0.000000 0.000000 3.689980 
# 
# 
# High freq. dielectric constant tensor:
#      x y z
#    x 1.752440 0.000000 0.000000 
#    y 0.000000 1.761400 0.000000 
#    z 0.000000 0.000000 1.742740 
# 
# From -- ./inp_files/39467.got.cif
#   From: 2010.03.12/outbox.cif.g09.slc.cpg/sg74_20_cif.got.tgz:39467.got - 2010.04.16 15:46:19.
