data_PCOD8301652
_publ_section_title
;
Structure prediction by ZEFSAII (Michael W. Deem and Ramdas Pophale) SiO2 
 PCOD8301652
Probable space group: I M M A
;
_chemical_formula_sum "Si O2"
_cell_formula_units_Z 96
_cell_length_a 18.994241
_cell_length_b 30.397859
_cell_length_c 9.437915
_cell_angle_alpha 90.000000
_cell_angle_beta 90.000000
_cell_angle_gamma 90.000000
_cell_volume 5449.303566
_symmetry_space_group_name_H-M "I M M A"
_symmetry_group_IT_number 74
_symmetry_cell_setting 'orthorhombic'
loop_
_space_group_symop_operation_xyz
x,y,z
-x,1/2-y,z
x,-y,-z
-x,1/2+y,-z
-x,-y,-z
x,1/2+y,-z
-x,y,z
x,1/2-y,z
1/2+x,1/2+y,1/2+z
1/2-x,-y,1/2+z
1/2+x,1/2-y,1/2-z
1/2-x,y,1/2-z
1/2-x,1/2-y,1/2-z
1/2+x,y,1/2-z
1/2-x,1/2+y,1/2+z
1/2+x,-y,1/2+z
loop_
_atom_site_type_symbol
_atom_site_label
_atom_site_fract_x
_atom_site_fract_y
_atom_site_fract_z
Si Si1 0.083485 0.201046 0.719862
Si Si2 0.817675 0.488135 0.161273
Si Si3 0.416856 0.626385 0.010972
Si Si4 0.830922 0.387288 0.227479
Si Si5 0.582068 0.639828 0.471354
Si Si6 0.080459 0.937705 0.240831
O O1 0.116104 0.250000 0.707774
O O2 0.106840 0.172159 0.584745
O O3 0.107626 0.178716 0.866905
O O4 0.000000 0.202589 0.721712
O O5 0.750000 0.501388 0.250000
O O6 0.837416 0.437464 0.178914
O O7 0.880853 0.516419 0.223879
O O8 0.802121 0.500000 0.000000
O O9 0.500000 0.626287 0.977514
O O10 0.372500 0.620246 0.871113
O O11 0.395987 0.586830 0.116073
O O12 0.750000 0.373034 0.250000
O O13 0.868045 0.357291 0.108415
O O14 0.500000 0.645335 0.514542
O O15 0.593797 0.593320 0.394088
O O16 0.000000 0.950774 0.252297
#
# Coordination Sequence:
#
# PCOD8301652 Si02
#       6
#    16  16  16  16  16  16
#     4   8  15  32  60  87 105 128 169 216 263 317
#     4  11  24  37  52  73 105 143 185 226 259 302
#     4   9  19  35  55  80 108 136 169 215 265 315
#     4  11  23  35  50  75 106 144 181 214 260 307
#     4   9  17  33  55  79 105 133 170 218 263 309
#     4   9  19  34  54  76 101 136 175 217 265 309
#
# _framework density 17.61693
#
# number of rings (size 3 to 8) (size 9 to 14) (size 15 to 20)
#    0.000    2.500    1.667    2.500    4.667    1.667 
#    0.000    5.000    0.000    7.000    0.000    0.000 
#    0.000    0.000    0.000    0.000    0.000    0.000 
#
# Total GULP energy -595111.420663 kJ/mol
# GULP energy per Si atom -12398.154597 kJ/mol
# Density = 1.757683 g / cm^3
# Si number density = 17.616930 Si / 1000 Ang^3
#
#
#
# Elastic Constant Matrix: (Units=GPa)
#
#
# Indices 1 2 3 4 5 6 
#
# 1 64.1552 33.1772 63.3314 0.0016 0.0007 -0.0081
# 2 33.1772 77.1488 47.9595 -0.0004 -0.0009 0.0071
# 3 63.3314 47.9595 156.0367 -0.0036 -0.0052 0.0413
# 4 0.0016 -0.0004 -0.0036 21.3398 -0.0020 0.0261
# 5 0.0007 -0.0009 -0.0052 -0.0020 27.3459 0.0197
# 6 -0.0081 0.0071 0.0413 0.0261 0.0197 68.3776
#
#
#
# Elastic Compliance Matrix: (Units=1/GPa)
#
#
# Indices 1 2 3 4 5 6 
#
# 1 0.028218 -0.006200 -0.009548 -0.000004 -0.000003 0.000010
# 2 -0.006200 0.017386 -0.002827 0.000000 0.000000 -0.000001
# 3 -0.009548 -0.002827 0.011153 0.000003 0.000002 -0.000008
# 4 -0.000004 0.000000 0.000003 0.046861 0.000003 -0.000018
# 5 -0.000003 0.000000 0.000002 0.000003 0.036569 -0.000011
# 6 0.000010 -0.000001 -0.000008 -0.000018 -0.000011 0.014625
#
#
# Mechanical properties :
#
#
# Convention : Reuss Voigt Hill
#
# Bulk Modulus (GPa) = 51.00080 65.14188 58.07134
# Shear Modulus (GPa) = 25.18939 33.60416 29.39677
#
# Velocity S-wave (km/s) = 3.78542 4.37222 4.08936
# Velocity P-wave (km/s) = 6.93676 7.90858 7.43856
#
# Compressibility (1/GPa) = 0.01960753
#
# Stress axis : x y z
#
# Youngs Moduli (GPa) = 35.43800 57.51825 89.66318
#
# Poissons Ratio (x) = 0.35661 0.85606
# Poissons Ratio (y) = 0.21971 0.25351
# Poissons Ratio (z) = 0.33834 0.16262
#
# Static dielectric constant tensor:
#      x y z
#    x 3.161740 0.000020 0.000000 
#    y 0.000020 3.533530 0.000000 
#    z 0.000000 0.000000 3.303360 
# 
# 
# High freq. dielectric constant tensor:
#      x y z
#    x 1.665200 0.000000 0.000000 
#    y 0.000000 1.669800 0.000000 
#    z 0.000000 0.000000 1.689990 
# 
# From -- ./inp_files/12689.got.cif
#   From: 2010.03.12/outbox.cif.g09.slc.cpg/sg74_7_cif.got.tgz:12689.got - 2010.04.16 15:46:19.
