data_PCOD8301183
_publ_section_title
;
Structure prediction by ZEFSAII (Michael W. Deem and Ramdas Pophale) SiO2 
 PCOD8301183
Probable space group: I M M A
;
_chemical_formula_sum "Si O2"
_cell_formula_units_Z 44
_cell_length_a 11.495844
_cell_length_b 7.530918
_cell_length_c 29.071844
_cell_angle_alpha 90.000000
_cell_angle_beta 90.000000
_cell_angle_gamma 90.000000
_cell_volume 2516.873338
_symmetry_space_group_name_H-M "I M M A"
_symmetry_group_IT_number 74
_symmetry_cell_setting 'orthorhombic'
loop_
_space_group_symop_operation_xyz
x,y,z
-x,1/2-y,z
x,-y,-z
-x,1/2+y,-z
-x,-y,-z
x,1/2+y,-z
-x,y,z
x,1/2-y,z
1/2+x,1/2+y,1/2+z
1/2-x,-y,1/2+z
1/2+x,1/2-y,1/2-z
1/2-x,y,1/2-z
1/2-x,1/2-y,1/2-z
1/2+x,y,1/2-z
1/2-x,1/2+y,1/2+z
1/2+x,-y,1/2+z
loop_
_atom_site_type_symbol
_atom_site_label
_atom_site_fract_x
_atom_site_fract_y
_atom_site_fract_z
Si Si1 0.628559 0.250000 0.359653
Si Si2 0.500000 0.750000 0.728684
Si Si3 0.308974 0.543812 0.121452
Si Si4 0.500000 0.049130 0.803046
Si Si5 0.500000 0.956559 0.053234
O O1 0.500000 0.250000 0.382845
O O2 0.614684 0.250000 0.303967
O O3 0.693385 0.427679 0.375718
O O4 0.500000 0.574380 0.758977
O O5 0.273411 0.750000 0.116142
O O6 0.385492 0.512580 0.166916
O O7 0.383197 0.471319 0.077617
O O8 0.500000 0.250000 0.784786
O O9 0.500000 0.750000 0.063712
O O10 0.500000 0.000000 0.000000
#
# Coordination Sequence:
#
# PCOD8301183 Si02
#       5
#     8   4  16   8   8
#     4  10  23  35  50  74 106 156 188 216 248 312
#     4  10  22  34  46  80 106 140 208 218 238 314
#     4   9  19  36  54  77 110 140 170 220 281 318
#     4   9  18  33  54  77 107 137 175 235 286 305
#     4   9  19  33  58  94 106 122 164 219 284 337
#
# _framework density 17.482009000000001
#
# number of rings (size 3 to 8) (size 9 to 14) (size 15 to 20)
#    0.545    2.182    0.000    3.273    2.545    6.545 
#    0.000    3.636    0.000    1.091    0.000    0.000 
#    0.000    0.000    0.000    0.000    0.000    0.000 
#
# Total GULP energy -272690.756679 kJ/mol
# GULP energy per Si atom -12395.034395 kJ/mol
# Density = 1.744222 g / cm^3
# Si number density = 17.482009 Si / 1000 Ang^3
#
#
#
# Elastic Constant Matrix: (Units=GPa)
#
#
# Indices 1 2 3 4 5 6 
#
# 1 140.8407 72.5750 52.5310 0.0000 0.0000 0.0000
# 2 72.5750 107.4468 47.7497 0.0000 0.0000 0.0000
# 3 52.5310 47.7497 119.8586 0.0000 0.0000 0.0000
# 4 0.0000 0.0000 0.0000 26.7024 0.0000 0.0000
# 5 0.0000 0.0000 0.0000 0.0000 2.2343 0.0000
# 6 0.0000 0.0000 0.0000 0.0000 0.0000 33.8100
#
#
#
# Elastic Compliance Matrix: (Units=1/GPa)
#
#
# Indices 1 2 3 4 5 6 
#
# 1 0.011409 -0.006664 -0.002345 0.000000 0.000000 0.000000
# 2 -0.006664 0.015201 -0.003135 0.000000 0.000000 0.000000
# 3 -0.002345 -0.003135 0.010620 0.000000 0.000000 0.000000
# 4 0.000000 0.000000 0.000000 0.037450 0.000000 0.000000
# 5 0.000000 0.000000 0.000000 0.000000 0.447561 0.000000
# 6 0.000000 0.000000 0.000000 0.000000 0.000000 0.029577
#
#
# Mechanical properties :
#
#
# Convention : Reuss Voigt Hill
#
# Bulk Modulus (GPa) = 77.27304 79.31750 78.29527
# Shear Modulus (GPa) = 8.61442 25.56871 17.09157
#
# Velocity S-wave (km/s) = 2.22223 3.82851 3.13016
# Velocity P-wave (km/s) = 7.13315 8.06305 7.61231
#
# Compressibility (1/GPa) = 0.01294112
#
# Stress axis : x y z
#
# Youngs Moduli (GPa) = 87.65100 65.78347 94.16000
#
# Poissons Ratio (x) = 0.43837 0.22085
# Poissons Ratio (y) = 0.58409 0.29523
# Poissons Ratio (z) = 0.20558 0.20626
#
# Static dielectric constant tensor:
#      x y z
#    x 3.111260 0.000000 0.000000 
#    y 0.000000 3.240480 0.000000 
#    z 0.000000 0.000000 2.907590 
# 
# 
# High freq. dielectric constant tensor:
#      x y z
#    x 1.660070 0.000000 0.000000 
#    y 0.000000 1.687460 0.000000 
#    z 0.000000 0.000000 1.658750 
# 
# From -- ./inp_files/69498.got.cif
#   From: 2010.03.12/outbox.cif.g09.slc.cpg/sg74_35_cif.got.tgz:69498.got - 2010.04.16 15:46:19.
