data_PCOD8301247
_publ_section_title
;
Structure prediction by ZEFSAII (Michael W. Deem and Ramdas Pophale) SiO2 
 PCOD8301247
Probable space group: I M M A
;
_chemical_formula_sum "Si O2"
_cell_formula_units_Z 80
_cell_length_a 16.692070
_cell_length_b 28.772442
_cell_length_c 9.086326
_cell_angle_alpha 90.000000
_cell_angle_beta 90.000000
_cell_angle_gamma 90.000000
_cell_volume 4363.904471
_symmetry_space_group_name_H-M "I M M A"
_symmetry_group_IT_number 74
_symmetry_cell_setting 'orthorhombic'
loop_
_space_group_symop_operation_xyz
x,y,z
-x,1/2-y,z
x,-y,-z
-x,1/2+y,-z
-x,-y,-z
x,1/2+y,-z
-x,y,z
x,1/2-y,z
1/2+x,1/2+y,1/2+z
1/2-x,-y,1/2+z
1/2+x,1/2-y,1/2-z
1/2-x,y,1/2-z
1/2-x,1/2-y,1/2-z
1/2+x,y,1/2-z
1/2-x,1/2+y,1/2+z
1/2+x,-y,1/2+z
loop_
_atom_site_type_symbol
_atom_site_label
_atom_site_fract_x
_atom_site_fract_y
_atom_site_fract_z
Si Si1 0.766954 0.304689 0.583328
Si Si2 0.590888 0.454988 0.417943
Si Si3 0.093715 0.853136 0.570167
Si Si4 0.323040 0.865335 0.645018
Si Si5 0.409546 0.956442 0.923866
O O1 0.757948 0.250000 0.567949
O O2 0.750000 0.321021 0.750000
O O3 0.856830 0.319050 0.535720
O O4 0.702266 0.326996 0.473432
O O5 0.627158 0.500000 0.500000
O O6 0.500000 0.445369 0.472390
O O7 0.644383 0.409387 0.447606
O O8 0.593046 0.466379 0.247349
O O9 0.109387 0.843904 0.744891
O O10 0.125900 0.905726 0.536883
O O11 0.000000 0.846050 0.538097
O O12 0.250000 0.880964 0.750000
O O13 0.500000 0.955128 0.983558
O O14 0.363387 0.000000 0.000000
#
# Coordination Sequence:
#
# PCOD8301247 Si02
#       5
#    16  16  16  16  16
#     4  10  22  39  55  74 104 138 170 213 272 325
#     4   9  17  30  49  74 104 135 167 206 250 296
#     4   9  18  34  57  81 103 134 178 221 256 300
#     4   9  18  34  54  75 102 137 174 213 256 308
#     4   8  14  26  45  71 101 130 162 201 246 295
#
# _framework density 18.332205999999999
#
# number of rings (size 3 to 8) (size 9 to 14) (size 15 to 20)
#    0.000    3.000    0.000    1.800    0.000    5.600 
#    0.000   14.000    0.000    4.200    0.000    0.000 
#    0.000    0.000    0.000    0.000    0.000    0.000 
#
# Total GULP energy -495692.175305 kJ/mol
# GULP energy per Si atom -12392.304383 kJ/mol
# Density = 1.829048 g / cm^3
# Si number density = 18.332206 Si / 1000 Ang^3
#
#
#
# Elastic Constant Matrix: (Units=GPa)
#
#
# Indices 1 2 3 4 5 6 
#
# 1 70.3579 44.7039 38.7328 0.0001 0.0006 0.0003
# 2 44.7039 106.3164 61.4769 -0.0005 0.0002 -0.0001
# 3 38.7328 61.4769 79.2312 -0.0187 -0.0003 0.0017
# 4 0.0001 -0.0005 -0.0187 37.7541 0.0003 0.0003
# 5 0.0006 0.0002 -0.0003 0.0003 19.8276 0.0008
# 6 0.0003 -0.0001 0.0017 0.0003 0.0008 27.2099
#
#
#
# Elastic Compliance Matrix: (Units=1/GPa)
#
#
# Indices 1 2 3 4 5 6 
#
# 1 0.020937 -0.005233 -0.006175 -0.000003 -0.000001 0.000000
# 2 -0.005233 0.018368 -0.011694 -0.000006 0.000000 0.000001
# 3 -0.006175 -0.011694 0.024714 0.000012 0.000001 -0.000002
# 4 -0.000003 -0.000006 0.000012 0.026487 0.000000 0.000000
# 5 -0.000001 0.000000 0.000001 0.000000 0.050435 -0.000001
# 6 0.000000 0.000001 -0.000002 0.000000 -0.000001 0.036751
#
#
# Mechanical properties :
#
#
# Convention : Reuss Voigt Hill
#
# Bulk Modulus (GPa) = 56.13221 60.63696 58.38458
# Shear Modulus (GPa) = 21.75471 24.35779 23.05625
#
# Velocity S-wave (km/s) = 3.44858 3.64907 3.55024
# Velocity P-wave (km/s) = 6.82223 7.13462 6.98018
#
# Compressibility (1/GPa) = 0.01781508
#
# Stress axis : x y z
#
# Youngs Moduli (GPa) = 47.76127 54.44147 40.46355
#
# Poissons Ratio (x) = 0.28490 0.24986
# Poissons Ratio (y) = 0.24994 0.47318
# Poissons Ratio (z) = 0.29492 0.63664
#
# Static dielectric constant tensor:
#      x y z
#    x 3.378500 0.000000 0.000000 
#    y 0.000000 3.428520 -0.000010 
#    z 0.000000 -0.000010 3.426310 
# 
# 
# High freq. dielectric constant tensor:
#      x y z
#    x 1.697600 0.000000 0.000000 
#    y 0.000000 1.708750 0.000000 
#    z 0.000000 0.000000 1.698100 
# 
# From -- ./inp_files/11143.got.cif
#   From: 2010.03.12/outbox.cif.g09.slc.cpg/sg74_6_cif.got.tgz:11143.got - 2010.04.16 15:46:19.
