data_PCOD8301899
_publ_section_title
;
Structure prediction by ZEFSAII (Michael W. Deem and Ramdas Pophale) SiO2 
 PCOD8301899
Probable space group: P 41
;
_chemical_formula_sum "Si O2"
_cell_formula_units_Z 24
_cell_length_a 10.750476
_cell_length_b 10.750476
_cell_length_c 8.752751
_cell_angle_alpha 90.000000
_cell_angle_beta 90.000000
_cell_angle_gamma 90.000000
_cell_volume 1011.579365
_symmetry_space_group_name_H-M "P 41"
_symmetry_group_IT_number 76
_symmetry_cell_setting 'tetragonal'
loop_
_space_group_symop_operation_xyz
x,y,z
-y,x,1/4+z
-x,-y,1/2+z
y,-x,3/4+z
loop_
_atom_site_type_symbol
_atom_site_label
_atom_site_fract_x
_atom_site_fract_y
_atom_site_fract_z
Si Si1 0.378769 0.228806 0.824520
Si Si2 0.021352 0.459261 0.202512
Si Si3 0.750133 0.173319 0.575462
Si Si4 0.283382 0.851217 0.745985
Si Si5 0.614766 0.572508 0.887412
Si Si6 0.076851 0.732724 0.309445
O O1 0.283859 0.309817 0.926158
O O2 0.482217 0.316787 0.756118
O O3 0.290302 0.171522 0.696078
O O4 0.442152 0.125950 0.933315
O O5 0.075157 0.367206 0.339090
O O6 0.052483 0.602020 0.225501
O O7 0.088539 0.416798 0.043367
O O8 0.800777 0.163386 0.400773
O O9 0.699166 0.310496 0.615282
O O10 0.864891 0.161504 0.695282
O O11 0.215839 0.945817 0.627196
O O12 0.602299 0.515948 0.717906
#
# Coordination Sequence:
#
# PCOD8301899 Si02
#       6
#     4   4   4   4   4   4
#     4  11  22  43  66  97 137 171 242 288 340 422
#     4   9  22  41  67  94 133 184 232 280 342 415
#     4  10  21  44  63  95 140 174 231 287 341 410
#     4   9  24  40  65  98 131 169 236 284 341 408
#     4  12  26  40  62 101 146 186 224 285 359 415
#     4  11  21  44  71  95 135 188 233 280 351 418
#
# _framework density 23.725277999999999
#
# number of rings (size 3 to 8) (size 9 to 14) (size 15 to 20)
#    1.000    0.667    3.333    0.000    4.667    2.667 
#    3.000    0.000   14.667    0.000    0.000    0.000 
#    0.000    0.000    0.000    0.000    0.000    0.000 
#
# Total GULP energy -297372.201759 kJ/mol
# GULP energy per Si atom -12390.508407 kJ/mol
# Density = 2.367128 g / cm^3
# Si number density = 23.725278 Si / 1000 Ang^3
#
#
#
# Elastic Constant Matrix: (Units=GPa)
#
#
# Indices 1 2 3 4 5 6 
#
# 1 45.7502 16.6944 19.5373 0.0000 0.0000 -2.3146
# 2 16.6944 45.7502 19.5373 0.0000 0.0000 2.3146
# 3 19.5373 19.5373 86.8416 0.0000 0.0000 0.0000
# 4 0.0000 0.0000 0.0000 44.2360 0.0000 0.0000
# 5 0.0000 0.0000 0.0000 0.0000 44.2360 0.0000
# 6 -2.3146 2.3146 0.0000 0.0000 0.0000 20.7725
#
#
#
# Elastic Compliance Matrix: (Units=1/GPa)
#
#
# Indices 1 2 3 4 5 6 
#
# 1 0.026838 -0.008200 -0.004193 0.000000 0.000000 0.003904
# 2 -0.008200 0.026838 -0.004193 0.000000 0.000000 -0.003904
# 3 -0.004193 -0.004193 0.013402 0.000000 0.000000 0.000000
# 4 0.000000 0.000000 0.000000 0.022606 0.000000 0.000000
# 5 0.000000 0.000000 0.000000 0.000000 0.022606 0.000000
# 6 0.003904 -0.003904 0.000000 0.000000 0.000000 0.049011
#
#
# Mechanical properties :
#
#
# Convention : Reuss Voigt Hill
#
# Bulk Modulus (GPa) = 29.49374 32.20891 30.85133
# Shear Modulus (GPa) = 24.29821 30.02041 27.15931
#
# Velocity S-wave (km/s) = 3.20370 3.56101 3.38707
# Velocity P-wave (km/s) = 5.11305 5.52386 5.32242
#
# Compressibility (1/GPa) = 0.03390550
#
# Stress axis : x y z
#
# Youngs Moduli (GPa) = 37.26011 37.26011 74.61608
#
# Poissons Ratio (x) = 0.30554 0.31287
# Poissons Ratio (y) = 0.30554 0.31287
# Poissons Ratio (z) = 0.15624 0.15624
#
# Static dielectric constant tensor:
#      x y z
#    x 4.124280 0.000000 0.000000 
#    y 0.000000 4.124280 0.000000 
#    z 0.000000 0.000000 4.408670 
# 
# 
# High freq. dielectric constant tensor:
#      x y z
#    x 1.918430 0.000000 0.000000 
#    y 0.000000 1.918430 0.000000 
#    z 0.000000 0.000000 1.944720 
# 
# From -- ./inp_files/535.got.cif
#   From: 2010.03.12/outbox.cif.g09.slc.cpg/sg76_cif.got.tgz:535.got - 2010.04.16 16:34:25.
