data_PCOD8301209
_publ_section_title
;
Structure prediction by ZEFSAII (Michael W. Deem and Ramdas Pophale) SiO2 
 PCOD8301209
Probable space group: I M M A
;
_chemical_formula_sum "Si O2"
_cell_formula_units_Z 112
_cell_length_a 13.221481
_cell_length_b 25.464769
_cell_length_c 16.320636
_cell_angle_alpha 90.000000
_cell_angle_beta 90.000000
_cell_angle_gamma 90.000000
_cell_volume 5494.863709
_symmetry_space_group_name_H-M "I M M A"
_symmetry_group_IT_number 74
_symmetry_cell_setting 'orthorhombic'
loop_
_space_group_symop_operation_xyz
x,y,z
-x,1/2-y,z
x,-y,-z
-x,1/2+y,-z
-x,-y,-z
x,1/2+y,-z
-x,y,z
x,1/2-y,z
1/2+x,1/2+y,1/2+z
1/2-x,-y,1/2+z
1/2+x,1/2-y,1/2-z
1/2-x,y,1/2-z
1/2-x,1/2-y,1/2-z
1/2+x,y,1/2-z
1/2-x,1/2+y,1/2+z
1/2+x,-y,1/2+z
loop_
_atom_site_type_symbol
_atom_site_label
_atom_site_fract_x
_atom_site_fract_y
_atom_site_fract_z
Si Si1 0.807064 0.690411 0.098086
Si Si2 0.777191 0.593417 0.843636
Si Si3 0.885052 0.631241 0.373906
Si Si4 0.381511 0.189943 0.416326
Si Si5 0.383071 0.597129 0.300047
Si Si6 0.114682 0.056656 0.472019
Si Si7 0.382385 0.503257 0.408588
O O1 0.830847 0.750000 0.122928
O O2 0.686686 0.680603 0.106073
O O3 0.869973 0.653411 0.157949
O O4 0.844737 0.677876 0.007420
O O5 0.750000 0.587001 0.750000
O O6 0.819161 0.652080 0.856558
O O7 0.679601 0.581264 0.898891
O O8 0.864924 0.551892 0.863932
O O9 0.839831 0.601353 0.293097
O O10 0.879156 0.592329 0.448830
O O11 0.000000 0.651270 0.359056
O O12 0.500000 0.177832 0.409485
O O13 0.357832 0.250000 0.391352
O O14 0.500000 0.583172 0.290582
O O15 0.332151 0.550941 0.355457
O O16 0.000000 0.052448 0.438945
O O17 0.155557 0.000000 0.500000
O O18 0.334286 0.500000 0.500000
O O19 0.500000 0.514902 0.417126
#
# Coordination Sequence:
#
# PCOD8301209 Si02
#       7
#    16  16  16  16  16  16  16
#     4  11  22  38  62  89 119 158 207 255 302 363
#     4  12  25  38  65  97 124 156 201 257 305 365
#     4  10  22  40  60  83 120 166 206 250 299 359
#     4  10  22  43  68  91 121 159 198 249 313 374
#     4  10  22  37  58  90 126 162 203 248 303 366
#     4  10  23  42  62  85 123 171 209 242 294 362
#     4  10  22  40  62  90 127 163 198 249 308 363
#
# _framework density 20.382670999999998
#
# number of rings (size 3 to 8) (size 9 to 14) (size 15 to 20)
#    0.000    1.571    1.429    2.571    4.000    4.857 
#    0.000    1.429    0.000    0.429    0.000    0.000 
#    0.000    0.000    0.000    0.000    0.000    0.000 
#
# Total GULP energy -694443.032716 kJ/mol
# GULP energy per Si atom -12400.768441 kJ/mol
# Density = 2.033628 g / cm^3
# Si number density = 20.382671 Si / 1000 Ang^3
#
#
#
# Elastic Constant Matrix: (Units=GPa)
#
#
# Indices 1 2 3 4 5 6 
#
# 1 60.6823 21.5405 28.1008 -0.0001 0.0000 0.0000
# 2 21.5405 104.4093 53.6938 -0.0001 0.0002 0.0000
# 3 28.1008 53.6938 134.8103 -0.0003 0.0002 0.0000
# 4 -0.0001 -0.0001 -0.0003 21.3322 0.0003 0.0000
# 5 0.0000 0.0002 0.0002 0.0003 2.7752 0.0000
# 6 0.0000 0.0000 0.0000 0.0000 0.0000 35.8061
#
#
#
# Elastic Compliance Matrix: (Units=1/GPa)
#
#
# Indices 1 2 3 4 5 6 
#
# 1 0.018679 -0.002328 -0.002966 0.000000 0.000000 0.000000
# 2 -0.002328 0.012335 -0.004428 0.000000 0.000000 0.000000
# 3 -0.002966 -0.004428 0.009800 0.000000 0.000000 0.000000
# 4 0.000000 0.000000 0.000000 0.046878 -0.000004 0.000000
# 5 0.000000 0.000000 0.000000 -0.000004 0.360339 0.000000
# 6 0.000000 0.000000 0.000000 0.000000 0.000000 0.027928
#
#
# Mechanical properties :
#
#
# Convention : Reuss Voigt Hill
#
# Bulk Modulus (GPa) = 46.79538 56.28579 51.54058
# Shear Modulus (GPa) = 9.94972 25.08713 17.51843
#
# Velocity S-wave (km/s) = 2.21180 3.51209 2.93486
# Velocity P-wave (km/s) = 5.43424 6.64235 6.06844
#
# Compressibility (1/GPa) = 0.02136963
#
# Stress axis : x y z
#
# Youngs Moduli (GPa) = 53.53496 81.07027 102.04466
#
# Poissons Ratio (x) = 0.18875 0.30270
# Poissons Ratio (y) = 0.12464 0.45181
# Poissons Ratio (z) = 0.15880 0.35895
#
# Static dielectric constant tensor:
#      x y z
#    x 3.911430 0.000000 0.000000 
#    y 0.000000 3.690520 0.000000 
#    z 0.000000 0.000000 3.768180 
# 
# 
# High freq. dielectric constant tensor:
#      x y z
#    x 1.810590 0.000000 0.000000 
#    y 0.000000 1.792380 0.000000 
#    z 0.000000 0.000000 1.796930 
# 
# From -- ./inp_files/32710.got.cif
#   From: 2010.03.12/outbox.cif.g09.slc.cpg/sg74_17_cif.got.tgz:32710.got - 2010.04.16 15:46:19.
