data_PCOD8301020
_publ_section_title
;
Structure prediction by ZEFSAII (Michael W. Deem and Ramdas Pophale) SiO2 
 PCOD8301020
Probable space group: I M M A
;
_chemical_formula_sum "Si O2"
_cell_formula_units_Z 96
_cell_length_a 19.788609
_cell_length_b 8.947582
_cell_length_c 27.799188
_cell_angle_alpha 90.000000
_cell_angle_beta 90.000000
_cell_angle_gamma 90.000000
_cell_volume 4922.129834
_symmetry_space_group_name_H-M "I M M A"
_symmetry_group_IT_number 74
_symmetry_cell_setting 'orthorhombic'
loop_
_space_group_symop_operation_xyz
x,y,z
-x,1/2-y,z
x,-y,-z
-x,1/2+y,-z
-x,-y,-z
x,1/2+y,-z
-x,y,z
x,1/2-y,z
1/2+x,1/2+y,1/2+z
1/2-x,-y,1/2+z
1/2+x,1/2-y,1/2-z
1/2-x,y,1/2-z
1/2-x,1/2-y,1/2-z
1/2+x,y,1/2-z
1/2-x,1/2+y,1/2+z
1/2+x,-y,1/2+z
loop_
_atom_site_type_symbol
_atom_site_label
_atom_site_fract_x
_atom_site_fract_y
_atom_site_fract_z
Si Si1 0.923761 0.424916 0.548798
Si Si2 0.579137 0.423063 0.382670
Si Si3 0.921642 0.424317 0.783853
Si Si4 0.817715 0.424177 0.949519
Si Si5 0.807803 0.923023 0.380507
Si Si6 0.184734 0.575334 0.719374
O O1 0.897614 0.500000 0.500000
O O2 0.919001 0.250000 0.539874
O O3 0.876272 0.472888 0.592684
O O4 0.000000 0.476342 0.561260
O O5 0.500000 0.447598 0.390646
O O6 0.599247 0.250000 0.381578
O O7 0.602787 0.494539 0.332359
O O8 0.615535 0.503690 0.426751
O O9 0.907186 0.250000 0.790436
O O10 0.880077 0.486669 0.738893
O O11 0.000000 0.456946 0.773231
O O12 0.831024 0.250000 0.957711
O O13 0.754852 0.454332 0.915006
O O14 0.801334 0.500000 0.000000
O O15 0.810843 0.750000 0.364707
O O16 0.800002 0.027639 0.334735
O O17 0.168850 0.750000 0.721928
O O18 0.250000 0.531272 0.750000
#
# Coordination Sequence:
#
# PCOD8301020 Si02
#       6
#    16  16  16  16  16  16
#     4   9  18  34  56  81 110 143 179 220 267 320
#     4  10  21  38  60  85 114 147 184 229 280 336
#     4  10  21  38  61  87 115 149 188 231 281 337
#     4  11  23  38  58  83 113 149 189 235 284 336
#     4  10  22  38  56  81 112 147 187 231 279 330
#     4  11  24  39  57  83 114 149 189 234 282 333
#
# _framework density 19.503753
#
# number of rings (size 3 to 8) (size 9 to 14) (size 15 to 20)
#    0.000    1.833    0.000    3.500    0.000    9.000 
#    0.000    1.667    0.000    0.000    0.000    0.000 
#    0.000    0.000    0.000    0.000    0.000    0.000 
#
# Total GULP energy -595510.624765 kJ/mol
# GULP energy per Si atom -12406.471349 kJ/mol
# Density = 1.945936 g / cm^3
# Si number density = 19.503753 Si / 1000 Ang^3
#
#
#
# Elastic Constant Matrix: (Units=GPa)
#
#
# Indices 1 2 3 4 5 6 
#
# 1 85.6061 54.9175 57.2868 0.0000 0.0000 0.0000
# 2 54.9175 101.2406 62.3104 0.0000 0.0000 0.0000
# 3 57.2868 62.3104 131.8698 0.0000 0.0000 0.0000
# 4 0.0000 0.0000 0.0000 41.3936 0.0000 0.0000
# 5 0.0000 0.0000 0.0000 0.0000 24.8672 0.0000
# 6 0.0000 0.0000 0.0000 0.0000 0.0000 21.6892
#
#
#
# Elastic Compliance Matrix: (Units=1/GPa)
#
#
# Indices 1 2 3 4 5 6 
#
# 1 0.020033 -0.007770 -0.005031 0.000000 0.000000 0.000000
# 2 -0.007770 0.016942 -0.004630 0.000000 0.000000 0.000000
# 3 -0.005031 -0.004630 0.011956 0.000000 0.000000 0.000000
# 4 0.000000 0.000000 0.000000 0.024158 0.000000 0.000000
# 5 0.000000 0.000000 0.000000 0.000000 0.040214 0.000000
# 6 0.000000 0.000000 0.000000 0.000000 0.000000 0.046106
#
#
# Mechanical properties :
#
#
# Convention : Reuss Voigt Hill
#
# Bulk Modulus (GPa) = 71.07815 74.19398 72.63606
# Shear Modulus (GPa) = 25.13056 27.20346 26.16701
#
# Velocity S-wave (km/s) = 3.59346 3.73873 3.66681
# Velocity P-wave (km/s) = 7.33074 7.53398 7.43306
#
# Compressibility (1/GPa) = 0.01406902
#
# Stress axis : x y z
#
# Youngs Moduli (GPa) = 49.91775 59.02536 83.63688
#
# Poissons Ratio (x) = 0.45865 0.42079
# Poissons Ratio (y) = 0.38788 0.38721
# Poissons Ratio (z) = 0.25114 0.27327
#
# Static dielectric constant tensor:
#      x y z
#    x 3.708300 0.000000 0.000000 
#    y 0.000000 3.604860 0.000000 
#    z 0.000000 0.000000 3.516170 
# 
# 
# High freq. dielectric constant tensor:
#      x y z
#    x 1.769620 0.000000 0.000000 
#    y 0.000000 1.766840 0.000000 
#    z 0.000000 0.000000 1.761230 
# 
# From -- ./inp_files/68115.got.cif
#   From: 2010.03.12/outbox.cif.g09.slc.cpg/sg74_35_cif.got.tgz:68115.got - 2010.04.16 15:46:19.
