data_PCOD8301991
_publ_section_title
;
Structure prediction by ZEFSAII (Michael W. Deem and Ramdas Pophale) SiO2 
 PCOD8301991
Probable space group: P 42
;
_chemical_formula_sum "Si O2"
_cell_formula_units_Z 26
_cell_length_a 11.678250
_cell_length_b 11.678250
_cell_length_c 9.621000
_cell_angle_alpha 90.000000
_cell_angle_beta 90.000000
_cell_angle_gamma 90.000000
_cell_volume 1312.126633
_symmetry_space_group_name_H-M "P 42"
_symmetry_group_IT_number 77
_symmetry_cell_setting 'tetragonal'
loop_
_space_group_symop_operation_xyz
x,y,z
-y,x,1/2+z
-x,-y,z
y,-x,1/2+z
loop_
_atom_site_type_symbol
_atom_site_label
_atom_site_fract_x
_atom_site_fract_y
_atom_site_fract_z
Si Si1 0.253245 0.527070 0.992320
Si Si2 0.376622 0.941740 0.506940
Si Si3 0.106394 0.291190 0.298248
Si Si4 0.615350 0.928659 0.000079
Si Si5 0.517390 0.750981 0.799775
Si Si6 0.500000 0.500000 0.898629
Si Si7 0.876866 0.298827 0.805037
O O1 0.388809 0.510571 0.994624
O O2 0.215296 0.618037 0.877291
O O3 0.189749 0.404691 0.962956
O O4 0.217144 0.567512 0.147651
O O5 0.302232 0.950879 0.646543
O O6 0.500000 0.000000 0.531413
O O7 0.306090 0.001815 0.383719
O O8 0.200851 0.389716 0.317588
O O9 0.169315 0.169219 0.312662
O O10 0.007868 0.296513 0.414600
O O11 0.667607 0.893383 0.146003
O O12 0.500000 0.000000 0.023537
O O13 0.595579 0.810729 0.916224
O O14 0.514852 0.613740 0.807343
#
# Coordination Sequence:
#
# PCOD8301991 Si02
#       7
#     4   4   4   4   4   2   4
#     4  10  21  37  56  88 131 171 194 239 306 373
#     4   9  19  38  63  84 122 169 203 244 309 378
#     4  10  20  40  61  87 117 159 213 253 308 359
#     4  10  21  38  62  89 121 165 210 250 302 376
#     4  10  22  37  58  89 133 171 194 240 307 379
#     4  12  22  34  58 102 140 158 192 238 308 378
#     4  11  21  39  63  91 114 156 221 258 297 364
#
# _framework density 19.815159000000001
#
# number of rings (size 3 to 8) (size 9 to 14) (size 15 to 20)
#    0.000    1.846    1.538    5.077    4.308    1.231 
#    2.769    1.538    0.000    2.769    0.000    0.000 
#    0.000    0.000    0.000    0.000    0.000    0.000 
#
# Total GULP energy -322318.197149 kJ/mol
# GULP energy per Si atom -12396.853737 kJ/mol
# Density = 1.977006 g / cm^3
# Si number density = 19.815159 Si / 1000 Ang^3
#
#
#
# Elastic Constant Matrix: (Units=GPa)
#
#
# Indices 1 2 3 4 5 6 
#
# 1 109.8395 33.8822 61.0331 0.0000 0.0000 6.3137
# 2 33.8822 109.8395 61.0331 0.0000 0.0000 -6.3137
# 3 61.0331 61.0331 162.2672 0.0000 0.0000 0.0000
# 4 0.0000 0.0000 0.0000 15.5789 0.0000 0.0000
# 5 0.0000 0.0000 0.0000 0.0000 15.5789 0.0000
# 6 6.3137 -6.3137 0.0000 0.0000 0.0000 29.1585
#
#
#
# Elastic Compliance Matrix: (Units=1/GPa)
#
#
# Indices 1 2 3 4 5 6 
#
# 1 0.011940 -0.001716 -0.003846 0.000000 0.000000 -0.002957
# 2 -0.001716 0.011940 -0.003846 0.000000 0.000000 0.002957
# 3 -0.003846 -0.003846 0.009055 0.000000 0.000000 0.000000
# 4 0.000000 0.000000 0.000000 0.064190 0.000000 0.000000
# 5 0.000000 0.000000 0.000000 0.000000 0.064190 0.000000
# 6 -0.002957 0.002957 0.000000 0.000000 0.000000 0.035576
#
#
# Mechanical properties :
#
#
# Convention : Reuss Voigt Hill
#
# Bulk Modulus (GPa) = 70.81465 77.09366 73.95415
# Shear Modulus (GPa) = 22.68465 27.12978 24.90722
#
# Velocity S-wave (km/s) = 3.38718 3.70421 3.54923
# Velocity P-wave (km/s) = 7.14930 7.56873 7.36201
#
# Compressibility (1/GPa) = 0.01412137
#
# Stress axis : x y z
#
# Youngs Moduli (GPa) = 83.74905 83.74905 110.43039
#
# Poissons Ratio (x) = 0.14375 0.42466
# Poissons Ratio (y) = 0.14375 0.42466
# Poissons Ratio (z) = 0.32206 0.32206
#
# Static dielectric constant tensor:
#      x y z
#    x 3.605840 0.000000 0.000000 
#    y 0.000000 3.605840 0.000000 
#    z 0.000000 0.000000 3.566160 
# 
# 
# High freq. dielectric constant tensor:
#      x y z
#    x 1.756600 0.000000 0.000000 
#    y 0.000000 1.756600 0.000000 
#    z 0.000000 0.000000 1.780420 
# 
# From -- ./inp_files/459.got.cif
#   From: 2010.03.12/outbox.cif.g09.slc.cpg/sg77_cif.got.tgz:459.got - 2010.04.16 16:36:19.
