data_PCOD8301580
_publ_section_title
;
Structure prediction by ZEFSAII (Michael W. Deem and Ramdas Pophale) SiO2 
 PCOD8301580
Probable space group: I M M A
;
_chemical_formula_sum "Si O2"
_cell_formula_units_Z 72
_cell_length_a 8.616891
_cell_length_b 22.570024
_cell_length_c 19.044374
_cell_angle_alpha 90.000000
_cell_angle_beta 90.000000
_cell_angle_gamma 90.000000
_cell_volume 3703.815305
_symmetry_space_group_name_H-M "I M M A"
_symmetry_group_IT_number 74
_symmetry_cell_setting 'orthorhombic'
loop_
_space_group_symop_operation_xyz
x,y,z
-x,1/2-y,z
x,-y,-z
-x,1/2+y,-z
-x,-y,-z
x,1/2+y,-z
-x,y,z
x,1/2-y,z
1/2+x,1/2+y,1/2+z
1/2-x,-y,1/2+z
1/2+x,1/2-y,1/2-z
1/2-x,y,1/2-z
1/2-x,1/2-y,1/2-z
1/2+x,y,1/2-z
1/2-x,1/2+y,1/2+z
1/2+x,-y,1/2+z
loop_
_atom_site_type_symbol
_atom_site_label
_atom_site_fract_x
_atom_site_fract_y
_atom_site_fract_z
Si Si1 0.679255 0.681053 0.932777
Si Si2 0.316354 0.015984 0.575948
Si Si3 0.684646 0.590551 0.672588
Si Si4 0.681794 0.648598 0.420124
Si Si5 0.818908 0.750000 0.326764
O O1 0.500000 0.665485 0.946937
O O2 0.701915 0.750000 0.917493
O O3 0.742393 0.647423 0.864839
O O4 0.779737 0.662056 0.999452
O O5 0.500000 0.013400 0.569605
O O6 0.264651 0.081862 0.598557
O O7 0.243390 0.000000 0.500000
O O8 0.257761 0.968836 0.633020
O O9 0.500000 0.596253 0.673020
O O10 0.750000 0.587058 0.750000
O O11 0.500000 0.658004 0.408708
O O12 0.771225 0.691537 0.368226
O O13 0.750000 0.750000 0.250000
O O14 0.000000 0.750000 0.318810
#
# Coordination Sequence:
#
# PCOD8301580 Si02
#       5
#    16  16  16  16   8
#     4  11  23  39  61  91 125 160 206 256 301 362
#     4   9  18  36  62  92 121 157 203 251 298 364
#     4  11  23  41  63  89 125 161 202 254 313 369
#     4  11  21  38  66  94 123 162 206 250 307 366
#     4  12  26  44  62  90 129 164 207 258 310 364
#
# _framework density 19.439412999999998
#
# number of rings (size 3 to 8) (size 9 to 14) (size 15 to 20)
#    0.000    1.333    3.333    3.000    0.000    2.667 
#    0.000    7.778    0.000    0.000    0.000    0.000 
#    0.000    0.000    0.000    0.000    0.000    0.000 
#
# Total GULP energy -446527.633796 kJ/mol
# GULP energy per Si atom -12403.545383 kJ/mol
# Density = 1.939517 g / cm^3
# Si number density = 19.439413 Si / 1000 Ang^3
#
#
#
# Elastic Constant Matrix: (Units=GPa)
#
#
# Indices 1 2 3 4 5 6 
#
# 1 81.3951 47.7543 23.8823 0.0000 0.0000 0.0000
# 2 47.7543 144.0807 61.3525 0.0000 0.0000 0.0000
# 3 23.8823 61.3525 134.4570 0.0000 0.0000 0.0000
# 4 0.0000 0.0000 0.0000 36.2433 0.0000 0.0000
# 5 0.0000 0.0000 0.0000 0.0000 36.1702 0.0000
# 6 0.0000 0.0000 0.0000 0.0000 0.0000 4.6893
#
#
#
# Elastic Compliance Matrix: (Units=1/GPa)
#
#
# Indices 1 2 3 4 5 6 
#
# 1 0.015279 -0.004851 -0.000500 0.000000 0.000000 0.000000
# 2 -0.004851 0.010154 -0.003772 0.000000 0.000000 0.000000
# 3 -0.000500 -0.003772 0.009247 0.000000 0.000000 0.000000
# 4 0.000000 0.000000 0.000000 0.027591 0.000000 0.000000
# 5 0.000000 0.000000 0.000000 0.000000 0.027647 0.000000
# 6 0.000000 0.000000 0.000000 0.000000 0.000000 0.213250
#
#
# Mechanical properties :
#
#
# Convention : Reuss Voigt Hill
#
# Bulk Modulus (GPa) = 60.84884 69.54567 65.19726
# Shear Modulus (GPa) = 15.29555 30.55015 22.92285
#
# Velocity S-wave (km/s) = 2.80810 3.96859 3.43767
# Velocity P-wave (km/s) = 6.47175 7.54008 7.02625
#
# Compressibility (1/GPa) = 0.01643417
#
# Stress axis : x y z
#
# Youngs Moduli (GPa) = 65.45116 98.47883 108.13996
#
# Poissons Ratio (x) = 0.47771 0.05411
# Poissons Ratio (y) = 0.31750 0.40789
# Poissons Ratio (z) = 0.03275 0.37145
#
# Static dielectric constant tensor:
#      x y z
#    x 3.385380 0.000000 0.000000 
#    y 0.000000 3.842310 0.000000 
#    z 0.000000 0.000000 3.523870 
# 
# 
# High freq. dielectric constant tensor:
#      x y z
#    x 1.751940 0.000000 0.000000 
#    y 0.000000 1.776440 0.000000 
#    z 0.000000 0.000000 1.757330 
# 
# From -- ./inp_files/39458.got.cif
#   From: 2010.03.12/outbox.cif.g09.slc.cpg/sg74_20_cif.got.tgz:39458.got - 2010.04.16 15:46:19.
