data_PCOD8301957
_publ_section_title
;
Structure prediction by ZEFSAII (Michael W. Deem and Ramdas Pophale) SiO2 
 PCOD8301957
Probable space group: P 41
;
_chemical_formula_sum "Si O2"
_cell_formula_units_Z 28
_cell_length_a 9.081124
_cell_length_b 9.081124
_cell_length_c 14.528464
_cell_angle_alpha 90.000000
_cell_angle_beta 90.000000
_cell_angle_gamma 90.000000
_cell_volume 1198.116125
_symmetry_space_group_name_H-M "P 41"
_symmetry_group_IT_number 76
_symmetry_cell_setting 'tetragonal'
loop_
_space_group_symop_operation_xyz
x,y,z
-y,x,1/4+z
-x,-y,1/2+z
y,-x,3/4+z
loop_
_atom_site_type_symbol
_atom_site_label
_atom_site_fract_x
_atom_site_fract_y
_atom_site_fract_z
Si Si1 0.511700 0.787895 0.741980
Si Si2 0.725632 0.225632 0.760851
Si Si3 0.939121 0.208686 0.229674
Si Si4 0.439121 0.291314 0.042028
Si Si5 0.783124 0.898225 0.830638
Si Si6 0.283124 0.601775 0.441064
Si Si7 0.712105 0.988300 0.279722
O O1 0.480389 0.738327 0.637829
O O2 0.421856 0.678142 0.808367
O O3 0.682827 0.792095 0.766996
O O4 0.451904 0.951904 0.760851
O O5 0.858665 0.242735 0.687723
O O6 0.569295 0.245785 0.708769
O O7 0.742735 0.358665 0.833979
O O8 0.745785 0.069295 0.812933
O O9 0.858812 0.358812 0.260851
O O10 0.821858 0.078144 0.213336
O O11 0.051345 0.149618 0.306526
O O12 0.019611 0.238327 0.133874
O O13 0.551345 0.350382 0.965176
O O14 0.182827 0.707905 0.504706
#
# Coordination Sequence:
#
# PCOD8301957 Si02
#       7
#     4   4   4   4   4   4   4
#     4  11  24  46  74 105 148 199 249 309 380 457
#     4  12  30  50  76 112 162 202 264 324 392 470
#     4  11  25  46  75 109 148 200 252 308 381 461
#     4  11  25  46  75 109 148 200 252 308 381 461
#     4  12  27  50  74 115 154 200 263 321 391 460
#     4  12  27  50  74 115 154 200 263 321 391 460
#     4  11  24  46  74 105 148 199 249 309 380 457
#
# _framework density 23.370021999999999
#
# number of rings (size 3 to 8) (size 9 to 14) (size 15 to 20)
#    0.000    0.571    1.429    6.857    8.000    2.286 
#    0.000    0.000    0.000    0.000    0.000    0.000 
#    0.000    0.000    0.000    0.000    0.000    0.000 
#
# Total GULP energy -347273.143209 kJ/mol
# GULP energy per Si atom -12402.612257 kJ/mol
# Density = 2.331683 g / cm^3
# Si number density = 23.370022 Si / 1000 Ang^3
#
#
#
# Elastic Constant Matrix: (Units=GPa)
#
#
# Indices 1 2 3 4 5 6 
#
# 1 115.1976 58.8377 40.3896 0.0000 0.0000 0.0000
# 2 58.8377 115.1976 40.3896 0.0000 0.0000 0.0000
# 3 40.3896 40.3896 121.2124 0.0000 0.0000 0.0000
# 4 0.0000 0.0000 0.0000 40.0057 0.0000 0.0000
# 5 0.0000 0.0000 0.0000 0.0000 40.0057 0.0000
# 6 0.0000 0.0000 0.0000 0.0000 0.0000 40.7766
#
#
#
# Elastic Compliance Matrix: (Units=1/GPa)
#
#
# Indices 1 2 3 4 5 6 
#
# 1 0.012270 -0.005473 -0.002265 0.000000 0.000000 0.000000
# 2 -0.005473 0.012270 -0.002265 0.000000 0.000000 0.000000
# 3 -0.002265 -0.002265 0.009759 0.000000 0.000000 0.000000
# 4 0.000000 0.000000 0.000000 0.024996 0.000000 0.000000
# 5 0.000000 0.000000 0.000000 0.000000 0.024996 0.000000
# 6 0.000000 0.000000 0.000000 0.000000 0.000000 0.024524
#
#
# Mechanical properties :
#
#
# Convention : Reuss Voigt Hill
#
# Bulk Modulus (GPa) = 69.95870 70.09347 70.02609
# Shear Modulus (GPa) = 37.42884 38.29029 37.85957
#
# Velocity S-wave (km/s) = 4.00631 4.05215 4.02930
# Velocity P-wave (km/s) = 7.16944 7.20772 7.18861
#
# Compressibility (1/GPa) = 0.01429415
#
# Stress axis : x y z
#
# Youngs Moduli (GPa) = 81.49847 81.49847 102.46538
#
# Poissons Ratio (x) = 0.44604 0.23208
# Poissons Ratio (y) = 0.44604 0.23208
# Poissons Ratio (z) = 0.18459 0.18459
#
# Static dielectric constant tensor:
#      x y z
#    x 4.253350 0.000000 0.000000 
#    y 0.000000 4.253350 0.000000 
#    z 0.000000 0.000000 4.014250 
# 
# 
# High freq. dielectric constant tensor:
#      x y z
#    x 1.933230 0.000000 0.000000 
#    y 0.000000 1.933230 0.000000 
#    z 0.000000 0.000000 1.920440 
# 
# From -- ./inp_files/1105.got.cif
#   From: 2010.03.12/outbox.cif.g09.slc.cpg/sg76_cif.got.tgz:1105.got - 2010.04.16 16:34:25.
