data_PCOD8301426
_publ_section_title
;
Structure prediction by ZEFSAII (Michael W. Deem and Ramdas Pophale) SiO2 
 PCOD8301426
Probable space group: I M M A
;
_chemical_formula_sum "Si O2"
_cell_formula_units_Z 72
_cell_length_a 8.789930
_cell_length_b 26.696286
_cell_length_c 14.609414
_cell_angle_alpha 90.000000
_cell_angle_beta 90.000000
_cell_angle_gamma 90.000000
_cell_volume 3428.222959
_symmetry_space_group_name_H-M "I M M A"
_symmetry_group_IT_number 74
_symmetry_cell_setting 'orthorhombic'
loop_
_space_group_symop_operation_xyz
x,y,z
-x,1/2-y,z
x,-y,-z
-x,1/2+y,-z
-x,-y,-z
x,1/2+y,-z
-x,y,z
x,1/2-y,z
1/2+x,1/2+y,1/2+z
1/2-x,-y,1/2+z
1/2+x,1/2-y,1/2-z
1/2-x,y,1/2-z
1/2-x,1/2-y,1/2-z
1/2+x,y,1/2-z
1/2-x,1/2+y,1/2+z
1/2+x,-y,1/2+z
loop_
_atom_site_type_symbol
_atom_site_label
_atom_site_fract_x
_atom_site_fract_y
_atom_site_fract_z
Si Si1 0.673554 0.980709 0.406434
Si Si2 0.820137 0.342708 0.474899
Si Si3 0.180922 0.626239 0.154485
Si Si4 0.320727 0.750000 0.850522
Si Si5 0.173258 0.586535 0.840581
O O1 0.500000 0.966533 0.431047
O O2 0.746174 0.930214 0.364639
O O3 0.754237 0.000000 0.500000
O O4 0.683304 0.026242 0.334548
O O5 0.741530 0.337319 0.574161
O O6 0.766432 0.298051 0.408435
O O7 0.762073 0.394375 0.429935
O O8 0.000000 0.343462 0.488120
O O9 0.250000 0.645252 0.250000
O O10 0.000000 0.628693 0.160183
O O11 0.500000 0.750000 0.838072
O O12 0.250000 0.750000 0.750000
O O13 0.250000 0.609489 0.750000
O O14 0.000000 0.605236 0.845343
#
# Coordination Sequence:
#
# PCOD8301426 Si02
#       5
#    16  16  16   8  16
#     4   9  17  33  55  81 117 159 200 241 288 342
#     4  11  23  41  62  88 118 152 196 246 299 357
#     4  11  22  39  62  88 121 162 203 246 294 347
#     4  10  24  44  67  92 121 152 189 240 300 362
#     4  11  21  35  56  84 119 157 196 241 291 348
#
# _framework density 21.002134999999999
#
# number of rings (size 3 to 8) (size 9 to 14) (size 15 to 20)
#    0.000    1.556    2.222    3.333    0.000    3.556 
#    0.000    5.000    0.000    0.000    0.000    0.000 
#    0.000    0.000    0.000    0.000    0.000    0.000 
#
# Total GULP energy -446393.623396 kJ/mol
# GULP energy per Si atom -12399.822872 kJ/mol
# Density = 2.095433 g / cm^3
# Si number density = 21.002135 Si / 1000 Ang^3
#
#
#
# Elastic Constant Matrix: (Units=GPa)
#
#
# Indices 1 2 3 4 5 6 
#
# 1 88.1383 31.5184 59.6626 0.0001 0.0000 0.0000
# 2 31.5184 77.4941 40.2732 0.0003 0.0000 0.0000
# 3 59.6626 40.2732 183.1842 0.0016 -0.0002 0.0000
# 4 0.0001 0.0003 0.0016 30.0021 -0.0001 0.0000
# 5 0.0000 0.0000 -0.0002 -0.0001 38.2628 0.0001
# 6 0.0000 0.0000 0.0000 0.0000 0.0001 21.6745
#
#
#
# Elastic Compliance Matrix: (Units=1/GPa)
#
#
# Indices 1 2 3 4 5 6 
#
# 1 0.015681 -0.004204 -0.004183 0.000000 0.000000 0.000000
# 2 -0.004204 0.015696 -0.002082 0.000000 0.000000 0.000000
# 3 -0.004183 -0.002082 0.007279 0.000000 0.000000 0.000000
# 4 0.000000 0.000000 0.000000 0.033331 0.000000 0.000000
# 5 0.000000 0.000000 0.000000 0.000000 0.026135 0.000000
# 6 0.000000 0.000000 0.000000 0.000000 0.000000 0.046137
#
#
# Mechanical properties :
#
#
# Convention : Reuss Voigt Hill
#
# Bulk Modulus (GPa) = 56.43726 67.96947 62.20336
# Shear Modulus (GPa) = 29.22244 32.47869 30.85056
#
# Velocity S-wave (km/s) = 3.73420 3.93676 3.83681
# Velocity P-wave (km/s) = 6.74706 7.28680 7.02212
#
# Compressibility (1/GPa) = 0.01771879
#
# Stress axis : x y z
#
# Youngs Moduli (GPa) = 63.77312 63.71157 137.38171
#
# Poissons Ratio (x) = 0.26783 0.57466
# Poissons Ratio (y) = 0.26809 0.28597
# Poissons Ratio (z) = 0.26676 0.13262
#
# Static dielectric constant tensor:
#      x y z
#    x 3.527310 0.000000 0.000000 
#    y 0.000000 3.715510 0.000000 
#    z 0.000000 0.000000 3.840790 
# 
# 
# High freq. dielectric constant tensor:
#      x y z
#    x 1.803500 0.000000 0.000000 
#    y 0.000000 1.803380 0.000000 
#    z 0.000000 0.000000 1.835810 
# 
# From -- ./inp_files/29147.got.cif
#   From: 2010.03.12/outbox.cif.g09.slc.cpg/sg74_15_cif.got.tgz:29147.got - 2010.04.16 15:46:19.
