data_PCOD8301898
_publ_section_title
;
Structure prediction by ZEFSAII (Michael W. Deem and Ramdas Pophale) SiO2 
 PCOD8301898
Probable space group: P 41
;
_chemical_formula_sum "Si O2"
_cell_formula_units_Z 28
_cell_length_a 11.594215
_cell_length_b 11.594215
_cell_length_c 9.004319
_cell_angle_alpha 90.000000
_cell_angle_beta 90.000000
_cell_angle_gamma 90.000000
_cell_volume 1210.412978
_symmetry_space_group_name_H-M "P 41"
_symmetry_group_IT_number 76
_symmetry_cell_setting 'tetragonal'
loop_
_space_group_symop_operation_xyz
x,y,z
-y,x,1/4+z
-x,-y,1/2+z
y,-x,3/4+z
loop_
_atom_site_type_symbol
_atom_site_label
_atom_site_fract_x
_atom_site_fract_y
_atom_site_fract_z
Si Si1 0.533762 0.962046 0.057290
Si Si2 0.327796 0.179725 0.761619
Si Si3 0.409110 0.414104 0.681963
Si Si4 0.074515 0.270857 0.325144
Si Si5 0.554183 0.787938 0.561225
Si Si6 0.872438 0.961990 0.327300
Si Si7 0.704099 0.871476 0.805582
O O1 0.590644 0.927102 0.214270
O O2 0.407150 0.902595 0.049979
O O3 0.526183 0.099506 0.054610
O O4 0.622909 0.922226 0.932092
O O5 0.359646 0.286126 0.653433
O O6 0.192391 0.148092 0.754500
O O7 0.353268 0.211883 0.930260
O O8 0.531229 0.414390 0.768042
O O9 0.324174 0.476143 0.798116
O O10 0.188914 0.200282 0.374476
O O11 0.036157 0.222617 0.165146
O O12 0.975402 0.250972 0.449122
O O13 0.626599 0.781948 0.712381
O O14 0.972068 0.926338 0.439226
#
# Coordination Sequence:
#
# PCOD8301898 Si02
#       7
#     4   4   4   4   4   4   4
#     4  11  25  41  69 105 136 185 238 288 356 426
#     4  11  24  45  67 102 139 188 229 295 353 425
#     4  10  25  45  69 102 142 182 236 291 354 426
#     4  11  23  45  70 100 148 175 241 290 357 438
#     4  10  21  43  68  97 134 185 236 280 359 415
#     4  12  26  48  71 102 145 192 243 301 368 426
#     4  11  24  43  72 102 140 189 229 301 351 418
#
# _framework density 23.132601999999999
#
# number of rings (size 3 to 8) (size 9 to 14) (size 15 to 20)
#    0.000    1.143    4.286    1.714    2.000    9.143 
#    0.000    0.000    0.000    0.000    0.000    0.000 
#    0.000    0.000    0.000    0.000    0.000    0.000 
#
# Total GULP energy -347206.327002 kJ/mol
# GULP energy per Si atom -12400.225964 kJ/mol
# Density = 2.307995 g / cm^3
# Si number density = 23.132602 Si / 1000 Ang^3
#
#
#
# Elastic Constant Matrix: (Units=GPa)
#
#
# Indices 1 2 3 4 5 6 
#
# 1 111.5973 43.7944 30.9602 0.0000 0.0000 -9.0728
# 2 43.7944 111.5973 30.9602 0.0000 0.0000 9.0728
# 3 30.9602 30.9602 61.4072 0.0000 0.0000 0.0000
# 4 0.0000 0.0000 0.0000 33.2182 0.0000 0.0000
# 5 0.0000 0.0000 0.0000 0.0000 33.2182 0.0000
# 6 -9.0728 9.0728 0.0000 0.0000 0.0000 30.7636
#
#
#
# Elastic Compliance Matrix: (Units=1/GPa)
#
#
# Indices 1 2 3 4 5 6 
#
# 1 0.012033 -0.003980 -0.004060 0.000000 0.000000 0.004722
# 2 -0.003980 0.012033 -0.004060 0.000000 0.000000 -0.004722
# 3 -0.004060 -0.004060 0.020379 0.000000 0.000000 0.000000
# 4 0.000000 0.000000 0.000000 0.030104 0.000000 0.000000
# 5 0.000000 0.000000 0.000000 0.000000 0.030104 0.000000
# 6 0.004722 -0.004722 0.000000 0.000000 0.000000 0.035291
#
#
# Mechanical properties :
#
#
# Convention : Reuss Voigt Hill
#
# Bulk Modulus (GPa) = 49.39648 55.11462 52.25555
# Shear Modulus (GPa) = 29.25812 31.36578 30.31195
#
# Velocity S-wave (km/s) = 3.56026 3.68627 3.62381
# Velocity P-wave (km/s) = 6.18875 6.48038 6.33624
#
# Compressibility (1/GPa) = 0.02024436
#
# Stress axis : x y z
#
# Youngs Moduli (GPa) = 83.10558 83.10558 49.07013
#
# Poissons Ratio (x) = 0.33073 0.19924
# Poissons Ratio (y) = 0.33073 0.19924
# Poissons Ratio (z) = 0.33743 0.33743
#
# Static dielectric constant tensor:
#      x y z
#    x 4.365740 0.000000 0.000000 
#    y 0.000000 4.365740 0.000000 
#    z 0.000000 0.000000 4.063260 
# 
# 
# High freq. dielectric constant tensor:
#      x y z
#    x 1.917410 0.000000 0.000000 
#    y 0.000000 1.917410 0.000000 
#    z 0.000000 0.000000 1.912690 
# 
# From -- ./inp_files/592.got.cif
#   From: 2010.03.12/outbox.cif.g09.slc.cpg/sg76_cif.got.tgz:592.got - 2010.04.16 16:34:25.
