data_PCOD8301518
_publ_section_title
;
Structure prediction by ZEFSAII (Michael W. Deem and Ramdas Pophale) SiO2 
 PCOD8301518
Probable space group: I M M A
;
_chemical_formula_sum "Si O2"
_cell_formula_units_Z 72
_cell_length_a 10.079956
_cell_length_b 29.171558
_cell_length_c 13.007054
_cell_angle_alpha 90.000000
_cell_angle_beta 90.000000
_cell_angle_gamma 90.000000
_cell_volume 3824.698489
_symmetry_space_group_name_H-M "I M M A"
_symmetry_group_IT_number 74
_symmetry_cell_setting 'orthorhombic'
loop_
_space_group_symop_operation_xyz
x,y,z
-x,1/2-y,z
x,-y,-z
-x,1/2+y,-z
-x,-y,-z
x,1/2+y,-z
-x,y,z
x,1/2-y,z
1/2+x,1/2+y,1/2+z
1/2-x,-y,1/2+z
1/2+x,1/2-y,1/2-z
1/2-x,y,1/2-z
1/2-x,1/2-y,1/2-z
1/2+x,y,1/2-z
1/2-x,1/2+y,1/2+z
1/2+x,-y,1/2+z
loop_
_atom_site_type_symbol
_atom_site_label
_atom_site_fract_x
_atom_site_fract_y
_atom_site_fract_z
Si Si1 0.844202 0.250000 0.150978
Si Si2 0.650901 0.573915 0.534364
Si Si3 0.769546 0.328679 0.994453
Si Si4 0.000000 0.696453 0.387466
Si Si5 0.151551 0.487921 0.838374
Si Si6 0.500000 0.695120 0.345304
O O1 0.750000 0.250000 0.250000
O O2 0.000000 0.250000 0.182679
O O3 0.812420 0.294844 0.084911
O O4 0.500000 0.588168 0.555026
O O5 0.736953 0.620000 0.540074
O O6 0.697973 0.537660 0.620129
O O7 0.664667 0.550580 0.424148
O O8 0.625332 0.318331 0.952679
O O9 0.870498 0.325156 0.899571
O O10 0.000000 0.676299 0.271640
O O11 0.000000 0.750000 0.372845
O O12 0.250000 0.472265 0.750000
O O13 0.000000 0.490468 0.798752
O O14 0.500000 0.750000 0.354210
#
# Coordination Sequence:
#
# PCOD8301518 Si02
#       6
#     8  16  16   8  16   8
#     4  12  26  42  65  87 116 166 207 249 299 348
#     4   9  19  38  62  82 115 160 196 236 292 357
#     4  12  21  42  61  86 127 159 203 249 300 360
#     4  11  24  36  60  93 126 158 196 256 303 358
#     4   9  19  38  61  86 115 151 194 242 295 353
#     4  11  20  38  62  87 116 164 204 236 307 372
#
# _framework density 18.825013999999999
#
# number of rings (size 3 to 8) (size 9 to 14) (size 15 to 20)
#    0.000    1.556    4.444    2.000    1.556    4.444 
#    4.000    1.111    0.000    0.000    0.000    0.000 
#    0.000    0.000    0.000    0.000    0.000    0.000 
#
# Total GULP energy -446418.409809 kJ/mol
# GULP energy per Si atom -12400.511384 kJ/mol
# Density = 1.878217 g / cm^3
# Si number density = 18.825014 Si / 1000 Ang^3
#
#
#
# Elastic Constant Matrix: (Units=GPa)
#
#
# Indices 1 2 3 4 5 6 
#
# 1 126.4445 21.5979 49.8703 0.0001 -0.0001 0.0001
# 2 21.5979 102.4149 17.3479 0.0003 -0.0002 0.0001
# 3 49.8703 17.3479 80.0417 0.0010 -0.0006 0.0002
# 4 0.0001 0.0003 0.0010 9.8082 -0.0003 0.0001
# 5 -0.0001 -0.0002 -0.0006 -0.0003 21.1028 -0.0001
# 6 0.0001 0.0001 0.0002 0.0001 -0.0001 20.3764
#
#
#
# Elastic Compliance Matrix: (Units=1/GPa)
#
#
# Indices 1 2 3 4 5 6 
#
# 1 0.010617 -0.001161 -0.006363 0.000001 0.000000 0.000000
# 2 -0.001161 0.010263 -0.001501 0.000000 0.000000 0.000000
# 3 -0.006363 -0.001501 0.016783 -0.000002 0.000000 0.000000
# 4 0.000001 0.000000 -0.000002 0.101956 0.000001 -0.000001
# 5 0.000000 0.000000 0.000000 0.000001 0.047387 0.000000
# 6 0.000000 0.000000 0.000000 -0.000001 0.000000 0.049076
#
#
# Mechanical properties :
#
#
# Convention : Reuss Voigt Hill
#
# Bulk Modulus (GPa) = 50.98673 54.05924 52.52299
# Shear Modulus (GPa) = 19.18130 24.92981 22.05556
#
# Velocity S-wave (km/s) = 3.19553 3.64303 3.42659
# Velocity P-wave (km/s) = 6.38424 6.81723 6.60428
#
# Compressibility (1/GPa) = 0.01961294
#
# Stress axis : x y z
#
# Youngs Moduli (GPa) = 94.19271 97.43448 59.58298
#
# Poissons Ratio (x) = 0.11313 0.37913
# Poissons Ratio (y) = 0.10936 0.08944
# Poissons Ratio (z) = 0.59935 0.14625
#
# Static dielectric constant tensor:
#      x y z
#    x 3.525650 0.000000 0.000000 
#    y 0.000000 3.549530 0.000000 
#    z 0.000000 0.000000 3.470330 
# 
# 
# High freq. dielectric constant tensor:
#      x y z
#    x 1.728060 0.000000 0.000000 
#    y 0.000000 1.738740 0.000000 
#    z 0.000000 0.000000 1.724270 
# 
# From -- ./inp_files/29452.got.cif
#   From: 2010.03.12/outbox.cif.g09.slc.cpg/sg74_15_cif.got.tgz:29452.got - 2010.04.16 15:46:19.
