data_PCOD8301185
_publ_section_title
;
Structure prediction by ZEFSAII (Michael W. Deem and Ramdas Pophale) SiO2 
 PCOD8301185
Probable space group: I M M A
;
_chemical_formula_sum "Si O2"
_cell_formula_units_Z 56
_cell_length_a 9.601946
_cell_length_b 26.771340
_cell_length_c 12.049320
_cell_angle_alpha 90.000000
_cell_angle_beta 90.000000
_cell_angle_gamma 90.000000
_cell_volume 3097.361582
_symmetry_space_group_name_H-M "I M M A"
_symmetry_group_IT_number 74
_symmetry_cell_setting 'orthorhombic'
loop_
_space_group_symop_operation_xyz
x,y,z
-x,1/2-y,z
x,-y,-z
-x,1/2+y,-z
-x,-y,-z
x,1/2+y,-z
-x,y,z
x,1/2-y,z
1/2+x,1/2+y,1/2+z
1/2-x,-y,1/2+z
1/2+x,1/2-y,1/2-z
1/2-x,y,1/2-z
1/2-x,1/2-y,1/2-z
1/2+x,y,1/2-z
1/2-x,1/2+y,1/2+z
1/2+x,-y,1/2+z
loop_
_atom_site_type_symbol
_atom_site_label
_atom_site_fract_x
_atom_site_fract_y
_atom_site_fract_z
Si Si1 0.750000 0.036326 0.750000
Si Si2 0.656509 0.440406 0.153516
Si Si3 0.343509 0.593614 0.457687
Si Si4 0.659477 0.805374 0.356796
O O1 0.663763 0.070688 0.665719
O O2 0.647922 0.999920 0.821237
O O3 0.500000 0.418305 0.150932
O O4 0.750000 0.413723 0.250000
O O5 0.730984 0.431895 0.036343
O O6 0.500000 0.584138 0.503702
O O7 0.311211 0.653010 0.450795
O O8 0.500000 0.808671 0.317947
O O9 0.694193 0.750000 0.404730
O O10 0.750000 0.817519 0.250000
#
# Coordination Sequence:
#
# PCOD8301185 Si02
#       4
#     8  16  16  16
#     4  10  22  34  55  78 109 144 178 220 254 318
#     4  10  23  38  53  75 108 145 183 221 261 311
#     4  11  21  35  56  80 109 143 178 219 266 315
#     4   9  18  33  53  79 108 137 171 215 265 316
#
# _framework density 18.079903999999999
#
# number of rings (size 3 to 8) (size 9 to 14) (size 15 to 20)
#    0.857    1.143    1.429    2.571    0.000    5.714 
#    0.000    0.000    0.000    0.857    0.000    0.000 
#    0.000    0.000    0.000    0.000    0.000    0.000 
#
# Total GULP energy -346981.960276 kJ/mol
# GULP energy per Si atom -12392.212867 kJ/mol
# Density = 1.803875 g / cm^3
# Si number density = 18.079904 Si / 1000 Ang^3
#
#
#
# Elastic Constant Matrix: (Units=GPa)
#
#
# Indices 1 2 3 4 5 6 
#
# 1 120.4283 36.9930 49.2125 0.0000 0.0000 0.0000
# 2 36.9930 88.0361 44.3639 0.0000 0.0000 0.0000
# 3 49.2125 44.3639 84.8812 -0.0003 0.0000 0.0000
# 4 0.0000 0.0000 -0.0003 8.6684 0.0000 0.0000
# 5 0.0000 0.0000 0.0000 0.0000 29.1788 0.0000
# 6 0.0000 0.0000 0.0000 0.0000 0.0000 17.1304
#
#
#
# Elastic Compliance Matrix: (Units=1/GPa)
#
#
# Indices 1 2 3 4 5 6 
#
# 1 0.011119 -0.001933 -0.005436 0.000000 0.000000 0.000000
# 2 -0.001933 0.015756 -0.007115 0.000000 0.000000 0.000000
# 3 -0.005436 -0.007115 0.018652 0.000001 0.000000 0.000000
# 4 0.000000 0.000000 0.000001 0.115362 0.000000 0.000000
# 5 0.000000 0.000000 0.000000 0.000000 0.034272 0.000000
# 6 0.000000 0.000000 0.000000 0.000000 0.000000 0.058376
#
#
# Mechanical properties :
#
#
# Convention : Reuss Voigt Hill
#
# Bulk Modulus (GPa) = 60.38852 61.60938 60.99895
# Shear Modulus (GPa) = 17.35968 21.84724 19.60346
#
# Velocity S-wave (km/s) = 3.10201 3.47994 3.29639
# Velocity P-wave (km/s) = 6.80466 7.09202 6.94983
#
# Compressibility (1/GPa) = 0.01655944
#
# Stress axis : x y z
#
# Youngs Moduli (GPa) = 89.93667 63.46631 53.61448
#
# Poissons Ratio (x) = 0.12266 0.29147
# Poissons Ratio (y) = 0.17381 0.38145
# Poissons Ratio (z) = 0.48893 0.45154
#
# Static dielectric constant tensor:
#      x y z
#    x 3.249540 0.000000 0.000000 
#    y 0.000000 3.466990 0.000000 
#    z 0.000000 0.000000 3.038820 
# 
# 
# High freq. dielectric constant tensor:
#      x y z
#    x 1.704150 0.000000 0.000000 
#    y 0.000000 1.688700 0.000000 
#    z 0.000000 0.000000 1.674880 
# 
# From -- ./inp_files/28721.got.cif
#   From: 2010.03.12/outbox.cif.g09.slc.cpg/sg74_15_cif.got.tgz:28721.got - 2010.04.16 15:46:19.
