data_PCOD8301290
_publ_section_title
;
Structure prediction by ZEFSAII (Michael W. Deem and Ramdas Pophale) SiO2 
 PCOD8301290
Probable space group: I M M A
;
_chemical_formula_sum "Si O2"
_cell_formula_units_Z 64
_cell_length_a 7.640792
_cell_length_b 15.426495
_cell_length_c 27.389415
_cell_angle_alpha 90.000000
_cell_angle_beta 90.000000
_cell_angle_gamma 90.000000
_cell_volume 3228.407864
_symmetry_space_group_name_H-M "I M M A"
_symmetry_group_IT_number 74
_symmetry_cell_setting 'orthorhombic'
loop_
_space_group_symop_operation_xyz
x,y,z
-x,1/2-y,z
x,-y,-z
-x,1/2+y,-z
-x,-y,-z
x,1/2+y,-z
-x,y,z
x,1/2-y,z
1/2+x,1/2+y,1/2+z
1/2-x,-y,1/2+z
1/2+x,1/2-y,1/2-z
1/2-x,y,1/2-z
1/2-x,1/2-y,1/2-z
1/2+x,y,1/2-z
1/2-x,1/2+y,1/2+z
1/2+x,-y,1/2+z
loop_
_atom_site_type_symbol
_atom_site_label
_atom_site_fract_x
_atom_site_fract_y
_atom_site_fract_z
Si Si1 0.795949 0.250000 0.806352
Si Si2 0.695411 0.903197 0.125712
Si Si3 0.000000 0.852541 0.944550
Si Si4 0.000000 0.351993 0.943694
Si Si5 0.203604 0.750000 0.693884
Si Si6 0.702487 0.902262 0.873917
O O1 0.750000 0.250000 0.750000
O O2 0.718216 0.163405 0.829969
O O3 0.000000 0.250000 0.816229
O O4 0.500000 0.892842 0.104280
O O5 0.826531 0.888249 0.081391
O O6 0.722709 0.000254 0.146722
O O7 0.823328 0.891241 0.921381
O O8 0.000000 0.750000 0.938851
O O9 0.000000 0.882169 0.000590
O O10 0.000000 0.250000 0.937640
O O11 0.250000 0.750000 0.750000
O O12 0.275597 0.663385 0.667551
O O13 0.000000 0.750000 0.687827
O O14 0.500000 0.882483 0.888109
#
# Coordination Sequence:
#
# PCOD8301290 Si02
#       6
#     8  16   8   8   8  16
#     4  12  24  42  64  92 127 164 212 263 313 374
#     4  11  22  41  65  90 126 166 205 257 313 366
#     4  11  23  39  69  92 125 173 208 251 319 374
#     4  11  23  41  63  98 127 165 212 255 313 376
#     4  10  22  40  60  87 122 156 203 257 306 365
#     4  10  23  41  62  91 126 162 208 258 308 370
#
# _framework density 19.824013999999998
#
# number of rings (size 3 to 8) (size 9 to 14) (size 15 to 20)
#    0.000    1.250    3.750    1.875    1.750    4.000 
#    0.000    7.500    0.000    0.000    0.000    0.000 
#    0.000    0.000    0.000    0.000    0.000    0.000 
#
# Total GULP energy -396827.399987 kJ/mol
# GULP energy per Si atom -12400.856250 kJ/mol
# Density = 1.977889 g / cm^3
# Si number density = 19.824014 Si / 1000 Ang^3
#
#
#
# Elastic Constant Matrix: (Units=GPa)
#
#
# Indices 1 2 3 4 5 6 
#
# 1 128.1020 55.9797 65.2106 0.0000 0.0000 0.0000
# 2 55.9797 167.5443 80.6926 0.0000 0.0000 0.0000
# 3 65.2106 80.6926 156.5459 0.0000 0.0000 0.0000
# 4 0.0000 0.0000 0.0000 8.1844 0.0000 0.0000
# 5 0.0000 0.0000 0.0000 0.0000 62.5480 0.0000
# 6 0.0000 0.0000 0.0000 0.0000 0.0000 26.1313
#
#
#
# Elastic Compliance Matrix: (Units=1/GPa)
#
#
# Indices 1 2 3 4 5 6 
#
# 1 0.010313 -0.001831 -0.003352 0.000000 0.000000 0.000000
# 2 -0.001831 0.008265 -0.003497 0.000000 0.000000 0.000000
# 3 -0.003352 -0.003497 0.009587 0.000000 0.000000 0.000000
# 4 0.000000 0.000000 0.000000 0.122183 0.000000 0.000000
# 5 0.000000 0.000000 0.000000 0.000000 0.015988 0.000000
# 6 0.000000 0.000000 0.000000 0.000000 0.000000 0.038268
#
#
# Mechanical properties :
#
#
# Convention : Reuss Voigt Hill
#
# Bulk Modulus (GPa) = 92.56337 95.10646 93.83491
# Shear Modulus (GPa) = 22.16644 36.06004 29.11324
#
# Velocity S-wave (km/s) = 3.34752 4.26961 3.83637
# Velocity P-wave (km/s) = 7.85717 8.50797 8.18904
#
# Compressibility (1/GPa) = 0.01080341
#
# Stress axis : x y z
#
# Youngs Moduli (GPa) = 96.96612 120.99466 104.30924
#
# Poissons Ratio (x) = 0.22159 0.34964
# Poissons Ratio (y) = 0.17758 0.36480
# Poissons Ratio (z) = 0.32502 0.42315
#
# Static dielectric constant tensor:
#      x y z
#    x 3.801650 0.000000 0.000000 
#    y 0.000000 4.126410 0.000000 
#    z 0.000000 0.000000 3.281220 
# 
# 
# High freq. dielectric constant tensor:
#      x y z
#    x 1.789870 0.000000 0.000000 
#    y 0.000000 1.795420 0.000000 
#    z 0.000000 0.000000 1.753460 
# 
# From -- ./inp_files/63568.got.cif
#   From: 2010.03.12/outbox.cif.g09.slc.cpg/sg74_32_cif.got.tgz:63568.got - 2010.04.16 15:46:19.
