data_PCOD8301926
_publ_section_title
;
Structure prediction by ZEFSAII (Michael W. Deem and Ramdas Pophale) SiO2 
 PCOD8301926
Probable space group: P 41
;
_chemical_formula_sum "Si O2"
_cell_formula_units_Z 28
_cell_length_a 12.996654
_cell_length_b 12.996654
_cell_length_c 7.880817
_cell_angle_alpha 90.000000
_cell_angle_beta 90.000000
_cell_angle_gamma 90.000000
_cell_volume 1331.172562
_symmetry_space_group_name_H-M "P 41"
_symmetry_group_IT_number 76
_symmetry_cell_setting 'tetragonal'
loop_
_space_group_symop_operation_xyz
x,y,z
-y,x,1/4+z
-x,-y,1/2+z
y,-x,3/4+z
loop_
_atom_site_type_symbol
_atom_site_label
_atom_site_fract_x
_atom_site_fract_y
_atom_site_fract_z
Si Si1 0.880372 0.388071 0.244020
Si Si2 0.741144 0.313626 0.553320
Si Si3 0.378980 0.502689 0.937379
Si Si4 0.873241 0.982150 0.232729
Si Si5 0.907291 0.703189 0.659376
Si Si6 0.606169 0.175875 0.081150
Si Si7 0.200078 0.728309 0.422726
O O1 0.824569 0.345408 0.412063
O O2 0.880510 0.512304 0.234876
O O3 0.997821 0.349572 0.257589
O O4 0.816885 0.350106 0.079152
O O5 0.645927 0.393530 0.544471
O O6 0.703032 0.196322 0.521825
O O7 0.786429 0.327742 0.742166
O O8 0.464415 0.428531 0.012454
O O9 0.280432 0.433236 0.912122
O O10 0.792736 0.903164 0.154613
O O11 0.961539 0.920286 0.324176
O O12 0.820680 0.062611 0.363291
O O13 0.896069 0.642588 0.483601
O O14 0.701033 0.198937 0.955680
#
# Coordination Sequence:
#
# PCOD8301926 Si02
#       7
#     4   4   4   4   4   4   4
#     4  10  24  44  68  98 140 180 228 290 346 414
#     4  11  24  44  70  99 136 180 233 286 348 407
#     4  11  24  42  69  98 135 176 228 279 339 412
#     4  11  24  42  69  98 135 176 228 279 339 412
#     4  11  21  46  66  96 141 180 221 293 347 400
#     4  11  21  46  66  96 141 180 221 293 347 400
#     4  11  24  44  70  99 136 180 233 286 348 407
#
# _framework density 21.034088000000001
#
# number of rings (size 3 to 8) (size 9 to 14) (size 15 to 20)
#    0.000    1.143    4.286    1.714    4.000    3.429 
#   10.286    0.000    0.000    0.000    0.000    0.000 
#    0.000    0.000    0.000    0.000    0.000    0.000 
#
# Total GULP energy -347193.447333 kJ/mol
# GULP energy per Si atom -12399.765976 kJ/mol
# Density = 2.098621 g / cm^3
# Si number density = 21.034088 Si / 1000 Ang^3
#
#
#
# Elastic Constant Matrix: (Units=GPa)
#
#
# Indices 1 2 3 4 5 6 
#
# 1 77.5311 10.7430 13.1124 0.0000 0.0000 -7.1934
# 2 10.7430 77.5311 13.1124 0.0000 0.0000 7.1934
# 3 13.1124 13.1124 99.8991 0.0000 0.0000 0.0000
# 4 0.0000 0.0000 0.0000 23.5980 0.0000 0.0000
# 5 0.0000 0.0000 0.0000 0.0000 23.5980 0.0000
# 6 -7.1934 7.1934 0.0000 0.0000 0.0000 33.5020
#
#
#
# Elastic Compliance Matrix: (Units=1/GPa)
#
#
# Indices 1 2 3 4 5 6 
#
# 1 0.013743 -0.001955 -0.001547 0.000000 0.000000 0.003371
# 2 -0.001955 0.013743 -0.001547 0.000000 0.000000 -0.003371
# 3 -0.001547 -0.001547 0.010416 0.000000 0.000000 0.000000
# 4 0.000000 0.000000 0.000000 0.042377 0.000000 0.000000
# 5 0.000000 0.000000 0.000000 0.000000 0.042377 0.000000
# 6 0.003371 -0.003371 0.000000 0.000000 0.000000 0.031297
#
#
# Mechanical properties :
#
#
# Convention : Reuss Voigt Hill
#
# Bulk Modulus (GPa) = 35.96696 36.54410 36.25553
# Shear Modulus (GPa) = 28.84833 30.67248 29.76040
#
# Velocity S-wave (km/s) = 3.70740 3.82282 3.76555
# Velocity P-wave (km/s) = 5.95507 6.07427 6.01497
#
# Compressibility (1/GPa) = 0.02780329
#
# Stress axis : x y z
#
# Youngs Moduli (GPa) = 72.76206 72.76206 96.00357
#
# Poissons Ratio (x) = 0.14228 0.14854
# Poissons Ratio (y) = 0.14228 0.14854
# Poissons Ratio (z) = 0.11258 0.11258
#
# Static dielectric constant tensor:
#      x y z
#    x 4.093420 0.000000 0.000000 
#    y 0.000000 4.093420 0.000000 
#    z 0.000000 0.000000 3.638950 
# 
# 
# High freq. dielectric constant tensor:
#      x y z
#    x 1.834480 0.000000 0.000000 
#    y 0.000000 1.834480 0.000000 
#    z 0.000000 0.000000 1.812670 
# 
# From -- ./inp_files/610.got.cif
#   From: 2010.03.12/outbox.cif.g09.slc.cpg/sg76_cif.got.tgz:610.got - 2010.04.16 16:34:25.
