data_PCOD8301769
_publ_section_title
;
Structure prediction by ZEFSAII (Michael W. Deem and Ramdas Pophale) SiO2 
 PCOD8301769
Probable space group: I M M A
;
_chemical_formula_sum "Si O2"
_cell_formula_units_Z 96
_cell_length_a 9.420533
_cell_length_b 19.388037
_cell_length_c 30.899588
_cell_angle_alpha 90.000000
_cell_angle_beta 90.000000
_cell_angle_gamma 90.000000
_cell_volume 5643.675099
_symmetry_space_group_name_H-M "I M M A"
_symmetry_group_IT_number 74
_symmetry_cell_setting 'orthorhombic'
loop_
_space_group_symop_operation_xyz
x,y,z
-x,1/2-y,z
x,-y,-z
-x,1/2+y,-z
-x,-y,-z
x,1/2+y,-z
-x,y,z
x,1/2-y,z
1/2+x,1/2+y,1/2+z
1/2-x,-y,1/2+z
1/2+x,1/2-y,1/2-z
1/2-x,y,1/2-z
1/2-x,1/2-y,1/2-z
1/2+x,y,1/2-z
1/2-x,1/2+y,1/2+z
1/2+x,-y,1/2+z
loop_
_atom_site_type_symbol
_atom_site_label
_atom_site_fract_x
_atom_site_fract_y
_atom_site_fract_z
Si Si1 0.668896 0.673180 0.631401
Si Si2 0.341622 0.667978 0.536146
Si Si3 0.165913 0.076159 0.207714
Si Si4 0.835381 0.582872 0.208083
Si Si5 0.659867 0.667862 0.043176
Si Si6 0.164496 0.830185 0.125754
O O1 0.500000 0.675398 0.631242
O O2 0.728439 0.750000 0.641341
O O3 0.718228 0.647549 0.583718
O O4 0.725426 0.620455 0.667508
O O5 0.500000 0.637698 0.528622
O O6 0.349457 0.750000 0.533028
O O7 0.237038 0.637786 0.499546
O O8 0.250000 0.100716 0.250000
O O9 0.000000 0.089609 0.215748
O O10 0.197353 0.996585 0.197241
O O11 0.750000 0.607942 0.250000
O O12 0.784228 0.628007 0.167627
O O13 0.000000 0.595131 0.217984
O O14 0.500000 0.638751 0.044815
O O15 0.659803 0.750000 0.041540
O O16 0.744451 0.642475 0.085377
O O17 0.192381 0.750000 0.134977
O O18 0.000000 0.844422 0.115174
#
# Coordination Sequence:
#
# PCOD8301769 Si02
#       6
#    16  16  16  16  16  16
#     4   8  14  25  43  66  88 111 141 175 208 242
#     4   8  13  23  40  60  82 110 141 169 200 242
#     4   9  17  30  46  63  85 112 142 174 208 250
#     4   9  18  31  46  63  83 110 142 174 210 251
#     4   9  16  25  39  62  89 112 135 168 210 251
#     4   9  17  29  44  62  84 110 141 175 209 247
#
# _framework density 17.010192
#
# number of rings (size 3 to 8) (size 9 to 14) (size 15 to 20)
#    0.000    3.333    0.000    1.500    0.000    3.333 
#    0.000    0.833    0.000    2.000    0.000    7.000 
#    0.000    0.000    0.000    0.000    0.000    0.000 
#
# Total GULP energy -595048.326706 kJ/mol
# GULP energy per Si atom -12396.840140 kJ/mol
# Density = 1.697148 g / cm^3
# Si number density = 17.010192 Si / 1000 Ang^3
#
#
#
# Elastic Constant Matrix: (Units=GPa)
#
#
# Indices 1 2 3 4 5 6 
#
# 1 71.8770 27.1626 74.5847 0.0000 0.0000 0.0000
# 2 27.1626 42.4145 61.1392 0.0000 0.0000 0.0000
# 3 74.5847 61.1392 191.2622 0.0000 0.0000 0.0000
# 4 0.0000 0.0000 0.0000 5.9523 0.0000 0.0000
# 5 0.0000 0.0000 0.0000 0.0000 30.4097 0.0000
# 6 0.0000 0.0000 0.0000 0.0000 0.0000 11.8118
#
#
#
# Elastic Compliance Matrix: (Units=1/GPa)
#
#
# Indices 1 2 3 4 5 6 
#
# 1 0.023635 -0.003432 -0.008120 0.000000 0.000000 0.000000
# 2 -0.003432 0.044222 -0.012798 0.000000 0.000000 0.000000
# 3 -0.008120 -0.012798 0.012486 0.000000 0.000000 0.000000
# 4 0.000000 0.000000 0.000000 0.168004 0.000000 0.000000
# 5 0.000000 0.000000 0.000000 0.000000 0.032884 0.000000
# 6 0.000000 0.000000 0.000000 0.000000 0.000000 0.084661
#
#
# Mechanical properties :
#
#
# Convention : Reuss Voigt Hill
#
# Bulk Modulus (GPa) = 31.60115 70.14742 50.87428
# Shear Modulus (GPa) = 11.76083 19.14588 15.45336
#
# Velocity S-wave (km/s) = 2.63230 3.35857 3.01736
# Velocity P-wave (km/s) = 5.27795 7.50786 6.48940
#
# Compressibility (1/GPa) = 0.03164442
#
# Stress axis : x y z
#
# Youngs Moduli (GPa) = 42.30971 22.61296 80.09075
#
# Poissons Ratio (x) = 0.07760 0.65032
# Poissons Ratio (y) = 0.14520 1.02500
# Poissons Ratio (z) = 0.34355 0.28940
#
# Static dielectric constant tensor:
#      x y z
#    x 3.116710 0.000000 0.000000 
#    y 0.000000 2.901490 0.000000 
#    z 0.000000 0.000000 3.481920 
# 
# 
# High freq. dielectric constant tensor:
#      x y z
#    x 1.637390 0.000000 0.000000 
#    y 0.000000 1.613650 0.000000 
#    z 0.000000 0.000000 1.669520 
# 
# From -- ./inp_files/57256.got.cif
#   From: 2010.03.12/outbox.cif.g09.slc.cpg/sg74_29_cif.got.tgz:57256.got - 2010.04.16 15:46:19.
