data_PCOD8301431
_publ_section_title
;
Structure prediction by ZEFSAII (Michael W. Deem and Ramdas Pophale) SiO2 
 PCOD8301431
Probable space group: I M M A
;
_chemical_formula_sum "Si O2"
_cell_formula_units_Z 96
_cell_length_a 20.634282
_cell_length_b 14.733885
_cell_length_c 14.800643
_cell_angle_alpha 90.000000
_cell_angle_beta 90.000000
_cell_angle_gamma 90.000000
_cell_volume 4499.737930
_symmetry_space_group_name_H-M "I M M A"
_symmetry_group_IT_number 74
_symmetry_cell_setting 'orthorhombic'
loop_
_space_group_symop_operation_xyz
x,y,z
-x,1/2-y,z
x,-y,-z
-x,1/2+y,-z
-x,-y,-z
x,1/2+y,-z
-x,y,z
x,1/2-y,z
1/2+x,1/2+y,1/2+z
1/2-x,-y,1/2+z
1/2+x,1/2-y,1/2-z
1/2-x,y,1/2-z
1/2-x,1/2-y,1/2-z
1/2+x,y,1/2-z
1/2-x,1/2+y,1/2+z
1/2+x,-y,1/2+z
loop_
_atom_site_type_symbol
_atom_site_label
_atom_site_fract_x
_atom_site_fract_y
_atom_site_fract_z
Si Si1 0.922625 0.750000 0.359830
Si Si2 0.741651 0.354897 0.460526
Si Si3 0.570621 0.648858 0.811798
Si Si4 0.425823 0.750000 0.345572
Si Si5 0.385886 0.896314 0.997246
Si Si6 0.371592 0.428580 0.571478
Si Si7 0.183904 0.556546 0.792223
O O1 0.894383 0.750000 0.255824
O O2 0.896135 0.658601 0.409042
O O3 0.000000 0.750000 0.362276
O O4 0.747923 0.250000 0.482739
O O5 0.811379 0.399915 0.466698
O O6 0.698838 0.403271 0.535451
O O7 0.706915 0.367510 0.363727
O O8 0.500000 0.606952 0.782269
O O9 0.574287 0.750000 0.772182
O O10 0.572536 0.653499 0.920348
O O11 0.634445 0.596769 0.780229
O O12 0.500000 0.750000 0.323510
O O13 0.411647 0.662109 0.407834
O O14 0.410772 0.000000 0.000000
O O15 0.405590 0.500000 0.500000
O O16 0.358972 0.477158 0.665765
O O17 0.250000 0.516306 0.750000
#
# Coordination Sequence:
#
# PCOD8301431 Si02
#       7
#     8  16  16   8  16  16  16
#     4  11  26  45  65  95 135 181 227 274 332 411
#     4  11  21  41  69  96 129 171 220 277 344 408
#     4  11  24  42  63  94 136 177 226 280 338 405
#     4  11  26  47  71  98 134 183 233 275 339 417
#     4  12  24  41  66  96 133 180 225 273 338 404
#     4  10  24  45  69  98 133 170 222 285 342 406
#     4  11  23  39  67 101 134 172 226 284 340 402
#
# _framework density 21.334575000000001
#
# number of rings (size 3 to 8) (size 9 to 14) (size 15 to 20)
#    0.000    1.000    4.167    2.500    2.333    3.000 
#    0.000    3.750    0.000    0.000    0.000    0.000 
#    0.000    0.000    0.000    0.000    0.000    0.000 
#
# Total GULP energy -594901.904347 kJ/mol
# GULP energy per Si atom -12393.789674 kJ/mol
# Density = 2.128602 g / cm^3
# Si number density = 21.334575 Si / 1000 Ang^3
#
#
#
# Elastic Constant Matrix: (Units=GPa)
#
#
# Indices 1 2 3 4 5 6 
#
# 1 96.0257 15.7845 30.4934 0.0000 0.0000 0.0000
# 2 15.7845 129.3467 43.5240 0.0000 0.0000 0.0000
# 3 30.4934 43.5240 102.9620 0.0000 0.0000 0.0000
# 4 0.0000 0.0000 0.0000 33.1297 0.0000 0.0000
# 5 0.0000 0.0000 0.0000 0.0000 71.6612 0.0000
# 6 0.0000 0.0000 0.0000 0.0000 0.0000 -36.1736
#
#
#
# Elastic Compliance Matrix: (Units=1/GPa)
#
#
# Indices 1 2 3 4 5 6 
#
# 1 0.011505 -0.000300 -0.003280 0.000000 0.000000 0.000000
# 2 -0.000300 0.009021 -0.003724 0.000000 0.000000 0.000000
# 3 -0.003280 -0.003724 0.012258 0.000000 0.000000 0.000000
# 4 0.000000 0.000000 0.000000 0.030184 0.000000 0.000000
# 5 0.000000 0.000000 0.000000 0.000000 0.013955 0.000000
# 6 0.000000 0.000000 0.000000 0.000000 0.000000 -0.027644
#
#
# Mechanical properties :
#
#
# Convention : Reuss Voigt Hill
#
# Bulk Modulus (GPa) = 55.02328 56.43758 55.73043
# Shear Modulus (GPa) = 71.48284 29.62564 50.55424
#
# Velocity S-wave (km/s) = 5.79468 3.73046 4.87313
# Velocity P-wave (km/s) = 8.40344 6.71313 7.60539
#
# Compressibility (1/GPa) = 0.01817413
#
# Stress axis : x y z
#
# Youngs Moduli (GPa) = 86.91916 110.85195 81.57753
#
# Poissons Ratio (x) = 0.03327 0.26761
# Poissons Ratio (y) = 0.02609 0.30383
# Poissons Ratio (z) = 0.28513 0.41287
#
# Static dielectric constant tensor:
#      x y z
#    x 3.784890 0.000000 0.000000 
#    y 0.000000 3.616660 0.000000 
#    z 0.000000 0.000000 3.062130 
# 
# 
# High freq. dielectric constant tensor:
#      x y z
#    x 1.835460 0.000000 0.000000 
#    y 0.000000 1.838950 0.000000 
#    z 0.000000 0.000000 1.836330 
# 
# From -- ./inp_files/35325.got.cif
#   From: 2010.03.12/outbox.cif.g09.slc.cpg/sg74_18_cif.got.tgz:35325.got - 2010.04.16 15:46:19.
