data_PCOD8301119
_publ_section_title
;
Structure prediction by ZEFSAII (Michael W. Deem and Ramdas Pophale) SiO2 
 PCOD8301119
Probable space group: I M M A
;
_chemical_formula_sum "Si O2"
_cell_formula_units_Z 64
_cell_length_a 7.433320
_cell_length_b 13.913658
_cell_length_c 30.432703
_cell_angle_alpha 90.000000
_cell_angle_beta 90.000000
_cell_angle_gamma 90.000000
_cell_volume 3147.492335
_symmetry_space_group_name_H-M "I M M A"
_symmetry_group_IT_number 74
_symmetry_cell_setting 'orthorhombic'
loop_
_space_group_symop_operation_xyz
x,y,z
-x,1/2-y,z
x,-y,-z
-x,1/2+y,-z
-x,-y,-z
x,1/2+y,-z
-x,y,z
x,1/2-y,z
1/2+x,1/2+y,1/2+z
1/2-x,-y,1/2+z
1/2+x,1/2-y,1/2-z
1/2-x,y,1/2-z
1/2-x,1/2-y,1/2-z
1/2+x,y,1/2-z
1/2-x,1/2+y,1/2+z
1/2+x,-y,1/2+z
loop_
_atom_site_type_symbol
_atom_site_label
_atom_site_fract_x
_atom_site_fract_y
_atom_site_fract_z
Si Si1 0.710439 0.987197 0.702877
Si Si2 0.000000 0.142439 0.688291
Si Si3 0.288275 0.643033 0.622550
Si Si4 0.209051 0.992943 0.050765
Si Si5 0.500000 0.644758 0.085168
O O1 0.500000 0.010567 0.696276
O O2 0.750000 0.936388 0.750000
O O3 0.820611 0.086631 0.703266
O O4 0.784124 0.917471 0.664282
O O5 0.000000 0.150878 0.636686
O O6 0.000000 0.250000 0.708966
O O7 0.500000 0.652336 0.626994
O O8 0.201840 0.750000 0.622233
O O9 0.236177 0.590031 0.576953
O O10 0.317566 0.905257 0.070338
O O11 0.000000 0.969674 0.057400
O O12 0.261556 0.000000 0.000000
O O13 0.500000 0.750000 0.063747
#
# Coordination Sequence:
#
# PCOD8301119 Si02
#       5
#    16   8  16  16   8
#     4  11  22  40  63  87 122 159 198 252 306 363
#     4  11  24  41  61  89 121 160 205 249 302 359
#     4   9  19  37  61  88 120 158 201 247 298 359
#     4  10  21  39  63  89 124 164 201 249 305 359
#     4  11  23  39  61  89 124 158 204 255 297 359
#
# _framework density 20.333648
#
# number of rings (size 3 to 8) (size 9 to 14) (size 15 to 20)
#    0.000    1.750    3.750    0.375    0.000    3.000 
#    0.000    7.500    0.000    0.000    0.000    0.000 
#    0.000    0.000    0.000    0.000    0.000    0.000 
#
# Total GULP energy -396740.024811 kJ/mol
# GULP energy per Si atom -12398.125775 kJ/mol
# Density = 2.028737 g / cm^3
# Si number density = 20.333648 Si / 1000 Ang^3
#
#
#
# Elastic Constant Matrix: (Units=GPa)
#
#
# Indices 1 2 3 4 5 6 
#
# 1 79.2079 40.4570 14.6799 0.0000 0.0000 0.0000
# 2 40.4570 165.5054 65.4540 0.0000 0.0000 0.0000
# 3 14.6799 65.4540 149.6933 0.0000 0.0000 0.0000
# 4 0.0000 0.0000 0.0000 14.1242 0.0000 0.0000
# 5 0.0000 0.0000 0.0000 0.0000 17.1767 0.0000
# 6 0.0000 0.0000 0.0000 0.0000 0.0000 29.7698
#
#
#
# Elastic Compliance Matrix: (Units=1/GPa)
#
#
# Indices 1 2 3 4 5 6 
#
# 1 0.014429 -0.003588 0.000154 0.000000 0.000000 0.000000
# 2 -0.003588 0.008198 -0.003233 0.000000 0.000000 0.000000
# 3 0.000154 -0.003233 0.008079 0.000000 0.000000 0.000000
# 4 0.000000 0.000000 0.000000 0.070800 0.000000 0.000000
# 5 0.000000 0.000000 0.000000 0.000000 0.058218 0.000000
# 6 0.000000 0.000000 0.000000 0.000000 0.000000 0.033591
#
#
# Mechanical properties :
#
#
# Convention : Reuss Voigt Hill
#
# Bulk Modulus (GPa) = 57.56392 70.62095 64.09244
# Shear Modulus (GPa) = 23.53615 30.46854 27.00235
#
# Velocity S-wave (km/s) = 3.40589 3.87515 3.64808
# Velocity P-wave (km/s) = 6.62102 7.40465 7.02378
#
# Compressibility (1/GPa) = 0.01737199
#
# Stress axis : x y z
#
# Youngs Moduli (GPa) = 69.30435 121.98741 123.78245
#
# Poissons Ratio (x) = 0.43769 -0.01904
# Poissons Ratio (y) = 0.24866 0.40013
# Poissons Ratio (z) = -0.01066 0.39433
#
# Static dielectric constant tensor:
#      x y z
#    x 3.570470 0.000000 0.000000 
#    y 0.000000 4.039880 0.000000 
#    z 0.000000 0.000000 4.077680 
# 
# 
# High freq. dielectric constant tensor:
#      x y z
#    x 1.796430 0.000000 0.000000 
#    y 0.000000 1.782410 0.000000 
#    z 0.000000 0.000000 1.807860 
# 
# From -- ./inp_files/69796.got.cif
#   From: 2010.03.12/outbox.cif.g09.slc.cpg/sg74_35_cif.got.tgz:69796.got - 2010.04.16 15:46:19.
