data_PCOD8301351
_publ_section_title
;
Structure prediction by ZEFSAII (Michael W. Deem and Ramdas Pophale) SiO2 
 PCOD8301351
Probable space group: I M M A
;
_chemical_formula_sum "Si O2"
_cell_formula_units_Z 88
_cell_length_a 18.067983
_cell_length_b 11.135983
_cell_length_c 22.071000
_cell_angle_alpha 90.000000
_cell_angle_beta 90.000000
_cell_angle_gamma 90.000000
_cell_volume 4440.790071
_symmetry_space_group_name_H-M "I M M A"
_symmetry_group_IT_number 74
_symmetry_cell_setting 'orthorhombic'
loop_
_space_group_symop_operation_xyz
x,y,z
-x,1/2-y,z
x,-y,-z
-x,1/2+y,-z
-x,-y,-z
x,1/2+y,-z
-x,y,z
x,1/2-y,z
1/2+x,1/2+y,1/2+z
1/2-x,-y,1/2+z
1/2+x,1/2-y,1/2-z
1/2-x,y,1/2-z
1/2-x,1/2-y,1/2-z
1/2+x,y,1/2-z
1/2-x,1/2+y,1/2+z
1/2+x,-y,1/2+z
loop_
_atom_site_type_symbol
_atom_site_label
_atom_site_fract_x
_atom_site_fract_y
_atom_site_fract_z
Si Si1 0.500000 0.386755 0.955836
Si Si2 0.715951 0.750000 0.645792
Si Si3 0.294017 0.991861 0.571298
Si Si4 0.583384 0.993759 0.227458
Si Si5 0.349612 0.885235 0.116239
Si Si6 0.416267 0.888667 0.353987
Si Si7 0.860637 0.750000 0.724264
O O1 0.500000 0.250000 0.985055
O O2 0.572111 0.403102 0.915570
O O3 0.500000 0.500000 0.000000
O O4 0.697197 0.638112 0.602175
O O5 0.799434 0.750000 0.671001
O O6 0.667478 0.750000 0.706623
O O7 0.304943 0.000000 0.500000
O O8 0.211290 0.033698 0.584867
O O9 0.357646 0.080695 0.594560
O O10 0.500000 0.948910 0.214980
O O11 0.588444 0.134733 0.214145
O O12 0.641119 0.922011 0.186064
O O13 0.606277 0.967403 0.296076
O O14 0.320985 0.750000 0.112739
O O15 0.500000 0.919482 0.375722
O O16 0.410137 0.750000 0.336080
#
# Coordination Sequence:
#
# PCOD8301351 Si02
#       7
#     8   8  16  16  16  16   8
#     4  10  22  44  62  90 134 176 223 272 319 382
#     4  11  24  42  66  94 130 170 206 277 324 373
#     4  12  26  44  66  92 128 170 220 261 319 384
#     4  11  21  39  65  95 130 166 212 261 326 385
#     4  11  23  40  64  94 127 171 217 264 318 380
#     4  10  23  43  67  95 125 162 208 268 323 383
#     4  11  21  42  62  94 137 166 211 266 330 388
#
# _framework density 19.816293000000002
#
# number of rings (size 3 to 8) (size 9 to 14) (size 15 to 20)
#    0.000    1.091    4.545    1.909    2.545    1.818 
#    3.273    2.273    0.000    0.000    0.000    0.000 
#    0.000    0.000    0.000    0.000    0.000    0.000 
#
# Total GULP energy -545555.329904 kJ/mol
# GULP energy per Si atom -12398.984771 kJ/mol
# Density = 1.977119 g / cm^3
# Si number density = 19.816293 Si / 1000 Ang^3
#
#
#
# Elastic Constant Matrix: (Units=GPa)
#
#
# Indices 1 2 3 4 5 6 
#
# 1 74.2185 22.3879 26.8649 0.0000 0.0000 0.0000
# 2 22.3879 88.2143 22.2222 0.0000 0.0000 0.0000
# 3 26.8649 22.2222 101.5372 0.0000 0.0000 0.0000
# 4 0.0000 0.0000 0.0000 28.9813 0.0000 0.0000
# 5 0.0000 0.0000 0.0000 0.0000 25.9132 0.0000
# 6 0.0000 0.0000 0.0000 0.0000 0.0000 32.2791
#
#
#
# Elastic Compliance Matrix: (Units=1/GPa)
#
#
# Indices 1 2 3 4 5 6 
#
# 1 0.015664 -0.003102 -0.003465 0.000000 0.000000 0.000000
# 2 -0.003102 0.012612 -0.001939 0.000000 0.000000 0.000000
# 3 -0.003465 -0.001939 0.011190 0.000000 0.000000 0.000000
# 4 0.000000 0.000000 0.000000 0.034505 0.000000 0.000000
# 5 0.000000 0.000000 0.000000 0.000000 0.038590 0.000000
# 6 0.000000 0.000000 0.000000 0.000000 0.000000 0.030980
#
#
# Mechanical properties :
#
#
# Convention : Reuss Voigt Hill
#
# Bulk Modulus (GPa) = 44.54052 45.21333 44.87692
# Shear Modulus (GPa) = 29.75497 30.26772 30.01135
#
# Velocity S-wave (km/s) = 3.87918 3.91246 3.89585
# Velocity P-wave (km/s) = 6.52606 6.57841 6.55229
#
# Compressibility (1/GPa) = 0.02245147
#
# Stress axis : x y z
#
# Youngs Moduli (GPa) = 63.84091 79.28992 89.36598
#
# Poissons Ratio (x) = 0.24599 0.30969
# Poissons Ratio (y) = 0.19806 0.17332
# Poissons Ratio (z) = 0.22123 0.15377
#
# Static dielectric constant tensor:
#      x y z
#    x 3.578810 0.000000 0.000000 
#    y 0.000000 3.737480 0.000000 
#    z 0.000000 0.000000 3.554000 
# 
# 
# High freq. dielectric constant tensor:
#      x y z
#    x 1.778300 0.000000 0.000000 
#    y 0.000000 1.786630 0.000000 
#    z 0.000000 0.000000 1.766850 
# 
# From -- ./inp_files/52912.got.cif
#   From: 2010.03.12/outbox.cif.g09.slc.cpg/sg74_27_cif.got.tgz:52912.got - 2010.04.16 15:46:19.
