data_PCOD8301503
_publ_section_title
;
Structure prediction by ZEFSAII (Michael W. Deem and Ramdas Pophale) SiO2 
 PCOD8301503
Probable space group: I M M A
;
_chemical_formula_sum "Si O2"
_cell_formula_units_Z 64
_cell_length_a 24.084193
_cell_length_b 7.845185
_cell_length_c 18.265825
_cell_angle_alpha 90.000000
_cell_angle_beta 90.000000
_cell_angle_gamma 90.000000
_cell_volume 3451.235385
_symmetry_space_group_name_H-M "I M M A"
_symmetry_group_IT_number 74
_symmetry_cell_setting 'orthorhombic'
loop_
_space_group_symop_operation_xyz
x,y,z
-x,1/2-y,z
x,-y,-z
-x,1/2+y,-z
-x,-y,-z
x,1/2+y,-z
-x,y,z
x,1/2-y,z
1/2+x,1/2+y,1/2+z
1/2-x,-y,1/2+z
1/2+x,1/2-y,1/2-z
1/2-x,y,1/2-z
1/2-x,1/2-y,1/2-z
1/2+x,y,1/2-z
1/2-x,1/2+y,1/2+z
1/2+x,-y,1/2+z
loop_
_atom_site_type_symbol
_atom_site_label
_atom_site_fract_x
_atom_site_fract_y
_atom_site_fract_z
Si Si1 0.939068 0.750000 0.678294
Si Si2 0.660092 0.058945 0.195678
Si Si3 0.561302 0.750000 0.648538
Si Si4 0.360596 0.438832 0.646922
Si Si5 0.748747 0.950765 0.919439
O O1 0.902100 0.919048 0.658852
O O2 0.945891 0.750000 0.765163
O O3 0.000000 0.750000 0.640170
O O4 0.679747 0.250000 0.219898
O O5 0.702367 0.978545 0.137221
O O6 0.658246 0.946315 0.268333
O O7 0.500000 0.750000 0.611782
O O8 0.594093 0.579911 0.624251
O O9 0.385475 0.250000 0.632741
O O10 0.307009 0.459748 0.595991
O O11 0.755039 0.750000 0.910782
O O12 0.728176 0.000000 0.000000
#
# Coordination Sequence:
#
# PCOD8301503 Si02
#       5
#     8  16   8  16  16
#     4   7  12  27  53  77  97 136 177 212 262 309
#     4   8  17  32  51  76 107 141 174 222 266 314
#     4   9  18  35  55  79 111 138 173 222 264 309
#     4  11  20  33  56  82 107 142 178 217 267 323
#     4  11  21  34  50  75 108 143 179 224 273 323
#
# _framework density 18.544084000000002
#
# number of rings (size 3 to 8) (size 9 to 14) (size 15 to 20)
#    0.750    1.750    2.500    1.500    0.000    5.500 
#    0.000    0.000    0.000    1.500    0.000    0.000 
#    0.000    0.000    0.000    0.000    0.000    0.000 
#
# Total GULP energy -396438.673625 kJ/mol
# GULP energy per Si atom -12388.708551 kJ/mol
# Density = 1.850188 g / cm^3
# Si number density = 18.544084 Si / 1000 Ang^3
#
#
#
# Elastic Constant Matrix: (Units=GPa)
#
#
# Indices 1 2 3 4 5 6 
#
# 1 114.8842 25.5446 13.9590 0.0000 0.0000 0.0000
# 2 25.5446 100.7157 5.2409 0.0000 0.0000 0.0000
# 3 13.9590 5.2409 37.5617 0.0000 0.0000 0.0000
# 4 0.0000 0.0000 0.0000 16.7810 0.0000 0.0000
# 5 0.0000 0.0000 0.0000 0.0000 5.1803 0.0000
# 6 0.0000 0.0000 0.0000 0.0000 0.0000 9.3288
#
#
#
# Elastic Compliance Matrix: (Units=1/GPa)
#
#
# Indices 1 2 3 4 5 6 
#
# 1 0.009604 -0.002267 -0.003253 0.000000 0.000000 0.000000
# 2 -0.002267 0.010536 -0.000628 0.000000 0.000000 0.000000
# 3 -0.003253 -0.000628 0.027919 0.000000 0.000000 0.000000
# 4 0.000000 0.000000 0.000000 0.059591 0.000000 0.000000
# 5 0.000000 0.000000 0.000000 0.000000 0.193038 0.000000
# 6 0.000000 0.000000 0.000000 0.000000 0.000000 0.107195
#
#
# Mechanical properties :
#
#
# Convention : Reuss Voigt Hill
#
# Bulk Modulus (GPa) = 27.96017 38.07231 33.01624
# Shear Modulus (GPa) = 11.57143 20.15251 15.86197
#
# Velocity S-wave (km/s) = 2.50070 3.30014 2.92784
# Velocity P-wave (km/s) = 4.84236 5.92423 5.41040
#
# Compressibility (1/GPa) = 0.03576516
#
# Stress axis : x y z
#
# Youngs Moduli (GPa) = 104.12764 94.90847 35.81759
#
# Poissons Ratio (x) = 0.21511 0.11651
# Poissons Ratio (y) = 0.23601 0.02249
# Poissons Ratio (z) = 0.33870 0.05959
#
# Static dielectric constant tensor:
#      x y z
#    x 3.839820 0.000000 0.000000 
#    y 0.000000 3.272310 0.000000 
#    z 0.000000 0.000000 3.089660 
# 
# 
# High freq. dielectric constant tensor:
#      x y z
#    x 1.715090 0.000000 0.000000 
#    y 0.000000 1.703960 0.000000 
#    z 0.000000 0.000000 1.684040 
# 
# From -- ./inp_files/35990.got.cif
#   From: 2010.03.12/outbox.cif.g09.slc.cpg/sg74_18_cif.got.tgz:35990.got - 2010.04.16 15:46:19.
