data_PCOD8301161
_publ_section_title
;
Structure prediction by ZEFSAII (Michael W. Deem and Ramdas Pophale) SiO2 
 PCOD8301161
Probable space group: I M M A
;
_chemical_formula_sum "Si O2"
_cell_formula_units_Z 48
_cell_length_a 14.783663
_cell_length_b 13.563004
_cell_length_c 10.572830
_cell_angle_alpha 90.000000
_cell_angle_beta 90.000000
_cell_angle_gamma 90.000000
_cell_volume 2119.967452
_symmetry_space_group_name_H-M "I M M A"
_symmetry_group_IT_number 74
_symmetry_cell_setting 'orthorhombic'
loop_
_space_group_symop_operation_xyz
x,y,z
-x,1/2-y,z
x,-y,-z
-x,1/2+y,-z
-x,-y,-z
x,1/2+y,-z
-x,y,z
x,1/2-y,z
1/2+x,1/2+y,1/2+z
1/2-x,-y,1/2+z
1/2+x,1/2-y,1/2-z
1/2-x,y,1/2-z
1/2-x,1/2-y,1/2-z
1/2+x,y,1/2-z
1/2-x,1/2+y,1/2+z
1/2+x,-y,1/2+z
loop_
_atom_site_type_symbol
_atom_site_label
_atom_site_fract_x
_atom_site_fract_y
_atom_site_fract_z
Si Si1 0.606987 0.750000 0.278724
Si Si2 0.647729 0.046512 0.119725
Si Si3 0.849303 0.037019 0.870023
Si Si4 0.892261 0.750000 0.516123
O O1 0.500000 0.750000 0.288104
O O2 0.645807 0.845200 0.351534
O O3 0.637751 0.750000 0.131195
O O4 0.652010 0.161955 0.095557
O O5 0.745748 0.996401 0.125045
O O6 0.599891 0.017604 0.252304
O O7 0.593410 0.000000 0.000000
O O8 0.896952 0.000000 0.000000
O O9 0.000000 0.750000 0.528473
#
# Coordination Sequence:
#
# PCOD8301161 Si02
#       4
#     8  16  16   8
#     4  11  24  43  68  97 134 177 218 266 333 399
#     4  10  21  40  65  97 130 170 221 271 316 386
#     4  10  23  40  65  99 132 175 216 271 328 391
#     4  11  24  41  69 101 131 171 222 276 327 385
#
# _framework density 22.641857000000002
#
# number of rings (size 3 to 8) (size 9 to 14) (size 15 to 20)
#    0.000    1.667    3.333    0.000    0.000   14.667 
#    0.000    1.667    0.000    0.000    0.000    0.000 
#    0.000    0.000    0.000    0.000    0.000    0.000 
#
# Total GULP energy -297359.686282 kJ/mol
# GULP energy per Si atom -12389.986928 kJ/mol
# Density = 2.259032 g / cm^3
# Si number density = 22.641857 Si / 1000 Ang^3
#
#
#
# Elastic Constant Matrix: (Units=GPa)
#
#
# Indices 1 2 3 4 5 6 
#
# 1 64.9478 31.8099 7.4041 0.0000 0.0000 0.0000
# 2 31.8099 255.2087 111.7070 0.0000 0.0000 0.0000
# 3 7.4041 111.7070 261.2373 0.0000 0.0000 0.0000
# 4 0.0000 0.0000 0.0000 52.2747 0.0000 0.0000
# 5 0.0000 0.0000 0.0000 0.0000 8.8673 0.0000
# 6 0.0000 0.0000 0.0000 0.0000 0.0000 -43.6167
#
#
#
# Elastic Compliance Matrix: (Units=1/GPa)
#
#
# Indices 1 2 3 4 5 6 
#
# 1 0.016452 -0.002272 0.000505 0.000000 0.000000 0.000000
# 2 -0.002272 0.005134 -0.002131 0.000000 0.000000 0.000000
# 3 0.000505 -0.002131 0.004725 0.000000 0.000000 0.000000
# 4 0.000000 0.000000 0.000000 0.019130 0.000000 0.000000
# 5 0.000000 0.000000 0.000000 0.000000 0.112774 0.000000
# 6 0.000000 0.000000 0.000000 0.000000 0.000000 -0.022927
#
#
# Mechanical properties :
#
#
# Convention : Reuss Voigt Hill
#
# Bulk Modulus (GPa) = 54.00778 98.13733 76.07255
# Shear Modulus (GPa) = 33.49973 32.20325 32.85149
#
# Velocity S-wave (km/s) = 3.85066 3.77542 3.81323
# Velocity P-wave (km/s) = 6.60871 7.90205 7.28414
#
# Compressibility (1/GPa) = 0.01851585
#
# Stress axis : x y z
#
# Youngs Moduli (GPa) = 60.78275 194.76819 211.64522
#
# Poissons Ratio (x) = 0.44246 -0.10690
# Poissons Ratio (y) = 0.13808 0.45103
# Poissons Ratio (z) = -0.03070 0.41507
#
# Static dielectric constant tensor:
#      x y z
#    x 3.580070 0.000000 0.000000 
#    y 0.000000 4.539990 0.000000 
#    z 0.000000 0.000000 8.621510 
# 
# 
# High freq. dielectric constant tensor:
#      x y z
#    x 1.860000 0.000000 0.000000 
#    y 0.000000 1.900880 0.000000 
#    z 0.000000 0.000000 1.920870 
# 
# From -- ./inp_files/18176.got.cif
#   From: 2010.03.12/outbox.cif.g09.slc.cpg/sg74_10_cif.got.tgz:18176.got - 2010.04.16 15:46:19.
