data_PCOD8301708
_publ_section_title
;
Structure prediction by ZEFSAII (Michael W. Deem and Ramdas Pophale) SiO2 
 PCOD8301708
Probable space group: I M M A
;
_chemical_formula_sum "Si O2"
_cell_formula_units_Z 96
_cell_length_a 15.648669
_cell_length_b 26.367751
_cell_length_c 11.690510
_cell_angle_alpha 90.000000
_cell_angle_beta 90.000000
_cell_angle_gamma 90.000000
_cell_volume 4823.740664
_symmetry_space_group_name_H-M "I M M A"
_symmetry_group_IT_number 74
_symmetry_cell_setting 'orthorhombic'
loop_
_space_group_symop_operation_xyz
x,y,z
-x,1/2-y,z
x,-y,-z
-x,1/2+y,-z
-x,-y,-z
x,1/2+y,-z
-x,y,z
x,1/2-y,z
1/2+x,1/2+y,1/2+z
1/2-x,-y,1/2+z
1/2+x,1/2-y,1/2-z
1/2-x,y,1/2-z
1/2-x,1/2-y,1/2-z
1/2+x,y,1/2-z
1/2-x,1/2+y,1/2+z
1/2+x,-y,1/2+z
loop_
_atom_site_type_symbol
_atom_site_label
_atom_site_fract_x
_atom_site_fract_y
_atom_site_fract_z
Si Si1 0.153581 0.150707 0.241027
Si Si2 0.500000 0.691809 0.133666
Si Si3 0.900836 0.441370 0.371168
Si Si4 0.000000 0.308718 0.386035
Si Si5 0.655641 0.149159 0.730295
Si Si6 0.399774 0.191809 0.498203
Si Si7 0.598997 0.941790 0.132353
O O1 0.250000 0.172056 0.250000
O O2 0.153002 0.091705 0.280398
O O3 0.088135 0.178993 0.323468
O O4 0.122384 0.159851 0.113466
O O5 0.500000 0.750000 0.107855
O O6 0.413829 0.680639 0.200825
O O7 0.500000 0.663473 0.010262
O O8 0.888624 0.499599 0.335813
O O9 0.869551 0.432359 0.501911
O O10 0.000000 0.425155 0.360815
O O11 0.000000 0.250000 0.403201
O O12 0.750000 0.171165 0.750000
O O13 0.638535 0.156368 0.596714
O O14 0.652031 0.090948 0.775365
O O15 0.500000 0.195504 0.514469
O O16 0.363147 0.250000 0.496318
O O17 0.500000 0.925723 0.144332
#
# Coordination Sequence:
#
# PCOD8301708 Si02
#       7
#    16   8  16   8  16  16  16
#     4  12  25  40  65  94 129 165 209 262 315 377
#     4  11  24  43  66  92 123 165 219 272 312 366
#     4   9  18  37  67  95 122 160 208 260 315 375
#     4  11  24  43  66  92 123 165 219 272 312 366
#     4  12  25  40  65  94 129 165 209 262 315 377
#     4  11  24  44  63  84 126 177 211 250 314 378
#     4   9  18  37  67  95 122 160 208 260 315 375
#
# _framework density 19.901567
#
# number of rings (size 3 to 8) (size 9 to 14) (size 15 to 20)
#    0.000    1.333    3.333    3.000    4.667    3.333 
#    0.000    0.833    0.000    3.000    0.000    0.000 
#    0.000    0.000    0.000    0.000    0.000    0.000 
#
# Total GULP energy -595013.347322 kJ/mol
# GULP energy per Si atom -12396.111403 kJ/mol
# Density = 1.985627 g / cm^3
# Si number density = 19.901567 Si / 1000 Ang^3
#
#
#
# Elastic Constant Matrix: (Units=GPa)
#
#
# Indices 1 2 3 4 5 6 
#
# 1 109.2187 24.4642 20.2683 0.0001 0.0000 0.0002
# 2 24.4642 88.8486 49.7372 0.0001 0.0000 -0.0001
# 3 20.2683 49.7372 111.5044 0.0004 0.0006 -0.0002
# 4 0.0001 0.0001 0.0004 31.8761 0.0008 -0.0007
# 5 0.0000 0.0000 0.0006 0.0008 15.9315 0.0000
# 6 0.0002 -0.0001 -0.0002 -0.0007 0.0000 3.2066
#
#
#
# Elastic Compliance Matrix: (Units=1/GPa)
#
#
# Indices 1 2 3 4 5 6 
#
# 1 0.009807 -0.002269 -0.000771 0.000000 0.000000 -0.000001
# 2 -0.002269 0.015526 -0.006513 0.000000 0.000000 0.000000
# 3 -0.000771 -0.006513 0.012013 0.000000 0.000000 0.000001
# 4 0.000000 0.000000 0.000000 0.031371 -0.000002 0.000007
# 5 0.000000 0.000000 0.000000 -0.000002 0.062769 0.000000
# 6 -0.000001 0.000000 0.000001 0.000007 0.000000 0.311856
#
#
# Mechanical properties :
#
#
# Convention : Reuss Voigt Hill
#
# Bulk Modulus (GPa) = 54.82032 55.39013 55.10523
# Shear Modulus (GPa) = 10.67173 24.54299 17.60736
#
# Velocity S-wave (km/s) = 2.31817 3.51553 2.97765
# Velocity P-wave (km/s) = 5.89667 6.66116 6.29054
#
# Compressibility (1/GPa) = 0.01824141
#
# Stress axis : x y z
#
# Youngs Moduli (GPa) = 101.96604 64.40898 83.24004
#
# Poissons Ratio (x) = 0.14615 0.06414
# Poissons Ratio (y) = 0.23136 0.54214
# Poissons Ratio (z) = 0.07857 0.41949
#
# Static dielectric constant tensor:
#      x y z
#    x 3.668420 0.000040 0.000000 
#    y 0.000040 4.124300 -0.000040 
#    z 0.000000 -0.000040 3.698830 
# 
# 
# High freq. dielectric constant tensor:
#      x y z
#    x 1.766620 0.000000 0.000000 
#    y 0.000000 1.784770 0.000000 
#    z 0.000000 0.000000 1.779050 
# 
# From -- ./inp_files/21056.got.cif
#   From: 2010.03.12/outbox.cif.g09.slc.cpg/sg74_11_cif.got.tgz:21056.got - 2010.04.16 15:46:19.
