data_PCOD8301842
_publ_section_title
;
Structure prediction by ZEFSAII (Michael W. Deem and Ramdas Pophale) SiO2 
 PCOD8301842
Probable space group: P 4
;
_chemical_formula_sum "Si O2"
_cell_formula_units_Z 22
_cell_length_a 8.305045
_cell_length_b 8.305045
_cell_length_c 14.228030
_cell_angle_alpha 90.000000
_cell_angle_beta 90.000000
_cell_angle_gamma 90.000000
_cell_volume 981.360904
_symmetry_space_group_name_H-M "P 4"
_symmetry_group_IT_number 75
_symmetry_cell_setting 'tetragonal'
loop_
_space_group_symop_operation_xyz
x,y,z
-y,x,z
-x,-y,z
y,-x,z
loop_
_atom_site_type_symbol
_atom_site_label
_atom_site_fract_x
_atom_site_fract_y
_atom_site_fract_z
Si Si1 0.135942 0.221031 0.205020
Si Si2 0.715552 0.347386 0.594622
Si Si3 0.679967 0.307945 0.383228
Si Si4 0.000000 0.500000 0.900382
Si Si5 0.904001 0.243185 0.767318
Si Si6 0.253638 0.409593 0.037174
O O1 0.178161 0.238118 0.315161
O O2 0.204433 0.369976 0.144517
O O3 0.948448 0.217346 0.179236
O O4 0.718910 0.537659 0.615239
O O5 0.746464 0.284935 0.488851
O O6 0.859875 0.282624 0.659417
O O7 0.722277 0.492479 0.363610
O O8 0.124816 0.604923 0.836179
O O9 0.106528 0.378290 0.965235
O O10 0.090415 0.206488 0.788087
O O11 0.404818 0.295539 0.018922
#
# Coordination Sequence:
#
# PCOD8301842 Si02
#       6
#     4   4   4   2   4   4
#     4  11  24  40  59  88 127 167 207 258 319 381
#     4   9  19  38  63  90 123 165 212 261 313 376
#     4   9  19  37  62  91 122 160 208 259 315 379
#     4  12  24  44  66  90 126 170 216 266 326 386
#     4  11  24  40  61  91 126 164 209 263 322 383
#     4  11  24  42  66  93 120 158 212 266 316 380
#
# _framework density 22.417850999999999
#
# number of rings (size 3 to 8) (size 9 to 14) (size 15 to 20)
#    0.000    1.636    0.000    5.455    0.000    5.091 
#    0.000    9.091    0.000    0.000    0.000    0.000 
#    0.000    0.000    0.000    0.000    0.000    0.000 
#
# Total GULP energy -272546.876879 kJ/mol
# GULP energy per Si atom -12388.494404 kJ/mol
# Density = 2.236683 g / cm^3
# Si number density = 22.417851 Si / 1000 Ang^3
#
#
#
# Elastic Constant Matrix: (Units=GPa)
#
#
# Indices 1 2 3 4 5 6 
#
# 1 76.9467 35.3918 52.8909 0.0000 0.0000 -8.1779
# 2 35.3918 76.9467 52.8909 0.0000 0.0000 8.1779
# 3 52.8909 52.8909 151.4756 0.0000 0.0000 0.0000
# 4 0.0000 0.0000 0.0000 41.1990 0.0000 0.0000
# 5 0.0000 0.0000 0.0000 0.0000 41.1990 0.0000
# 6 -8.1779 8.1779 0.0000 0.0000 0.0000 30.1026
#
#
#
# Elastic Compliance Matrix: (Units=1/GPa)
#
#
# Indices 1 2 3 4 5 6 
#
# 1 0.020104 -0.006842 -0.004631 0.000000 0.000000 0.007320
# 2 -0.006842 0.020104 -0.004631 0.000000 0.000000 -0.007320
# 3 -0.004631 -0.004631 0.009836 0.000000 0.000000 0.000000
# 4 0.000000 0.000000 0.000000 0.024272 0.000000 0.000000
# 5 0.000000 0.000000 0.000000 0.000000 0.024272 0.000000
# 6 0.007320 -0.007320 0.000000 0.000000 0.000000 0.037197
#
#
# Mechanical properties :
#
#
# Convention : Reuss Voigt Hill
#
# Bulk Modulus (GPa) = 56.06372 65.30181 60.68276
# Shear Modulus (GPa) = 28.74589 33.44645 31.09617
#
# Velocity S-wave (km/s) = 3.58477 3.86678 3.72844
# Velocity P-wave (km/s) = 6.49592 7.00918 6.75742
#
# Compressibility (1/GPa) = 0.01783685
#
# Stress axis : x y z
#
# Youngs Moduli (GPa) = 49.74139 49.74139 101.67162
#
# Poissons Ratio (x) = 0.34032 0.47082
# Poissons Ratio (y) = 0.34032 0.47082
# Poissons Ratio (z) = 0.23034 0.23034
#
# Static dielectric constant tensor:
#      x y z
#    x 3.907370 0.000000 0.000000 
#    y 0.000000 3.907370 0.000000 
#    z 0.000000 0.000000 3.949210 
# 
# 
# High freq. dielectric constant tensor:
#      x y z
#    x 1.877770 0.000000 0.000000 
#    y 0.000000 1.877770 0.000000 
#    z 0.000000 0.000000 1.887080 
# 
# From -- ./inp_files/668.got.cif
#   From: 2010.03.12/outbox.cif.g09.slc.cpg/sg75_cif.got.tgz:668.got - 2010.04.16 16:33:55.
