data_PCOD8301403
_publ_section_title
;
Structure prediction by ZEFSAII (Michael W. Deem and Ramdas Pophale) SiO2 
 PCOD8301403
Probable space group: I M M A
;
_chemical_formula_sum "Si O2"
_cell_formula_units_Z 72
_cell_length_a 9.721355
_cell_length_b 20.308052
_cell_length_c 18.974176
_cell_angle_alpha 90.000000
_cell_angle_beta 90.000000
_cell_angle_gamma 90.000000
_cell_volume 3745.915654
_symmetry_space_group_name_H-M "I M M A"
_symmetry_group_IT_number 74
_symmetry_cell_setting 'orthorhombic'
loop_
_space_group_symop_operation_xyz
x,y,z
-x,1/2-y,z
x,-y,-z
-x,1/2+y,-z
-x,-y,-z
x,1/2+y,-z
-x,y,z
x,1/2-y,z
1/2+x,1/2+y,1/2+z
1/2-x,-y,1/2+z
1/2+x,1/2-y,1/2-z
1/2-x,y,1/2-z
1/2-x,1/2-y,1/2-z
1/2+x,y,1/2-z
1/2-x,1/2+y,1/2+z
1/2+x,-y,1/2+z
loop_
_atom_site_type_symbol
_atom_site_label
_atom_site_fract_x
_atom_site_fract_y
_atom_site_fract_z
Si Si1 0.000000 0.957023 0.281815
Si Si2 0.000000 0.536389 0.571174
Si Si3 0.000000 0.825532 0.704929
Si Si4 0.734384 0.372647 0.103812
Si Si5 0.000000 0.422844 0.173779
Si Si6 0.162788 0.750000 0.984749
Si Si7 0.162073 0.750000 0.146831
Si Si8 0.750000 0.362527 0.750000
O O1 0.129576 0.910022 0.274755
O O2 0.000000 0.993839 0.356909
O O3 0.000000 0.010736 0.219427
O O4 0.000000 0.500000 0.500000
O O5 0.863307 0.578833 0.562051
O O6 0.857870 0.844875 0.667465
O O7 0.000000 0.857643 0.780443
O O8 0.000000 0.750000 0.720721
O O9 0.779512 0.314359 0.052781
O O10 0.862556 0.417756 0.127454
O O11 0.000000 0.750000 0.978778
O O12 0.211982 0.750000 0.065907
O O13 0.215907 0.816323 0.183557
O O14 0.000000 0.750000 0.152612
#
# Coordination Sequence:
#
# PCOD8301403 Si02
#       8
#     8   8   8  16   8   8   8   8
#     4  12  24  42  68  94 130 174 211 272 322 379
#     4  11  27  45  62  92 135 169 218 263 331 404
#     4  11  23  36  61  89 131 170 216 269 312 354
#     4  11  23  42  62  93 129 172 217 264 320 384
#     4  12  24  41  63  96 130 175 225 262 308 389
#     4  11  23  42  67  96 132 172 215 273 328 379
#     4  10  23  46  68  99 130 157 215 275 329 401
#     4  11  24  44  72 100 121 166 216 270 339 384
#
# _framework density 19.220935000000001
#
# number of rings (size 3 to 8) (size 9 to 14) (size 15 to 20)
#    0.000    0.889    5.556    2.000    4.667    0.889 
#    0.000    2.778    0.000    0.000    0.000    0.000 
#    0.000    0.000    0.000    0.000    0.000    0.000 
#
# Total GULP energy -446289.339930 kJ/mol
# GULP energy per Si atom -12396.926109 kJ/mol
# Density = 1.917719 g / cm^3
# Si number density = 19.220935 Si / 1000 Ang^3
#
#
#
# Elastic Constant Matrix: (Units=GPa)
#
#
# Indices 1 2 3 4 5 6 
#
# 1 142.9182 64.3498 59.2518 0.0000 0.0000 0.0000
# 2 64.3498 141.5555 60.9725 0.0000 0.0000 0.0000
# 3 59.2518 60.9725 117.2503 0.0000 0.0000 0.0000
# 4 0.0000 0.0000 0.0000 30.0960 0.0000 0.0000
# 5 0.0000 0.0000 0.0000 0.0000 -118.9028 0.0000
# 6 0.0000 0.0000 0.0000 0.0000 0.0000 88.7746
#
#
#
# Elastic Compliance Matrix: (Units=1/GPa)
#
#
# Indices 1 2 3 4 5 6 
#
# 1 0.009734 -0.002972 -0.003373 0.000000 0.000000 0.000000
# 2 -0.002972 0.010011 -0.003704 0.000000 0.000000 0.000000
# 3 -0.003373 -0.003704 0.012160 0.000000 0.000000 0.000000
# 4 0.000000 0.000000 0.000000 0.033227 0.000000 0.000000
# 5 0.000000 0.000000 0.000000 0.000000 -0.008410 0.000000
# 6 0.000000 0.000000 0.000000 0.000000 0.000000 0.011264
#
#
# Mechanical properties :
#
#
# Convention : Reuss Voigt Hill
#
# Bulk Modulus (GPa) = 84.70575 85.65247 85.17911
# Shear Modulus (GPa) = 54.33659 14.47024 34.40341
#
# Velocity S-wave (km/s) = 5.32267 2.74676 4.23530
# Velocity P-wave (km/s) = 9.05205 7.39719 8.26614
#
# Compressibility (1/GPa) = 0.01180557
#
# Stress axis : x y z
#
# Youngs Moduli (GPa) = 102.73632 99.89263 82.23896
#
# Poissons Ratio (x) = 0.29686 0.27743
# Poissons Ratio (y) = 0.30531 0.30461
# Poissons Ratio (z) = 0.34658 0.37000
#
# Static dielectric constant tensor:
#      x y z
#    x 3.615190 0.000000 0.000000 
#    y 0.000000 3.697530 0.000000 
#    z 0.000000 0.000000 3.248090 
# 
# 
# High freq. dielectric constant tensor:
#      x y z
#    x 1.769890 0.000000 0.000000 
#    y 0.000000 1.764570 0.000000 
#    z 0.000000 0.000000 1.744230 
# 
# From -- ./inp_files/48469.got.cif
#   From: 2010.03.12/outbox.cif.g09.slc.cpg/sg74_25_cif.got.tgz:48469.got - 2010.04.16 15:46:19.
