data_PCOD8301712
_publ_section_title
;
Structure prediction by ZEFSAII (Michael W. Deem and Ramdas Pophale) SiO2 
 PCOD8301712
Probable space group: I M M A
;
_chemical_formula_sum "Si O2"
_cell_formula_units_Z 72
_cell_length_a 14.515337
_cell_length_b 25.196923
_cell_length_c 9.373991
_cell_angle_alpha 90.000000
_cell_angle_beta 90.000000
_cell_angle_gamma 90.000000
_cell_volume 3428.460611
_symmetry_space_group_name_H-M "I M M A"
_symmetry_group_IT_number 74
_symmetry_cell_setting 'orthorhombic'
loop_
_space_group_symop_operation_xyz
x,y,z
-x,1/2-y,z
x,-y,-z
-x,1/2+y,-z
-x,-y,-z
x,1/2+y,-z
-x,y,z
x,1/2-y,z
1/2+x,1/2+y,1/2+z
1/2-x,-y,1/2+z
1/2+x,1/2-y,1/2-z
1/2-x,y,1/2-z
1/2-x,1/2-y,1/2-z
1/2+x,y,1/2-z
1/2-x,1/2+y,1/2+z
1/2+x,-y,1/2+z
loop_
_atom_site_type_symbol
_atom_site_label
_atom_site_fract_x
_atom_site_fract_y
_atom_site_fract_z
Si Si1 0.000000 0.854560 0.298042
Si Si2 0.814132 0.853977 0.876632
Si Si3 0.500000 0.021603 0.839144
Si Si4 0.000000 0.689237 0.987630
Si Si5 0.835849 0.976798 0.842021
Si Si6 0.192519 0.691225 0.391975
O O1 0.910930 0.827580 0.366084
O O2 0.000000 0.915290 0.343209
O O3 0.000000 0.848499 0.126439
O O4 0.750000 0.831417 0.750000
O O5 0.845390 0.913780 0.849677
O O6 0.908211 0.820435 0.893820
O O7 0.748112 0.850819 0.013298
O O8 0.583874 0.000870 0.749232
O O9 0.500000 0.000000 0.000000
O O10 0.000000 0.750000 0.040372
O O11 0.750000 0.995264 0.750000
O O12 0.832233 0.000000 0.000000
O O13 0.189457 0.750000 0.462808
O O14 0.250000 0.694998 0.250000
#
# Coordination Sequence:
#
# PCOD8301712 Si02
#       6
#     8  16   8   8  16  16
#     4  12  26  41  76 103 141 180 234 298 353 410
#     4  11  26  43  70 101 145 185 230 294 355 419
#     4  12  28  45  73 103 142 182 233 292 360 426
#     4  12  23  44  72 100 139 188 240 284 354 422
#     4  11  25  44  71 100 140 183 236 284 345 422
#     4  11  24  44  71 103 138 180 240 291 344 419
#
# _framework density 21.000679999999999
#
# number of rings (size 3 to 8) (size 9 to 14) (size 15 to 20)
#    0.000    0.667    2.222    4.667    9.333    2.667 
#    0.000    0.000    0.000    0.000    0.000    0.000 
#    0.000    0.000    0.000    0.000    0.000    0.000 
#
# Total GULP energy -446400.142678 kJ/mol
# GULP energy per Si atom -12400.003963 kJ/mol
# Density = 2.095288 g / cm^3
# Si number density = 21.000680 Si / 1000 Ang^3
#
#
#
# Elastic Constant Matrix: (Units=GPa)
#
#
# Indices 1 2 3 4 5 6 
#
# 1 184.6405 44.0182 54.7860 -0.0004 -0.0013 -0.0002
# 2 44.0182 105.1368 36.6718 -0.0036 0.0003 -0.0005
# 3 54.7860 36.6718 131.0919 -0.0046 0.0016 -0.0020
# 4 -0.0004 -0.0036 -0.0046 27.7092 0.0002 -0.0008
# 5 -0.0013 0.0003 0.0016 0.0002 64.0828 0.0000
# 6 -0.0002 -0.0005 -0.0020 -0.0008 0.0000 42.4510
#
#
#
# Elastic Compliance Matrix: (Units=1/GPa)
#
#
# Indices 1 2 3 4 5 6 
#
# 1 0.006533 -0.001976 -0.002178 -0.000001 0.000000 0.000000
# 2 -0.001976 0.011137 -0.002290 0.000001 0.000000 0.000000
# 3 -0.002178 -0.002290 0.009179 0.000001 0.000000 0.000000
# 4 -0.000001 0.000001 0.000001 0.036089 0.000000 0.000001
# 5 0.000000 0.000000 0.000000 0.000000 0.015605 0.000000
# 6 0.000000 0.000000 0.000000 0.000001 0.000000 0.023557
#
#
# Mechanical properties :
#
#
# Convention : Reuss Voigt Hill
#
# Bulk Modulus (GPa) = 71.61847 76.86903 74.24375
# Shear Modulus (GPa) = 41.79191 45.87482 43.83337
#
# Velocity S-wave (km/s) = 4.46581 4.67887 4.57358
# Velocity P-wave (km/s) = 7.79540 8.11614 7.95739
#
# Compressibility (1/GPa) = 0.01396288
#
# Stress axis : x y z
#
# Youngs Moduli (GPa) = 153.06742 89.78837 108.94573
#
# Poissons Ratio (x) = 0.17739 0.23724
# Poissons Ratio (y) = 0.30241 0.24947
# Poissons Ratio (z) = 0.33332 0.20560
#
# Static dielectric constant tensor:
#      x y z
#    x 4.024590 0.000000 0.000000 
#    y 0.000000 3.896130 -0.000010 
#    z 0.000000 -0.000010 3.848600 
# 
# 
# High freq. dielectric constant tensor:
#      x y z
#    x 1.849490 0.000000 0.000000 
#    y 0.000000 1.832460 0.000000 
#    z 0.000000 0.000000 1.826480 
# 
# From -- ./inp_files/9171.got.cif
#   From: 2010.03.12/outbox.cif.g09.slc.cpg/sg74_5_cif.got.tgz:9171.got - 2010.04.16 15:46:19.
