data_PCOD8301295
_publ_section_title
;
Structure prediction by ZEFSAII (Michael W. Deem and Ramdas Pophale) SiO2 
 PCOD8301295
Probable space group: I M M A
;
_chemical_formula_sum "Si O2"
_cell_formula_units_Z 64
_cell_length_a 20.460152
_cell_length_b 8.794683
_cell_length_c 17.918251
_cell_angle_alpha 90.000000
_cell_angle_beta 90.000000
_cell_angle_gamma 90.000000
_cell_volume 3224.219957
_symmetry_space_group_name_H-M "I M M A"
_symmetry_group_IT_number 74
_symmetry_cell_setting 'orthorhombic'
loop_
_space_group_symop_operation_xyz
x,y,z
-x,1/2-y,z
x,-y,-z
-x,1/2+y,-z
-x,-y,-z
x,1/2+y,-z
-x,y,z
x,1/2-y,z
1/2+x,1/2+y,1/2+z
1/2-x,-y,1/2+z
1/2+x,1/2-y,1/2-z
1/2-x,y,1/2-z
1/2-x,1/2-y,1/2-z
1/2+x,y,1/2-z
1/2-x,1/2+y,1/2+z
1/2+x,-y,1/2+z
loop_
_atom_site_type_symbol
_atom_site_label
_atom_site_fract_x
_atom_site_fract_y
_atom_site_fract_z
Si Si1 0.500000 0.069324 0.168931
Si Si2 0.500000 0.430542 0.337886
Si Si3 0.126371 0.570872 0.581136
Si Si4 0.755606 0.924820 0.335221
Si Si5 0.378331 0.426302 0.579608
O O1 0.500000 0.250000 0.170140
O O2 0.500000 0.006404 0.253293
O O3 0.564081 0.007191 0.126639
O O4 0.500000 0.250000 0.339892
O O5 0.436587 0.489960 0.379272
O O6 0.126920 0.500000 0.500000
O O7 0.122371 0.750000 0.572165
O O8 0.191903 0.529614 0.624547
O O9 0.778208 0.750000 0.341407
O O10 0.750000 0.977439 0.250000
O O11 0.686055 0.951440 0.372374
O O12 0.365956 0.500000 0.500000
O O13 0.396043 0.250000 0.569959
#
# Coordination Sequence:
#
# PCOD8301295 Si02
#       5
#     8   8  16  16  16
#     4   9  21  39  59  86 117 151 190 235 286 342
#     4  11  22  39  62  86 114 147 190 239 286 340
#     4  11  22  38  60  86 118 154 194 237 285 340
#     4  10  22  40  61  87 118 151 191 239 289 343
#     4  11  23  39  59  84 116 152 190 233 284 340
#
# _framework density 19.849761999999998
#
# number of rings (size 3 to 8) (size 9 to 14) (size 15 to 20)
#    0.000    1.500    0.000    4.875    0.000    4.500 
#    0.000    5.625    0.000    0.000    0.000    0.000 
#    0.000    0.000    0.000    0.000    0.000    0.000 
#
# Total GULP energy -396985.864380 kJ/mol
# GULP energy per Si atom -12405.808262 kJ/mol
# Density = 1.980458 g / cm^3
# Si number density = 19.849762 Si / 1000 Ang^3
#
#
#
# Elastic Constant Matrix: (Units=GPa)
#
#
# Indices 1 2 3 4 5 6 
#
# 1 95.5453 45.5250 49.8619 0.0000 0.0000 0.0000
# 2 45.5250 85.1935 52.4774 0.0000 0.0000 0.0000
# 3 49.8619 52.4774 178.8961 0.0000 0.0000 0.0000
# 4 0.0000 0.0000 0.0000 88.1673 0.0000 0.0000
# 5 0.0000 0.0000 0.0000 0.0000 36.4988 0.0000
# 6 0.0000 0.0000 0.0000 0.0000 0.0000 338.7672
#
#
#
# Elastic Compliance Matrix: (Units=1/GPa)
#
#
# Indices 1 2 3 4 5 6 
#
# 1 0.014712 -0.006513 -0.002190 0.000000 0.000000 0.000000
# 2 -0.006513 0.017210 -0.003233 0.000000 0.000000 0.000000
# 3 -0.002190 -0.003233 0.007149 0.000000 0.000000 0.000000
# 4 0.000000 0.000000 0.000000 0.011342 0.000000 0.000000
# 5 0.000000 0.000000 0.000000 0.000000 0.027398 0.000000
# 6 0.000000 0.000000 0.000000 0.000000 0.000000 0.002952
#
#
# Mechanical properties :
#
#
# Convention : Reuss Voigt Hill
#
# Bulk Modulus (GPa) = 65.79487 72.81817 69.30652
# Shear Modulus (GPa) = 45.57834 106.80471 76.19152
#
# Velocity S-wave (km/s) = 4.79703 7.34325 6.20221
# Velocity P-wave (km/s) = 7.99377 10.42411 9.28877
#
# Compressibility (1/GPa) = 0.01519875
#
# Stress axis : x y z
#
# Youngs Moduli (GPa) = 67.96987 58.10662 139.88607
#
# Poissons Ratio (x) = 0.37844 0.30638
# Poissons Ratio (y) = 0.44267 0.45226
# Poissons Ratio (z) = 0.14887 0.18786
#
# Static dielectric constant tensor:
#      x y z
#    x 3.777750 0.000000 0.000000 
#    y 0.000000 3.600950 0.000000 
#    z 0.000000 0.000000 3.923630 
# 
# 
# High freq. dielectric constant tensor:
#      x y z
#    x 1.791580 0.000000 0.000000 
#    y 0.000000 1.769960 0.000000 
#    z 0.000000 0.000000 1.797310 
# 
# From -- ./inp_files/39111.got.cif
#   From: 2010.03.12/outbox.cif.g09.slc.cpg/sg74_20_cif.got.tgz:39111.got - 2010.04.16 15:46:19.
