data_PCOD8301135
_publ_section_title
;
Structure prediction by ZEFSAII (Michael W. Deem and Ramdas Pophale) SiO2 
 PCOD8301135
Probable space group: I M M A
;
_chemical_formula_sum "Si O2"
_cell_formula_units_Z 48
_cell_length_a 7.923106
_cell_length_b 7.761329
_cell_length_c 37.964951
_cell_angle_alpha 90.000000
_cell_angle_beta 90.000000
_cell_angle_gamma 90.000000
_cell_volume 2334.610333
_symmetry_space_group_name_H-M "I M M A"
_symmetry_group_IT_number 74
_symmetry_cell_setting 'orthorhombic'
loop_
_space_group_symop_operation_xyz
x,y,z
-x,1/2-y,z
x,-y,-z
-x,1/2+y,-z
-x,-y,-z
x,1/2+y,-z
-x,y,z
x,1/2-y,z
1/2+x,1/2+y,1/2+z
1/2-x,-y,1/2+z
1/2+x,1/2-y,1/2-z
1/2-x,y,1/2-z
1/2-x,1/2-y,1/2-z
1/2+x,y,1/2-z
1/2-x,1/2+y,1/2+z
1/2+x,-y,1/2+z
loop_
_atom_site_type_symbol
_atom_site_label
_atom_site_fract_x
_atom_site_fract_y
_atom_site_fract_z
Si Si1 0.000000 0.952563 0.459545
Si Si2 0.697652 0.060723 0.337728
Si Si3 0.695871 0.750000 0.209941
Si Si4 0.809809 0.046589 0.914305
O O1 0.827676 0.028111 0.442050
O O2 0.000000 0.750000 0.453735
O O3 0.000000 0.000000 0.500000
O O4 0.500000 0.073596 0.340593
O O5 0.773178 0.250000 0.328023
O O6 0.739368 0.923577 0.307907
O O7 0.763620 0.002610 0.375956
O O8 0.500000 0.750000 0.206319
O O9 0.750000 0.750000 0.250000
O O10 0.821464 0.250000 0.917035
O O11 0.000000 0.970468 0.921296
#
# Coordination Sequence:
#
# PCOD8301135 Si02
#       4
#     8  16   8  16
#     4  10  22  36  54  82 120 160 206 260 318 376
#     4  10  21  39  65  94 122 158 209 263 314 377
#     4  12  26  42  64  90 128 170 206 258 322 378
#     4   9  18  35  59  84 116 159 206 256 313 377
#
# _framework density 20.560175000000001
#
# number of rings (size 3 to 8) (size 9 to 14) (size 15 to 20)
#    0.000    2.000    1.667    1.500    2.333    3.333 
#    0.000    0.000    0.000    0.000    0.000    0.000 
#    0.000    0.000    0.000    0.000    0.000    0.000 
#
# Total GULP energy -297454.041236 kJ/mol
# GULP energy per Si atom -12393.918385 kJ/mol
# Density = 2.051338 g / cm^3
# Si number density = 20.560175 Si / 1000 Ang^3
#
#
#
# Elastic Constant Matrix: (Units=GPa)
#
#
# Indices 1 2 3 4 5 6 
#
# 1 89.1748 29.1703 59.3986 0.0000 0.0000 0.0000
# 2 29.1703 77.3781 47.2246 0.0000 0.0000 0.0000
# 3 59.3986 47.2246 179.2754 0.0000 0.0000 0.0000
# 4 0.0000 0.0000 0.0000 27.2703 0.0000 0.0000
# 5 0.0000 0.0000 0.0000 0.0000 39.0762 0.0000
# 6 0.0000 0.0000 0.0000 0.0000 0.0000 5.8577
#
#
#
# Elastic Compliance Matrix: (Units=1/GPa)
#
#
# Indices 1 2 3 4 5 6 
#
# 1 0.014997 -0.003123 -0.004146 0.000000 0.000000 0.000000
# 2 -0.003123 0.016050 -0.003193 0.000000 0.000000 0.000000
# 3 -0.004146 -0.003193 0.007793 0.000000 0.000000 0.000000
# 4 0.000000 0.000000 0.000000 0.036670 0.000000 0.000000
# 5 0.000000 0.000000 0.000000 0.000000 0.025591 0.000000
# 6 0.000000 0.000000 0.000000 0.000000 0.000000 0.170716
#
#
# Mechanical properties :
#
#
# Convention : Reuss Voigt Hill
#
# Bulk Modulus (GPa) = 55.81948 68.60170 62.21059
# Shear Modulus (GPa) = 16.73847 28.44316 22.59082
#
# Velocity S-wave (km/s) = 2.85638 3.72346 3.31836
# Velocity P-wave (km/s) = 6.17145 7.20585 6.70861
#
# Compressibility (1/GPa) = 0.01791489
#
# Stress axis : x y z
#
# Youngs Moduli (GPa) = 66.67820 62.30651 128.32219
#
# Poissons Ratio (x) = 0.19460 0.53206
# Poissons Ratio (y) = 0.20825 0.40973
# Poissons Ratio (z) = 0.27647 0.19894
#
# Static dielectric constant tensor:
#      x y z
#    x 4.433020 0.000000 0.000000 
#    y 0.000000 3.856420 0.000000 
#    z 0.000000 0.000000 2.678080 
# 
# 
# High freq. dielectric constant tensor:
#      x y z
#    x 1.811250 0.000000 0.000000 
#    y 0.000000 1.802250 0.000000 
#    z 0.000000 0.000000 1.795380 
# 
# From -- ./inp_files/69513.got.cif
#   From: 2010.03.12/outbox.cif.g09.slc.cpg/sg74_35_cif.got.tgz:69513.got - 2010.04.16 15:46:19.
