data_PCOD8301786
_publ_section_title
;
Structure prediction by ZEFSAII (Michael W. Deem and Ramdas Pophale) SiO2 
 PCOD8301786
Probable space group: I M M A
;
_chemical_formula_sum "Si O2"
_cell_formula_units_Z 72
_cell_length_a 15.627298
_cell_length_b 9.301369
_cell_length_c 28.740233
_cell_angle_alpha 90.000000
_cell_angle_beta 90.000000
_cell_angle_gamma 90.000000
_cell_volume 4177.544189
_symmetry_space_group_name_H-M "I M M A"
_symmetry_group_IT_number 74
_symmetry_cell_setting 'orthorhombic'
loop_
_space_group_symop_operation_xyz
x,y,z
-x,1/2-y,z
x,-y,-z
-x,1/2+y,-z
-x,-y,-z
x,1/2+y,-z
-x,y,z
x,1/2-y,z
1/2+x,1/2+y,1/2+z
1/2-x,-y,1/2+z
1/2+x,1/2-y,1/2-z
1/2-x,y,1/2-z
1/2-x,1/2-y,1/2-z
1/2+x,y,1/2-z
1/2-x,1/2+y,1/2+z
1/2+x,-y,1/2+z
loop_
_atom_site_type_symbol
_atom_site_label
_atom_site_fract_x
_atom_site_fract_y
_atom_site_fract_z
Si Si1 0.500000 0.912919 0.275563
Si Si2 0.184839 0.917913 0.548419
Si Si3 0.500000 0.087628 0.613795
Si Si4 0.000000 0.085873 0.453478
Si Si5 0.665845 0.417448 0.277447
Si Si6 0.164275 0.582511 0.885302
O O1 0.500000 0.750000 0.256503
O O2 0.500000 0.916396 0.330879
O O3 0.415095 0.994204 0.257559
O O4 0.196760 0.750000 0.537810
O O5 0.090528 0.948868 0.571996
O O6 0.253602 0.970826 0.585950
O O7 0.197652 0.000000 0.500000
O O8 0.500000 0.250000 0.594618
O O9 0.583698 0.006008 0.595148
O O10 0.000000 0.250000 0.468632
O O11 0.000000 0.000000 0.500000
O O12 0.646280 0.250000 0.269092
O O13 0.750000 0.467633 0.250000
O O14 0.682158 0.451367 0.331467
O O15 0.144640 0.750000 0.892713
#
# Coordination Sequence:
#
# PCOD8301786 Si02
#       6
#     8  16   8   8  16  16
#     4   9  17  29  46  67  91 121 154 186 223 268
#     4   9  17  29  46  67  90 117 148 182 221 263
#     4   9  17  29  46  67  88 116 153 186 219 265
#     4   8  14  26  43  62  84 111 143 174 207 255
#     4   9  17  30  48  69  92 119 152 188 225 267
#     4   9  17  30  47  67  91 118 148 184 225 265
#
# _framework density 17.235005999999998
#
# number of rings (size 3 to 8) (size 9 to 14) (size 15 to 20)
#    0.000    3.111    0.000    0.667    0.000    4.000 
#    0.000    1.667    0.000    5.333    0.000    6.222 
#    0.000    0.000    0.000    0.000    0.000    0.000 
#
# Total GULP energy -446132.772043 kJ/mol
# GULP energy per Si atom -12392.577001 kJ/mol
# Density = 1.719578 g / cm^3
# Si number density = 17.235006 Si / 1000 Ang^3
#
#
#
# Elastic Constant Matrix: (Units=GPa)
#
#
# Indices 1 2 3 4 5 6 
#
# 1 206.6733 75.0753 60.2506 0.0000 0.0000 0.0000
# 2 75.0753 69.5703 28.5379 0.0000 0.0000 0.0000
# 3 60.2506 28.5379 45.9382 0.0000 0.0000 0.0000
# 4 0.0000 0.0000 0.0000 16.7025 0.0000 0.0000
# 5 0.0000 0.0000 0.0000 0.0000 30.6706 0.0000
# 6 0.0000 0.0000 0.0000 0.0000 0.0000 22.6638
#
#
#
# Elastic Compliance Matrix: (Units=1/GPa)
#
#
# Indices 1 2 3 4 5 6 
#
# 1 0.009969 -0.007239 -0.008578 0.000000 0.000000 0.000000
# 2 -0.007239 0.024546 -0.005754 0.000000 0.000000 0.000000
# 3 -0.008578 -0.005754 0.036593 0.000000 0.000000 0.000000
# 4 0.000000 0.000000 0.000000 0.059871 0.000000 0.000000
# 5 0.000000 0.000000 0.000000 0.000000 0.032605 0.000000
# 6 0.000000 0.000000 0.000000 0.000000 0.000000 0.044123
#
#
# Mechanical properties :
#
#
# Convention : Reuss Voigt Hill
#
# Bulk Modulus (GPa) = 35.75731 72.21215 53.98473
# Shear Modulus (GPa) = 19.21815 24.56191 21.89003
#
# Velocity S-wave (km/s) = 3.34288 3.77917 3.56770
# Velocity P-wave (km/s) = 5.97426 7.81232 6.95428
#
# Compressibility (1/GPa) = 0.02796631
#
# Stress axis : x y z
#
# Youngs Moduli (GPa) = 100.31347 40.73952 27.32761
#
# Poissons Ratio (x) = 0.29491 0.23440
# Poissons Ratio (y) = 0.72617 0.15725
# Poissons Ratio (z) = 0.86044 0.23443
#
# Static dielectric constant tensor:
#      x y z
#    x 3.827410 0.000000 0.000000 
#    y 0.000000 3.112940 0.000000 
#    z 0.000000 0.000000 2.771310 
# 
# 
# High freq. dielectric constant tensor:
#      x y z
#    x 1.687530 0.000000 0.000000 
#    y 0.000000 1.664330 0.000000 
#    z 0.000000 0.000000 1.616040 
# 
# From -- ./inp_files/70006.got.cif
#   From: 2010.03.12/outbox.cif.g09.slc.cpg/sg74_36_cif.got.tgz:70006.got - 2010.04.16 15:46:19.
