data_PCOD8301320
_publ_section_title
;
Structure prediction by ZEFSAII (Michael W. Deem and Ramdas Pophale) SiO2 
 PCOD8301320
Probable space group: I M M A
;
_chemical_formula_sum "Si O2"
_cell_formula_units_Z 96
_cell_length_a 18.934458
_cell_length_b 16.964151
_cell_length_c 14.924191
_cell_angle_alpha 90.000000
_cell_angle_beta 90.000000
_cell_angle_gamma 90.000000
_cell_volume 4793.754687
_symmetry_space_group_name_H-M "I M M A"
_symmetry_group_IT_number 74
_symmetry_cell_setting 'orthorhombic'
loop_
_space_group_symop_operation_xyz
x,y,z
-x,1/2-y,z
x,-y,-z
-x,1/2+y,-z
-x,-y,-z
x,1/2+y,-z
-x,y,z
x,1/2-y,z
1/2+x,1/2+y,1/2+z
1/2-x,-y,1/2+z
1/2+x,1/2-y,1/2-z
1/2-x,y,1/2-z
1/2-x,1/2-y,1/2-z
1/2+x,y,1/2-z
1/2-x,1/2+y,1/2+z
1/2+x,-y,1/2+z
loop_
_atom_site_type_symbol
_atom_site_label
_atom_site_fract_x
_atom_site_fract_y
_atom_site_fract_z
Si Si1 0.580404 0.840937 0.366881
Si Si2 0.163538 0.658201 0.480644
Si Si3 0.683499 0.408264 0.488965
Si Si4 0.082783 0.591302 0.647889
Si Si5 0.177832 0.341650 0.204033
Si Si6 0.917570 0.410325 0.678871
O O1 0.500000 0.860347 0.394230
O O2 0.589184 0.750000 0.340525
O O3 0.629109 0.860616 0.450391
O O4 0.603379 0.892270 0.281059
O O5 0.175373 0.750000 0.500666
O O6 0.237938 0.614556 0.482772
O O7 0.112624 0.621372 0.554476
O O8 0.127815 0.646601 0.384361
O O9 0.670880 0.500000 0.500000
O O10 0.666662 0.389014 0.386608
O O11 0.113370 0.641332 0.729869
O O12 0.102734 0.500041 0.658275
O O13 0.000000 0.605184 0.647720
O O14 0.181741 0.250000 0.180434
O O15 0.250000 0.370677 0.250000
O O16 0.000000 0.393131 0.661933
#
# Coordination Sequence:
#
# PCOD8301320 Si02
#       6
#    16  16  16  16  16  16
#     4  10  22  42  66  92 124 162 206 257 312 372
#     4  12  24  39  61  92 128 166 211 258 313 376
#     4  12  25  42  65  93 124 165 209 259 313 371
#     4  11  23  40  64  94 125 162 212 261 308 376
#     4  11  23  41  63  88 125 167 203 251 314 371
#     4  10  22  41  63  91 128 166 205 257 317 369
#
# _framework density 20.026057000000002
#
# number of rings (size 3 to 8) (size 9 to 14) (size 15 to 20)
#    0.000    1.000    1.667    5.500    0.000    6.000 
#    0.000    1.667    0.000    0.000    0.000    0.000 
#    0.000    0.000    0.000    0.000    0.000    0.000 
#
# Total GULP energy -595594.492333 kJ/mol
# GULP energy per Si atom -12408.218590 kJ/mol
# Density = 1.998048 g / cm^3
# Si number density = 20.026057 Si / 1000 Ang^3
#
#
#
# Elastic Constant Matrix: (Units=GPa)
#
#
# Indices 1 2 3 4 5 6 
#
# 1 79.6065 1.9178 44.2895 0.0000 0.0000 0.0000
# 2 1.9178 45.4254 14.5075 0.0000 0.0000 0.0000
# 3 44.2895 14.5075 127.4152 0.0000 0.0000 0.0000
# 4 0.0000 0.0000 0.0000 36.1266 0.0000 0.0000
# 5 0.0000 0.0000 0.0000 0.0000 5.0212 0.0000
# 6 0.0000 0.0000 0.0000 0.0000 0.0000 29.9894
#
#
#
# Elastic Compliance Matrix: (Units=1/GPa)
#
#
# Indices 1 2 3 4 5 6 
#
# 1 0.015628 0.001116 -0.005559 0.000000 0.000000 0.000000
# 2 0.001116 0.022925 -0.002998 0.000000 0.000000 0.000000
# 3 -0.005559 -0.002998 0.010122 0.000000 0.000000 0.000000
# 4 0.000000 0.000000 0.000000 0.027680 0.000000 0.000000
# 5 0.000000 0.000000 0.000000 0.000000 0.199156 0.000000
# 6 0.000000 0.000000 0.000000 0.000000 0.000000 0.033345
#
#
# Mechanical properties :
#
#
# Convention : Reuss Voigt Hill
#
# Bulk Modulus (GPa) = 29.59342 41.54185 35.56763
# Shear Modulus (GPa) = 14.92525 27.00960 20.96743
#
# Velocity S-wave (km/s) = 2.73296 3.67648 3.23926
# Velocity P-wave (km/s) = 4.97678 6.22984 5.63823
#
# Compressibility (1/GPa) = 0.03379130
#
# Stress axis : x y z
#
# Youngs Moduli (GPa) = 63.98840 43.62145 98.79367
#
# Poissons Ratio (x) = -0.04867 0.54922
# Poissons Ratio (y) = -0.07139 0.29618
# Poissons Ratio (z) = 0.35573 0.13078
#
# Static dielectric constant tensor:
#      x y z
#    x 3.694460 0.000000 0.000000 
#    y 0.000000 3.747130 0.000000 
#    z 0.000000 0.000000 3.708860 
# 
# 
# High freq. dielectric constant tensor:
#      x y z
#    x 1.786550 0.000000 0.000000 
#    y 0.000000 1.794860 0.000000 
#    z 0.000000 0.000000 1.794110 
# 
# From -- ./inp_files/32354.got.cif
#   From: 2010.03.12/outbox.cif.g09.slc.cpg/sg74_17_cif.got.tgz:32354.got - 2010.04.16 15:46:19.
