data_PCOD8301547
_publ_section_title
;
Structure prediction by ZEFSAII (Michael W. Deem and Ramdas Pophale) SiO2 
 PCOD8301547
Probable space group: I M M A
;
_chemical_formula_sum "Si O2"
_cell_formula_units_Z 64
_cell_length_a 7.448375
_cell_length_b 22.568589
_cell_length_c 22.489607
_cell_angle_alpha 90.000000
_cell_angle_beta 90.000000
_cell_angle_gamma 90.000000
_cell_volume 3780.487511
_symmetry_space_group_name_H-M "I M M A"
_symmetry_group_IT_number 74
_symmetry_cell_setting 'orthorhombic'
loop_
_space_group_symop_operation_xyz
x,y,z
-x,1/2-y,z
x,-y,-z
-x,1/2+y,-z
-x,-y,-z
x,1/2+y,-z
-x,y,z
x,1/2-y,z
1/2+x,1/2+y,1/2+z
1/2-x,-y,1/2+z
1/2+x,1/2-y,1/2-z
1/2-x,y,1/2-z
1/2-x,1/2-y,1/2-z
1/2+x,y,1/2-z
1/2-x,1/2+y,1/2+z
1/2+x,-y,1/2+z
loop_
_atom_site_type_symbol
_atom_site_label
_atom_site_fract_x
_atom_site_fract_y
_atom_site_fract_z
Si Si1 0.500000 0.517581 0.596951
Si Si2 0.212008 0.313389 0.356452
Si Si3 0.500000 0.904140 0.479629
Si Si4 0.293704 0.682809 0.991856
Si Si5 0.209770 0.561931 0.684143
O O1 0.500000 0.563924 0.543333
O O2 0.500000 0.450921 0.573401
O O3 0.321128 0.524545 0.636496
O O4 0.288830 0.250000 0.331844
O O5 0.275064 0.321574 0.424142
O O6 0.278669 0.369410 0.318163
O O7 0.000000 0.310107 0.355895
O O8 0.675108 0.863085 0.470731
O O9 0.500000 0.663192 0.997979
O O10 0.267106 0.750000 0.015267
O O11 0.250000 0.537743 0.750000
O O12 0.000000 0.556108 0.667969
#
# Coordination Sequence:
#
# PCOD8301547 Si02
#       5
#     8  16   8  16  16
#     4  11  24  36  48  80 100 145 188 218 266 301
#     4   8  15  28  46  70  99 132 175 218 259 302
#     4  11  21  34  54  74 113 135 184 222 250 329
#     4   9  17  31  52  77 105 137 169 211 268 316
#     4  11  21  36  54  69 100 140 183 228 265 304
#
# _framework density 16.929034000000001
#
# number of rings (size 3 to 8) (size 9 to 14) (size 15 to 20)
#    0.000    2.250    3.750    1.875    0.000    1.500 
#    0.000    3.125    0.000    0.000    0.000    0.000 
#    0.000    4.000    0.000    0.000    0.000    0.000 
#
# Total GULP energy -396633.164405 kJ/mol
# GULP energy per Si atom -12394.786388 kJ/mol
# Density = 1.689050 g / cm^3
# Si number density = 16.929034 Si / 1000 Ang^3
#
#
#
# Elastic Constant Matrix: (Units=GPa)
#
#
# Indices 1 2 3 4 5 6 
#
# 1 103.8152 51.8838 37.6183 0.0000 0.0000 0.0000
# 2 51.8838 95.9660 49.7977 0.0000 0.0000 0.0000
# 3 37.6183 49.7977 73.7080 0.0000 0.0000 0.0000
# 4 0.0000 0.0000 0.0000 23.3790 0.0000 0.0000
# 5 0.0000 0.0000 0.0000 0.0000 20.4225 0.0000
# 6 0.0000 0.0000 0.0000 0.0000 0.0000 25.3743
#
#
#
# Elastic Compliance Matrix: (Units=1/GPa)
#
#
# Indices 1 2 3 4 5 6 
#
# 1 0.013629 -0.005788 -0.003045 0.000000 0.000000 0.000000
# 2 -0.005788 0.018504 -0.009547 0.000000 0.000000 0.000000
# 3 -0.003045 -0.009547 0.021571 0.000000 0.000000 0.000000
# 4 0.000000 0.000000 0.000000 0.042773 0.000000 0.000000
# 5 0.000000 0.000000 0.000000 0.000000 0.048966 0.000000
# 6 0.000000 0.000000 0.000000 0.000000 0.000000 0.039410
#
#
# Mechanical properties :
#
#
# Convention : Reuss Voigt Hill
#
# Bulk Modulus (GPa) = 59.02199 61.34319 60.18259
# Shear Modulus (GPa) = 22.00106 22.78113 22.39110
#
# Velocity S-wave (km/s) = 3.60891 3.67234 3.64076
# Velocity P-wave (km/s) = 7.23227 7.36855 7.30073
#
# Compressibility (1/GPa) = 0.01694284
#
# Stress axis : x y z
#
# Youngs Moduli (GPa) = 73.37471 54.04263 46.35764
#
# Poissons Ratio (x) = 0.31281 0.14116
# Poissons Ratio (y) = 0.42470 0.44259
# Poissons Ratio (z) = 0.22343 0.51596
#
# Static dielectric constant tensor:
#      x y z
#    x 3.125920 0.000000 0.000000 
#    y 0.000000 3.270920 0.000000 
#    z 0.000000 0.000000 2.814400 
# 
# 
# High freq. dielectric constant tensor:
#      x y z
#    x 1.662630 0.000000 0.000000 
#    y 0.000000 1.638230 0.000000 
#    z 0.000000 0.000000 1.604810 
# 
# From -- ./inp_files/48292.got.cif
#   From: 2010.03.12/outbox.cif.g09.slc.cpg/sg74_25_cif.got.tgz:48292.got - 2010.04.16 15:46:19.
