data_PCOD8301036
_publ_section_title
;
Structure prediction by ZEFSAII (Michael W. Deem and Ramdas Pophale) SiO2 
 PCOD8301036
Probable space group: I M M A
;
_chemical_formula_sum "Si O2"
_cell_formula_units_Z 80
_cell_length_a 15.543189
_cell_length_b 8.703078
_cell_length_c 28.969253
_cell_angle_alpha 90.000000
_cell_angle_beta 90.000000
_cell_angle_gamma 90.000000
_cell_volume 3918.774744
_symmetry_space_group_name_H-M "I M M A"
_symmetry_group_IT_number 74
_symmetry_cell_setting 'orthorhombic'
loop_
_space_group_symop_operation_xyz
x,y,z
-x,1/2-y,z
x,-y,-z
-x,1/2+y,-z
-x,-y,-z
x,1/2+y,-z
-x,y,z
x,1/2-y,z
1/2+x,1/2+y,1/2+z
1/2-x,-y,1/2+z
1/2+x,1/2-y,1/2-z
1/2-x,y,1/2-z
1/2-x,1/2-y,1/2-z
1/2+x,y,1/2-z
1/2-x,1/2+y,1/2+z
1/2+x,-y,1/2+z
loop_
_atom_site_type_symbol
_atom_site_label
_atom_site_fract_x
_atom_site_fract_y
_atom_site_fract_z
Si Si1 0.342099 0.430923 0.047097
Si Si2 0.344854 0.068483 0.547496
Si Si3 0.404579 0.073272 0.863791
Si Si4 0.754769 0.931456 0.197490
Si Si5 0.903833 0.925890 0.862006
O O1 0.332468 0.250000 0.041569
O O2 0.250013 0.505435 0.057085
O O3 0.402725 0.472127 0.089887
O O4 0.381992 0.500000 0.000000
O O5 0.341984 0.250000 0.543294
O O6 0.383058 0.000000 0.500000
O O7 0.403446 0.019189 0.590181
O O8 0.500000 0.053763 0.841882
O O9 0.386730 0.250000 0.877025
O O10 0.333253 0.015305 0.827467
O O11 0.766969 0.750000 0.194394
O O12 0.750000 0.988474 0.250000
O O13 0.837318 0.008161 0.174693
O O14 0.879722 0.750000 0.872456
O O15 0.000000 0.940845 0.841235
#
# Coordination Sequence:
#
# PCOD8301036 Si02
#       5
#    16  16  16  16  16
#     4  11  21  35  58  87 121 161 203 247 297 356
#     4  11  21  36  60  89 123 163 205 249 301 359
#     4  10  21  38  60  88 123 161 201 248 301 361
#     4  10  22  41  66  93 121 157 202 254 310 365
#     4  11  24  41  62  91 126 164 205 251 304 362
#
# _framework density 20.414545
#
# number of rings (size 3 to 8) (size 9 to 14) (size 15 to 20)
#    0.000    1.400    2.000    5.400    0.000    4.000 
#    0.000    2.000    0.000    0.000    0.000    0.000 
#    0.000    0.000    0.000    0.000    0.000    0.000 
#
# Total GULP energy -496117.238133 kJ/mol
# GULP energy per Si atom -12402.930953 kJ/mol
# Density = 2.036808 g / cm^3
# Si number density = 20.414545 Si / 1000 Ang^3
#
#
#
# Elastic Constant Matrix: (Units=GPa)
#
#
# Indices 1 2 3 4 5 6 
#
# 1 124.4682 41.5592 72.9884 0.0000 0.0000 0.0000
# 2 41.5592 120.1688 57.6559 0.0000 0.0000 0.0000
# 3 72.9884 57.6559 153.3511 0.0000 0.0000 0.0000
# 4 0.0000 0.0000 0.0000 30.6942 0.0000 0.0000
# 5 0.0000 0.0000 0.0000 0.0000 11.7967 0.0000
# 6 0.0000 0.0000 0.0000 0.0000 0.0000 26.2751
#
#
#
# Elastic Compliance Matrix: (Units=1/GPa)
#
#
# Indices 1 2 3 4 5 6 
#
# 1 0.011402 -0.001634 -0.004812 0.000000 0.000000 0.000000
# 2 -0.001634 0.010387 -0.003128 0.000000 0.000000 0.000000
# 3 -0.004812 -0.003128 0.009987 0.000000 0.000000 0.000000
# 4 0.000000 0.000000 0.000000 0.032579 0.000000 0.000000
# 5 0.000000 0.000000 0.000000 0.000000 0.084769 0.000000
# 6 0.000000 0.000000 0.000000 0.000000 0.000000 0.038059
#
#
# Mechanical properties :
#
#
# Convention : Reuss Voigt Hill
#
# Bulk Modulus (GPa) = 79.18766 82.48834 80.83800
# Shear Modulus (GPa) = 23.74827 28.80553 26.27690
#
# Velocity S-wave (km/s) = 3.41442 3.76044 3.59160
# Velocity P-wave (km/s) = 7.37688 7.70383 7.54213
#
# Compressibility (1/GPa) = 0.01262823
#
# Stress axis : x y z
#
# Youngs Moduli (GPa) = 87.70528 96.27058 100.12715
#
# Poissons Ratio (x) = 0.15734 0.48184
# Poissons Ratio (y) = 0.14334 0.31315
# Poissons Ratio (z) = 0.42207 0.30109
#
# Static dielectric constant tensor:
#      x y z
#    x 3.659960 0.000000 0.000000 
#    y 0.000000 3.696680 0.000000 
#    z 0.000000 0.000000 3.785680 
# 
# 
# High freq. dielectric constant tensor:
#      x y z
#    x 1.796990 0.000000 0.000000 
#    y 0.000000 1.800980 0.000000 
#    z 0.000000 0.000000 1.793680 
# 
# From -- ./inp_files/72851.got.cif
#   From: 2010.03.12/outbox.cif.g09.slc.cpg/sg74_37_cif.got.tgz:72851.got - 2010.04.16 15:46:19.
