data_PCOD8301220
_publ_section_title
;
Structure prediction by ZEFSAII (Michael W. Deem and Ramdas Pophale) SiO2 
 PCOD8301220
Probable space group: I M M A
;
_chemical_formula_sum "Si O2"
_cell_formula_units_Z 80
_cell_length_a 9.096226
_cell_length_b 25.147669
_cell_length_c 18.213146
_cell_angle_alpha 90.000000
_cell_angle_beta 90.000000
_cell_angle_gamma 90.000000
_cell_volume 4166.236760
_symmetry_space_group_name_H-M "I M M A"
_symmetry_group_IT_number 74
_symmetry_cell_setting 'orthorhombic'
loop_
_space_group_symop_operation_xyz
x,y,z
-x,1/2-y,z
x,-y,-z
-x,1/2+y,-z
-x,-y,-z
x,1/2+y,-z
-x,y,z
x,1/2-y,z
1/2+x,1/2+y,1/2+z
1/2-x,-y,1/2+z
1/2+x,1/2-y,1/2-z
1/2-x,y,1/2-z
1/2-x,1/2-y,1/2-z
1/2+x,y,1/2-z
1/2-x,1/2+y,1/2+z
1/2+x,-y,1/2+z
loop_
_atom_site_type_symbol
_atom_site_label
_atom_site_fract_x
_atom_site_fract_y
_atom_site_fract_z
Si Si1 0.328205 0.310277 0.175781
Si Si2 0.170269 0.997294 0.326233
Si Si3 0.672147 0.092201 0.581249
Si Si4 0.829293 0.690435 0.176856
Si Si5 0.831324 0.902568 0.569807
O O1 0.500000 0.315856 0.190827
O O2 0.283126 0.250000 0.155064
O O3 0.250000 0.329109 0.250000
O O4 0.280325 0.348030 0.108867
O O5 0.250000 0.007732 0.250000
O O6 0.242847 0.948078 0.367021
O O7 0.000000 0.984175 0.312082
O O8 0.190034 0.049797 0.373940
O O9 0.500000 0.079022 0.584065
O O10 0.707189 0.151760 0.609225
O O11 0.727037 0.086759 0.498595
O O12 0.775854 0.750000 0.155706
O O13 0.750000 0.669606 0.250000
O O14 0.000000 0.689799 0.195432
O O15 0.000000 0.898931 0.542914
#
# Coordination Sequence:
#
# PCOD8301220 Si02
#       5
#    16  16  16  16  16
#     4   9  18  34  56  81 109 142 182 226 270 319
#     4  11  23  39  59  81 108 142 180 223 269 320
#     4  11  23  37  56  82 111 143 180 223 269 320
#     4   9  19  36  56  79 107 139 177 220 265 314
#     4  10  22  38  55  79 112 146 179 220 271 322
#
# _framework density 19.201979999999999
#
# number of rings (size 3 to 8) (size 9 to 14) (size 15 to 20)
#    0.000    2.000    0.000    3.000    0.000    8.800 
#    0.000    0.000    0.000    0.000    0.000    0.000 
#    0.000    0.000    0.000    0.000    0.000    0.000 
#
# Total GULP energy -496143.040128 kJ/mol
# GULP energy per Si atom -12403.576003 kJ/mol
# Density = 1.915828 g / cm^3
# Si number density = 19.201980 Si / 1000 Ang^3
#
#
#
# Elastic Constant Matrix: (Units=GPa)
#
#
# Indices 1 2 3 4 5 6 
#
# 1 93.4320 49.9077 62.6899 0.0000 0.0000 0.0000
# 2 49.9077 92.4428 43.7728 0.0000 0.0000 0.0001
# 3 62.6899 43.7728 114.4596 0.0000 0.0000 0.0002
# 4 0.0000 0.0000 0.0000 13.8463 0.0000 0.0001
# 5 0.0000 0.0000 0.0000 0.0000 37.7019 0.0000
# 6 0.0000 0.0001 0.0002 0.0001 0.0000 22.0764
#
#
#
# Elastic Compliance Matrix: (Units=1/GPa)
#
#
# Indices 1 2 3 4 5 6 
#
# 1 0.019915 -0.006822 -0.008299 0.000000 0.000000 0.000000
# 2 -0.006822 0.015547 -0.002209 0.000000 0.000000 0.000000
# 3 -0.008299 -0.002209 0.014127 0.000000 0.000000 0.000000
# 4 0.000000 0.000000 0.000000 0.072221 0.000000 0.000000
# 5 0.000000 0.000000 0.000000 0.000000 0.026524 0.000000
# 6 0.000000 0.000000 0.000000 0.000000 0.000000 0.045297
#
#
# Mechanical properties :
#
#
# Convention : Reuss Voigt Hill
#
# Bulk Modulus (GPa) = 66.98409 68.11949 67.55179
# Shear Modulus (GPa) = 21.43467 24.32252 22.87860
#
# Velocity S-wave (km/s) = 3.34469 3.56289 3.45551
# Velocity P-wave (km/s) = 7.06227 7.24416 7.15379
#
# Compressibility (1/GPa) = 0.01492892
#
# Stress axis : x y z
#
# Youngs Moduli (GPa) = 50.21269 64.32260 70.78823
#
# Poissons Ratio (x) = 0.43883 0.58744
# Poissons Ratio (y) = 0.34257 0.15636
# Poissons Ratio (z) = 0.41670 0.14208
#
# Static dielectric constant tensor:
#      x y z
#    x 3.569010 0.000000 0.000000 
#    y 0.000000 3.878230 0.000000 
#    z 0.000000 0.000000 3.500360 
# 
# 
# High freq. dielectric constant tensor:
#      x y z
#    x 1.749510 0.000000 0.000000 
#    y 0.000000 1.762980 0.000000 
#    z 0.000000 0.000000 1.745440 
# 
# From -- ./inp_files/39696.got.cif
#   From: 2010.03.12/outbox.cif.g09.slc.cpg/sg74_20_cif.got.tgz:39696.got - 2010.04.16 15:46:19.
