data_PCOD8301039
_publ_section_title
;
Structure prediction by ZEFSAII (Michael W. Deem and Ramdas Pophale) SiO2 
 PCOD8301039
Probable space group: I M M A
;
_chemical_formula_sum "Si O2"
_cell_formula_units_Z 88
_cell_length_a 9.202402
_cell_length_b 16.075512
_cell_length_c 29.961347
_cell_angle_alpha 90.000000
_cell_angle_beta 90.000000
_cell_angle_gamma 90.000000
_cell_volume 4432.281647
_symmetry_space_group_name_H-M "I M M A"
_symmetry_group_IT_number 74
_symmetry_cell_setting 'orthorhombic'
loop_
_space_group_symop_operation_xyz
x,y,z
-x,1/2-y,z
x,-y,-z
-x,1/2+y,-z
-x,-y,-z
x,1/2+y,-z
-x,y,z
x,1/2-y,z
1/2+x,1/2+y,1/2+z
1/2-x,-y,1/2+z
1/2+x,1/2-y,1/2-z
1/2-x,y,1/2-z
1/2-x,1/2-y,1/2-z
1/2+x,y,1/2-z
1/2-x,1/2+y,1/2+z
1/2+x,-y,1/2+z
loop_
_atom_site_type_symbol
_atom_site_label
_atom_site_fract_x
_atom_site_fract_y
_atom_site_fract_z
Si Si1 0.671944 0.071128 0.365314
Si Si2 0.669772 0.655313 0.543499
Si Si3 0.328957 0.750000 0.202581
Si Si4 0.661429 0.346711 0.209027
Si Si5 0.837833 0.651584 0.457888
Si Si6 0.672399 0.901913 0.138956
O O1 0.500000 0.070104 0.357725
O O2 0.712384 0.094109 0.416161
O O3 0.745038 0.142149 0.335573
O O4 0.741285 0.984957 0.348824
O O5 0.500000 0.655116 0.534925
O O6 0.722694 0.750000 0.553615
O O7 0.742508 0.617898 0.498960
O O8 0.500000 0.750000 0.211288
O O9 0.250000 0.750000 0.250000
O O10 0.282633 0.668952 0.174239
O O11 0.500000 0.387473 0.205323
O O12 0.642441 0.250000 0.218149
O O13 0.750000 0.388471 0.250000
O O14 0.836950 0.750000 0.457668
O O15 0.774023 0.622479 0.410572
O O16 0.000000 0.616851 0.464452
O O17 0.500000 0.916644 0.140020
#
# Coordination Sequence:
#
# PCOD8301039 Si02
#       6
#    16  16   8  16  16  16
#     4  11  23  37  55  83 120 156 192 234 283 341
#     4   9  19  35  54  79 114 155 192 232 282 333
#     4  10  22  42  66  88 112 144 186 240 299 356
#     4  10  21  38  61  86 112 147 190 233 280 335
#     4   9  17  33  58  82 106 144 194 240 286 344
#     4  10  21  39  60  82 112 148 187 237 296 349
#
# _framework density 19.854334999999999
#
# number of rings (size 3 to 8) (size 9 to 14) (size 15 to 20)
#    0.000    2.182    0.909    1.636    0.000    6.182 
#    0.000    7.273    0.000    0.000    0.000    0.000 
#    0.000    0.000    0.000    0.000    0.000    0.000 
#
# Total GULP energy -545569.702154 kJ/mol
# GULP energy per Si atom -12399.311413 kJ/mol
# Density = 1.980915 g / cm^3
# Si number density = 19.854335 Si / 1000 Ang^3
#
#
#
# Elastic Constant Matrix: (Units=GPa)
#
#
# Indices 1 2 3 4 5 6 
#
# 1 79.1741 32.2777 63.2603 0.0000 0.0000 0.0000
# 2 32.2777 62.4035 34.1503 0.0000 0.0000 0.0000
# 3 63.2603 34.1503 141.1927 0.0000 0.0000 0.0000
# 4 0.0000 0.0000 0.0000 15.7042 0.0000 0.0000
# 5 0.0000 0.0000 0.0000 0.0000 40.4479 0.0000
# 6 0.0000 0.0000 0.0000 0.0000 0.0000 26.3862
#
#
#
# Elastic Compliance Matrix: (Units=1/GPa)
#
#
# Indices 1 2 3 4 5 6 
#
# 1 0.021974 -0.006890 -0.008179 0.000000 0.000000 0.000000
# 2 -0.006890 0.020630 -0.001903 0.000000 0.000000 0.000000
# 3 -0.008179 -0.001903 0.011207 0.000000 0.000000 0.000000
# 4 0.000000 0.000000 0.000000 0.063677 0.000000 0.000000
# 5 0.000000 0.000000 0.000000 0.000000 0.024723 0.000000
# 6 0.000000 0.000000 0.000000 0.000000 0.000000 0.037899
#
#
# Mechanical properties :
#
#
# Convention : Reuss Voigt Hill
#
# Bulk Modulus (GPa) = 50.33232 60.23855 55.28544
# Shear Modulus (GPa) = 22.65760 26.71312 24.68536
#
# Velocity S-wave (km/s) = 3.38182 3.67202 3.52990
# Velocity P-wave (km/s) = 6.37611 6.95589 6.67230
#
# Compressibility (1/GPa) = 0.01986795
#
# Stress axis : x y z
#
# Youngs Moduli (GPa) = 45.50766 48.47346 89.22829
#
# Poissons Ratio (x) = 0.33399 0.72979
# Poissons Ratio (y) = 0.31355 0.16977
# Poissons Ratio (z) = 0.37220 0.09223
#
# Static dielectric constant tensor:
#      x y z
#    x 3.689500 0.000000 0.000000 
#    y 0.000000 3.431390 0.000000 
#    z 0.000000 0.000000 3.745970 
# 
# 
# High freq. dielectric constant tensor:
#      x y z
#    x 1.771430 0.000000 0.000000 
#    y 0.000000 1.759580 0.000000 
#    z 0.000000 0.000000 1.783450 
# 
# From -- ./inp_files/70311.got.cif
#   From: 2010.03.12/outbox.cif.g09.slc.cpg/sg74_36_cif.got.tgz:70311.got - 2010.04.16 15:46:19.
