data_PCOD8301920
_publ_section_title
;
Structure prediction by ZEFSAII (Michael W. Deem and Ramdas Pophale) SiO2 
 PCOD8301920
Probable space group: P 41
;
_chemical_formula_sum "Si O2"
_cell_formula_units_Z 28
_cell_length_a 8.901395
_cell_length_b 8.901395
_cell_length_c 17.226988
_cell_angle_alpha 90.000000
_cell_angle_beta 90.000000
_cell_angle_gamma 90.000000
_cell_volume 1364.977516
_symmetry_space_group_name_H-M "P 41"
_symmetry_group_IT_number 76
_symmetry_cell_setting 'tetragonal'
loop_
_space_group_symop_operation_xyz
x,y,z
-y,x,1/4+z
-x,-y,1/2+z
y,-x,3/4+z
loop_
_atom_site_type_symbol
_atom_site_label
_atom_site_fract_x
_atom_site_fract_y
_atom_site_fract_z
Si Si1 0.757575 0.931526 0.029600
Si Si2 0.778451 0.840463 0.651177
Si Si3 0.425794 0.352449 0.256805
Si Si4 0.680565 0.144365 0.247670
Si Si5 0.505384 0.045033 0.645680
Si Si6 0.651500 0.654376 0.929902
Si Si7 0.028661 0.933559 0.423524
O O1 0.606161 0.977519 0.073205
O O2 0.887337 0.893908 0.092581
O O3 0.728399 0.797679 0.969271
O O4 0.829908 0.071783 0.982642
O O5 0.716763 0.733720 0.719506
O O6 0.851345 0.733330 0.586310
O O7 0.901788 0.957966 0.679681
O O8 0.646233 0.945732 0.618347
O O9 0.588637 0.296188 0.224871
O O10 0.415092 0.529505 0.239184
O O11 0.428787 0.311099 0.348066
O O12 0.824057 0.111175 0.193777
O O13 0.562630 0.010363 0.228263
O O14 0.535485 0.219761 0.659139
#
# Coordination Sequence:
#
# PCOD8301920 Si02
#       7
#     4   4   4   4   4   4   4
#     4  11  24  42  66 102 134 176 224 288 341 417
#     4  11  22  43  71  97 132 178 229 286 340 421
#     4  11  25  44  70  96 135 182 236 285 350 411
#     4  10  23  45  63  99 131 173 228 285 342 408
#     4  10  24  43  66  98 139 173 232 282 342 422
#     4  12  23  44  67  97 136 180 230 280 347 418
#     4  11  23  41  69  99 137 178 227 286 354 403
#
# _framework density 20.513159000000002
#
# number of rings (size 3 to 8) (size 9 to 14) (size 15 to 20)
#    0.000    1.143    5.714    0.000    4.000    0.000 
#    7.714    0.000    0.000    0.000    0.000    0.000 
#    0.000    0.000    0.000    0.000    0.000    0.000 
#
# Total GULP energy -346970.552262 kJ/mol
# GULP energy per Si atom -12391.805438 kJ/mol
# Density = 2.046647 g / cm^3
# Si number density = 20.513159 Si / 1000 Ang^3
#
#
#
# Elastic Constant Matrix: (Units=GPa)
#
#
# Indices 1 2 3 4 5 6 
#
# 1 107.2774 43.5234 41.3187 0.0000 0.0000 -0.2971
# 2 43.5234 107.2774 41.3187 0.0000 0.0000 0.2971
# 3 41.3187 41.3187 123.4359 0.0000 0.0000 0.0000
# 4 0.0000 0.0000 0.0000 36.8109 0.0000 0.0000
# 5 0.0000 0.0000 0.0000 0.0000 36.8109 0.0000
# 6 -0.2971 0.2971 0.0000 0.0000 0.0000 27.1752
#
#
#
# Elastic Compliance Matrix: (Units=1/GPa)
#
#
# Indices 1 2 3 4 5 6 
#
# 1 0.011904 -0.003783 -0.002718 0.000000 0.000000 0.000171
# 2 -0.003783 0.011904 -0.002718 0.000000 0.000000 -0.000171
# 3 -0.002718 -0.002718 0.009921 0.000000 0.000000 0.000000
# 4 0.000000 0.000000 0.000000 0.027166 0.000000 0.000000
# 5 0.000000 0.000000 0.000000 0.000000 0.027166 0.000000
# 6 0.000171 -0.000171 0.000000 0.000000 0.000000 0.036802
#
#
# Mechanical properties :
#
#
# Convention : Reuss Voigt Hill
#
# Bulk Modulus (GPa) = 65.40405 65.59023 65.49714
# Shear Modulus (GPa) = 33.69296 34.28137 33.98716
#
# Velocity S-wave (km/s) = 4.05718 4.09245 4.07485
# Velocity P-wave (km/s) = 7.34171 7.37394 7.35785
#
# Compressibility (1/GPa) = 0.01528957
#
# Stress axis : x y z
#
# Youngs Moduli (GPa) = 84.00605 84.00605 100.79365
#
# Poissons Ratio (x) = 0.31779 0.27400
# Poissons Ratio (y) = 0.31779 0.27400
# Poissons Ratio (z) = 0.22836 0.22836
#
# Static dielectric constant tensor:
#      x y z
#    x 3.815470 0.000000 0.000000 
#    y 0.000000 3.815470 0.000000 
#    z 0.000000 0.000000 3.799130 
# 
# 
# High freq. dielectric constant tensor:
#      x y z
#    x 1.802990 0.000000 0.000000 
#    y 0.000000 1.802990 0.000000 
#    z 0.000000 0.000000 1.803100 
# 
# From -- ./inp_files/1252.got.cif
#   From: 2010.03.12/outbox.cif.g09.slc.cpg/sg76_cif.got.tgz:1252.got - 2010.04.16 16:34:25.
