data_PCOD8301181
_publ_section_title
;
Structure prediction by ZEFSAII (Michael W. Deem and Ramdas Pophale) SiO2 
 PCOD8301181
Probable space group: I M M A
;
_chemical_formula_sum "Si O2"
_cell_formula_units_Z 80
_cell_length_a 13.116961
_cell_length_b 29.707095
_cell_length_c 9.787031
_cell_angle_alpha 90.000000
_cell_angle_beta 90.000000
_cell_angle_gamma 90.000000
_cell_volume 3813.681115
_symmetry_space_group_name_H-M "I M M A"
_symmetry_group_IT_number 74
_symmetry_cell_setting 'orthorhombic'
loop_
_space_group_symop_operation_xyz
x,y,z
-x,1/2-y,z
x,-y,-z
-x,1/2+y,-z
-x,-y,-z
x,1/2+y,-z
-x,y,z
x,1/2-y,z
1/2+x,1/2+y,1/2+z
1/2-x,-y,1/2+z
1/2+x,1/2-y,1/2-z
1/2-x,y,1/2-z
1/2-x,1/2-y,1/2-z
1/2+x,y,1/2-z
1/2-x,1/2+y,1/2+z
1/2+x,-y,1/2+z
loop_
_atom_site_type_symbol
_atom_site_label
_atom_site_fract_x
_atom_site_fract_y
_atom_site_fract_z
Si Si1 0.000000 0.110934 0.761135
Si Si2 0.780046 0.965098 0.400675
Si Si3 0.500000 0.089151 0.185368
Si Si4 0.340526 0.623590 0.030810
Si Si5 0.500000 0.347949 0.440167
Si Si6 0.000000 0.016739 0.672346
Si Si7 0.212848 0.801630 0.902821
O O1 0.000000 0.134980 0.905199
O O2 0.000000 0.943766 0.210230
O O3 0.903531 0.127049 0.671163
O O4 0.750000 0.979036 0.250000
O O5 0.751673 0.914056 0.442109
O O6 0.722527 0.000000 0.500000
O O7 0.902479 0.970611 0.420370
O O8 0.500000 0.110673 0.335286
O O9 0.500000 0.035287 0.217583
O O10 0.597870 0.106389 0.101768
O O11 0.286837 0.670817 0.003624
O O12 0.596892 0.316628 0.415200
O O13 0.223130 0.750000 0.947128
O O14 0.250000 0.809669 0.750000
#
# Coordination Sequence:
#
# PCOD8301181 Si02
#       7
#     8  16   8  16   8   8  16
#     4   9  24  41  66  94 149 174 215 263 338 384
#     4  11  23  39  64  93 132 176 223 266 318 387
#     4  11  20  41  73  91 127 179 237 254 321 387
#     4  10  22  43  66  96 128 184 212 271 326 401
#     4  12  25  43  67 104 132 170 214 291 325 402
#     4  10  21  43  58  89 132 187 208 261 304 390
#     4  11  25  46  72  99 129 168 223 285 342 397
#
# _framework density 20.977107
#
# number of rings (size 3 to 8) (size 9 to 14) (size 15 to 20)
#    0.000    1.400    4.000    1.200    5.600    2.800 
#    0.000    5.000    0.000    0.000    0.000    0.000 
#    0.000    0.000    0.000    0.000    0.000    0.000 
#
# Total GULP energy -495719.685847 kJ/mol
# GULP energy per Si atom -12392.992146 kJ/mol
# Density = 2.092936 g / cm^3
# Si number density = 20.977107 Si / 1000 Ang^3
#
#
#
# Elastic Constant Matrix: (Units=GPa)
#
#
# Indices 1 2 3 4 5 6 
#
# 1 79.2109 59.9376 40.7931 -0.0002 0.0003 0.0000
# 2 59.9376 182.7979 89.3191 -0.0019 0.0008 -0.0003
# 3 40.7931 89.3191 154.7706 -0.0031 0.0021 0.0006
# 4 -0.0002 -0.0019 -0.0031 31.6037 0.0001 -0.0001
# 5 0.0003 0.0008 0.0021 0.0001 13.5270 0.0000
# 6 0.0000 -0.0003 0.0006 -0.0001 0.0000 33.6289
#
#
#
# Elastic Compliance Matrix: (Units=1/GPa)
#
#
# Indices 1 2 3 4 5 6 
#
# 1 0.017133 -0.004751 -0.001774 0.000000 0.000000 0.000000
# 2 -0.004751 0.008936 -0.003905 0.000000 0.000000 0.000000
# 3 -0.001774 -0.003905 0.009182 0.000001 -0.000001 0.000000
# 4 0.000000 0.000000 0.000001 0.031642 0.000000 0.000000
# 5 0.000000 0.000000 -0.000001 0.000000 0.073926 0.000000
# 6 0.000000 0.000000 0.000000 0.000000 0.000000 0.029736
#
#
# Mechanical properties :
#
#
# Convention : Reuss Voigt Hill
#
# Bulk Modulus (GPa) = 69.48357 88.54212 79.01284
# Shear Modulus (GPa) = 25.48241 30.86722 28.17481
#
# Velocity S-wave (km/s) = 3.48914 3.84014 3.66884
# Velocity P-wave (km/s) = 7.03047 7.87164 7.46292
#
# Compressibility (1/GPa) = 0.01439189
#
# Stress axis : x y z
#
# Youngs Moduli (GPa) = 58.36663 111.90190 108.90432
#
# Poissons Ratio (x) = 0.53164 0.19320
# Poissons Ratio (y) = 0.27730 0.42528
# Poissons Ratio (z) = 0.10354 0.43698
#
# Static dielectric constant tensor:
#      x y z
#    x 3.882100 0.000000 0.000000 
#    y 0.000000 3.985740 0.000000 
#    z 0.000000 0.000000 3.638980 
# 
# 
# High freq. dielectric constant tensor:
#      x y z
#    x 1.815770 0.000000 0.000000 
#    y 0.000000 1.824840 0.000000 
#    z 0.000000 0.000000 1.819350 
# 
# From -- ./inp_files/19047.got.cif
#   From: 2010.03.12/outbox.cif.g09.slc.cpg/sg74_10_cif.got.tgz:19047.got - 2010.04.16 15:46:19.
