data_PCOD8301660
_publ_section_title
;
Structure prediction by ZEFSAII (Michael W. Deem and Ramdas Pophale) SiO2 
 PCOD8301660
Probable space group: I M M A
;
_chemical_formula_sum "Si O2"
_cell_formula_units_Z 80
_cell_length_a 9.406236
_cell_length_b 14.666373
_cell_length_c 29.297237
_cell_angle_alpha 90.000000
_cell_angle_beta 90.000000
_cell_angle_gamma 90.000000
_cell_volume 4041.711044
_symmetry_space_group_name_H-M "I M M A"
_symmetry_group_IT_number 74
_symmetry_cell_setting 'orthorhombic'
loop_
_space_group_symop_operation_xyz
x,y,z
-x,1/2-y,z
x,-y,-z
-x,1/2+y,-z
-x,-y,-z
x,1/2+y,-z
-x,y,z
x,1/2-y,z
1/2+x,1/2+y,1/2+z
1/2-x,-y,1/2+z
1/2+x,1/2-y,1/2-z
1/2-x,y,1/2-z
1/2-x,1/2-y,1/2-z
1/2+x,y,1/2-z
1/2-x,1/2+y,1/2+z
1/2+x,-y,1/2+z
loop_
_atom_site_type_symbol
_atom_site_label
_atom_site_fract_x
_atom_site_fract_y
_atom_site_fract_z
Si Si1 0.668538 0.850320 0.150546
Si Si2 0.663548 0.642580 0.632416
Si Si3 0.157154 0.141597 0.030507
Si Si4 0.669452 0.973899 0.796468
Si Si5 0.656690 0.141919 0.949209
O O1 0.500000 0.845045 0.145543
O O2 0.727685 0.750000 0.164807
O O3 0.727207 0.879700 0.100403
O O4 0.713236 0.923753 0.188378
O O5 0.500000 0.612174 0.641770
O O6 0.676630 0.750000 0.639560
O O7 0.710919 0.614320 0.581102
O O8 0.775001 0.596144 0.666036
O O9 0.155322 0.250000 0.026762
O O10 0.000000 0.102582 0.023021
O O11 0.252823 0.098132 0.990435
O O12 0.500000 0.962777 0.790507
O O13 0.750000 0.951420 0.750000
O O14 0.500000 0.098604 0.952640
O O15 0.647709 0.250000 0.954938
#
# Coordination Sequence:
#
# PCOD8301660 Si02
#       5
#    16  16  16  16  16
#     4   8  16  33  55  78 106 140 175 211 255 307
#     4   9  19  37  58  78 105 141 176 212 257 309
#     4   8  14  26  46  73 104 136 168 204 249 298
#     4  11  23  38  57  79 103 133 172 221 270 314
#     4   8  13  24  46  74 102 134 171 207 243 291
#
# _framework density 19.793596000000001
#
# number of rings (size 3 to 8) (size 9 to 14) (size 15 to 20)
#    0.000    3.200    0.000    3.000    0.000    2.000 
#    0.000    5.000    0.000   10.200    0.000    0.000 
#    0.000    0.000    0.000    0.000    0.000    0.000 
#
# Total GULP energy -495705.761960 kJ/mol
# GULP energy per Si atom -12392.644049 kJ/mol
# Density = 1.974855 g / cm^3
# Si number density = 19.793596 Si / 1000 Ang^3
#
#
#
# Elastic Constant Matrix: (Units=GPa)
#
#
# Indices 1 2 3 4 5 6 
#
# 1 64.2806 5.5691 24.8986 0.0000 0.0000 0.0000
# 2 5.5691 22.1247 -6.3362 0.0000 0.0000 0.0000
# 3 24.8986 -6.3362 64.1363 0.0000 0.0000 0.0000
# 4 0.0000 0.0000 0.0000 111.3209 0.0000 0.0000
# 5 0.0000 0.0000 0.0000 0.0000 30.7963 0.0000
# 6 0.0000 0.0000 0.0000 0.0000 0.0000 16.1228
#
#
#
# Elastic Compliance Matrix: (Units=1/GPa)
#
#
# Indices 1 2 3 4 5 6 
#
# 1 0.019374 -0.007235 -0.008236 0.000000 0.000000 0.000000
# 2 -0.007235 0.049216 0.007671 0.000000 0.000000 0.000000
# 3 -0.008236 0.007671 0.019547 0.000000 0.000000 0.000000
# 4 0.000000 0.000000 0.000000 0.008983 0.000000 0.000000
# 5 0.000000 0.000000 0.000000 0.000000 0.032471 0.000000
# 6 0.000000 0.000000 0.000000 0.000000 0.000000 0.062024
#
#
# Mechanical properties :
#
#
# Convention : Reuss Voigt Hill
#
# Bulk Modulus (GPa) = 13.78613 22.08939 17.93776
# Shear Modulus (GPa) = 21.60809 40.07534 30.84171
#
# Velocity S-wave (km/s) = 3.30763 4.50451 3.95164
# Velocity P-wave (km/s) = 4.64406 6.18370 5.46834
#
# Compressibility (1/GPa) = 0.07253667
#
# Stress axis : x y z
#
# Youngs Moduli (GPa) = 51.61616 20.31846 51.15890
#
# Poissons Ratio (x) = 0.14701 0.42134
# Poissons Ratio (y) = 0.37346 -0.39244
# Poissons Ratio (z) = 0.42511 -0.15586
#
# Static dielectric constant tensor:
#      x y z
#    x 3.605750 0.000000 0.000000 
#    y 0.000000 3.417390 0.000000 
#    z 0.000000 0.000000 3.746200 
# 
# 
# High freq. dielectric constant tensor:
#      x y z
#    x 1.747320 0.000000 0.000000 
#    y 0.000000 1.753350 0.000000 
#    z 0.000000 0.000000 1.777120 
# 
# From -- ./inp_files/63935.got.cif
#   From: 2010.03.12/outbox.cif.g09.slc.cpg/sg74_32_cif.got.tgz:63935.got - 2010.04.16 15:46:19.
