data_PCOD8301505
_publ_section_title
;
Structure prediction by ZEFSAII (Michael W. Deem and Ramdas Pophale) SiO2 
 PCOD8301505
Probable space group: I M M A
;
_chemical_formula_sum "Si O2"
_cell_formula_units_Z 80
_cell_length_a 18.161341
_cell_length_b 19.686663
_cell_length_c 11.547932
_cell_angle_alpha 90.000000
_cell_angle_beta 90.000000
_cell_angle_gamma 90.000000
_cell_volume 4128.803724
_symmetry_space_group_name_H-M "I M M A"
_symmetry_group_IT_number 74
_symmetry_cell_setting 'orthorhombic'
loop_
_space_group_symop_operation_xyz
x,y,z
-x,1/2-y,z
x,-y,-z
-x,1/2+y,-z
-x,-y,-z
x,1/2+y,-z
-x,y,z
x,1/2-y,z
1/2+x,1/2+y,1/2+z
1/2-x,-y,1/2+z
1/2+x,1/2-y,1/2-z
1/2-x,y,1/2-z
1/2-x,1/2-y,1/2-z
1/2+x,y,1/2-z
1/2-x,1/2+y,1/2+z
1/2+x,-y,1/2+z
loop_
_atom_site_type_symbol
_atom_site_label
_atom_site_fract_x
_atom_site_fract_y
_atom_site_fract_z
Si Si1 0.084823 0.250000 0.099194
Si Si2 0.239473 0.427217 0.559332
Si Si3 0.810934 0.870282 0.844426
Si Si4 0.418810 0.486583 0.367226
Si Si5 0.584093 0.750000 0.324590
Si Si6 0.359840 0.894963 0.254037
O O1 0.125786 0.314577 0.150560
O O2 0.000000 0.250000 0.140503
O O3 0.089135 0.250000 0.961530
O O4 0.228751 0.500000 0.500000
O O5 0.265953 0.373107 0.464278
O O6 0.298032 0.426561 0.661997
O O7 0.162542 0.403817 0.619072
O O8 0.750000 0.852883 0.750000
O O9 0.855509 0.938874 0.813196
O O10 0.394513 0.500000 0.500000
O O11 0.500000 0.452048 0.367386
O O12 0.427159 0.555662 0.290502
O O13 0.500000 0.750000 0.281741
O O14 0.624496 0.683927 0.274765
#
# Coordination Sequence:
#
# PCOD8301505 Si02
#       6
#     8  16  16  16   8  16
#     4  11  23  40  59  89 123 153 205 268 318 375
#     4  11  21  36  58  90 122 156 200 248 312 363
#     4  12  22  38  60  85 122 160 209 255 311 373
#     4  11  20  34  58  88 119 158 203 257 320 372
#     4  11  22  39  62  92 127 162 203 264 321 369
#     4  11  21  36  61  88 129 157 200 261 307 373
#
# _framework density 19.376071
#
# number of rings (size 3 to 8) (size 9 to 14) (size 15 to 20)
#    0.000    0.800    6.000    2.700    0.000    5.600 
#    0.000    0.000    0.000   14.400    0.000    0.000 
#    0.000    0.000    0.000    0.000    0.000    0.000 
#
# Total GULP energy -495795.677269 kJ/mol
# GULP energy per Si atom -12394.891932 kJ/mol
# Density = 1.933197 g / cm^3
# Si number density = 19.376071 Si / 1000 Ang^3
#
#
#
# Elastic Constant Matrix: (Units=GPa)
#
#
# Indices 1 2 3 4 5 6 
#
# 1 113.9528 61.0206 59.8957 0.0000 0.0000 0.0000
# 2 61.0206 147.8493 47.6125 0.0000 0.0000 0.0000
# 3 59.8957 47.6125 87.2469 0.0000 0.0000 0.0000
# 4 0.0000 0.0000 0.0000 6.4228 0.0000 0.0000
# 5 0.0000 0.0000 0.0000 0.0000 22.0960 0.0000
# 6 0.0000 0.0000 0.0000 0.0000 0.0000 33.3606
#
#
#
# Elastic Compliance Matrix: (Units=1/GPa)
#
#
# Indices 1 2 3 4 5 6 
#
# 1 0.015095 -0.003510 -0.008448 0.000000 0.000000 0.000000
# 2 -0.003510 0.009022 -0.002514 0.000000 0.000000 0.000000
# 3 -0.008448 -0.002514 0.018633 0.000000 0.000000 0.000000
# 4 0.000000 0.000000 0.000000 0.155696 0.000000 0.000000
# 5 0.000000 0.000000 0.000000 0.000000 0.045257 0.000000
# 6 0.000000 0.000000 0.000000 0.000000 0.000000 0.029975
#
#
# Mechanical properties :
#
#
# Convention : Reuss Voigt Hill
#
# Bulk Modulus (GPa) = 72.42491 76.23405 74.32948
# Shear Modulus (GPa) = 16.27480 24.41056 20.34268
#
# Velocity S-wave (km/s) = 2.90132 3.55326 3.24371
# Velocity P-wave (km/s) = 6.97734 7.50094 7.24387
#
# Compressibility (1/GPa) = 0.01380740
#
# Stress axis : x y z
#
# Youngs Moduli (GPa) = 66.24610 110.84346 53.66810
#
# Poissons Ratio (x) = 0.38903 0.45337
# Poissons Ratio (y) = 0.23250 0.13492
# Poissons Ratio (z) = 0.55963 0.27865
#
# Static dielectric constant tensor:
#      x y z
#    x 3.746000 0.000000 0.000000 
#    y 0.000000 3.554630 0.000000 
#    z 0.000000 0.000000 3.625390 
# 
# 
# High freq. dielectric constant tensor:
#      x y z
#    x 1.758400 0.000000 0.000000 
#    y 0.000000 1.757520 0.000000 
#    z 0.000000 0.000000 1.730430 
# 
# From -- ./inp_files/22108.got.cif
#   From: 2010.03.12/outbox.cif.g09.slc.cpg/sg74_12_cif.got.tgz:22108.got - 2010.04.16 15:46:19.
