data_PCOD8301519
_publ_section_title
;
Structure prediction by ZEFSAII (Michael W. Deem and Ramdas Pophale) SiO2 
 PCOD8301519
Probable space group: I M M A
;
_chemical_formula_sum "Si O2"
_cell_formula_units_Z 48
_cell_length_a 19.593654
_cell_length_b 14.543797
_cell_length_c 7.978392
_cell_angle_alpha 90.000000
_cell_angle_beta 90.000000
_cell_angle_gamma 90.000000
_cell_volume 2273.571462
_symmetry_space_group_name_H-M "I M M A"
_symmetry_group_IT_number 74
_symmetry_cell_setting 'orthorhombic'
loop_
_space_group_symop_operation_xyz
x,y,z
-x,1/2-y,z
x,-y,-z
-x,1/2+y,-z
-x,-y,-z
x,1/2+y,-z
-x,y,z
x,1/2-y,z
1/2+x,1/2+y,1/2+z
1/2-x,-y,1/2+z
1/2+x,1/2-y,1/2-z
1/2-x,y,1/2-z
1/2-x,1/2-y,1/2-z
1/2+x,y,1/2-z
1/2-x,1/2+y,1/2+z
1/2+x,-y,1/2+z
loop_
_atom_site_type_symbol
_atom_site_label
_atom_site_fract_x
_atom_site_fract_y
_atom_site_fract_z
Si Si1 0.205919 0.250000 0.490226
Si Si2 0.644930 0.250000 0.347301
Si Si3 0.922489 0.853015 0.113397
Si Si4 0.183467 0.939319 0.340867
O O1 0.277138 0.250000 0.398203
O O2 0.143331 0.250000 0.354900
O O3 0.203411 0.162327 0.606760
O O4 0.607923 0.158565 0.423743
O O5 0.918278 0.750000 0.197964
O O6 0.880461 0.930146 0.214666
O O7 0.000000 0.888096 0.103642
O O8 0.250000 0.984256 0.250000
O O9 0.161663 0.000000 0.500000
#
# Coordination Sequence:
#
# PCOD8301519 Si02
#       4
#     8   8  16  16
#     4  11  20  38  62  91 124 155 207 272 309 364
#     4   9  18  33  65  90 116 160 208 249 319 371
#     4   9  18  39  64  87 126 169 202 246 317 376
#     4  12  24  38  62  94 126 165 216 264 312 369
#
# _framework density 21.112158000000001
#
# number of rings (size 3 to 8) (size 9 to 14) (size 15 to 20)
#    1.000    0.667    5.000    0.500    4.667    0.667 
#    0.000    3.333    0.000    7.000    0.000    0.000 
#    0.000    0.000    0.000    0.000    0.000    0.000 
#
# Total GULP energy -297408.552181 kJ/mol
# GULP energy per Si atom -12392.023008 kJ/mol
# Density = 2.106411 g / cm^3
# Si number density = 21.112158 Si / 1000 Ang^3
#
#
#
# Elastic Constant Matrix: (Units=GPa)
#
#
# Indices 1 2 3 4 5 6 
#
# 1 148.2690 3.5222 44.5239 0.0000 0.0000 0.0000
# 2 3.5222 41.6013 -0.0003 0.0000 0.0000 0.0000
# 3 44.5239 -0.0003 87.6555 0.0000 0.0000 0.0000
# 4 0.0000 0.0000 0.0000 37.0608 0.0000 0.0000
# 5 0.0000 0.0000 0.0000 0.0000 30.0771 0.0000
# 6 0.0000 0.0000 0.0000 0.0000 0.0000 10.7800
#
#
#
# Elastic Compliance Matrix: (Units=1/GPa)
#
#
# Indices 1 2 3 4 5 6 
#
# 1 0.007977 -0.000675 -0.004052 0.000000 0.000000 0.000000
# 2 -0.000675 0.024095 0.000343 0.000000 0.000000 0.000000
# 3 -0.004052 0.000343 0.013467 0.000000 0.000000 0.000000
# 4 0.000000 0.000000 0.000000 0.026983 0.000000 0.000000
# 5 0.000000 0.000000 0.000000 0.000000 0.033248 0.000000
# 6 0.000000 0.000000 0.000000 0.000000 0.000000 0.092765
#
#
# Mechanical properties :
#
#
# Convention : Reuss Voigt Hill
#
# Bulk Modulus (GPa) = 27.19601 41.51304 34.35453
# Shear Modulus (GPa) = 22.77290 30.88223 26.82756
#
# Velocity S-wave (km/s) = 3.28786 3.82877 3.56858
# Velocity P-wave (km/s) = 5.22714 6.26512 5.76952
#
# Compressibility (1/GPa) = 0.03677010
#
# Stress axis : x y z
#
# Youngs Moduli (GPa) = 125.35519 41.50261 74.25834
#
# Poissons Ratio (x) = 0.02803 0.30090
# Poissons Ratio (y) = 0.08467 -0.02548
# Poissons Ratio (z) = 0.50794 -0.01424
#
# Static dielectric constant tensor:
#      x y z
#    x 3.752200 0.000000 0.000000 
#    y 0.000000 3.386330 0.000000 
#    z 0.000000 0.000000 4.088540 
# 
# 
# High freq. dielectric constant tensor:
#      x y z
#    x 1.821460 0.000000 0.000000 
#    y 0.000000 1.800610 0.000000 
#    z 0.000000 0.000000 1.819790 
# 
# From -- ./inp_files/11534.got.cif
#   From: 2010.03.12/outbox.cif.g09.slc.cpg/sg74_6_cif.got.tgz:11534.got - 2010.04.16 15:46:19.
