data_PCOD8301502
_publ_section_title
;
Structure prediction by ZEFSAII (Michael W. Deem and Ramdas Pophale) SiO2 
 PCOD8301502
Probable space group: I M M A
;
_chemical_formula_sum "Si O2"
_cell_formula_units_Z 88
_cell_length_a 23.179961
_cell_length_b 18.019765
_cell_length_c 10.971103
_cell_angle_alpha 90.000000
_cell_angle_beta 90.000000
_cell_angle_gamma 90.000000
_cell_volume 4582.601746
_symmetry_space_group_name_H-M "I M M A"
_symmetry_group_IT_number 74
_symmetry_cell_setting 'orthorhombic'
loop_
_space_group_symop_operation_xyz
x,y,z
-x,1/2-y,z
x,-y,-z
-x,1/2+y,-z
-x,-y,-z
x,1/2+y,-z
-x,y,z
x,1/2-y,z
1/2+x,1/2+y,1/2+z
1/2-x,-y,1/2+z
1/2+x,1/2-y,1/2-z
1/2-x,y,1/2-z
1/2-x,1/2-y,1/2-z
1/2+x,y,1/2-z
1/2-x,1/2+y,1/2+z
1/2+x,-y,1/2+z
loop_
_atom_site_type_symbol
_atom_site_label
_atom_site_fract_x
_atom_site_fract_y
_atom_site_fract_z
Si Si1 0.750000 0.033617 0.750000
Si Si2 0.436001 0.665030 0.018398
Si Si3 0.251010 0.167717 0.394995
Si Si4 0.170445 0.081626 0.548145
Si Si5 0.844097 0.057789 0.104037
Si Si6 0.566285 0.165316 0.268571
O O1 0.779581 0.085740 0.649516
O O2 0.802489 0.983605 0.799787
O O3 0.500000 0.641483 0.060566
O O4 0.424498 0.750000 0.052282
O O5 0.429170 0.651641 0.874847
O O6 0.390779 0.614261 0.093412
O O7 0.256673 0.250000 0.447316
O O8 0.250000 0.167122 0.250000
O O9 0.190394 0.133134 0.436273
O O10 0.303661 0.121313 0.453914
O O11 0.160679 0.000000 0.500000
O O12 0.898061 0.099852 0.165175
O O13 0.865453 0.000000 0.000000
O O14 0.500000 0.158193 0.311365
O O15 0.588433 0.250000 0.298826
#
# Coordination Sequence:
#
# PCOD8301502 Si02
#       6
#     8  16  16  16  16  16
#     4  12  22  38  52  80 124 154 184 224 278 330
#     4   9  19  37  60  86 112 141 184 238 288 329
#     4  11  20  33  55  82 107 141 186 233 283 328
#     4  12  21  35  56  82 120 150 182 230 277 339
#     4  12  21  36  56  79 113 150 188 232 277 336
#     4   9  19  36  59  86 112 138 180 241 293 331
#
# _framework density 19.203064999999999
#
# number of rings (size 3 to 8) (size 9 to 14) (size 15 to 20)
#    0.000    1.273    4.545    4.364    0.000    3.636 
#    0.000    2.727    0.000    0.000    0.000    2.545 
#    0.000    0.000    0.000    0.000    0.000    0.000 
#
# Total GULP energy -545344.901623 kJ/mol
# GULP energy per Si atom -12394.202310 kJ/mol
# Density = 1.915936 g / cm^3
# Si number density = 19.203065 Si / 1000 Ang^3
#
#
#
# Elastic Constant Matrix: (Units=GPa)
#
#
# Indices 1 2 3 4 5 6 
#
# 1 130.3077 61.8489 36.7250 0.0000 0.0000 0.0000
# 2 61.8489 118.0728 36.5465 0.0000 0.0000 0.0000
# 3 36.7250 36.5465 39.7020 0.0000 0.0000 0.0000
# 4 0.0000 0.0000 0.0000 18.9381 0.0000 0.0000
# 5 0.0000 0.0000 0.0000 0.0000 -9.8327 0.0000
# 6 0.0000 0.0000 0.0000 0.0000 0.0000 41.5558
#
#
#
# Elastic Compliance Matrix: (Units=1/GPa)
#
#
# Indices 1 2 3 4 5 6 
#
# 1 0.011491 -0.003817 -0.007116 0.000000 0.000000 0.000000
# 2 -0.003817 0.013112 -0.008539 0.000000 0.000000 0.000000
# 3 -0.007116 -0.008539 0.039631 0.000000 0.000000 0.000000
# 4 0.000000 0.000000 0.000000 0.052803 0.000000 0.000000
# 5 0.000000 0.000000 0.000000 0.000000 -0.101702 0.000000
# 6 0.000000 0.000000 0.000000 0.000000 0.000000 0.024064
#
#
# Mechanical properties :
#
#
# Convention : Reuss Voigt Hill
#
# Bulk Modulus (GPa) = 39.54191 62.03591 50.78891
# Shear Modulus (GPa) = 57.62146 20.32974 38.97560
#
# Velocity S-wave (km/s) = 5.48375 3.25725 4.51006
# Velocity P-wave (km/s) = 7.79304 6.82068 7.32302
#
# Compressibility (1/GPa) = 0.02528962
#
# Stress axis : x y z
#
# Youngs Moduli (GPa) = 87.02236 76.26801 25.23292
#
# Poissons Ratio (x) = 0.29109 0.17957
# Poissons Ratio (y) = 0.33214 0.21547
# Poissons Ratio (z) = 0.61928 0.65126
#
# Static dielectric constant tensor:
#      x y z
#    x 3.782460 0.000000 0.000000 
#    y 0.000000 3.781780 0.000000 
#    z 0.000000 0.000000 3.196490 
# 
# 
# High freq. dielectric constant tensor:
#      x y z
#    x 1.756240 0.000000 0.000000 
#    y 0.000000 1.756220 0.000000 
#    z 0.000000 0.000000 1.702720 
# 
# From -- ./inp_files/20665.got.cif
#   From: 2010.03.12/outbox.cif.g09.slc.cpg/sg74_11_cif.got.tgz:20665.got - 2010.04.16 15:46:19.
