data_PCOD8301498
_publ_section_title
;
Structure prediction by ZEFSAII (Michael W. Deem and Ramdas Pophale) SiO2 
 PCOD8301498
Probable space group: I M M A
;
_chemical_formula_sum "Si O2"
_cell_formula_units_Z 80
_cell_length_a 16.116666
_cell_length_b 19.983676
_cell_length_c 13.116258
_cell_angle_alpha 90.000000
_cell_angle_beta 90.000000
_cell_angle_gamma 90.000000
_cell_volume 4224.356251
_symmetry_space_group_name_H-M "I M M A"
_symmetry_group_IT_number 74
_symmetry_cell_setting 'orthorhombic'
loop_
_space_group_symop_operation_xyz
x,y,z
-x,1/2-y,z
x,-y,-z
-x,1/2+y,-z
-x,-y,-z
x,1/2+y,-z
-x,y,z
x,1/2-y,z
1/2+x,1/2+y,1/2+z
1/2-x,-y,1/2+z
1/2+x,1/2-y,1/2-z
1/2-x,y,1/2-z
1/2-x,1/2-y,1/2-z
1/2+x,y,1/2-z
1/2-x,1/2+y,1/2+z
1/2+x,-y,1/2+z
loop_
_atom_site_type_symbol
_atom_site_label
_atom_site_fract_x
_atom_site_fract_y
_atom_site_fract_z
Si Si1 0.000000 0.825118 0.988443
Si Si2 0.620936 0.566775 0.434433
Si Si3 0.189734 0.925800 0.466892
Si Si4 0.331887 0.605947 0.812794
Si Si5 0.500000 0.822856 0.749573
Si Si6 0.592492 0.465915 0.791885
O O1 0.000000 0.750000 0.038572
O O2 0.000000 0.815601 0.869643
O O3 0.918524 0.867292 0.016690
O O4 0.599240 0.500000 0.500000
O O5 0.717777 0.578880 0.426389
O O6 0.585067 0.562431 0.321364
O O7 0.179979 0.878710 0.566408
O O8 0.128047 0.909766 0.371688
O O9 0.164614 0.000000 0.500000
O O10 0.250000 0.630351 0.750000
O O11 0.415708 0.641267 0.780287
O O12 0.343277 0.527488 0.790614
O O13 0.500000 0.750000 0.801626
O O14 0.500000 0.487402 0.827114
#
# Coordination Sequence:
#
# PCOD8301498 Si02
#       6
#     8  16  16  16   8  16
#     4  11  23  37  56  83 116 150 189 240 293 339
#     4  11  20  36  59  87 113 148 195 242 284 342
#     4   9  20  33  55  84 120 146 178 233 295 349
#     4  11  21  37  58  84 118 152 187 234 292 353
#     4  11  24  39  57  81 111 150 197 240 284 345
#     4  11  20  32  57  91 117 146 185 235 298 347
#
# _framework density 18.937798000000001
#
# number of rings (size 3 to 8) (size 9 to 14) (size 15 to 20)
#    0.000    1.400    2.000    6.900    1.400    1.600 
#    0.000    1.000    0.000    4.800    0.000    0.000 
#    0.000    0.000    0.000    0.000    0.000    0.000 
#
# Total GULP energy -495744.915155 kJ/mol
# GULP energy per Si atom -12393.622879 kJ/mol
# Density = 1.889469 g / cm^3
# Si number density = 18.937798 Si / 1000 Ang^3
#
#
#
# Elastic Constant Matrix: (Units=GPa)
#
#
# Indices 1 2 3 4 5 6 
#
# 1 147.0650 33.1747 55.7890 0.0000 0.0000 0.0000
# 2 33.1747 75.5967 31.1769 0.0000 0.0000 0.0000
# 3 55.7890 31.1769 126.9261 0.0000 0.0000 0.0000
# 4 0.0000 0.0000 0.0000 12.9248 0.0000 0.0000
# 5 0.0000 0.0000 0.0000 0.0000 43.8661 0.0000
# 6 0.0000 0.0000 0.0000 0.0000 0.0000 -12.1398
#
#
#
# Elastic Compliance Matrix: (Units=1/GPa)
#
#
# Indices 1 2 3 4 5 6 
#
# 1 0.008550 -0.002450 -0.003156 0.000000 0.000000 0.000000
# 2 -0.002450 0.015421 -0.002711 0.000000 0.000000 0.000000
# 3 -0.003156 -0.002711 0.009932 0.000000 0.000000 0.000000
# 4 0.000000 0.000000 0.000000 0.077371 0.000000 0.000000
# 5 0.000000 0.000000 0.000000 0.000000 0.022797 0.000000
# 6 0.000000 0.000000 0.000000 0.000000 0.000000 -0.082374
#
#
# Mechanical properties :
#
#
# Convention : Reuss Voigt Hill
#
# Bulk Modulus (GPa) = 57.91013 65.54101 61.72557
# Shear Modulus (GPa) = 67.48814 24.22670 45.85742
#
# Velocity S-wave (km/s) = 5.97613 3.58058 4.92619
# Velocity P-wave (km/s) = 8.84671 7.19568 8.06356
#
# Compressibility (1/GPa) = 0.01726814
#
# Stress axis : x y z
#
# Youngs Moduli (GPa) = 116.96309 64.84488 100.68773
#
# Poissons Ratio (x) = 0.15889 0.31778
# Poissons Ratio (y) = 0.28660 0.27296
# Poissons Ratio (z) = 0.36914 0.17579
#
# Static dielectric constant tensor:
#      x y z
#    x 3.611670 0.000000 0.000000 
#    y 0.000000 3.207880 0.000000 
#    z 0.000000 0.000000 3.892990 
# 
# 
# High freq. dielectric constant tensor:
#      x y z
#    x 1.759470 0.000000 0.000000 
#    y 0.000000 1.673320 0.000000 
#    z 0.000000 0.000000 1.751920 
# 
# From -- ./inp_files/20560.got.cif
#   From: 2010.03.12/outbox.cif.g09.slc.cpg/sg74_11_cif.got.tgz:20560.got - 2010.04.16 15:46:19.
