data_PCOD8301074
_publ_section_title
;
Structure prediction by ZEFSAII (Michael W. Deem and Ramdas Pophale) SiO2 
 PCOD8301074
Probable space group: I M M A
;
_chemical_formula_sum "Si O2"
_cell_formula_units_Z 80
_cell_length_a 23.177101
_cell_length_b 31.901387
_cell_length_c 5.065318
_cell_angle_alpha 90.000000
_cell_angle_beta 90.000000
_cell_angle_gamma 90.000000
_cell_volume 3745.203275
_symmetry_space_group_name_H-M "I M M A"
_symmetry_group_IT_number 74
_symmetry_cell_setting 'orthorhombic'
loop_
_space_group_symop_operation_xyz
x,y,z
-x,1/2-y,z
x,-y,-z
-x,1/2+y,-z
-x,-y,-z
x,1/2+y,-z
-x,y,z
x,1/2-y,z
1/2+x,1/2+y,1/2+z
1/2-x,-y,1/2+z
1/2+x,1/2-y,1/2-z
1/2-x,y,1/2-z
1/2-x,1/2-y,1/2-z
1/2+x,y,1/2-z
1/2-x,1/2+y,1/2+z
1/2+x,-y,1/2+z
loop_
_atom_site_type_symbol
_atom_site_label
_atom_site_fract_x
_atom_site_fract_y
_atom_site_fract_z
Si Si1 0.434528 0.472836 0.740359
Si Si2 0.713100 0.663960 0.997951
Si Si3 0.436843 0.840280 0.677386
Si Si4 0.816579 0.250000 0.631358
Si Si5 0.609504 0.381862 0.820407
Si Si6 0.433173 0.250000 0.504048
O O1 0.408083 0.500000 0.500000
O O2 0.500000 0.459896 0.669659
O O3 0.398615 0.431078 0.787360
O O4 0.431535 0.500000 0.000000
O O5 0.750000 0.673567 0.250000
O O6 0.678387 0.707902 0.949252
O O7 0.672407 0.624704 0.056594
O O8 0.750000 0.650525 0.750000
O O9 0.500000 0.852028 0.569559
O O10 0.392689 0.860322 0.467425
O O11 0.428160 0.790296 0.686280
O O12 0.433206 0.859813 0.970459
O O13 0.750000 0.250000 0.750000
O O14 0.875410 0.250000 0.810483
O O15 0.500000 0.250000 0.633996
#
# Coordination Sequence:
#
# PCOD8301074 Si02
#       6
#    16  16  16   8  16   8
#     4  10  21  38  62  94 127 158 199 253 322 408
#     4  11  24  41  62  92 124 169 227 285 323 385
#     4  11  23  38  59  90 129 172 217 262 332 409
#     4  10  21  40  64  88 127 178 236 279 333 390
#     4  12  23  40  66  89 127 167 217 268 341 395
#     4  10  22  40  59  93 138 181 227 290 349 408
#
# _framework density 21.360657
#
# number of rings (size 3 to 8) (size 9 to 14) (size 15 to 20)
#    0.000    1.200    2.000    4.500    2.800    3.200 
#    0.000    3.000    0.000    2.400    0.000    0.000 
#    0.000    0.000    0.000    0.000    0.000    0.000 
#
# Total GULP energy -495574.254318 kJ/mol
# GULP energy per Si atom -12389.356358 kJ/mol
# Density = 2.131204 g / cm^3
# Si number density = 21.360657 Si / 1000 Ang^3
#
#
#
# Elastic Constant Matrix: (Units=GPa)
#
#
# Indices 1 2 3 4 5 6 
#
# 1 110.7628 46.1929 23.3944 0.0000 0.0000 0.0000
# 2 46.1929 180.2451 44.3840 0.0000 0.0000 0.0000
# 3 23.3944 44.3840 101.5603 0.0000 0.0000 0.0000
# 4 0.0000 0.0000 0.0000 34.9228 0.0000 0.0000
# 5 0.0000 0.0000 0.0000 0.0000 33.0786 0.0000
# 6 0.0000 0.0000 0.0000 0.0000 0.0000 32.0454
#
#
#
# Elastic Compliance Matrix: (Units=1/GPa)
#
#
# Indices 1 2 3 4 5 6 
#
# 1 0.010274 -0.002298 -0.001363 0.000000 0.000000 0.000000
# 2 -0.002298 0.006731 -0.002412 0.000000 0.000000 0.000000
# 3 -0.001363 -0.002412 0.011214 0.000000 0.000000 0.000000
# 4 0.000000 0.000000 0.000000 0.028635 0.000000 0.000000
# 5 0.000000 0.000000 0.000000 0.000000 0.030231 0.000000
# 6 0.000000 0.000000 0.000000 0.000000 0.000000 0.031206
#
#
# Mechanical properties :
#
#
# Convention : Reuss Voigt Hill
#
# Bulk Modulus (GPa) = 62.20953 68.94566 65.57760
# Shear Modulus (GPa) = 36.82049 38.58249 37.70149
#
# Velocity S-wave (km/s) = 4.15631 4.25460 4.20574
# Velocity P-wave (km/s) = 7.22633 7.51548 7.37233
#
# Compressibility (1/GPa) = 0.01607471
#
# Stress axis : x y z
#
# Youngs Moduli (GPa) = 97.33045 148.57040 89.17064
#
# Poissons Ratio (x) = 0.34135 0.12150
# Poissons Ratio (y) = 0.22362 0.21510
# Poissons Ratio (z) = 0.13262 0.35839
#
# Static dielectric constant tensor:
#      x y z
#    x 4.134560 0.000000 0.000000 
#    y 0.000000 3.782520 0.000000 
#    z 0.000000 0.000000 3.760230 
# 
# 
# High freq. dielectric constant tensor:
#      x y z
#    x 1.834730 0.000000 0.000000 
#    y 0.000000 1.832460 0.000000 
#    z 0.000000 0.000000 1.838300 
# 
# From -- ./inp_files/3887.got.cif
#   From: 2010.03.12/outbox.cif.g09.slc.cpg/sg74_2_cif.got.tgz:3887.got - 2010.04.16 15:46:19.
