data_PCOD8301141
_publ_section_title
;
Structure prediction by ZEFSAII (Michael W. Deem and Ramdas Pophale) SiO2 
 PCOD8301141
Probable space group: I M M A
;
_chemical_formula_sum "Si O2"
_cell_formula_units_Z 96
_cell_length_a 19.907294
_cell_length_b 13.759738
_cell_length_c 14.823648
_cell_angle_alpha 90.000000
_cell_angle_beta 90.000000
_cell_angle_gamma 90.000000
_cell_volume 4060.481056
_symmetry_space_group_name_H-M "I M M A"
_symmetry_group_IT_number 74
_symmetry_cell_setting 'orthorhombic'
loop_
_space_group_symop_operation_xyz
x,y,z
-x,1/2-y,z
x,-y,-z
-x,1/2+y,-z
-x,-y,-z
x,1/2+y,-z
-x,y,z
x,1/2-y,z
1/2+x,1/2+y,1/2+z
1/2-x,-y,1/2+z
1/2+x,1/2-y,1/2-z
1/2-x,y,1/2-z
1/2-x,1/2-y,1/2-z
1/2+x,y,1/2-z
1/2-x,1/2+y,1/2+z
1/2+x,-y,1/2+z
loop_
_atom_site_type_symbol
_atom_site_label
_atom_site_fract_x
_atom_site_fract_y
_atom_site_fract_z
Si Si1 0.922832 0.134083 0.142762
Si Si2 0.428454 0.360013 0.897364
Si Si3 0.838462 0.363362 0.975375
Si Si4 0.647650 0.640527 0.272369
Si Si5 0.318425 0.941035 0.784206
Si Si6 0.190156 0.865632 0.519804
O O1 0.919303 0.250000 0.145807
O O2 0.883688 0.091849 0.228562
O O3 0.000000 0.098529 0.145021
O O4 0.887262 0.091746 0.051829
O O5 0.500000 0.412143 0.919461
O O6 0.432916 0.250000 0.931623
O O7 0.419511 0.362165 0.788575
O O8 0.364797 0.406848 0.948725
O O9 0.835827 0.250000 0.991922
O O10 0.867885 0.386882 0.876225
O O11 0.762901 0.405087 0.987194
O O12 0.680449 0.750000 0.265920
O O13 0.694065 0.557200 0.228108
O O14 0.250000 0.888444 0.750000
O O15 0.331375 0.911507 0.886050
O O16 0.190686 0.750000 0.526219
#
# Coordination Sequence:
#
# PCOD8301141 Si02
#       6
#    16  16  16  16  16  16
#     4  10  22  42  68 100 135 169 213 271 334 401
#     4   9  20  40  65  94 129 171 217 266 322 387
#     4   9  19  39  66  93 126 171 218 268 328 389
#     4  10  24  43  64  92 130 177 225 273 327 382
#     4  12  25  40  63  98 133 176 220 272 327 390
#     4  10  21  39  66  94 127 169 215 269 329 391
#
# _framework density 23.642519
#
# number of rings (size 3 to 8) (size 9 to 14) (size 15 to 20)
#    0.000    2.000    1.667    0.500    2.333    4.333 
#    0.000    6.667    0.000    0.000    0.000    0.000 
#    0.000    0.000    0.000    0.000    0.000    0.000 
#
# Total GULP energy -594717.025211 kJ/mol
# GULP energy per Si atom -12389.938025 kJ/mol
# Density = 2.358871 g / cm^3
# Si number density = 23.642519 Si / 1000 Ang^3
#
#
#
# Elastic Constant Matrix: (Units=GPa)
#
#
# Indices 1 2 3 4 5 6 
#
# 1 216.0940 17.9021 99.3081 0.0000 0.0000 0.0000
# 2 17.9021 63.6265 31.1589 0.0000 0.0000 0.0000
# 3 99.3081 31.1589 194.1895 0.0000 0.0000 0.0000
# 4 0.0000 0.0000 0.0000 26.9777 0.0000 0.0000
# 5 0.0000 0.0000 0.0000 0.0000 26.2799 0.0000
# 6 0.0000 0.0000 0.0000 0.0000 0.0000 -0.3626
#
#
#
# Elastic Compliance Matrix: (Units=1/GPa)
#
#
# Indices 1 2 3 4 5 6 
#
# 1 0.006052 -0.000203 -0.003062 0.000000 0.000000 0.000000
# 2 -0.000203 0.017064 -0.002634 0.000000 0.000000 0.000000
# 3 -0.003062 -0.002634 0.007138 0.000000 0.000000 0.000000
# 4 0.000000 0.000000 0.000000 0.037068 0.000000 0.000000
# 5 0.000000 0.000000 0.000000 0.000000 0.038052 0.000000
# 6 0.000000 0.000000 0.000000 0.000000 0.000000 -2.757884
#
#
# Mechanical properties :
#
#
# Convention : Reuss Voigt Hill
#
# Bulk Modulus (GPa) = 54.18615 85.62758 69.90687
# Shear Modulus (GPa) = -1.89785 32.28174 15.19195
#
# Velocity S-wave (km/s) = -0.89692 3.69915 2.53764
# Velocity P-wave (km/s) = 4.67932 7.38520 6.18212
#
# Compressibility (1/GPa) = 0.01845490
#
# Stress axis : x y z
#
# Youngs Moduli (GPa) = 165.24200 58.60349 140.08928
#
# Poissons Ratio (x) = 0.01190 0.42899
# Poissons Ratio (y) = 0.03356 0.36901
# Poissons Ratio (z) = 0.50601 0.15437
#
# Static dielectric constant tensor:
#      x y z
#    x 4.386380 0.000000 0.000000 
#    y 0.000000 4.240710 0.000000 
#    z 0.000000 0.000000 4.272710 
# 
# 
# High freq. dielectric constant tensor:
#      x y z
#    x 1.924460 0.000000 0.000000 
#    y 0.000000 1.935410 0.000000 
#    z 0.000000 0.000000 1.942140 
# 
# From -- ./inp_files/35249.got.cif
#   From: 2010.03.12/outbox.cif.g09.slc.cpg/sg74_18_cif.got.tgz:35249.got - 2010.04.16 15:46:19.
