data_PCOD8301077
_publ_section_title
;
Structure prediction by ZEFSAII (Michael W. Deem and Ramdas Pophale) SiO2 
 PCOD8301077
Probable space group: I M M A
;
_chemical_formula_sum "Si O2"
_cell_formula_units_Z 104
_cell_length_a 24.105677
_cell_length_b 8.603766
_cell_length_c 22.960213
_cell_angle_alpha 90.000000
_cell_angle_beta 90.000000
_cell_angle_gamma 90.000000
_cell_volume 4761.939088
_symmetry_space_group_name_H-M "I M M A"
_symmetry_group_IT_number 74
_symmetry_cell_setting 'orthorhombic'
loop_
_space_group_symop_operation_xyz
x,y,z
-x,1/2-y,z
x,-y,-z
-x,1/2+y,-z
-x,-y,-z
x,1/2+y,-z
-x,y,z
x,1/2-y,z
1/2+x,1/2+y,1/2+z
1/2-x,-y,1/2+z
1/2+x,1/2-y,1/2-z
1/2-x,y,1/2-z
1/2-x,1/2-y,1/2-z
1/2+x,y,1/2-z
1/2-x,1/2+y,1/2+z
1/2+x,-y,1/2+z
loop_
_atom_site_type_symbol
_atom_site_label
_atom_site_fract_x
_atom_site_fract_y
_atom_site_fract_z
Si Si1 0.500000 0.933998 0.564318
Si Si2 0.887136 0.430751 0.123246
Si Si3 0.500000 0.073422 0.785263
Si Si4 0.310997 0.069640 0.851456
Si Si5 0.886213 0.067570 0.442402
Si Si6 0.117879 0.933487 0.246192
Si Si7 0.500000 0.929758 0.077535
Si Si8 0.776021 0.928977 0.937787
O O1 0.500000 0.750000 0.559440
O O2 0.445705 0.993770 0.598785
O O3 0.500000 0.000000 0.500000
O O4 0.891128 0.250000 0.139417
O O5 0.868257 0.523784 0.180212
O O6 0.840753 0.461906 0.074230
O O7 0.500000 0.250000 0.763020
O O8 0.442969 0.992775 0.761804
O O9 0.500000 0.061475 0.853705
O O10 0.296225 0.250000 0.849205
O O11 0.330584 0.007929 0.787201
O O12 0.365286 0.035234 0.889072
O O13 0.258825 0.986356 0.881652
O O14 0.873926 0.250000 0.434381
O O15 0.855613 0.000000 0.500000
O O16 0.950289 0.029165 0.448543
O O17 0.114342 0.750000 0.255566
O O18 0.500000 0.750000 0.056435
O O19 0.762335 0.750000 0.943558
O O20 0.759187 0.000000 0.000000
#
# Coordination Sequence:
#
# PCOD8301077 Si02
#       8
#     8  16   8  16  16  16   8  16
#     4  10  21  40  66  98 131 166 205 250 306 373
#     4  10  23  41  63  94 131 164 199 250 312 369
#     4   9  17  35  59  85 119 158 200 249 299 353
#     4  11  23  41  63  88 119 162 209 259 311 365
#     4  12  24  38  56  83 116 156 207 260 318 375
#     4  10  21  38  63  91 122 163 209 254 305 366
#     4  11  20  37  58  79 114 154 199 255 311 364
#     4  11  24  43  65  91 123 161 204 256 313 372
#
# _framework density 21.839843999999999
#
# number of rings (size 3 to 8) (size 9 to 14) (size 15 to 20)
#    0.000    1.385    1.538    4.154    0.000    3.692 
#    0.000    3.077    0.000    0.000    0.000    0.000 
#    0.000    0.000    0.000    0.000    0.000    0.000 
#
# Total GULP energy -644547.613622 kJ/mol
# GULP energy per Si atom -12395.146416 kJ/mol
# Density = 2.179014 g / cm^3
# Si number density = 21.839844 Si / 1000 Ang^3
#
#
#
# Elastic Constant Matrix: (Units=GPa)
#
#
# Indices 1 2 3 4 5 6 
#
# 1 129.8649 30.2497 41.9001 0.0000 0.0000 0.0000
# 2 30.2497 57.2671 33.6804 0.0000 0.0000 0.0000
# 3 41.9001 33.6804 132.7004 0.0000 0.0000 0.0000
# 4 0.0000 0.0000 0.0000 34.4606 0.0000 0.0000
# 5 0.0000 0.0000 0.0000 0.0000 21.7668 0.0000
# 6 0.0000 0.0000 0.0000 0.0000 0.0000 24.9077
#
#
#
# Elastic Compliance Matrix: (Units=1/GPa)
#
#
# Indices 1 2 3 4 5 6 
#
# 1 0.009196 -0.003703 -0.001964 0.000000 0.000000 0.000000
# 2 -0.003703 0.022017 -0.004419 0.000000 0.000000 0.000000
# 3 -0.001964 -0.004419 0.009277 0.000000 0.000000 0.000000
# 4 0.000000 0.000000 0.000000 0.029019 0.000000 0.000000
# 5 0.000000 0.000000 0.000000 0.000000 0.045942 0.000000
# 6 0.000000 0.000000 0.000000 0.000000 0.000000 0.040148
#
#
# Mechanical properties :
#
#
# Convention : Reuss Voigt Hill
#
# Bulk Modulus (GPa) = 49.21385 59.05476 54.13430
# Shear Modulus (GPa) = 27.39074 30.49383 28.94228
#
# Velocity S-wave (km/s) = 3.54526 3.74069 3.64429
# Velocity P-wave (km/s) = 6.27227 6.76429 6.52292
#
# Compressibility (1/GPa) = 0.02031948
#
# Stress axis : x y z
#
# Youngs Moduli (GPa) = 108.73753 45.41992 107.78806
#
# Poissons Ratio (x) = 0.16818 0.21170
# Poissons Ratio (y) = 0.40262 0.47631
# Poissons Ratio (z) = 0.21356 0.20071
#
# Static dielectric constant tensor:
#      x y z
#    x 4.152140 0.000000 0.000000 
#    y 0.000000 3.684440 0.000000 
#    z 0.000000 0.000000 3.958980 
# 
# 
# High freq. dielectric constant tensor:
#      x y z
#    x 1.870610 0.000000 0.000000 
#    y 0.000000 1.836870 0.000000 
#    z 0.000000 0.000000 1.867290 
# 
# From -- ./inp_files/55299.got.cif
#   From: 2010.03.12/outbox.cif.g09.slc.cpg/sg74_28_cif.got.tgz:55299.got - 2010.04.16 15:46:19.
