data_PCOD8301939
_publ_section_title
;
Structure prediction by ZEFSAII (Michael W. Deem and Ramdas Pophale) SiO2 
 PCOD8301939
Probable space group: P 41
;
_chemical_formula_sum "Si O2"
_cell_formula_units_Z 28
_cell_length_a 12.141288
_cell_length_b 12.141288
_cell_length_c 9.466747
_cell_angle_alpha 90.000000
_cell_angle_beta 90.000000
_cell_angle_gamma 90.000000
_cell_volume 1395.501452
_symmetry_space_group_name_H-M "P 41"
_symmetry_group_IT_number 76
_symmetry_cell_setting 'tetragonal'
loop_
_space_group_symop_operation_xyz
x,y,z
-y,x,1/4+z
-x,-y,1/2+z
y,-x,3/4+z
loop_
_atom_site_type_symbol
_atom_site_label
_atom_site_fract_x
_atom_site_fract_y
_atom_site_fract_z
Si Si1 0.132459 0.636028 0.475630
Si Si2 0.263214 0.355562 0.842307
Si Si3 0.272810 0.744947 0.053012
Si Si4 0.099251 0.376026 0.089551
Si Si5 0.629473 0.925016 0.906531
Si Si6 0.407376 0.536382 0.983840
Si Si7 0.168139 0.397714 0.558992
O O1 0.232660 0.703404 0.544061
O O2 0.097565 0.668176 0.317101
O O3 0.161051 0.507370 0.467134
O O4 0.029198 0.653776 0.579842
O O5 0.356296 0.423116 0.924195
O O6 0.236456 0.423193 0.700497
O O7 0.155514 0.349909 0.939934
O O8 0.144807 0.712044 0.057339
O O9 0.310065 0.767193 0.213594
O O10 0.295735 0.852395 0.959474
O O11 0.331138 0.642604 0.975742
O O12 0.115607 0.503788 0.132686
O O13 0.647932 0.049586 0.857832
O O14 0.518100 0.559722 0.896014
#
# Coordination Sequence:
#
# PCOD8301939 Si02
#       7
#     4   4   4   4   4   4   4
#     4  11  24  41  67  94 132 174 223 272 323 396
#     4  12  23  42  63  96 130 173 213 274 328 399
#     4  12  23  43  64  92 132 171 213 272 334 389
#     4  11  24  43  63  97 131 169 225 271 322 390
#     4  11  22  42  65  93 131 167 221 278 315 400
#     4  12  27  39  60  94 139 170 208 265 330 406
#     4  11  25  38  68  94 125 174 225 260 340 390
#
# _framework density 20.06447
#
# number of rings (size 3 to 8) (size 9 to 14) (size 15 to 20)
#    0.000    0.571    7.143    0.857    4.000    1.143 
#    0.000    0.000    0.000    5.143    0.000    0.000 
#    0.000    0.000    0.000    0.000    0.000    0.000 
#
# Total GULP energy -347214.152447 kJ/mol
# GULP energy per Si atom -12400.505445 kJ/mol
# Density = 2.001880 g / cm^3
# Si number density = 20.064470 Si / 1000 Ang^3
#
#
#
# Elastic Constant Matrix: (Units=GPa)
#
#
# Indices 1 2 3 4 5 6 
#
# 1 70.4240 37.2325 17.9253 0.0000 0.0000 1.0743
# 2 37.2325 70.4240 17.9253 0.0000 0.0000 -1.0743
# 3 17.9253 17.9253 94.9272 0.0000 0.0000 0.0000
# 4 0.0000 0.0000 0.0000 35.6478 0.0000 0.0000
# 5 0.0000 0.0000 0.0000 0.0000 35.6478 0.0000
# 6 1.0743 -1.0743 0.0000 0.0000 0.0000 24.3288
#
#
#
# Elastic Compliance Matrix: (Units=1/GPa)
#
#
# Indices 1 2 3 4 5 6 
#
# 1 0.020063 -0.010151 -0.001872 0.000000 0.000000 -0.001334
# 2 -0.010151 0.020063 -0.001872 0.000000 0.000000 0.001334
# 3 -0.001872 -0.001872 0.011241 0.000000 0.000000 0.000000
# 4 0.000000 0.000000 0.000000 0.028052 0.000000 0.000000
# 5 0.000000 0.000000 0.000000 0.000000 0.028052 0.000000
# 6 -0.001334 0.001334 0.000000 0.000000 0.000000 0.041221
#
#
# Mechanical properties :
#
#
# Convention : Reuss Voigt Hill
#
# Bulk Modulus (GPa) = 42.41140 42.43797 42.42469
# Shear Modulus (GPa) = 27.12339 29.97100 28.54719
#
# Velocity S-wave (km/s) = 3.68069 3.86908 3.77606
# Velocity P-wave (km/s) = 6.26472 6.41533 6.34047
#
# Compressibility (1/GPa) = 0.02357857
#
# Stress axis : x y z
#
# Youngs Moduli (GPa) = 49.84218 49.84218 88.95793
#
# Poissons Ratio (x) = 0.50596 0.16650
# Poissons Ratio (y) = 0.50596 0.16650
# Poissons Ratio (z) = 0.09329 0.09329
#
# Static dielectric constant tensor:
#      x y z
#    x 3.538080 0.000000 0.000000 
#    y 0.000000 3.538080 0.000000 
#    z 0.000000 0.000000 3.830660 
# 
# 
# High freq. dielectric constant tensor:
#      x y z
#    x 1.770200 0.000000 0.000000 
#    y 0.000000 1.770200 0.000000 
#    z 0.000000 0.000000 1.803090 
# 
# From -- ./inp_files/620.got.cif
#   From: 2010.03.12/outbox.cif.g09.slc.cpg/sg76_cif.got.tgz:620.got - 2010.04.16 16:34:25.
