data_PCOD8301993
_publ_section_title
;
Structure prediction by ZEFSAII (Michael W. Deem and Ramdas Pophale) SiO2 
 PCOD8301993
Probable space group: P 42
;
_chemical_formula_sum "Si O2"
_cell_formula_units_Z 24
_cell_length_a 9.286782
_cell_length_b 9.286782
_cell_length_c 12.608786
_cell_angle_alpha 90.000000
_cell_angle_beta 90.000000
_cell_angle_gamma 90.000000
_cell_volume 1087.436174
_symmetry_space_group_name_H-M "P 42"
_symmetry_group_IT_number 77
_symmetry_cell_setting 'tetragonal'
loop_
_space_group_symop_operation_xyz
x,y,z
-y,x,1/2+z
-x,-y,z
y,-x,1/2+z
loop_
_atom_site_type_symbol
_atom_site_label
_atom_site_fract_x
_atom_site_fract_y
_atom_site_fract_z
Si Si1 0.332678 0.009039 0.308320
Si Si2 0.717983 0.190611 0.749348
Si Si3 0.635373 0.592769 0.059936
Si Si4 0.257840 0.141615 0.736182
Si Si5 0.399976 0.125514 0.526218
Si Si6 0.509906 0.838239 0.913865
O O1 0.280196 0.137855 0.236203
O O2 0.310564 0.050321 0.431836
O O3 0.500000 0.000000 0.281588
O O4 0.239389 0.869451 0.281455
O O5 0.618068 0.257331 0.658167
O O6 0.645887 0.209249 0.866817
O O7 0.772509 0.028093 0.732145
O O8 0.500000 0.500000 0.099803
O O9 0.739535 0.497578 0.982377
O O10 0.574681 0.734502 0.002880
O O11 0.292675 0.189182 0.615498
O O12 0.394262 0.166362 0.809412
O O13 0.500000 0.000000 0.577963
O O14 0.500000 0.000000 0.961847
#
# Coordination Sequence:
#
# PCOD8301993 Si02
#       6
#     4   4   4   4   4   4
#     4  11  26  42  70 103 144 175 241 300 342 411
#     4  11  24  46  65  99 143 186 233 286 360 421
#     4  12  25  40  71 103 139 190 235 287 357 421
#     4  11  22  45  72  98 135 191 229 287 355 421
#     4  11  21  45  71  99 137 190 231 285 364 420
#     4  10  22  44  70  99 138 181 234 285 348 416
#
# _framework density 22.070260999999999
#
# number of rings (size 3 to 8) (size 9 to 14) (size 15 to 20)
#    0.000    1.000    3.333    4.000    2.333    2.667 
#    6.000    1.667    0.000    0.000    0.000    0.000 
#    0.000    0.000    0.000    0.000    0.000    0.000 
#
# Total GULP energy -297459.911375 kJ/mol
# GULP energy per Si atom -12394.162974 kJ/mol
# Density = 2.202003 g / cm^3
# Si number density = 22.070261 Si / 1000 Ang^3
#
#
#
# Elastic Constant Matrix: (Units=GPa)
#
#
# Indices 1 2 3 4 5 6 
#
# 1 130.1769 72.0230 43.7721 0.0000 0.0000 2.3362
# 2 72.0230 130.1769 43.7721 0.0000 0.0000 -2.3362
# 3 43.7721 43.7721 80.3451 0.0000 0.0000 0.0000
# 4 0.0000 0.0000 0.0000 16.5972 0.0000 0.0000
# 5 0.0000 0.0000 0.0000 0.0000 16.5972 0.0000
# 6 2.3362 -2.3362 0.0000 0.0000 0.0000 52.6038
#
#
#
# Elastic Compliance Matrix: (Units=1/GPa)
#
#
# Indices 1 2 3 4 5 6 
#
# 1 0.011865 -0.005393 -0.003526 0.000000 0.000000 -0.000766
# 2 -0.005393 0.011865 -0.003526 0.000000 0.000000 0.000766
# 3 -0.003526 -0.003526 0.016288 0.000000 0.000000 0.000000
# 4 0.000000 0.000000 0.000000 0.060251 0.000000 0.000000
# 5 0.000000 0.000000 0.000000 0.000000 0.060251 0.000000
# 6 -0.000766 0.000766 0.000000 0.000000 0.000000 0.019078
#
#
# Mechanical properties :
#
#
# Convention : Reuss Voigt Hill
#
# Bulk Modulus (GPa) = 66.10045 73.31481 69.70763
# Shear Modulus (GPa) = 23.86287 29.23509 26.54898
#
# Velocity S-wave (km/s) = 3.29176 3.64351 3.47209
# Velocity P-wave (km/s) = 6.66803 7.14081 6.90846
#
# Compressibility (1/GPa) = 0.01512849
#
# Stress axis : x y z
#
# Youngs Moduli (GPa) = 84.28299 84.28299 61.39359
#
# Poissons Ratio (x) = 0.45450 0.21648
# Poissons Ratio (y) = 0.45450 0.21648
# Poissons Ratio (z) = 0.29719 0.29719
#
# Static dielectric constant tensor:
#      x y z
#    x 4.270420 0.000000 0.000000 
#    y 0.000000 4.270420 0.000000 
#    z 0.000000 0.000000 3.668080 
# 
# 
# High freq. dielectric constant tensor:
#      x y z
#    x 1.879330 0.000000 0.000000 
#    y 0.000000 1.879330 0.000000 
#    z 0.000000 0.000000 1.852810 
# 
# From -- ./inp_files/1109.got.cif
#   From: 2010.03.12/outbox.cif.g09.slc.cpg/sg77_cif.got.tgz:1109.got - 2010.04.16 16:36:19.
