data_PCOD8301962
_publ_section_title
;
Structure prediction by ZEFSAII (Michael W. Deem and Ramdas Pophale) SiO2 
 PCOD8301962
Probable space group: P 41
;
_chemical_formula_sum "Si O2"
_cell_formula_units_Z 28
_cell_length_a 8.918057
_cell_length_b 8.918057
_cell_length_c 14.883440
_cell_angle_alpha 90.000000
_cell_angle_beta 90.000000
_cell_angle_gamma 90.000000
_cell_volume 1183.705890
_symmetry_space_group_name_H-M "P 41"
_symmetry_group_IT_number 76
_symmetry_cell_setting 'tetragonal'
loop_
_space_group_symop_operation_xyz
x,y,z
-y,x,1/4+z
-x,-y,1/2+z
y,-x,3/4+z
loop_
_atom_site_type_symbol
_atom_site_label
_atom_site_fract_x
_atom_site_fract_y
_atom_site_fract_z
Si Si1 0.604308 0.352493 0.010610
Si Si2 0.191743 0.809109 0.647137
Si Si3 0.274587 0.339077 0.070909
Si Si4 0.928121 0.186981 0.764015
Si Si5 0.145869 0.873567 0.961419
Si Si6 0.775084 0.605271 0.067214
Si Si7 0.097976 0.629828 0.098130
O O1 0.751305 0.293330 0.065168
O O2 0.454332 0.347398 0.070304
O O3 0.662344 0.522900 0.996939
O O4 0.562541 0.269307 0.919358
O O5 0.318658 0.802349 0.723550
O O6 0.031543 0.764211 0.694504
O O7 0.171619 0.970508 0.602041
O O8 0.232620 0.193471 0.129329
O O9 0.213947 0.494796 0.112487
O O10 0.778178 0.254653 0.804084
O O11 0.977741 0.310362 0.690943
O O12 0.911143 0.029992 0.711666
O O13 0.180766 0.773288 0.050470
O O14 0.950610 0.569547 0.045473
#
# Coordination Sequence:
#
# PCOD8301962 Si02
#       7
#     4   4   4   4   4   4   4
#     4  12  26  48  68 106 144 197 239 296 369 445
#     4  12  24  45  76 102 143 190 242 306 367 434
#     4  12  27  45  73 106 149 192 246 301 369 449
#     4  11  25  46  73 105 146 186 246 308 367 431
#     4  11  25  44  75 105 141 186 241 305 360 431
#     4  11  26  45  72 101 146 190 243 298 367 442
#     4  11  25  49  69 111 143 189 249 300 365 438
#
# _framework density 23.654523000000001
#
# number of rings (size 3 to 8) (size 9 to 14) (size 15 to 20)
#    0.000    0.571    2.857    5.143    6.000    0.000 
#    0.000    0.000    0.000    0.000    0.000    0.000 
#    0.000    0.000    0.000    0.000    0.000    0.000 
#
# Total GULP energy -346940.190047 kJ/mol
# GULP energy per Si atom -12390.721073 kJ/mol
# Density = 2.360068 g / cm^3
# Si number density = 23.654523 Si / 1000 Ang^3
#
#
#
# Elastic Constant Matrix: (Units=GPa)
#
#
# Indices 1 2 3 4 5 6 
#
# 1 103.0591 50.5491 12.3442 0.0000 0.0000 0.9683
# 2 50.5491 103.0591 12.3442 0.0000 0.0000 -0.9683
# 3 12.3442 12.3442 56.4021 0.0000 0.0000 0.0000
# 4 0.0000 0.0000 0.0000 34.7136 0.0000 0.0000
# 5 0.0000 0.0000 0.0000 0.0000 34.7136 0.0000
# 6 0.9683 -0.9683 0.0000 0.0000 0.0000 39.6583
#
#
#
# Elastic Compliance Matrix: (Units=1/GPa)
#
#
# Indices 1 2 3 4 5 6 
#
# 1 0.012904 -0.006157 -0.001477 0.000000 0.000000 -0.000465
# 2 -0.006157 0.012904 -0.001477 0.000000 0.000000 0.000465
# 3 -0.001477 -0.001477 0.018376 0.000000 0.000000 0.000000
# 4 0.000000 0.000000 0.000000 0.028807 0.000000 0.000000
# 5 0.000000 0.000000 0.000000 0.000000 0.028807 0.000000
# 6 -0.000465 0.000465 0.000000 0.000000 0.000000 0.025238
#
#
# Mechanical properties :
#
#
# Convention : Reuss Voigt Hill
#
# Bulk Modulus (GPa) = 38.51473 45.88837 42.20155
# Shear Modulus (GPa) = 32.48596 34.30263 33.39430
#
# Velocity S-wave (km/s) = 3.70990 3.81222 3.76140
# Velocity P-wave (km/s) = 5.88801 6.23048 6.06166
#
# Compressibility (1/GPa) = 0.02596409
#
# Stress axis : x y z
#
# Youngs Moduli (GPa) = 77.49360 77.49360 54.41814
#
# Poissons Ratio (x) = 0.47712 0.08036
# Poissons Ratio (y) = 0.47712 0.08036
# Poissons Ratio (z) = 0.11444 0.11444
#
# Static dielectric constant tensor:
#      x y z
#    x 4.346510 0.000000 0.000000 
#    y 0.000000 4.346510 0.000000 
#    z 0.000000 0.000000 4.358810 
# 
# 
# High freq. dielectric constant tensor:
#      x y z
#    x 1.940270 0.000000 0.000000 
#    y 0.000000 1.940270 0.000000 
#    z 0.000000 0.000000 1.929030 
# 
# From -- ./inp_files/1104.got.cif
#   From: 2010.03.12/outbox.cif.g09.slc.cpg/sg76_cif.got.tgz:1104.got - 2010.04.16 16:34:25.
