data_PCOD8301693
_publ_section_title
;
Structure prediction by ZEFSAII (Michael W. Deem and Ramdas Pophale) SiO2 
 PCOD8301693
Probable space group: I M M A
;
_chemical_formula_sum "Si O2"
_cell_formula_units_Z 72
_cell_length_a 10.056796
_cell_length_b 23.814091
_cell_length_c 15.035953
_cell_angle_alpha 90.000000
_cell_angle_beta 90.000000
_cell_angle_gamma 90.000000
_cell_volume 3601.012335
_symmetry_space_group_name_H-M "I M M A"
_symmetry_group_IT_number 74
_symmetry_cell_setting 'orthorhombic'
loop_
_space_group_symop_operation_xyz
x,y,z
-x,1/2-y,z
x,-y,-z
-x,1/2+y,-z
-x,-y,-z
x,1/2+y,-z
-x,y,z
x,1/2-y,z
1/2+x,1/2+y,1/2+z
1/2-x,-y,1/2+z
1/2+x,1/2-y,1/2-z
1/2-x,y,1/2-z
1/2-x,1/2-y,1/2-z
1/2+x,y,1/2-z
1/2-x,1/2+y,1/2+z
1/2+x,-y,1/2+z
loop_
_atom_site_type_symbol
_atom_site_label
_atom_site_fract_x
_atom_site_fract_y
_atom_site_fract_z
Si Si1 0.724650 0.655143 0.963714
Si Si2 0.000000 0.185668 0.952739
Si Si3 0.347967 0.965343 0.910218
Si Si4 0.148510 0.250000 0.329962
Si Si5 0.000000 0.183096 0.596507
Si Si6 0.250000 0.537718 0.250000
Si Si7 0.000000 0.883594 0.226332
O O1 0.728151 0.592838 0.924698
O O2 0.665628 0.695026 0.888892
O O3 0.872524 0.673756 0.987081
O O4 0.631308 0.657827 0.050700
O O5 0.000000 0.250000 0.921158
O O6 0.000000 0.146615 0.867529
O O7 0.500000 0.954484 0.880709
O O8 0.269642 0.998722 0.835108
O O9 0.343232 0.000000 0.000000
O O10 0.250000 0.250000 0.250000
O O11 0.000000 0.250000 0.290081
O O12 0.000000 0.164007 0.698201
O O13 0.000000 0.250000 0.590400
O O14 0.126155 0.577245 0.233718
#
# Coordination Sequence:
#
# PCOD8301693 Si02
#       7
#    16   8  16   8   8   8   8
#     4  12  24  45  71  97 138 179 228 280 345 409
#     4  12  25  43  66 105 145 180 221 285 345 402
#     4  11  23  44  71  96 130 179 225 275 341 406
#     4  12  26  46  72  99 129 172 226 283 345 412
#     4  12  21  43  72  99 135 188 233 277 331 414
#     4  12  26  44  67 103 138 176 236 290 334 410
#     4  12  25  42  68 102 142 183 232 280 336 400
#
# _framework density 19.994377
#
# number of rings (size 3 to 8) (size 9 to 14) (size 15 to 20)
#    0.000    0.222    5.556    4.333    3.111    0.889 
#    0.000    5.556    0.000    0.000    0.000    0.000 
#    0.000    0.000    0.000    0.000    0.000    0.000 
#
# Total GULP energy -446684.737902 kJ/mol
# GULP energy per Si atom -12407.909386 kJ/mol
# Density = 1.994887 g / cm^3
# Si number density = 19.994377 Si / 1000 Ang^3
#
#
#
# Elastic Constant Matrix: (Units=GPa)
#
#
# Indices 1 2 3 4 5 6 
#
# 1 151.6100 44.8562 38.3016 0.0000 0.0000 0.0002
# 2 44.8562 148.1351 34.3047 0.0000 0.0000 -0.0002
# 3 38.3016 34.3047 93.2735 0.0000 0.0000 -0.0002
# 4 0.0000 0.0000 0.0000 50.0881 0.0000 -0.0001
# 5 0.0000 0.0000 0.0000 0.0000 41.1139 -0.0001
# 6 0.0002 -0.0002 -0.0002 -0.0001 -0.0001 91.4072
#
#
#
# Elastic Compliance Matrix: (Units=1/GPa)
#
#
# Indices 1 2 3 4 5 6 
#
# 1 0.007758 -0.001762 -0.002538 0.000000 0.000000 0.000000
# 2 -0.001762 0.007779 -0.002138 0.000000 0.000000 0.000000
# 3 -0.002538 -0.002138 0.012550 0.000000 0.000000 0.000000
# 4 0.000000 0.000000 0.000000 0.019965 0.000000 0.000000
# 5 0.000000 0.000000 0.000000 0.000000 0.024323 0.000000
# 6 0.000000 0.000000 0.000000 0.000000 0.000000 0.010940
#
#
# Mechanical properties :
#
#
# Convention : Reuss Voigt Hill
#
# Bulk Modulus (GPa) = 65.73534 69.77150 67.75342
# Shear Modulus (GPa) = 49.37813 54.89227 52.13520
#
# Velocity S-wave (km/s) = 4.97490 5.24533 5.11190
# Velocity P-wave (km/s) = 8.12082 8.46498 8.29469
#
# Compressibility (1/GPa) = 0.01521252
#
# Stress axis : x y z
#
# Youngs Moduli (GPa) = 128.89578 128.55081 79.68414
#
# Poissons Ratio (x) = 0.22644 0.20223
# Poissons Ratio (y) = 0.22705 0.17034
# Poissons Ratio (z) = 0.32713 0.27480
#
# Static dielectric constant tensor:
#      x y z
#    x 3.932060 0.000000 0.000000 
#    y 0.000000 3.746530 0.000000 
#    z 0.000000 0.000000 3.730940 
# 
# 
# High freq. dielectric constant tensor:
#      x y z
#    x 1.793490 0.000000 0.000000 
#    y 0.000000 1.801870 0.000000 
#    z 0.000000 0.000000 1.784060 
# 
# From -- ./inp_files/29258.got.cif
#   From: 2010.03.12/outbox.cif.g09.slc.cpg/sg74_15_cif.got.tgz:29258.got - 2010.04.16 15:46:19.
