data_PCOD8301704
_publ_section_title
;
Structure prediction by ZEFSAII (Michael W. Deem and Ramdas Pophale) SiO2 
 PCOD8301704
Probable space group: I M M A
;
_chemical_formula_sum "Si O2"
_cell_formula_units_Z 80
_cell_length_a 15.282783
_cell_length_b 28.615393
_cell_length_c 8.887078
_cell_angle_alpha 90.000000
_cell_angle_beta 90.000000
_cell_angle_gamma 90.000000
_cell_volume 3886.522205
_symmetry_space_group_name_H-M "I M M A"
_symmetry_group_IT_number 74
_symmetry_cell_setting 'orthorhombic'
loop_
_space_group_symop_operation_xyz
x,y,z
-x,1/2-y,z
x,-y,-z
-x,1/2+y,-z
-x,-y,-z
x,1/2+y,-z
-x,y,z
x,1/2-y,z
1/2+x,1/2+y,1/2+z
1/2-x,-y,1/2+z
1/2+x,1/2-y,1/2-z
1/2-x,y,1/2-z
1/2-x,1/2-y,1/2-z
1/2+x,y,1/2-z
1/2-x,1/2+y,1/2+z
1/2+x,-y,1/2+z
loop_
_atom_site_type_symbol
_atom_site_label
_atom_site_fract_x
_atom_site_fract_y
_atom_site_fract_z
Si Si1 0.147136 0.697442 0.578541
Si Si2 0.401492 0.607258 0.078034
Si Si3 0.401495 0.607260 0.421998
Si Si4 0.852873 0.302558 0.078575
Si Si5 0.250000 0.949581 0.927327
O O1 0.122433 0.750000 0.528332
O O2 0.098235 0.661470 0.470204
O O3 0.116961 0.688971 0.749981
O O4 0.250005 0.689060 0.564728
O O5 0.500000 0.587689 0.059902
O O6 0.369933 0.603294 0.250016
O O7 0.337207 0.577672 0.974050
O O8 0.500000 0.587686 0.440127
O O9 0.401780 0.661471 0.470241
O O10 0.337205 0.577679 0.525983
O O11 0.877580 0.250000 0.028379
O O12 0.250000 0.955107 0.750000
O O13 0.249988 0.000000 0.000000
#
# Coordination Sequence:
#
# PCOD8301704 Si02
#       5
#    16  16  16  16  16
#     4   9  18  34  58  89 125 167 212 255 303 360
#     4  11  24  41  63  94 130 165 205 253 307 368
#     4  11  24  41  63  94 130 165 205 253 307 368
#     4   9  18  34  58  89 125 167 212 255 303 360
#     4  12  26  46  71  94 121 158 202 255 313 371
#
# _framework density 20.583955
#
# number of rings (size 3 to 8) (size 9 to 14) (size 15 to 20)
#    0.000    1.600    2.000    4.200    0.000    5.600 
#    0.000    6.000    0.000    0.000    0.000    0.000 
#    0.000    0.000    0.000    0.000    0.000    0.000 
#
# Total GULP energy -496111.578592 kJ/mol
# GULP energy per Si atom -12402.789465 kJ/mol
# Density = 2.053711 g / cm^3
# Si number density = 20.583955 Si / 1000 Ang^3
#
#
#
# Elastic Constant Matrix: (Units=GPa)
#
#
# Indices 1 2 3 4 5 6 
#
# 1 96.6148 45.3765 53.3007 -0.0006 0.0005 0.0003
# 2 45.3765 126.4775 61.2148 0.0006 0.0002 0.0004
# 3 53.3007 61.2148 146.2295 -0.0065 -0.0005 0.0014
# 4 -0.0006 0.0006 -0.0065 41.7035 0.0006 0.0008
# 5 0.0005 0.0002 -0.0005 0.0006 19.7043 -0.0003
# 6 0.0003 0.0004 0.0014 0.0008 -0.0003 5.5333
#
#
#
# Elastic Compliance Matrix: (Units=1/GPa)
#
#
# Indices 1 2 3 4 5 6 
#
# 1 0.013906 -0.003180 -0.003737 0.000000 0.000000 0.000000
# 2 -0.003180 0.010643 -0.003296 -0.000001 0.000000 0.000000
# 3 -0.003737 -0.003296 0.009581 0.000001 0.000000 -0.000002
# 4 0.000000 -0.000001 0.000001 0.023979 -0.000001 -0.000003
# 5 0.000000 0.000000 0.000000 -0.000001 0.050750 0.000003
# 6 0.000000 0.000000 -0.000002 -0.000003 0.000003 0.180723
#
#
# Mechanical properties :
#
#
# Convention : Reuss Voigt Hill
#
# Bulk Modulus (GPa) = 72.98221 76.56731 74.77476
# Shear Modulus (GPa) = 15.89441 27.35020 21.62231
#
# Velocity S-wave (km/s) = 2.78182 3.64911 3.24457
# Velocity P-wave (km/s) = 6.77133 7.41842 7.10225
#
# Compressibility (1/GPa) = 0.01370197
#
# Stress axis : x y z
#
# Youngs Moduli (GPa) = 71.91225 93.96011 104.37654
#
# Poissons Ratio (x) = 0.29880 0.39010
# Poissons Ratio (y) = 0.22869 0.34404
# Poissons Ratio (z) = 0.26877 0.30971
#
# Static dielectric constant tensor:
#      x y z
#    x 3.650170 0.000000 0.000000 
#    y 0.000000 3.868410 -0.000010 
#    z 0.000000 -0.000010 3.719740 
# 
# 
# High freq. dielectric constant tensor:
#      x y z
#    x 1.807750 0.000000 0.000000 
#    y 0.000000 1.804830 0.000000 
#    z 0.000000 0.000000 1.804790 
# 
# From -- ./inp_files/10916.got.cif
#   From: 2010.03.12/outbox.cif.g09.slc.cpg/sg74_6_cif.got.tgz:10916.got - 2010.04.16 15:46:19.
