data_PCOD8301795
_publ_section_title
;
Structure prediction by ZEFSAII (Michael W. Deem and Ramdas Pophale) SiO2 
 PCOD8301795
Probable space group: I M M A
;
_chemical_formula_sum "Si O2"
_cell_formula_units_Z 96
_cell_length_a 9.540338
_cell_length_b 19.058497
_cell_length_c 30.322500
_cell_angle_alpha 90.000000
_cell_angle_beta 90.000000
_cell_angle_gamma 90.000000
_cell_volume 5513.373497
_symmetry_space_group_name_H-M "I M M A"
_symmetry_group_IT_number 74
_symmetry_cell_setting 'orthorhombic'
loop_
_space_group_symop_operation_xyz
x,y,z
-x,1/2-y,z
x,-y,-z
-x,1/2+y,-z
-x,-y,-z
x,1/2+y,-z
-x,y,z
x,1/2-y,z
1/2+x,1/2+y,1/2+z
1/2-x,-y,1/2+z
1/2+x,1/2-y,1/2-z
1/2-x,y,1/2-z
1/2-x,1/2-y,1/2-z
1/2+x,y,1/2-z
1/2-x,1/2+y,1/2+z
1/2+x,-y,1/2+z
loop_
_atom_site_type_symbol
_atom_site_label
_atom_site_fract_x
_atom_site_fract_y
_atom_site_fract_z
Si Si1 0.664370 0.668366 0.205958
Si Si2 0.835051 0.567149 0.472725
Si Si3 0.666369 0.087239 0.127572
Si Si4 0.666143 0.430765 0.873687
Si Si5 0.834474 0.171977 0.454387
Si Si6 0.657761 0.832741 0.789117
O O1 0.500000 0.653366 0.214719
O O2 0.690102 0.750000 0.194775
O O3 0.750000 0.646589 0.250000
O O4 0.721566 0.623726 0.163622
O O5 0.772683 0.500000 0.500000
O O6 0.773489 0.580197 0.423476
O O7 0.798575 0.638487 0.498451
O O8 0.000000 0.553480 0.468187
O O9 0.500000 0.087111 0.123551
O O10 0.729509 0.120084 0.082729
O O11 0.720970 0.136999 0.166188
O O12 0.718125 0.008953 0.138347
O O13 0.500000 0.423511 0.874460
O O14 0.767978 0.250000 0.451526
O O15 0.000000 0.177727 0.447608
O O16 0.500000 0.858886 0.781389
O O17 0.666887 0.750000 0.792078
O O18 0.750000 0.863702 0.750000
#
# Coordination Sequence:
#
# PCOD8301795 Si02
#       6
#    16  16  16  16  16  16
#     4   9  18  32  48  66  90 119 150 186 227 268
#     4   9  14  22  34  51  79 112 142 173 212 259
#     4   9  15  24  37  54  77 106 138 172 209 252
#     4   9  16  25  40  59  82 113 145 176 215 260
#     4   9  15  21  32  51  75 106 141 173 208 255
#     4   9  17  28  41  57  79 107 138 173 210 246
#
# _framework density 17.412206000000001
#
# number of rings (size 3 to 8) (size 9 to 14) (size 15 to 20)
#    0.000    3.000    1.667    0.500    0.000    3.333 
#    0.000    3.333    0.000    0.000    0.000    0.000 
#    0.000    2.000    0.000    9.000    0.000    9.000 
#
# Total GULP energy -594699.478127 kJ/mol
# GULP energy per Si atom -12389.572461 kJ/mol
# Density = 1.737258 g / cm^3
# Si number density = 17.412206 Si / 1000 Ang^3
#
#
#
# Elastic Constant Matrix: (Units=GPa)
#
#
# Indices 1 2 3 4 5 6 
#
# 1 15.0159 15.5793 27.5695 0.0000 0.0000 0.0000
# 2 15.5793 85.3446 54.7313 0.0000 0.0000 0.0000
# 3 27.5695 54.7313 157.5284 0.0000 0.0000 0.0000
# 4 0.0000 0.0000 0.0000 33.8037 0.0000 0.0000
# 5 0.0000 0.0000 0.0000 0.0000 14.5961 0.0000
# 6 0.0000 0.0000 0.0000 0.0000 0.0000 7.2330
#
#
#
# Elastic Compliance Matrix: (Units=1/GPa)
#
#
# Indices 1 2 3 4 5 6 
#
# 1 0.103649 -0.009377 -0.014882 0.000000 0.000000 0.000000
# 2 -0.009377 0.015925 -0.003892 0.000000 0.000000 0.000000
# 3 -0.014882 -0.003892 0.010305 0.000000 0.000000 0.000000
# 4 0.000000 0.000000 0.000000 0.029583 0.000000 0.000000
# 5 0.000000 0.000000 0.000000 0.000000 0.068511 0.000000
# 6 0.000000 0.000000 0.000000 0.000000 0.000000 0.138256
#
#
# Mechanical properties :
#
#
# Convention : Reuss Voigt Hill
#
# Bulk Modulus (GPa) = 13.59120 50.40545 31.99833
# Shear Modulus (GPa) = 11.18430 21.79380 16.48905
#
# Velocity S-wave (km/s) = 2.53716 3.54169 3.08065
# Velocity P-wave (km/s) = 4.05036 6.76283 5.57411
#
# Compressibility (1/GPa) = 0.07357701
#
# Stress axis : x y z
#
# Youngs Moduli (GPa) = 9.64797 62.79569 97.04256
#
# Poissons Ratio (x) = 0.58882 1.44419
# Poissons Ratio (y) = 0.09047 0.37767
# Poissons Ratio (z) = 0.14358 0.24439
#
# Static dielectric constant tensor:
#      x y z
#    x 2.578700 0.000000 0.000000 
#    y 0.000000 3.369800 0.000000 
#    z 0.000000 0.000000 3.583560 
# 
# 
# High freq. dielectric constant tensor:
#      x y z
#    x 1.581890 0.000000 0.000000 
#    y 0.000000 1.679390 0.000000 
#    z 0.000000 0.000000 1.689660 
# 
# From -- ./inp_files/58979.got.cif
#   From: 2010.03.12/outbox.cif.g09.slc.cpg/sg74_30_cif.got.tgz:58979.got - 2010.04.16 15:46:19.
