data_PCOD8301408
_publ_section_title
;
Structure prediction by ZEFSAII (Michael W. Deem and Ramdas Pophale) SiO2 
 PCOD8301408
Probable space group: I M M A
;
_chemical_formula_sum "Si O2"
_cell_formula_units_Z 64
_cell_length_a 18.202167
_cell_length_b 14.947425
_cell_length_c 12.064058
_cell_angle_alpha 90.000000
_cell_angle_beta 90.000000
_cell_angle_gamma 90.000000
_cell_volume 3282.334927
_symmetry_space_group_name_H-M "I M M A"
_symmetry_group_IT_number 74
_symmetry_cell_setting 'orthorhombic'
loop_
_space_group_symop_operation_xyz
x,y,z
-x,1/2-y,z
x,-y,-z
-x,1/2+y,-z
-x,-y,-z
x,1/2+y,-z
-x,y,z
x,1/2-y,z
1/2+x,1/2+y,1/2+z
1/2-x,-y,1/2+z
1/2+x,1/2-y,1/2-z
1/2-x,y,1/2-z
1/2-x,1/2-y,1/2-z
1/2+x,y,1/2-z
1/2-x,1/2+y,1/2+z
1/2+x,-y,1/2+z
loop_
_atom_site_type_symbol
_atom_site_label
_atom_site_fract_x
_atom_site_fract_y
_atom_site_fract_z
Si Si1 0.650944 0.147065 0.721783
Si Si2 0.874729 0.750000 0.811059
Si Si3 0.000000 0.381965 0.118641
Si Si4 0.714397 0.250000 0.087713
Si Si5 0.500000 0.091698 0.638278
Si Si6 0.772193 0.409007 0.566717
O O1 0.671396 0.250000 0.747153
O O2 0.566003 0.134667 0.704735
O O3 0.690631 0.115361 0.608859
O O4 0.675785 0.086109 0.825358
O O5 0.925626 0.836876 0.833726
O O6 0.801386 0.750000 0.885043
O O7 0.843931 0.750000 0.686964
O O8 0.000000 0.485245 0.151313
O O9 0.000000 0.372517 0.986574
O O10 0.695601 0.336813 0.017165
O O11 0.769517 0.500000 0.500000
#
# Coordination Sequence:
#
# PCOD8301408 Si02
#       6
#    16   8   8   8   8  16
#     4  11  23  44  64  95 125 167 215 263 308 381
#     4  10  24  38  65  86 134 155 206 249 325 371
#     4  10  24  43  56  96 125 164 195 269 308 375
#     4  11  22  41  65  96 120 169 206 258 315 372
#     4  11  25  38  68  88 125 160 217 252 318 361
#     4  11  24  40  68  92 129 163 210 261 319 370
#
# _framework density 19.498315000000002
#
# number of rings (size 3 to 8) (size 9 to 14) (size 15 to 20)
#    0.000    1.250    2.500    2.625   14.000    2.000 
#    0.000    3.125    0.000    0.000    0.000    0.000 
#    0.000    0.000    0.000    0.000    0.000    0.000 
#
# Total GULP energy -396799.086376 kJ/mol
# GULP energy per Si atom -12399.971449 kJ/mol
# Density = 1.945394 g / cm^3
# Si number density = 19.498315 Si / 1000 Ang^3
#
#
#
# Elastic Constant Matrix: (Units=GPa)
#
#
# Indices 1 2 3 4 5 6 
#
# 1 142.0030 34.1831 53.3010 0.0000 0.0000 0.0000
# 2 34.1831 125.1612 53.0710 0.0000 0.0000 0.0000
# 3 53.3010 53.0710 112.6834 0.0000 0.0000 0.0000
# 4 0.0000 0.0000 0.0000 43.5809 0.0000 0.0000
# 5 0.0000 0.0000 0.0000 0.0000 26.7623 0.0000
# 6 0.0000 0.0000 0.0000 0.0000 0.0000 22.9331
#
#
#
# Elastic Compliance Matrix: (Units=1/GPa)
#
#
# Indices 1 2 3 4 5 6 
#
# 1 0.008623 -0.000782 -0.003711 0.000000 0.000000 0.000000
# 2 -0.000782 0.010054 -0.004366 0.000000 0.000000 0.000000
# 3 -0.003711 -0.004366 0.012686 0.000000 0.000000 0.000000
# 4 0.000000 0.000000 0.000000 0.022946 0.000000 0.000000
# 5 0.000000 0.000000 0.000000 0.000000 0.037366 0.000000
# 6 0.000000 0.000000 0.000000 0.000000 0.000000 0.043605
#
#
# Mechanical properties :
#
#
# Convention : Reuss Voigt Hill
#
# Bulk Modulus (GPa) = 73.27510 73.43975 73.35743
# Shear Modulus (GPa) = 31.73700 34.60812 33.17256
#
# Velocity S-wave (km/s) = 4.03883 4.21756 4.12916
# Velocity P-wave (km/s) = 7.70787 7.83987 7.77415
#
# Compressibility (1/GPa) = 0.01364720
#
# Stress axis : x y z
#
# Youngs Moduli (GPa) = 115.96770 99.46023 78.82879
#
# Poissons Ratio (x) = 0.07774 0.29251
# Poissons Ratio (y) = 0.09065 0.34413
# Poissons Ratio (z) = 0.43032 0.43420
#
# Static dielectric constant tensor:
#      x y z
#    x 3.523750 0.000000 0.000000 
#    y 0.000000 3.479710 0.000000 
#    z 0.000000 0.000000 3.582280 
# 
# 
# High freq. dielectric constant tensor:
#      x y z
#    x 1.761450 0.000000 0.000000 
#    y 0.000000 1.766960 0.000000 
#    z 0.000000 0.000000 1.765920 
# 
# From -- ./inp_files/20020.got.cif
#   From: 2010.03.12/outbox.cif.g09.slc.cpg/sg74_11_cif.got.tgz:20020.got - 2010.04.16 15:46:19.
