data_PCOD8301272
_publ_section_title
;
Structure prediction by ZEFSAII (Michael W. Deem and Ramdas Pophale) SiO2 
 PCOD8301272
Probable space group: I M M A
;
_chemical_formula_sum "Si O2"
_cell_formula_units_Z 60
_cell_length_a 13.700349
_cell_length_b 24.645689
_cell_length_c 8.853188
_cell_angle_alpha 90.000000
_cell_angle_beta 90.000000
_cell_angle_gamma 90.000000
_cell_volume 2989.319127
_symmetry_space_group_name_H-M "I M M A"
_symmetry_group_IT_number 74
_symmetry_cell_setting 'orthorhombic'
loop_
_space_group_symop_operation_xyz
x,y,z
-x,1/2-y,z
x,-y,-z
-x,1/2+y,-z
-x,-y,-z
x,1/2+y,-z
-x,y,z
x,1/2-y,z
1/2+x,1/2+y,1/2+z
1/2-x,-y,1/2+z
1/2+x,1/2-y,1/2-z
1/2-x,y,1/2-z
1/2-x,1/2-y,1/2-z
1/2+x,y,1/2-z
1/2-x,1/2+y,1/2+z
1/2+x,-y,1/2+z
loop_
_atom_site_type_symbol
_atom_site_label
_atom_site_fract_x
_atom_site_fract_y
_atom_site_fract_z
Si Si1 0.000000 0.250000 0.969247
Si Si2 0.500000 0.435278 0.497982
Si Si3 0.800217 0.147747 0.592243
Si Si4 0.000000 0.649379 0.256041
Si Si5 0.791301 0.944189 0.912677
Si Si6 0.713588 0.750000 0.578889
O O1 0.000000 0.196719 0.866881
O O2 0.904309 0.250000 0.075333
O O3 0.500000 0.500000 0.500000
O O4 0.500000 0.408224 0.666062
O O5 0.400378 0.416922 0.411688
O O6 0.750000 0.136938 0.750000
O O7 0.912884 0.156142 0.626238
O O8 0.786315 0.095198 0.489680
O O9 0.754303 0.198442 0.507815
O O10 0.750000 0.957209 0.750000
O O11 0.797334 0.000000 0.000000
O O12 0.750000 0.750000 0.750000
#
# Coordination Sequence:
#
# PCOD8301272 Si02
#       6
#     4   8  16   8  16   8
#     4  12  22  42  70  98 136 182 220 264 350 392
#     4  10  22  39  64  91 132 174 216 273 347 389
#     4  12  23  43  67  98 130 174 225 271 330 396
#     4  12  24  40  72 100 131 179 227 279 331 408
#     4  11  24  42  66  95 132 173 221 276 336 399
#     4  12  26  43  69 102 142 175 220 276 333 399
#
# _framework density 20.071459999999998
#
# number of rings (size 3 to 8) (size 9 to 14) (size 15 to 20)
#    0.000    0.533    5.333    2.800    3.733    2.133 
#    0.000    1.333    0.000    0.000    0.000    0.000 
#    0.000    0.000    0.000    0.000    0.000    0.000 
#
# Total GULP energy -371984.521336 kJ/mol
# GULP energy per Si atom -12399.484045 kJ/mol
# Density = 2.002578 g / cm^3
# Si number density = 20.071460 Si / 1000 Ang^3
#
#
#
# Elastic Constant Matrix: (Units=GPa)
#
#
# Indices 1 2 3 4 5 6 
#
# 1 186.3007 26.5182 62.9652 -0.0035 -0.0003 0.0000
# 2 26.5182 105.7890 38.7206 -0.0024 -0.0001 0.0001
# 3 62.9652 38.7206 128.0237 0.0019 -0.0007 0.0001
# 4 -0.0035 -0.0024 0.0019 -89.9692 -0.0007 0.0002
# 5 -0.0003 -0.0001 -0.0007 -0.0007 33.9275 0.0000
# 6 0.0000 0.0001 0.0001 0.0002 0.0000 29.9874
#
#
#
# Elastic Compliance Matrix: (Units=1/GPa)
#
#
# Indices 1 2 3 4 5 6 
#
# 1 0.006462 -0.000513 -0.003023 0.000000 0.000000 0.000000
# 2 -0.000513 0.010670 -0.002975 0.000000 0.000000 0.000000
# 3 -0.003023 -0.002975 0.010198 0.000000 0.000000 0.000000
# 4 0.000000 0.000000 0.000000 -0.011115 0.000000 0.000000
# 5 0.000000 0.000000 0.000000 0.000000 0.029475 0.000000
# 6 0.000000 0.000000 0.000000 0.000000 0.000000 0.033347
#
#
# Mechanical properties :
#
#
# Convention : Reuss Voigt Hill
#
# Bulk Modulus (GPa) = 69.89171 75.16906 72.53038
# Shear Modulus (GPa) = 51.63735 14.24977 32.94356
#
# Velocity S-wave (km/s) = 5.07766 2.66738 4.05571
# Velocity P-wave (km/s) = 8.32309 6.85701 7.62537
#
# Compressibility (1/GPa) = 0.01430785
#
# Stress axis : x y z
#
# Youngs Moduli (GPa) = 154.73899 93.71832 98.06235
#
# Poissons Ratio (x) = 0.04812 0.29645
# Poissons Ratio (y) = 0.07945 0.29171
# Poissons Ratio (z) = 0.46780 0.27878
#
# Static dielectric constant tensor:
#      x y z
#    x 4.224240 0.000000 0.000000 
#    y 0.000000 3.863270 0.000000 
#    z 0.000000 0.000000 2.612550 
# 
# 
# High freq. dielectric constant tensor:
#      x y z
#    x 1.805770 0.000000 0.000000 
#    y 0.000000 1.796620 0.000000 
#    z 0.000000 0.000000 1.773850 
# 
# From -- ./inp_files/7173.got.cif
#   From: 2010.03.12/outbox.cif.g09.slc.cpg/sg74_4_cif.got.tgz:7173.got - 2010.04.16 15:46:19.
