data_PCOD8301497
_publ_section_title
;
Structure prediction by ZEFSAII (Michael W. Deem and Ramdas Pophale) SiO2 
 PCOD8301497
Probable space group: I M M A
;
_chemical_formula_sum "Si O2"
_cell_formula_units_Z 96
_cell_length_a 16.644270
_cell_length_b 22.587482
_cell_length_c 13.750323
_cell_angle_alpha 90.000000
_cell_angle_beta 90.000000
_cell_angle_gamma 90.000000
_cell_volume 5169.463482
_symmetry_space_group_name_H-M "I M M A"
_symmetry_group_IT_number 74
_symmetry_cell_setting 'orthorhombic'
loop_
_space_group_symop_operation_xyz
x,y,z
-x,1/2-y,z
x,-y,-z
-x,1/2+y,-z
-x,-y,-z
x,1/2+y,-z
-x,y,z
x,1/2-y,z
1/2+x,1/2+y,1/2+z
1/2-x,-y,1/2+z
1/2+x,1/2-y,1/2-z
1/2-x,y,1/2-z
1/2-x,1/2-y,1/2-z
1/2+x,y,1/2-z
1/2-x,1/2+y,1/2+z
1/2+x,-y,1/2+z
loop_
_atom_site_type_symbol
_atom_site_label
_atom_site_fract_x
_atom_site_fract_y
_atom_site_fract_z
Si Si1 0.203232 0.856991 0.509794
Si Si2 0.228740 0.944197 0.142636
Si Si3 0.406789 0.250000 0.006662
Si Si4 0.409320 0.750000 0.762519
Si Si5 0.867091 0.469997 0.405823
Si Si6 0.816475 0.359644 0.175837
Si Si7 0.589471 0.523968 0.687809
O O1 0.253409 0.887714 0.423757
O O2 0.143203 0.806836 0.468199
O O3 0.146157 0.901374 0.570140
O O4 0.271935 0.832020 0.581762
O O5 0.250000 0.923112 0.250000
O O6 0.280431 0.999920 0.107158
O O7 0.136978 0.967666 0.143357
O O8 0.500000 0.250000 0.968589
O O9 0.405750 0.250000 0.122180
O O10 0.500000 0.750000 0.723859
O O11 0.366752 0.808224 0.724771
O O12 0.911272 0.500000 0.500000
O O13 0.915891 0.477033 0.306014
O O14 0.750000 0.385097 0.250000
O O15 0.872766 0.414874 0.148951
O O16 0.500000 0.519050 0.646570
#
# Coordination Sequence:
#
# PCOD8301497 Si02
#       7
#    16  16   8   8  16  16  16
#     4  11  20  35  60  79 108 156 187 225 274 340
#     4   9  19  38  57  80 107 149 197 231 273 341
#     4  11  23  37  56  89 116 137 181 239 293 333
#     4  11  22  34  50  82 121 149 180 233 282 329
#     4   9  17  32  56  79 106 144 184 224 279 347
#     4  12  19  33  53  78 111 155 191 209 267 345
#     4  11  20  32  51  81 116 146 182 238 283 317
#
# _framework density 18.570592000000001
#
# number of rings (size 3 to 8) (size 9 to 14) (size 15 to 20)
#    0.000    1.500    5.000    1.750    0.000    2.333 
#    0.000    9.583    0.000    0.000    0.000    1.167 
#    0.000    0.000    0.000    0.000    0.000    0.000 
#
# Total GULP energy -595027.551457 kJ/mol
# GULP energy per Si atom -12396.407322 kJ/mol
# Density = 1.852832 g / cm^3
# Si number density = 18.570592 Si / 1000 Ang^3
#
#
#
# Elastic Constant Matrix: (Units=GPa)
#
#
# Indices 1 2 3 4 5 6 
#
# 1 131.7292 50.7073 22.6146 0.0000 0.0000 0.0000
# 2 50.7073 97.6801 26.2965 0.0000 0.0000 0.0000
# 3 22.6146 26.2965 48.1468 0.0000 0.0000 0.0000
# 4 0.0000 0.0000 0.0000 27.5619 0.0000 0.0000
# 5 0.0000 0.0000 0.0000 0.0000 13.2477 0.0000
# 6 0.0000 0.0000 0.0000 0.0000 0.0000 22.1774
#
#
#
# Elastic Compliance Matrix: (Units=1/GPa)
#
#
# Indices 1 2 3 4 5 6 
#
# 1 0.009667 -0.004450 -0.002110 0.000000 0.000000 0.000000
# 2 -0.004450 0.014051 -0.005584 0.000000 0.000000 0.000000
# 3 -0.002110 -0.005584 0.024811 0.000000 0.000000 0.000000
# 4 0.000000 0.000000 0.000000 0.036282 0.000000 0.000000
# 5 0.000000 0.000000 0.000000 0.000000 0.075485 0.000000
# 6 0.000000 0.000000 0.000000 0.000000 0.000000 0.045091
#
#
# Mechanical properties :
#
#
# Convention : Reuss Voigt Hill
#
# Bulk Modulus (GPa) = 41.25384 52.97699 47.11542
# Shear Modulus (GPa) = 21.03015 24.45991 22.74503
#
# Velocity S-wave (km/s) = 3.36883 3.63317 3.50349
# Velocity P-wave (km/s) = 6.11513 6.79626 6.46467
#
# Compressibility (1/GPa) = 0.02424017
#
# Stress axis : x y z
#
# Youngs Moduli (GPa) = 103.44983 71.17003 40.30522
#
# Poissons Ratio (x) = 0.31671 0.08504
# Poissons Ratio (y) = 0.46036 0.22507
# Poissons Ratio (z) = 0.21827 0.39742
#
# Static dielectric constant tensor:
#      x y z
#    x 3.401030 0.000000 0.000000 
#    y 0.000000 3.353840 0.000000 
#    z 0.000000 0.000000 3.600960 
# 
# 
# High freq. dielectric constant tensor:
#      x y z
#    x 1.713800 0.000000 0.000000 
#    y 0.000000 1.708080 0.000000 
#    z 0.000000 0.000000 1.704020 
# 
# From -- ./inp_files/32613.got.cif
#   From: 2010.03.12/outbox.cif.g09.slc.cpg/sg74_17_cif.got.tgz:32613.got - 2010.04.16 15:46:19.
