data_PCOD8301609
_publ_section_title
;
Structure prediction by ZEFSAII (Michael W. Deem and Ramdas Pophale) SiO2 
 PCOD8301609
Probable space group: I M M A
;
_chemical_formula_sum "Si O2"
_cell_formula_units_Z 88
_cell_length_a 13.361041
_cell_length_b 14.643031
_cell_length_c 24.114296
_cell_angle_alpha 90.000000
_cell_angle_beta 90.000000
_cell_angle_gamma 90.000000
_cell_volume 4717.868872
_symmetry_space_group_name_H-M "I M M A"
_symmetry_group_IT_number 74
_symmetry_cell_setting 'orthorhombic'
loop_
_space_group_symop_operation_xyz
x,y,z
-x,1/2-y,z
x,-y,-z
-x,1/2+y,-z
-x,-y,-z
x,1/2+y,-z
-x,y,z
x,1/2-y,z
1/2+x,1/2+y,1/2+z
1/2-x,-y,1/2+z
1/2+x,1/2-y,1/2-z
1/2-x,y,1/2-z
1/2-x,1/2-y,1/2-z
1/2+x,y,1/2-z
1/2-x,1/2+y,1/2+z
1/2+x,-y,1/2+z
loop_
_atom_site_type_symbol
_atom_site_label
_atom_site_fract_x
_atom_site_fract_y
_atom_site_fract_z
Si Si1 0.883622 0.250000 0.979487
Si Si2 0.618145 0.750000 0.602232
Si Si3 0.610474 0.351916 0.939820
Si Si4 0.750000 0.012011 0.750000
Si Si5 0.119749 0.060510 0.154063
Si Si6 0.309748 0.441326 0.551850
Si Si7 0.110299 0.149608 0.691087
O O1 0.855453 0.159887 0.945320
O O2 0.000000 0.250000 0.988905
O O3 0.833043 0.250000 0.040756
O O4 0.500000 0.750000 0.597668
O O5 0.654012 0.660525 0.634679
O O6 0.500000 0.378064 0.963086
O O7 0.641001 0.250000 0.961730
O O8 0.690494 0.428677 0.957558
O O9 0.606400 0.348551 0.874324
O O10 0.826363 0.952378 0.786731
O O11 0.811908 0.074131 0.708622
O O12 0.000000 0.050786 0.160581
O O13 0.160021 0.988258 0.109210
O O14 0.352492 0.500000 0.500000
O O15 0.142451 0.250000 0.713175
O O16 0.000000 0.125664 0.714802
#
# Coordination Sequence:
#
# PCOD8301609 Si02
#       7
#     8   8  16   8  16  16  16
#     4  11  22  36  58  87 125 159 189 241 301 356
#     4   9  20  41  61  82 115 154 192 240 297 351
#     4   9  18  35  56  78 111 152 191 232 284 348
#     4  12  21  35  58  82 112 154 192 244 286 336
#     4  11  24  40  60  88 118 152 197 244 293 353
#     4  12  22  36  61  90 117 153 196 241 300 358
#     4   9  18  33  52  75 108 149 186 223 276 339
#
# _framework density 18.65249
#
# number of rings (size 3 to 8) (size 9 to 14) (size 15 to 20)
#    0.000    1.636    4.545    2.455    0.000    1.455 
#    1.636    0.000    0.000    0.000    0.000    1.273 
#    0.000    0.000    0.000    0.000    0.000    0.000 
#
# Total GULP energy -545401.371227 kJ/mol
# GULP energy per Si atom -12395.485710 kJ/mol
# Density = 1.861004 g / cm^3
# Si number density = 18.652490 Si / 1000 Ang^3
#
#
#
# Elastic Constant Matrix: (Units=GPa)
#
#
# Indices 1 2 3 4 5 6 
#
# 1 80.5268 39.5871 22.0105 0.0000 0.0000 0.0000
# 2 39.5871 123.1111 35.8669 0.0000 0.0000 0.0000
# 3 22.0105 35.8669 66.2143 0.0000 0.0000 0.0000
# 4 0.0000 0.0000 0.0000 42.8840 0.0000 0.0000
# 5 0.0000 0.0000 0.0000 0.0000 25.0623 0.0000
# 6 0.0000 0.0000 0.0000 0.0000 0.0000 26.4558
#
#
#
# Elastic Compliance Matrix: (Units=1/GPa)
#
#
# Indices 1 2 3 4 5 6 
#
# 1 0.015191 -0.004053 -0.002854 0.000000 0.000000 0.000000
# 2 -0.004053 0.010726 -0.004463 0.000000 0.000000 0.000000
# 3 -0.002854 -0.004463 0.018469 0.000000 0.000000 0.000000
# 4 0.000000 0.000000 0.000000 0.023319 0.000000 0.000000
# 5 0.000000 0.000000 0.000000 0.000000 0.039901 0.000000
# 6 0.000000 0.000000 0.000000 0.000000 0.000000 0.037799
#
#
# Mechanical properties :
#
#
# Convention : Reuss Voigt Hill
#
# Bulk Modulus (GPa) = 46.19906 51.64238 48.92072
# Shear Modulus (GPa) = 28.51284 30.37293 29.44288
#
# Velocity S-wave (km/s) = 3.91402 4.03967 3.97734
# Velocity P-wave (km/s) = 6.72667 7.03600 6.88307
#
# Compressibility (1/GPa) = 0.02164546
#
# Stress axis : x y z
#
# Youngs Moduli (GPa) = 65.82885 93.22890 54.14576
#
# Poissons Ratio (x) = 0.37788 0.15454
# Poissons Ratio (y) = 0.26682 0.24165
# Poissons Ratio (z) = 0.18788 0.41607
#
# Static dielectric constant tensor:
#      x y z
#    x 3.761950 0.000000 0.000000 
#    y 0.000000 0.119640 0.000000 
#    z 0.000000 0.000000 3.199300 
# 
# 
# High freq. dielectric constant tensor:
#      x y z
#    x 1.728170 0.000000 0.000000 
#    y 0.000000 1.724440 0.000000 
#    z 0.000000 0.000000 1.704450 
# 
# From -- ./inp_files/51788.got.cif
#   From: 2010.03.12/outbox.cif.g09.slc.cpg/sg74_26_cif.got.tgz:51788.got - 2010.04.16 15:46:19.
