data_PCOD8301583
_publ_section_title
;
Structure prediction by ZEFSAII (Michael W. Deem and Ramdas Pophale) SiO2 
 PCOD8301583
Probable space group: I M M A
;
_chemical_formula_sum "Si O2"
_cell_formula_units_Z 72
_cell_length_a 19.508773
_cell_length_b 11.226548
_cell_length_c 17.573154
_cell_angle_alpha 90.000000
_cell_angle_beta 90.000000
_cell_angle_gamma 90.000000
_cell_volume 3848.804998
_symmetry_space_group_name_H-M "I M M A"
_symmetry_group_IT_number 74
_symmetry_cell_setting 'orthorhombic'
loop_
_space_group_symop_operation_xyz
x,y,z
-x,1/2-y,z
x,-y,-z
-x,1/2+y,-z
-x,-y,-z
x,1/2+y,-z
-x,y,z
x,1/2-y,z
1/2+x,1/2+y,1/2+z
1/2-x,-y,1/2+z
1/2+x,1/2-y,1/2-z
1/2-x,y,1/2-z
1/2-x,1/2-y,1/2-z
1/2+x,y,1/2-z
1/2-x,1/2+y,1/2+z
1/2+x,-y,1/2+z
loop_
_atom_site_type_symbol
_atom_site_label
_atom_site_fract_x
_atom_site_fract_y
_atom_site_fract_z
Si Si1 0.302875 0.250000 0.819952
Si Si2 0.174655 0.379702 0.284170
Si Si3 0.421702 0.250000 0.703334
Si Si4 0.500000 0.890328 0.560050
Si Si5 0.880259 0.003476 0.853321
Si Si6 0.770041 0.015488 0.587665
O O1 0.250000 0.250000 0.750000
O O2 0.377439 0.250000 0.780926
O O3 0.290936 0.359787 0.875541
O O4 0.140350 0.250000 0.280882
O O5 0.250000 0.379026 0.250000
O O6 0.129004 0.470120 0.235359
O O7 0.181756 0.418546 0.371462
O O8 0.500000 0.250000 0.730457
O O9 0.407498 0.361706 0.647580
O O10 0.500000 0.750000 0.530312
O O11 0.500000 0.000000 0.500000
O O12 0.567654 0.909268 0.610228
O O13 0.810551 0.992668 0.900973
O O14 0.788405 0.000000 0.500000
#
# Coordination Sequence:
#
# PCOD8301583 Si02
#       6
#     8  16   8   8  16  16
#     4  12  20  42  66  90 129 169 225 276 324 407
#     4   9  18  34  56  79 111 153 200 247 305 379
#     4  12  22  38  70  94 118 171 230 271 315 395
#     4  12  28  44  60  90 133 178 219 266 323 400
#     4  11  21  40  60  86 124 166 214 258 319 390
#     4  11  22  35  58  94 125 159 200 270 336 381
#
# _framework density 18.707104999999999
#
# number of rings (size 3 to 8) (size 9 to 14) (size 15 to 20)
#    0.000    1.111    5.556    2.000    3.111    0.889 
#    4.000    0.000    0.000    0.667    0.000    0.000 
#    0.000    0.000    0.000    0.000    0.000    0.000 
#
# Total GULP energy -446216.190290 kJ/mol
# GULP energy per Si atom -12394.894175 kJ/mol
# Density = 1.866453 g / cm^3
# Si number density = 18.707105 Si / 1000 Ang^3
#
#
#
# Elastic Constant Matrix: (Units=GPa)
#
#
# Indices 1 2 3 4 5 6 
#
# 1 66.1551 18.5498 22.1292 0.0000 0.0000 0.0000
# 2 18.5498 132.9151 41.2636 0.0000 0.0000 0.0000
# 3 22.1292 41.2636 135.3615 0.0000 0.0000 0.0000
# 4 0.0000 0.0000 0.0000 34.3232 0.0000 0.0000
# 5 0.0000 0.0000 0.0000 0.0000 20.6374 0.0000
# 6 0.0000 0.0000 0.0000 0.0000 0.0000 23.3440
#
#
#
# Elastic Compliance Matrix: (Units=1/GPa)
#
#
# Indices 1 2 3 4 5 6 
#
# 1 0.016292 -0.001598 -0.002176 0.000000 0.000000 0.000000
# 2 -0.001598 0.008467 -0.002320 0.000000 0.000000 0.000000
# 3 -0.002176 -0.002320 0.008451 0.000000 0.000000 0.000000
# 4 0.000000 0.000000 0.000000 0.029135 0.000000 0.000000
# 5 0.000000 0.000000 0.000000 0.000000 0.048456 0.000000
# 6 0.000000 0.000000 0.000000 0.000000 0.000000 0.042838
#
#
# Mechanical properties :
#
#
# Convention : Reuss Voigt Hill
#
# Bulk Modulus (GPa) = 47.57118 55.36852 51.46985
# Shear Modulus (GPa) = 28.92964 32.49351 30.71158
#
# Velocity S-wave (km/s) = 3.93676 4.17221 4.05619
# Velocity P-wave (km/s) = 6.79329 7.27129 7.03635
#
# Compressibility (1/GPa) = 0.02102113
#
# Stress axis : x y z
#
# Youngs Moduli (GPa) = 61.37946 118.10835 118.33526
#
# Poissons Ratio (x) = 0.18875 0.25753
# Poissons Ratio (y) = 0.09809 0.27451
# Poissons Ratio (z) = 0.13358 0.27398
#
# Static dielectric constant tensor:
#      x y z
#    x 3.406070 0.000000 0.000000 
#    y 0.000000 3.760100 0.000000 
#    z 0.000000 0.000000 3.417460 
# 
# 
# High freq. dielectric constant tensor:
#      x y z
#    x 1.702270 0.000000 0.000000 
#    y 0.000000 1.747580 0.000000 
#    z 0.000000 0.000000 1.716000 
# 
# From -- ./inp_files/43751.got.cif
#   From: 2010.03.12/outbox.cif.g09.slc.cpg/sg74_22_cif.got.tgz:43751.got - 2010.04.16 15:46:19.
