data_PCOD8301904
_publ_section_title
;
Structure prediction by ZEFSAII (Michael W. Deem and Ramdas Pophale) SiO2 
 PCOD8301904
Probable space group: P 41
;
_chemical_formula_sum "Si O2"
_cell_formula_units_Z 28
_cell_length_a 12.171849
_cell_length_b 12.171849
_cell_length_c 9.187051
_cell_angle_alpha 90.000000
_cell_angle_beta 90.000000
_cell_angle_gamma 90.000000
_cell_volume 1361.097509
_symmetry_space_group_name_H-M "P 41"
_symmetry_group_IT_number 76
_symmetry_cell_setting 'tetragonal'
loop_
_space_group_symop_operation_xyz
x,y,z
-y,x,1/4+z
-x,-y,1/2+z
y,-x,3/4+z
loop_
_atom_site_type_symbol
_atom_site_label
_atom_site_fract_x
_atom_site_fract_y
_atom_site_fract_z
Si Si1 0.010111 0.344549 0.054170
Si Si2 0.712546 0.045640 0.619393
Si Si3 0.924626 0.174945 0.609508
Si Si4 0.392888 0.556453 0.557403
Si Si5 0.159321 0.469500 0.542472
Si Si6 0.169765 0.127624 0.669425
Si Si7 0.197878 0.356782 0.830123
O O1 0.013128 0.356922 0.228345
O O2 0.928821 0.438736 0.996717
O O3 0.127556 0.361540 0.977789
O O4 0.967584 0.221831 0.018106
O O5 0.829068 0.091683 0.560741
O O6 0.644179 0.136161 0.708608
O O7 0.735163 0.943791 0.731198
O O8 0.883655 0.230474 0.761223
O O9 0.039783 0.110525 0.639579
O O10 0.442699 0.477509 0.676823
O O11 0.278431 0.511386 0.494023
O O12 0.376810 0.676910 0.627267
O O13 0.157065 0.449372 0.716716
O O14 0.190663 0.241815 0.747239
#
# Coordination Sequence:
#
# PCOD8301904 Si02
#       7
#     4   4   4   4   4   4   4
#     4  12  25  39  66 101 132 168 223 272 335 387
#     4  11  25  39  62 100 135 173 217 276 329 399
#     4  10  22  40  61  90 135 175 216 256 327 406
#     4  10  24  44  71  93 127 172 226 276 330 395
#     4  11  22  45  68  93 129 178 222 270 338 398
#     4  11  20  39  62  88 128 176 208 254 322 399
#     4  11  22  44  66  93 132 176 216 268 333 400
#
# _framework density 20.571634
#
# number of rings (size 3 to 8) (size 9 to 14) (size 15 to 20)
#    0.000    1.143    5.714    0.857    2.000    5.714 
#    0.000    2.857    0.000    0.000    0.000    0.000 
#    0.000    0.000    0.000    0.000    0.000    0.000 
#
# Total GULP energy -347108.815705 kJ/mol
# GULP energy per Si atom -12396.743418 kJ/mol
# Density = 2.052481 g / cm^3
# Si number density = 20.571634 Si / 1000 Ang^3
#
#
#
# Elastic Constant Matrix: (Units=GPa)
#
#
# Indices 1 2 3 4 5 6 
#
# 1 96.9264 46.9541 49.0658 0.0000 0.0000 5.5572
# 2 46.9541 96.9264 49.0658 0.0000 0.0000 -5.5572
# 3 49.0658 49.0658 126.6866 0.0000 0.0000 0.0000
# 4 0.0000 0.0000 0.0000 30.1349 0.0000 0.0000
# 5 0.0000 0.0000 0.0000 0.0000 30.1349 0.0000
# 6 5.5572 -5.5572 0.0000 0.0000 0.0000 26.4113
#
#
#
# Elastic Compliance Matrix: (Units=1/GPa)
#
#
# Indices 1 2 3 4 5 6 
#
# 1 0.015219 -0.005774 -0.003658 0.000000 0.000000 -0.004417
# 2 -0.005774 0.015219 -0.003658 0.000000 0.000000 0.004417
# 3 -0.003658 -0.003658 0.010727 0.000000 0.000000 0.000000
# 4 0.000000 0.000000 0.000000 0.033184 0.000000 0.000000
# 5 0.000000 0.000000 0.000000 0.000000 0.033184 0.000000
# 6 -0.004417 0.004417 0.000000 0.000000 0.000000 0.039721
#
#
# Mechanical properties :
#
#
# Convention : Reuss Voigt Hill
#
# Bulk Modulus (GPa) = 66.73365 67.85677 67.29521
# Shear Modulus (GPa) = 28.02199 29.03314 28.52756
#
# Velocity S-wave (km/s) = 3.69476 3.76083 3.72794
# Velocity P-wave (km/s) = 7.12122 7.20525 7.16336
#
# Compressibility (1/GPa) = 0.01498494
#
# Stress axis : x y z
#
# Youngs Moduli (GPa) = 65.70581 65.70581 93.22206
#
# Poissons Ratio (x) = 0.37940 0.34102
# Poissons Ratio (y) = 0.37940 0.34102
# Poissons Ratio (z) = 0.24036 0.24036
#
# Static dielectric constant tensor:
#      x y z
#    x 3.752620 0.000000 0.000000 
#    y 0.000000 3.752620 0.000000 
#    z 0.000000 0.000000 3.755660 
# 
# 
# High freq. dielectric constant tensor:
#      x y z
#    x 1.800740 0.000000 0.000000 
#    y 0.000000 1.800740 0.000000 
#    z 0.000000 0.000000 1.804970 
# 
# From -- ./inp_files/633.got.cif
#   From: 2010.03.12/outbox.cif.g09.slc.cpg/sg76_cif.got.tgz:633.got - 2010.04.16 16:34:25.
