data_PCOD8301022
_publ_section_title
;
Structure prediction by ZEFSAII (Michael W. Deem and Ramdas Pophale) SiO2 
 PCOD8301022
Probable space group: I M M A
;
_chemical_formula_sum "Si O2"
_cell_formula_units_Z 80
_cell_length_a 8.986305
_cell_length_b 17.808080
_cell_length_c 25.546310
_cell_angle_alpha 90.000000
_cell_angle_beta 90.000000
_cell_angle_gamma 90.000000
_cell_volume 4088.146313
_symmetry_space_group_name_H-M "I M M A"
_symmetry_group_IT_number 74
_symmetry_cell_setting 'orthorhombic'
loop_
_space_group_symop_operation_xyz
x,y,z
-x,1/2-y,z
x,-y,-z
-x,1/2+y,-z
-x,-y,-z
x,1/2+y,-z
-x,y,z
x,1/2-y,z
1/2+x,1/2+y,1/2+z
1/2-x,-y,1/2+z
1/2+x,1/2-y,1/2-z
1/2-x,y,1/2-z
1/2-x,1/2-y,1/2-z
1/2+x,y,1/2-z
1/2-x,1/2+y,1/2+z
1/2+x,-y,1/2+z
loop_
_atom_site_type_symbol
_atom_site_label
_atom_site_fract_x
_atom_site_fract_y
_atom_site_fract_z
Si Si1 0.825764 0.835670 0.697291
Si Si2 0.828707 0.662563 0.001956
Si Si3 0.828767 0.907728 0.400282
Si Si4 0.325850 0.663665 0.303692
Si Si5 0.171243 0.583512 0.592330
O O1 0.775932 0.750000 0.685959
O O2 0.750000 0.866649 0.750000
O O3 0.774878 0.887236 0.648911
O O4 0.000000 0.841430 0.706250
O O5 0.806557 0.750000 0.991365
O O6 0.776215 0.619312 0.950797
O O7 0.000000 0.642510 0.013563
O O8 0.730727 0.639469 0.051217
O O9 0.736076 0.888472 0.349053
O O10 0.000000 0.886350 0.390890
O O11 0.809096 0.994997 0.411961
O O12 0.500000 0.650479 0.298065
O O13 0.287876 0.750000 0.316905
O O14 0.250000 0.638301 0.250000
O O15 0.000000 0.607389 0.582267
#
# Coordination Sequence:
#
# PCOD8301022 Si02
#       5
#    16  16  16  16  16
#     4   9  18  34  56  80 108 143 182 224 269 319
#     4  11  24  40  59  84 112 145 188 234 281 337
#     4  11  23  38  58  85 116 149 187 232 283 340
#     4  10  21  38  60  85 114 150 193 238 283 334
#     4  10  22  39  58  83 114 148 187 230 280 337
#
# _framework density 19.568770000000001
#
# number of rings (size 3 to 8) (size 9 to 14) (size 15 to 20)
#    0.000    1.800    0.000    3.600    0.000   11.600 
#    0.000    4.000    0.000    0.000    0.000    0.000 
#    0.000    0.000    0.000    0.000    0.000    0.000 
#
# Total GULP energy -496233.335163 kJ/mol
# GULP energy per Si atom -12405.833379 kJ/mol
# Density = 1.952423 g / cm^3
# Si number density = 19.568770 Si / 1000 Ang^3
#
#
#
# Elastic Constant Matrix: (Units=GPa)
#
#
# Indices 1 2 3 4 5 6 
#
# 1 72.1132 38.9406 47.4674 0.0000 0.0000 0.0000
# 2 38.9406 59.0192 32.4560 0.0000 0.0000 0.0000
# 3 47.4674 32.4560 121.4345 0.0000 0.0000 0.0000
# 4 0.0000 0.0000 0.0000 83.1521 0.0000 0.0000
# 5 0.0000 0.0000 0.0000 0.0000 43.4458 0.0000
# 6 0.0000 0.0000 0.0000 0.0000 0.0000 29.1522
#
#
#
# Elastic Compliance Matrix: (Units=1/GPa)
#
#
# Indices 1 2 3 4 5 6 
#
# 1 0.025083 -0.013080 -0.006309 0.000000 0.000000 0.000000
# 2 -0.013080 0.026684 -0.002019 0.000000 0.000000 0.000000
# 3 -0.006309 -0.002019 0.011240 0.000000 0.000000 0.000000
# 4 0.000000 0.000000 0.000000 0.012026 0.000000 0.000000
# 5 0.000000 0.000000 0.000000 0.000000 0.023017 0.000000
# 6 0.000000 0.000000 0.000000 0.000000 0.000000 0.034303
#
#
# Mechanical properties :
#
#
# Convention : Reuss Voigt Hill
#
# Bulk Modulus (GPa) = 49.52514 54.47721 52.00117
# Shear Modulus (GPa) = 27.48760 40.06355 33.77557
#
# Velocity S-wave (km/s) = 3.75195 4.52964 4.15902
# Velocity P-wave (km/s) = 6.64325 7.43345 7.04943
#
# Compressibility (1/GPa) = 0.02019176
#
# Stress axis : x y z
#
# Youngs Moduli (GPa) = 39.86777 37.47530 88.96415
#
# Poissons Ratio (x) = 0.49019 0.56124
# Poissons Ratio (y) = 0.52148 0.17962
# Poissons Ratio (z) = 0.25151 0.07566
#
# Static dielectric constant tensor:
#      x y z
#    x 3.629870 0.000000 0.000000 
#    y 0.000000 3.578700 0.000000 
#    z 0.000000 0.000000 4.082860 
# 
# 
# High freq. dielectric constant tensor:
#      x y z
#    x 1.768320 0.000000 0.000000 
#    y 0.000000 1.762900 0.000000 
#    z 0.000000 0.000000 1.776360 
# 
# From -- ./inp_files/63887.got.cif
#   From: 2010.03.12/outbox.cif.g09.slc.cpg/sg74_32_cif.got.tgz:63887.got - 2010.04.16 15:46:19.
