data_PCOD8301697
_publ_section_title
;
Structure prediction by ZEFSAII (Michael W. Deem and Ramdas Pophale) SiO2 
 PCOD8301697
Probable space group: I M M A
;
_chemical_formula_sum "Si O2"
_cell_formula_units_Z 80
_cell_length_a 24.638061
_cell_length_b 19.899377
_cell_length_c 9.149303
_cell_angle_alpha 90.000000
_cell_angle_beta 90.000000
_cell_angle_gamma 90.000000
_cell_volume 4485.739163
_symmetry_space_group_name_H-M "I M M A"
_symmetry_group_IT_number 74
_symmetry_cell_setting 'orthorhombic'
loop_
_space_group_symop_operation_xyz
x,y,z
-x,1/2-y,z
x,-y,-z
-x,1/2+y,-z
-x,-y,-z
x,1/2+y,-z
-x,y,z
x,1/2-y,z
1/2+x,1/2+y,1/2+z
1/2-x,-y,1/2+z
1/2+x,1/2-y,1/2-z
1/2-x,y,1/2-z
1/2-x,1/2-y,1/2-z
1/2+x,y,1/2-z
1/2-x,1/2+y,1/2+z
1/2+x,-y,1/2+z
loop_
_atom_site_type_symbol
_atom_site_label
_atom_site_fract_x
_atom_site_fract_y
_atom_site_fract_z
Si Si1 0.270932 0.172586 0.090942
Si Si2 0.382098 0.396091 0.073001
Si Si3 0.500000 0.465055 0.778276
Si Si4 0.000000 0.605081 0.558515
Si Si5 0.719451 0.938644 0.399414
Si Si6 0.616308 0.530228 0.237408
O O1 0.260165 0.250000 0.054731
O O2 0.250000 0.152532 0.250000
O O3 0.335332 0.159294 0.083326
O O4 0.236170 0.131154 0.973134
O O5 0.441853 0.361538 0.104964
O O6 0.369812 0.453391 0.194170
O O7 0.381208 0.426400 0.910339
O O8 0.500000 0.530582 0.878430
O O9 0.556257 0.464414 0.687669
O O10 0.500000 0.399882 0.883056
O O11 0.750000 0.948923 0.250000
O O12 0.655535 0.941370 0.363319
O O13 0.738294 0.000000 0.500000
#
# Coordination Sequence:
#
# PCOD8301697 Si02
#       6
#    16  16   8   8  16  16
#     4  11  24  39  53  73 107 144 178 221 271 317
#     4   9  15  31  50  78 105 135 170 217 263 309
#     4   7  12  24  43  74 107 133 161 209 264 306
#     4   7  12  22  49  74 101 131 167 211 263 304
#     4  12  22  34  54  80 106 140 179 218 258 318
#     4   9  16  28  51  78 106 135 171 214 260 309
#
# _framework density 17.834295999999998
#
# number of rings (size 3 to 8) (size 9 to 14) (size 15 to 20)
#    0.000    2.400    2.000    5.400    0.000    0.400 
#    0.000    1.000    0.000    1.200    0.000    2.100 
#    0.000    0.000    0.000    0.000    0.000    0.000 
#
# Total GULP energy -495537.778920 kJ/mol
# GULP energy per Si atom -12388.444473 kJ/mol
# Density = 1.779370 g / cm^3
# Si number density = 17.834296 Si / 1000 Ang^3
#
#
#
# Elastic Constant Matrix: (Units=GPa)
#
#
# Indices 1 2 3 4 5 6 
#
# 1 151.6507 46.5524 53.0053 0.0000 0.0000 0.0000
# 2 46.5524 58.0212 38.6955 0.0000 0.0000 0.0000
# 3 53.0053 38.6955 73.9942 0.0000 0.0000 0.0000
# 4 0.0000 0.0000 0.0000 20.0354 0.0000 0.0000
# 5 0.0000 0.0000 0.0000 0.0000 17.8434 0.0000
# 6 0.0000 0.0000 0.0000 0.0000 0.0000 21.0113
#
#
#
# Elastic Compliance Matrix: (Units=1/GPa)
#
#
# Indices 1 2 3 4 5 6 
#
# 1 0.009588 -0.004779 -0.004369 0.000000 0.000000 0.000000
# 2 -0.004779 0.028847 -0.011662 0.000000 0.000000 0.000000
# 3 -0.004369 -0.011662 0.022743 0.000000 0.000000 0.000000
# 4 0.000000 0.000000 0.000000 0.049912 0.000000 0.000000
# 5 0.000000 0.000000 0.000000 0.000000 0.056043 0.000000
# 6 0.000000 0.000000 0.000000 0.000000 0.000000 0.047593
#
#
# Mechanical properties :
#
#
# Convention : Reuss Voigt Hill
#
# Bulk Modulus (GPa) = 51.13107 62.24137 56.68622
# Shear Modulus (GPa) = 19.02097 21.47222 20.24660
#
# Velocity S-wave (km/s) = 3.26933 3.47361 3.37302
# Velocity P-wave (km/s) = 6.55620 7.14588 6.85738
#
# Compressibility (1/GPa) = 0.01955758
#
# Stress axis : x y z
#
# Youngs Moduli (GPa) = 104.29375 34.66526 43.96882
#
# Poissons Ratio (x) = 0.16567 0.19211
# Poissons Ratio (y) = 0.49842 0.51278
# Poissons Ratio (z) = 0.45569 0.40428
#
# Static dielectric constant tensor:
#      x y z
#    x 4.113610 0.000000 0.000000 
#    y 0.000000 2.854000 0.000000 
#    z 0.000000 0.000000 3.236890 
# 
# 
# High freq. dielectric constant tensor:
#      x y z
#    x 1.720610 0.000000 0.000000 
#    y 0.000000 1.639540 0.000000 
#    z 0.000000 0.000000 1.664710 
# 
# From -- ./inp_files/10999.got.cif
#   From: 2010.03.12/outbox.cif.g09.slc.cpg/sg74_6_cif.got.tgz:10999.got - 2010.04.16 15:46:19.
