data_PCOD8301606
_publ_section_title
;
Structure prediction by ZEFSAII (Michael W. Deem and Ramdas Pophale) SiO2 
 PCOD8301606
Probable space group: I M M A
;
_chemical_formula_sum "Si O2"
_cell_formula_units_Z 80
_cell_length_a 8.803220
_cell_length_b 26.807493
_cell_length_c 18.647083
_cell_angle_alpha 90.000000
_cell_angle_beta 90.000000
_cell_angle_gamma 90.000000
_cell_volume 4400.567232
_symmetry_space_group_name_H-M "I M M A"
_symmetry_group_IT_number 74
_symmetry_cell_setting 'orthorhombic'
loop_
_space_group_symop_operation_xyz
x,y,z
-x,1/2-y,z
x,-y,-z
-x,1/2+y,-z
-x,-y,-z
x,1/2+y,-z
-x,y,z
x,1/2-y,z
1/2+x,1/2+y,1/2+z
1/2-x,-y,1/2+z
1/2+x,1/2-y,1/2-z
1/2-x,y,1/2-z
1/2-x,1/2-y,1/2-z
1/2+x,y,1/2-z
1/2-x,1/2+y,1/2+z
1/2+x,-y,1/2+z
loop_
_atom_site_type_symbol
_atom_site_label
_atom_site_fract_x
_atom_site_fract_y
_atom_site_fract_z
Si Si1 0.676234 0.651268 0.532576
Si Si2 0.177262 0.807905 0.821639
Si Si3 0.822714 0.049545 0.960775
Si Si4 0.320088 0.097335 0.824114
Si Si5 0.820450 0.193519 0.885313
O O1 0.500000 0.663635 0.540040
O O2 0.752348 0.665932 0.608335
O O3 0.707553 0.593457 0.517390
O O4 0.738331 0.684732 0.466725
O O5 0.216995 0.750000 0.827790
O O6 0.250000 0.831173 0.750000
O O7 0.000000 0.818281 0.816675
O O8 0.733560 0.060501 0.887448
O O9 0.000000 0.045023 0.941198
O O10 0.761620 0.000000 0.000000
O O11 0.500000 0.096534 0.819721
O O12 0.250000 0.077003 0.750000
O O13 0.264456 0.154385 0.834475
O O14 0.781125 0.250000 0.861665
O O15 0.000000 0.182594 0.880249
#
# Coordination Sequence:
#
# PCOD8301606 Si02
#       5
#    16  16  16  16  16
#     4   8  14  27  48  71  94 124 162 200 241 294
#     4   9  16  26  41  62  90 124 158 191 230 278
#     4   9  18  35  58  79  99 126 163 207 256 307
#     4  11  22  36  54  76 105 137 170 208 251 301
#     4   9  17  31  52  76 101 132 171 211 252 302
#
# _framework density 18.179473999999999
#
# number of rings (size 3 to 8) (size 9 to 14) (size 15 to 20)
#    0.000    2.800    0.000    3.600    0.000    3.600 
#    0.000    5.000    0.000    7.200    0.000    0.000 
#    0.000    0.000    0.000    0.000    0.000    0.000 
#
# Total GULP energy -495850.321230 kJ/mol
# GULP energy per Si atom -12396.258031 kJ/mol
# Density = 1.813810 g / cm^3
# Si number density = 18.179474 Si / 1000 Ang^3
#
#
#
# Elastic Constant Matrix: (Units=GPa)
#
#
# Indices 1 2 3 4 5 6 
#
# 1 67.8416 40.7669 48.7972 0.0000 0.0000 0.0000
# 2 40.7669 80.7378 38.9812 0.0002 0.0000 0.0000
# 3 48.7972 38.9812 139.0846 0.0012 -0.0001 -0.0001
# 4 0.0000 0.0002 0.0012 20.1719 0.0000 0.0000
# 5 0.0000 0.0000 -0.0001 0.0000 28.7317 0.0001
# 6 0.0000 0.0000 -0.0001 0.0000 0.0001 19.0413
#
#
#
# Elastic Compliance Matrix: (Units=1/GPa)
#
#
# Indices 1 2 3 4 5 6 
#
# 1 0.024870 -0.009651 -0.006021 0.000000 0.000000 0.000000
# 2 -0.009651 0.018069 -0.001678 0.000000 0.000000 0.000000
# 3 -0.006021 -0.001678 0.009773 -0.000001 0.000000 0.000000
# 4 0.000000 0.000000 -0.000001 0.049574 0.000000 0.000000
# 5 0.000000 0.000000 0.000000 0.000000 0.034805 0.000000
# 6 0.000000 0.000000 0.000000 0.000000 0.000000 0.052517
#
#
# Mechanical properties :
#
#
# Convention : Reuss Voigt Hill
#
# Bulk Modulus (GPa) = 55.51809 60.52828 58.02319
# Shear Modulus (GPa) = 21.70976 24.19691 22.95333
#
# Velocity S-wave (km/s) = 3.45946 3.65225 3.55716
# Velocity P-wave (km/s) = 6.82366 7.15209 6.98980
#
# Compressibility (1/GPa) = 0.01801215
#
# Stress axis : x y z
#
# Youngs Moduli (GPa) = 40.20901 55.34340 102.32708
#
# Poissons Ratio (x) = 0.53410 0.61608
# Poissons Ratio (y) = 0.38805 0.17173
# Poissons Ratio (z) = 0.24209 0.09288
#
# Static dielectric constant tensor:
#      x y z
#    x 3.058470 0.000000 0.000000 
#    y 0.000000 3.299790 0.000000 
#    z 0.000000 0.000000 3.650080 
# 
# 
# High freq. dielectric constant tensor:
#      x y z
#    x 1.674390 0.000000 0.000000 
#    y 0.000000 1.686710 0.000000 
#    z 0.000000 0.000000 1.715780 
# 
# From -- ./inp_files/39677.got.cif
#   From: 2010.03.12/outbox.cif.g09.slc.cpg/sg74_20_cif.got.tgz:39677.got - 2010.04.16 15:46:19.
