data_PCOD8301521
_publ_section_title
;
Structure prediction by ZEFSAII (Michael W. Deem and Ramdas Pophale) SiO2 
 PCOD8301521
Probable space group: I M M A
;
_chemical_formula_sum "Si O2"
_cell_formula_units_Z 104
_cell_length_a 20.025904
_cell_length_b 26.319606
_cell_length_c 9.496324
_cell_angle_alpha 90.000000
_cell_angle_beta 90.000000
_cell_angle_gamma 90.000000
_cell_volume 5005.264556
_symmetry_space_group_name_H-M "I M M A"
_symmetry_group_IT_number 74
_symmetry_cell_setting 'orthorhombic'
loop_
_space_group_symop_operation_xyz
x,y,z
-x,1/2-y,z
x,-y,-z
-x,1/2+y,-z
-x,-y,-z
x,1/2+y,-z
-x,y,z
x,1/2-y,z
1/2+x,1/2+y,1/2+z
1/2-x,-y,1/2+z
1/2+x,1/2-y,1/2-z
1/2-x,y,1/2-z
1/2-x,1/2-y,1/2-z
1/2+x,y,1/2-z
1/2-x,1/2+y,1/2+z
1/2+x,-y,1/2+z
loop_
_atom_site_type_symbol
_atom_site_label
_atom_site_fract_x
_atom_site_fract_y
_atom_site_fract_z
Si Si1 0.637704 0.341230 0.455542
Si Si2 0.682674 0.000207 0.168748
Si Si3 0.326183 0.886321 0.261113
Si Si4 0.618123 0.250000 0.088768
Si Si5 0.421345 0.085826 0.222000
Si Si6 0.926799 0.150287 0.545123
Si Si7 0.236366 0.250000 0.089546
Si Si8 0.570337 0.750000 0.613052
O O1 0.647334 0.381001 0.580277
O O2 0.619379 0.374049 0.317831
O O3 0.701507 0.303550 0.449451
O O4 0.577440 0.300874 0.481291
O O5 0.750000 0.018818 0.250000
O O6 0.619565 0.033199 0.221029
O O7 0.664363 0.943983 0.216608
O O8 0.694662 0.000000 0.000000
O O9 0.250000 0.868268 0.250000
O O10 0.370369 0.850153 0.163430
O O11 0.576418 0.201442 0.043827
O O12 0.690818 0.250000 0.015641
O O13 0.625347 0.250000 0.261069
O O14 0.500000 0.079008 0.268490
O O15 0.417414 0.103803 0.061626
O O16 0.000000 0.146532 0.616116
O O17 0.250000 0.250000 0.250000
O O18 0.500000 0.750000 0.690543
#
# Coordination Sequence:
#
# PCOD8301521 Si02
#       8
#    16  16  16   8  16  16   8   8
#     4  11  24  40  67  97 133 173 222 280 332 396
#     4  11  26  46  72 100 134 177 224 282 345 411
#     4  11  26  46  65  96 136 176 220 282 349 402
#     4  12  21  37  64  98 134 168 231 279 323 398
#     4  11  24  43  71 101 131 178 230 278 335 407
#     4  11  23  41  66  97 133 180 227 278 339 405
#     4  11  20  39  63 100 130 180 225 270 332 402
#     4  11  21  39  62  91 132 175 214 266 328 394
#
# _framework density 20.778123000000001
#
# number of rings (size 3 to 8) (size 9 to 14) (size 15 to 20)
#    0.000    0.923    4.615    2.077    4.308    5.231 
#    0.000    3.462    0.000    0.000    0.000    0.000 
#    0.000    0.000    0.000    0.000    0.000    0.000 
#
# Total GULP energy -644364.212496 kJ/mol
# GULP energy per Si atom -12391.619471 kJ/mol
# Density = 2.073083 g / cm^3
# Si number density = 20.778123 Si / 1000 Ang^3
#
#
#
# Elastic Constant Matrix: (Units=GPa)
#
#
# Indices 1 2 3 4 5 6 
#
# 1 153.1933 47.8205 51.0019 0.0000 0.0000 0.0000
# 2 47.8205 98.1412 42.5413 0.0000 0.0000 0.0000
# 3 51.0019 42.5413 91.9778 0.0000 0.0000 0.0000
# 4 0.0000 0.0000 0.0000 28.0921 0.0000 0.0000
# 5 0.0000 0.0000 0.0000 0.0000 32.0373 0.0000
# 6 0.0000 0.0000 0.0000 0.0000 0.0000 15.5733
#
#
#
# Elastic Compliance Matrix: (Units=1/GPa)
#
#
# Indices 1 2 3 4 5 6 
#
# 1 0.008516 -0.002630 -0.003506 0.000000 0.000000 0.000000
# 2 -0.002630 0.013557 -0.004812 0.000000 0.000000 0.000000
# 3 -0.003506 -0.004812 0.015042 0.000000 0.000000 0.000000
# 4 0.000000 0.000000 0.000000 0.035597 0.000000 0.000000
# 5 0.000000 0.000000 0.000000 0.000000 0.031214 0.000000
# 6 0.000000 0.000000 0.000000 0.000000 0.000000 0.064213
#
#
# Mechanical properties :
#
#
# Convention : Reuss Voigt Hill
#
# Bulk Modulus (GPa) = 65.70626 69.55996 67.63311
# Shear Modulus (GPa) = 25.62718 28.60379 27.11548
#
# Velocity S-wave (km/s) = 3.51575 3.71432 3.61640
# Velocity P-wave (km/s) = 6.94061 7.20729 7.07521
#
# Compressibility (1/GPa) = 0.01521925
#
# Stress axis : x y z
#
# Youngs Moduli (GPa) = 117.42967 73.76465 66.48181
#
# Poissons Ratio (x) = 0.19399 0.23306
# Poissons Ratio (y) = 0.30882 0.31991
# Poissons Ratio (z) = 0.41167 0.35495
#
# Static dielectric constant tensor:
#      x y z
#    x 4.738100 0.000000 0.000000 
#    y 0.000000 3.718920 0.000000 
#    z 0.000000 0.000000 3.604890 
# 
# 
# High freq. dielectric constant tensor:
#      x y z
#    x 1.831660 0.000000 0.000000 
#    y 0.000000 1.818870 0.000000 
#    z 0.000000 0.000000 1.797310 
# 
# From -- ./inp_files/12833.got.cif
#   From: 2010.03.12/outbox.cif.g09.slc.cpg/sg74_7_cif.got.tgz:12833.got - 2010.04.16 15:46:19.
