data_PCOD8301383
_publ_section_title
;
Structure prediction by ZEFSAII (Michael W. Deem and Ramdas Pophale) SiO2 
 PCOD8301383
Probable space group: I M M A
;
_chemical_formula_sum "Si O2"
_cell_formula_units_Z 112
_cell_length_a 22.351496
_cell_length_b 15.166749
_cell_length_c 16.646119
_cell_angle_alpha 90.000000
_cell_angle_beta 90.000000
_cell_angle_gamma 90.000000
_cell_volume 5643.026511
_symmetry_space_group_name_H-M "I M M A"
_symmetry_group_IT_number 74
_symmetry_cell_setting 'orthorhombic'
loop_
_space_group_symop_operation_xyz
x,y,z
-x,1/2-y,z
x,-y,-z
-x,1/2+y,-z
-x,-y,-z
x,1/2+y,-z
-x,y,z
x,1/2-y,z
1/2+x,1/2+y,1/2+z
1/2-x,-y,1/2+z
1/2+x,1/2-y,1/2-z
1/2-x,y,1/2-z
1/2-x,1/2-y,1/2-z
1/2+x,y,1/2-z
1/2-x,1/2+y,1/2+z
1/2+x,-y,1/2+z
loop_
_atom_site_type_symbol
_atom_site_label
_atom_site_fract_x
_atom_site_fract_y
_atom_site_fract_z
Si Si1 0.752724 0.149470 0.600902
Si Si2 0.628146 0.151476 0.669294
Si Si3 0.381765 0.848730 0.653858
Si Si4 0.929260 0.997077 0.730795
Si Si5 0.840409 0.503759 0.593250
Si Si6 0.569176 0.099029 0.509149
Si Si7 0.244609 0.648557 0.916217
O O1 0.775273 0.250000 0.610103
O O2 0.698742 0.129584 0.662389
O O3 0.807341 0.085306 0.621910
O O4 0.730481 0.131357 0.509908
O O5 0.619188 0.250000 0.703727
O O6 0.594759 0.084797 0.727298
O O7 0.602391 0.149405 0.579793
O O8 0.382596 0.750000 0.689297
O O9 0.420853 0.848798 0.573094
O O10 0.313979 0.878392 0.634131
O O11 0.411138 0.912511 0.718067
O O12 0.901567 0.987642 0.642391
O O13 0.000000 0.002907 0.722294
O O14 0.857783 0.500000 0.500000
O O15 0.798931 0.587777 0.613109
O O16 0.500000 0.096077 0.532253
O O17 0.594682 0.000000 0.500000
O O18 0.262429 0.750000 0.900645
#
# Coordination Sequence:
#
# PCOD8301383 Si02
#       7
#    16  16  16  16  16  16  16
#     4   9  18  35  61  93 123 149 188 239 288 352
#     4  11  22  37  60  89 124 164 195 231 286 344
#     4  11  22  37  60  89 124 164 195 231 286 344
#     4  12  27  43  57  83 120 154 203 259 293 340
#     4  10  23  42  66  86 107 151 197 250 321 364
#     4  11  21  33  53  84 125 173 210 228 255 327
#     4   9  18  35  61  93 123 149 188 239 288 352
#
# _framework density 19.847505000000002
#
# number of rings (size 3 to 8) (size 9 to 14) (size 15 to 20)
#    0.000    1.571    2.857    2.143    0.000    6.571 
#    0.000    2.857    0.000    0.000    0.000    6.000 
#    0.000    0.000    0.000    0.000    0.000    0.000 
#
# Total GULP energy -694599.749964 kJ/mol
# GULP energy per Si atom -12403.566964 kJ/mol
# Density = 1.980233 g / cm^3
# Si number density = 19.847505 Si / 1000 Ang^3
#
#
#
# Elastic Constant Matrix: (Units=GPa)
#
#
# Indices 1 2 3 4 5 6 
#
# 1 110.0103 55.2371 53.2384 0.0000 0.0000 0.0000
# 2 55.2371 110.9004 31.1314 0.0000 0.0000 0.0000
# 3 53.2384 31.1314 61.9699 0.0000 0.0000 0.0000
# 4 0.0000 0.0000 0.0000 -10.2420 0.0000 0.0000
# 5 0.0000 0.0000 0.0000 0.0000 24.8078 0.0000
# 6 0.0000 0.0000 0.0000 0.0000 0.0000 8.5596
#
#
#
# Elastic Compliance Matrix: (Units=1/GPa)
#
#
# Indices 1 2 3 4 5 6 
#
# 1 0.017937 -0.005365 -0.012714 0.000000 0.000000 0.000000
# 2 -0.005365 0.012102 -0.001471 0.000000 0.000000 0.000000
# 3 -0.012714 -0.001471 0.027799 0.000000 0.000000 0.000000
# 4 0.000000 0.000000 0.000000 -0.097638 0.000000 0.000000
# 5 0.000000 0.000000 0.000000 0.000000 0.040310 0.000000
# 6 0.000000 0.000000 0.000000 0.000000 0.000000 0.116828
#
#
# Mechanical properties :
#
#
# Convention : Reuss Voigt Hill
#
# Bulk Modulus (GPa) = 53.36858 62.45493 57.91176
# Shear Modulus (GPa) = 30.73445 14.17667 22.45556
#
# Velocity S-wave (km/s) = 3.93941 2.67550 3.36728
# Velocity P-wave (km/s) = 6.90214 6.40938 6.66032
#
# Compressibility (1/GPa) = 0.01873762
#
# Stress axis : x y z
#
# Youngs Moduli (GPa) = 55.75132 82.63070 35.97289
#
# Poissons Ratio (x) = 0.44330 0.45738
# Poissons Ratio (y) = 0.29909 0.05291
# Poissons Ratio (z) = 0.70885 0.12153
#
# Static dielectric constant tensor:
#      x y z
#    x 3.472100 0.000000 0.000000 
#    y 0.000000 3.855640 0.000000 
#    z 0.000000 0.000000 3.386510 
# 
# 
# High freq. dielectric constant tensor:
#      x y z
#    x 1.760020 0.000000 0.000000 
#    y 0.000000 1.790140 0.000000 
#    z 0.000000 0.000000 1.753320 
# 
# From -- ./inp_files/36474.got.cif
#   From: 2010.03.12/outbox.cif.g09.slc.cpg/sg74_19_cif.got.tgz:36474.got - 2010.04.16 15:46:19.
