data_PCOD8301822
_publ_section_title
;
Structure prediction by ZEFSAII (Michael W. Deem and Ramdas Pophale) SiO2 
 PCOD8301822
Probable space group: I M M A
;
_chemical_formula_sum "Si O2"
_cell_formula_units_Z 40
_cell_length_a 27.000000
_cell_length_b 18.000000
_cell_length_c 9.000000
_cell_angle_alpha 90.000000
_cell_angle_beta 90.000000
_cell_angle_gamma 90.000000
_cell_volume 4374.000000
_symmetry_space_group_name_H-M "I M M A"
_symmetry_group_IT_number 74
_symmetry_cell_setting 'orthorhombic'
loop_
_space_group_symop_operation_xyz
x,y,z
-x,1/2-y,z
x,-y,-z
-x,1/2+y,-z
-x,-y,-z
x,1/2+y,-z
-x,y,z
x,1/2-y,z
1/2+x,1/2+y,1/2+z
1/2-x,-y,1/2+z
1/2+x,1/2-y,1/2-z
1/2-x,y,1/2-z
1/2-x,1/2-y,1/2-z
1/2+x,y,1/2-z
1/2-x,1/2+y,1/2+z
1/2+x,-y,1/2+z
loop_
_atom_site_type_symbol
_atom_site_label
_atom_site_fract_x
_atom_site_fract_y
_atom_site_fract_z
Si Si1 0.794610 0.835109 0.347499
Si Si2 0.058132 0.021347 0.669484
Si Si3 0.397332 0.661933 0.318026
Si Si4 0.695429 0.335500 0.185902
Si Si5 0.875579 0.068806 0.101146
O O1 0.779943 0.750000 0.374741
O O2 0.750000 0.872824 0.250000
O O3 0.842368 0.844758 0.245863
O O4 0.803336 0.867492 0.515029
O O5 0.069696 0.108141 0.711290
O O6 0.000000 0.008534 0.684956
O O7 0.075006 0.000000 0.500000
O O8 0.083323 0.965719 0.788411
O O9 0.414430 0.750000 0.314674
O O10 0.398417 0.630695 0.487849
O O11 0.674413 0.250000 0.189533
O O12 0.750000 0.335872 0.250000
O O13 0.664146 0.390439 0.292524
O O14 0.853725 0.000000 0.000000
#
# Coordination Sequence:
#
# PCOD8301822 Si02
#       5
#    16  16  16  16  16
#     4   9  17  30  51  80 112 143 176 217 266 318
#     4  10  22  41  61  80 108 146 184 227 283 339
#     4  10  20  35  58  85 112 145 186 231 276 326
#     4  10  19  33  56  83 112 146 184 226 270 318
#     4  10  21  36  55  81 112 147 183 224 274 331
#
# _framework density 9.1449470000000002
#
# number of rings (size 3 to 8) (size 9 to 14) (size 15 to 20)
#    0.000    2.200    0.000    3.000    0.000    7.200 
#    0.000   10.000    0.000    4.200    0.000    0.000 
#    0.000    0.000    0.000    0.000    0.000    0.200 
#
# Total GULP energy -495560.463287 kJ/mol
# GULP energy per Si atom -12389.011582 kJ/mol
# Density = 0.912413 g / cm^3
# Si number density = 9.144947 Si / 1000 Ang^3
#
#
#
# Elastic Constant Matrix: (Units=GPa)
#
#
# Indices 1 2 3 4 5 6 
#
# 1 79.1485 38.4708 46.2939 0.0000 0.0000 0.0000
# 2 38.4708 132.2603 67.2116 0.0000 0.0000 0.0000
# 3 46.2939 67.2116 185.9024 0.0000 0.0000 0.0000
# 4 0.0000 0.0000 0.0000 45.2908 0.0000 0.0000
# 5 0.0000 0.0000 0.0000 0.0000 38.1687 0.0000
# 6 0.0000 0.0000 0.0000 0.0000 0.0000 27.8563
#
#
#
# Elastic Compliance Matrix: (Units=1/GPa)
#
#
# Indices 1 2 3 4 5 6 
#
# 1 0.015812 -0.003183 -0.002787 0.000000 0.000000 0.000000
# 2 -0.003183 0.009903 -0.002788 0.000000 0.000000 0.000000
# 3 -0.002787 -0.002788 0.007081 0.000000 0.000000 0.000000
# 4 0.000000 0.000000 0.000000 0.022080 0.000000 0.000000
# 5 0.000000 0.000000 0.000000 0.000000 0.026199 0.000000
# 6 0.000000 0.000000 0.000000 0.000000 0.000000 0.035899
#
#
# Mechanical properties :
#
#
# Convention : Reuss Voigt Hill
#
# Bulk Modulus (GPa) = 65.44099 77.91819 71.67959
# Shear Modulus (GPa) = 35.82121 38.61884 37.22002
#
# Velocity S-wave (km/s) = 4.43032 4.60007 4.51600
# Velocity P-wave (km/s) = 7.87578 8.42072 8.15280
#
# Compressibility (1/GPa) = 0.01528094
#
# Stress axis : x y z
#
# Youngs Moduli (GPa) = 63.24507 100.97519 141.22243
#
# Poissons Ratio (x) = 0.32141 0.39353
# Poissons Ratio (y) = 0.20131 0.39371
# Poissons Ratio (z) = 0.17624 0.28150
#
# Static dielectric constant tensor:
#      x y z
#    x 3.220050 0.000000 0.000000 
#    y 0.000000 3.797020 0.000000 
#    z 0.000000 0.000000 4.062420 
# 
# 
# High freq. dielectric constant tensor:
#      x y z
#    x 1.697540 0.000000 0.000000 
#    y 0.000000 1.721440 0.000000 
#    z 0.000000 0.000000 1.758650 
# 
# From -- ./inp_files/10920.got.cif
#   From: 2010.03.12/outbox.ucp.g09.slc.cvg/sg74_6_cif.got.tgz:10920.got - 2010.05.04 20:08:06.
