data_PCOD8301204
_publ_section_title
;
Structure prediction by ZEFSAII (Michael W. Deem and Ramdas Pophale) SiO2 
 PCOD8301204
Probable space group: I M M A
;
_chemical_formula_sum "Si O2"
_cell_formula_units_Z 88
_cell_length_a 10.593427
_cell_length_b 14.237603
_cell_length_c 28.776535
_cell_angle_alpha 90.000000
_cell_angle_beta 90.000000
_cell_angle_gamma 90.000000
_cell_volume 4340.221123
_symmetry_space_group_name_H-M "I M M A"
_symmetry_group_IT_number 74
_symmetry_cell_setting 'orthorhombic'
loop_
_space_group_symop_operation_xyz
x,y,z
-x,1/2-y,z
x,-y,-z
-x,1/2+y,-z
-x,-y,-z
x,1/2+y,-z
-x,y,z
x,1/2-y,z
1/2+x,1/2+y,1/2+z
1/2-x,-y,1/2+z
1/2+x,1/2-y,1/2-z
1/2-x,y,1/2-z
1/2-x,1/2-y,1/2-z
1/2+x,y,1/2-z
1/2-x,1/2+y,1/2+z
1/2+x,-y,1/2+z
loop_
_atom_site_type_symbol
_atom_site_label
_atom_site_fract_x
_atom_site_fract_y
_atom_site_fract_z
Si Si1 0.855071 0.143731 0.916939
Si Si2 0.271171 0.012245 0.352106
Si Si3 0.750000 0.040870 0.250000
Si Si4 0.000000 0.645006 0.855911
Si Si5 0.500000 0.648800 0.752808
Si Si6 0.640983 0.642695 0.910834
Si Si7 0.639923 0.138953 0.479379
O O1 0.802189 0.250000 0.915574
O O2 0.842303 0.097956 0.968437
O O3 0.000000 0.142157 0.900930
O O4 0.774393 0.084513 0.880106
O O5 0.282779 0.983804 0.297251
O O6 0.378813 0.084585 0.369884
O O7 0.146946 0.072683 0.366097
O O8 0.629145 0.098757 0.232705
O O9 0.000000 0.662350 0.801705
O O10 0.000000 0.750000 0.880206
O O11 0.500000 0.750000 0.777871
O O12 0.500000 0.636396 0.932031
O O13 0.671220 0.750000 0.895853
O O14 0.743280 0.604773 0.948205
O O15 0.500000 0.108713 0.459357
O O16 0.642044 0.250000 0.485272
#
# Coordination Sequence:
#
# PCOD8301204 Si02
#       7
#    16  16   8   8   8  16  16
#     4   9  18  36  62  89 112 141 189 245 297 339
#     4  11  21  36  55  84 114 151 190 239 281 332
#     4  10  23  36  55  80 116 152 194 236 286 326
#     4   9  18  32  51  80 112 142 182 228 277 327
#     4   9  18  34  54  77 106 149 193 232 274 331
#     4  10  22  37  54  81 120 160 189 220 276 348
#     4   8  16  33  58  85 112 142 183 238 288 336
#
# _framework density 20.275463999999999
#
# number of rings (size 3 to 8) (size 9 to 14) (size 15 to 20)
#    0.000    2.545    0.909    1.909    2.545    2.909 
#    0.000    4.091    0.000    1.636    0.000    0.000 
#    0.000    0.000    0.000    0.000    0.000    0.000 
#
# Total GULP energy -545182.985619 kJ/mol
# GULP energy per Si atom -12390.522400 kJ/mol
# Density = 2.022932 g / cm^3
# Si number density = 20.275464 Si / 1000 Ang^3
#
#
#
# Elastic Constant Matrix: (Units=GPa)
#
#
# Indices 1 2 3 4 5 6 
#
# 1 105.3799 24.3398 40.6622 0.0000 0.0000 0.0000
# 2 24.3398 57.8105 33.7265 0.0000 0.0000 0.0000
# 3 40.6622 33.7265 110.2226 0.0000 0.0000 0.0000
# 4 0.0000 0.0000 0.0000 24.0015 0.0000 0.0000
# 5 0.0000 0.0000 0.0000 0.0000 24.7611 0.0000
# 6 0.0000 0.0000 0.0000 0.0000 0.0000 30.2839
#
#
#
# Elastic Compliance Matrix: (Units=1/GPa)
#
#
# Indices 1 2 3 4 5 6 
#
# 1 0.011442 -0.002867 -0.003344 0.000000 0.000000 0.000000
# 2 -0.002867 0.021775 -0.005605 0.000000 0.000000 0.000000
# 3 -0.003344 -0.005605 0.012021 0.000000 0.000000 0.000000
# 4 0.000000 0.000000 0.000000 0.041664 0.000000 0.000000
# 5 0.000000 0.000000 0.000000 0.000000 0.040386 0.000000
# 6 0.000000 0.000000 0.000000 0.000000 0.000000 0.033021
#
#
# Mechanical properties :
#
#
# Convention : Reuss Voigt Hill
#
# Bulk Modulus (GPa) = 46.28220 52.31891 49.30055
# Shear Modulus (GPa) = 26.15850 27.45494 26.80672
#
# Velocity S-wave (km/s) = 3.59577 3.68380 3.64005
# Velocity P-wave (km/s) = 6.33369 6.62977 6.48342
#
# Compressibility (1/GPa) = 0.02160658
#
# Stress axis : x y z
#
# Youngs Moduli (GPa) = 87.39848 45.92441 83.18574
#
# Poissons Ratio (x) = 0.13164 0.27816
# Poissons Ratio (y) = 0.25053 0.46628
# Poissons Ratio (z) = 0.29225 0.25742
#
# Static dielectric constant tensor:
#      x y z
#    x 3.633490 0.000000 0.000000 
#    y 0.000000 3.415110 0.000000 
#    z 0.000000 0.000000 3.647040 
# 
# 
# High freq. dielectric constant tensor:
#      x y z
#    x 1.779870 0.000000 0.000000 
#    y 0.000000 1.760220 0.000000 
#    z 0.000000 0.000000 1.794160 
# 
# From -- ./inp_files/65985.got.cif
#   From: 2010.03.12/outbox.cif.g09.slc.cpg/sg74_33_cif.got.tgz:65985.got - 2010.04.16 15:46:19.
