data_PCOD8301611
_publ_section_title
;
Structure prediction by ZEFSAII (Michael W. Deem and Ramdas Pophale) SiO2 
 PCOD8301611
Probable space group: I M M A
;
_chemical_formula_sum "Si O2"
_cell_formula_units_Z 112
_cell_length_a 14.513539
_cell_length_b 14.834010
_cell_length_c 22.791839
_cell_angle_alpha 90.000000
_cell_angle_beta 90.000000
_cell_angle_gamma 90.000000
_cell_volume 4906.945790
_symmetry_space_group_name_H-M "I M M A"
_symmetry_group_IT_number 74
_symmetry_cell_setting 'orthorhombic'
loop_
_space_group_symop_operation_xyz
x,y,z
-x,1/2-y,z
x,-y,-z
-x,1/2+y,-z
-x,-y,-z
x,1/2+y,-z
-x,y,z
x,1/2-y,z
1/2+x,1/2+y,1/2+z
1/2-x,-y,1/2+z
1/2+x,1/2-y,1/2-z
1/2-x,y,1/2-z
1/2-x,1/2-y,1/2-z
1/2+x,y,1/2-z
1/2-x,1/2+y,1/2+z
1/2+x,-y,1/2+z
loop_
_atom_site_type_symbol
_atom_site_label
_atom_site_fract_x
_atom_site_fract_y
_atom_site_fract_z
Si Si1 0.235347 0.850606 0.682565
Si Si2 0.105230 0.593104 0.895312
Si Si3 0.100941 0.111769 0.882939
Si Si4 0.398658 0.012377 0.841111
Si Si5 0.356217 0.650987 0.253356
Si Si6 0.895898 0.854543 0.445634
Si Si7 0.210241 0.350655 0.996319
O O1 0.191741 0.750000 0.676227
O O2 0.250000 0.874727 0.750000
O O3 0.333116 0.847810 0.648709
O O4 0.169702 0.927508 0.656207
O O5 0.107445 0.493605 0.870114
O O6 0.151159 0.587126 0.960239
O O7 0.000000 0.630680 0.898664
O O8 0.114496 0.158363 0.820771
O O9 0.000000 0.137012 0.908016
O O10 0.175491 0.144949 0.929570
O O11 0.500000 0.972244 0.852547
O O12 0.404563 0.068950 0.780581
O O13 0.369783 0.083618 0.890589
O O14 0.379014 0.750000 0.225720
O O15 0.250000 0.628350 0.250000
O O16 0.886600 0.750000 0.426561
O O17 0.819635 0.876349 0.496011
O O18 0.000000 0.874515 0.468854
O O19 0.198398 0.250000 0.021049
#
# Coordination Sequence:
#
# PCOD8301611 Si02
#       7
#    16  16  16  16  16  16  16
#     4  11  25  44  65  89 119 158 207 264 322 377
#     4  11  24  43  67  92 119 158 208 258 312 375
#     4  11  23  37  56  86 126 167 204 251 311 372
#     4  11  22  38  62  90 124 167 212 259 311 372
#     4  11  22  36  59  92 130 170 209 253 309 374
#     4   9  19  37  62  93 128 166 207 252 308 373
#     4  11  22  37  60  89 123 163 207 256 307 365
#
# _framework density 22.824788999999999
#
# number of rings (size 3 to 8) (size 9 to 14) (size 15 to 20)
#    0.000    1.286    0.000    6.429    0.000    9.714 
#    0.000    2.143    0.000    5.143    0.000    0.000 
#    0.000    0.000    0.000    0.000    0.000    0.000 
#
# Total GULP energy -694280.771366 kJ/mol
# GULP energy per Si atom -12397.870917 kJ/mol
# Density = 2.277284 g / cm^3
# Si number density = 22.824789 Si / 1000 Ang^3
#
#
#
# Elastic Constant Matrix: (Units=GPa)
#
#
# Indices 1 2 3 4 5 6 
#
# 1 160.5627 51.6224 47.6632 0.0000 0.0000 0.0000
# 2 51.6224 105.3598 17.6051 0.0000 0.0000 0.0000
# 3 47.6632 17.6051 84.6168 0.0000 0.0000 0.0000
# 4 0.0000 0.0000 0.0000 21.0944 0.0000 0.0000
# 5 0.0000 0.0000 0.0000 0.0000 30.3176 0.0000
# 6 0.0000 0.0000 0.0000 0.0000 0.0000 28.7925
#
#
#
# Elastic Compliance Matrix: (Units=1/GPa)
#
#
# Indices 1 2 3 4 5 6 
#
# 1 0.008575 -0.003517 -0.004099 0.000000 0.000000 0.000000
# 2 -0.003517 0.011275 -0.000365 0.000000 0.000000 0.000000
# 3 -0.004099 -0.000365 0.014203 0.000000 0.000000 0.000000
# 4 0.000000 0.000000 0.000000 0.047406 0.000000 0.000000
# 5 0.000000 0.000000 0.000000 0.000000 0.032984 0.000000
# 6 0.000000 0.000000 0.000000 0.000000 0.000000 0.034731
#
#
# Mechanical properties :
#
#
# Convention : Reuss Voigt Hill
#
# Bulk Modulus (GPa) = 55.27142 64.92452 60.09797
# Shear Modulus (GPa) = 29.21126 31.61746 30.41436
#
# Velocity S-wave (km/s) = 3.58132 3.72590 3.65432
# Velocity P-wave (km/s) = 6.43189 6.85684 6.64776
#
# Compressibility (1/GPa) = 0.01809253
#
# Stress axis : x y z
#
# Youngs Moduli (GPa) = 116.61139 88.68895 70.40928
#
# Poissons Ratio (x) = 0.31190 0.28859
# Poissons Ratio (y) = 0.41010 0.02570
# Poissons Ratio (z) = 0.47796 0.03237
#
# Static dielectric constant tensor:
#      x y z
#    x 4.347040 0.000000 0.000000 
#    y 0.000000 4.076010 0.000000 
#    z 0.000000 0.000000 3.947350 
# 
# 
# High freq. dielectric constant tensor:
#      x y z
#    x 1.911030 0.000000 0.000000 
#    y 0.000000 1.906460 0.000000 
#    z 0.000000 0.000000 1.884470 
# 
# From -- ./inp_files/60170.got.cif
#   From: 2010.03.12/outbox.cif.g09.slc.cpg/sg74_31_cif.got.tgz:60170.got - 2010.04.16 15:46:19.
