data_PCOD8301300
_publ_section_title
;
Structure prediction by ZEFSAII (Michael W. Deem and Ramdas Pophale) SiO2 
 PCOD8301300
Probable space group: I M M A
;
_chemical_formula_sum "Si O2"
_cell_formula_units_Z 88
_cell_length_a 14.527170
_cell_length_b 20.291304
_cell_length_c 15.435010
_cell_angle_alpha 90.000000
_cell_angle_beta 90.000000
_cell_angle_gamma 90.000000
_cell_volume 4549.858511
_symmetry_space_group_name_H-M "I M M A"
_symmetry_group_IT_number 74
_symmetry_cell_setting 'orthorhombic'
loop_
_space_group_symop_operation_xyz
x,y,z
-x,1/2-y,z
x,-y,-z
-x,1/2+y,-z
-x,-y,-z
x,1/2+y,-z
-x,y,z
x,1/2-y,z
1/2+x,1/2+y,1/2+z
1/2-x,-y,1/2+z
1/2+x,1/2-y,1/2-z
1/2-x,y,1/2-z
1/2-x,1/2-y,1/2-z
1/2+x,y,1/2-z
1/2-x,1/2+y,1/2+z
1/2+x,-y,1/2+z
loop_
_atom_site_type_symbol
_atom_site_label
_atom_site_fract_x
_atom_site_fract_y
_atom_site_fract_z
Si Si1 0.812037 0.500000 0.500000
Si Si2 0.288835 0.823322 0.401347
Si Si3 0.107928 0.174751 0.078932
Si Si4 0.306558 0.448654 0.338355
Si Si5 0.897371 0.886190 0.401739
Si Si6 0.398567 0.577035 0.292353
O O1 0.751247 0.526801 0.579282
O O2 0.878575 0.440926 0.526387
O O3 0.313162 0.750000 0.369740
O O4 0.339969 0.840099 0.489929
O O5 0.178471 0.828776 0.412106
O O6 0.321814 0.874387 0.329634
O O7 0.127096 0.250000 0.110317
O O8 0.147105 0.122894 0.148177
O O9 0.000000 0.163217 0.064220
O O10 0.250000 0.443712 0.250000
O O11 0.385799 0.502874 0.325608
O O12 0.888103 0.922588 0.310323
O O13 0.000000 0.856257 0.414754
O O14 0.500000 0.601216 0.321020
#
# Coordination Sequence:
#
# PCOD8301300 Si02
#       6
#     8  16  16  16  16  16
#     4  12  21  40  61  90 122 156 195 254 307 352
#     4  11  22  39  61  87 123 163 203 254 310 363
#     4  10  22  40  62  90 123 159 200 251 312 367
#     4  12  21  38  67  91 121 160 202 248 304 359
#     4  11  23  39  59  86 122 163 205 248 300 363
#     4  11  22  37  60  92 123 154 201 251 300 365
#
# _framework density 19.341259999999998
#
# number of rings (size 3 to 8) (size 9 to 14) (size 15 to 20)
#    0.000    0.909    5.455    1.909    0.000    3.273 
#    0.000    4.545    0.000    0.000    0.000    0.000 
#    0.000    0.000    0.000    0.000    0.000    0.000 
#
# Total GULP energy -545576.509276 kJ/mol
# GULP energy per Si atom -12399.466120 kJ/mol
# Density = 1.929724 g / cm^3
# Si number density = 19.341260 Si / 1000 Ang^3
#
#
#
# Elastic Constant Matrix: (Units=GPa)
#
#
# Indices 1 2 3 4 5 6 
#
# 1 137.0203 39.6277 48.4080 -0.0001 -0.0001 0.0000
# 2 39.6277 85.0057 37.7450 0.0010 0.0003 0.0001
# 3 48.4080 37.7450 95.6125 0.0009 0.0003 0.0001
# 4 -0.0001 0.0010 0.0009 13.7543 0.0003 0.0001
# 5 -0.0001 0.0003 0.0003 0.0003 19.2017 0.0000
# 6 0.0000 0.0001 0.0001 0.0001 0.0000 31.3439
#
#
#
# Elastic Compliance Matrix: (Units=1/GPa)
#
#
# Indices 1 2 3 4 5 6 
#
# 1 0.009389 -0.002748 -0.003669 0.000001 0.000000 0.000000
# 2 -0.002748 0.015069 -0.004557 -0.000001 0.000000 0.000000
# 3 -0.003669 -0.004557 0.014116 -0.000001 0.000000 0.000000
# 4 0.000001 -0.000001 -0.000001 0.072705 -0.000001 0.000000
# 5 0.000000 0.000000 0.000000 -0.000001 0.052079 0.000000
# 6 0.000000 0.000000 0.000000 0.000000 0.000000 0.031904
#
#
# Mechanical properties :
#
#
# Convention : Reuss Voigt Hill
#
# Bulk Modulus (GPa) = 60.15072 63.24441 61.69757
# Shear Modulus (GPa) = 22.44666 25.65051 24.04858
#
# Velocity S-wave (km/s) = 3.41039 3.64566 3.52999
# Velocity P-wave (km/s) = 6.83190 7.10573 6.97016
#
# Compressibility (1/GPa) = 0.01662490
#
# Stress axis : x y z
#
# Youngs Moduli (GPa) = 106.50682 66.36346 70.84404
#
# Poissons Ratio (x) = 0.18236 0.25992
# Poissons Ratio (y) = 0.29267 0.32286
# Poissons Ratio (z) = 0.39076 0.30244
#
# Static dielectric constant tensor:
#      x y z
#    x 3.734480 0.000000 0.000000 
#    y 0.000000 3.653410 0.000000 
#    z 0.000000 0.000000 3.547040 
# 
# 
# High freq. dielectric constant tensor:
#      x y z
#    x 1.764370 0.000000 0.000000 
#    y 0.000000 1.752970 0.000000 
#    z 0.000000 0.000000 1.747500 
# 
# From -- ./inp_files/32198.got.cif
#   From: 2010.03.12/outbox.cif.g09.slc.cpg/sg74_17_cif.got.tgz:32198.got - 2010.04.16 15:46:19.
