data_PCOD8301970
_publ_section_title
;
Structure prediction by ZEFSAII (Michael W. Deem and Ramdas Pophale) SiO2 
 PCOD8301970
Probable space group: P 41
;
_chemical_formula_sum "Si O2"
_cell_formula_units_Z 20
_cell_length_a 13.198121
_cell_length_b 13.198121
_cell_length_c 4.819824
_cell_angle_alpha 90.000000
_cell_angle_beta 90.000000
_cell_angle_gamma 90.000000
_cell_volume 839.567061
_symmetry_space_group_name_H-M "P 41"
_symmetry_group_IT_number 76
_symmetry_cell_setting 'tetragonal'
loop_
_space_group_symop_operation_xyz
x,y,z
-y,x,1/4+z
-x,-y,1/2+z
y,-x,3/4+z
loop_
_atom_site_type_symbol
_atom_site_label
_atom_site_fract_x
_atom_site_fract_y
_atom_site_fract_z
Si Si1 0.395370 0.234176 0.658360
Si Si2 0.792534 0.895631 0.070143
Si Si3 0.061324 0.465198 0.200498
Si Si4 0.437520 0.358496 0.170276
Si Si5 0.762377 0.028771 0.572405
O O1 0.289266 0.178394 0.710774
O O2 0.481983 0.166733 0.517388
O O3 0.375874 0.328187 0.448085
O O4 0.438653 0.266242 0.955193
O O5 0.819299 0.979333 0.305735
O O6 0.738466 0.944797 0.804123
O O7 0.891337 0.837037 0.966640
O O8 0.970302 0.509735 0.386685
O O9 0.076794 0.344137 0.228432
O O10 0.550167 0.384247 0.263685
#
# Coordination Sequence:
#
# PCOD8301970 Si02
#       5
#     4   4   4   4   4
#     4  12  25  46  73 109 142 196 255 305 366 454
#     4  12  27  48  73 110 148 195 257 310 378 446
#     4  12  23  46  72 105 148 188 239 310 381 422
#     4  12  27  46  69 102 153 198 244 297 370 452
#     4  12  26  48  75 108 151 197 247 316 375 454
#
# _framework density 23.821804
#
# number of rings (size 3 to 8) (size 9 to 14) (size 15 to 20)
#    0.000    0.000    4.000    6.000    5.600    1.600 
#    0.000    0.000    0.000    0.000    0.000    0.000 
#    0.000    0.000    0.000    0.000    0.000    0.000 
#
# Total GULP energy -248106.564731 kJ/mol
# GULP energy per Si atom -12405.328237 kJ/mol
# Density = 2.376758 g / cm^3
# Si number density = 23.821804 Si / 1000 Ang^3
#
#
#
# Elastic Constant Matrix: (Units=GPa)
#
#
# Indices 1 2 3 4 5 6 
#
# 1 100.7120 52.1313 29.5906 0.0000 0.0000 8.3656
# 2 52.1313 100.7120 29.5906 0.0000 0.0000 -8.3656
# 3 29.5906 29.5906 110.3781 0.0000 0.0000 0.0000
# 4 0.0000 0.0000 0.0000 46.9484 0.0000 0.0000
# 5 0.0000 0.0000 0.0000 0.0000 46.9484 0.0000
# 6 8.3656 -8.3656 0.0000 0.0000 0.0000 48.3756
#
#
#
# Elastic Compliance Matrix: (Units=1/GPa)
#
#
# Indices 1 2 3 4 5 6 
#
# 1 0.014594 -0.007294 -0.001957 0.000000 0.000000 -0.003785
# 2 -0.007294 0.014594 -0.001957 0.000000 0.000000 0.003785
# 3 -0.001957 -0.001957 0.010109 0.000000 0.000000 0.000000
# 4 0.000000 0.000000 0.000000 0.021300 0.000000 0.000000
# 5 0.000000 0.000000 0.000000 0.000000 0.021300 0.000000
# 6 -0.003785 0.003785 0.000000 0.000000 0.000000 0.021981
#
#
# Mechanical properties :
#
#
# Convention : Reuss Voigt Hill
#
# Bulk Modulus (GPa) = 59.23647 59.38078 59.30862
# Shear Modulus (GPa) = 37.90139 41.82045 39.86092
#
# Velocity S-wave (km/s) = 3.99311 4.19448 4.09503
# Velocity P-wave (km/s) = 6.79561 6.95984 6.87822
#
# Compressibility (1/GPa) = 0.01688149
#
# Stress axis : x y z
#
# Youngs Moduli (GPa) = 68.52050 68.52050 98.92054
#
# Poissons Ratio (x) = 0.49977 0.19360
# Poissons Ratio (y) = 0.49977 0.19360
# Poissons Ratio (z) = 0.13410 0.13410
#
# Static dielectric constant tensor:
#      x y z
#    x 4.181140 0.000000 0.000000 
#    y 0.000000 4.181140 0.000000 
#    z 0.000000 0.000000 4.752820 
# 
# 
# High freq. dielectric constant tensor:
#      x y z
#    x 1.941560 0.000000 0.000000 
#    y 0.000000 1.941560 0.000000 
#    z 0.000000 0.000000 1.971320 
# 
# From -- ./inp_files/149.got.cif
#   From: 2010.03.12/outbox.cif.g09.slc.cpg/sg76_cif.got.tgz:149.got - 2010.04.16 16:34:25.
