data_PCOD8301618
_publ_section_title
;
Structure prediction by ZEFSAII (Michael W. Deem and Ramdas Pophale) SiO2 
 PCOD8301618
Probable space group: I M M A
;
_chemical_formula_sum "Si O2"
_cell_formula_units_Z 64
_cell_length_a 16.320430
_cell_length_b 19.983599
_cell_length_c 9.690296
_cell_angle_alpha 90.000000
_cell_angle_beta 90.000000
_cell_angle_gamma 90.000000
_cell_volume 3160.402136
_symmetry_space_group_name_H-M "I M M A"
_symmetry_group_IT_number 74
_symmetry_cell_setting 'orthorhombic'
loop_
_space_group_symop_operation_xyz
x,y,z
-x,1/2-y,z
x,-y,-z
-x,1/2+y,-z
-x,-y,-z
x,1/2+y,-z
-x,y,z
x,1/2-y,z
1/2+x,1/2+y,1/2+z
1/2-x,-y,1/2+z
1/2+x,1/2-y,1/2-z
1/2-x,y,1/2-z
1/2-x,1/2-y,1/2-z
1/2+x,y,1/2-z
1/2-x,1/2+y,1/2+z
1/2+x,-y,1/2+z
loop_
_atom_site_type_symbol
_atom_site_label
_atom_site_fract_x
_atom_site_fract_y
_atom_site_fract_z
Si Si1 0.593407 0.325475 0.803136
Si Si2 0.094533 0.952054 0.806291
Si Si3 0.839105 0.913373 0.079263
Si Si4 0.654692 0.924494 0.976997
O O1 0.500000 0.329217 0.752617
O O2 0.619007 0.250000 0.842031
O O3 0.650344 0.348830 0.675630
O O4 0.602045 0.371648 0.937288
O O5 0.139445 0.910209 0.685298
O O6 0.000000 0.965263 0.769456
O O7 0.141808 0.022472 0.825107
O O8 0.099780 0.910327 0.948717
O O9 0.748438 0.917056 0.019687
O O10 0.622437 0.000000 0.000000
#
# Coordination Sequence:
#
# PCOD8301618 Si02
#       4
#    16  16  16  16
#     4  11  25  44  65  92 129 173 216 259 315 383
#     4  11  22  37  60  93 126 161 207 264 315 366
#     4  11  22  37  62  93 127 166 208 259 315 376
#     4  12  23  37  63  96 130 165 208 267 319 376
#
# _framework density 20.250585999999998
#
# number of rings (size 3 to 8) (size 9 to 14) (size 15 to 20)
#    0.000    0.750    5.000    5.250    0.000    3.000 
#    0.000    1.250    0.000    7.500    0.000    0.000 
#    0.000    0.000    0.000    0.000    0.000    0.000 
#
# Total GULP energy -396877.266847 kJ/mol
# GULP energy per Si atom -12402.414589 kJ/mol
# Density = 2.020450 g / cm^3
# Si number density = 20.250586 Si / 1000 Ang^3
#
#
#
# Elastic Constant Matrix: (Units=GPa)
#
#
# Indices 1 2 3 4 5 6 
#
# 1 107.2632 32.0826 41.4107 0.0000 0.0000 0.0000
# 2 32.0826 125.0088 70.9519 0.0000 0.0000 0.0000
# 3 41.4107 70.9519 146.5048 0.0000 0.0000 0.0000
# 4 0.0000 0.0000 0.0000 31.8658 0.0000 0.0000
# 5 0.0000 0.0000 0.0000 0.0000 35.4322 0.0000
# 6 0.0000 0.0000 0.0000 0.0000 0.0000 23.6379
#
#
#
# Elastic Compliance Matrix: (Units=1/GPa)
#
#
# Indices 1 2 3 4 5 6 
#
# 1 0.010643 -0.001412 -0.002324 0.000000 0.000000 0.000000
# 2 -0.001412 0.011219 -0.005034 0.000000 0.000000 0.000000
# 3 -0.002324 -0.005034 0.009921 0.000000 0.000000 0.000000
# 4 0.000000 0.000000 0.000000 0.031382 0.000000 0.000000
# 5 0.000000 0.000000 0.000000 0.000000 0.028223 0.000000
# 6 0.000000 0.000000 0.000000 0.000000 0.000000 0.042305
#
#
# Mechanical properties :
#
#
# Convention : Reuss Voigt Hill
#
# Bulk Modulus (GPa) = 70.21922 74.18526 72.20224
# Shear Modulus (GPa) = 32.05531 33.80929 32.93230
#
# Velocity S-wave (km/s) = 3.98292 4.09044 4.03704
# Velocity P-wave (km/s) = 7.47676 7.68258 7.58037
#
# Compressibility (1/GPa) = 0.01424112
#
# Stress axis : x y z
#
# Youngs Moduli (GPa) = 93.96234 89.13306 100.79843
#
# Poissons Ratio (x) = 0.12587 0.23429
# Poissons Ratio (y) = 0.13269 0.50745
# Poissons Ratio (z) = 0.21840 0.44872
#
# Static dielectric constant tensor:
#      x y z
#    x 3.756880 0.000000 0.000000 
#    y 0.000000 3.570050 0.000000 
#    z 0.000000 0.000000 4.047330 
# 
# 
# High freq. dielectric constant tensor:
#      x y z
#    x 1.803400 0.000000 0.000000 
#    y 0.000000 1.750450 0.000000 
#    z 0.000000 0.000000 1.807450 
# 
# From -- ./inp_files/10253.got.cif
#   From: 2010.03.12/outbox.cif.g09.slc.cpg/sg74_6_cif.got.tgz:10253.got - 2010.04.16 15:46:19.
