data_PCOD8301026
_publ_section_title
;
Structure prediction by ZEFSAII (Michael W. Deem and Ramdas Pophale) SiO2 
 PCOD8301026
Probable space group: I M M A
;
_chemical_formula_sum "Si O2"
_cell_formula_units_Z 96
_cell_length_a 8.688914
_cell_length_b 18.928266
_cell_length_c 29.612596
_cell_angle_alpha 90.000000
_cell_angle_beta 90.000000
_cell_angle_gamma 90.000000
_cell_volume 4870.267448
_symmetry_space_group_name_H-M "I M M A"
_symmetry_group_IT_number 74
_symmetry_cell_setting 'orthorhombic'
loop_
_space_group_symop_operation_xyz
x,y,z
-x,1/2-y,z
x,-y,-z
-x,1/2+y,-z
-x,-y,-z
x,1/2+y,-z
-x,y,z
x,1/2-y,z
1/2+x,1/2+y,1/2+z
1/2-x,-y,1/2+z
1/2+x,1/2-y,1/2-z
1/2-x,y,1/2-z
1/2-x,1/2-y,1/2-z
1/2+x,y,1/2-z
1/2-x,1/2+y,1/2+z
1/2+x,-y,1/2+z
loop_
_atom_site_type_symbol
_atom_site_label
_atom_site_fract_x
_atom_site_fract_y
_atom_site_fract_z
Si Si1 0.826344 0.671704 0.684656
Si Si2 0.318836 0.830429 0.297900
Si Si3 0.679883 0.942846 0.136136
Si Si4 0.678943 0.173602 0.078920
Si Si5 0.677063 0.537819 0.705801
Si Si6 0.316470 0.476556 0.048779
O O1 0.803280 0.750000 0.704125
O O2 0.793470 0.670741 0.631839
O O3 0.700515 0.622164 0.708877
O O4 0.000000 0.644500 0.694649
O O5 0.500000 0.837726 0.293774
O O6 0.266859 0.750000 0.307229
O O7 0.250000 0.856910 0.250000
O O8 0.265047 0.876238 0.341058
O O9 0.500000 0.926680 0.137522
O O10 0.721886 0.012777 0.163802
O O11 0.735137 0.963306 0.085270
O O12 0.500000 0.173588 0.067069
O O13 0.747346 0.250000 0.061053
O O14 0.753916 0.102282 0.057704
O O15 0.500000 0.515832 0.700918
O O16 0.750000 0.501142 0.750000
O O17 0.500000 0.471786 0.050727
O O18 0.254939 0.500000 0.000000
#
# Coordination Sequence:
#
# PCOD8301026 Si02
#       6
#    16  16  16  16  16  16
#     4   9  17  32  53  75 101 137 180 224 270 315
#     4  10  21  38  60  86 116 150 188 228 276 340
#     4  11  21  36  57  81 113 145 181 230 281 332
#     4   8  13  25  48  74 101 137 180 221 265 316
#     4  12  24  36  52  75 107 144 185 224 269 323
#     4   9  17  30  51  81 113 143 180 232 288 335
#
# _framework density 19.711442999999999
#
# number of rings (size 3 to 8) (size 9 to 14) (size 15 to 20)
#    0.000    2.167    1.667    4.000    0.000    1.667 
#    0.000    0.833    0.000    5.000    0.000    0.000 
#    0.000    0.000    0.000    0.000    0.000    0.000 
#
# Total GULP energy -594713.761877 kJ/mol
# GULP energy per Si atom -12389.870039 kJ/mol
# Density = 1.966658 g / cm^3
# Si number density = 19.711443 Si / 1000 Ang^3
#
#
#
# Elastic Constant Matrix: (Units=GPa)
#
#
# Indices 1 2 3 4 5 6 
#
# 1 41.7411 21.2526 24.9100 0.0000 0.0000 0.0000
# 2 21.2526 133.3793 51.8548 0.0000 0.0000 0.0000
# 3 24.9100 51.8548 121.1701 0.0000 0.0000 0.0000
# 4 0.0000 0.0000 0.0000 15.0201 0.0000 0.0000
# 5 0.0000 0.0000 0.0000 0.0000 15.8036 0.0000
# 6 0.0000 0.0000 0.0000 0.0000 0.0000 25.8223
#
#
#
# Elastic Compliance Matrix: (Units=1/GPa)
#
#
# Indices 1 2 3 4 5 6 
#
# 1 0.028081 -0.002675 -0.004628 0.000000 0.000000 0.000000
# 2 -0.002675 0.009249 -0.003408 0.000000 0.000000 0.000000
# 3 -0.004628 -0.003408 0.010663 0.000000 0.000000 0.000000
# 4 0.000000 0.000000 0.000000 0.066577 0.000000 0.000000
# 5 0.000000 0.000000 0.000000 0.000000 0.063277 0.000000
# 6 0.000000 0.000000 0.000000 0.000000 0.000000 0.038726
#
#
# Mechanical properties :
#
#
# Convention : Reuss Voigt Hill
#
# Bulk Modulus (GPa) = 37.63629 54.70282 46.16955
# Shear Modulus (GPa) = 20.25505 24.54741 22.40123
#
# Velocity S-wave (km/s) = 3.20906 3.53276 3.37480
# Velocity P-wave (km/s) = 5.73288 6.66728 6.21766
#
# Compressibility (1/GPa) = 0.02657010
#
# Stress axis : x y z
#
# Youngs Moduli (GPa) = 35.61109 108.12422 93.78449
#
# Poissons Ratio (x) = 0.28925 0.43404
# Poissons Ratio (y) = 0.09527 0.31962
# Poissons Ratio (z) = 0.16481 0.36849
#
# Static dielectric constant tensor:
#      x y z
#    x 3.162980 0.000000 0.000000 
#    y 0.000000 3.952290 0.000000 
#    z 0.000000 0.000000 3.557150 
# 
# 
# High freq. dielectric constant tensor:
#      x y z
#    x 1.729660 0.000000 0.000000 
#    y 0.000000 1.784430 0.000000 
#    z 0.000000 0.000000 1.749620 
# 
# From -- ./inp_files/64371.got.cif
#   From: 2010.03.12/outbox.cif.g09.slc.cpg/sg74_33_cif.got.tgz:64371.got - 2010.04.16 15:46:19.
