data_PCOD8301387
_publ_section_title
;
Structure prediction by ZEFSAII (Michael W. Deem and Ramdas Pophale) SiO2 
 PCOD8301387
Probable space group: I M M A
;
_chemical_formula_sum "Si O2"
_cell_formula_units_Z 104
_cell_length_a 27.321867
_cell_length_b 21.498804
_cell_length_c 8.955389
_cell_angle_alpha 90.000000
_cell_angle_beta 90.000000
_cell_angle_gamma 90.000000
_cell_volume 5260.283230
_symmetry_space_group_name_H-M "I M M A"
_symmetry_group_IT_number 74
_symmetry_cell_setting 'orthorhombic'
loop_
_space_group_symop_operation_xyz
x,y,z
-x,1/2-y,z
x,-y,-z
-x,1/2+y,-z
-x,-y,-z
x,1/2+y,-z
-x,y,z
x,1/2-y,z
1/2+x,1/2+y,1/2+z
1/2-x,-y,1/2+z
1/2+x,1/2-y,1/2-z
1/2-x,y,1/2-z
1/2-x,1/2-y,1/2-z
1/2+x,y,1/2-z
1/2-x,1/2+y,1/2+z
1/2+x,-y,1/2+z
loop_
_atom_site_type_symbol
_atom_site_label
_atom_site_fract_x
_atom_site_fract_y
_atom_site_fract_z
Si Si1 0.693425 0.152194 0.279835
Si Si2 0.558101 0.868880 0.317888
Si Si3 0.318772 0.250000 0.041282
Si Si4 0.894205 0.984002 0.326809
Si Si5 0.704112 0.750000 0.482615
Si Si6 0.946636 0.939413 0.898895
Si Si7 0.377315 0.750000 0.246584
Si Si8 0.802132 0.986909 0.824702
O O1 0.750000 0.151056 0.250000
O O2 0.684440 0.189019 0.432631
O O3 0.675516 0.081727 0.296562
O O4 0.670285 0.188392 0.139524
O O5 0.500000 0.856030 0.303789
O O6 0.570912 0.925186 0.204073
O O7 0.572603 0.885388 0.489969
O O8 0.589460 0.809199 0.278546
O O9 0.362290 0.250000 0.924530
O O10 0.263576 0.250000 0.970655
O O11 0.890957 0.000000 0.500000
O O12 0.912783 0.046703 0.243017
O O13 0.840487 0.967596 0.258573
O O14 0.675663 0.750000 0.326894
O O15 0.000000 0.921207 0.836734
O O16 0.950098 0.000000 0.000000
O O17 0.750000 0.998430 0.750000
O O18 0.798898 0.000000 0.000000
#
# Coordination Sequence:
#
# PCOD8301387 Si02
#       8
#    16  16   8  16   8  16   8  16
#     4   8  18  38  62  80 121 170 201 243 301 354
#     4  10  23  43  60  86 123 163 205 256 319 376
#     4   9  19  40  60  90 124 159 208 251 303 357
#     4  11  23  37  64  92 121 158 212 252 309 371
#     4   9  19  36  60  92 114 157 209 248 285 357
#     4   8  16  35  61  83 111 149 195 251 301 358
#     4  12  24  34  64  94 122 160 205 261 312 366
#     4  11  23  39  59  91 133 170 201 246 306 366
#
# _framework density 19.770797999999999
#
# number of rings (size 3 to 8) (size 9 to 14) (size 15 to 20)
#    0.000    2.308    0.000    4.615    6.462    1.231 
#    2.769    0.000    0.000    0.000    0.000    6.462 
#    0.000    0.000    0.000    0.000    0.000    0.000 
#
# Total GULP energy -644359.348830 kJ/mol
# GULP energy per Si atom -12391.525939 kJ/mol
# Density = 1.972580 g / cm^3
# Si number density = 19.770798 Si / 1000 Ang^3
#
#
#
# Elastic Constant Matrix: (Units=GPa)
#
#
# Indices 1 2 3 4 5 6 
#
# 1 100.7342 43.1249 60.7924 0.0000 0.0000 0.0000
# 2 43.1249 84.6692 48.9495 0.0000 0.0000 0.0000
# 3 60.7924 48.9495 150.1845 0.0000 0.0000 0.0000
# 4 0.0000 0.0000 0.0000 19.1364 0.0000 0.0000
# 5 0.0000 0.0000 0.0000 0.0000 27.2723 0.0000
# 6 0.0000 0.0000 0.0000 0.0000 0.0000 92.5959
#
#
#
# Elastic Compliance Matrix: (Units=1/GPa)
#
#
# Indices 1 2 3 4 5 6 
#
# 1 0.014659 -0.004973 -0.004313 0.000000 0.000000 0.000000
# 2 -0.004973 0.016240 -0.003280 0.000000 0.000000 0.000000
# 3 -0.004313 -0.003280 0.009473 0.000000 0.000000 0.000000
# 4 0.000000 0.000000 0.000000 0.052256 0.000000 0.000000
# 5 0.000000 0.000000 0.000000 0.000000 0.036667 0.000000
# 6 0.000000 0.000000 0.000000 0.000000 0.000000 0.010800
#
#
# Mechanical properties :
#
#
# Convention : Reuss Voigt Hill
#
# Bulk Modulus (GPa) = 65.61532 71.25795 68.43663
# Shear Modulus (GPa) = 29.35876 39.98234 34.67055
#
# Velocity S-wave (km/s) = 3.85769 4.50187 4.19217
# Velocity P-wave (km/s) = 7.28714 7.94624 7.62382
#
# Compressibility (1/GPa) = 0.01524034
#
# Stress axis : x y z
#
# Youngs Moduli (GPa) = 68.21832 61.57701 105.55935
#
# Poissons Ratio (x) = 0.30621 0.45526
# Poissons Ratio (y) = 0.33924 0.34624
# Poissons Ratio (z) = 0.29422 0.20198
#
# Static dielectric constant tensor:
#      x y z
#    x 3.606610 0.000000 0.000000 
#    y 0.000000 2.446040 0.000000 
#    z 0.000000 0.000000 3.573860 
# 
# 
# High freq. dielectric constant tensor:
#      x y z
#    x 1.775120 0.000000 0.000000 
#    y 0.000000 1.756740 0.000000 
#    z 0.000000 0.000000 1.765240 
# 
# From -- ./inp_files/15282.got.cif
#   From: 2010.03.12/outbox.cif.g09.slc.cpg/sg74_8_cif.got.tgz:15282.got - 2010.04.16 15:46:19.
