data_PCOD8301953
_publ_section_title
;
Structure prediction by ZEFSAII (Michael W. Deem and Ramdas Pophale) SiO2 
 PCOD8301953
Probable space group: P 41
;
_chemical_formula_sum "Si O2"
_cell_formula_units_Z 28
_cell_length_a 13.869018
_cell_length_b 13.869018
_cell_length_c 6.409570
_cell_angle_alpha 90.000000
_cell_angle_beta 90.000000
_cell_angle_gamma 90.000000
_cell_volume 1232.878612
_symmetry_space_group_name_H-M "P 41"
_symmetry_group_IT_number 76
_symmetry_cell_setting 'tetragonal'
loop_
_space_group_symop_operation_xyz
x,y,z
-y,x,1/4+z
-x,-y,1/2+z
y,-x,3/4+z
loop_
_atom_site_type_symbol
_atom_site_label
_atom_site_fract_x
_atom_site_fract_y
_atom_site_fract_z
Si Si1 0.858949 0.553161 0.607380
Si Si2 0.407100 0.061279 0.030203
Si Si3 0.630509 0.265743 0.997341
Si Si4 0.898204 0.923740 0.356541
Si Si5 0.231042 0.549135 0.493119
Si Si6 0.222791 0.860229 0.317759
Si Si7 0.216530 0.073135 0.243133
O O1 0.922295 0.491190 0.446570
O O2 0.786591 0.622774 0.474999
O O3 0.945801 0.608878 0.732303
O O4 0.788799 0.491536 0.759931
O O5 0.313555 0.108365 0.134821
O O6 0.424967 0.123909 0.822967
O O7 0.695845 0.360996 0.996535
O O8 0.525429 0.285038 0.899247
O O9 0.675432 0.192786 0.824985
O O10 0.831234 0.834904 0.279624
O O11 0.858025 0.965841 0.569826
O O12 0.008039 0.894836 0.404296
O O13 0.163258 0.827715 0.115360
O O14 0.238088 0.973960 0.361728
#
# Coordination Sequence:
#
# PCOD8301953 Si02
#       7
#     4   4   4   4   4   4   4
#     4  11  24  46  76 106 150 186 245 298 372 440
#     4  11  24  41  73 106 143 194 232 305 368 430
#     4  11  28  46  75 106 140 190 243 306 377 447
#     4  12  23  39  58  88 137 194 238 288 352 423
#     4  11  25  51  72 108 147 187 245 306 372 444
#     4  12  25  42  64 100 143 193 247 299 360 436
#     4  12  25  39  64  98 144 190 246 296 359 432
#
# _framework density 22.711075000000001
#
# number of rings (size 3 to 8) (size 9 to 14) (size 15 to 20)
#    0.000    0.571    4.286    3.429    4.000    6.857 
#    2.571    0.000    0.000    0.000    0.000    0.000 
#    0.000    0.000    0.000    0.000    0.000    0.000 
#
# Total GULP energy -346923.767104 kJ/mol
# GULP energy per Si atom -12390.134539 kJ/mol
# Density = 2.265938 g / cm^3
# Si number density = 22.711075 Si / 1000 Ang^3
#
#
#
# Elastic Constant Matrix: (Units=GPa)
#
#
# Indices 1 2 3 4 5 6 
#
# 1 68.8144 51.8508 32.0037 0.0000 0.0000 2.2928
# 2 51.8508 68.8144 32.0037 0.0000 0.0000 -2.2928
# 3 32.0037 32.0037 94.9620 0.0000 0.0000 0.0000
# 4 0.0000 0.0000 0.0000 28.9263 0.0000 0.0000
# 5 0.0000 0.0000 0.0000 0.0000 28.9263 0.0000
# 6 2.2928 -2.2928 0.0000 0.0000 0.0000 35.8561
#
#
#
# Elastic Compliance Matrix: (Units=1/GPa)
#
#
# Indices 1 2 3 4 5 6 
#
# 1 0.035039 -0.024948 -0.003401 0.000000 0.000000 -0.003836
# 2 -0.024948 0.035039 -0.003401 0.000000 0.000000 0.003836
# 3 -0.003401 -0.003401 0.012823 0.000000 0.000000 0.000000
# 4 0.000000 0.000000 0.000000 0.034571 0.000000 0.000000
# 5 0.000000 0.000000 0.000000 0.000000 0.034571 0.000000
# 6 -0.003836 0.003836 0.000000 0.000000 0.000000 0.028380
#
#
# Mechanical properties :
#
#
# Convention : Reuss Voigt Hill
#
# Bulk Modulus (GPa) = 51.54135 51.58967 51.56551
# Shear Modulus (GPa) = 19.96900 26.52393 23.24647
#
# Velocity S-wave (km/s) = 2.96845 3.42114 3.20281
# Velocity P-wave (km/s) = 5.87304 6.19440 6.03586
#
# Compressibility (1/GPa) = 0.01940190
#
# Stress axis : x y z
#
# Youngs Moduli (GPa) = 28.53964 28.53964 77.98545
#
# Poissons Ratio (x) = 0.71199 0.26523
# Poissons Ratio (y) = 0.71199 0.26523
# Poissons Ratio (z) = 0.09706 0.09706
#
# Static dielectric constant tensor:
#      x y z
#    x 4.045540 0.000000 0.000000 
#    y 0.000000 4.045540 0.000000 
#    z 0.000000 0.000000 4.120720 
# 
# 
# High freq. dielectric constant tensor:
#      x y z
#    x 1.891680 0.000000 0.000000 
#    y 0.000000 1.891680 0.000000 
#    z 0.000000 0.000000 1.908780 
# 
# From -- ./inp_files/268.got.cif
#   From: 2010.03.12/outbox.cif.g09.slc.cpg/sg76_cif.got.tgz:268.got - 2010.04.16 16:34:25.
