data_PCOD8301958
_publ_section_title
;
Structure prediction by ZEFSAII (Michael W. Deem and Ramdas Pophale) SiO2 
 PCOD8301958
Probable space group: P 41
;
_chemical_formula_sum "Si O2"
_cell_formula_units_Z 28
_cell_length_a 12.233315
_cell_length_b 12.233315
_cell_length_c 8.195933
_cell_angle_alpha 90.000000
_cell_angle_beta 90.000000
_cell_angle_gamma 90.000000
_cell_volume 1226.554123
_symmetry_space_group_name_H-M "P 41"
_symmetry_group_IT_number 76
_symmetry_cell_setting 'tetragonal'
loop_
_space_group_symop_operation_xyz
x,y,z
-y,x,1/4+z
-x,-y,1/2+z
y,-x,3/4+z
loop_
_atom_site_type_symbol
_atom_site_label
_atom_site_fract_x
_atom_site_fract_y
_atom_site_fract_z
Si Si1 0.799816 0.437198 0.036610
Si Si2 0.683406 0.294226 0.249307
Si Si3 0.956235 0.256788 0.937335
Si Si4 0.174707 0.907606 0.249354
Si Si5 0.360462 0.476357 0.278846
Si Si6 0.840312 0.136105 0.409347
Si Si7 0.877087 0.628731 0.240636
O O1 0.708646 0.413872 0.175690
O O2 0.881395 0.527908 0.113459
O O3 0.852218 0.317142 0.014022
O O4 0.744603 0.471389 0.867114
O O5 0.613136 0.309936 0.410189
O O6 0.797326 0.234524 0.297872
O O7 0.620099 0.228540 0.106811
O O8 0.930642 0.164752 0.801222
O O9 0.019070 0.362278 0.860254
O O10 0.021551 0.190897 0.075419
O O11 0.260252 0.884634 0.389990
O O12 0.140460 0.031765 0.206708
O O13 0.223564 0.858541 0.081806
O O14 0.435672 0.425092 0.420378
#
# Coordination Sequence:
#
# PCOD8301958 Si02
#       7
#     4   4   4   4   4   4   4
#     4  12  25  46  75  95 154 186 242 313 372 436
#     4  11  24  47  70 105 144 182 250 308 371 446
#     4  11  27  46  67 108 147 192 246 305 368 445
#     4  12  24  43  70 103 147 187 246 299 361 446
#     4  12  26  44  74 107 141 193 248 304 383 450
#     4  11  27  41  73 103 141 192 240 292 371 440
#     4  11  25  45  69 103 140 194 242 301 372 441
#
# _framework density 22.828181000000001
#
# number of rings (size 3 to 8) (size 9 to 14) (size 15 to 20)
#    0.000    0.571    2.857    4.286    6.000    4.571 
#    0.000    0.000    0.000    0.000    0.000    0.000 
#    0.000    0.000    0.000    0.000    0.000    0.000 
#
# Total GULP energy -347022.939165 kJ/mol
# GULP energy per Si atom -12393.676399 kJ/mol
# Density = 2.277622 g / cm^3
# Si number density = 22.828181 Si / 1000 Ang^3
#
#
#
# Elastic Constant Matrix: (Units=GPa)
#
#
# Indices 1 2 3 4 5 6 
#
# 1 95.6853 43.6006 49.8031 0.0000 0.0000 -6.5781
# 2 43.6006 95.6853 49.8031 0.0000 0.0000 6.5781
# 3 49.8031 49.8031 154.6315 0.0000 0.0000 0.0000
# 4 0.0000 0.0000 0.0000 43.2278 0.0000 0.0000
# 5 0.0000 0.0000 0.0000 0.0000 43.2278 0.0000
# 6 -6.5781 6.5781 0.0000 0.0000 0.0000 26.3079
#
#
#
# Elastic Compliance Matrix: (Units=1/GPa)
#
#
# Indices 1 2 3 4 5 6 
#
# 1 0.014911 -0.005583 -0.003004 0.000000 0.000000 0.005124
# 2 -0.005583 0.014911 -0.003004 0.000000 0.000000 -0.005124
# 3 -0.003004 -0.003004 0.008402 0.000000 0.000000 0.000000
# 4 0.000000 0.000000 0.000000 0.023133 0.000000 0.000000
# 5 0.000000 0.000000 0.000000 0.000000 0.023133 0.000000
# 6 0.005124 -0.005124 0.000000 0.000000 0.000000 0.040574
#
#
# Mechanical properties :
#
#
# Convention : Reuss Voigt Hill
#
# Bulk Modulus (GPa) = 66.48558 70.26838 68.37698
# Shear Modulus (GPa) = 32.62403 36.07238 34.34820
#
# Velocity S-wave (km/s) = 3.78446 3.97945 3.88318
# Velocity P-wave (km/s) = 6.94865 7.20853 7.07978
#
# Compressibility (1/GPa) = 0.01504085
#
# Stress axis : x y z
#
# Youngs Moduli (GPa) = 67.06508 67.06508 119.01627
#
# Poissons Ratio (x) = 0.37442 0.35756
# Poissons Ratio (y) = 0.37442 0.35756
# Poissons Ratio (z) = 0.20148 0.20148
#
# Static dielectric constant tensor:
#      x y z
#    x 3.978650 0.000000 0.000000 
#    y 0.000000 3.978650 0.000000 
#    z 0.000000 0.000000 4.624120 
# 
# 
# High freq. dielectric constant tensor:
#      x y z
#    x 1.894360 0.000000 0.000000 
#    y 0.000000 1.894360 0.000000 
#    z 0.000000 0.000000 1.936470 
# 
# From -- ./inp_files/619.got.cif
#   From: 2010.03.12/outbox.cif.g09.slc.cpg/sg76_cif.got.tgz:619.got - 2010.04.16 16:34:25.
