data_PCOD8301262
_publ_section_title
;
Structure prediction by ZEFSAII (Michael W. Deem and Ramdas Pophale) SiO2 
 PCOD8301262
Probable space group: I M M A
;
_chemical_formula_sum "Si O2"
_cell_formula_units_Z 88
_cell_length_a 24.369678
_cell_length_b 28.472121
_cell_length_c 6.487210
_cell_angle_alpha 90.000000
_cell_angle_beta 90.000000
_cell_angle_gamma 90.000000
_cell_volume 4501.192311
_symmetry_space_group_name_H-M "I M M A"
_symmetry_group_IT_number 74
_symmetry_cell_setting 'orthorhombic'
loop_
_space_group_symop_operation_xyz
x,y,z
-x,1/2-y,z
x,-y,-z
-x,1/2+y,-z
-x,-y,-z
x,1/2+y,-z
-x,y,z
x,1/2-y,z
1/2+x,1/2+y,1/2+z
1/2-x,-y,1/2+z
1/2+x,1/2-y,1/2-z
1/2-x,y,1/2-z
1/2-x,1/2-y,1/2-z
1/2+x,y,1/2-z
1/2-x,1/2+y,1/2+z
1/2+x,-y,1/2+z
loop_
_atom_site_type_symbol
_atom_site_label
_atom_site_fract_x
_atom_site_fract_y
_atom_site_fract_z
Si Si1 0.130769 0.131031 0.264885
Si Si2 0.562591 0.196562 0.968282
Si Si3 0.060705 0.379442 0.871608
Si Si4 0.108305 0.946988 0.418887
Si Si5 0.797520 0.956566 0.112427
Si Si6 0.250000 0.392196 0.250000
O O1 0.100734 0.177041 0.349407
O O2 0.114151 0.083206 0.376901
O O3 0.196287 0.139693 0.293363
O O4 0.110442 0.120100 0.033898
O O5 0.500000 0.192974 0.045274
O O6 0.579480 0.250000 0.921557
O O7 0.571581 0.167122 0.761645
O O8 0.059591 0.425854 0.723168
O O9 0.000000 0.377239 0.975541
O O10 0.160461 0.935076 0.275236
O O11 0.099155 0.000000 0.500000
O O12 0.750000 0.979773 0.250000
O O13 0.769632 0.921281 0.950312
O O14 0.827733 0.000000 0.000000
#
# Coordination Sequence:
#
# PCOD8301262 Si02
#       6
#    16  16  16  16  16   8
#     4  11  22  38  59  88 121 159 199 247 300 359
#     4   9  20  41  67  92 115 145 193 251 307 361
#     4  10  22  39  61  87 118 156 202 252 303 364
#     4  11  23  37  56  84 123 162 206 255 294 347
#     4  12  21  34  54  83 111 155 212 255 291 327
#     4  12  22  34  55  84 120 162 196 242 303 352
#
# _framework density 19.550376
#
# number of rings (size 3 to 8) (size 9 to 14) (size 15 to 20)
#    0.000    1.273    4.545    2.182    0.000    1.818 
#    0.000    3.182    0.000    1.091    0.000    0.000 
#    0.000    0.000    0.000    0.000    0.000    0.000 
#
# Total GULP energy -545127.876062 kJ/mol
# GULP energy per Si atom -12389.269911 kJ/mol
# Density = 1.950588 g / cm^3
# Si number density = 19.550376 Si / 1000 Ang^3
#
#
#
# Elastic Constant Matrix: (Units=GPa)
#
#
# Indices 1 2 3 4 5 6 
#
# 1 105.1741 46.0697 43.5704 0.0000 0.0000 0.0000
# 2 46.0697 124.6152 54.7098 0.0000 0.0000 0.0000
# 3 43.5704 54.7098 98.5336 0.0000 0.0000 0.0000
# 4 0.0000 0.0000 0.0000 14.3456 0.0000 0.0000
# 5 0.0000 0.0000 0.0000 0.0000 39.7238 0.0000
# 6 0.0000 0.0000 0.0000 0.0000 0.0000 10.9825
#
#
#
# Elastic Compliance Matrix: (Units=1/GPa)
#
#
# Indices 1 2 3 4 5 6 
#
# 1 0.012372 -0.002872 -0.003876 0.000000 0.000000 0.000000
# 2 -0.002872 0.011278 -0.004992 0.000000 0.000000 0.000000
# 3 -0.003876 -0.004992 0.014635 0.000000 0.000000 0.000000
# 4 0.000000 0.000000 0.000000 0.069708 0.000000 0.000000
# 5 0.000000 0.000000 0.000000 0.000000 0.025174 0.000000
# 6 0.000000 0.000000 0.000000 0.000000 0.000000 0.091054
#
#
# Mechanical properties :
#
#
# Convention : Reuss Voigt Hill
#
# Bulk Modulus (GPa) = 67.54837 68.55805 68.05321
# Shear Modulus (GPa) = 19.79139 25.27526 22.53332
#
# Velocity S-wave (km/s) = 3.18516 3.59949 3.39865
# Velocity P-wave (km/s) = 6.93923 7.24007 7.09125
#
# Compressibility (1/GPa) = 0.01480421
#
# Stress axis : x y z
#
# Youngs Moduli (GPa) = 80.82882 88.66672 68.33165
#
# Poissons Ratio (x) = 0.25466 0.26485
# Poissons Ratio (y) = 0.23215 0.34112
# Poissons Ratio (z) = 0.31329 0.44263
#
# Static dielectric constant tensor:
#      x y z
#    x 3.769250 0.000000 0.000000 
#    y 0.000000 3.381630 0.000000 
#    z 0.000000 0.000000 3.670360 
# 
# 
# High freq. dielectric constant tensor:
#      x y z
#    x 1.763150 0.000000 0.000000 
#    y 0.000000 1.736260 0.000000 
#    z 0.000000 0.000000 1.776140 
# 
# From -- ./inp_files/3963.got.cif
#   From: 2010.03.12/outbox.cif.g09.slc.cpg/sg74_2_cif.got.tgz:3963.got - 2010.04.16 15:46:19.
