data_PCOD8301163
_publ_section_title
;
Structure prediction by ZEFSAII (Michael W. Deem and Ramdas Pophale) SiO2 
 PCOD8301163
Probable space group: I M M A
;
_chemical_formula_sum "Si O2"
_cell_formula_units_Z 96
_cell_length_a 13.611712
_cell_length_b 14.832177
_cell_length_c 21.842994
_cell_angle_alpha 90.000000
_cell_angle_beta 90.000000
_cell_angle_gamma 90.000000
_cell_volume 4409.910928
_symmetry_space_group_name_H-M "I M M A"
_symmetry_group_IT_number 74
_symmetry_cell_setting 'orthorhombic'
loop_
_space_group_symop_operation_xyz
x,y,z
-x,1/2-y,z
x,-y,-z
-x,1/2+y,-z
-x,-y,-z
x,1/2+y,-z
-x,y,z
x,1/2-y,z
1/2+x,1/2+y,1/2+z
1/2-x,-y,1/2+z
1/2+x,1/2-y,1/2-z
1/2-x,y,1/2-z
1/2-x,1/2-y,1/2-z
1/2+x,y,1/2-z
1/2-x,1/2+y,1/2+z
1/2+x,-y,1/2+z
loop_
_atom_site_type_symbol
_atom_site_label
_atom_site_fract_x
_atom_site_fract_y
_atom_site_fract_z
Si Si1 0.698131 0.147212 0.855843
Si Si2 0.391274 0.356140 0.980756
Si Si3 0.391511 0.444023 0.441958
Si Si4 0.889016 0.479057 0.300518
Si Si5 0.706707 0.145596 0.102277
Si Si6 0.392220 0.559793 0.323054
O O1 0.664927 0.250000 0.845424
O O2 0.687411 0.119666 0.927686
O O3 0.808301 0.135759 0.829393
O O4 0.623275 0.083082 0.820233
O O5 0.500000 0.393614 0.964154
O O6 0.394323 0.250000 0.988984
O O7 0.359677 0.394815 0.046992
O O8 0.351527 0.500000 0.500000
O O9 0.500000 0.402755 0.455993
O O10 0.318506 0.364267 0.421350
O O11 0.399087 0.513949 0.387752
O O12 0.815016 0.413320 0.336994
O O13 0.864773 0.483092 0.227853
O O14 0.000000 0.445661 0.312578
O O15 0.686090 0.250000 0.117703
O O16 0.500000 0.602097 0.306839
#
# Coordination Sequence:
#
# PCOD8301163 Si02
#       6
#    16  16  16  16  16  16
#     4  11  22  38  63  92 126 167 209 260 324 389
#     4   9  19  36  58  90 128 161 203 258 312 375
#     4  10  21  40  66  92 123 165 212 267 325 381
#     4  11  24  40  61  90 129 172 211 259 317 382
#     4  11  23  39  65  97 129 172 220 267 321 381
#     4  10  22  41  62  87 124 165 211 263 317 381
#
# _framework density 21.769147
#
# number of rings (size 3 to 8) (size 9 to 14) (size 15 to 20)
#    0.000    1.667    1.667    2.500    0.000    4.000 
#    0.000    5.000    0.000    9.000    0.000    0.000 
#    0.000    0.000    0.000    0.000    0.000    0.000 
#
# Total GULP energy -594874.092653 kJ/mol
# GULP energy per Si atom -12393.210264 kJ/mol
# Density = 2.171960 g / cm^3
# Si number density = 21.769147 Si / 1000 Ang^3
#
#
#
# Elastic Constant Matrix: (Units=GPa)
#
#
# Indices 1 2 3 4 5 6 
#
# 1 113.2220 29.9956 40.2337 0.0000 0.0000 0.0000
# 2 29.9956 70.6045 39.2247 0.0000 0.0000 0.0000
# 3 40.2337 39.2247 134.3964 0.0000 0.0000 0.0000
# 4 0.0000 0.0000 0.0000 27.7272 0.0000 0.0000
# 5 0.0000 0.0000 0.0000 0.0000 35.1669 0.0000
# 6 0.0000 0.0000 0.0000 0.0000 0.0000 22.5596
#
#
#
# Elastic Compliance Matrix: (Units=1/GPa)
#
#
# Indices 1 2 3 4 5 6 
#
# 1 0.010466 -0.003229 -0.002191 0.000000 0.000000 0.000000
# 2 -0.003229 0.017901 -0.004258 0.000000 0.000000 0.000000
# 3 -0.002191 -0.004258 0.009339 0.000000 0.000000 0.000000
# 4 0.000000 0.000000 0.000000 0.036066 0.000000 0.000000
# 5 0.000000 0.000000 0.000000 0.000000 0.028436 0.000000
# 6 0.000000 0.000000 0.000000 0.000000 0.000000 0.044327
#
#
# Mechanical properties :
#
#
# Convention : Reuss Voigt Hill
#
# Bulk Modulus (GPa) = 54.49443 59.68120 57.08781
# Shear Modulus (GPa) = 29.06856 31.00868 30.03862
#
# Velocity S-wave (km/s) = 3.65815 3.77826 3.71869
# Velocity P-wave (km/s) = 6.55210 6.81973 6.68725
#
# Compressibility (1/GPa) = 0.01835050
#
# Stress axis : x y z
#
# Youngs Moduli (GPa) = 95.54534 55.86353 107.07621
#
# Poissons Ratio (x) = 0.18041 0.23457
# Poissons Ratio (y) = 0.30856 0.45590
# Poissons Ratio (z) = 0.20931 0.23785
#
# Static dielectric constant tensor:
#      x y z
#    x 4.504480 0.000000 0.000000 
#    y 0.000000 3.428850 0.000000 
#    z 0.000000 0.000000 4.211930 
# 
# 
# High freq. dielectric constant tensor:
#      x y z
#    x 1.867400 0.000000 0.000000 
#    y 0.000000 1.812710 0.000000 
#    z 0.000000 0.000000 1.873020 
# 
# From -- ./inp_files/51832.got.cif
#   From: 2010.03.12/outbox.cif.g09.slc.cpg/sg74_26_cif.got.tgz:51832.got - 2010.04.16 15:46:19.
