data_PCOD8301930
_publ_section_title
;
Structure prediction by ZEFSAII (Michael W. Deem and Ramdas Pophale) SiO2 
 PCOD8301930
Probable space group: P 41
;
_chemical_formula_sum "Si O2"
_cell_formula_units_Z 24
_cell_length_a 13.184267
_cell_length_b 13.184267
_cell_length_c 6.445039
_cell_angle_alpha 90.000000
_cell_angle_beta 90.000000
_cell_angle_gamma 90.000000
_cell_volume 1120.308236
_symmetry_space_group_name_H-M "P 41"
_symmetry_group_IT_number 76
_symmetry_cell_setting 'tetragonal'
loop_
_space_group_symop_operation_xyz
x,y,z
-y,x,1/4+z
-x,-y,1/2+z
y,-x,3/4+z
loop_
_atom_site_type_symbol
_atom_site_label
_atom_site_fract_x
_atom_site_fract_y
_atom_site_fract_z
Si Si1 0.344651 0.021220 0.113560
Si Si2 0.680054 0.151012 0.894579
Si Si3 0.448948 0.915093 0.773366
Si Si4 0.511214 0.235780 0.622931
Si Si5 0.225083 0.686071 0.652796
Si Si6 0.609588 0.575528 0.580766
O O1 0.458328 0.012155 0.208171
O O2 0.278261 0.951505 0.274430
O O3 0.300880 0.134023 0.072058
O O4 0.355812 0.972862 0.885017
O O5 0.620317 0.217074 0.725831
O O6 0.596872 0.129275 0.066538
O O7 0.771865 0.217115 0.995509
O O8 0.501190 0.830383 0.915444
O O9 0.417609 0.213900 0.774274
O O10 0.515316 0.350741 0.535670
O O11 0.329054 0.682479 0.782702
O O12 0.495369 0.611913 0.627208
#
# Coordination Sequence:
#
# PCOD8301930 Si02
#       6
#     4   4   4   4   4   4
#     4  11  22  37  64  87 127 173 208 276 329 373
#     4  11  23  40  60  93 129 166 220 273 323 397
#     4  11  19  40  61  92 123 164 216 264 324 379
#     4  11  22  38  62  87 127 176 210 266 320 383
#     4  12  23  40  60  91 130 174 223 261 331 393
#     4  12  23  37  55  84 132 181 227 256 303 385
#
# _framework density 21.422677
#
# number of rings (size 3 to 8) (size 9 to 14) (size 15 to 20)
#    0.000    0.667    5.000    5.000    0.000    0.000 
#    0.000    0.000    0.000    0.000    0.000    0.000 
#    5.000    0.667    0.000    0.000    0.000    0.000 
#
# Total GULP energy -297482.673889 kJ/mol
# GULP energy per Si atom -12395.111412 kJ/mol
# Density = 2.137392 g / cm^3
# Si number density = 21.422677 Si / 1000 Ang^3
#
#
#
# Elastic Constant Matrix: (Units=GPa)
#
#
# Indices 1 2 3 4 5 6 
#
# 1 94.2034 24.2398 32.8110 0.0000 0.0000 0.2763
# 2 24.2398 94.2034 32.8110 0.0000 0.0000 -0.2763
# 3 32.8110 32.8110 92.8145 0.0000 0.0000 0.0000
# 4 0.0000 0.0000 0.0000 40.0208 0.0000 0.0000
# 5 0.0000 0.0000 0.0000 0.0000 40.0208 0.0000
# 6 0.2763 -0.2763 0.0000 0.0000 0.0000 18.3922
#
#
#
# Elastic Compliance Matrix: (Units=1/GPa)
#
#
# Indices 1 2 3 4 5 6 
#
# 1 0.012397 -0.001898 -0.003712 0.000000 0.000000 -0.000215
# 2 -0.001898 0.012397 -0.003712 0.000000 0.000000 0.000215
# 3 -0.003712 -0.003712 0.013398 0.000000 0.000000 0.000000
# 4 0.000000 0.000000 0.000000 0.024987 0.000000 0.000000
# 5 0.000000 0.000000 0.000000 0.000000 0.024987 0.000000
# 6 -0.000215 0.000215 0.000000 0.000000 0.000000 0.054377
#
#
# Mechanical properties :
#
#
# Convention : Reuss Voigt Hill
#
# Bulk Modulus (GPa) = 51.14974 51.21607 51.18290
# Shear Modulus (GPa) = 29.81468 32.44407 31.12937
#
# Velocity S-wave (km/s) = 3.73464 3.89585 3.81610
# Velocity P-wave (km/s) = 6.52112 6.64802 6.58487
#
# Compressibility (1/GPa) = 0.01955044
#
# Stress axis : x y z
#
# Youngs Moduli (GPa) = 80.66442 80.66442 74.63596
#
# Poissons Ratio (x) = 0.15309 0.27702
# Poissons Ratio (y) = 0.15309 0.27702
# Poissons Ratio (z) = 0.29939 0.29939
#
# Static dielectric constant tensor:
#      x y z
#    x 3.766220 0.000000 0.000000 
#    y 0.000000 3.766220 0.000000 
#    z 0.000000 0.000000 4.114340 
# 
# 
# High freq. dielectric constant tensor:
#      x y z
#    x 1.808540 0.000000 0.000000 
#    y 0.000000 1.808540 0.000000 
#    z 0.000000 0.000000 1.865980 
# 
# From -- ./inp_files/175.got.cif
#   From: 2010.03.12/outbox.cif.g09.slc.cpg/sg76_cif.got.tgz:175.got - 2010.04.16 16:34:25.
