data_PCOD8301679
_publ_section_title
;
Structure prediction by ZEFSAII (Michael W. Deem and Ramdas Pophale) SiO2 
 PCOD8301679
Probable space group: I M M A
;
_chemical_formula_sum "Si O2"
_cell_formula_units_Z 64
_cell_length_a 24.978070
_cell_length_b 24.647006
_cell_length_c 4.898307
_cell_angle_alpha 90.000000
_cell_angle_beta 90.000000
_cell_angle_gamma 90.000000
_cell_volume 3015.567472
_symmetry_space_group_name_H-M "I M M A"
_symmetry_group_IT_number 74
_symmetry_cell_setting 'orthorhombic'
loop_
_space_group_symop_operation_xyz
x,y,z
-x,1/2-y,z
x,-y,-z
-x,1/2+y,-z
-x,-y,-z
x,1/2+y,-z
-x,y,z
x,1/2-y,z
1/2+x,1/2+y,1/2+z
1/2-x,-y,1/2+z
1/2+x,1/2-y,1/2-z
1/2-x,y,1/2-z
1/2-x,1/2-y,1/2-z
1/2+x,y,1/2-z
1/2-x,1/2+y,1/2+z
1/2+x,-y,1/2+z
loop_
_atom_site_type_symbol
_atom_site_label
_atom_site_fract_x
_atom_site_fract_y
_atom_site_fract_z
Si Si1 0.062855 0.635360 0.593362
Si Si2 0.113786 0.187582 0.912169
Si Si3 0.714396 0.880488 0.505848
Si Si4 0.367416 0.463847 0.255379
O O1 0.076849 0.651888 0.285996
O O2 0.086040 0.576196 0.657328
O O3 0.000000 0.633807 0.635712
O O4 0.089454 0.680563 0.787037
O O5 0.113178 0.250000 0.825076
O O6 0.174437 0.166116 0.901362
O O7 0.750000 0.855565 0.750000
O O8 0.683767 0.932342 0.626893
O O9 0.750000 0.899502 0.250000
O O10 0.391541 0.500000 0.500000
O O11 0.348466 0.500000 0.000000
#
# Coordination Sequence:
#
# PCOD8301679 Si02
#       4
#    16  16  16  16
#     4  11  24  42  64  92 125 160 203 253 303 362
#     4  11  24  42  64  92 125 160 203 253 303 362
#     4  11  23  41  63  90 123 160 204 252 302 360
#     4  11  23  41  63  90 123 160 204 252 302 360
#
# _framework density 21.223201
#
# number of rings (size 3 to 8) (size 9 to 14) (size 15 to 20)
#    0.000    1.000    0.000    9.000    0.000    7.000 
#    0.000    2.500    0.000    0.000    0.000    0.000 
#    0.000    0.000    0.000    0.000    0.000    0.000 
#
# Total GULP energy -397002.910513 kJ/mol
# GULP energy per Si atom -12406.340954 kJ/mol
# Density = 2.117490 g / cm^3
# Si number density = 21.223201 Si / 1000 Ang^3
#
#
#
# Elastic Constant Matrix: (Units=GPa)
#
#
# Indices 1 2 3 4 5 6 
#
# 1 120.9606 55.9658 24.3568 0.0000 0.0000 0.0000
# 2 55.9658 111.6404 32.2140 0.0000 0.0000 0.0000
# 3 24.3568 32.2140 101.2988 0.0000 0.0000 0.0000
# 4 0.0000 0.0000 0.0000 38.1813 0.0000 0.0000
# 5 0.0000 0.0000 0.0000 0.0000 36.3637 0.0000
# 6 0.0000 0.0000 0.0000 0.0000 0.0000 7.9677
#
#
#
# Elastic Compliance Matrix: (Units=1/GPa)
#
#
# Indices 1 2 3 4 5 6 
#
# 1 0.010849 -0.005159 -0.000968 0.000000 0.000000 0.000000
# 2 -0.005159 0.012316 -0.002676 0.000000 0.000000 0.000000
# 3 -0.000968 -0.002676 0.010956 0.000000 0.000000 0.000000
# 4 0.000000 0.000000 0.000000 0.026191 0.000000 0.000000
# 5 0.000000 0.000000 0.000000 0.000000 0.027500 0.000000
# 6 0.000000 0.000000 0.000000 0.000000 0.000000 0.125507
#
#
# Mechanical properties :
#
#
# Convention : Reuss Voigt Hill
#
# Bulk Modulus (GPa) = 60.55494 62.10813 61.33153
# Shear Modulus (GPa) = 21.14792 31.26009 26.20401
#
# Velocity S-wave (km/s) = 3.16009 3.84203 3.51762
# Velocity P-wave (km/s) = 6.47373 7.00067 6.74235
#
# Compressibility (1/GPa) = 0.01651393
#
# Stress axis : x y z
#
# Youngs Moduli (GPa) = 92.17246 81.19536 91.27832
#
# Poissons Ratio (x) = 0.41893 0.08835
# Poissons Ratio (y) = 0.47556 0.24426
# Poissons Ratio (z) = 0.08921 0.21728
#
# Static dielectric constant tensor:
#      x y z
#    x 3.740940 0.000000 0.000000 
#    y 0.000000 3.723850 0.000000 
#    z 0.000000 0.000000 4.124120 
# 
# 
# High freq. dielectric constant tensor:
#      x y z
#    x 1.829970 0.000000 0.000000 
#    y 0.000000 1.826940 0.000000 
#    z 0.000000 0.000000 1.857490 
# 
# From -- ./inp_files/3628.got.cif
#   From: 2010.03.12/outbox.cif.g09.slc.cpg/sg74_2_cif.got.tgz:3628.got - 2010.04.16 15:46:19.
