data_PCOD8301090
_publ_section_title
;
Structure prediction by ZEFSAII (Michael W. Deem and Ramdas Pophale) SiO2 
 PCOD8301090
Probable space group: I M M A
;
_chemical_formula_sum "Si O2"
_cell_formula_units_Z 64
_cell_length_a 20.788445
_cell_length_b 15.778880
_cell_length_c 9.528028
_cell_angle_alpha 90.000000
_cell_angle_beta 90.000000
_cell_angle_gamma 90.000000
_cell_volume 3125.368300
_symmetry_space_group_name_H-M "I M M A"
_symmetry_group_IT_number 74
_symmetry_cell_setting 'orthorhombic'
loop_
_space_group_symop_operation_xyz
x,y,z
-x,1/2-y,z
x,-y,-z
-x,1/2+y,-z
-x,-y,-z
x,1/2+y,-z
-x,y,z
x,1/2-y,z
1/2+x,1/2+y,1/2+z
1/2-x,-y,1/2+z
1/2+x,1/2-y,1/2-z
1/2-x,y,1/2-z
1/2-x,1/2-y,1/2-z
1/2+x,y,1/2-z
1/2-x,1/2+y,1/2+z
1/2+x,-y,1/2+z
loop_
_atom_site_type_symbol
_atom_site_label
_atom_site_fract_x
_atom_site_fract_y
_atom_site_fract_z
Si Si1 0.678111 0.348552 0.375034
Si Si2 0.188828 0.410014 0.428357
Si Si3 0.429514 0.650681 0.103486
Si Si4 0.571938 0.850341 0.413515
O O1 0.666940 0.250000 0.332276
O O2 0.746659 0.355193 0.455901
O O3 0.677403 0.409850 0.239359
O O4 0.622937 0.386423 0.475389
O O5 0.200316 0.500000 0.500000
O O6 0.125067 0.370581 0.493505
O O7 0.500000 0.615972 0.054008
O O8 0.434835 0.750000 0.119439
O O9 0.413149 0.613050 0.257917
O O10 0.500000 0.876722 0.460515
O O11 0.579456 0.750000 0.411977
#
# Coordination Sequence:
#
# PCOD8301090 Si02
#       4
#    16  16  16  16
#     4  10  21  39  60  81 110 149 192 230 270 331
#     4  11  23  36  53  79 113 146 181 232 284 331
#     4   9  18  35  58  82 109 143 185 229 274 331
#     4   8  16  32  56  84 107 132 176 230 273 315
#
# _framework density 20.477585999999999
#
# number of rings (size 3 to 8) (size 9 to 14) (size 15 to 20)
#    0.000    2.500    0.000    4.500    0.000    6.500 
#    0.000    6.250    0.000    3.750    0.000    0.000 
#    0.000    0.000    0.000    0.000    0.000    0.000 
#
# Total GULP energy -396509.913707 kJ/mol
# GULP energy per Si atom -12390.934803 kJ/mol
# Density = 2.043098 g / cm^3
# Si number density = 20.477586 Si / 1000 Ang^3
#
#
#
# Elastic Constant Matrix: (Units=GPa)
#
#
# Indices 1 2 3 4 5 6 
#
# 1 188.2497 7.8848 101.3158 0.0000 0.0000 0.0000
# 2 7.8848 41.9532 26.6720 0.0000 0.0000 0.0000
# 3 101.3158 26.6720 116.7962 0.0000 0.0000 0.0000
# 4 0.0000 0.0000 0.0000-1668.7703 0.0000 0.0000
# 5 0.0000 0.0000 0.0000 0.0000 52.1609 0.0000
# 6 0.0000 0.0000 0.0000 0.0000 0.0000 0.8136
#
#
#
# Elastic Compliance Matrix: (Units=1/GPa)
#
#
# Indices 1 2 3 4 5 6 
#
# 1 0.010652 0.004530 -0.010275 0.000000 0.000000 0.000000
# 2 0.004530 0.029811 -0.010738 0.000000 0.000000 0.000000
# 3 -0.010275 -0.010738 0.019927 0.000000 0.000000 0.000000
# 4 0.000000 0.000000 0.000000 -0.000599 0.000000 0.000000
# 5 0.000000 0.000000 0.000000 0.000000 0.019171 0.000000
# 6 0.000000 0.000000 0.000000 0.000000 0.000000 1.229164
#
#
# Mechanical properties :
#
#
# Convention : Reuss Voigt Hill
#
# Bulk Modulus (GPa) = 36.46177 68.74937 52.60557
# Shear Modulus (GPa) = 3.70306 -309.08405 -152.69050
#
# Velocity S-wave (km/s) = 1.34621 -12.29900 -8.64445
# Velocity P-wave (km/s) = 4.50119 12.96308 8.59595
#
# Compressibility (1/GPa) = 0.02742599
#
# Stress axis : x y z
#
# Youngs Moduli (GPa) = 93.87591 33.54448 50.18267
#
# Poissons Ratio (x) = -0.15197 0.51563
# Poissons Ratio (y) = -0.42529 0.53885
# Poissons Ratio (z) = 0.96458 0.36019
#
# Static dielectric constant tensor:
#      x y z
#    x 4.405150 0.000000 0.000000 
#    y 0.000000 3.331160 0.000000 
#    z 0.000000 0.000000 3.989090 
# 
# 
# High freq. dielectric constant tensor:
#      x y z
#    x 1.820920 0.000000 0.000000 
#    y 0.000000 1.762940 0.000000 
#    z 0.000000 0.000000 1.796610 
# 
# From -- ./inp_files/8788.got.cif
#   From: 2010.03.12/outbox.cif.g09.slc.cpg/sg74_5_cif.got.tgz:8788.got - 2010.04.16 15:46:19.
