data_PCOD8301147
_publ_section_title
;
Structure prediction by ZEFSAII (Michael W. Deem and Ramdas Pophale) SiO2 
 PCOD8301147
Probable space group: I M M A
;
_chemical_formula_sum "Si O2"
_cell_formula_units_Z 96
_cell_length_a 24.270451
_cell_length_b 8.942530
_cell_length_c 22.479000
_cell_angle_alpha 90.000000
_cell_angle_beta 90.000000
_cell_angle_gamma 90.000000
_cell_volume 4878.824990
_symmetry_space_group_name_H-M "I M M A"
_symmetry_group_IT_number 74
_symmetry_cell_setting 'orthorhombic'
loop_
_space_group_symop_operation_xyz
x,y,z
-x,1/2-y,z
x,-y,-z
-x,1/2+y,-z
-x,-y,-z
x,1/2+y,-z
-x,y,z
x,1/2-y,z
1/2+x,1/2+y,1/2+z
1/2-x,-y,1/2+z
1/2+x,1/2-y,1/2-z
1/2-x,y,1/2-z
1/2-x,1/2-y,1/2-z
1/2+x,y,1/2-z
1/2-x,1/2+y,1/2+z
1/2+x,-y,1/2+z
loop_
_atom_site_type_symbol
_atom_site_label
_atom_site_fract_x
_atom_site_fract_y
_atom_site_fract_z
Si Si1 0.188920 0.580845 0.274075
Si Si2 0.910506 0.573090 0.441220
Si Si3 0.695210 0.426305 0.103426
Si Si4 0.617990 0.423651 0.323855
Si Si5 0.500000 0.920740 0.720912
Si Si6 0.500000 0.074348 0.847589
Si Si7 0.184606 0.424962 0.061580
O O1 0.172886 0.750000 0.293392
O O2 0.250000 0.575319 0.250000
O O3 0.184120 0.468746 0.328669
O O4 0.147357 0.527317 0.223900
O O5 0.937490 0.500000 0.500000
O O6 0.910711 0.750000 0.448597
O O7 0.848459 0.512657 0.436920
O O8 0.945729 0.522256 0.383703
O O9 0.687761 0.250000 0.095584
O O10 0.755661 0.481529 0.083634
O O11 0.632211 0.250000 0.311045
O O12 0.552941 0.456914 0.319747
O O13 0.638989 0.469057 0.389347
O O14 0.500000 0.750000 0.741203
O O15 0.500000 0.010793 0.781836
O O16 0.500000 0.250000 0.841160
O O17 0.186320 0.250000 0.050681
O O18 0.167273 0.500000 0.000000
#
# Coordination Sequence:
#
# PCOD8301147 Si02
#       7
#    16  16  16  16   8   8  16
#     4  11  22  35  56  88 120 152 190 239 290 343
#     4  11  23  39  58  83 116 156 199 245 287 340
#     4  11  22  37  58  85 117 157 195 237 290 348
#     4  10  21  40  61  86 117 153 193 237 289 347
#     4  10  22  39  64  89 112 146 193 242 289 348
#     4  10  23  41  59  81 115 152 192 240 293 344
#     4  10  22  38  58  82 114 151 189 233 286 342
#
# _framework density 19.676869
#
# number of rings (size 3 to 8) (size 9 to 14) (size 15 to 20)
#    0.000    1.500    1.667    3.250    0.000    8.667 
#    0.000    0.417    0.000    0.000    0.000    0.000 
#    0.000    0.000    0.000    0.000    0.000    0.000 
#
# Total GULP energy -595366.821826 kJ/mol
# GULP energy per Si atom -12403.475455 kJ/mol
# Density = 1.963208 g / cm^3
# Si number density = 19.676869 Si / 1000 Ang^3
#
#
#
# Elastic Constant Matrix: (Units=GPa)
#
#
# Indices 1 2 3 4 5 6 
#
# 1 135.4514 36.2473 58.5791 0.0000 0.0000 0.0000
# 2 36.2473 55.6991 32.6805 0.0000 0.0000 0.0000
# 3 58.5791 32.6805 133.5313 0.0000 0.0000 0.0000
# 4 0.0000 0.0000 0.0000 34.3324 0.0000 0.0000
# 5 0.0000 0.0000 0.0000 0.0000 20.9549 0.0000
# 6 0.0000 0.0000 0.0000 0.0000 0.0000 32.9913
#
#
#
# Elastic Compliance Matrix: (Units=1/GPa)
#
#
# Indices 1 2 3 4 5 6 
#
# 1 0.010031 -0.004608 -0.003273 0.000000 0.000000 0.000000
# 2 -0.004608 0.023080 -0.003627 0.000000 0.000000 0.000000
# 3 -0.003273 -0.003627 0.009812 0.000000 0.000000 0.000000
# 4 0.000000 0.000000 0.000000 0.029127 0.000000 0.000000
# 5 0.000000 0.000000 0.000000 0.000000 0.047722 0.000000
# 6 0.000000 0.000000 0.000000 0.000000 0.000000 0.030311
#
#
# Mechanical properties :
#
#
# Convention : Reuss Voigt Hill
#
# Bulk Modulus (GPa) = 50.23066 64.41062 57.32064
# Shear Modulus (GPa) = 27.81863 30.80071 29.30967
#
# Velocity S-wave (km/s) = 3.76410 3.96071 3.86366
# Velocity P-wave (km/s) = 6.66891 7.32950 7.00700
#
# Compressibility (1/GPa) = 0.01990816
#
# Stress axis : x y z
#
# Youngs Moduli (GPa) = 99.68889 43.32679 101.91135
#
# Poissons Ratio (x) = 0.19964 0.33355
# Poissons Ratio (y) = 0.45933 0.36967
# Poissons Ratio (z) = 0.32627 0.15716
#
# Static dielectric constant tensor:
#      x y z
#    x 3.757800 0.000000 0.000000 
#    y 0.000000 3.582630 0.000000 
#    z 0.000000 0.000000 3.615650 
# 
# 
# High freq. dielectric constant tensor:
#      x y z
#    x 1.770670 0.000000 0.000000 
#    y 0.000000 1.765840 0.000000 
#    z 0.000000 0.000000 1.770170 
# 
# From -- ./inp_files/61955.got.cif
#   From: 2010.03.12/outbox.cif.g09.slc.cpg/sg74_31_cif.got.tgz:61955.got - 2010.04.16 15:46:19.
