data_PCOD8301955
_publ_section_title
;
Structure prediction by ZEFSAII (Michael W. Deem and Ramdas Pophale) SiO2 
 PCOD8301955
Probable space group: P 41
;
_chemical_formula_sum "Si O2"
_cell_formula_units_Z 20
_cell_length_a 10.377602
_cell_length_b 10.377602
_cell_length_c 8.413608
_cell_angle_alpha 90.000000
_cell_angle_beta 90.000000
_cell_angle_gamma 90.000000
_cell_volume 906.100344
_symmetry_space_group_name_H-M "P 41"
_symmetry_group_IT_number 76
_symmetry_cell_setting 'tetragonal'
loop_
_space_group_symop_operation_xyz
x,y,z
-y,x,1/4+z
-x,-y,1/2+z
y,-x,3/4+z
loop_
_atom_site_type_symbol
_atom_site_label
_atom_site_fract_x
_atom_site_fract_y
_atom_site_fract_z
Si Si1 0.935123 0.151744 0.539050
Si Si2 0.238071 0.786247 0.754063
Si Si3 0.359207 0.047337 0.786768
Si Si4 0.913434 0.413591 0.695712
Si Si5 0.646827 0.518119 0.590253
O O1 0.811791 0.189255 0.433156
O O2 0.976221 0.281359 0.631088
O O3 0.047115 0.100717 0.423012
O O4 0.126114 0.749826 0.630688
O O5 0.298360 0.921749 0.702600
O O6 0.346332 0.674645 0.750162
O O7 0.412145 0.122182 0.632927
O O8 0.472671 0.015473 0.910819
O O9 0.779965 0.442936 0.609578
O O10 0.548501 0.425104 0.502394
#
# Coordination Sequence:
#
# PCOD8301955 Si02
#       5
#     4   4   4   4   4
#     4  12  27  46  73 106 147 185 236 298 362 433
#     4  11  24  46  70 101 144 181 233 297 351 428
#     4  11  26  46  73 103 141 189 236 295 357 429
#     4  11  27  47  73 102 141 189 240 290 364 422
#     4  11  26  47  69 102 137 186 237 296 346 416
#
# _framework density 22.072611999999999
#
# number of rings (size 3 to 8) (size 9 to 14) (size 15 to 20)
#    0.000    0.800    4.000    1.200   14.000    0.000 
#    0.000    0.000    0.000    0.000    0.000    0.000 
#    0.000    0.000    0.000    0.000    0.000    0.000 
#
# Total GULP energy -248022.325243 kJ/mol
# GULP energy per Si atom -12401.116262 kJ/mol
# Density = 2.202237 g / cm^3
# Si number density = 22.072612 Si / 1000 Ang^3
#
#
#
# Elastic Constant Matrix: (Units=GPa)
#
#
# Indices 1 2 3 4 5 6 
#
# 1 97.1042 44.2308 40.7225 0.0000 0.0000 6.4777
# 2 44.2308 97.1042 40.7225 0.0000 0.0000 -6.4777
# 3 40.7225 40.7225 117.0793 0.0000 0.0000 0.0000
# 4 0.0000 0.0000 0.0000 41.8424 0.0000 0.0000
# 5 0.0000 0.0000 0.0000 0.0000 41.8424 0.0000
# 6 6.4777 -6.4777 0.0000 0.0000 0.0000 20.8943
#
#
#
# Elastic Compliance Matrix: (Units=1/GPa)
#
#
# Indices 1 2 3 4 5 6 
#
# 1 0.014658 -0.005809 -0.003078 0.000000 0.000000 -0.006346
# 2 -0.005809 0.014658 -0.003078 0.000000 0.000000 0.006346
# 3 -0.003078 -0.003078 0.010682 0.000000 0.000000 0.000000
# 4 0.000000 0.000000 0.000000 0.023899 0.000000 0.000000
# 5 0.000000 0.000000 0.000000 0.000000 0.023899 0.000000
# 6 -0.006346 0.006346 0.000000 0.000000 0.000000 0.051794
#
#
# Mechanical properties :
#
#
# Convention : Reuss Voigt Hill
#
# Bulk Modulus (GPa) = 62.23202 62.51545 62.37373
# Shear Modulus (GPa) = 29.60704 33.28994 31.44849
#
# Velocity S-wave (km/s) = 3.66641 3.88777 3.77871
# Velocity P-wave (km/s) = 6.79551 6.96686 6.88172
#
# Compressibility (1/GPa) = 0.01606890
#
# Stress axis : x y z
#
# Youngs Moduli (GPa) = 68.21993 68.21993 93.61282
#
# Poissons Ratio (x) = 0.39632 0.28813
# Poissons Ratio (y) = 0.39632 0.28813
# Poissons Ratio (z) = 0.20997 0.20997
#
# Static dielectric constant tensor:
#      x y z
#    x 4.026690 0.000000 0.000000 
#    y 0.000000 4.026690 0.000000 
#    z 0.000000 0.000000 3.861390 
# 
# 
# High freq. dielectric constant tensor:
#      x y z
#    x 1.872940 0.000000 0.000000 
#    y 0.000000 1.872940 0.000000 
#    z 0.000000 0.000000 1.870380 
# 
# From -- ./inp_files/434.got.cif
#   From: 2010.03.12/outbox.cif.g09.slc.cpg/sg76_cif.got.tgz:434.got - 2010.04.16 16:34:25.
