data_PCOD8301571
_publ_section_title
;
Structure prediction by ZEFSAII (Michael W. Deem and Ramdas Pophale) SiO2 
 PCOD8301571
Probable space group: I M M A
;
_chemical_formula_sum "Si O2"
_cell_formula_units_Z 88
_cell_length_a 14.356357
_cell_length_b 17.961127
_cell_length_c 17.742465
_cell_angle_alpha 90.000000
_cell_angle_beta 90.000000
_cell_angle_gamma 90.000000
_cell_volume 4575.007289
_symmetry_space_group_name_H-M "I M M A"
_symmetry_group_IT_number 74
_symmetry_cell_setting 'orthorhombic'
loop_
_space_group_symop_operation_xyz
x,y,z
-x,1/2-y,z
x,-y,-z
-x,1/2+y,-z
-x,-y,-z
x,1/2+y,-z
-x,y,z
x,1/2-y,z
1/2+x,1/2+y,1/2+z
1/2-x,-y,1/2+z
1/2+x,1/2-y,1/2-z
1/2-x,y,1/2-z
1/2-x,1/2-y,1/2-z
1/2+x,y,1/2-z
1/2-x,1/2+y,1/2+z
1/2+x,-y,1/2+z
loop_
_atom_site_type_symbol
_atom_site_label
_atom_site_fract_x
_atom_site_fract_y
_atom_site_fract_z
Si Si1 0.500000 0.332734 0.755154
Si Si2 0.000000 0.562657 0.858646
Si Si3 0.336368 0.081360 0.976737
Si Si4 0.500000 0.837019 0.951896
Si Si5 0.500000 0.442857 0.191464
Si Si6 0.160958 0.938247 0.306126
Si Si7 0.861359 0.084875 0.020273
Si Si8 0.500000 0.389463 0.599773
O O1 0.500000 0.250000 0.788959
O O2 0.595694 0.371322 0.779826
O O3 0.500000 0.328931 0.665020
O O4 0.000000 0.593809 0.774045
O O5 0.909102 0.597957 0.898870
O O6 0.000000 0.472068 0.860982
O O7 0.303265 0.081499 0.889773
O O8 0.412909 0.142714 0.995242
O O9 0.247061 0.103876 0.026747
O O10 0.375162 0.000000 0.000000
O O11 0.500000 0.750000 0.933725
O O12 0.500000 0.880523 0.872913
O O13 0.595865 0.489215 0.185981
O O14 0.250000 0.949979 0.250000
O O15 0.910486 0.128501 0.952091
O O16 0.879372 0.000000 0.000000
#
# Coordination Sequence:
#
# PCOD8301571 Si02
#       8
#     8   8  16   8   8  16  16   8
#     4  11  23  37  53  81 126 166 196 238 300 374
#     4   9  16  31  60  90 117 140 184 253 309 346
#     4  11  21  37  62  88 117 154 205 251 289 351
#     4  12  26  44  61  84 123 172 211 251 302 354
#     4  11  22  37  60  91 119 154 204 251 303 355
#     4  11  23  37  62  91 121 155 202 253 306 354
#     4   8  17  29  56  91 114 142 188 247 299 353
#     4   9  14  32  53  85 121 148 186 233 301 363
#
# _framework density 19.234943000000001
#
# number of rings (size 3 to 8) (size 9 to 14) (size 15 to 20)
#    0.000    1.818    3.636    3.545    5.091    1.818 
#    0.000    2.727    0.000    7.091    0.000    0.000 
#    0.000    0.000    0.000    0.000    0.000    0.000 
#
# Total GULP energy -545315.461371 kJ/mol
# GULP energy per Si atom -12393.533213 kJ/mol
# Density = 1.919116 g / cm^3
# Si number density = 19.234943 Si / 1000 Ang^3
#
#
#
# Elastic Constant Matrix: (Units=GPa)
#
#
# Indices 1 2 3 4 5 6 
#
# 1 133.3001 41.9975 44.2990 0.0000 0.0000 0.0000
# 2 41.9975 81.8561 30.0434 0.0000 0.0000 0.0000
# 3 44.2990 30.0434 136.2082 0.0000 0.0000 0.0000
# 4 0.0000 0.0000 0.0000 17.0697 0.0000 0.0000
# 5 0.0000 0.0000 0.0000 0.0000 21.1066 0.0000
# 6 0.0000 0.0000 0.0000 0.0000 0.0000 3.2465
#
#
#
# Elastic Compliance Matrix: (Units=1/GPa)
#
#
# Indices 1 2 3 4 5 6 
#
# 1 0.009516 -0.004076 -0.002196 0.000000 0.000000 0.000000
# 2 -0.004076 0.015039 -0.001991 0.000000 0.000000 0.000000
# 3 -0.002196 -0.001991 0.008495 0.000000 0.000000 0.000000
# 4 0.000000 0.000000 0.000000 0.058583 0.000000 0.000000
# 5 0.000000 0.000000 0.000000 0.000000 0.047378 0.000000
# 6 0.000000 0.000000 0.000000 0.000000 0.000000 0.308019
#
#
# Mechanical properties :
#
#
# Convention : Reuss Voigt Hill
#
# Bulk Modulus (GPa) = 60.52208 64.89379 62.70794
# Shear Modulus (GPa) = 10.65949 23.95287 17.30618
#
# Velocity S-wave (km/s) = 2.35664 3.53268 3.00280
# Velocity P-wave (km/s) = 6.24003 7.10285 6.68537
#
# Compressibility (1/GPa) = 0.01652290
#
# Stress axis : x y z
#
# Youngs Moduli (GPa) = 105.08761 66.49424 117.71564
#
# Poissons Ratio (x) = 0.27106 0.25847
# Poissons Ratio (y) = 0.42838 0.23441
# Poissons Ratio (z) = 0.23074 0.13241
#
# Static dielectric constant tensor:
#      x y z
#    x 0.238160 0.000000 0.000000 
#    y 0.000000 2.998930 0.000000 
#    z 0.000000 0.000000 3.733900 
# 
# 
# High freq. dielectric constant tensor:
#      x y z
#    x 1.760870 0.000000 0.000000 
#    y 0.000000 1.686890 0.000000 
#    z 0.000000 0.000000 1.763760 
# 
# From -- ./inp_files/42865.got.cif
#   From: 2010.03.12/outbox.cif.g09.slc.cpg/sg74_22_cif.got.tgz:42865.got - 2010.04.16 15:46:19.
