data_PCOD8301367
_publ_section_title
;
Structure prediction by ZEFSAII (Michael W. Deem and Ramdas Pophale) SiO2 
 PCOD8301367
Probable space group: I M M A
;
_chemical_formula_sum "Si O2"
_cell_formula_units_Z 96
_cell_length_a 20.274889
_cell_length_b 16.035994
_cell_length_c 14.384578
_cell_angle_alpha 90.000000
_cell_angle_beta 90.000000
_cell_angle_gamma 90.000000
_cell_volume 4676.829052
_symmetry_space_group_name_H-M "I M M A"
_symmetry_group_IT_number 74
_symmetry_cell_setting 'orthorhombic'
loop_
_space_group_symop_operation_xyz
x,y,z
-x,1/2-y,z
x,-y,-z
-x,1/2+y,-z
-x,-y,-z
x,1/2+y,-z
-x,y,z
x,1/2-y,z
1/2+x,1/2+y,1/2+z
1/2-x,-y,1/2+z
1/2+x,1/2-y,1/2-z
1/2-x,y,1/2-z
1/2-x,1/2-y,1/2-z
1/2+x,y,1/2-z
1/2-x,1/2+y,1/2+z
1/2+x,-y,1/2+z
loop_
_atom_site_type_symbol
_atom_site_label
_atom_site_fract_x
_atom_site_fract_y
_atom_site_fract_z
Si Si1 0.071772 0.566499 0.417669
Si Si2 0.142083 0.750000 0.794803
Si Si3 0.573674 0.944823 0.291008
Si Si4 0.340591 0.652158 0.415090
Si Si5 0.293843 0.598761 0.022557
Si Si6 0.784377 0.250000 0.384461
Si Si7 0.076696 0.108304 0.095077
O O1 0.070750 0.500000 0.500000
O O2 0.082212 0.525046 0.315725
O O3 0.135513 0.625316 0.432242
O O4 0.000000 0.613587 0.419023
O O5 0.152462 0.750000 0.683787
O O6 0.214265 0.750000 0.836673
O O7 0.100198 0.829321 0.825323
O O8 0.500000 0.911337 0.306882
O O9 0.623074 0.869893 0.318448
O O10 0.589438 0.018208 0.362351
O O11 0.334900 0.750000 0.428706
O O12 0.267351 0.613397 0.408467
O O13 0.381132 0.615487 0.501800
O O14 0.295179 0.500000 0.000000
O O15 0.285607 0.662090 0.937683
O O16 0.000000 0.123771 0.071234
#
# Coordination Sequence:
#
# PCOD8301367 Si02
#       7
#    16   8  16  16  16   8  16
#     4   9  21  43  66  90 121 162 212 271 325 378
#     4  11  23  38  64  91 138 168 206 267 325 381
#     4  10  23  40  63  93 125 166 218 264 320 388
#     4  12  23  41  61  91 135 169 211 264 317 392
#     4  11  22  41  68  93 127 170 212 266 327 385
#     4  11  24  44  60  98 134 166 218 270 318 383
#     4  11  21  38  64  96 130 168 212 262 319 388
#
# _framework density 20.526729
#
# number of rings (size 3 to 8) (size 9 to 14) (size 15 to 20)
#    0.000    1.333    3.333    2.250    4.667    3.000 
#    1.500    2.083    0.000    0.000    0.000    0.000 
#    0.000    0.000    0.000    0.000    0.000    0.000 
#
# Total GULP energy -594777.887626 kJ/mol
# GULP energy per Si atom -12391.205992 kJ/mol
# Density = 2.048001 g / cm^3
# Si number density = 20.526729 Si / 1000 Ang^3
#
#
#
# Elastic Constant Matrix: (Units=GPa)
#
#
# Indices 1 2 3 4 5 6 
#
# 1 159.9671 37.8089 44.5307 0.0000 0.0000 0.0000
# 2 37.8089 75.3907 36.4485 0.0000 0.0000 0.0000
# 3 44.5307 36.4485 91.7500 0.0000 0.0000 0.0000
# 4 0.0000 0.0000 0.0000 13.1797 0.0000 0.0000
# 5 0.0000 0.0000 0.0000 0.0000 30.7565 0.0000
# 6 0.0000 0.0000 0.0000 0.0000 0.0000 31.2648
#
#
#
# Elastic Compliance Matrix: (Units=1/GPa)
#
#
# Indices 1 2 3 4 5 6 
#
# 1 0.007592 -0.002508 -0.002689 0.000000 0.000000 0.000000
# 2 -0.002508 0.017246 -0.005634 0.000000 0.000000 0.000000
# 3 -0.002689 -0.005634 0.014442 0.000000 0.000000 0.000000
# 4 0.000000 0.000000 0.000000 0.075874 0.000000 0.000000
# 5 0.000000 0.000000 0.000000 0.000000 0.032513 0.000000
# 6 0.000000 0.000000 0.000000 0.000000 0.000000 0.031985
#
#
# Mechanical properties :
#
#
# Convention : Reuss Voigt Hill
#
# Bulk Modulus (GPa) = 56.75485 62.74266 59.74875
# Shear Modulus (GPa) = 24.13283 28.92820 26.53051
#
# Velocity S-wave (km/s) = 3.43254 3.75813 3.59902
# Velocity P-wave (km/s) = 6.58931 7.03307 6.81480
#
# Compressibility (1/GPa) = 0.01761964
#
# Stress axis : x y z
#
# Youngs Moduli (GPa) = 131.70907 57.98569 69.24121
#
# Poissons Ratio (x) = 0.14541 0.18617
# Poissons Ratio (y) = 0.33030 0.39009
# Poissons Ratio (z) = 0.35414 0.32668
#
# Static dielectric constant tensor:
#      x y z
#    x 4.484080 0.000000 0.000000 
#    y 0.000000 3.473920 0.000000 
#    z 0.000000 0.000000 3.901810 
# 
# 
# High freq. dielectric constant tensor:
#      x y z
#    x 1.830610 0.000000 0.000000 
#    y 0.000000 1.780570 0.000000 
#    z 0.000000 0.000000 1.798840 
# 
# From -- ./inp_files/35322.got.cif
#   From: 2010.03.12/outbox.cif.g09.slc.cpg/sg74_18_cif.got.tgz:35322.got - 2010.04.16 15:46:19.
