data_PCOD8301563
_publ_section_title
;
Structure prediction by ZEFSAII (Michael W. Deem and Ramdas Pophale) SiO2 
 PCOD8301563
Probable space group: I M M A
;
_chemical_formula_sum "Si O2"
_cell_formula_units_Z 88
_cell_length_a 28.368303
_cell_length_b 17.884430
_cell_length_c 8.903115
_cell_angle_alpha 90.000000
_cell_angle_beta 90.000000
_cell_angle_gamma 90.000000
_cell_volume 4517.003668
_symmetry_space_group_name_H-M "I M M A"
_symmetry_group_IT_number 74
_symmetry_cell_setting 'orthorhombic'
loop_
_space_group_symop_operation_xyz
x,y,z
-x,1/2-y,z
x,-y,-z
-x,1/2+y,-z
-x,-y,-z
x,1/2+y,-z
-x,y,z
x,1/2-y,z
1/2+x,1/2+y,1/2+z
1/2-x,-y,1/2+z
1/2+x,1/2-y,1/2-z
1/2-x,y,1/2-z
1/2-x,1/2-y,1/2-z
1/2+x,y,1/2-z
1/2-x,1/2+y,1/2+z
1/2+x,-y,1/2+z
loop_
_atom_site_type_symbol
_atom_site_label
_atom_site_fract_x
_atom_site_fract_y
_atom_site_fract_z
Si Si1 0.250000 0.566036 0.750000
Si Si2 0.108531 0.070169 0.911294
Si Si3 0.167535 0.838691 0.853161
Si Si4 0.671336 0.464387 0.858661
Si Si5 0.553206 0.335526 0.818081
Si Si6 0.360323 0.334758 0.020354
O O1 0.218068 0.619533 0.855780
O O2 0.280304 0.510781 0.854448
O O3 0.146033 0.030617 0.800735
O O4 0.067717 0.112297 0.821168
O O5 0.134474 0.130553 0.015516
O O6 0.086005 0.000000 0.000000
O O7 0.174572 0.750000 0.874757
O O8 0.143089 0.859185 0.693877
O O9 0.641402 0.500000 0.000000
O O10 0.676677 0.377892 0.911052
O O11 0.500000 0.355220 0.866486
O O12 0.557367 0.250000 0.763503
O O13 0.586396 0.349529 0.962346
O O14 0.344706 0.250000 0.002817
#
# Coordination Sequence:
#
# PCOD8301563 Si02
#       6
#     8  16  16  16  16  16
#     4  12  23  36  59  84 114 156 198 248 277 342
#     4  11  21  36  58  85 118 152 189 234 298 344
#     4  11  23  38  57  85 119 155 192 237 290 342
#     4  11  22  37  59  80 114 153 201 236 286 333
#     4   9  19  37  61  85 111 148 193 237 283 344
#     4   9  19  38  60  81 112 153 193 234 286 344
#
# _framework density 19.481940999999999
#
# number of rings (size 3 to 8) (size 9 to 14) (size 15 to 20)
#    0.000    1.636    3.636    0.818    2.545    1.091 
#    0.000    1.364    0.000   21.818    0.000    0.000 
#    0.000    0.000    0.000    0.000    0.000    0.000 
#
# Total GULP energy -545312.698365 kJ/mol
# GULP energy per Si atom -12393.470417 kJ/mol
# Density = 1.943760 g / cm^3
# Si number density = 19.481941 Si / 1000 Ang^3
#
#
#
# Elastic Constant Matrix: (Units=GPa)
#
#
# Indices 1 2 3 4 5 6 
#
# 1 101.6635 62.3177 37.8660 0.0000 0.0000 0.0000
# 2 62.3177 99.3711 49.7019 0.0000 0.0000 0.0000
# 3 37.8660 49.7019 99.7321 0.0000 0.0000 0.0000
# 4 0.0000 0.0000 0.0000 37.5198 0.0000 0.0000
# 5 0.0000 0.0000 0.0000 0.0000 20.6558 0.0000
# 6 0.0000 0.0000 0.0000 0.0000 0.0000 31.5193
#
#
#
# Elastic Compliance Matrix: (Units=1/GPa)
#
#
# Indices 1 2 3 4 5 6 
#
# 1 0.016133 -0.009396 -0.001443 0.000000 0.000000 0.000000
# 2 -0.009396 0.018876 -0.005840 0.000000 0.000000 0.000000
# 3 -0.001443 -0.005840 0.013485 0.000000 0.000000 0.000000
# 4 0.000000 0.000000 0.000000 0.026653 0.000000 0.000000
# 5 0.000000 0.000000 0.000000 0.000000 0.048413 0.000000
# 6 0.000000 0.000000 0.000000 0.000000 0.000000 0.031727
#
#
# Mechanical properties :
#
#
# Convention : Reuss Voigt Hill
#
# Bulk Modulus (GPa) = 66.06079 66.72647 66.39363
# Shear Modulus (GPa) = 25.81452 27.99773 26.90612
#
# Velocity S-wave (km/s) = 3.64407 3.79504 3.72032
# Velocity P-wave (km/s) = 7.18944 7.31627 7.25313
#
# Compressibility (1/GPa) = 0.01513757
#
# Stress axis : x y z
#
# Youngs Moduli (GPa) = 61.98371 52.97610 74.15635
#
# Poissons Ratio (x) = 0.49775 0.10701
# Poissons Ratio (y) = 0.58238 0.43306
# Poissons Ratio (z) = 0.08944 0.30937
#
# Static dielectric constant tensor:
#      x y z
#    x 3.320680 0.000000 0.000000 
#    y 0.000000 3.934100 0.000000 
#    z 0.000000 0.000000 3.703440 
# 
# 
# High freq. dielectric constant tensor:
#      x y z
#    x 1.721020 0.000000 0.000000 
#    y 0.000000 1.787520 0.000000 
#    z 0.000000 0.000000 1.763650 
# 
# From -- ./inp_files/16074.got.cif
#   From: 2010.03.12/outbox.cif.g09.slc.cpg/sg74_9_cif.got.tgz:16074.got - 2010.04.16 15:46:19.
