data_PCOD8301236
_publ_section_title
;
Structure prediction by ZEFSAII (Michael W. Deem and Ramdas Pophale) SiO2 
 PCOD8301236
Probable space group: I M M A
;
_chemical_formula_sum "Si O2"
_cell_formula_units_Z 96
_cell_length_a 19.031892
_cell_length_b 22.144348
_cell_length_c 12.072515
_cell_angle_alpha 90.000000
_cell_angle_beta 90.000000
_cell_angle_gamma 90.000000
_cell_volume 5087.947437
_symmetry_space_group_name_H-M "I M M A"
_symmetry_group_IT_number 74
_symmetry_cell_setting 'orthorhombic'
loop_
_space_group_symop_operation_xyz
x,y,z
-x,1/2-y,z
x,-y,-z
-x,1/2+y,-z
-x,-y,-z
x,1/2+y,-z
-x,y,z
x,1/2-y,z
1/2+x,1/2+y,1/2+z
1/2-x,-y,1/2+z
1/2+x,1/2-y,1/2-z
1/2-x,y,1/2-z
1/2-x,1/2-y,1/2-z
1/2+x,y,1/2-z
1/2-x,1/2+y,1/2+z
1/2+x,-y,1/2+z
loop_
_atom_site_type_symbol
_atom_site_label
_atom_site_fract_x
_atom_site_fract_y
_atom_site_fract_z
Si Si1 0.079448 0.371012 0.860440
Si Si2 0.179322 0.932307 0.982758
Si Si3 0.670233 0.944526 0.761993
Si Si4 0.174884 0.623165 0.520136
Si Si5 0.314125 0.250000 0.915281
Si Si6 0.655606 0.250000 0.661917
Si Si7 0.081097 0.055040 0.647263
O O1 0.116080 0.307906 0.883990
O O2 0.085577 0.389524 0.732588
O O3 0.000000 0.366132 0.899957
O O4 0.115797 0.422159 0.933731
O O5 0.149238 0.920075 0.859192
O O6 0.245195 0.890521 0.015455
O O7 0.206614 0.000000 0.000000
O O8 0.750000 0.970098 0.750000
O O9 0.618443 0.996824 0.801418
O O10 0.667192 0.888351 0.848006
O O11 0.160042 0.692278 0.486362
O O12 0.120503 0.577008 0.462767
O O13 0.349430 0.250000 0.794902
O O14 0.231628 0.250000 0.892810
O O15 0.000000 0.039152 0.619687
#
# Coordination Sequence:
#
# PCOD8301236 Si02
#       7
#    16  16  16  16   8   8  16
#     4  11  23  37  60  92 124 155 194 245 297 353
#     4  11  21  38  61  87 122 157 199 243 293 356
#     4  10  22  38  60  88 121 162 194 242 300 355
#     4  11  22  39  59  88 120 152 204 249 299 347
#     4  11  22  36  64  88 112 154 198 258 288 353
#     4  11  21  40  61  87 120 154 200 240 305 350
#     4  11  23  38  61  92 124 157 194 245 304 359
#
# _framework density 18.868119
#
# number of rings (size 3 to 8) (size 9 to 14) (size 15 to 20)
#    0.000    1.167    5.000    2.750    0.000    2.333 
#    0.000    5.000    0.000    0.000    0.000    0.000 
#    0.000    0.000    0.000    0.000    0.000    0.000 
#
# Total GULP energy -595242.135807 kJ/mol
# GULP energy per Si atom -12400.877829 kJ/mol
# Density = 1.882517 g / cm^3
# Si number density = 18.868119 Si / 1000 Ang^3
#
#
#
# Elastic Constant Matrix: (Units=GPa)
#
#
# Indices 1 2 3 4 5 6 
#
# 1 97.0540 27.9989 39.4072 0.0000 0.0000 0.0000
# 2 27.9989 80.2615 13.0106 0.0000 0.0000 0.0000
# 3 39.4072 13.0106 93.1328 0.0000 0.0000 0.0000
# 4 0.0000 0.0000 0.0000 22.9906 0.0000 0.0000
# 5 0.0000 0.0000 0.0000 0.0000 14.5919 0.0000
# 6 0.0000 0.0000 0.0000 0.0000 0.0000 9.6739
#
#
#
# Elastic Compliance Matrix: (Units=1/GPa)
#
#
# Indices 1 2 3 4 5 6 
#
# 1 0.013526 -0.003879 -0.005182 0.000000 0.000000 0.000000
# 2 -0.003879 0.013860 -0.000295 0.000000 0.000000 0.000000
# 3 -0.005182 -0.000295 0.012971 0.000000 0.000000 0.000000
# 4 0.000000 0.000000 0.000000 0.043496 0.000000 0.000000
# 5 0.000000 0.000000 0.000000 0.000000 0.068531 0.000000
# 6 0.000000 0.000000 0.000000 0.000000 0.000000 0.103371
#
#
# Mechanical properties :
#
#
# Convention : Reuss Voigt Hill
#
# Bulk Modulus (GPa) = 46.19584 47.92019 47.05802
# Shear Modulus (GPa) = 17.75047 22.12003 19.93525
#
# Velocity S-wave (km/s) = 3.07052 3.42767 3.25400
# Velocity P-wave (km/s) = 6.09159 6.41232 6.25401
#
# Compressibility (1/GPa) = 0.02164697
#
# Stress axis : x y z
#
# Youngs Moduli (GPa) = 73.92963 72.14916 77.09479
#
# Poissons Ratio (x) = 0.27984 0.39947
# Poissons Ratio (y) = 0.28675 0.02275
# Poissons Ratio (z) = 0.38307 0.02129
#
# Static dielectric constant tensor:
#      x y z
#    x 3.432470 0.000000 0.000000 
#    y 0.000000 3.313270 0.000000 
#    z 0.000000 0.000000 3.628340 
# 
# 
# High freq. dielectric constant tensor:
#      x y z
#    x 1.730690 0.000000 0.000000 
#    y 0.000000 1.723780 0.000000 
#    z 0.000000 0.000000 1.736410 
# 
# From -- ./inp_files/22529.got.cif
#   From: 2010.03.12/outbox.cif.g09.slc.cpg/sg74_12_cif.got.tgz:22529.got - 2010.04.16 15:46:19.
