data_PCOD8301812
_publ_section_title
;
Structure prediction by ZEFSAII (Michael W. Deem and Ramdas Pophale) SiO2 
 PCOD8301812
Probable space group: I M M A
;
_chemical_formula_sum "Si O2"
_cell_formula_units_Z 96
_cell_length_a 22.643347
_cell_length_b 9.651228
_cell_length_c 26.748882
_cell_angle_alpha 90.000000
_cell_angle_beta 90.000000
_cell_angle_gamma 90.000000
_cell_volume 5845.596474
_symmetry_space_group_name_H-M "I M M A"
_symmetry_group_IT_number 74
_symmetry_cell_setting 'orthorhombic'
loop_
_space_group_symop_operation_xyz
x,y,z
-x,1/2-y,z
x,-y,-z
-x,1/2+y,-z
-x,-y,-z
x,1/2+y,-z
-x,y,z
x,1/2-y,z
1/2+x,1/2+y,1/2+z
1/2-x,-y,1/2+z
1/2+x,1/2-y,1/2-z
1/2-x,y,1/2-z
1/2-x,1/2-y,1/2-z
1/2+x,y,1/2-z
1/2-x,1/2+y,1/2+z
1/2+x,-y,1/2+z
loop_
_atom_site_type_symbol
_atom_site_label
_atom_site_fract_x
_atom_site_fract_y
_atom_site_fract_z
Si Si1 0.765134 0.595043 0.455487
Si Si2 0.124243 0.410719 0.772095
Si Si3 0.000000 0.411527 0.737744
Si Si4 0.899830 0.912346 0.451198
Si Si5 0.798007 0.903447 0.707527
Si Si6 0.000000 0.413700 0.625144
Si Si7 0.218313 0.093292 0.851956
O O1 0.742568 0.500000 0.500000
O O2 0.766231 0.750000 0.476666
O O3 0.831441 0.556187 0.436924
O O4 0.716017 0.581461 0.411790
O O5 0.133711 0.250000 0.757779
O O6 0.055512 0.452227 0.772704
O O7 0.148814 0.504404 0.727599
O O8 0.155585 0.443480 0.825530
O O9 0.000000 0.479360 0.681615
O O10 0.000000 0.250000 0.727501
O O11 0.910051 0.750000 0.462822
O O12 0.941092 0.961233 0.404956
O O13 0.918007 0.000000 0.500000
O O14 0.819553 0.750000 0.690520
O O15 0.750000 0.887111 0.750000
O O16 0.769038 0.985464 0.662089
O O17 0.000000 0.250000 0.629440
O O18 0.236862 0.250000 0.836152
#
# Coordination Sequence:
#
# PCOD8301812 Si02
#       7
#    16  16   8  16  16   8  16
#     4   9  18  30  45  66  91 115 143 184 229 272
#     4   9  17  30  47  67  89 117 154 190 226 270
#     4   9  18  29  46  68  91 117 151 193 228 267
#     4   9  17  29  44  60  81 110 146 183 219 259
#     4   9  17  28  43  65  91 118 149 184 223 269
#     4   9  17  27  42  62  82 113 149 181 218 257
#     4   9  17  29  47  68  90 118 150 186 228 274
#
# _framework density 16.422618
#
# number of rings (size 3 to 8) (size 9 to 14) (size 15 to 20)
#    0.000    3.000    0.000    0.750    2.333    2.667 
#    0.000    0.417    0.000    1.000    0.000    0.583 
#    0.000    0.000    0.000    0.000    0.000    0.000 
#
# Total GULP energy -594720.583579 kJ/mol
# GULP energy per Si atom -12390.012158 kJ/mol
# Density = 1.638524 g / cm^3
# Si number density = 16.422618 Si / 1000 Ang^3
#
#
#
# Elastic Constant Matrix: (Units=GPa)
#
#
# Indices 1 2 3 4 5 6 
#
# 1 96.8282 35.2141 54.5063 0.0000 0.0000 0.0000
# 2 35.2141 66.7822 35.7951 0.0000 0.0000 0.0000
# 3 54.5063 35.7951 93.3215 0.0000 0.0000 0.0000
# 4 0.0000 0.0000 0.0000 2.2598 0.0000 0.0000
# 5 0.0000 0.0000 0.0000 0.0000 23.5154 0.0000
# 6 0.0000 0.0000 0.0000 0.0000 0.0000 15.4538
#
#
#
# Elastic Compliance Matrix: (Units=1/GPa)
#
#
# Indices 1 2 3 4 5 6 
#
# 1 0.016357 -0.004411 -0.007862 0.000000 0.000000 0.000000
# 2 -0.004411 0.020039 -0.005110 0.000000 0.000000 0.000000
# 3 -0.007862 -0.005110 0.017267 0.000000 0.000000 0.000000
# 4 0.000000 0.000000 0.000000 0.442513 0.000000 0.000000
# 5 0.000000 0.000000 0.000000 0.000000 0.042525 0.000000
# 6 0.000000 0.000000 0.000000 0.000000 0.000000 0.064709
#
#
# Mechanical properties :
#
#
# Convention : Reuss Voigt Hill
#
# Bulk Modulus (GPa) = 52.91573 56.44032 54.67802
# Shear Modulus (GPa) = 7.75824 17.00690 12.38257
#
# Velocity S-wave (km/s) = 2.17586 3.22153 2.74888
# Velocity P-wave (km/s) = 6.21319 6.94836 6.59103
#
# Compressibility (1/GPa) = 0.01889797
#
# Stress axis : x y z
#
# Youngs Moduli (GPa) = 61.13431 49.90276 57.91244
#
# Poissons Ratio (x) = 0.22014 0.45530
# Poissons Ratio (y) = 0.26968 0.29592
# Poissons Ratio (z) = 0.48063 0.25499
#
# Static dielectric constant tensor:
#      x y z
#    x 3.100210 0.000000 0.000000 
#    y 0.000000 3.251250 0.000000 
#    z 0.000000 0.000000 2.989790 
# 
# 
# High freq. dielectric constant tensor:
#      x y z
#    x 1.610170 0.000000 0.000000 
#    y 0.000000 1.621350 0.000000 
#    z 0.000000 0.000000 1.614780 
# 
# From -- ./inp_files/68603.got.cif
#   From: 2010.03.12/outbox.cif.g09.slc.cpg/sg74_35_cif.got.tgz:68603.got - 2010.04.16 15:46:19.
