data_PCOD8301095
_publ_section_title
;
Structure prediction by ZEFSAII (Michael W. Deem and Ramdas Pophale) SiO2 
 PCOD8301095
Probable space group: I M M A
;
_chemical_formula_sum "Si O2"
_cell_formula_units_Z 104
_cell_length_a 25.340552
_cell_length_b 20.849102
_cell_length_c 9.196790
_cell_angle_alpha 90.000000
_cell_angle_beta 90.000000
_cell_angle_gamma 90.000000
_cell_volume 4858.919399
_symmetry_space_group_name_H-M "I M M A"
_symmetry_group_IT_number 74
_symmetry_cell_setting 'orthorhombic'
loop_
_space_group_symop_operation_xyz
x,y,z
-x,1/2-y,z
x,-y,-z
-x,1/2+y,-z
-x,-y,-z
x,1/2+y,-z
-x,y,z
x,1/2-y,z
1/2+x,1/2+y,1/2+z
1/2-x,-y,1/2+z
1/2+x,1/2-y,1/2-z
1/2-x,y,1/2-z
1/2-x,1/2-y,1/2-z
1/2+x,y,1/2-z
1/2-x,1/2+y,1/2+z
1/2+x,-y,1/2+z
loop_
_atom_site_type_symbol
_atom_site_label
_atom_site_fract_x
_atom_site_fract_y
_atom_site_fract_z
Si Si1 0.201116 0.674271 0.655571
Si Si2 0.500000 0.906600 0.050629
Si Si3 0.000000 0.823781 0.731452
Si Si4 0.103386 0.619185 0.817904
Si Si5 0.200497 0.676192 0.331022
Si Si6 0.000000 0.174860 0.808623
Si Si7 0.113484 0.879259 0.143069
Si Si8 0.900436 0.988997 0.349036
O O1 0.207037 0.750000 0.651285
O O2 0.250000 0.645208 0.750000
O O3 0.145971 0.656693 0.725508
O O4 0.197384 0.644967 0.491991
O O5 0.500000 0.839331 0.137467
O O6 0.548971 0.951336 0.088555
O O7 0.500000 0.879514 0.889129
O O8 0.051714 0.835606 0.829992
O O9 0.000000 0.750000 0.674873
O O10 0.086713 0.553579 0.738092
O O11 0.129610 0.608563 0.976327
O O12 0.213032 0.750000 0.356686
O O13 0.250000 0.642955 0.250000
O O14 0.148304 0.672971 0.229198
O O15 0.947714 0.140460 0.869113
O O16 0.000000 0.250000 0.844124
O O17 0.127479 0.943699 0.232193
O O18 0.866872 0.000000 0.500000
#
# Coordination Sequence:
#
# PCOD8301095 Si02
#       8
#    16   8   8  16  16   8  16  16
#     4  10  22  41  65  94 127 168 215 266 326 388
#     4  10  21  39  60  89 122 168 215 260 310 375
#     4  12  25  39  62  97 135 172 215 270 332 391
#     4  12  24  40  62  93 131 167 215 266 323 389
#     4  10  21  39  64  91 123 166 214 266 323 387
#     4  10  22  37  58  86 126 166 205 255 312 377
#     4  11  24  39  60  92 127 169 212 263 322 383
#     4  11  21  40  64  85 120 167 217 261 312 372
#
# _framework density 21.403936999999999
#
# number of rings (size 3 to 8) (size 9 to 14) (size 15 to 20)
#    0.000    1.231    1.538    4.615    2.154    4.308 
#    0.000    3.846    0.000    0.000    0.000    0.000 
#    0.000    0.000    0.000    0.000    0.000    0.000 
#
# Total GULP energy -644263.735871 kJ/mol
# GULP energy per Si atom -12389.687228 kJ/mol
# Density = 2.135522 g / cm^3
# Si number density = 21.403937 Si / 1000 Ang^3
#
#
#
# Elastic Constant Matrix: (Units=GPa)
#
#
# Indices 1 2 3 4 5 6 
#
# 1 111.4129 8.2310 48.1172 0.0000 0.0000 0.0000
# 2 8.2310 68.0419 29.3677 0.0000 0.0000 0.0000
# 3 48.1172 29.3677 197.7502 0.0000 0.0000 0.0000
# 4 0.0000 0.0000 0.0000 32.0394 0.0000 0.0000
# 5 0.0000 0.0000 0.0000 0.0000 -8.8687 0.0000
# 6 0.0000 0.0000 0.0000 0.0000 0.0000 11.5664
#
#
#
# Elastic Compliance Matrix: (Units=1/GPa)
#
#
# Indices 1 2 3 4 5 6 
#
# 1 0.010031 -0.000171 -0.002415 0.000000 0.000000 0.000000
# 2 -0.000171 0.015706 -0.002291 0.000000 0.000000 0.000000
# 3 -0.002415 -0.002291 0.005985 0.000000 0.000000 0.000000
# 4 0.000000 0.000000 0.000000 0.031212 0.000000 0.000000
# 5 0.000000 0.000000 0.000000 0.000000 -0.112756 0.000000
# 6 0.000000 0.000000 0.000000 0.000000 0.000000 0.086458
#
#
# Mechanical properties :
#
#
# Convention : Reuss Voigt Hill
#
# Bulk Modulus (GPa) = 45.52102 60.95964 53.24033
# Shear Modulus (GPa) = 93.08643 26.38002 59.73322
#
# Velocity S-wave (km/s) = 6.60187 3.51448 5.28849
# Velocity P-wave (km/s) = 8.91217 6.70904 7.88790
#
# Compressibility (1/GPa) = 0.02196787
#
# Stress axis : x y z
#
# Youngs Moduli (GPa) = 99.68639 63.66871 167.08841
#
# Poissons Ratio (x) = 0.01088 0.40360
# Poissons Ratio (y) = 0.01704 0.38279
# Poissons Ratio (z) = 0.24079 0.14586
#
# Static dielectric constant tensor:
#      x y z
#    x 3.706520 0.000000 0.000000 
#    y 0.000000 3.796390 0.000000 
#    z 0.000000 0.000000 4.467060 
# 
# 
# High freq. dielectric constant tensor:
#      x y z
#    x 1.822720 0.000000 0.000000 
#    y 0.000000 1.825240 0.000000 
#    z 0.000000 0.000000 1.865650 
# 
# From -- ./inp_files/15258.got.cif
#   From: 2010.03.12/outbox.cif.g09.slc.cpg/sg74_8_cif.got.tgz:15258.got - 2010.04.16 15:46:19.
