data_PCOD8301910
_publ_section_title
;
Structure prediction by ZEFSAII (Michael W. Deem and Ramdas Pophale) SiO2 
 PCOD8301910
Probable space group: P 41
;
_chemical_formula_sum "Si O2"
_cell_formula_units_Z 32
_cell_length_a 8.807979
_cell_length_b 8.807979
_cell_length_c 18.537896
_cell_angle_alpha 90.000000
_cell_angle_beta 90.000000
_cell_angle_gamma 90.000000
_cell_volume 1438.179131
_symmetry_space_group_name_H-M "P 41"
_symmetry_group_IT_number 76
_symmetry_cell_setting 'tetragonal'
loop_
_space_group_symop_operation_xyz
x,y,z
-y,x,1/4+z
-x,-y,1/2+z
y,-x,3/4+z
loop_
_atom_site_type_symbol
_atom_site_label
_atom_site_fract_x
_atom_site_fract_y
_atom_site_fract_z
Si Si1 0.314616 0.015645 0.810840
Si Si2 0.460967 0.232912 0.321564
Si Si3 0.678100 0.524769 0.723955
Si Si4 0.314624 0.984362 0.975448
Si Si5 0.020980 0.020999 0.518146
Si Si6 0.232890 0.460962 0.714739
Si Si7 0.524766 0.678127 0.312333
Si Si8 0.000010 0.771726 0.143151
O O1 0.264639 0.000100 0.893148
O O2 0.442226 0.144385 0.797788
O O3 0.396001 0.858878 0.789470
O O4 0.160675 0.049387 0.767933
O O5 0.412782 0.330169 0.252948
O O6 0.506069 0.345689 0.387678
O O7 0.331055 0.122682 0.352398
O O8 0.625276 0.374737 0.768153
O O9 0.855601 0.557773 0.738452
O O10 0.160688 0.950557 0.018351
O O11 0.396046 0.141083 0.996866
O O12 0.083277 0.116144 0.586176
O O13 0.116145 0.083301 0.450125
O O14 0.345617 0.506107 0.648613
O O15 0.330191 0.412784 0.783340
O O16 0.122672 0.331041 0.683904
#
# Coordination Sequence:
#
# PCOD8301910 Si02
#       8
#     4   4   4   4   4   4   4   4
#     4  10  22  43  67  95 137 177 226 284 342 406
#     4  11  24  45  67 102 138 183 227 289 344 417
#     4  11  23  43  67  96 140 184 227 280 351 410
#     4  10  22  43  67  95 137 177 226 284 342 406
#     4  12  24  42  70 102 134 182 230 284 348 412
#     4  11  24  45  67 102 138 183 227 289 344 417
#     4  11  23  43  67  96 140 184 227 280 351 410
#     4  12  24  40  74 100 134 174 232 286 346 406
#
# _framework density 22.250354999999999
#
# number of rings (size 3 to 8) (size 9 to 14) (size 15 to 20)
#    0.000    1.000    7.500    0.750    3.500    0.000 
#    0.000    0.000    0.000    0.000    0.000    0.000 
#    0.000    0.000    0.000    0.000    0.000    0.000 
#
# Total GULP energy -396657.672107 kJ/mol
# GULP energy per Si atom -12395.552253 kJ/mol
# Density = 2.219971 g / cm^3
# Si number density = 22.250355 Si / 1000 Ang^3
#
#
#
# Elastic Constant Matrix: (Units=GPa)
#
#
# Indices 1 2 3 4 5 6 
#
# 1 80.9027 19.8301 14.4367 0.0000 0.0000 -0.0122
# 2 19.8301 80.9027 14.4367 0.0000 0.0000 0.0122
# 3 14.4367 14.4367 56.0141 0.0000 0.0000 0.0000
# 4 0.0000 0.0000 0.0000 34.8213 0.0000 0.0000
# 5 0.0000 0.0000 0.0000 0.0000 34.8213 0.0000
# 6 -0.0122 0.0122 0.0000 0.0000 0.0000 36.0867
#
#
#
# Elastic Compliance Matrix: (Units=1/GPa)
#
#
# Indices 1 2 3 4 5 6 
#
# 1 0.013547 -0.002827 -0.002763 0.000000 0.000000 0.000006
# 2 -0.002827 0.013547 -0.002763 0.000000 0.000000 -0.000006
# 3 -0.002763 -0.002763 0.019277 0.000000 0.000000 0.000000
# 4 0.000000 0.000000 0.000000 0.028718 0.000000 0.000000
# 5 0.000000 0.000000 0.000000 0.000000 0.028718 0.000000
# 6 0.000006 -0.000006 0.000000 0.000000 0.000000 0.027711
#
#
# Mechanical properties :
#
#
# Convention : Reuss Voigt Hill
#
# Bulk Modulus (GPa) = 33.71059 35.02518 34.36788
# Shear Modulus (GPa) = 31.62345 32.42027 32.02186
#
# Velocity S-wave (km/s) = 3.77404 3.82130 3.79774
# Velocity P-wave (km/s) = 5.84591 5.93678 5.89152
#
# Compressibility (1/GPa) = 0.02966427
#
# Stress axis : x y z
#
# Youngs Moduli (GPa) = 73.81961 73.81961 51.87607
#
# Poissons Ratio (x) = 0.20872 0.14332
# Poissons Ratio (y) = 0.20872 0.14332
# Poissons Ratio (z) = 0.20394 0.20394
#
# Static dielectric constant tensor:
#      x y z
#    x 4.125400 0.000000 0.000000 
#    y 0.000000 4.125400 0.000000 
#    z 0.000000 0.000000 4.023110 
# 
# 
# High freq. dielectric constant tensor:
#      x y z
#    x 1.882430 0.000000 0.000000 
#    y 0.000000 1.882430 0.000000 
#    z 0.000000 0.000000 1.863790 
# 
# From -- ./inp_files/1460.got.cif
#   From: 2010.03.12/outbox.cif.g09.slc.cpg/sg76_cif.got.tgz:1460.got - 2010.04.16 16:34:25.
