data_PCOD8301516
_publ_section_title
;
Structure prediction by ZEFSAII (Michael W. Deem and Ramdas Pophale) SiO2 
 PCOD8301516
Probable space group: I M M A
;
_chemical_formula_sum "Si O2"
_cell_formula_units_Z 64
_cell_length_a 15.322293
_cell_length_b 24.097090
_cell_length_c 8.753157
_cell_angle_alpha 90.000000
_cell_angle_beta 90.000000
_cell_angle_gamma 90.000000
_cell_volume 3231.864028
_symmetry_space_group_name_H-M "I M M A"
_symmetry_group_IT_number 74
_symmetry_cell_setting 'orthorhombic'
loop_
_space_group_symop_operation_xyz
x,y,z
-x,1/2-y,z
x,-y,-z
-x,1/2+y,-z
-x,-y,-z
x,1/2+y,-z
-x,y,z
x,1/2-y,z
1/2+x,1/2+y,1/2+z
1/2-x,-y,1/2+z
1/2+x,1/2-y,1/2-z
1/2-x,y,1/2-z
1/2-x,1/2-y,1/2-z
1/2+x,y,1/2-z
1/2-x,1/2+y,1/2+z
1/2+x,-y,1/2+z
loop_
_atom_site_type_symbol
_atom_site_label
_atom_site_fract_x
_atom_site_fract_y
_atom_site_fract_z
Si Si1 0.104005 0.750000 0.675990
Si Si2 0.500000 0.933816 0.175772
Si Si3 0.000000 0.937223 0.682167
Si Si4 0.103740 0.750000 0.331183
Si Si5 0.597020 0.145945 0.363698
Si Si6 0.657087 0.365249 0.690733
O O1 0.140733 0.750000 0.503835
O O2 0.138670 0.695582 0.764023
O O3 0.000000 0.750000 0.667310
O O4 0.414506 0.907146 0.246551
O O5 0.500000 0.998222 0.219171
O O6 0.500000 0.923650 0.995973
O O7 0.913577 0.908768 0.756464
O O8 0.140000 0.803040 0.244446
O O9 0.000000 0.750000 0.327933
O O10 0.500000 0.163867 0.424218
O O11 0.658539 0.132890 0.506690
O O12 0.750000 0.386616 0.750000
#
# Coordination Sequence:
#
# PCOD8301516 Si02
#       6
#     8   8   8   8  16  16
#     4   9  17  31  62  90 119 151 201 244 305 362
#     4  11  21  44  61  88 119 159 205 257 306 351
#     4   9  21  38  69  84 117 163 209 251 306 363
#     4  11  20  37  61  89 119 164 197 251 302 358
#     4   9  18  36  60  91 116 159 198 245 297 361
#     4  12  24  38  61  92 125 159 202 246 305 368
#
# _framework density 19.802814999999999
#
# number of rings (size 3 to 8) (size 9 to 14) (size 15 to 20)
#    0.750    1.000    2.500    2.625    0.000    3.000 
#    0.000   11.250    0.000    0.000    0.000    0.000 
#    0.000    0.000    0.000    0.000    0.000    0.000 
#
# Total GULP energy -396786.291781 kJ/mol
# GULP energy per Si atom -12399.571618 kJ/mol
# Density = 1.975774 g / cm^3
# Si number density = 19.802815 Si / 1000 Ang^3
#
#
#
# Elastic Constant Matrix: (Units=GPa)
#
#
# Indices 1 2 3 4 5 6 
#
# 1 78.7697 34.6102 33.3148 0.0000 -0.0001 0.0000
# 2 34.6102 155.3535 85.6856 -0.0001 0.0001 0.0002
# 3 33.3148 85.6856 155.2096 -0.0010 0.0004 -0.0012
# 4 0.0000 -0.0001 -0.0010 44.8206 0.0000 0.0003
# 5 -0.0001 0.0001 0.0004 0.0000 6.8902 0.0000
# 6 0.0000 0.0002 -0.0012 0.0003 0.0000 -18.4717
#
#
#
# Elastic Compliance Matrix: (Units=1/GPa)
#
#
# Indices 1 2 3 4 5 6 
#
# 1 0.014454 -0.002170 -0.001905 0.000000 0.000000 0.000000
# 2 -0.002170 0.009581 -0.004823 0.000000 0.000000 0.000000
# 3 -0.001905 -0.004823 0.009515 0.000000 -0.000001 -0.000001
# 4 0.000000 0.000000 0.000000 0.022311 0.000000 0.000000
# 5 0.000000 0.000000 -0.000001 0.000000 0.145133 0.000000
# 6 0.000000 0.000000 -0.000001 0.000000 0.000000 -0.054137
#
#
# Mechanical properties :
#
#
# Convention : Reuss Voigt Hill
#
# Bulk Modulus (GPa) = 63.47664 77.39489 70.43577
# Shear Modulus (GPa) = 29.42844 22.36264 25.89554
#
# Velocity S-wave (km/s) = 3.85914 3.36410 3.62009
# Velocity P-wave (km/s) = 7.20980 7.36595 7.28829
#
# Compressibility (1/GPa) = 0.01575383
#
# Stress axis : x y z
#
# Youngs Moduli (GPa) = 69.18451 104.37684 105.10169
#
# Poissons Ratio (x) = 0.22645 0.20019
# Poissons Ratio (y) = 0.15010 0.50695
# Poissons Ratio (z) = 0.13178 0.50346
#
# Static dielectric constant tensor:
#      x y z
#    x 3.405960 0.000000 0.000000 
#    y 0.000000 3.569240 0.000000 
#    z 0.000000 0.000000 3.752110 
# 
# 
# High freq. dielectric constant tensor:
#      x y z
#    x 1.738610 0.000000 0.000000 
#    y 0.000000 1.768900 0.000000 
#    z 0.000000 0.000000 1.790150 
# 
# From -- ./inp_files/8939.got.cif
#   From: 2010.03.12/outbox.cif.g09.slc.cpg/sg74_5_cif.got.tgz:8939.got - 2010.04.16 15:46:19.
