data_PCOD8301539
_publ_section_title
;
Structure prediction by ZEFSAII (Michael W. Deem and Ramdas Pophale) SiO2 
 PCOD8301539
Probable space group: I M M A
;
_chemical_formula_sum "Si O2"
_cell_formula_units_Z 96
_cell_length_a 8.624337
_cell_length_b 25.028105
_cell_length_c 23.619819
_cell_angle_alpha 90.000000
_cell_angle_beta 90.000000
_cell_angle_gamma 90.000000
_cell_volume 5098.357110
_symmetry_space_group_name_H-M "I M M A"
_symmetry_group_IT_number 74
_symmetry_cell_setting 'orthorhombic'
loop_
_space_group_symop_operation_xyz
x,y,z
-x,1/2-y,z
x,-y,-z
-x,1/2+y,-z
-x,-y,-z
x,1/2+y,-z
-x,y,z
x,1/2-y,z
1/2+x,1/2+y,1/2+z
1/2-x,-y,1/2+z
1/2+x,1/2-y,1/2-z
1/2-x,y,1/2-z
1/2-x,1/2-y,1/2-z
1/2+x,y,1/2-z
1/2-x,1/2+y,1/2+z
1/2+x,-y,1/2+z
loop_
_atom_site_type_symbol
_atom_site_label
_atom_site_fract_x
_atom_site_fract_y
_atom_site_fract_z
Si Si1 0.318678 0.309839 0.571746
Si Si2 0.330667 0.559809 0.493719
Si Si3 0.181575 0.689890 0.942198
Si Si4 0.317667 0.590179 0.121000
Si Si5 0.682995 0.495951 0.310833
Si Si6 0.180140 0.408207 0.393439
O O1 0.500000 0.308559 0.583501
O O2 0.250763 0.250000 0.578698
O O3 0.283961 0.330864 0.507187
O O4 0.240300 0.348177 0.618801
O O5 0.381404 0.500000 0.500000
O O6 0.500000 0.591207 0.493819
O O7 0.236652 0.563489 0.436328
O O8 0.213701 0.575286 0.542823
O O9 0.246992 0.750000 0.936554
O O10 0.262395 0.653702 0.893517
O O11 0.000000 0.689806 0.930515
O O12 0.500000 0.588948 0.128332
O O13 0.246363 0.554232 0.170992
O O14 0.500000 0.499814 0.308732
O O15 0.750000 0.481421 0.250000
O O16 0.728143 0.446775 0.351344
O O17 0.000000 0.412037 0.378422
#
# Coordination Sequence:
#
# PCOD8301539 Si02
#       6
#    16  16  16  16  16  16
#     4   9  18  33  54  81 117 159 196 230 277 338
#     4  11  21  33  52  79 113 154 190 228 282 341
#     4   9  18  33  54  81 117 159 196 230 277 338
#     4  12  23  35  56  86 118 151 188 235 286 343
#     4  12  26  45  64  83 110 148 192 240 288 342
#     4  12  23  35  56  86 118 151 188 235 286 343
#
# _framework density 18.829595000000001
#
# number of rings (size 3 to 8) (size 9 to 14) (size 15 to 20)
#    0.000    1.167    3.333    6.000    0.000    1.333 
#    0.000    1.667    0.000    1.000    0.000    0.000 
#    0.000    0.000    0.000    0.000    0.000    0.000 
#
# Total GULP energy -594838.275997 kJ/mol
# GULP energy per Si atom -12392.464083 kJ/mol
# Density = 1.878674 g / cm^3
# Si number density = 18.829595 Si / 1000 Ang^3
#
#
#
# Elastic Constant Matrix: (Units=GPa)
#
#
# Indices 1 2 3 4 5 6 
#
# 1 124.0163 36.5012 19.6621 0.0000 0.0000 0.0000
# 2 36.5012 107.7294 19.8126 0.0000 0.0000 0.0000
# 3 19.6621 19.8126 48.2726 0.0000 0.0000 0.0000
# 4 0.0000 0.0000 0.0000 12.0918 0.0000 0.0000
# 5 0.0000 0.0000 0.0000 0.0000 29.6838 0.0000
# 6 0.0000 0.0000 0.0000 0.0000 0.0000 23.9566
#
#
#
# Elastic Compliance Matrix: (Units=1/GPa)
#
#
# Indices 1 2 3 4 5 6 
#
# 1 0.009269 -0.002646 -0.002689 0.000000 0.000000 0.000000
# 2 -0.002646 0.010796 -0.003353 0.000000 0.000000 0.000000
# 3 -0.002689 -0.003353 0.023187 0.000000 0.000000 0.000000
# 4 0.000000 0.000000 0.000000 0.082700 0.000000 0.000000
# 5 0.000000 0.000000 0.000000 0.000000 0.033688 0.000000
# 6 0.000000 0.000000 0.000000 0.000000 0.000000 0.041742
#
#
# Mechanical properties :
#
#
# Convention : Reuss Voigt Hill
#
# Bulk Modulus (GPa) = 38.64743 47.99666 43.32204
# Shear Modulus (GPa) = 21.98923 26.74928 24.36925
#
# Velocity S-wave (km/s) = 3.42102 3.77317 3.60140
# Velocity P-wave (km/s) = 6.01447 6.67291 6.35223
#
# Compressibility (1/GPa) = 0.02587494
#
# Stress axis : x y z
#
# Youngs Moduli (GPa) = 107.89169 92.62976 43.12705
#
# Poissons Ratio (x) = 0.24508 0.11598
# Poissons Ratio (y) = 0.28546 0.14461
# Poissons Ratio (z) = 0.29015 0.31061
#
# Static dielectric constant tensor:
#      x y z
#    x 3.359640 0.000000 0.000000 
#    y 0.000000 4.148390 0.000000 
#    z 0.000000 0.000000 3.187640 
# 
# 
# High freq. dielectric constant tensor:
#      x y z
#    x 1.736840 0.000000 0.000000 
#    y 0.000000 1.757670 0.000000 
#    z 0.000000 0.000000 1.683380 
# 
# From -- ./inp_files/57503.got.cif
#   From: 2010.03.12/outbox.cif.g09.slc.cpg/sg74_29_cif.got.tgz:57503.got - 2010.04.16 15:46:19.
