data_PCOD8301628
_publ_section_title
;
Structure prediction by ZEFSAII (Michael W. Deem and Ramdas Pophale) SiO2 
 PCOD8301628
Probable space group: I M M A
;
_chemical_formula_sum "Si O2"
_cell_formula_units_Z 72
_cell_length_a 8.474460
_cell_length_b 26.908343
_cell_length_c 14.538404
_cell_angle_alpha 90.000000
_cell_angle_beta 90.000000
_cell_angle_gamma 90.000000
_cell_volume 3315.245713
_symmetry_space_group_name_H-M "I M M A"
_symmetry_group_IT_number 74
_symmetry_cell_setting 'orthorhombic'
loop_
_space_group_symop_operation_xyz
x,y,z
-x,1/2-y,z
x,-y,-z
-x,1/2+y,-z
-x,-y,-z
x,1/2+y,-z
-x,y,z
x,1/2-y,z
1/2+x,1/2+y,1/2+z
1/2-x,-y,1/2+z
1/2+x,1/2-y,1/2-z
1/2-x,y,1/2-z
1/2-x,1/2-y,1/2-z
1/2+x,y,1/2-z
1/2-x,1/2+y,1/2+z
1/2+x,-y,1/2+z
loop_
_atom_site_type_symbol
_atom_site_label
_atom_site_fract_x
_atom_site_fract_y
_atom_site_fract_z
Si Si1 0.813553 0.378936 0.152064
Si Si2 0.316869 0.584760 0.343418
Si Si3 0.315465 0.339107 0.973767
Si Si4 0.681802 0.486571 0.105072
Si Si5 0.685657 0.750000 0.353185
O O1 0.750000 0.359720 0.250000
O O2 0.738190 0.431853 0.129007
O O3 0.000000 0.383850 0.153971
O O4 0.761185 0.338717 0.075345
O O5 0.500000 0.597482 0.354775
O O6 0.250000 0.609451 0.250000
O O7 0.219769 0.607295 0.428808
O O8 0.286687 0.525784 0.338236
O O9 0.500000 0.329833 0.983725
O O10 0.240536 0.298044 0.908516
O O11 0.500000 0.492112 0.134169
O O12 0.709485 0.500000 0.000000
O O13 0.500000 0.750000 0.346426
O O14 0.750000 0.750000 0.250000
#
# Coordination Sequence:
#
# PCOD8301628 Si02
#       5
#    16  16  16  16   8
#     4  12  25  43  67  96 132 177 224 272 327 388
#     4  12  24  39  61  91 128 171 217 267 323 387
#     4  12  25  45  69  98 132 169 215 270 327 389
#     4  11  22  38  61  90 129 174 220 271 325 383
#     4  12  26  48  75 106 137 172 212 262 328 394
#
# _framework density 21.717848
#
# number of rings (size 3 to 8) (size 9 to 14) (size 15 to 20)
#    0.000    0.222    2.222    9.000    0.000    0.889 
#    0.000    0.556    0.000    0.000    0.000    0.000 
#    0.000    0.000    0.000    0.000    0.000    0.000 
#
# Total GULP energy -446603.661427 kJ/mol
# GULP energy per Si atom -12405.657262 kJ/mol
# Density = 2.166842 g / cm^3
# Si number density = 21.717848 Si / 1000 Ang^3
#
#
#
# Elastic Constant Matrix: (Units=GPa)
#
#
# Indices 1 2 3 4 5 6 
#
# 1 130.2757 8.1480 53.5347 0.0000 0.0000 0.0000
# 2 8.1480 75.3587 43.0204 -0.0001 0.0000 0.0000
# 3 53.5347 43.0204 173.5553 -0.0003 0.0000 0.0002
# 4 0.0000 -0.0001 -0.0003 36.5440 0.0000 0.0001
# 5 0.0000 0.0000 0.0000 0.0000 39.8646 0.0000
# 6 0.0000 0.0000 0.0002 0.0001 0.0000 34.3245
#
#
#
# Elastic Compliance Matrix: (Units=1/GPa)
#
#
# Indices 1 2 3 4 5 6 
#
# 1 0.008822 0.000698 -0.002894 0.000000 0.000000 0.000000
# 2 0.000698 0.015512 -0.004061 0.000000 0.000000 0.000000
# 3 -0.002894 -0.004061 0.007661 0.000000 0.000000 0.000000
# 4 0.000000 0.000000 0.000000 0.027364 0.000000 0.000000
# 5 0.000000 0.000000 0.000000 0.000000 0.025085 0.000000
# 6 0.000000 0.000000 0.000000 0.000000 0.000000 0.029134
#
#
# Mechanical properties :
#
#
# Convention : Reuss Voigt Hill
#
# Bulk Modulus (GPa) = 51.32834 65.39953 58.36394
# Shear Modulus (GPa) = 37.71160 40.44574 39.07867
#
# Velocity S-wave (km/s) = 4.17157 4.32015 4.24651
# Velocity P-wave (km/s) = 6.84750 7.42048 7.13974
#
# Compressibility (1/GPa) = 0.01948241
#
# Stress axis : x y z
#
# Youngs Moduli (GPa) = 113.35688 64.46433 130.52878
#
# Poissons Ratio (x) = -0.04502 0.37778
# Poissons Ratio (y) = -0.07917 0.53003
# Poissons Ratio (z) = 0.32808 0.26177
#
# Static dielectric constant tensor:
#      x y z
#    x 3.977840 0.000000 0.000000 
#    y 0.000000 3.804740 0.000000 
#    z 0.000000 0.000000 4.391240 
# 
# 
# High freq. dielectric constant tensor:
#      x y z
#    x 1.869500 0.000000 0.000000 
#    y 0.000000 1.833890 0.000000 
#    z 0.000000 0.000000 1.875570 
# 
# From -- ./inp_files/29178.got.cif
#   From: 2010.03.12/outbox.cif.g09.slc.cpg/sg74_15_cif.got.tgz:29178.got - 2010.04.16 15:46:19.
