data_PCOD8301977
_publ_section_title
;
Structure prediction by ZEFSAII (Michael W. Deem and Ramdas Pophale) SiO2 
 PCOD8301977
Probable space group: P 41
;
_chemical_formula_sum "Si O2"
_cell_formula_units_Z 20
_cell_length_a 9.502859
_cell_length_b 9.502859
_cell_length_c 9.967174
_cell_angle_alpha 90.000000
_cell_angle_beta 90.000000
_cell_angle_gamma 90.000000
_cell_volume 900.078962
_symmetry_space_group_name_H-M "P 41"
_symmetry_group_IT_number 76
_symmetry_cell_setting 'tetragonal'
loop_
_space_group_symop_operation_xyz
x,y,z
-y,x,1/4+z
-x,-y,1/2+z
y,-x,3/4+z
loop_
_atom_site_type_symbol
_atom_site_label
_atom_site_fract_x
_atom_site_fract_y
_atom_site_fract_z
Si Si1 0.527978 0.372331 0.106070
Si Si2 0.805068 0.249479 0.987845
Si Si3 0.170038 0.705243 0.934690
Si Si4 0.951519 0.334276 0.725224
Si Si5 0.336914 0.978883 0.952973
O O1 0.530756 0.454823 0.245483
O O2 0.443885 0.229049 0.133626
O O3 0.683681 0.342344 0.054001
O O4 0.832743 0.297307 0.835077
O O5 0.764737 0.086293 0.997724
O O6 0.945685 0.284273 0.068786
O O7 0.296342 0.817061 0.931238
O O8 0.044762 0.744575 0.831335
O O9 0.110821 0.700565 0.082057
O O10 0.993448 0.497286 0.728126
#
# Coordination Sequence:
#
# PCOD8301977 Si02
#       5
#     4   4   4   4   4
#     4  12  27  48  74 111 143 200 256 317 373 452
#     4  12  26  49  74 110 155 198 255 314 383 457
#     4  12  26  47  75 108 151 201 251 311 383 446
#     4  12  27  46  76 109 153 200 254 314 379 455
#     4  12  26  48  75 106 158 197 252 320 378 450
#
# _framework density 22.220274
#
# number of rings (size 3 to 8) (size 9 to 14) (size 15 to 20)
#    0.000    0.000    4.000    4.800    5.600    4.800 
#    0.000    0.000    0.000    0.000    0.000    0.000 
#    0.000    0.000    0.000    0.000    0.000    0.000 
#
# Total GULP energy -248136.847794 kJ/mol
# GULP energy per Si atom -12406.842390 kJ/mol
# Density = 2.216970 g / cm^3
# Si number density = 22.220274 Si / 1000 Ang^3
#
#
#
# Elastic Constant Matrix: (Units=GPa)
#
#
# Indices 1 2 3 4 5 6 
#
# 1 69.5655 41.7690 0.9224 0.0000 0.0000 17.4992
# 2 41.7690 69.5655 0.9224 0.0000 0.0000 -17.4992
# 3 0.9224 0.9224 67.6953 0.0000 0.0000 0.0000
# 4 0.0000 0.0000 0.0000 38.7331 0.0000 0.0000
# 5 0.0000 0.0000 0.0000 0.0000 38.7331 0.0000
# 6 17.4992 -17.4992 0.0000 0.0000 0.0000 2.9194
#
#
#
# Elastic Compliance Matrix: (Units=1/GPa)
#
#
# Indices 1 2 3 4 5 6 
#
# 1 0.001745 0.007239 -0.000122 0.000000 0.000000 0.032937
# 2 0.007239 0.001745 -0.000122 0.000000 0.000000 -0.032937
# 3 -0.000122 -0.000122 0.014775 0.000000 0.000000 0.000000
# 4 0.000000 0.000000 0.000000 0.025818 0.000000 0.000000
# 5 0.000000 0.000000 0.000000 0.000000 0.025818 0.000000
# 6 0.032937 -0.032937 0.000000 0.000000 0.000000 -0.052319
#
#
# Mechanical properties :
#
#
# Convention : Reuss Voigt Hill
#
# Bulk Modulus (GPa) = 31.00421 32.67266 31.83844
# Shear Modulus (GPa) = 348.59941 26.95794 187.77867
#
# Velocity S-wave (km/s) = 12.53890 3.48690 9.20279
# Velocity P-wave (km/s) = 14.95378 5.56302 11.28190
#
# Compressibility (1/GPa) = 0.03225368
#
# Stress axis : x y z
#
# Youngs Moduli (GPa) = 573.22863 573.22863 67.68003
#
# Poissons Ratio (x) = -4.14987 0.00829
# Poissons Ratio (y) = -4.14987 0.00829
# Poissons Ratio (z) = 0.07017 0.07017
#
# Static dielectric constant tensor:
#      x y z
#    x 4.054960 0.000000 0.000000 
#    y 0.000000 4.054960 0.000000 
#    z 0.000000 0.000000 4.337740 
# 
# 
# High freq. dielectric constant tensor:
#      x y z
#    x 1.879120 0.000000 0.000000 
#    y 0.000000 1.879120 0.000000 
#    z 0.000000 0.000000 1.900860 
# 
# From -- ./inp_files/432.got.cif
#   From: 2010.03.12/outbox.cif.g09.slc.cpg/sg76_cif.got.tgz:432.got - 2010.04.16 16:34:25.
