data_PCOD8301629
_publ_section_title
;
Structure prediction by ZEFSAII (Michael W. Deem and Ramdas Pophale) SiO2 
 PCOD8301629
Probable space group: I M M A
;
_chemical_formula_sum "Si O2"
_cell_formula_units_Z 96
_cell_length_a 25.086705
_cell_length_b 17.815865
_cell_length_c 10.586274
_cell_angle_alpha 90.000000
_cell_angle_beta 90.000000
_cell_angle_gamma 90.000000
_cell_volume 4731.443589
_symmetry_space_group_name_H-M "I M M A"
_symmetry_group_IT_number 74
_symmetry_cell_setting 'orthorhombic'
loop_
_space_group_symop_operation_xyz
x,y,z
-x,1/2-y,z
x,-y,-z
-x,1/2+y,-z
-x,-y,-z
x,1/2+y,-z
-x,y,z
x,1/2-y,z
1/2+x,1/2+y,1/2+z
1/2-x,-y,1/2+z
1/2+x,1/2-y,1/2-z
1/2-x,y,1/2-z
1/2-x,1/2-y,1/2-z
1/2+x,y,1/2-z
1/2-x,1/2+y,1/2+z
1/2+x,-y,1/2+z
loop_
_atom_site_type_symbol
_atom_site_label
_atom_site_fract_x
_atom_site_fract_y
_atom_site_fract_z
Si Si1 0.000000 0.067183 0.895653
Si Si2 0.606306 0.418073 0.261230
Si Si3 0.903331 0.161547 0.982955
Si Si4 0.704412 0.663436 0.848773
Si Si5 0.831676 0.937045 0.171489
Si Si6 0.000000 0.974126 0.647110
Si Si7 0.282226 0.569164 0.074120
O O1 0.049903 0.120599 0.909971
O O2 0.000000 0.040454 0.750510
O O3 0.000000 0.000000 0.000000
O O4 0.594295 0.357363 0.369193
O O5 0.652754 0.387075 0.173282
O O6 0.625165 0.495248 0.329703
O O7 0.553675 0.426717 0.174748
O O8 0.907337 0.250000 0.965272
O O9 0.849615 0.131455 0.917384
O O10 0.688948 0.750000 0.839666
O O11 0.750000 0.641834 0.750000
O O12 0.725507 0.642887 0.987877
O O13 0.774417 0.963786 0.120752
O O14 0.822349 0.907682 0.313826
O O15 0.000000 0.000000 0.500000
O O16 0.309581 0.500000 0.000000
#
# Coordination Sequence:
#
# PCOD8301629 Si02
#       7
#     8  16  16  16  16   8  16
#     4  12  21  46  69  98 127 168 223 284 333 396
#     4  12  23  44  69  98 135 179 235 280 341 408
#     4  12  24  40  67 100 131 169 220 282 343 405
#     4  11  24  41  65  99 141 182 223 282 350 412
#     4  11  23  38  66  96 130 172 230 281 339 405
#     4  12  28  44  72 104 136 174 229 295 346 401
#     4  11  22  38  61  94 130 178 226 280 334 412
#
# _framework density 20.289791000000001
#
# number of rings (size 3 to 8) (size 9 to 14) (size 15 to 20)
#    0.000    0.500    5.000    4.250    2.333    2.667 
#    0.000    2.917    0.000    3.000    0.000    0.000 
#    0.000    0.000    0.000    0.000    0.000    0.000 
#
# Total GULP energy -595207.901495 kJ/mol
# GULP energy per Si atom -12400.164614 kJ/mol
# Density = 2.024361 g / cm^3
# Si number density = 20.289791 Si / 1000 Ang^3
#
#
#
# Elastic Constant Matrix: (Units=GPa)
#
#
# Indices 1 2 3 4 5 6 
#
# 1 106.6053 45.5757 35.4861 0.0000 0.0000 0.0000
# 2 45.5757 116.5493 47.8244 0.0000 0.0000 0.0000
# 3 35.4861 47.8244 142.9304 0.0000 0.0000 0.0000
# 4 0.0000 0.0000 0.0000 25.1648 0.0000 0.0000
# 5 0.0000 0.0000 0.0000 0.0000 30.2113 0.0000
# 6 0.0000 0.0000 0.0000 0.0000 0.0000 24.9900
#
#
#
# Elastic Compliance Matrix: (Units=1/GPa)
#
#
# Indices 1 2 3 4 5 6 
#
# 1 0.011561 -0.003875 -0.001574 0.000000 0.000000 0.000000
# 2 -0.003875 0.011244 -0.002800 0.000000 0.000000 0.000000
# 3 -0.001574 -0.002800 0.008324 0.000000 0.000000 0.000000
# 4 0.000000 0.000000 0.000000 0.039738 0.000000 0.000000
# 5 0.000000 0.000000 0.000000 0.000000 0.033100 0.000000
# 6 0.000000 0.000000 0.000000 0.000000 0.000000 0.040016
#
#
# Mechanical properties :
#
#
# Convention : Reuss Voigt Hill
#
# Bulk Modulus (GPa) = 68.34647 69.31748 68.83198
# Shear Modulus (GPa) = 30.23728 31.88649 31.06189
#
# Velocity S-wave (km/s) = 3.86459 3.96858 3.91693
# Velocity P-wave (km/s) = 7.32610 7.43219 7.37933
#
# Compressibility (1/GPa) = 0.01463133
#
# Stress axis : x y z
#
# Youngs Moduli (GPa) = 86.49854 88.93294 120.13306
#
# Poissons Ratio (x) = 0.34462 0.18905
# Poissons Ratio (y) = 0.33519 0.33641
# Poissons Ratio (z) = 0.13612 0.24904
#
# Static dielectric constant tensor:
#      x y z
#    x 3.861240 0.000000 0.000000 
#    y 0.000000 3.515600 0.000000 
#    z 0.000000 0.000000 3.888930 
# 
# 
# High freq. dielectric constant tensor:
#      x y z
#    x 1.802040 0.000000 0.000000 
#    y 0.000000 1.775360 0.000000 
#    z 0.000000 0.000000 1.802060 
# 
# From -- ./inp_files/25232.got.cif
#   From: 2010.03.12/outbox.cif.g09.slc.cpg/sg74_13_cif.got.tgz:25232.got - 2010.04.16 15:46:19.
