data_PCOD8301111
_publ_section_title
;
Structure prediction by ZEFSAII (Michael W. Deem and Ramdas Pophale) SiO2 
 PCOD8301111
Probable space group: I M M A
;
_chemical_formula_sum "Si O2"
_cell_formula_units_Z 96
_cell_length_a 18.775267
_cell_length_b 28.076862
_cell_length_c 9.130146
_cell_angle_alpha 90.000000
_cell_angle_beta 90.000000
_cell_angle_gamma 90.000000
_cell_volume 4812.961765
_symmetry_space_group_name_H-M "I M M A"
_symmetry_group_IT_number 74
_symmetry_cell_setting 'orthorhombic'
loop_
_space_group_symop_operation_xyz
x,y,z
-x,1/2-y,z
x,-y,-z
-x,1/2+y,-z
-x,-y,-z
x,1/2+y,-z
-x,y,z
x,1/2-y,z
1/2+x,1/2+y,1/2+z
1/2-x,-y,1/2+z
1/2+x,1/2-y,1/2-z
1/2-x,y,1/2-z
1/2-x,1/2-y,1/2-z
1/2+x,y,1/2-z
1/2-x,1/2+y,1/2+z
1/2+x,-y,1/2+z
loop_
_atom_site_type_symbol
_atom_site_label
_atom_site_fract_x
_atom_site_fract_y
_atom_site_fract_z
Si Si1 0.321884 0.047829 0.075711
Si Si2 0.579300 0.140936 0.457895
Si Si3 0.796714 0.636365 0.390140
Si Si4 0.653200 0.954516 0.594910
Si Si5 0.578710 0.194926 0.762231
Si Si6 0.795805 0.196841 0.106620
O O1 0.364071 0.047410 0.230756
O O2 0.237394 0.049042 0.089429
O O3 0.337672 0.093084 0.971674
O O4 0.349202 0.000000 0.000000
O O5 0.500000 0.136953 0.391299
O O6 0.613169 0.089060 0.481062
O O7 0.578679 0.166382 0.612675
O O8 0.627798 0.173617 0.351094
O O9 0.750000 0.618560 0.250000
O O10 0.859004 0.674174 0.362144
O O11 0.738765 0.662513 0.488482
O O12 0.626988 0.000000 0.500000
O O13 0.500000 0.189606 0.835701
O O14 0.595852 0.250000 0.731356
O O15 0.805172 0.250000 0.042906
O O16 0.750000 0.197817 0.250000
#
# Coordination Sequence:
#
# PCOD8301111 Si02
#       6
#    16  16  16  16  16  16
#     4  10  22  35  61  93 122 156 203 260 310 365
#     4  11  22  38  62  89 122 163 207 256 314 376
#     4  12  22  36  64  90 124 162 211 256 310 369
#     4  10  21  39  62  87 123 160 205 255 313 369
#     4  10  22  39  61  92 128 165 209 259 309 367
#     4  11  23  39  60  91 126 159 205 264 312 366
#
# _framework density 19.946137
#
# number of rings (size 3 to 8) (size 9 to 14) (size 15 to 20)
#    0.000    1.333    3.333    2.000    7.000    2.000 
#    0.000    3.333    0.000    2.000    0.000    0.000 
#    0.000    0.000    0.000    0.000    0.000    0.000 
#
# Total GULP energy -594892.294861 kJ/mol
# GULP energy per Si atom -12393.589476 kJ/mol
# Density = 1.990074 g / cm^3
# Si number density = 19.946137 Si / 1000 Ang^3
#
#
#
# Elastic Constant Matrix: (Units=GPa)
#
#
# Indices 1 2 3 4 5 6 
#
# 1 81.8009 49.6184 25.8302 0.0000 0.0000 0.0000
# 2 49.6184 175.5905 60.7134 0.0000 0.0000 0.0000
# 3 25.8302 60.7134 90.6336 0.0001 0.0000 0.0000
# 4 0.0000 0.0000 0.0001 29.8965 0.0000 0.0000
# 5 0.0000 0.0000 0.0000 0.0000 12.2179 0.0000
# 6 0.0000 0.0000 0.0000 0.0000 0.0000 16.5530
#
#
#
# Elastic Compliance Matrix: (Units=1/GPa)
#
#
# Indices 1 2 3 4 5 6 
#
# 1 0.014993 -0.003591 -0.001867 0.000000 0.000000 0.000000
# 2 -0.003591 0.008272 -0.004518 0.000000 0.000000 0.000000
# 3 -0.001867 -0.004518 0.014592 0.000000 0.000000 0.000000
# 4 0.000000 0.000000 0.000000 0.033449 0.000000 0.000000
# 5 0.000000 0.000000 0.000000 0.000000 0.081847 0.000000
# 6 0.000000 0.000000 0.000000 0.000000 0.000000 0.060412
#
#
# Mechanical properties :
#
#
# Convention : Reuss Voigt Hill
#
# Bulk Modulus (GPa) = 55.85219 68.92767 62.38993
# Shear Modulus (GPa) = 20.87817 25.85767 23.36792
#
# Velocity S-wave (km/s) = 3.23883 3.60443 3.42651
# Velocity P-wave (km/s) = 6.48452 7.20794 6.85578
#
# Compressibility (1/GPa) = 0.01790440
#
# Stress axis : x y z
#
# Youngs Moduli (GPa) = 66.69936 120.89132 68.53095
#
# Poissons Ratio (x) = 0.43412 0.12797
# Poissons Ratio (y) = 0.23951 0.30961
# Poissons Ratio (z) = 0.12455 0.54616
#
# Static dielectric constant tensor:
#      x y z
#    x 3.948470 0.000000 0.000000 
#    y 0.000000 4.074750 0.000000 
#    z 0.000000 0.000000 3.357780 
# 
# 
# High freq. dielectric constant tensor:
#      x y z
#    x 1.763330 0.000000 0.000000 
#    y 0.000000 1.797640 0.000000 
#    z 0.000000 0.000000 1.765090 
# 
# From -- ./inp_files/12693.got.cif
#   From: 2010.03.12/outbox.cif.g09.slc.cpg/sg74_7_cif.got.tgz:12693.got - 2010.04.16 15:46:19.
