data_PCOD8301094
_publ_section_title
;
Structure prediction by ZEFSAII (Michael W. Deem and Ramdas Pophale) SiO2 
 PCOD8301094
Probable space group: I M M A
;
_chemical_formula_sum "Si O2"
_cell_formula_units_Z 96
_cell_length_a 21.599709
_cell_length_b 15.514425
_cell_length_c 13.874411
_cell_angle_alpha 90.000000
_cell_angle_beta 90.000000
_cell_angle_gamma 90.000000
_cell_volume 4649.413153
_symmetry_space_group_name_H-M "I M M A"
_symmetry_group_IT_number 74
_symmetry_cell_setting 'orthorhombic'
loop_
_space_group_symop_operation_xyz
x,y,z
-x,1/2-y,z
x,-y,-z
-x,1/2+y,-z
-x,-y,-z
x,1/2+y,-z
-x,y,z
x,1/2-y,z
1/2+x,1/2+y,1/2+z
1/2-x,-y,1/2+z
1/2+x,1/2-y,1/2-z
1/2-x,y,1/2-z
1/2-x,1/2-y,1/2-z
1/2+x,y,1/2-z
1/2-x,1/2+y,1/2+z
1/2+x,-y,1/2+z
loop_
_atom_site_type_symbol
_atom_site_label
_atom_site_fract_x
_atom_site_fract_y
_atom_site_fract_z
Si Si1 0.749851 0.349629 0.364371
Si Si2 0.348647 0.984196 0.896690
Si Si3 0.567003 0.577612 0.736679
Si Si4 0.616098 0.845464 0.559206
Si Si5 0.678602 0.153905 0.779282
Si Si6 0.570965 0.396056 0.638908
O O1 0.769850 0.250000 0.385511
O O2 0.750000 0.366241 0.250000
O O3 0.789910 0.423341 0.415642
O O4 0.685119 0.372355 0.413276
O O5 0.388789 0.923544 0.827931
O O6 0.336591 0.078901 0.854382
O O7 0.381117 0.000000 0.000000
O O8 0.500000 0.589173 0.782650
O O9 0.579418 0.653387 0.660619
O O10 0.573807 0.492645 0.673957
O O11 0.613426 0.750000 0.516766
O O12 0.585988 0.902106 0.474754
O O13 0.674607 0.250000 0.826142
O O14 0.750000 0.137465 0.750000
O O15 0.626801 0.154220 0.693687
O O16 0.500000 0.359003 0.655911
#
# Coordination Sequence:
#
# PCOD8301094 Si02
#       6
#    16  16  16  16  16  16
#     4  10  21  39  60  87 123 160 201 247 303 367
#     4  11  24  39  62  86 114 163 206 252 306 354
#     4  10  22  40  59  83 118 158 202 250 298 361
#     4  11  22  35  59  93 123 154 195 245 305 374
#     4  10  23  41  61  91 126 159 205 259 305 361
#     4  10  22  40  63  91 126 165 199 242 312 384
#
# _framework density 20.647767000000002
#
# number of rings (size 3 to 8) (size 9 to 14) (size 15 to 20)
#    0.000    1.667    1.667    2.000    4.667    4.667 
#    0.000    0.000    0.000    0.000    0.000    2.333 
#    0.000    0.000    0.000    0.000    0.000    0.000 
#
# Total GULP energy -594642.716537 kJ/mol
# GULP energy per Si atom -12388.389928 kJ/mol
# Density = 2.060077 g / cm^3
# Si number density = 20.647767 Si / 1000 Ang^3
#
#
#
# Elastic Constant Matrix: (Units=GPa)
#
#
# Indices 1 2 3 4 5 6 
#
# 1 125.7394 30.5889 45.7036 0.0000 0.0000 0.0000
# 2 30.5889 49.6205 15.9777 0.0000 0.0000 0.0000
# 3 45.7036 15.9777 114.0385 0.0000 0.0000 0.0000
# 4 0.0000 0.0000 0.0000 11.8676 0.0000 0.0000
# 5 0.0000 0.0000 0.0000 0.0000 24.7345 0.0000
# 6 0.0000 0.0000 0.0000 0.0000 0.0000 21.2932
#
#
#
# Elastic Compliance Matrix: (Units=1/GPa)
#
#
# Indices 1 2 3 4 5 6 
#
# 1 0.010518 -0.005369 -0.003463 0.000000 0.000000 0.000000
# 2 -0.005369 0.023845 -0.001189 0.000000 0.000000 0.000000
# 3 -0.003463 -0.001189 0.010323 0.000000 0.000000 0.000000
# 4 0.000000 0.000000 0.000000 0.084263 0.000000 0.000000
# 5 0.000000 0.000000 0.000000 0.000000 0.040429 0.000000
# 6 0.000000 0.000000 0.000000 0.000000 0.000000 0.046963
#
#
# Mechanical properties :
#
#
# Convention : Reuss Voigt Hill
#
# Bulk Modulus (GPa) = 40.57674 52.65988 46.61831
# Shear Modulus (GPa) = 20.44159 24.72094 22.58127
#
# Velocity S-wave (km/s) = 3.14986 3.46391 3.31061
# Velocity P-wave (km/s) = 5.73789 6.44651 6.10250
#
# Compressibility (1/GPa) = 0.02464466
#
# Stress axis : x y z
#
# Youngs Moduli (GPa) = 95.07741 41.93674 96.86638
#
# Poissons Ratio (x) = 0.22514 0.33545
# Poissons Ratio (y) = 0.51044 0.11520
# Poissons Ratio (z) = 0.32926 0.04988
#
# Static dielectric constant tensor:
#      x y z
#    x 4.007230 0.000000 0.000000 
#    y 0.000000 3.799540 0.000000 
#    z 0.000000 0.000000 3.650000 
# 
# 
# High freq. dielectric constant tensor:
#      x y z
#    x 1.810940 0.000000 0.000000 
#    y 0.000000 1.813910 0.000000 
#    z 0.000000 0.000000 1.795750 
# 
# From -- ./inp_files/35259.got.cif
#   From: 2010.03.12/outbox.cif.g09.slc.cpg/sg74_18_cif.got.tgz:35259.got - 2010.04.16 15:46:19.
