data_PCOD8301157
_publ_section_title
;
Structure prediction by ZEFSAII (Michael W. Deem and Ramdas Pophale) SiO2 
 PCOD8301157
Probable space group: I M M A
;
_chemical_formula_sum "Si O2"
_cell_formula_units_Z 104
_cell_length_a 9.008843
_cell_length_b 22.982238
_cell_length_c 26.883408
_cell_angle_alpha 90.000000
_cell_angle_beta 90.000000
_cell_angle_gamma 90.000000
_cell_volume 5566.031495
_symmetry_space_group_name_H-M "I M M A"
_symmetry_group_IT_number 74
_symmetry_cell_setting 'orthorhombic'
loop_
_space_group_symop_operation_xyz
x,y,z
-x,1/2-y,z
x,-y,-z
-x,1/2+y,-z
-x,-y,-z
x,1/2+y,-z
-x,y,z
x,1/2-y,z
1/2+x,1/2+y,1/2+z
1/2-x,-y,1/2+z
1/2+x,1/2-y,1/2-z
1/2-x,y,1/2-z
1/2-x,1/2-y,1/2-z
1/2+x,y,1/2-z
1/2-x,1/2+y,1/2+z
1/2+x,-y,1/2+z
loop_
_atom_site_type_symbol
_atom_site_label
_atom_site_fract_x
_atom_site_fract_y
_atom_site_fract_z
Si Si1 0.667204 0.974507 0.446139
Si Si2 0.669908 0.250000 0.301195
Si Si3 0.174771 0.250000 0.567135
Si Si4 0.672934 0.035557 0.137865
Si Si5 0.673415 0.250000 0.460772
Si Si6 0.674763 0.557989 0.301132
Si Si7 0.327242 0.344444 0.380010
Si Si8 0.832296 0.139207 0.894368
O O1 0.500000 0.992389 0.428111
O O2 0.680198 0.904392 0.442059
O O3 0.697565 0.000000 0.500000
O O4 0.794909 0.000094 0.411946
O O5 0.500000 0.250000 0.288136
O O6 0.750000 0.250000 0.250000
O O7 0.711823 0.193199 0.332007
O O8 0.238281 0.250000 0.511770
O O9 0.224386 0.306721 0.597709
O O10 0.000000 0.250000 0.563467
O O11 0.500000 0.035039 0.150550
O O12 0.725347 0.100080 0.126011
O O13 0.759745 0.005188 0.183563
O O14 0.500000 0.250000 0.473394
O O15 0.714099 0.192132 0.429456
O O16 0.500000 0.551389 0.293346
O O17 0.750000 0.579184 0.250000
O O18 0.712220 0.605204 0.343840
O O19 0.500000 0.362089 0.381861
O O20 0.000000 0.162902 0.890129
#
# Coordination Sequence:
#
# PCOD8301157 Si02
#       8
#    16   8   8  16   8  16  16  16
#     4   9  19  36  58  82 109 148 193 234 279 333
#     4   9  19  35  55  76 100 137 184 235 287 330
#     4  12  25  37  56  86 121 151 187 240 289 338
#     4  11  22  34  53  84 118 149 183 229 281 336
#     4   9  20  38  59  76 102 154 203 241 289 342
#     4  10  21  40  65  89 114 148 188 235 288 344
#     4   9  19  37  56  76 106 147 196 239 278 338
#     4   9  20  39  60  84 114 151 193 232 279 345
#
# _framework density 18.684767000000001
#
# number of rings (size 3 to 8) (size 9 to 14) (size 15 to 20)
#    0.000    2.308    0.000    4.385    2.154    5.231 
#    0.000    3.462    0.000    0.000    0.000    0.000 
#    0.000    0.000    0.000    0.000    0.000    0.000 
#
# Total GULP energy -644655.180066 kJ/mol
# GULP energy per Si atom -12397.215001 kJ/mol
# Density = 1.864224 g / cm^3
# Si number density = 18.684767 Si / 1000 Ang^3
#
#
#
# Elastic Constant Matrix: (Units=GPa)
#
#
# Indices 1 2 3 4 5 6 
#
# 1 110.1276 63.5834 55.9098 0.0000 0.0000 0.0000
# 2 63.5834 116.9207 52.1876 0.0000 0.0000 0.0000
# 3 55.9098 52.1876 110.5704 0.0000 0.0000 0.0000
# 4 0.0000 0.0000 0.0000 16.7918 0.0000 0.0000
# 5 0.0000 0.0000 0.0000 0.0000 34.2834 0.0000
# 6 0.0000 0.0000 0.0000 0.0000 0.0000 17.7921
#
#
#
# Elastic Compliance Matrix: (Units=1/GPa)
#
#
# Indices 1 2 3 4 5 6 
#
# 1 0.014955 -0.006027 -0.004717 0.000000 0.000000 0.000000
# 2 -0.006027 0.013265 -0.003213 0.000000 0.000000 0.000000
# 3 -0.004717 -0.003213 0.012946 0.000000 0.000000 0.000000
# 4 0.000000 0.000000 0.000000 0.059553 0.000000 0.000000
# 5 0.000000 0.000000 0.000000 0.000000 0.029169 0.000000
# 6 0.000000 0.000000 0.000000 0.000000 0.000000 0.056205
#
#
# Mechanical properties :
#
#
# Convention : Reuss Voigt Hill
#
# Bulk Modulus (GPa) = 75.46920 75.66448 75.56684
# Shear Modulus (GPa) = 22.89126 24.83599 23.86363
#
# Velocity S-wave (km/s) = 3.50398 3.64979 3.57763
# Velocity P-wave (km/s) = 7.53983 7.63836 7.58925
#
# Compressibility (1/GPa) = 0.01325044
#
# Stress axis : x y z
#
# Youngs Moduli (GPa) = 66.86644 75.38808 77.24515
#
# Poissons Ratio (x) = 0.45439 0.36439
# Poissons Ratio (y) = 0.40303 0.24819
# Poissons Ratio (z) = 0.31543 0.24222
#
# Static dielectric constant tensor:
#      x y z
#    x 3.333250 0.000000 0.000000 
#    y 0.000000 3.394350 0.000000 
#    z 0.000000 0.000000 3.432120 
# 
# 
# High freq. dielectric constant tensor:
#      x y z
#    x 1.719690 0.000000 0.000000 
#    y 0.000000 1.726130 0.000000 
#    z 0.000000 0.000000 1.723610 
# 
# From -- ./inp_files/64552.got.cif
#   From: 2010.03.12/outbox.cif.g09.slc.cpg/sg74_33_cif.got.tgz:64552.got - 2010.04.16 15:46:19.
