data_PCOD8301524
_publ_section_title
;
Structure prediction by ZEFSAII (Michael W. Deem and Ramdas Pophale) SiO2 
 PCOD8301524
Probable space group: I M M A
;
_chemical_formula_sum "Si O2"
_cell_formula_units_Z 96
_cell_length_a 9.033715
_cell_length_b 18.885916
_cell_length_c 32.445276
_cell_angle_alpha 90.000000
_cell_angle_beta 90.000000
_cell_angle_gamma 90.000000
_cell_volume 5535.487976
_symmetry_space_group_name_H-M "I M M A"
_symmetry_group_IT_number 74
_symmetry_cell_setting 'orthorhombic'
loop_
_space_group_symop_operation_xyz
x,y,z
-x,1/2-y,z
x,-y,-z
-x,1/2+y,-z
-x,-y,-z
x,1/2+y,-z
-x,y,z
x,1/2-y,z
1/2+x,1/2+y,1/2+z
1/2-x,-y,1/2+z
1/2+x,1/2-y,1/2-z
1/2-x,y,1/2-z
1/2-x,1/2-y,1/2-z
1/2+x,y,1/2-z
1/2-x,1/2+y,1/2+z
1/2+x,-y,1/2+z
loop_
_atom_site_type_symbol
_atom_site_label
_atom_site_fract_x
_atom_site_fract_y
_atom_site_fract_z
Si Si1 0.329764 0.832162 0.011699
Si Si2 0.828015 0.170378 0.658828
Si Si3 0.174575 0.466743 0.375564
Si Si4 0.675443 0.327311 0.081358
Si Si5 0.675258 0.901629 0.414403
Si Si6 0.171308 0.463634 0.708344
O O1 0.500000 0.855733 0.017558
O O2 0.311816 0.750000 0.023341
O O3 0.225200 0.879584 0.040119
O O4 0.274701 0.845799 0.965062
O O5 0.798127 0.250000 0.674633
O O6 0.734837 0.156578 0.617755
O O7 0.779732 0.115576 0.694543
O O8 0.000000 0.158104 0.647557
O O9 0.230357 0.387887 0.387155
O O10 0.259045 0.521497 0.404664
O O11 0.213725 0.481158 0.327775
O O12 0.000000 0.476450 0.383310
O O13 0.500000 0.322665 0.081776
O O14 0.739745 0.250000 0.094649
O O15 0.500000 0.904678 0.411851
O O16 0.250000 0.487040 0.750000
O O17 0.000000 0.465737 0.718237
#
# Coordination Sequence:
#
# PCOD8301524 Si02
#       6
#    16  16  16  16  16  16
#     4   9  17  30  48  69  94 125 160 198 238 274
#     4   9  18  33  50  67  91 125 164 202 237 271
#     4   9  18  34  53  71  93 121 154 193 237 280
#     4   8  15  30  54  78  92 111 154 203 237 272
#     4  11  21  30  43  67  99 132 165 196 226 268
#     4   9  18  31  48  70  94 122 153 187 231 280
#
# _framework density 17.342645000000001
#
# number of rings (size 3 to 8) (size 9 to 14) (size 15 to 20)
#    0.000    2.833    0.000    4.000    0.000    6.333 
#    0.000    4.167    0.000    2.000    0.000    0.000 
#    0.000    0.000    0.000    0.000    0.000    0.333 
#
# Total GULP energy -595068.943594 kJ/mol
# GULP energy per Si atom -12397.269658 kJ/mol
# Density = 1.730317 g / cm^3
# Si number density = 17.342645 Si / 1000 Ang^3
#
#
#
# Elastic Constant Matrix: (Units=GPa)
#
#
# Indices 1 2 3 4 5 6 
#
# 1 57.1094 39.4699 39.3456 0.0000 0.0000 0.0000
# 2 39.4699 114.7240 79.8608 0.0000 0.0000 0.0000
# 3 39.3456 79.8608 119.7829 0.0000 0.0000 0.0000
# 4 0.0000 0.0000 0.0000 18.1191 0.0000 0.0000
# 5 0.0000 0.0000 0.0000 0.0000 22.6695 0.0000
# 6 0.0000 0.0000 0.0000 0.0000 0.0000 6.2224
#
#
#
# Elastic Compliance Matrix: (Units=1/GPa)
#
#
# Indices 1 2 3 4 5 6 
#
# 1 0.024193 -0.005209 -0.004474 0.000000 0.000000 0.000000
# 2 -0.005209 0.017387 -0.009881 0.000000 0.000000 0.000000
# 3 -0.004474 -0.009881 0.016406 0.000000 0.000000 0.000000
# 4 0.000000 0.000000 0.000000 0.055191 0.000000 0.000000
# 5 0.000000 0.000000 0.000000 0.000000 0.044112 0.000000
# 6 0.000000 0.000000 0.000000 0.000000 0.000000 0.160710
#
#
# Mechanical properties :
#
#
# Convention : Reuss Voigt Hill
#
# Bulk Modulus (GPa) = 53.02890 67.66322 60.34606
# Shear Modulus (GPa) = 13.75850 18.26486 16.01168
#
# Velocity S-wave (km/s) = 2.81967 3.24879 3.04181
# Velocity P-wave (km/s) = 6.42217 7.29198 6.87086
#
# Compressibility (1/GPa) = 0.01885764
#
# Stress axis : x y z
#
# Youngs Moduli (GPa) = 41.33509 57.51384 60.95398
#
# Poissons Ratio (x) = 0.29959 0.27269
# Poissons Ratio (y) = 0.21532 0.60230
# Poissons Ratio (z) = 0.18492 0.56830
#
# Static dielectric constant tensor:
#      x y z
#    x 2.953680 0.000000 0.000000 
#    y 0.000000 3.492810 0.000000 
#    z 0.000000 0.000000 3.151360 
# 
# 
# High freq. dielectric constant tensor:
#      x y z
#    x 1.644180 0.000000 0.000000 
#    y 0.000000 1.664670 0.000000 
#    z 0.000000 0.000000 1.658330 
# 
# From -- ./inp_files/64292.got.cif
#   From: 2010.03.12/outbox.cif.g09.slc.cpg/sg74_33_cif.got.tgz:64292.got - 2010.04.16 15:46:19.
