data_PCOD8301032
_publ_section_title
;
Structure prediction by ZEFSAII (Michael W. Deem and Ramdas Pophale) SiO2 
 PCOD8301032
Probable space group: I M M A
;
_chemical_formula_sum "Si O2"
_cell_formula_units_Z 56
_cell_length_a 10.821021
_cell_length_b 8.839070
_cell_length_c 28.275281
_cell_angle_alpha 90.000000
_cell_angle_beta 90.000000
_cell_angle_gamma 90.000000
_cell_volume 2704.467350
_symmetry_space_group_name_H-M "I M M A"
_symmetry_group_IT_number 74
_symmetry_cell_setting 'orthorhombic'
loop_
_space_group_symop_operation_xyz
x,y,z
-x,1/2-y,z
x,-y,-z
-x,1/2+y,-z
-x,-y,-z
x,1/2+y,-z
-x,y,z
x,1/2-y,z
1/2+x,1/2+y,1/2+z
1/2-x,-y,1/2+z
1/2+x,1/2-y,1/2-z
1/2-x,y,1/2-z
1/2-x,1/2-y,1/2-z
1/2+x,y,1/2-z
1/2-x,1/2+y,1/2+z
1/2+x,-y,1/2+z
loop_
_atom_site_type_symbol
_atom_site_label
_atom_site_fract_x
_atom_site_fract_y
_atom_site_fract_z
Si Si1 0.702746 0.427711 0.885311
Si Si2 0.856005 0.918555 0.953490
Si Si3 0.857577 0.925125 0.712657
Si Si4 0.500000 0.572356 0.949447
O O1 0.684490 0.250000 0.889982
O O2 0.835447 0.483214 0.905037
O O3 0.673652 0.472383 0.831941
O O4 0.618024 0.518482 0.921112
O O5 0.797799 0.750000 0.949161
O O6 0.000000 0.903485 0.960734
O O7 0.797950 0.000000 0.000000
O O8 0.847028 0.750000 0.698370
O O9 0.750000 0.966811 0.750000
O O10 0.000000 0.958913 0.730268
O O11 0.500000 0.750000 0.954216
O O12 0.500000 0.500000 0.000000
#
# Coordination Sequence:
#
# PCOD8301032 Si02
#       4
#    16  16  16   8
#     4  12  24  39  61  91 126 163 206 259 319 381
#     4  10  21  38  60  87 123 167 212 258 310 376
#     4  10  22  42  67  93 124 166 215 270 329 394
#     4  12  24  40  62  90 126 166 210 258 313 380
#
# _framework density 20.706479999999999
#
# number of rings (size 3 to 8) (size 9 to 14) (size 15 to 20)
#    0.000    1.143    1.429    5.571    0.000    3.429 
#    0.000    2.857    0.000    0.000    0.000    0.000 
#    0.000    0.000    0.000    0.000    0.000    0.000 
#
# Total GULP energy -347042.560019 kJ/mol
# GULP energy per Si atom -12394.377144 kJ/mol
# Density = 2.065935 g / cm^3
# Si number density = 20.706480 Si / 1000 Ang^3
#
#
#
# Elastic Constant Matrix: (Units=GPa)
#
#
# Indices 1 2 3 4 5 6 
#
# 1 85.2495 45.2333 56.4953 0.0000 0.0000 0.0000
# 2 45.2333 180.8206 77.6362 0.0000 0.0000 0.0000
# 3 56.4953 77.6362 129.2929 0.0000 0.0000 0.0000
# 4 0.0000 0.0000 0.0000 42.5194 0.0000 0.0000
# 5 0.0000 0.0000 0.0000 0.0000 48.1012 0.0000
# 6 0.0000 0.0000 0.0000 0.0000 0.0000 21.6347
#
#
#
# Elastic Compliance Matrix: (Units=1/GPa)
#
#
# Indices 1 2 3 4 5 6 
#
# 1 0.016776 -0.001414 -0.006481 0.000000 0.000000 0.000000
# 2 -0.001414 0.007571 -0.003928 0.000000 0.000000 0.000000
# 3 -0.006481 -0.003928 0.012925 0.000000 0.000000 0.000000
# 4 0.000000 0.000000 0.000000 0.023519 0.000000 0.000000
# 5 0.000000 0.000000 0.000000 0.000000 0.020790 0.000000
# 6 0.000000 0.000000 0.000000 0.000000 0.000000 0.046222
#
#
# Mechanical properties :
#
#
# Convention : Reuss Voigt Hill
#
# Bulk Modulus (GPa) = 73.39475 83.78807 78.59141
# Shear Modulus (GPa) = 32.05343 36.85093 34.45218
#
# Velocity S-wave (km/s) = 3.93872 4.22320 4.08344
# Velocity P-wave (km/s) = 7.49713 8.02079 7.76338
#
# Compressibility (1/GPa) = 0.01362495
#
# Stress axis : x y z
#
# Youngs Moduli (GPa) = 59.61044 132.09060 77.36864
#
# Poissons Ratio (x) = 0.18674 0.50145
# Poissons Ratio (y) = 0.08427 0.30391
# Poissons Ratio (z) = 0.38635 0.51887
#
# Static dielectric constant tensor:
#      x y z
#    x 4.412780 0.000000 0.000000 
#    y 0.000000 3.987620 0.000000 
#    z 0.000000 0.000000 3.700280 
# 
# 
# High freq. dielectric constant tensor:
#      x y z
#    x 1.823490 0.000000 0.000000 
#    y 0.000000 1.821770 0.000000 
#    z 0.000000 0.000000 1.802360 
# 
# From -- ./inp_files/63245.got.cif
#   From: 2010.03.12/outbox.cif.g09.slc.cpg/sg74_32_cif.got.tgz:63245.got - 2010.04.16 15:46:19.
