data_PCOD8301187
_publ_section_title
;
Structure prediction by ZEFSAII (Michael W. Deem and Ramdas Pophale) SiO2 
 PCOD8301187
Probable space group: I M M A
;
_chemical_formula_sum "Si O2"
_cell_formula_units_Z 112
_cell_length_a 28.790844
_cell_length_b 14.440527
_cell_length_c 14.643321
_cell_angle_alpha 90.000000
_cell_angle_beta 90.000000
_cell_angle_gamma 90.000000
_cell_volume 6088.033339
_symmetry_space_group_name_H-M "I M M A"
_symmetry_group_IT_number 74
_symmetry_cell_setting 'orthorhombic'
loop_
_space_group_symop_operation_xyz
x,y,z
-x,1/2-y,z
x,-y,-z
-x,1/2+y,-z
-x,-y,-z
x,1/2+y,-z
-x,y,z
x,1/2-y,z
1/2+x,1/2+y,1/2+z
1/2-x,-y,1/2+z
1/2+x,1/2-y,1/2-z
1/2-x,y,1/2-z
1/2-x,1/2-y,1/2-z
1/2+x,y,1/2-z
1/2-x,1/2+y,1/2+z
1/2+x,-y,1/2+z
loop_
_atom_site_type_symbol
_atom_site_label
_atom_site_fract_x
_atom_site_fract_y
_atom_site_fract_z
Si Si1 0.816283 0.608682 0.484409
Si Si2 0.320118 0.851919 0.329625
Si Si3 0.946026 0.487880 0.393522
Si Si4 0.213458 0.106846 0.012444
Si Si5 0.630017 0.146921 0.160225
Si Si6 0.297773 0.556762 0.708173
Si Si7 0.385313 0.852407 0.174225
O O1 0.817032 0.500000 0.500000
O O2 0.764226 0.651099 0.490832
O O3 0.846189 0.657586 0.562227
O O4 0.839034 0.628521 0.385989
O O5 0.298908 0.750000 0.300174
O O6 0.323972 0.851366 0.440783
O O7 0.370089 0.861357 0.280625
O O8 0.291363 0.945290 0.305102
O O9 0.934886 0.500000 0.500000
O O10 0.920626 0.397810 0.353326
O O11 0.927605 0.579195 0.343568
O O12 0.000000 0.475743 0.373322
O O13 0.195231 0.117916 0.116012
O O14 0.220964 0.000000 0.000000
O O15 0.624495 0.250000 0.202147
O O16 0.659469 0.079529 0.225815
O O17 0.250000 0.593968 0.750000
O O18 0.404347 0.750000 0.153261
#
# Coordination Sequence:
#
# PCOD8301187 Si02
#       7
#    16  16  16  16  16  16  16
#     4  11  18  34  53  75 116 157 191 232 277 328
#     4  10  22  35  55  81 110 149 193 240 283 330
#     4  11  23  40  61  83 113 148 185 237 292 345
#     4   9  21  34  52  79 113 155 196 236 272 323
#     4  12  23  37  57  81 112 155 195 233 279 335
#     4  11  21  39  56  79 117 157 196 233 280 334
#     4  11  21  35  57  83 111 148 187 231 290 349
#
# _framework density 18.396746
#
# number of rings (size 3 to 8) (size 9 to 14) (size 15 to 20)
#    0.000    1.286    5.714    0.429    4.000    2.857 
#    0.000    1.429    0.000    0.000    0.000    2.000 
#    0.000    2.286    0.000    0.000    0.000    0.000 
#
# Total GULP energy -693877.747443 kJ/mol
# GULP energy per Si atom -12390.674061 kJ/mol
# Density = 1.835487 g / cm^3
# Si number density = 18.396746 Si / 1000 Ang^3
#
#
#
# Elastic Constant Matrix: (Units=GPa)
#
#
# Indices 1 2 3 4 5 6 
#
# 1 96.4835 36.4346 52.9778 0.0000 0.0000 0.0000
# 2 36.4346 116.8961 32.6664 0.0000 0.0000 0.0000
# 3 52.9778 32.6664 108.2599 0.0000 0.0000 0.0000
# 4 0.0000 0.0000 0.0000 18.6321 0.0000 0.0000
# 5 0.0000 0.0000 0.0000 0.0000 17.9598 0.0000
# 6 0.0000 0.0000 0.0000 0.0000 0.0000 40.7190
#
#
#
# Elastic Compliance Matrix: (Units=1/GPa)
#
#
# Indices 1 2 3 4 5 6 
#
# 1 0.015003 -0.002866 -0.006477 0.000000 0.000000 0.000000
# 2 -0.002866 0.009890 -0.001582 0.000000 0.000000 0.000000
# 3 -0.006477 -0.001582 0.012884 0.000000 0.000000 0.000000
# 4 0.000000 0.000000 0.000000 0.053671 0.000000 0.000000
# 5 0.000000 0.000000 0.000000 0.000000 0.055680 0.000000
# 6 0.000000 0.000000 0.000000 0.000000 0.000000 0.024559
#
#
# Mechanical properties :
#
#
# Convention : Reuss Voigt Hill
#
# Bulk Modulus (GPa) = 62.78551 62.86633 62.82592
# Shear Modulus (GPa) = 25.14515 28.76622 26.95569
#
# Velocity S-wave (km/s) = 3.70107 3.95860 3.83200
# Velocity P-wave (km/s) = 7.24338 7.42568 7.33510
#
# Compressibility (1/GPa) = 0.01592724
#
# Stress axis : x y z
#
# Youngs Moduli (GPa) = 66.65174 101.11288 77.61625
#
# Poissons Ratio (x) = 0.28982 0.50273
# Poissons Ratio (y) = 0.19104 0.12275
# Poissons Ratio (z) = 0.43171 0.15992
#
# Static dielectric constant tensor:
#      x y z
#    x 3.050440 0.000000 0.000000 
#    y 0.000000 3.625040 0.000000 
#    z 0.000000 0.000000 3.839510 
# 
# 
# High freq. dielectric constant tensor:
#      x y z
#    x 1.661770 0.000000 0.000000 
#    y 0.000000 1.730780 0.000000 
#    z 0.000000 0.000000 1.711360 
# 
# From -- ./inp_files/37411.got.cif
#   From: 2010.03.12/outbox.cif.g09.slc.cpg/sg74_19_cif.got.tgz:37411.got - 2010.04.16 15:46:19.
