data_PCOD8301258
_publ_section_title
;
Structure prediction by ZEFSAII (Michael W. Deem and Ramdas Pophale) SiO2 
 PCOD8301258
Probable space group: I M M A
;
_chemical_formula_sum "Si O2"
_cell_formula_units_Z 104
_cell_length_a 21.286328
_cell_length_b 8.690411
_cell_length_c 26.965547
_cell_angle_alpha 90.000000
_cell_angle_beta 90.000000
_cell_angle_gamma 90.000000
_cell_volume 4988.273998
_symmetry_space_group_name_H-M "I M M A"
_symmetry_group_IT_number 74
_symmetry_cell_setting 'orthorhombic'
loop_
_space_group_symop_operation_xyz
x,y,z
-x,1/2-y,z
x,-y,-z
-x,1/2+y,-z
-x,-y,-z
x,1/2+y,-z
-x,y,z
x,1/2-y,z
1/2+x,1/2+y,1/2+z
1/2-x,-y,1/2+z
1/2+x,1/2-y,1/2-z
1/2-x,y,1/2-z
1/2-x,1/2-y,1/2-z
1/2+x,y,1/2-z
1/2-x,1/2+y,1/2+z
1/2+x,-y,1/2+z
loop_
_atom_site_type_symbol
_atom_site_label
_atom_site_fract_x
_atom_site_fract_y
_atom_site_fract_z
Si Si1 0.392996 0.430345 0.383101
Si Si2 0.500000 0.928904 0.446849
Si Si3 0.208901 0.425511 0.946232
Si Si4 0.570105 0.431382 0.949568
Si Si5 0.676034 0.924580 0.119882
Si Si6 0.313151 0.070033 0.221601
Si Si7 0.426930 0.068921 0.721260
O O1 0.403961 0.250000 0.387951
O O2 0.439156 0.521202 0.418082
O O3 0.324971 0.478247 0.402722
O O4 0.404226 0.478276 0.326883
O O5 0.500000 0.750000 0.453374
O O6 0.500000 0.000000 0.500000
O O7 0.183973 0.250000 0.948615
O O8 0.280574 0.432192 0.928943
O O9 0.199461 0.500000 0.000000
O O10 0.500000 0.495703 0.941448
O O11 0.571590 0.250000 0.955258
O O12 0.608849 0.480822 0.900814
O O13 0.599171 0.500000 0.000000
O O14 0.674022 0.750000 0.140739
O O15 0.698173 0.036822 0.163659
O O16 0.323290 0.250000 0.231424
O O17 0.250000 0.012890 0.250000
O O18 0.377277 0.980750 0.236573
O O19 0.500000 0.026984 0.734696
O O20 0.421472 0.250000 0.711613
#
# Coordination Sequence:
#
# PCOD8301258 Si02
#       7
#    16   8  16  16  16  16  16
#     4  12  24  40  62  89 122 160 203 253 307 364
#     4  12  24  40  60  86 120 158 202 248 299 356
#     4  11  23  39  60  88 124 165 210 259 311 372
#     4   9  18  34  57  86 120 156 195 240 293 358
#     4  10  22  39  60  87 120 160 204 253 309 369
#     4  11  25  43  64  92 125 162 208 263 319 377
#     4  11  24  43  68  95 125 164 210 262 318 381
#
# _framework density 20.848894000000001
#
# number of rings (size 3 to 8) (size 9 to 14) (size 15 to 20)
#    0.000    1.231    0.769    5.308    0.000    7.077 
#    0.000    1.538    0.000    0.000    0.000    0.000 
#    0.000    0.000    0.000    0.000    0.000    0.000 
#
# Total GULP energy -644813.016422 kJ/mol
# GULP energy per Si atom -12400.250316 kJ/mol
# Density = 2.080144 g / cm^3
# Si number density = 20.848894 Si / 1000 Ang^3
#
#
#
# Elastic Constant Matrix: (Units=GPa)
#
#
# Indices 1 2 3 4 5 6 
#
# 1 105.4191 30.3206 39.3675 0.0000 0.0000 0.0000
# 2 30.3206 99.8268 30.9840 0.0000 0.0000 0.0000
# 3 39.3675 30.9840 96.1394 0.0000 0.0000 0.0000
# 4 0.0000 0.0000 0.0000 40.1065 0.0000 0.0000
# 5 0.0000 0.0000 0.0000 0.0000 36.5898 0.0000
# 6 0.0000 0.0000 0.0000 0.0000 0.0000 27.8321
#
#
#
# Elastic Compliance Matrix: (Units=1/GPa)
#
#
# Indices 1 2 3 4 5 6 
#
# 1 0.011650 -0.002287 -0.004034 0.000000 0.000000 0.000000
# 2 -0.002287 0.011580 -0.002796 0.000000 0.000000 0.000000
# 3 -0.004034 -0.002796 0.012954 0.000000 0.000000 0.000000
# 4 0.000000 0.000000 0.000000 0.024934 0.000000 0.000000
# 5 0.000000 0.000000 0.000000 0.000000 0.027330 0.000000
# 6 0.000000 0.000000 0.000000 0.000000 0.000000 0.035930
#
#
# Mechanical properties :
#
#
# Convention : Reuss Voigt Hill
#
# Bulk Modulus (GPa) = 55.70305 55.85881 55.78093
# Shear Modulus (GPa) = 33.64911 34.28656 33.96784
#
# Velocity S-wave (km/s) = 4.02176 4.05968 4.04076
# Velocity P-wave (km/s) = 6.95281 6.98749 6.97017
#
# Compressibility (1/GPa) = 0.01795234
#
# Stress axis : x y z
#
# Youngs Moduli (GPa) = 85.83794 86.35932 77.19516
#
# Poissons Ratio (x) = 0.19746 0.31137
# Poissons Ratio (y) = 0.19627 0.21580
# Poissons Ratio (z) = 0.34623 0.24142
#
# Static dielectric constant tensor:
#      x y z
#    x 4.145890 0.000000 0.000000 
#    y 0.000000 3.775940 0.000000 
#    z 0.000000 0.000000 3.750780 
# 
# 
# High freq. dielectric constant tensor:
#      x y z
#    x 1.829950 0.000000 0.000000 
#    y 0.000000 1.818620 0.000000 
#    z 0.000000 0.000000 1.817590 
# 
# From -- ./inp_files/68231.got.cif
#   From: 2010.03.12/outbox.cif.g09.slc.cpg/sg74_35_cif.got.tgz:68231.got - 2010.04.16 15:46:19.
