data_PCOD8301285
_publ_section_title
;
Structure prediction by ZEFSAII (Michael W. Deem and Ramdas Pophale) SiO2 
 PCOD8301285
Probable space group: I M M A
;
_chemical_formula_sum "Si O2"
_cell_formula_units_Z 96
_cell_length_a 18.466601
_cell_length_b 23.492338
_cell_length_c 11.815852
_cell_angle_alpha 90.000000
_cell_angle_beta 90.000000
_cell_angle_gamma 90.000000
_cell_volume 5125.995835
_symmetry_space_group_name_H-M "I M M A"
_symmetry_group_IT_number 74
_symmetry_cell_setting 'orthorhombic'
loop_
_space_group_symop_operation_xyz
x,y,z
-x,1/2-y,z
x,-y,-z
-x,1/2+y,-z
-x,-y,-z
x,1/2+y,-z
-x,y,z
x,1/2-y,z
1/2+x,1/2+y,1/2+z
1/2-x,-y,1/2+z
1/2+x,1/2-y,1/2-z
1/2-x,y,1/2-z
1/2-x,1/2-y,1/2-z
1/2+x,y,1/2-z
1/2-x,1/2+y,1/2+z
1/2+x,-y,1/2+z
loop_
_atom_site_type_symbol
_atom_site_label
_atom_site_fract_x
_atom_site_fract_y
_atom_site_fract_z
Si Si1 0.154549 0.314412 0.044446
Si Si2 0.500000 0.526042 0.377324
Si Si3 0.150978 0.435891 0.382788
Si Si4 0.000000 0.185399 0.155122
Si Si5 0.351591 0.594371 0.348758
Si Si6 0.000000 0.923409 0.698412
Si Si7 0.250000 0.642237 0.750000
Si Si8 0.302441 0.062746 0.876187
O O1 0.164205 0.250000 0.003212
O O2 0.214859 0.323123 0.144444
O O3 0.072397 0.325398 0.083259
O O4 0.163539 0.352700 0.932001
O O5 0.500000 0.500000 0.500000
O O6 0.429048 0.565227 0.365573
O O7 0.500000 0.473032 0.292496
O O8 0.183637 0.397347 0.284926
O O9 0.181241 0.412811 0.500678
O O10 0.163527 0.501470 0.356913
O O11 0.065876 0.428721 0.386159
O O12 0.000000 0.140181 0.254187
O O13 0.000000 0.250000 0.204064
O O14 0.338367 0.607459 0.214282
O O15 0.284126 0.551779 0.370106
#
# Coordination Sequence:
#
# PCOD8301285 Si02
#       8
#    16   8  16   8  16   8   8  16
#     4  11  23  40  65  90 119 162 210 258 309 369
#     4  12  26  33  58  96 126 158 201 255 302 380
#     4  11  23  37  62  89 124 163 199 246 309 369
#     4  10  22  40  59  88 127 160 195 252 312 353
#     4  11  22  41  58  86 128 159 200 253 314 357
#     4  12  22  40  59  93 122 162 212 246 302 372
#     4  12  21  38  62  90 124 154 203 262 304 362
#     4  10  23  39  60  87 125 165 196 246 307 374
#
# _framework density 18.728066999999999
#
# number of rings (size 3 to 8) (size 9 to 14) (size 15 to 20)
#    0.000    1.000    5.000    2.750    2.333    2.000 
#    0.000    1.667    0.000    0.000    0.000    0.000 
#    0.000    0.000    0.000    0.000    0.000    0.000 
#
# Total GULP energy -594667.174496 kJ/mol
# GULP energy per Si atom -12388.899469 kJ/mol
# Density = 1.868544 g / cm^3
# Si number density = 18.728067 Si / 1000 Ang^3
#
#
#
# Elastic Constant Matrix: (Units=GPa)
#
#
# Indices 1 2 3 4 5 6 
#
# 1 141.9891 26.7932 34.7719 0.0000 0.0000 0.0000
# 2 26.7932 78.9697 32.0501 0.0000 0.0000 0.0000
# 3 34.7719 32.0501 106.5395 0.0000 0.0000 0.0000
# 4 0.0000 0.0000 0.0000 19.5672 0.0000 0.0000
# 5 0.0000 0.0000 0.0000 0.0000 22.1245 0.0000
# 6 0.0000 0.0000 0.0000 0.0000 0.0000 23.4415
#
#
#
# Elastic Compliance Matrix: (Units=1/GPa)
#
#
# Indices 1 2 3 4 5 6 
#
# 1 0.007887 -0.001858 -0.002015 0.000000 0.000000 0.000000
# 2 -0.001858 0.014862 -0.003864 0.000000 0.000000 0.000000
# 3 -0.002015 -0.003864 0.011206 0.000000 0.000000 0.000000
# 4 0.000000 0.000000 0.000000 0.051106 0.000000 0.000000
# 5 0.000000 0.000000 0.000000 0.000000 0.045199 0.000000
# 6 0.000000 0.000000 0.000000 0.000000 0.000000 0.042659
#
#
# Mechanical properties :
#
#
# Convention : Reuss Voigt Hill
#
# Bulk Modulus (GPa) = 54.11277 57.19206 55.65241
# Shear Modulus (GPa) = 25.69974 28.61885 27.15930
#
# Velocity S-wave (km/s) = 3.70842 3.91337 3.81227
# Velocity P-wave (km/s) = 6.87700 7.14309 7.01131
#
# Compressibility (1/GPa) = 0.01847993
#
# Stress axis : x y z
#
# Youngs Moduli (GPa) = 126.79256 67.28615 89.23460
#
# Poissons Ratio (x) = 0.12502 0.17982
# Poissons Ratio (y) = 0.23559 0.34484
# Poissons Ratio (z) = 0.25550 0.26002
#
# Static dielectric constant tensor:
#      x y z
#    x 3.119060 0.000000 0.000000 
#    y 0.000000 4.027690 0.000000 
#    z 0.000000 0.000000 3.630390 
# 
# 
# High freq. dielectric constant tensor:
#      x y z
#    x 1.750750 0.000000 0.000000 
#    y 0.000000 1.703780 0.000000 
#    z 0.000000 0.000000 1.731980 
# 
# From -- ./inp_files/22550.got.cif
#   From: 2010.03.12/outbox.cif.g09.slc.cpg/sg74_12_cif.got.tgz:22550.got - 2010.04.16 15:46:19.
