data_PCOD8301494
_publ_section_title
;
Structure prediction by ZEFSAII (Michael W. Deem and Ramdas Pophale) SiO2 
 PCOD8301494
Probable space group: I M M A
;
_chemical_formula_sum "Si O2"
_cell_formula_units_Z 80
_cell_length_a 8.627684
_cell_length_b 25.288273
_cell_length_c 20.850359
_cell_angle_alpha 90.000000
_cell_angle_beta 90.000000
_cell_angle_gamma 90.000000
_cell_volume 4549.115237
_symmetry_space_group_name_H-M "I M M A"
_symmetry_group_IT_number 74
_symmetry_cell_setting 'orthorhombic'
loop_
_space_group_symop_operation_xyz
x,y,z
-x,1/2-y,z
x,-y,-z
-x,1/2+y,-z
-x,-y,-z
x,1/2+y,-z
-x,y,z
x,1/2-y,z
1/2+x,1/2+y,1/2+z
1/2-x,-y,1/2+z
1/2+x,1/2-y,1/2-z
1/2-x,y,1/2-z
1/2-x,1/2-y,1/2-z
1/2+x,y,1/2-z
1/2-x,1/2+y,1/2+z
1/2+x,-y,1/2+z
loop_
_atom_site_type_symbol
_atom_site_label
_atom_site_fract_x
_atom_site_fract_y
_atom_site_fract_z
Si Si1 0.172447 0.250000 0.374133
Si Si2 0.684076 0.961414 0.816855
Si Si3 0.815234 0.137969 0.515419
Si Si4 0.683113 0.359702 0.375739
Si Si5 0.169720 0.250000 0.526639
Si Si6 0.816938 0.027566 0.563560
O O1 0.263115 0.197854 0.351291
O O2 0.160633 0.250000 0.450283
O O3 0.000000 0.250000 0.344154
O O4 0.500000 0.961171 0.815260
O O5 0.750000 0.983367 0.750000
O O6 0.745508 0.902345 0.827543
O O7 0.749749 0.000285 0.872555
O O8 0.741124 0.126385 0.446828
O O9 0.749084 0.193848 0.545489
O O10 0.772926 0.089937 0.563026
O O11 0.000000 0.143054 0.504812
O O12 0.500000 0.362696 0.373733
O O13 0.000000 0.250000 0.558394
O O14 0.000000 0.019922 0.562445
O O15 0.746045 0.000000 0.500000
#
# Coordination Sequence:
#
# PCOD8301494 Si02
#       6
#     8  16  16  16   8  16
#     4   9  17  31  50  70  95 134 174 210 246 290
#     4  11  22  37  53  71  98 133 171 211 258 308
#     4   9  15  28  48  72  99 132 169 206 253 300
#     4  11  20  31  48  74 103 132 166 209 255 299
#     4   7  12  21  41  70  97 120 154 202 244 288
#     4   9  16  29  52  75  96 129 171 212 251 302
#
# _framework density 17.585836
#
# number of rings (size 3 to 8) (size 9 to 14) (size 15 to 20)
#    0.000    2.400    2.000    3.900    0.000    0.000 
#    0.000    3.500    0.000    0.000    0.000    0.700 
#    0.000    0.000    0.000    0.000    0.000    0.000 
#
# Total GULP energy -495685.414326 kJ/mol
# GULP energy per Si atom -12392.135358 kJ/mol
# Density = 1.754581 g / cm^3
# Si number density = 17.585836 Si / 1000 Ang^3
#
#
#
# Elastic Constant Matrix: (Units=GPa)
#
#
# Indices 1 2 3 4 5 6 
#
# 1 67.2542 25.1350 23.8946 0.0000 0.0000 0.0000
# 2 25.1350 152.6309 65.9485 0.0000 0.0000 0.0000
# 3 23.8946 65.9485 94.3940 0.0000 0.0000 0.0000
# 4 0.0000 0.0000 0.0000 20.2332 0.0000 0.0000
# 5 0.0000 0.0000 0.0000 0.0000 17.9161 0.0000
# 6 0.0000 0.0000 0.0000 0.0000 0.0000 13.9819
#
#
#
# Elastic Compliance Matrix: (Units=1/GPa)
#
#
# Indices 1 2 3 4 5 6 
#
# 1 0.016519 -0.001309 -0.003267 0.000000 0.000000 0.000000
# 2 -0.001309 0.009488 -0.006298 0.000000 0.000000 0.000000
# 3 -0.003267 -0.006298 0.015821 0.000000 0.000000 0.000000
# 4 0.000000 0.000000 0.000000 0.049424 0.000000 0.000000
# 5 0.000000 0.000000 0.000000 0.000000 0.055816 0.000000
# 6 0.000000 0.000000 0.000000 0.000000 0.000000 0.071521
#
#
# Mechanical properties :
#
#
# Convention : Reuss Voigt Hill
#
# Bulk Modulus (GPa) = 49.79879 60.47059 55.13469
# Shear Modulus (GPa) = 20.24050 23.71298 21.97674
#
# Velocity S-wave (km/s) = 3.39625 3.67606 3.53892
# Velocity P-wave (km/s) = 6.61501 7.24420 6.93675
#
# Compressibility (1/GPa) = 0.02008081
#
# Stress axis : x y z
#
# Youngs Moduli (GPa) = 60.53688 105.39173 63.20726
#
# Poissons Ratio (x) = 0.13791 0.20652
# Poissons Ratio (y) = 0.07922 0.39807
# Poissons Ratio (z) = 0.19779 0.66374
#
# Static dielectric constant tensor:
#      x y z
#    x 3.028720 0.000000 0.000000 
#    y 0.000000 3.827980 0.000000 
#    z 0.000000 0.000000 3.001440 
# 
# 
# High freq. dielectric constant tensor:
#      x y z
#    x 1.656340 0.000000 0.000000 
#    y 0.000000 1.700090 0.000000 
#    z 0.000000 0.000000 1.628810 
# 
# From -- ./inp_files/39816.got.cif
#   From: 2010.03.12/outbox.cif.g09.slc.cpg/sg74_20_cif.got.tgz:39816.got - 2010.04.16 15:46:19.
