data_PCOD8301155
_publ_section_title
;
Structure prediction by ZEFSAII (Michael W. Deem and Ramdas Pophale) SiO2 
 PCOD8301155
Probable space group: I M M A
;
_chemical_formula_sum "Si O2"
_cell_formula_units_Z 72
_cell_length_a 21.233767
_cell_length_b 8.792867
_cell_length_c 19.427271
_cell_angle_alpha 90.000000
_cell_angle_beta 90.000000
_cell_angle_gamma 90.000000
_cell_volume 3627.182020
_symmetry_space_group_name_H-M "I M M A"
_symmetry_group_IT_number 74
_symmetry_cell_setting 'orthorhombic'
loop_
_space_group_symop_operation_xyz
x,y,z
-x,1/2-y,z
x,-y,-z
-x,1/2+y,-z
-x,-y,-z
x,1/2+y,-z
-x,y,z
x,1/2-y,z
1/2+x,1/2+y,1/2+z
1/2-x,-y,1/2+z
1/2+x,1/2-y,1/2-z
1/2-x,y,1/2-z
1/2-x,1/2-y,1/2-z
1/2+x,y,1/2-z
1/2-x,1/2+y,1/2+z
1/2+x,-y,1/2+z
loop_
_atom_site_type_symbol
_atom_site_label
_atom_site_fract_x
_atom_site_fract_y
_atom_site_fract_z
Si Si1 0.426775 0.424478 0.796766
Si Si2 0.388134 0.428431 0.339170
Si Si3 0.869929 0.430366 0.427734
Si Si4 0.772257 0.426382 0.069911
Si Si5 0.000000 0.069789 0.924636
O O1 0.500000 0.437320 0.778370
O O2 0.404619 0.250000 0.798142
O O3 0.387995 0.515300 0.739160
O O4 0.414802 0.500960 0.869969
O O5 0.403585 0.250000 0.342482
O O6 0.318675 0.466409 0.367635
O O7 0.438364 0.518217 0.384241
O O8 0.892304 0.500000 0.500000
O O9 0.877659 0.250000 0.429563
O O10 0.798123 0.482497 0.411760
O O11 0.770843 0.250000 0.054529
O O12 0.798097 0.500000 0.000000
O O13 0.000000 0.250000 0.930476
O O14 0.000000 0.000000 0.000000
#
# Coordination Sequence:
#
# PCOD8301155 Si02
#       5
#    16  16  16  16   8
#     4  11  24  41  60  85 119 156 198 246 295 351
#     4  11  22  38  60  86 118 157 198 241 296 350
#     4  10  21  40  64  89 118 151 193 243 298 355
#     4   9  20  37  59  88 119 153 194 243 292 350
#     4  12  24  38  56  84 119 158 203 246 288 342
#
# _framework density 19.850121999999999
#
# number of rings (size 3 to 8) (size 9 to 14) (size 15 to 20)
#    0.000    1.556    1.111    3.667    0.000    7.111 
#    0.000    4.444    0.000    0.000    0.000    0.000 
#    0.000    0.000    0.000    0.000    0.000    0.000 
#
# Total GULP energy -446580.442458 kJ/mol
# GULP energy per Si atom -12405.012291 kJ/mol
# Density = 1.980494 g / cm^3
# Si number density = 19.850122 Si / 1000 Ang^3
#
#
#
# Elastic Constant Matrix: (Units=GPa)
#
#
# Indices 1 2 3 4 5 6 
#
# 1 37.2213 24.8268 22.3245 0.0000 0.0000 0.0000
# 2 24.8268 106.3461 44.7727 0.0000 0.0000 0.0000
# 3 22.3245 44.7727 128.3921 0.0000 0.0000 0.0000
# 4 0.0000 0.0000 0.0000 42.0258 0.0000 0.0000
# 5 0.0000 0.0000 0.0000 0.0000 -324.7091 0.0000
# 6 0.0000 0.0000 0.0000 0.0000 0.0000 22.2365
#
#
#
# Elastic Compliance Matrix: (Units=1/GPa)
#
#
# Indices 1 2 3 4 5 6 
#
# 1 0.033180 -0.006232 -0.003596 0.000000 0.000000 0.000000
# 2 -0.006232 0.012192 -0.003168 0.000000 0.000000 0.000000
# 3 -0.003596 -0.003168 0.009519 0.000000 0.000000 0.000000
# 4 0.000000 0.000000 0.000000 0.023795 0.000000 0.000000
# 5 0.000000 0.000000 0.000000 0.000000 -0.003080 0.000000
# 6 0.000000 0.000000 0.000000 0.000000 0.000000 0.044971
#
#
# Mechanical properties :
#
#
# Convention : Reuss Voigt Hill
#
# Bulk Modulus (GPa) = 34.60385 50.64527 42.62456
# Shear Modulus (GPa) = 32.00995 -40.08699 -4.03852
#
# Velocity S-wave (km/s) = 4.02005 -4.49874 -1.42791
# Velocity P-wave (km/s) = 6.24645 1.18982 4.33604
#
# Compressibility (1/GPa) = 0.02889852
#
# Stress axis : x y z
#
# Youngs Moduli (GPa) = 30.13873 82.02202 105.05719
#
# Poissons Ratio (x) = 0.51116 0.37779
# Poissons Ratio (y) = 0.18782 0.33281
# Poissons Ratio (z) = 0.10838 0.25984
#
# Static dielectric constant tensor:
#      x y z
#    x 3.808390 0.000000 0.000000 
#    y 0.000000 3.724890 0.000000 
#    z 0.000000 0.000000 3.554230 
# 
# 
# High freq. dielectric constant tensor:
#      x y z
#    x 1.771620 0.000000 0.000000 
#    y 0.000000 1.785870 0.000000 
#    z 0.000000 0.000000 1.782120 
# 
# From -- ./inp_files/39481.got.cif
#   From: 2010.03.12/outbox.cif.g09.slc.cpg/sg74_20_cif.got.tgz:39481.got - 2010.04.16 15:46:19.
