data_PCOD8301423
_publ_section_title
;
Structure prediction by ZEFSAII (Michael W. Deem and Ramdas Pophale) SiO2 
 PCOD8301423
Probable space group: I M M A
;
_chemical_formula_sum "Si O2"
_cell_formula_units_Z 48
_cell_length_a 15.512299
_cell_length_b 14.042785
_cell_length_c 9.360952
_cell_angle_alpha 90.000000
_cell_angle_beta 90.000000
_cell_angle_gamma 90.000000
_cell_volume 2039.151214
_symmetry_space_group_name_H-M "I M M A"
_symmetry_group_IT_number 74
_symmetry_cell_setting 'orthorhombic'
loop_
_space_group_symop_operation_xyz
x,y,z
-x,1/2-y,z
x,-y,-z
-x,1/2+y,-z
-x,-y,-z
x,1/2+y,-z
-x,y,z
x,1/2-y,z
1/2+x,1/2+y,1/2+z
1/2-x,-y,1/2+z
1/2+x,1/2-y,1/2-z
1/2-x,y,1/2-z
1/2-x,1/2-y,1/2-z
1/2+x,y,1/2-z
1/2-x,1/2+y,1/2+z
1/2+x,-y,1/2+z
loop_
_atom_site_type_symbol
_atom_site_label
_atom_site_fract_x
_atom_site_fract_y
_atom_site_fract_z
Si Si1 0.877352 0.750000 0.192790
Si Si2 0.293487 0.250000 0.973434
Si Si3 0.679109 0.434195 0.136310
Si Si4 0.000000 0.611898 0.045950
Si Si5 0.500000 0.644268 0.766527
O O1 0.782636 0.750000 0.136604
O O2 0.877490 0.750000 0.367804
O O3 0.919395 0.849830 0.139323
O O4 0.284999 0.164473 0.081934
O O5 0.750000 0.474512 0.250000
O O6 0.583661 0.419898 0.200532
O O7 0.670823 0.500000 0.000000
O O8 0.000000 0.500000 0.000000
O O9 0.000000 0.669430 0.899655
O O10 0.500000 0.750000 0.843178
#
# Coordination Sequence:
#
# PCOD8301423 Si02
#       5
#     8   8  16   8   8
#     4  10  24  43  68 112 139 206 250 308 383 459
#     4  11  25  45  74  98 159 194 255 312 385 455
#     4  12  29  49  79 114 154 204 263 324 396 466
#     4  11  25  43  74 104 158 191 254 312 384 456
#     4  12  25  48  76 108 156 208 253 313 396 467
#
# _framework density 23.539206
#
# number of rings (size 3 to 8) (size 9 to 14) (size 15 to 20)
#    0.000    0.667    3.333    3.000    9.333    5.333 
#    0.000    0.000    0.000    0.000    0.000    0.000 
#    0.000    0.000    0.000    0.000    0.000    0.000 
#
# Total GULP energy -297329.626587 kJ/mol
# GULP energy per Si atom -12388.734441 kJ/mol
# Density = 2.348563 g / cm^3
# Si number density = 23.539206 Si / 1000 Ang^3
#
#
#
# Elastic Constant Matrix: (Units=GPa)
#
#
# Indices 1 2 3 4 5 6 
#
# 1 152.5551 12.3115 48.8138 0.0000 0.0000 0.0000
# 2 12.3115 104.9966 1.4175 0.0000 0.0000 0.0000
# 3 48.8138 1.4175 117.6052 0.0000 0.0000 0.0000
# 4 0.0000 0.0000 0.0000 44.8216 0.0000 0.0000
# 5 0.0000 0.0000 0.0000 0.0000 16.9194 0.0000
# 6 0.0000 0.0000 0.0000 0.0000 0.0000 26.8458
#
#
#
# Elastic Compliance Matrix: (Units=1/GPa)
#
#
# Indices 1 2 3 4 5 6 
#
# 1 0.007634 -0.000853 -0.003159 0.000000 0.000000 0.000000
# 2 -0.000853 0.009621 0.000238 0.000000 0.000000 0.000000
# 3 -0.003159 0.000238 0.009811 0.000000 0.000000 0.000000
# 4 0.000000 0.000000 0.000000 0.022311 0.000000 0.000000
# 5 0.000000 0.000000 0.000000 0.000000 0.059104 0.000000
# 6 0.000000 0.000000 0.000000 0.000000 0.000000 0.037250
#
#
# Mechanical properties :
#
#
# Convention : Reuss Voigt Hill
#
# Bulk Modulus (GPa) = 51.22911 55.58249 53.40580
# Shear Modulus (GPa) = 31.29228 38.55829 34.92528
#
# Velocity S-wave (km/s) = 3.65001 4.05167 3.85607
# Velocity P-wave (km/s) = 6.29078 6.74922 6.52403
#
# Compressibility (1/GPa) = 0.01952015
#
# Stress axis : x y z
#
# Youngs Moduli (GPa) = 130.98510 103.94067 101.92489
#
# Poissons Ratio (x) = 0.08861 0.32193
# Poissons Ratio (y) = 0.11167 -0.02425
# Poissons Ratio (z) = 0.41372 -0.02473
#
# Static dielectric constant tensor:
#      x y z
#    x 4.434360 0.000000 0.000000 
#    y 0.000000 4.179260 0.000000 
#    z 0.000000 0.000000 4.539970 
# 
# 
# High freq. dielectric constant tensor:
#      x y z
#    x 1.934540 0.000000 0.000000 
#    y 0.000000 1.936220 0.000000 
#    z 0.000000 0.000000 1.951480 
# 
# From -- ./inp_files/8140.got.cif
#   From: 2010.03.12/outbox.cif.g09.slc.cpg/sg74_5_cif.got.tgz:8140.got - 2010.04.16 15:46:19.
