data_PCOD8301049
_publ_section_title
;
Structure prediction by ZEFSAII (Michael W. Deem and Ramdas Pophale) SiO2 
 PCOD8301049
Probable space group: I M M A
;
_chemical_formula_sum "Si O2"
_cell_formula_units_Z 72
_cell_length_a 14.172893
_cell_length_b 15.108392
_cell_length_c 17.878139
_cell_angle_alpha 90.000000
_cell_angle_beta 90.000000
_cell_angle_gamma 90.000000
_cell_volume 3828.239168
_symmetry_space_group_name_H-M "I M M A"
_symmetry_group_IT_number 74
_symmetry_cell_setting 'orthorhombic'
loop_
_space_group_symop_operation_xyz
x,y,z
-x,1/2-y,z
x,-y,-z
-x,1/2+y,-z
-x,-y,-z
x,1/2+y,-z
-x,y,z
x,1/2-y,z
1/2+x,1/2+y,1/2+z
1/2-x,-y,1/2+z
1/2+x,1/2-y,1/2-z
1/2-x,y,1/2-z
1/2-x,1/2-y,1/2-z
1/2+x,y,1/2-z
1/2-x,1/2+y,1/2+z
1/2+x,-y,1/2+z
loop_
_atom_site_type_symbol
_atom_site_label
_atom_site_fract_x
_atom_site_fract_y
_atom_site_fract_z
Si Si1 0.799832 0.513110 0.175137
Si Si2 0.198776 0.848475 0.046585
Si Si3 0.500000 0.945806 0.683423
Si Si4 0.500000 0.853645 0.839714
Si Si5 0.500000 0.102296 0.481152
Si Si6 0.200545 0.352567 0.394490
O O1 0.750000 0.547886 0.250000
O O2 0.775208 0.580498 0.109109
O O3 0.767564 0.413159 0.156599
O O4 0.911680 0.511999 0.186317
O O5 0.212571 0.750000 0.079611
O O6 0.092593 0.853962 0.015617
O O7 0.273110 0.866060 0.980677
O O8 0.500000 0.882100 0.753970
O O9 0.500000 0.885543 0.608564
O O10 0.500000 0.750000 0.841112
O O11 0.593468 0.887057 0.882673
O O12 0.500000 0.000000 0.500000
O O13 0.214243 0.250000 0.369877
#
# Coordination Sequence:
#
# PCOD8301049 Si02
#       6
#    16  16   8   8   8  16
#     4  12  23  39  61  85 124 158 199 246 297 353
#     4  11  23  39  60  88 120 161 205 245 293 349
#     4  12  22  35  57  92 123 152 186 242 301 370
#     4  10  22  38  57  89 124 151 187 241 301 366
#     4  12  19  35  62  86 121 151 191 247 304 353
#     4  10  21  38  61  88 118 154 195 243 302 359
#
# _framework density 18.807603
#
# number of rings (size 3 to 8) (size 9 to 14) (size 15 to 20)
#    0.000    0.889    6.667    1.000    0.000    2.667 
#    0.000    3.333    0.000    0.000    0.000    0.000 
#    0.000    0.000    0.000    0.000    0.000    0.000 
#
# Total GULP energy -446490.931141 kJ/mol
# GULP energy per Si atom -12402.525865 kJ/mol
# Density = 1.876480 g / cm^3
# Si number density = 18.807603 Si / 1000 Ang^3
#
#
#
# Elastic Constant Matrix: (Units=GPa)
#
#
# Indices 1 2 3 4 5 6 
#
# 1 115.5198 47.1518 64.6772 0.0000 0.0000 0.0000
# 2 47.1518 52.1205 26.1080 0.0000 0.0000 0.0000
# 3 64.6772 26.1080 115.7300 0.0000 0.0000 0.0000
# 4 0.0000 0.0000 0.0000 31.7447 0.0000 0.0000
# 5 0.0000 0.0000 0.0000 0.0000 31.2038 0.0000
# 6 0.0000 0.0000 0.0000 0.0000 0.0000 18.9678
#
#
#
# Elastic Compliance Matrix: (Units=1/GPa)
#
#
# Indices 1 2 3 4 5 6 
#
# 1 0.017718 -0.012479 -0.007087 0.000000 0.000000 0.000000
# 2 -0.012479 0.030420 0.000111 0.000000 0.000000 0.000000
# 3 -0.007087 0.000111 0.012576 0.000000 0.000000 0.000000
# 4 0.000000 0.000000 0.000000 0.031501 0.000000 0.000000
# 5 0.000000 0.000000 0.000000 0.000000 0.032047 0.000000
# 6 0.000000 0.000000 0.000000 0.000000 0.000000 0.052721
#
#
# Mechanical properties :
#
#
# Convention : Reuss Voigt Hill
#
# Bulk Modulus (GPa) = 45.85997 62.13825 53.99911
# Shear Modulus (GPa) = 22.40549 26.07881 24.24215
#
# Velocity S-wave (km/s) = 3.45527 3.72776 3.59410
# Velocity P-wave (km/s) = 6.35257 7.18602 6.78211
#
# Compressibility (1/GPa) = 0.02180551
#
# Stress axis : x y z
#
# Youngs Moduli (GPa) = 56.44084 32.87341 79.51603
#
# Poissons Ratio (x) = 0.41022 0.56350
# Poissons Ratio (y) = 0.70432 -0.00886
# Poissons Ratio (z) = 0.39997 -0.00366
#
# Static dielectric constant tensor:
#      x y z
#    x 4.037090 0.000000 0.000000 
#    y 0.000000 3.403870 0.000000 
#    z 0.000000 0.000000 3.671280 
# 
# 
# High freq. dielectric constant tensor:
#      x y z
#    x 1.740960 0.000000 0.000000 
#    y 0.000000 1.719970 0.000000 
#    z 0.000000 0.000000 1.728090 
# 
# From -- ./inp_files/42528.got.cif
#   From: 2010.03.12/outbox.cif.g09.slc.cpg/sg74_22_cif.got.tgz:42528.got - 2010.04.16 15:46:19.
