data_PCOD8301887
_publ_section_title
;
Structure prediction by ZEFSAII (Michael W. Deem and Ramdas Pophale) SiO2 
 PCOD8301887
Probable space group: P 41
;
_chemical_formula_sum "Si O2"
_cell_formula_units_Z 24
_cell_length_a 13.480765
_cell_length_b 13.480765
_cell_length_c 6.418534
_cell_angle_alpha 90.000000
_cell_angle_beta 90.000000
_cell_angle_gamma 90.000000
_cell_volume 1166.446763
_symmetry_space_group_name_H-M "P 41"
_symmetry_group_IT_number 76
_symmetry_cell_setting 'tetragonal'
loop_
_space_group_symop_operation_xyz
x,y,z
-y,x,1/4+z
-x,-y,1/2+z
y,-x,3/4+z
loop_
_atom_site_type_symbol
_atom_site_label
_atom_site_fract_x
_atom_site_fract_y
_atom_site_fract_z
Si Si1 0.238133 0.706232 0.105110
Si Si2 0.259126 0.407786 0.682897
Si Si3 0.025905 0.655480 0.266057
Si Si4 0.450095 0.916613 0.173089
Si Si5 0.627208 0.459039 0.449965
Si Si6 0.857635 0.681127 0.553317
O O1 0.318067 0.714125 0.285200
O O2 0.132562 0.703359 0.222686
O O3 0.272421 0.605798 0.987876
O O4 0.236567 0.801422 0.947479
O O5 0.178293 0.475253 0.565644
O O6 0.352609 0.476629 0.740193
O O7 0.222805 0.364354 0.900594
O O8 0.026965 0.552707 0.392764
O O9 0.951907 0.722395 0.413950
O O10 0.980516 0.635048 0.038521
O O11 0.409149 0.890575 0.947869
O O12 0.607860 0.530303 0.650149
#
# Coordination Sequence:
#
# PCOD8301887 Si02
#       6
#     4   4   4   4   4   4
#     4  11  25  39  62  91 130 176 218 270 332 384
#     4  10  23  40  56  84 131 173 220 262 309 384
#     4  11  22  36  66  91 124 173 209 276 335 372
#     4  10  21  35  61  90 124 163 220 264 325 381
#     4  12  24  37  55  83 128 187 233 260 310 387
#     4  10  21  43  56  89 129 158 220 278 315 398
#
# _framework density 20.575306999999999
#
# number of rings (size 3 to 8) (size 9 to 14) (size 15 to 20)
#    0.000    1.333    3.333    2.000    7.000    1.333 
#    0.000    0.000    0.000    0.000    0.000    0.000 
#  180.000    0.000    0.000    0.000    0.000    0.000 
#
# Total GULP energy -297402.952959 kJ/mol
# GULP energy per Si atom -12391.789707 kJ/mol
# Density = 2.052848 g / cm^3
# Si number density = 20.575307 Si / 1000 Ang^3
#
#
#
# Elastic Constant Matrix: (Units=GPa)
#
#
# Indices 1 2 3 4 5 6 
#
# 1 77.3956 34.0946 28.9110 0.0000 0.0000 -1.8479
# 2 34.0946 77.3956 28.9110 0.0000 0.0000 1.8479
# 3 28.9110 28.9110 99.4838 0.0000 0.0000 0.0000
# 4 0.0000 0.0000 0.0000 34.0212 0.0000 0.0000
# 5 0.0000 0.0000 0.0000 0.0000 34.0212 0.0000
# 6 -1.8479 1.8479 0.0000 0.0000 0.0000 12.6363
#
#
#
# Elastic Compliance Matrix: (Units=1/GPa)
#
#
# Indices 1 2 3 4 5 6 
#
# 1 0.016974 -0.006412 -0.003069 0.000000 0.000000 0.003420
# 2 -0.006412 0.016974 -0.003069 0.000000 0.000000 -0.003420
# 3 -0.003069 -0.003069 0.011836 0.000000 0.000000 0.000000
# 4 0.000000 0.000000 0.000000 0.029393 0.000000 0.000000
# 5 0.000000 0.000000 0.000000 0.000000 0.029393 0.000000
# 6 0.003420 -0.003420 0.000000 0.000000 0.000000 0.080137
#
#
# Mechanical properties :
#
#
# Convention : Reuss Voigt Hill
#
# Bulk Modulus (GPa) = 48.35275 48.67872 48.51574
# Shear Modulus (GPa) = 23.07308 26.95962 25.01635
#
# Velocity S-wave (km/s) = 3.35236 3.62372 3.49068
# Velocity P-wave (km/s) = 6.20772 6.42017 6.31484
#
# Compressibility (1/GPa) = 0.02068135
#
# Stress axis : x y z
#
# Youngs Moduli (GPa) = 58.91498 58.91498 84.48973
#
# Poissons Ratio (x) = 0.37779 0.25931
# Poissons Ratio (y) = 0.37779 0.25931
# Poissons Ratio (z) = 0.18082 0.18082
#
# Static dielectric constant tensor:
#      x y z
#    x 3.672300 0.000000 0.000000 
#    y 0.000000 3.672300 0.000000 
#    z 0.000000 0.000000 4.022930 
# 
# 
# High freq. dielectric constant tensor:
#      x y z
#    x 1.778040 0.000000 0.000000 
#    y 0.000000 1.778040 0.000000 
#    z 0.000000 0.000000 1.832170 
# 
# From -- ./inp_files/167.got.cif
#   From: 2010.03.12/outbox.cif.g09.slc.cpg/sg76_cif.got.tgz:167.got - 2010.04.16 16:34:25.
