data_PCOD8301588
_publ_section_title
;
Structure prediction by ZEFSAII (Michael W. Deem and Ramdas Pophale) SiO2 
 PCOD8301588
Probable space group: I M M A
;
_chemical_formula_sum "Si O2"
_cell_formula_units_Z 96
_cell_length_a 18.767265
_cell_length_b 16.266528
_cell_length_c 15.798377
_cell_angle_alpha 90.000000
_cell_angle_beta 90.000000
_cell_angle_gamma 90.000000
_cell_volume 4822.900751
_symmetry_space_group_name_H-M "I M M A"
_symmetry_group_IT_number 74
_symmetry_cell_setting 'orthorhombic'
loop_
_space_group_symop_operation_xyz
x,y,z
-x,1/2-y,z
x,-y,-z
-x,1/2+y,-z
-x,-y,-z
x,1/2+y,-z
-x,y,z
x,1/2-y,z
1/2+x,1/2+y,1/2+z
1/2-x,-y,1/2+z
1/2+x,1/2-y,1/2-z
1/2-x,y,1/2-z
1/2-x,1/2-y,1/2-z
1/2+x,y,1/2-z
1/2-x,1/2+y,1/2+z
1/2+x,-y,1/2+z
loop_
_atom_site_type_symbol
_atom_site_label
_atom_site_fract_x
_atom_site_fract_y
_atom_site_fract_z
Si Si1 0.819610 0.118199 0.207015
Si Si2 0.083140 0.250000 0.277241
Si Si3 0.584158 0.750000 0.971882
Si Si4 0.670228 0.433229 0.762662
Si Si5 0.919599 0.656296 0.122642
Si Si6 0.183216 0.592867 0.989738
Si Si7 0.842921 0.086959 0.544221
O O1 0.750000 0.159345 0.250000
O O2 0.888775 0.169443 0.230467
O O3 0.809543 0.118521 0.106883
O O4 0.829267 0.029212 0.245738
O O5 0.106610 0.250000 0.374437
O O6 0.000000 0.250000 0.266218
O O7 0.500000 0.750000 0.985777
O O8 0.614184 0.834456 0.010761
O O9 0.750000 0.396757 0.750000
O O10 0.615614 0.393605 0.698121
O O11 0.640960 0.418820 0.856507
O O12 0.920637 0.750000 0.151492
O O13 0.000000 0.623903 0.107313
O O14 0.874975 0.648944 0.036003
O O15 0.156225 0.500000 0.000000
O O16 0.259406 0.603626 0.033538
O O17 0.865280 0.000000 0.500000
#
# Coordination Sequence:
#
# PCOD8301588 Si02
#       7
#    16   8   8  16  16  16  16
#     4  11  22  40  67  95 126 162 216 266 320 376
#     4  11  25  43  61  89 129 170 213 260 320 385
#     4  11  26  45  64  95 132 171 218 270 331 390
#     4  11  21  42  67  94 127 165 217 268 319 383
#     4  11  26  43  62  94 136 176 213 261 322 388
#     4  11  21  42  66  96 128 167 218 267 321 387
#     4  11  23  41  71  98 128 167 220 272 329 386
#
# _framework density 19.905033
#
# number of rings (size 3 to 8) (size 9 to 14) (size 15 to 20)
#    0.000    1.000    3.333    5.250    3.500    3.000 
#    0.000    0.000    0.000    0.000    0.000    0.000 
#    0.000    0.000    0.000    0.000    0.000    0.000 
#
# Total GULP energy -595325.016334 kJ/mol
# GULP energy per Si atom -12402.604507 kJ/mol
# Density = 1.985973 g / cm^3
# Si number density = 19.905033 Si / 1000 Ang^3
#
#
#
# Elastic Constant Matrix: (Units=GPa)
#
#
# Indices 1 2 3 4 5 6 
#
# 1 91.5280 49.0448 41.1414 0.0000 0.0000 0.0000
# 2 49.0448 99.0494 32.5513 0.0000 0.0000 0.0000
# 3 41.1414 32.5513 142.6088 0.0000 0.0000 0.0000
# 4 0.0000 0.0000 0.0000 26.4058 0.0000 0.0000
# 5 0.0000 0.0000 0.0000 0.0000 27.4905 0.0000
# 6 0.0000 0.0000 0.0000 0.0000 0.0000 95.4674
#
#
#
# Elastic Compliance Matrix: (Units=1/GPa)
#
#
# Indices 1 2 3 4 5 6 
#
# 1 0.016001 -0.006925 -0.003035 0.000000 0.000000 0.000000
# 2 -0.006925 0.013912 -0.001178 0.000000 0.000000 0.000000
# 3 -0.003035 -0.001178 0.008157 0.000000 0.000000 0.000000
# 4 0.000000 0.000000 0.000000 0.037871 0.000000 0.000000
# 5 0.000000 0.000000 0.000000 0.000000 0.036376 0.000000
# 6 0.000000 0.000000 0.000000 0.000000 0.000000 0.010475
#
#
# Mechanical properties :
#
#
# Convention : Reuss Voigt Hill
#
# Bulk Modulus (GPa) = 63.31934 64.29571 63.80753
# Shear Modulus (GPa) = 33.25964 43.90264 38.58114
#
# Velocity S-wave (km/s) = 4.09212 4.70148 4.40734
# Velocity P-wave (km/s) = 7.36254 7.86405 7.61742
#
# Compressibility (1/GPa) = 0.01579296
#
# Stress axis : x y z
#
# Youngs Moduli (GPa) = 62.49626 71.87970 122.59917
#
# Poissons Ratio (x) = 0.49780 0.37213
# Poissons Ratio (y) = 0.43281 0.14437
# Poissons Ratio (z) = 0.18970 0.08465
#
# Static dielectric constant tensor:
#      x y z
#    x 3.810150 0.000000 0.000000 
#    y 0.000000 3.743460 0.000000 
#    z 0.000000 0.000000 3.691080 
# 
# 
# High freq. dielectric constant tensor:
#      x y z
#    x 1.773890 0.000000 0.000000 
#    y 0.000000 1.782860 0.000000 
#    z 0.000000 0.000000 1.793990 
# 
# From -- ./inp_files/32470.got.cif
#   From: 2010.03.12/outbox.cif.g09.slc.cpg/sg74_17_cif.got.tgz:32470.got - 2010.04.16 15:46:19.
