data_PCOD8301129
_publ_section_title
;
Structure prediction by ZEFSAII (Michael W. Deem and Ramdas Pophale) SiO2 
 PCOD8301129
Probable space group: I M M A
;
_chemical_formula_sum "Si O2"
_cell_formula_units_Z 112
_cell_length_a 20.998356
_cell_length_b 23.571229
_cell_length_c 11.684912
_cell_angle_alpha 90.000000
_cell_angle_beta 90.000000
_cell_angle_gamma 90.000000
_cell_volume 5783.529665
_symmetry_space_group_name_H-M "I M M A"
_symmetry_group_IT_number 74
_symmetry_cell_setting 'orthorhombic'
loop_
_space_group_symop_operation_xyz
x,y,z
-x,1/2-y,z
x,-y,-z
-x,1/2+y,-z
-x,-y,-z
x,1/2+y,-z
-x,y,z
x,1/2-y,z
1/2+x,1/2+y,1/2+z
1/2-x,-y,1/2+z
1/2+x,1/2-y,1/2-z
1/2-x,y,1/2-z
1/2-x,1/2-y,1/2-z
1/2+x,y,1/2-z
1/2-x,1/2+y,1/2+z
1/2+x,-y,1/2+z
loop_
_atom_site_type_symbol
_atom_site_label
_atom_site_fract_x
_atom_site_fract_y
_atom_site_fract_z
Si Si1 0.607239 0.482256 0.119624
Si Si2 0.924687 0.586687 0.227063
Si Si3 0.070573 0.380291 0.231291
Si Si4 0.072410 0.813873 0.397437
Si Si5 0.341351 0.314931 0.115444
Si Si6 0.370378 0.564473 0.510402
Si Si7 0.763547 0.421645 0.381190
O O1 0.607736 0.534584 0.206790
O O2 0.569332 0.430548 0.175687
O O3 0.677930 0.461761 0.085134
O O4 0.573473 0.500000 0.000000
O O5 0.910536 0.644311 0.294709
O O6 0.888351 0.595374 0.107432
O O7 0.000000 0.575747 0.210012
O O8 0.118191 0.330688 0.271171
O O9 0.000000 0.354849 0.219360
O O10 0.092493 0.404044 0.110255
O O11 0.083650 0.750000 0.352443
O O12 0.115707 0.827267 0.505529
O O13 0.000000 0.822738 0.438509
O O14 0.318805 0.250000 0.123772
O O15 0.279582 0.354763 0.106774
O O16 0.394534 0.500000 0.500000
O O17 0.295031 0.565451 0.535115
O O18 0.750000 0.436426 0.250000
#
# Coordination Sequence:
#
# PCOD8301129 Si02
#       7
#    16  16  16  16  16  16  16
#     4  11  22  35  57  88 118 156 199 256 303 353
#     4  11  22  37  61  91 120 159 203 244 309 372
#     4  11  22  37  57  87 123 153 196 249 302 371
#     4   9  19  38  62  88 120 154 193 247 307 364
#     4  10  21  39  64  89 116 153 202 257 313 358
#     4  12  23  40  58  84 123 169 200 241 303 369
#     4  11  21  41  58  83 120 158 204 246 298 356
#
# _framework density 19.365337
#
# number of rings (size 3 to 8) (size 9 to 14) (size 15 to 20)
#    0.000    1.286    4.286    3.429    0.000    4.000 
#    0.000    3.571    0.000    3.429    0.000    0.000 
#    0.000    0.000    0.000    0.000    0.000    0.000 
#
# Total GULP energy -694495.724574 kJ/mol
# GULP energy per Si atom -12401.709367 kJ/mol
# Density = 1.932126 g / cm^3
# Si number density = 19.365337 Si / 1000 Ang^3
#
#
#
# Elastic Constant Matrix: (Units=GPa)
#
#
# Indices 1 2 3 4 5 6 
#
# 1 59.1144 13.1539 20.5939 0.0000 0.0000 0.0000
# 2 13.1539 84.0379 32.2516 0.0000 0.0000 0.0000
# 3 20.5939 32.2516 113.6414 0.0000 0.0000 0.0000
# 4 0.0000 0.0000 0.0000 29.0180 0.0000 0.0000
# 5 0.0000 0.0000 0.0000 0.0000 -7.1917 0.0000
# 6 0.0000 0.0000 0.0000 0.0000 0.0000 19.3778
#
#
#
# Elastic Compliance Matrix: (Units=1/GPa)
#
#
# Indices 1 2 3 4 5 6 
#
# 1 0.018292 -0.001785 -0.002808 0.000000 0.000000 0.000000
# 2 -0.001785 0.013528 -0.003516 0.000000 0.000000 0.000000
# 3 -0.002808 -0.003516 0.010306 0.000000 0.000000 0.000000
# 4 0.000000 0.000000 0.000000 0.034461 0.000000 0.000000
# 5 0.000000 0.000000 0.000000 0.000000 -0.139050 0.000000
# 6 0.000000 0.000000 0.000000 0.000000 0.000000 0.051605
#
#
# Mechanical properties :
#
#
# Convention : Reuss Voigt Hill
#
# Bulk Modulus (GPa) = 38.59857 43.19917 40.89887
# Shear Modulus (GPa) = 357.19770 20.96045 189.07908
#
# Velocity S-wave (km/s) = 13.59605 3.29351 9.89191
# Velocity P-wave (km/s) = 16.32315 6.06785 12.31389
#
# Compressibility (1/GPa) = 0.02590770
#
# Stress axis : x y z
#
# Youngs Moduli (GPa) = 54.66893 73.92019 97.02839
#
# Poissons Ratio (x) = 0.13198 0.27247
# Poissons Ratio (y) = 0.09761 0.34113
# Poissons Ratio (z) = 0.15352 0.25988
#
# Static dielectric constant tensor:
#      x y z
#    x 3.619340 0.000000 0.000000 
#    y 0.000000 3.637760 0.000000 
#    z 0.000000 0.000000 3.569650 
# 
# 
# High freq. dielectric constant tensor:
#      x y z
#    x 1.750320 0.000000 0.000000 
#    y 0.000000 1.750960 0.000000 
#    z 0.000000 0.000000 1.757360 
# 
# From -- ./inp_files/24165.got.cif
#   From: 2010.03.12/outbox.cif.g09.slc.cpg/sg74_13_cif.got.tgz:24165.got - 2010.04.16 15:46:19.
