data_PCOD8301686
_publ_section_title
;
Structure prediction by ZEFSAII (Michael W. Deem and Ramdas Pophale) SiO2 
 PCOD8301686
Probable space group: I M M A
;
_chemical_formula_sum "Si O2"
_cell_formula_units_Z 68
_cell_length_a 17.014737
_cell_length_b 22.858920
_cell_length_c 8.189934
_cell_angle_alpha 90.000000
_cell_angle_beta 90.000000
_cell_angle_gamma 90.000000
_cell_volume 3185.380743
_symmetry_space_group_name_H-M "I M M A"
_symmetry_group_IT_number 74
_symmetry_cell_setting 'orthorhombic'
loop_
_space_group_symop_operation_xyz
x,y,z
-x,1/2-y,z
x,-y,-z
-x,1/2+y,-z
-x,-y,-z
x,1/2+y,-z
-x,y,z
x,1/2-y,z
1/2+x,1/2+y,1/2+z
1/2-x,-y,1/2+z
1/2+x,1/2-y,1/2-z
1/2-x,y,1/2-z
1/2-x,1/2-y,1/2-z
1/2+x,y,1/2-z
1/2-x,1/2+y,1/2+z
1/2+x,-y,1/2+z
loop_
_atom_site_type_symbol
_atom_site_label
_atom_site_fract_x
_atom_site_fract_y
_atom_site_fract_z
Si Si1 0.000000 0.750000 0.643748
Si Si2 0.133849 0.153339 0.903312
Si Si3 0.500000 0.488794 0.187858
Si Si4 0.000000 0.367442 0.145651
Si Si5 0.881825 0.750000 0.354578
Si Si6 0.668203 0.971043 0.327182
Si Si7 0.769116 0.250000 0.060030
O O1 0.000000 0.806009 0.760219
O O2 0.926071 0.750000 0.525644
O O3 0.099144 0.193020 0.755514
O O4 0.181056 0.098973 0.829313
O O5 0.184197 0.191200 0.028285
O O6 0.070790 0.125068 0.021853
O O7 0.500000 0.419652 0.224402
O O8 0.416996 0.516527 0.245779
O O9 0.500000 0.500000 0.000000
O O10 0.793559 0.750000 0.414737
O O11 0.750000 0.996444 0.250000
O O12 0.662443 0.000000 0.500000
O O13 0.750000 0.250000 0.250000
#
# Coordination Sequence:
#
# PCOD8301686 Si02
#       7
#     4  16   8   8   8  16   8
#     4  12  26  40  66 104 130 172 236 278 352 424
#     4  11  23  43  70  95 136 178 229 285 349 419
#     4  12  28  49  71 102 148 190 232 297 362 429
#     4  12  24  46  68 101 137 182 225 296 358 414
#     4  11  23  42  66 101 132 182 226 283 350 419
#     4  12  25  47  72 106 139 186 241 291 352 426
#     4  11  23  42  64  99 141 178 223 287 356 417
#
# _framework density 21.347525000000001
#
# number of rings (size 3 to 8) (size 9 to 14) (size 15 to 20)
#    0.000    0.471    2.353    8.118    3.294    0.941 
#    8.471    0.000    0.000    0.000    0.000    0.000 
#    0.000    0.000    0.000    0.000    0.000    0.000 
#
# Total GULP energy -421218.354110 kJ/mol
# GULP energy per Si atom -12388.775121 kJ/mol
# Density = 2.129894 g / cm^3
# Si number density = 21.347525 Si / 1000 Ang^3
#
#
#
# Elastic Constant Matrix: (Units=GPa)
#
#
# Indices 1 2 3 4 5 6 
#
# 1 150.3679 28.7326 53.2383 0.0000 0.0000 0.0000
# 2 28.7326 134.3440 36.8981 0.0000 0.0000 0.0000
# 3 53.2383 36.8981 141.9642 0.0000 0.0000 0.0000
# 4 0.0000 0.0000 0.0000 39.7951 0.0000 0.0000
# 5 0.0000 0.0000 0.0000 0.0000 49.0616 0.0000
# 6 0.0000 0.0000 0.0000 0.0000 0.0000 27.8156
#
#
#
# Elastic Compliance Matrix: (Units=1/GPa)
#
#
# Indices 1 2 3 4 5 6 
#
# 1 0.007775 -0.000928 -0.002674 0.000000 0.000000 0.000000
# 2 -0.000928 0.008127 -0.001764 0.000000 0.000000 0.000000
# 3 -0.002674 -0.001764 0.008505 0.000000 0.000000 0.000000
# 4 0.000000 0.000000 0.000000 0.025129 0.000000 0.000000
# 5 0.000000 0.000000 0.000000 0.000000 0.020383 0.000000
# 6 0.000000 0.000000 0.000000 0.000000 0.000000 0.035951
#
#
# Mechanical properties :
#
#
# Convention : Reuss Voigt Hill
#
# Bulk Modulus (GPa) = 73.13511 73.82379 73.47945
# Shear Modulus (GPa) = 41.26773 43.85493 42.56133
#
# Velocity S-wave (km/s) = 4.40152 4.53739 4.46997
# Velocity P-wave (km/s) = 7.75660 7.88083 7.81896
#
# Compressibility (1/GPa) = 0.01367332
#
# Stress axis : x y z
#
# Youngs Moduli (GPa) = 128.62443 123.05231 117.57204
#
# Poissons Ratio (x) = 0.11423 0.31442
# Poissons Ratio (y) = 0.11940 0.20741
# Poissons Ratio (z) = 0.34398 0.21708
#
# Static dielectric constant tensor:
#      x y z
#    x 108.492630 0.000000 0.000000 
#    y 0.000000 3.889010 0.000000 
#    z 0.000000 0.000000 3.850460 
# 
# 
# High freq. dielectric constant tensor:
#      x y z
#    x 1.854480 0.000000 0.000000 
#    y 0.000000 1.845020 0.000000 
#    z 0.000000 0.000000 1.853940 
# 
# From -- ./inp_files/10513.got.cif
#   From: 2010.03.12/outbox.cif.g09.slc.cpg/sg74_6_cif.got.tgz:10513.got - 2010.04.16 15:46:19.
