data_PCOD8301202
_publ_section_title
;
Structure prediction by ZEFSAII (Michael W. Deem and Ramdas Pophale) SiO2 
 PCOD8301202
Probable space group: I M M A
;
_chemical_formula_sum "Si O2"
_cell_formula_units_Z 120
_cell_length_a 27.172471
_cell_length_b 9.216658
_cell_length_c 26.492814
_cell_angle_alpha 90.000000
_cell_angle_beta 90.000000
_cell_angle_gamma 90.000000
_cell_volume 6634.843707
_symmetry_space_group_name_H-M "I M M A"
_symmetry_group_IT_number 74
_symmetry_cell_setting 'orthorhombic'
loop_
_space_group_symop_operation_xyz
x,y,z
-x,1/2-y,z
x,-y,-z
-x,1/2+y,-z
-x,-y,-z
x,1/2+y,-z
-x,y,z
x,1/2-y,z
1/2+x,1/2+y,1/2+z
1/2-x,-y,1/2+z
1/2+x,1/2-y,1/2-z
1/2-x,y,1/2-z
1/2-x,1/2-y,1/2-z
1/2+x,y,1/2-z
1/2-x,1/2+y,1/2+z
1/2+x,-y,1/2+z
loop_
_atom_site_type_symbol
_atom_site_label
_atom_site_fract_x
_atom_site_fract_y
_atom_site_fract_z
Si Si1 0.290414 0.917834 0.820017
Si Si2 0.693069 0.419278 0.452818
Si Si3 0.176105 0.583843 0.839675
Si Si4 0.202292 0.589363 0.571783
Si Si5 0.121658 0.000000 0.500000
Si Si6 0.942431 0.918971 0.685708
Si Si7 0.863097 0.077115 0.750255
Si Si8 0.055396 0.089433 0.588127
O O1 0.303856 0.750000 0.807712
O O2 0.232103 0.941095 0.821900
O O3 0.313405 0.974482 0.873662
O O4 0.314488 0.019867 0.778159
O O5 0.666518 0.500000 0.500000
O O6 0.691300 0.250000 0.465108
O O7 0.667979 0.453474 0.398864
O O8 0.749003 0.485887 0.450775
O O9 0.160889 0.750000 0.829237
O O10 0.140873 0.476795 0.808099
O O11 0.221415 0.750000 0.585791
O O12 0.157166 0.601070 0.533195
O O13 0.088541 0.908460 0.461979
O O14 0.928693 0.750000 0.688930
O O15 0.000000 0.947051 0.695564
O O16 0.912444 0.008658 0.726960
O O17 0.927307 0.973550 0.629740
O O18 0.866007 0.250000 0.747847
O O19 0.058546 0.250000 0.612261
O O20 0.000000 0.052790 0.570793
#
# Coordination Sequence:
#
# PCOD8301202 Si02
#       8
#    16  16  16  16   8  16  16  16
#     4   9  18  34  52  68  97 141 180 214 254 304
#     4   9  17  32  50  70  97 134 170 206 244 282
#     4   9  19  34  52  73 103 142 180 212 248 299
#     4   9  18  30  44  65  91 123 166 208 249 296
#     4  12  19  28  48  70  96 130 166 212 263 314
#     4  10  22  41  62  77  93 127 172 214 265 330
#     4  12  23  33  51  79 107 131 162 210 266 315
#     4  10  22  37  50  69  97 126 162 214 273 322
#
# _framework density 18.086334000000001
#
# number of rings (size 3 to 8) (size 9 to 14) (size 15 to 20)
#    0.000    2.133    0.667    5.000    0.000    5.600 
#    0.000    4.000    0.000    0.000    0.000    0.000 
#    0.000    0.533    0.000    1.733    0.000    2.133 
#
# Total GULP energy -743598.283744 kJ/mol
# GULP energy per Si atom -12393.304729 kJ/mol
# Density = 1.804517 g / cm^3
# Si number density = 18.086334 Si / 1000 Ang^3
#
#
#
# Elastic Constant Matrix: (Units=GPa)
#
#
# Indices 1 2 3 4 5 6 
#
# 1 50.8401 29.9032 41.2906 0.0000 0.0000 0.0000
# 2 29.9032 107.8183 62.0435 0.0000 0.0000 0.0000
# 3 41.2906 62.0435 137.4609 0.0000 0.0000 0.0000
# 4 0.0000 0.0000 0.0000 30.4558 0.0000 0.0000
# 5 0.0000 0.0000 0.0000 0.0000 32.8349 0.0000
# 6 0.0000 0.0000 0.0000 0.0000 0.0000 19.8121
#
#
#
# Elastic Compliance Matrix: (Units=1/GPa)
#
#
# Indices 1 2 3 4 5 6 
#
# 1 0.027139 -0.003831 -0.006423 0.000000 0.000000 0.000000
# 2 -0.003831 0.013070 -0.004748 0.000000 0.000000 0.000000
# 3 -0.006423 -0.004748 0.011347 0.000000 0.000000 0.000000
# 4 0.000000 0.000000 0.000000 0.032835 0.000000 0.000000
# 5 0.000000 0.000000 0.000000 0.000000 0.030455 0.000000
# 6 0.000000 0.000000 0.000000 0.000000 0.000000 0.050474
#
#
# Mechanical properties :
#
#
# Convention : Reuss Voigt Hill
#
# Bulk Modulus (GPa) = 46.39976 62.51044 54.45510
# Shear Modulus (GPa) = 24.69022 27.47936 26.08479
#
# Velocity S-wave (km/s) = 3.69878 3.90210 3.80180
# Velocity P-wave (km/s) = 6.62960 7.41210 7.03174
#
# Compressibility (1/GPa) = 0.02155183
#
# Stress axis : x y z
#
# Youngs Moduli (GPa) = 36.84675 76.51235 88.12642
#
# Poissons Ratio (x) = 0.29312 0.56604
# Poissons Ratio (y) = 0.14116 0.41845
# Poissons Ratio (z) = 0.23667 0.36331
#
# Static dielectric constant tensor:
#      x y z
#    x 3.057330 0.000000 0.000000 
#    y 0.000000 3.166720 0.000000 
#    z 0.000000 0.000000 3.497070 
# 
# 
# High freq. dielectric constant tensor:
#      x y z
#    x 1.662880 0.000000 0.000000 
#    y 0.000000 1.688530 0.000000 
#    z 0.000000 0.000000 1.707120 
# 
# From -- ./inp_files/69006.got.cif
#   From: 2010.03.12/outbox.cif.g09.slc.cpg/sg74_35_cif.got.tgz:69006.got - 2010.04.16 15:46:19.
