data_PCOD8301263
_publ_section_title
;
Structure prediction by ZEFSAII (Michael W. Deem and Ramdas Pophale) SiO2 
 PCOD8301263
Probable space group: I M M A
;
_chemical_formula_sum "Si O2"
_cell_formula_units_Z 56
_cell_length_a 28.667651
_cell_length_b 17.358204
_cell_length_c 5.182918
_cell_angle_alpha 90.000000
_cell_angle_beta 90.000000
_cell_angle_gamma 90.000000
_cell_volume 2579.118132
_symmetry_space_group_name_H-M "I M M A"
_symmetry_group_IT_number 74
_symmetry_cell_setting 'orthorhombic'
loop_
_space_group_symop_operation_xyz
x,y,z
-x,1/2-y,z
x,-y,-z
-x,1/2+y,-z
-x,-y,-z
x,1/2+y,-z
-x,y,z
x,1/2-y,z
1/2+x,1/2+y,1/2+z
1/2-x,-y,1/2+z
1/2+x,1/2-y,1/2-z
1/2-x,y,1/2-z
1/2-x,1/2-y,1/2-z
1/2+x,y,1/2-z
1/2-x,1/2+y,1/2+z
1/2+x,-y,1/2+z
loop_
_atom_site_type_symbol
_atom_site_label
_atom_site_fract_x
_atom_site_fract_y
_atom_site_fract_z
Si Si1 0.395410 0.159038 0.724915
Si Si2 0.250000 0.049941 0.250000
Si Si3 0.296521 0.337277 0.917501
Si Si4 0.552798 0.342025 0.226456
O O1 0.401681 0.250000 0.719459
O O2 0.340826 0.137206 0.747726
O O3 0.417102 0.124078 0.464226
O O4 0.423940 0.125075 0.966933
O O5 0.207283 0.105643 0.336899
O O6 0.265613 0.000000 0.500000
O O7 0.302884 0.250000 0.022133
O O8 0.250000 0.345415 0.750000
O O9 0.500000 0.372492 0.247358
O O10 0.553720 0.250000 0.227632
#
# Coordination Sequence:
#
# PCOD8301263 Si02
#       4
#    16   8  16  16
#     4   9  18  29  47  74 105 144 188 226 273 339
#     4  12  25  42  59  82 118 158 196 242 291 344
#     4  10  22  39  61  87 119 158 198 239 288 347
#     4   9  16  27  43  68 106 146 180 223 280 336
#
# _framework density 21.712848999999999
#
# number of rings (size 3 to 8) (size 9 to 14) (size 15 to 20)
#    0.000    2.286    1.429    1.286    4.000    3.429 
#    0.000    0.000    0.000    0.000    0.000    0.000 
#    0.000   22.857    0.000    0.000    0.000    0.000 
#
# Total GULP energy -347063.200945 kJ/mol
# GULP energy per Si atom -12395.114319 kJ/mol
# Density = 2.166343 g / cm^3
# Si number density = 21.712849 Si / 1000 Ang^3
#
#
#
# Elastic Constant Matrix: (Units=GPa)
#
#
# Indices 1 2 3 4 5 6 
#
# 1 156.0797 3.1272 46.7145 0.0000 0.0000 0.0000
# 2 3.1272 50.0407 10.0210 0.0000 0.0000 0.0000
# 3 46.7145 10.0210 135.3463 0.0001 0.0000 0.0000
# 4 0.0000 0.0000 0.0001 8.8015 0.0000 0.0000
# 5 0.0000 0.0000 0.0000 0.0000 40.4462 0.0000
# 6 0.0000 0.0000 0.0000 0.0000 0.0000 -0.6307
#
#
#
# Elastic Compliance Matrix: (Units=1/GPa)
#
#
# Indices 1 2 3 4 5 6 
#
# 1 0.007145 0.000048 -0.002470 0.000000 0.000000 0.000000
# 2 0.000048 0.020285 -0.001518 0.000000 0.000000 0.000000
# 3 -0.002470 -0.001518 0.008353 0.000000 0.000000 0.000000
# 4 0.000000 0.000000 0.000000 0.113617 0.000000 0.000001
# 5 0.000000 0.000000 0.000000 0.000000 0.024724 0.000000
# 6 0.000000 0.000000 0.000000 0.000001 0.000000 -1.585461
#
#
# Mechanical properties :
#
#
# Convention : Reuss Voigt Hill
#
# Bulk Modulus (GPa) = 35.83839 51.24358 43.54099
# Shear Modulus (GPa) = -3.58640 28.49701 12.45530
#
# Velocity S-wave (km/s) = -1.28660 3.62670 2.39767
# Velocity P-wave (km/s) = 3.78607 6.41788 5.26894
#
# Compressibility (1/GPa) = 0.02790304
#
# Stress axis : x y z
#
# Youngs Moduli (GPa) = 139.95410 49.29800 119.71322
#
# Poissons Ratio (x) = -0.00237 0.29566
# Poissons Ratio (y) = -0.00673 0.18178
# Poissons Ratio (z) = 0.34565 0.07486
#
# Static dielectric constant tensor:
#      x y z
#    x 3.954860 0.000000 0.000000 
#    y 0.000000 3.566950 0.000000 
#    z 0.000000 0.000000 4.189500 
# 
# 
# High freq. dielectric constant tensor:
#      x y z
#    x 1.853780 0.000000 0.000000 
#    y 0.000000 1.789490 0.000000 
#    z 0.000000 0.000000 1.864630 
# 
# From -- ./inp_files/2145.got.cif
#   From: 2010.03.12/outbox.cif.g09.slc.cpg/sg74_2_cif.got.tgz:2145.got - 2010.04.16 15:46:19.
