data_PCOD8301462
_publ_section_title
;
Structure prediction by ZEFSAII (Michael W. Deem and Ramdas Pophale) SiO2 
 PCOD8301462
Probable space group: I M M A
;
_chemical_formula_sum "Si O2"
_cell_formula_units_Z 96
_cell_length_a 23.292557
_cell_length_b 18.146407
_cell_length_c 12.945878
_cell_angle_alpha 90.000000
_cell_angle_beta 90.000000
_cell_angle_gamma 90.000000
_cell_volume 5471.914770
_symmetry_space_group_name_H-M "I M M A"
_symmetry_group_IT_number 74
_symmetry_cell_setting 'orthorhombic'
loop_
_space_group_symop_operation_xyz
x,y,z
-x,1/2-y,z
x,-y,-z
-x,1/2+y,-z
-x,-y,-z
x,1/2+y,-z
-x,y,z
x,1/2-y,z
1/2+x,1/2+y,1/2+z
1/2-x,-y,1/2+z
1/2+x,1/2-y,1/2-z
1/2-x,y,1/2-z
1/2-x,1/2-y,1/2-z
1/2+x,y,1/2-z
1/2-x,1/2+y,1/2+z
1/2+x,-y,1/2+z
loop_
_atom_site_type_symbol
_atom_site_label
_atom_site_fract_x
_atom_site_fract_y
_atom_site_fract_z
Si Si1 0.771986 0.336438 0.393594
Si Si2 0.433021 0.164571 0.652283
Si Si3 0.938121 0.335270 0.076577
Si Si4 0.659686 0.608686 0.714114
Si Si5 0.737128 0.568718 0.077789
Si Si6 0.840703 0.058595 0.772941
O O1 0.761151 0.250000 0.380289
O O2 0.717764 0.381749 0.350849
O O3 0.828579 0.361485 0.329967
O O4 0.778430 0.357641 0.513282
O O5 0.500000 0.153927 0.679829
O O6 0.415083 0.250000 0.667081
O O7 0.420000 0.134192 0.536230
O O8 0.394620 0.113955 0.727515
O O9 0.947163 0.250000 0.056940
O O10 0.891623 0.345629 0.164871
O O11 0.000000 0.369484 0.110324
O O12 0.638989 0.524755 0.709001
O O13 0.796808 0.581842 0.136858
O O14 0.687089 0.558544 0.160147
O O15 0.739992 0.500000 0.000000
#
# Coordination Sequence:
#
# PCOD8301462 Si02
#       6
#    16  16  16  16  16  16
#     4  11  21  33  54  77 105 145 181 217 268 324
#     4   9  20  38  56  79 112 146 185 231 276 324
#     4   9  18  32  50  74 108 142 171 218 273 316
#     4  11  19  32  51  79 108 138 175 220 264 330
#     4  11  20  38  51  77 115 142 175 224 275 321
#     4  11  22  33  59  79 106 149 178 219 282 327
#
# _framework density 17.544132999999999
#
# number of rings (size 3 to 8) (size 9 to 14) (size 15 to 20)
#    0.000    1.667    3.333    5.000    0.000    3.333 
#    0.000    3.333    0.000    1.500    0.000    2.333 
#    0.000    0.000    0.000    0.000    0.000    0.000 
#
# Total GULP energy -595071.709852 kJ/mol
# GULP energy per Si atom -12397.327289 kJ/mol
# Density = 1.750420 g / cm^3
# Si number density = 17.544133 Si / 1000 Ang^3
#
#
#
# Elastic Constant Matrix: (Units=GPa)
#
#
# Indices 1 2 3 4 5 6 
#
# 1 78.5539 27.7909 28.9854 0.0000 0.0000 0.0000
# 2 27.7909 89.3275 22.6193 0.0000 0.0000 0.0000
# 3 28.9854 22.6193 82.0082 0.0000 0.0000 0.0000
# 4 0.0000 0.0000 0.0000 27.8316 0.0000 0.0000
# 5 0.0000 0.0000 0.0000 0.0000 21.7839 0.0000
# 6 0.0000 0.0000 0.0000 0.0000 0.0000 15.3682
#
#
#
# Elastic Compliance Matrix: (Units=1/GPa)
#
#
# Indices 1 2 3 4 5 6 
#
# 1 0.015725 -0.003747 -0.004525 0.000000 0.000000 0.000000
# 2 -0.003747 0.012928 -0.002242 0.000000 0.000000 0.000000
# 3 -0.004525 -0.002242 0.014411 0.000000 0.000000 0.000000
# 4 0.000000 0.000000 0.000000 0.035930 0.000000 0.000000
# 5 0.000000 0.000000 0.000000 0.000000 0.045905 0.000000
# 6 0.000000 0.000000 0.000000 0.000000 0.000000 0.065069
#
#
# Mechanical properties :
#
#
# Convention : Reuss Voigt Hill
#
# Bulk Modulus (GPa) = 45.37413 45.40899 45.39156
# Shear Modulus (GPa) = 22.89992 24.36301 23.63146
#
# Velocity S-wave (km/s) = 3.61678 3.73053 3.67409
# Velocity P-wave (km/s) = 6.58487 6.67044 6.62779
#
# Compressibility (1/GPa) = 0.02203899
#
# Stress axis : x y z
#
# Youngs Moduli (GPa) = 63.59260 77.35170 69.38976
#
# Poissons Ratio (x) = 0.28980 0.31396
# Poissons Ratio (y) = 0.23825 0.15554
# Poissons Ratio (z) = 0.28773 0.17339
#
# Static dielectric constant tensor:
#      x y z
#    x 3.141320 0.000000 0.000000 
#    y 0.000000 3.230990 0.000000 
#    z 0.000000 0.000000 3.353870 
# 
# 
# High freq. dielectric constant tensor:
#      x y z
#    x 1.662320 0.000000 0.000000 
#    y 0.000000 1.680870 0.000000 
#    z 0.000000 0.000000 1.669860 
# 
# From -- ./inp_files/22451.got.cif
#   From: 2010.03.12/outbox.cif.g09.slc.cpg/sg74_12_cif.got.tgz:22451.got - 2010.04.16 15:46:19.
