data_PCOD8301736
_publ_section_title
;
Structure prediction by ZEFSAII (Michael W. Deem and Ramdas Pophale) SiO2 
 PCOD8301736
Probable space group: I M M A
;
_chemical_formula_sum "Si O2"
_cell_formula_units_Z 56
_cell_length_a 8.788343
_cell_length_b 12.416795
_cell_length_c 26.058444
_cell_angle_alpha 90.000000
_cell_angle_beta 90.000000
_cell_angle_gamma 90.000000
_cell_volume 2843.576977
_symmetry_space_group_name_H-M "I M M A"
_symmetry_group_IT_number 74
_symmetry_cell_setting 'orthorhombic'
loop_
_space_group_symop_operation_xyz
x,y,z
-x,1/2-y,z
x,-y,-z
-x,1/2+y,-z
-x,-y,-z
x,1/2+y,-z
-x,y,z
x,1/2-y,z
1/2+x,1/2+y,1/2+z
1/2-x,-y,1/2+z
1/2+x,1/2-y,1/2-z
1/2-x,y,1/2-z
1/2-x,1/2-y,1/2-z
1/2+x,y,1/2-z
1/2-x,1/2+y,1/2+z
1/2+x,-y,1/2+z
loop_
_atom_site_type_symbol
_atom_site_label
_atom_site_fract_x
_atom_site_fract_y
_atom_site_fract_z
Si Si1 0.176384 0.929418 0.125230
Si Si2 0.820102 0.250000 0.694173
Si Si3 0.167114 0.125800 0.524859
Si Si4 0.176932 0.370695 0.411168
O O1 0.268059 0.857132 0.165053
O O2 0.203846 0.887158 0.067541
O O3 0.000000 0.922162 0.138902
O O4 0.234548 0.053027 0.129023
O O5 0.750000 0.250000 0.750000
O O6 0.000000 0.250000 0.697795
O O7 0.155644 0.250000 0.508765
O O8 0.202798 0.073168 0.468245
O O9 0.000000 0.088544 0.545938
O O10 0.245627 0.250000 0.407251
O O11 0.000000 0.368070 0.397345
#
# Coordination Sequence:
#
# PCOD8301736 Si02
#       4
#    16   8  16  16
#     4  12  23  35  55  85 118 152 190 238 295 348
#     4  12  26  46  68  88 112 144 190 246 299 352
#     4   9  17  31  52  78 112 158 202 238 280 339
#     4   9  19  35  55  81 115 160 205 237 277 339
#
# _framework density 19.693505999999999
#
# number of rings (size 3 to 8) (size 9 to 14) (size 15 to 20)
#    0.000    1.714    1.429    6.429    0.000    5.143 
#    0.000    2.857    0.000    0.857    0.000    0.000 
#    0.000    0.000    0.000    0.000    0.000    0.000 
#
# Total GULP energy -347170.159613 kJ/mol
# GULP energy per Si atom -12398.934272 kJ/mol
# Density = 1.964868 g / cm^3
# Si number density = 19.693506 Si / 1000 Ang^3
#
#
#
# Elastic Constant Matrix: (Units=GPa)
#
#
# Indices 1 2 3 4 5 6 
#
# 1 129.7867 50.6692 49.3780 0.0000 0.0000 0.0000
# 2 50.6692 112.6430 58.6169 0.0000 0.0000 0.0000
# 3 49.3780 58.6169 88.7109 0.0000 0.0000 0.0000
# 4 0.0000 0.0000 0.0000 16.7461 0.0000 0.0000
# 5 0.0000 0.0000 0.0000 0.0000 28.0228 0.0000
# 6 0.0000 0.0000 0.0000 0.0000 0.0000 25.5508
#
#
#
# Elastic Compliance Matrix: (Units=1/GPa)
#
#
# Indices 1 2 3 4 5 6 
#
# 1 0.010215 -0.002493 -0.004038 0.000000 0.000000 0.000000
# 2 -0.002493 0.014138 -0.007954 0.000000 0.000000 0.000000
# 3 -0.004038 -0.007954 0.018776 0.000000 0.000000 0.000000
# 4 0.000000 0.000000 0.000000 0.059715 0.000000 0.000000
# 5 0.000000 0.000000 0.000000 0.000000 0.035685 0.000000
# 6 0.000000 0.000000 0.000000 0.000000 0.000000 0.039138
#
#
# Mechanical properties :
#
#
# Convention : Reuss Voigt Hill
#
# Bulk Modulus (GPa) = 70.63316 72.05207 71.34262
# Shear Modulus (GPa) = 23.65649 25.56238 24.60944
#
# Velocity S-wave (km/s) = 3.46964 3.60670 3.53883
# Velocity P-wave (km/s) = 7.21078 7.34919 7.28031
#
# Compressibility (1/GPa) = 0.01415766
#
# Stress axis : x y z
#
# Youngs Moduli (GPa) = 97.89799 70.72928 53.25913
#
# Poissons Ratio (x) = 0.17636 0.21507
# Poissons Ratio (y) = 0.24410 0.42364
# Poissons Ratio (z) = 0.39532 0.56260
#
# Static dielectric constant tensor:
#      x y z
#    x 3.349000 0.000000 0.000000 
#    y 0.000000 4.194400 0.000000 
#    z 0.000000 0.000000 3.487240 
# 
# 
# High freq. dielectric constant tensor:
#      x y z
#    x 1.751450 0.000000 0.000000 
#    y 0.000000 1.810270 0.000000 
#    z 0.000000 0.000000 1.716280 
# 
# From -- ./inp_files/56285.got.cif
#   From: 2010.03.12/outbox.cif.g09.slc.cpg/sg74_29_cif.got.tgz:56285.got - 2010.04.16 15:46:19.
