data_PCOD8301173
_publ_section_title
;
Structure prediction by ZEFSAII (Michael W. Deem and Ramdas Pophale) SiO2 
 PCOD8301173
Probable space group: I M M A
;
_chemical_formula_sum "Si O2"
_cell_formula_units_Z 64
_cell_length_a 17.766352
_cell_length_b 10.115848
_cell_length_c 17.770434
_cell_angle_alpha 90.000000
_cell_angle_beta 90.000000
_cell_angle_gamma 90.000000
_cell_volume 3193.732899
_symmetry_space_group_name_H-M "I M M A"
_symmetry_group_IT_number 74
_symmetry_cell_setting 'orthorhombic'
loop_
_space_group_symop_operation_xyz
x,y,z
-x,1/2-y,z
x,-y,-z
-x,1/2+y,-z
-x,-y,-z
x,1/2+y,-z
-x,y,z
x,1/2-y,z
1/2+x,1/2+y,1/2+z
1/2-x,-y,1/2+z
1/2+x,1/2-y,1/2-z
1/2-x,y,1/2-z
1/2-x,1/2-y,1/2-z
1/2+x,y,1/2-z
1/2-x,1/2+y,1/2+z
1/2+x,-y,1/2+z
loop_
_atom_site_type_symbol
_atom_site_label
_atom_site_fract_x
_atom_site_fract_y
_atom_site_fract_z
Si Si1 0.085035 0.903458 0.310562
Si Si2 0.084010 0.750000 0.069006
Si Si3 0.705488 0.595202 0.071546
Si Si4 0.909564 0.750000 0.904140
Si Si5 0.349685 0.517966 0.341071
O O1 0.082263 0.750000 0.290188
O O2 0.123064 0.925701 0.392180
O O3 0.137071 0.972788 0.248134
O O4 0.000000 0.961948 0.312517
O O5 0.096617 0.619412 0.116415
O O6 0.000000 0.750000 0.041258
O O7 0.126054 0.750000 0.988615
O O8 0.718405 0.750000 0.049805
O O9 0.764625 0.553037 0.135912
O O10 0.714237 0.500000 0.000000
O O11 0.873678 0.626747 0.863140
O O12 0.000000 0.750000 0.897239
#
# Coordination Sequence:
#
# PCOD8301173 Si02
#       5
#    16   8  16   8  16
#     4  10  21  41  68  94 123 165 214 258 306 371
#     4  11  20  34  57  84 120 168 209 245 302 370
#     4  11  24  42  66  95 126 164 211 260 311 372
#     4  11  24  36  53  90 134 168 207 253 310 374
#     4  12  22  38  63  90 125 163 205 260 313 368
#
# _framework density 20.039245999999999
#
# number of rings (size 3 to 8) (size 9 to 14) (size 15 to 20)
#    0.000    1.000    2.500    5.250    1.750    4.500 
#    2.250    1.250    0.000    0.000    0.000    0.000 
#    0.000    0.000    0.000    0.000    0.000    0.000 
#
# Total GULP energy -396736.774984 kJ/mol
# GULP energy per Si atom -12398.024218 kJ/mol
# Density = 1.999364 g / cm^3
# Si number density = 20.039246 Si / 1000 Ang^3
#
#
#
# Elastic Constant Matrix: (Units=GPa)
#
#
# Indices 1 2 3 4 5 6 
#
# 1 107.5826 34.8052 49.2209 0.0000 0.0000 0.0000
# 2 34.8052 136.9146 40.1024 0.0000 0.0000 0.0000
# 3 49.2209 40.1024 83.8671 0.0000 0.0000 0.0000
# 4 0.0000 0.0000 0.0000 21.5839 0.0000 0.0000
# 5 0.0000 0.0000 0.0000 0.0000 33.5577 0.0000
# 6 0.0000 0.0000 0.0000 0.0000 0.0000 10.8791
#
#
#
# Elastic Compliance Matrix: (Units=1/GPa)
#
#
# Indices 1 2 3 4 5 6 
#
# 1 0.012884 -0.001233 -0.006972 0.000000 0.000000 0.000000
# 2 -0.001233 0.008611 -0.003394 0.000000 0.000000 0.000000
# 3 -0.006972 -0.003394 0.017638 0.000000 0.000000 0.000000
# 4 0.000000 0.000000 0.000000 0.046331 0.000000 0.000000
# 5 0.000000 0.000000 0.000000 0.000000 0.029799 0.000000
# 6 0.000000 0.000000 0.000000 0.000000 0.000000 0.091920
#
#
# Mechanical properties :
#
#
# Convention : Reuss Voigt Hill
#
# Bulk Modulus (GPa) = 62.75238 64.06905 63.41071
# Shear Modulus (GPa) = 21.21404 26.81984 24.01694
#
# Velocity S-wave (km/s) = 3.25718 3.66234 3.46568
# Velocity P-wave (km/s) = 6.74747 7.06575 6.90844
#
# Compressibility (1/GPa) = 0.01593565
#
# Stress axis : x y z
#
# Youngs Moduli (GPa) = 77.61661 116.12515 56.69527
#
# Poissons Ratio (x) = 0.14320 0.39527
# Poissons Ratio (y) = 0.09572 0.19242
# Poissons Ratio (z) = 0.54112 0.39412
#
# Static dielectric constant tensor:
#      x y z
#    x 3.805650 0.000000 0.000000 
#    y 0.000000 3.540250 0.000000 
#    z 0.000000 0.000000 3.553930 
# 
# 
# High freq. dielectric constant tensor:
#      x y z
#    x 1.789440 0.000000 0.000000 
#    y 0.000000 1.773090 0.000000 
#    z 0.000000 0.000000 1.781410 
# 
# From -- ./inp_files/44798.got.cif
#   From: 2010.03.12/outbox.cif.g09.slc.cpg/sg74_23_cif.got.tgz:44798.got - 2010.04.16 15:46:19.
