data_PCOD8301127
_publ_section_title
;
Structure prediction by ZEFSAII (Michael W. Deem and Ramdas Pophale) SiO2 
 PCOD8301127
Probable space group: I M M A
;
_chemical_formula_sum "Si O2"
_cell_formula_units_Z 60
_cell_length_a 14.869478
_cell_length_b 24.436838
_cell_length_c 7.374864
_cell_angle_alpha 90.000000
_cell_angle_beta 90.000000
_cell_angle_gamma 90.000000
_cell_volume 2679.752892
_symmetry_space_group_name_H-M "I M M A"
_symmetry_group_IT_number 74
_symmetry_cell_setting 'orthorhombic'
loop_
_space_group_symop_operation_xyz
x,y,z
-x,1/2-y,z
x,-y,-z
-x,1/2+y,-z
-x,-y,-z
x,1/2+y,-z
-x,y,z
x,1/2-y,z
1/2+x,1/2+y,1/2+z
1/2-x,-y,1/2+z
1/2+x,1/2-y,1/2-z
1/2-x,y,1/2-z
1/2-x,1/2-y,1/2-z
1/2+x,y,1/2-z
1/2-x,1/2+y,1/2+z
1/2+x,-y,1/2+z
loop_
_atom_site_type_symbol
_atom_site_label
_atom_site_fract_x
_atom_site_fract_y
_atom_site_fract_z
Si Si1 0.000000 0.250000 0.421030
Si Si2 0.500000 0.364361 0.241687
Si Si3 0.190900 0.132904 0.413733
Si Si4 0.306514 0.250000 0.937474
Si Si5 0.665111 0.960047 0.156542
Si Si6 0.500000 0.441314 0.588758
O O1 0.000000 0.298345 0.271224
O O2 0.916362 0.250000 0.564708
O O3 0.587823 0.382218 0.132461
O O4 0.500000 0.390816 0.443988
O O5 0.250000 0.111921 0.250000
O O6 0.219141 0.195493 0.453175
O O7 0.212356 0.095217 0.583814
O O8 0.250000 0.250000 0.750000
O O9 0.750000 0.991277 0.250000
O O10 0.588385 0.938746 0.290001
O O11 0.625650 0.000000 0.000000
O O12 0.500000 0.500000 0.500000
#
# Coordination Sequence:
#
# PCOD8301127 Si02
#       6
#     4   8  16   8  16   8
#     4   8  20  40  66  88 126 164 198 246 302 350
#     4  10  21  40  62  88 119 160 202 244 301 360
#     4  11  22  41  63  88 123 162 200 247 300 357
#     4  10  21  39  63  93 123 160 202 246 295 354
#     4  12  24  40  61  89 121 158 200 250 302 359
#     4  12  24  41  63  90 119 157 204 251 302 360
#
# _framework density 22.390125000000001
#
# number of rings (size 3 to 8) (size 9 to 14) (size 15 to 20)
#    0.000    1.067    0.000    7.200    0.000    0.000 
#    0.000    2.667    0.000    0.000    0.000    0.000 
#    0.000    0.000    0.000    0.000    0.000    0.000 
#
# Total GULP energy -371675.225405 kJ/mol
# GULP energy per Si atom -12389.174180 kJ/mol
# Density = 2.233916 g / cm^3
# Si number density = 22.390125 Si / 1000 Ang^3
#
#
#
# Elastic Constant Matrix: (Units=GPa)
#
#
# Indices 1 2 3 4 5 6 
#
# 1 122.0637 25.8868 61.8577 0.0009 -0.0002 0.0002
# 2 25.8868 126.3975 59.4036 -0.0014 -0.0006 -0.0006
# 3 61.8577 59.4036 140.6663 -0.0032 -0.0012 -0.0071
# 4 0.0009 -0.0014 -0.0032 47.8547 -0.0009 -0.0011
# 5 -0.0002 -0.0006 -0.0012 -0.0009 54.6378 0.0001
# 6 0.0002 -0.0006 -0.0071 -0.0011 0.0001 19.6571
#
#
#
# Elastic Compliance Matrix: (Units=1/GPa)
#
#
# Indices 1 2 3 4 5 6 
#
# 1 0.010542 0.000025 -0.004646 -0.000001 0.000000 -0.000002
# 2 0.000025 0.009871 -0.004179 0.000000 0.000000 -0.000001
# 3 -0.004646 -0.004179 0.010917 0.000001 0.000000 0.000004
# 4 -0.000001 0.000000 0.000001 0.020897 0.000000 0.000001
# 5 0.000000 0.000000 0.000000 0.000000 0.018302 0.000000
# 6 -0.000002 -0.000001 0.000004 0.000001 0.000000 0.050872
#
#
# Mechanical properties :
#
#
# Convention : Reuss Voigt Hill
#
# Bulk Modulus (GPa) = 72.84415 75.93597 74.39006
# Shear Modulus (GPa) = 34.82431 40.56187 37.69309
#
# Velocity S-wave (km/s) = 3.94806 4.26090 4.10746
# Velocity P-wave (km/s) = 7.30668 7.62861 7.46938
#
# Compressibility (1/GPa) = 0.01372794
#
# Stress axis : x y z
#
# Youngs Moduli (GPa) = 94.86135 101.31071 91.60037
#
# Poissons Ratio (x) = -0.00249 0.42558
# Poissons Ratio (y) = -0.00233 0.38281
# Poissons Ratio (z) = 0.44073 0.42339
#
# Static dielectric constant tensor:
#      x y z
#    x 4.100650 0.000000 -0.000150 
#    y 0.000000 4.141320 0.000320 
#    z -0.000150 0.000320 8.632810 
# 
# 
# High freq. dielectric constant tensor:
#      x y z
#    x 1.894780 0.000000 0.000000 
#    y 0.000000 1.896700 0.000000 
#    z 0.000000 0.000000 1.877000 
# 
# From -- ./inp_files/2219.got.cif
#   From: 2010.03.12/outbox.cif.g09.slc.cpg/sg74_2_cif.got.tgz:2219.got - 2010.04.16 15:46:19.
