data_PCOD8301500
_publ_section_title
;
Structure prediction by ZEFSAII (Michael W. Deem and Ramdas Pophale) SiO2 
 PCOD8301500
Probable space group: I M M A
;
_chemical_formula_sum "Si O2"
_cell_formula_units_Z 80
_cell_length_a 19.389993
_cell_length_b 13.428313
_cell_length_c 17.922093
_cell_angle_alpha 90.000000
_cell_angle_beta 90.000000
_cell_angle_gamma 90.000000
_cell_volume 4666.463084
_symmetry_space_group_name_H-M "I M M A"
_symmetry_group_IT_number 74
_symmetry_cell_setting 'orthorhombic'
loop_
_space_group_symop_operation_xyz
x,y,z
-x,1/2-y,z
x,-y,-z
-x,1/2+y,-z
-x,-y,-z
x,1/2+y,-z
-x,y,z
x,1/2-y,z
1/2+x,1/2+y,1/2+z
1/2-x,-y,1/2+z
1/2+x,1/2-y,1/2-z
1/2-x,y,1/2-z
1/2-x,1/2-y,1/2-z
1/2+x,y,1/2-z
1/2-x,1/2+y,1/2+z
1/2+x,-y,1/2+z
loop_
_atom_site_type_symbol
_atom_site_label
_atom_site_fract_x
_atom_site_fract_y
_atom_site_fract_z
Si Si1 0.333224 0.864086 0.882073
Si Si2 0.638036 0.362870 0.949644
Si Si3 0.323658 0.134622 0.711951
Si Si4 0.078448 0.474155 0.677917
Si Si5 0.226131 0.518761 0.081240
O O1 0.323001 0.750000 0.857685
O O2 0.381818 0.919618 0.821958
O O3 0.257973 0.915856 0.886146
O O4 0.371972 0.873424 0.961834
O O5 0.631940 0.250000 0.922785
O O6 0.581175 0.426790 0.905293
O O7 0.713095 0.401145 0.926829
O O8 0.333465 0.250000 0.691066
O O9 0.250000 0.114587 0.750000
O O10 0.385229 0.101984 0.765729
O O11 0.329309 0.066427 0.637475
O O12 0.000000 0.491126 0.702601
O O13 0.191471 0.500000 0.000000
#
# Coordination Sequence:
#
# PCOD8301500 Si02
#       5
#    16  16  16  16  16
#     4   9  18  31  48  70 100 139 176 203 236 294
#     4   9  16  28  47  72 101 134 169 203 244 296
#     4  11  20  33  55  78 101 131 167 206 254 302
#     4  11  22  33  46  71 106 137 169 210 252 294
#     4   9  17  31  51  75 101 127 164 211 253 295
#
# _framework density 17.143604
#
# number of rings (size 3 to 8) (size 9 to 14) (size 15 to 20)
#    0.000    2.200    4.000    3.000    0.000    4.400 
#    0.000    4.000    0.000    0.600    0.000    0.000 
#    0.000    0.000    0.000    0.000    0.000    0.000 
#
# Total GULP energy -495894.459717 kJ/mol
# GULP energy per Si atom -12397.361493 kJ/mol
# Density = 1.710458 g / cm^3
# Si number density = 17.143604 Si / 1000 Ang^3
#
#
#
# Elastic Constant Matrix: (Units=GPa)
#
#
# Indices 1 2 3 4 5 6 
#
# 1 38.2160 19.5563 20.2987 0.0000 0.0000 0.0000
# 2 19.5563 132.0258 34.7282 0.0000 0.0000 0.0000
# 3 20.2987 34.7282 67.1292 0.0000 0.0000 0.0000
# 4 0.0000 0.0000 0.0000 29.6845 0.0000 0.0000
# 5 0.0000 0.0000 0.0000 0.0000 16.7533 0.0000
# 6 0.0000 0.0000 0.0000 0.0000 0.0000 9.6110
#
#
#
# Elastic Compliance Matrix: (Units=1/GPa)
#
#
# Indices 1 2 3 4 5 6 
#
# 1 0.031889 -0.002532 -0.008333 0.000000 0.000000 0.000000
# 2 -0.002532 0.008968 -0.003874 0.000000 0.000000 0.000000
# 3 -0.008333 -0.003874 0.019421 0.000000 0.000000 0.000000
# 4 0.000000 0.000000 0.000000 0.033688 0.000000 0.000000
# 5 0.000000 0.000000 0.000000 0.000000 0.059690 0.000000
# 6 0.000000 0.000000 0.000000 0.000000 0.000000 0.104047
#
#
# Mechanical properties :
#
#
# Convention : Reuss Voigt Hill
#
# Bulk Modulus (GPa) = 32.46720 42.94862 37.70791
# Shear Modulus (GPa) = 16.80978 22.06229 19.43604
#
# Velocity S-wave (km/s) = 3.13474 3.59125 3.37073
# Velocity P-wave (km/s) = 5.66406 6.50405 6.09854
#
# Compressibility (1/GPa) = 0.03080031
#
# Stress axis : x y z
#
# Youngs Moduli (GPa) = 31.35914 111.50360 51.49175
#
# Poissons Ratio (x) = 0.28228 0.42908
# Poissons Ratio (y) = 0.07939 0.19948
# Poissons Ratio (z) = 0.26131 0.43198
#
# Static dielectric constant tensor:
#      x y z
#    x 2.690600 0.000000 0.000000 
#    y 0.000000 3.408070 0.000000 
#    z 0.000000 0.000000 3.292000 
# 
# 
# High freq. dielectric constant tensor:
#      x y z
#    x 1.599900 0.000000 0.000000 
#    y 0.000000 1.676980 0.000000 
#    z 0.000000 0.000000 1.647690 
# 
# From -- ./inp_files/32127.got.cif
#   From: 2010.03.12/outbox.cif.g09.slc.cpg/sg74_17_cif.got.tgz:32127.got - 2010.04.16 15:46:19.
