data_PCOD8301602
_publ_section_title
;
Structure prediction by ZEFSAII (Michael W. Deem and Ramdas Pophale) SiO2 
 PCOD8301602
Probable space group: I M M A
;
_chemical_formula_sum "Si O2"
_cell_formula_units_Z 80
_cell_length_a 27.639289
_cell_length_b 8.896147
_cell_length_c 17.803664
_cell_angle_alpha 90.000000
_cell_angle_beta 90.000000
_cell_angle_gamma 90.000000
_cell_volume 4377.621483
_symmetry_space_group_name_H-M "I M M A"
_symmetry_group_IT_number 74
_symmetry_cell_setting 'orthorhombic'
loop_
_space_group_symop_operation_xyz
x,y,z
-x,1/2-y,z
x,-y,-z
-x,1/2+y,-z
-x,-y,-z
x,1/2+y,-z
-x,y,z
x,1/2-y,z
1/2+x,1/2+y,1/2+z
1/2-x,-y,1/2+z
1/2+x,1/2-y,1/2-z
1/2-x,y,1/2-z
1/2-x,1/2-y,1/2-z
1/2+x,y,1/2-z
1/2-x,1/2+y,1/2+z
1/2+x,-y,1/2+z
loop_
_atom_site_type_symbol
_atom_site_label
_atom_site_fract_x
_atom_site_fract_y
_atom_site_fract_z
Si Si1 0.291301 0.572200 0.081075
Si Si2 0.054928 0.926181 0.232135
Si Si3 0.354807 0.427736 0.201203
Si Si4 0.904706 0.577830 0.076237
Si Si5 0.191506 0.076122 0.841899
O O1 0.296962 0.750000 0.073626
O O2 0.336894 0.503205 0.124401
O O3 0.242990 0.527238 0.126107
O O4 0.288419 0.500000 0.000000
O O5 0.067927 0.750000 0.238224
O O6 0.063419 0.980708 0.146414
O O7 0.000000 0.959474 0.256208
O O8 0.090127 0.018006 0.286738
O O9 0.353568 0.250000 0.192984
O O10 0.320057 0.477176 0.269195
O O11 0.915620 0.750000 0.062571
O O12 0.848244 0.547111 0.093550
O O13 0.921149 0.500000 0.000000
O O14 0.190866 0.250000 0.816384
#
# Coordination Sequence:
#
# PCOD8301602 Si02
#       5
#    16  16  16  16  16
#     4  11  22  36  55  79 109 142 176 215 260 309
#     4   9  19  37  57  74  97 134 177 219 267 319
#     4  11  22  35  54  80 108 137 174 218 260 309
#     4   9  17  29  46  72 105 138 172 210 253 300
#     4   9  19  35  53  74 105 145 182 214 252 300
#
# _framework density 18.274763
#
# number of rings (size 3 to 8) (size 9 to 14) (size 15 to 20)
#    0.000    2.200    0.000    4.800    0.000    8.000 
#    0.000    0.000    0.000    0.600    0.000    0.000 
#    0.000    0.000    0.000    0.000    0.000    0.000 
#
# Total GULP energy -496069.978688 kJ/mol
# GULP energy per Si atom -12401.749467 kJ/mol
# Density = 1.823317 g / cm^3
# Si number density = 18.274763 Si / 1000 Ang^3
#
#
#
# Elastic Constant Matrix: (Units=GPa)
#
#
# Indices 1 2 3 4 5 6 
#
# 1 112.1731 50.5868 49.7384 0.0000 0.0000 0.0000
# 2 50.5868 91.1094 46.6571 0.0000 0.0000 0.0000
# 3 49.7384 46.6571 47.3313 0.0000 0.0000 0.0000
# 4 0.0000 0.0000 0.0000 34.4770 0.0000 0.0000
# 5 0.0000 0.0000 0.0000 0.0000 13.7545 0.0000
# 6 0.0000 0.0000 0.0000 0.0000 0.0000 20.3397
#
#
#
# Elastic Compliance Matrix: (Units=1/GPa)
#
#
# Indices 1 2 3 4 5 6 
#
# 1 0.016708 -0.000577 -0.016989 0.000000 0.000000 0.000000
# 2 -0.000577 0.022185 -0.021263 0.000000 0.000000 0.000000
# 3 -0.016989 -0.021263 0.059941 0.000000 0.000000 0.000000
# 4 0.000000 0.000000 0.000000 0.029005 0.000000 0.000000
# 5 0.000000 0.000000 0.000000 0.000000 0.072704 0.000000
# 6 0.000000 0.000000 0.000000 0.000000 0.000000 0.049165
#
#
# Mechanical properties :
#
#
# Convention : Reuss Voigt Hill
#
# Bulk Modulus (GPa) = 47.22282 60.50873 53.86577
# Shear Modulus (GPa) = 14.95114 20.62300 17.78707
#
# Velocity S-wave (km/s) = 2.86340 3.36295 3.12318
# Velocity P-wave (km/s) = 6.06866 6.94706 6.52267
#
# Compressibility (1/GPa) = 0.02117620
#
# Stress axis : x y z
#
# Youngs Moduli (GPa) = 59.85147 45.07641 16.68312
#
# Poissons Ratio (x) = 0.02599 0.28344
# Poissons Ratio (y) = 0.03451 0.35473
# Poissons Ratio (z) = 1.01684 0.95844
#
# Static dielectric constant tensor:
#      x y z
#    x 3.402700 0.000000 0.000000 
#    y 0.000000 3.275800 0.000000 
#    z 0.000000 0.000000 3.299470 
# 
# 
# High freq. dielectric constant tensor:
#      x y z
#    x 1.705130 0.000000 0.000000 
#    y 0.000000 1.704890 0.000000 
#    z 0.000000 0.000000 1.695180 
# 
# From -- ./inp_files/39675.got.cif
#   From: 2010.03.12/outbox.cif.g09.slc.cpg/sg74_20_cif.got.tgz:39675.got - 2010.04.16 15:46:19.
