data_PCOD8301845
_publ_section_title
;
Structure prediction by ZEFSAII (Michael W. Deem and Ramdas Pophale) SiO2 
 PCOD8301845
Probable space group: P 4
;
_chemical_formula_sum "Si O2"
_cell_formula_units_Z 21
_cell_length_a 8.449146
_cell_length_b 8.449146
_cell_length_c 12.777231
_cell_angle_alpha 90.000000
_cell_angle_beta 90.000000
_cell_angle_gamma 90.000000
_cell_volume 912.141837
_symmetry_space_group_name_H-M "P 4"
_symmetry_group_IT_number 75
_symmetry_cell_setting 'tetragonal'
loop_
_space_group_symop_operation_xyz
x,y,z
-y,x,z
-x,-y,z
y,-x,z
loop_
_atom_site_type_symbol
_atom_site_label
_atom_site_fract_x
_atom_site_fract_y
_atom_site_fract_z
Si Si1 0.588268 0.835509 0.157620
Si Si2 0.392553 0.261206 0.383418
Si Si3 0.761805 0.894814 0.575465
Si Si4 0.616319 0.732221 0.767038
Si Si5 0.131421 0.779511 0.958970
Si Si6 0.500000 0.500000 0.111286
O O1 0.651287 0.830373 0.276912
O O2 0.468345 0.687768 0.134511
O O3 0.500000 0.000000 0.136897
O O4 0.736557 0.834459 0.078383
O O5 0.578313 0.293878 0.389131
O O6 0.352206 0.150011 0.480686
O O7 0.676793 0.861699 0.685578
O O8 0.920483 0.793492 0.568885
O O9 0.431186 0.708448 0.750014
O O10 0.644850 0.790155 0.885652
O O11 0.945948 0.786839 0.933105
#
# Coordination Sequence:
#
# PCOD8301845 Si02
#       6
#     4   4   4   4   4   1
#     4  12  26  44  74 106 146 196 244 307 383 436
#     4  11  24  44  70 103 140 184 245 304 359 440
#     4  11  26  45  68 102 146 191 240 302 370 445
#     4  11  26  45  72 104 138 185 245 307 370 448
#     4  11  27  46  68 103 144 187 243 305 369 450
#     4  12  24  48  68 104 146 192 248 312 356 470
#
# _framework density 23.022735999999998
#
# number of rings (size 3 to 8) (size 9 to 14) (size 15 to 20)
#    0.000    0.762    1.905    3.429    8.000    6.857 
#    0.000    1.905    0.000    0.000    0.000    0.000 
#    0.000    0.000    0.000    0.000    0.000    0.000 
#
# Total GULP energy -260157.699146 kJ/mol
# GULP energy per Si atom -12388.461864 kJ/mol
# Density = 2.297034 g / cm^3
# Si number density = 23.022736 Si / 1000 Ang^3
#
#
#
# Elastic Constant Matrix: (Units=GPa)
#
#
# Indices 1 2 3 4 5 6 
#
# 1 74.9949 37.9171 13.3754 0.0000 0.0000 0.7184
# 2 37.9171 74.9949 13.3754 0.0000 0.0000 -0.7184
# 3 13.3754 13.3754 112.9292 0.0000 0.0000 0.0000
# 4 0.0000 0.0000 0.0000 36.2031 0.0000 0.0000
# 5 0.0000 0.0000 0.0000 0.0000 36.2031 0.0000
# 6 0.7184 -0.7184 0.0000 0.0000 0.0000 17.8658
#
#
#
# Elastic Compliance Matrix: (Units=1/GPa)
#
#
# Indices 1 2 3 4 5 6 
#
# 1 0.018062 -0.008950 -0.001079 0.000000 0.000000 -0.001086
# 2 -0.008950 0.018062 -0.001079 0.000000 0.000000 0.001086
# 3 -0.001079 -0.001079 0.009111 0.000000 0.000000 0.000000
# 4 0.000000 0.000000 0.000000 0.027622 0.000000 0.000000
# 5 0.000000 0.000000 0.000000 0.000000 0.027622 0.000000
# 6 -0.001086 0.001086 0.000000 0.000000 0.000000 0.056060
#
#
# Mechanical properties :
#
#
# Convention : Reuss Voigt Hill
#
# Bulk Modulus (GPa) = 43.44416 43.58388 43.51402
# Shear Modulus (GPa) = 26.81982 31.27115 29.04548
#
# Velocity S-wave (km/s) = 3.41681 3.68947 3.55575
# Velocity P-wave (km/s) = 5.87173 6.09274 5.98325
#
# Compressibility (1/GPa) = 0.02301805
#
# Stress axis : x y z
#
# Youngs Moduli (GPa) = 55.36397 55.36397 109.76037
#
# Poissons Ratio (x) = 0.49552 0.11846
# Poissons Ratio (y) = 0.49552 0.11846
# Poissons Ratio (z) = 0.05975 0.05975
#
# Static dielectric constant tensor:
#      x y z
#    x 5.015970 0.000000 0.000000 
#    y 0.000000 5.015970 0.000000 
#    z 0.000000 0.000000 4.081620 
# 
# 
# High freq. dielectric constant tensor:
#      x y z
#    x 1.925180 0.000000 0.000000 
#    y 0.000000 1.925180 0.000000 
#    z 0.000000 0.000000 1.903940 
# 
# From -- ./inp_files/514.got.cif
#   From: 2010.03.12/outbox.cif.g09.slc.cpg/sg75_cif.got.tgz:514.got - 2010.04.16 16:33:55.
