data_PCOD8301889
_publ_section_title
;
Structure prediction by ZEFSAII (Michael W. Deem and Ramdas Pophale) SiO2 
 PCOD8301889
Probable space group: P 41
;
_chemical_formula_sum "Si O2"
_cell_formula_units_Z 28
_cell_length_a 10.944517
_cell_length_b 10.944517
_cell_length_c 10.118454
_cell_angle_alpha 90.000000
_cell_angle_beta 90.000000
_cell_angle_gamma 90.000000
_cell_volume 1212.013234
_symmetry_space_group_name_H-M "P 41"
_symmetry_group_IT_number 76
_symmetry_cell_setting 'tetragonal'
loop_
_space_group_symop_operation_xyz
x,y,z
-y,x,1/4+z
-x,-y,1/2+z
y,-x,3/4+z
loop_
_atom_site_type_symbol
_atom_site_label
_atom_site_fract_x
_atom_site_fract_y
_atom_site_fract_z
Si Si1 0.808340 0.411776 0.487750
Si Si2 0.572826 0.972289 0.980225
Si Si3 0.649580 0.263798 0.664741
Si Si4 0.324691 0.814050 0.614336
Si Si5 0.684364 0.006185 0.553869
Si Si6 0.921278 0.075679 0.185110
Si Si7 0.230903 0.623728 0.417643
O O1 0.898557 0.377783 0.607765
O O2 0.684881 0.343076 0.532770
O O3 0.783486 0.556156 0.456090
O O4 0.872998 0.341572 0.368093
O O5 0.427492 0.974413 0.953267
O O6 0.604744 0.911390 0.124807
O O7 0.628432 0.107765 0.988192
O O8 0.683861 0.121010 0.653055
O O9 0.507473 0.291395 0.683046
O O10 0.711374 0.305460 0.797293
O O11 0.222166 0.890870 0.693361
O O12 0.255030 0.695098 0.555279
O O13 0.812487 0.005774 0.480523
O O14 0.952050 0.961939 0.283183
#
# Coordination Sequence:
#
# PCOD8301889 Si02
#       7
#     4   4   4   4   4   4   4
#     4  10  21  38  66  91 124 173 217 269 325 389
#     4   9  20  40  62  88 122 167 213 263 324 391
#     4  10  22  40  59  91 127 169 221 269 331 392
#     4  11  23  40  65  96 127 167 219 265 323 397
#     4  10  21  39  63  87 120 166 220 267 318 392
#     4  12  27  43  65  98 135 170 215 278 337 392
#     4  10  22  38  62  89 127 168 211 275 328 385
#
# _framework density 23.102056999999999
#
# number of rings (size 3 to 8) (size 9 to 14) (size 15 to 20)
#    0.000    1.714    0.000    3.429    0.000   12.571 
#    0.000    0.000    0.000    0.000    0.000    0.000 
#    0.000    0.000    0.000    0.000    0.000    0.000 
#
# Total GULP energy -346950.316107 kJ/mol
# GULP energy per Si atom -12391.082718 kJ/mol
# Density = 2.304948 g / cm^3
# Si number density = 23.102057 Si / 1000 Ang^3
#
#
#
# Elastic Constant Matrix: (Units=GPa)
#
#
# Indices 1 2 3 4 5 6 
#
# 1 92.5147 17.4568 10.8039 0.0000 0.0000 -1.5461
# 2 17.4568 92.5147 10.8039 0.0000 0.0000 1.5461
# 3 10.8039 10.8039 62.5859 0.0000 0.0000 0.0000
# 4 0.0000 0.0000 0.0000 30.0898 0.0000 0.0000
# 5 0.0000 0.0000 0.0000 0.0000 30.0898 0.0000
# 6 -1.5461 1.5461 0.0000 0.0000 0.0000 37.0270
#
#
#
# Elastic Compliance Matrix: (Units=1/GPa)
#
#
# Indices 1 2 3 4 5 6 
#
# 1 0.011379 -0.001967 -0.001625 0.000000 0.000000 0.000557
# 2 -0.001967 0.011379 -0.001625 0.000000 0.000000 -0.000557
# 3 -0.001625 -0.001625 0.016539 0.000000 0.000000 0.000000
# 4 0.000000 0.000000 0.000000 0.033234 0.000000 0.000000
# 5 0.000000 0.000000 0.000000 0.000000 0.033234 0.000000
# 6 0.000557 -0.000557 0.000000 0.000000 0.000000 0.027054
#
#
# Mechanical properties :
#
#
# Convention : Reuss Voigt Hill
#
# Bulk Modulus (GPa) = 34.64442 36.19387 35.41915
# Shear Modulus (GPa) = 32.70680 33.34472 33.02576
#
# Velocity S-wave (km/s) = 3.76673 3.80329 3.78505
# Velocity P-wave (km/s) = 5.82636 5.91503 5.87086
#
# Compressibility (1/GPa) = 0.02886468
#
# Stress axis : x y z
#
# Youngs Moduli (GPa) = 87.87916 87.87916 60.46312
#
# Poissons Ratio (x) = 0.17284 0.09824
# Poissons Ratio (y) = 0.17284 0.09824
# Poissons Ratio (z) = 0.14279 0.14279
#
# Static dielectric constant tensor:
#      x y z
#    x 4.360710 0.000000 0.000000 
#    y 0.000000 4.360710 0.000000 
#    z 0.000000 0.000000 3.977190 
# 
# 
# High freq. dielectric constant tensor:
#      x y z
#    x 1.914940 0.000000 0.000000 
#    y 0.000000 1.914940 0.000000 
#    z 0.000000 0.000000 1.902250 
# 
# From -- ./inp_files/598.got.cif
#   From: 2010.03.12/outbox.cif.g09.slc.cpg/sg76_cif.got.tgz:598.got - 2010.04.16 16:34:25.
