data_PCOD8301892
_publ_section_title
;
Structure prediction by ZEFSAII (Michael W. Deem and Ramdas Pophale) SiO2 
 PCOD8301892
Probable space group: P 41
;
_chemical_formula_sum "Si O2"
_cell_formula_units_Z 24
_cell_length_a 10.767807
_cell_length_b 10.767807
_cell_length_c 8.970151
_cell_angle_alpha 90.000000
_cell_angle_beta 90.000000
_cell_angle_gamma 90.000000
_cell_volume 1040.050146
_symmetry_space_group_name_H-M "P 41"
_symmetry_group_IT_number 76
_symmetry_cell_setting 'tetragonal'
loop_
_space_group_symop_operation_xyz
x,y,z
-y,x,1/4+z
-x,-y,1/2+z
y,-x,3/4+z
loop_
_atom_site_type_symbol
_atom_site_label
_atom_site_fract_x
_atom_site_fract_y
_atom_site_fract_z
Si Si1 0.847844 0.474077 0.409320
Si Si2 0.997913 0.595207 0.629007
Si Si3 0.138365 0.045654 0.794795
Si Si4 0.385663 0.409387 0.222642
Si Si5 0.777193 0.512943 0.971118
Si Si6 0.307178 0.747230 0.480817
O O1 0.953466 0.421185 0.297602
O O2 0.730957 0.379858 0.406511
O O3 0.814584 0.610570 0.352413
O O4 0.883201 0.504491 0.582673
O O5 0.972257 0.741910 0.610231
O O6 0.087427 0.544894 0.495525
O O7 0.187227 0.173685 0.723655
O O8 0.070951 0.961831 0.672673
O O9 0.494601 0.416809 0.343961
O O10 0.253703 0.444312 0.301592
O O11 0.690230 0.398485 0.023412
O O12 0.757555 0.635404 0.067338
#
# Coordination Sequence:
#
# PCOD8301892 Si02
#       6
#     4   4   4   4   4   4
#     4  11  25  43  71 101 142 185 234 292 354 422
#     4  10  25  47  71 100 141 185 237 292 355 416
#     4  11  24  49  73  98 136 186 240 296 348 409
#     4  12  26  40  69 107 146 187 235 279 356 435
#     4  10  21  40  67 102 141 180 226 280 348 423
#     4  10  21  41  71  98 138 183 224 285 353 413
#
# _framework density 23.075813
#
# number of rings (size 3 to 8) (size 9 to 14) (size 15 to 20)
#    0.000    1.333    3.333    1.000   11.667    0.000 
#    6.000    0.000    0.000    0.000    0.000    0.000 
#    0.000    0.000    0.000    0.000    0.000    0.000 
#
# Total GULP energy -297335.375244 kJ/mol
# GULP energy per Si atom -12388.973969 kJ/mol
# Density = 2.302329 g / cm^3
# Si number density = 23.075813 Si / 1000 Ang^3
#
#
#
# Elastic Constant Matrix: (Units=GPa)
#
#
# Indices 1 2 3 4 5 6 
#
# 1 24.2145 36.5750 31.0334 0.0000 0.0000 5.1207
# 2 36.5750 24.2145 31.0334 0.0000 0.0000 -5.1207
# 3 31.0334 31.0334 122.5437 0.0000 0.0000 0.0000
# 4 0.0000 0.0000 0.0000 44.4380 0.0000 0.0000
# 5 0.0000 0.0000 0.0000 0.0000 44.4380 0.0000
# 6 5.1207 -5.1207 0.0000 0.0000 0.0000 29.1586
#
#
#
# Elastic Compliance Matrix: (Units=1/GPa)
#
#
# Indices 1 2 3 4 5 6 
#
# 1 -0.024220 0.046407 -0.005619 0.000000 0.000000 0.012403
# 2 0.046407 -0.024220 -0.005619 0.000000 0.000000 -0.012403
# 3 -0.005619 -0.005619 0.011006 0.000000 0.000000 0.000000
# 4 0.000000 0.000000 0.000000 0.022503 0.000000 0.000000
# 5 0.000000 0.000000 0.000000 0.000000 0.022503 0.000000
# 6 0.012403 -0.012403 0.000000 0.000000 0.000000 0.029939
#
#
# Mechanical properties :
#
#
# Convention : Reuss Voigt Hill
#
# Bulk Modulus (GPa) = 30.39023 40.91735 35.65379
# Shear Modulus (GPa) = -228.75261 28.42896 -100.16183
#
# Velocity S-wave (km/s) = -9.96725 3.51377 -6.59544
# Velocity P-wave (km/s) = 10.92077 5.85084 6.52039
#
# Compressibility (1/GPa) = 0.03290531
#
# Stress axis : x y z
#
# Youngs Moduli (GPa) = -41.28882 -41.28882 90.85829
#
# Poissons Ratio (x) = 1.91607 0.51051
# Poissons Ratio (y) = 1.91607 0.51051
# Poissons Ratio (z) = -0.23199 -0.23199
#
# Static dielectric constant tensor:
#      x y z
#    x 4.374680 0.000000 0.000000 
#    y 0.000000 4.374680 0.000000 
#    z 0.000000 0.000000 4.118840 
# 
# 
# High freq. dielectric constant tensor:
#      x y z
#    x 1.913050 0.000000 0.000000 
#    y 0.000000 1.913050 0.000000 
#    z 0.000000 0.000000 1.914890 
# 
# From -- ./inp_files/580.got.cif
#   From: 2010.03.12/outbox.cif.g09.slc.cpg/sg76_cif.got.tgz:580.got - 2010.04.16 16:34:25.
