data_PCOD8301310
_publ_section_title
;
Structure prediction by ZEFSAII (Michael W. Deem and Ramdas Pophale) SiO2 
 PCOD8301310
Probable space group: I M M A
;
_chemical_formula_sum "Si O2"
_cell_formula_units_Z 64
_cell_length_a 11.994484
_cell_length_b 8.308864
_cell_length_c 30.980248
_cell_angle_alpha 90.000000
_cell_angle_beta 90.000000
_cell_angle_gamma 90.000000
_cell_volume 3087.508131
_symmetry_space_group_name_H-M "I M M A"
_symmetry_group_IT_number 74
_symmetry_cell_setting 'orthorhombic'
loop_
_space_group_symop_operation_xyz
x,y,z
-x,1/2-y,z
x,-y,-z
-x,1/2+y,-z
-x,-y,-z
x,1/2+y,-z
-x,y,z
x,1/2-y,z
1/2+x,1/2+y,1/2+z
1/2-x,-y,1/2+z
1/2+x,1/2-y,1/2-z
1/2-x,y,1/2-z
1/2-x,1/2-y,1/2-z
1/2+x,y,1/2-z
1/2-x,1/2+y,1/2+z
1/2+x,-y,1/2+z
loop_
_atom_site_type_symbol
_atom_site_label
_atom_site_fract_x
_atom_site_fract_y
_atom_site_fract_z
Si Si1 0.273914 0.062057 0.455023
Si Si2 0.500000 0.435289 0.329640
Si Si3 0.000000 0.434719 0.921855
Si Si4 0.770328 0.561563 0.202903
Si Si5 0.129149 0.059838 0.622790
O O1 0.298888 0.250000 0.456682
O O2 0.221028 0.000000 0.500000
O O3 0.389840 0.967504 0.449436
O O4 0.186489 0.026614 0.417362
O O5 0.500000 0.250000 0.315815
O O6 0.500000 0.447265 0.381079
O O7 0.605055 0.525746 0.310613
O O8 0.000000 0.250000 0.906192
O O9 0.749948 0.750000 0.206113
O O10 0.750000 0.482095 0.250000
O O11 0.684895 0.493016 0.166961
O O12 0.147447 0.250000 0.618057
O O13 0.000000 0.012301 0.623720
#
# Coordination Sequence:
#
# PCOD8301310 Si02
#       5
#    16   8   8  16  16
#     4  12  25  42  65  94 127 165 209 259 318 380
#     4  12  24  39  63  96 132 170 208 261 320 375
#     4  12  23  41  66  94 129 166 208 261 315 377
#     4  10  22  40  67  96 126 168 215 261 310 372
#     4  10  22  41  64  92 127 167 214 264 312 370
#
# _framework density 20.728691000000001
#
# number of rings (size 3 to 8) (size 9 to 14) (size 15 to 20)
#    0.000    1.000    2.500    4.875    1.750    1.500 
#    0.000    0.000    0.000    0.000    0.000    0.000 
#    0.000    0.000    0.000    0.000    0.000    0.000 
#
# Total GULP energy -396944.395057 kJ/mol
# GULP energy per Si atom -12404.512346 kJ/mol
# Density = 2.068151 g / cm^3
# Si number density = 20.728691 Si / 1000 Ang^3
#
#
#
# Elastic Constant Matrix: (Units=GPa)
#
#
# Indices 1 2 3 4 5 6 
#
# 1 148.1619 20.2162 69.7153 0.0000 0.0000 0.0000
# 2 20.2162 49.8905 24.2802 0.0000 0.0000 0.0000
# 3 69.7153 24.2802 184.7005 0.0000 0.0000 0.0000
# 4 0.0000 0.0000 0.0000 25.7901 0.0000 0.0000
# 5 0.0000 0.0000 0.0000 0.0000 31.7149 0.0000
# 6 0.0000 0.0000 0.0000 0.0000 0.0000 25.6158
#
#
#
# Elastic Compliance Matrix: (Units=1/GPa)
#
#
# Indices 1 2 3 4 5 6 
#
# 1 0.008387 -0.001985 -0.002905 0.000000 0.000000 0.000000
# 2 -0.001985 0.021884 -0.002128 0.000000 0.000000 0.000000
# 3 -0.002905 -0.002128 0.006790 0.000000 0.000000 0.000000
# 4 0.000000 0.000000 0.000000 0.038774 0.000000 0.000000
# 5 0.000000 0.000000 0.000000 0.000000 0.031531 0.000000
# 6 0.000000 0.000000 0.000000 0.000000 0.000000 0.039038
#
#
# Mechanical properties :
#
#
# Convention : Reuss Voigt Hill
#
# Bulk Modulus (GPa) = 43.42822 67.90847 55.66835
# Shear Modulus (GPa) = 29.74163 34.52691 32.13427
#
# Velocity S-wave (km/s) = 3.79199 4.08568 3.94157
# Velocity P-wave (km/s) = 6.33786 7.42218 6.90135
#
# Compressibility (1/GPa) = 0.02302650
#
# Stress axis : x y z
#
# Youngs Moduli (GPa) = 119.23241 45.69630 147.26989
#
# Poissons Ratio (x) = 0.09070 0.42778
# Poissons Ratio (y) = 0.23666 0.31333
# Poissons Ratio (z) = 0.34634 0.09722
#
# Static dielectric constant tensor:
#      x y z
#    x 3.710430 0.000000 0.000000 
#    y 0.000000 3.577870 0.000000 
#    z 0.000000 0.000000 4.140500 
# 
# 
# High freq. dielectric constant tensor:
#      x y z
#    x 1.813160 0.000000 0.000000 
#    y 0.000000 1.801650 0.000000 
#    z 0.000000 0.000000 1.828870 
# 
# From -- ./inp_files/69743.got.cif
#   From: 2010.03.12/outbox.cif.g09.slc.cpg/sg74_35_cif.got.tgz:69743.got - 2010.04.16 15:46:19.
