data_PCOD8301543
_publ_section_title
;
Structure prediction by ZEFSAII (Michael W. Deem and Ramdas Pophale) SiO2 
 PCOD8301543
Probable space group: I M M A
;
_chemical_formula_sum "Si O2"
_cell_formula_units_Z 96
_cell_length_a 11.098229
_cell_length_b 14.339961
_cell_length_c 32.030885
_cell_angle_alpha 90.000000
_cell_angle_beta 90.000000
_cell_angle_gamma 90.000000
_cell_volume 5097.656764
_symmetry_space_group_name_H-M "I M M A"
_symmetry_group_IT_number 74
_symmetry_cell_setting 'orthorhombic'
loop_
_space_group_symop_operation_xyz
x,y,z
-x,1/2-y,z
x,-y,-z
-x,1/2+y,-z
-x,-y,-z
x,1/2+y,-z
-x,y,z
x,1/2-y,z
1/2+x,1/2+y,1/2+z
1/2-x,-y,1/2+z
1/2+x,1/2-y,1/2-z
1/2-x,y,1/2-z
1/2-x,1/2-y,1/2-z
1/2+x,y,1/2-z
1/2-x,1/2+y,1/2+z
1/2+x,-y,1/2+z
loop_
_atom_site_type_symbol
_atom_site_label
_atom_site_fract_x
_atom_site_fract_y
_atom_site_fract_z
Si Si1 0.243918 0.853780 0.433606
Si Si2 0.366119 0.139485 0.016712
Si Si3 0.255647 0.356568 0.401020
Si Si4 0.360370 0.480074 0.861582
Si Si5 0.500000 0.113246 0.541080
Si Si6 0.362332 0.356708 0.780720
Si Si7 0.000000 0.604621 0.945977
O O1 0.188208 0.750000 0.430105
O O2 0.210651 0.901272 0.478206
O O3 0.189507 0.911799 0.396477
O O4 0.387767 0.847482 0.432969
O O5 0.500000 0.105660 0.008465
O O6 0.351153 0.250000 0.018659
O O7 0.323401 0.101148 0.061093
O O8 0.224879 0.250000 0.388376
O O9 0.219712 0.424351 0.362428
O O10 0.391250 0.362375 0.416980
O O11 0.500000 0.504077 0.869389
O O12 0.342333 0.429311 0.817767
O O13 0.500000 0.150263 0.492607
O O14 0.500000 0.003345 0.545096
O O15 0.500000 0.370991 0.761962
O O16 0.352076 0.250000 0.796867
O O17 0.250000 0.377147 0.750000
#
# Coordination Sequence:
#
# PCOD8301543 Si02
#       7
#    16  16  16  16   8  16   8
#     4  11  21  34  52  77 110 148 190 235 289 345
#     4   9  18  31  48  71 102 144 191 234 275 326
#     4  11  22  37  56  77 107 151 201 244 285 335
#     4  11  23  38  58  86 118 147 182 235 289 336
#     4  11  21  35  53  74 107 153 202 253 295 340
#     4   9  19  40  68  95 123 154 183 216 274 353
#     4  11  21  37  55  72 105 157 208 249 297 336
#
# _framework density 18.832182
#
# number of rings (size 3 to 8) (size 9 to 14) (size 15 to 20)
#    0.000    1.667    3.333    2.000    0.000    4.000 
#    3.000    1.667    0.000    0.500    0.000    0.000 
#    0.000    0.000    0.000    0.000    0.000    0.000 
#
# Total GULP energy -594873.342679 kJ/mol
# GULP energy per Si atom -12393.194639 kJ/mol
# Density = 1.878932 g / cm^3
# Si number density = 18.832182 Si / 1000 Ang^3
#
#
#
# Elastic Constant Matrix: (Units=GPa)
#
#
# Indices 1 2 3 4 5 6 
#
# 1 97.4932 32.4861 45.0322 0.0000 0.0000 0.0000
# 2 32.4861 96.2435 44.8729 0.0000 0.0000 0.0000
# 3 45.0322 44.8729 74.2505 0.0000 0.0000 0.0000
# 4 0.0000 0.0000 0.0000 36.8196 0.0000 0.0000
# 5 0.0000 0.0000 0.0000 0.0000 29.3045 0.0000
# 6 0.0000 0.0000 0.0000 0.0000 0.0000 12.9562
#
#
#
# Elastic Compliance Matrix: (Units=1/GPa)
#
#
# Indices 1 2 3 4 5 6 
#
# 1 0.014331 -0.001093 -0.008031 0.000000 0.000000 0.000000
# 2 -0.001093 0.014550 -0.008130 0.000000 0.000000 0.000000
# 3 -0.008031 -0.008130 0.023252 0.000000 0.000000 0.000000
# 4 0.000000 0.000000 0.000000 0.027159 0.000000 0.000000
# 5 0.000000 0.000000 0.000000 0.000000 0.034124 0.000000
# 6 0.000000 0.000000 0.000000 0.000000 0.000000 0.077183
#
#
# Mechanical properties :
#
#
# Convention : Reuss Voigt Hill
#
# Bulk Modulus (GPa) = 56.73932 56.97438 56.85685
# Shear Modulus (GPa) = 21.64655 25.52245 23.58450
#
# Velocity S-wave (km/s) = 3.39402 3.68538 3.54270
# Velocity P-wave (km/s) = 6.74933 6.95908 6.85501
#
# Compressibility (1/GPa) = 0.01762446
#
# Stress axis : x y z
#
# Youngs Moduli (GPa) = 69.77962 68.72890 43.00657
#
# Poissons Ratio (x) = 0.07511 0.34539
# Poissons Ratio (y) = 0.07626 0.34966
# Poissons Ratio (z) = 0.56041 0.55879
#
# Static dielectric constant tensor:
#      x y z
#    x 3.758380 0.000000 0.000000 
#    y 0.000000 3.522950 0.000000 
#    z 0.000000 0.000000 3.120300 
# 
# 
# High freq. dielectric constant tensor:
#      x y z
#    x 1.749990 0.000000 0.000000 
#    y 0.000000 1.740530 0.000000 
#    z 0.000000 0.000000 1.679510 
# 
# From -- ./inp_files/71821.got.cif
#   From: 2010.03.12/outbox.cif.g09.slc.cpg/sg74_36_cif.got.tgz:71821.got - 2010.04.16 15:46:19.
