data_PCOD8301792
_publ_section_title
;
Structure prediction by ZEFSAII (Michael W. Deem and Ramdas Pophale) SiO2 
 PCOD8301792
Probable space group: I M M A
;
_chemical_formula_sum "Si O2"
_cell_formula_units_Z 72
_cell_length_a 19.107821
_cell_length_b 19.433773
_cell_length_c 12.316259
_cell_angle_alpha 90.000000
_cell_angle_beta 90.000000
_cell_angle_gamma 90.000000
_cell_volume 4573.483356
_symmetry_space_group_name_H-M "I M M A"
_symmetry_group_IT_number 74
_symmetry_cell_setting 'orthorhombic'
loop_
_space_group_symop_operation_xyz
x,y,z
-x,1/2-y,z
x,-y,-z
-x,1/2+y,-z
-x,-y,-z
x,1/2+y,-z
-x,y,z
x,1/2-y,z
1/2+x,1/2+y,1/2+z
1/2-x,-y,1/2+z
1/2+x,1/2-y,1/2-z
1/2-x,y,1/2-z
1/2-x,1/2-y,1/2-z
1/2+x,y,1/2-z
1/2-x,1/2+y,1/2+z
1/2+x,-y,1/2+z
loop_
_atom_site_type_symbol
_atom_site_label
_atom_site_fract_x
_atom_site_fract_y
_atom_site_fract_z
Si Si1 0.691252 0.075975 0.167188
Si Si2 0.826593 0.440357 0.786066
Si Si3 0.418121 0.172247 0.816432
Si Si4 0.279065 0.000000 0.500000
Si Si5 0.079413 0.669477 0.564410
O O1 0.750000 0.105380 0.250000
O O2 0.729861 0.056968 0.055655
O O3 0.631561 0.131820 0.146583
O O4 0.654151 0.008126 0.216577
O O5 0.750000 0.414432 0.750000
O O6 0.880872 0.379433 0.766170
O O7 0.827750 0.460339 0.913218
O O8 0.500000 0.167093 0.794602
O O9 0.392112 0.250000 0.793562
O O10 0.400985 0.151479 0.940326
O O11 0.086966 0.750000 0.585091
O O12 0.000000 0.645644 0.588796
#
# Coordination Sequence:
#
# PCOD8301792 Si02
#       5
#    16  16  16   8  16
#     4   9  17  29  46  67  90 116 147 183 222 263
#     4   9  17  29  47  67  90 117 147 183 221 264
#     4   9  18  31  46  67  93 117 144 183 228 266
#     4   8  16  30  44  64  90 114 146 186 222 260
#     4   9  17  29  45  66  92 118 145 182 225 265
#
# _framework density 15.742924
#
# number of rings (size 3 to 8) (size 9 to 14) (size 15 to 20)
#    0.000    3.556    0.000    4.000    0.000    1.778 
#    0.000    4.444    0.000    2.667    0.000   12.444 
#    0.000    0.000    0.000    0.000    0.000    0.000 
#
# Total GULP energy -446249.541083 kJ/mol
# GULP energy per Si atom -12395.820586 kJ/mol
# Density = 1.570709 g / cm^3
# Si number density = 15.742924 Si / 1000 Ang^3
#
#
#
# Elastic Constant Matrix: (Units=GPa)
#
#
# Indices 1 2 3 4 5 6 
#
# 1 76.2483 57.2633 49.8564 0.0000 0.0000 0.0000
# 2 57.2633 81.1945 53.0566 0.0000 0.0000 0.0000
# 3 49.8564 53.0566 97.8587 0.0000 0.0000 0.0000
# 4 0.0000 0.0000 0.0000 24.2102 0.0000 0.0000
# 5 0.0000 0.0000 0.0000 0.0000 23.4484 0.0000
# 6 0.0000 0.0000 0.0000 0.0000 0.0000 38.6782
#
#
#
# Elastic Compliance Matrix: (Units=1/GPa)
#
#
# Indices 1 2 3 4 5 6 
#
# 1 0.029927 -0.017257 -0.005891 0.000000 0.000000 0.000000
# 2 -0.017257 0.029025 -0.006944 0.000000 0.000000 0.000000
# 3 -0.005891 -0.006944 0.016985 0.000000 0.000000 0.000000
# 4 0.000000 0.000000 0.000000 0.041305 0.000000 0.000000
# 5 0.000000 0.000000 0.000000 0.000000 0.042647 0.000000
# 6 0.000000 0.000000 0.000000 0.000000 0.000000 0.025854
#
#
# Mechanical properties :
#
#
# Convention : Reuss Voigt Hill
#
# Bulk Modulus (GPa) = 63.48243 63.96157 63.72200
# Shear Modulus (GPa) = 19.90616 23.60902 21.75759
#
# Velocity S-wave (km/s) = 3.55977 3.87674 3.72163
# Velocity P-wave (km/s) = 7.57020 7.79460 7.68322
#
# Compressibility (1/GPa) = 0.01575239
#
# Stress axis : x y z
#
# Youngs Moduli (GPa) = 33.41456 34.45329 58.87525
#
# Poissons Ratio (x) = 0.59457 0.34681
# Poissons Ratio (y) = 0.57664 0.40886
# Poissons Ratio (z) = 0.19683 0.23926
#
# Static dielectric constant tensor:
#      x y z
#    x 2.803560 0.000000 0.000000 
#    y 0.000000 2.843360 0.000000 
#    z 0.000000 0.000000 2.994780 
# 
# 
# High freq. dielectric constant tensor:
#      x y z
#    x 1.590990 0.000000 0.000000 
#    y 0.000000 1.597410 0.000000 
#    z 0.000000 0.000000 1.597150 
# 
# From -- ./inp_files/21847.got.cif
#   From: 2010.03.12/outbox.cif.g09.slc.cpg/sg74_11_cif.got.tgz:21847.got - 2010.04.16 15:46:19.
