data_PCOD8301448
_publ_section_title
;
Structure prediction by ZEFSAII (Michael W. Deem and Ramdas Pophale) SiO2 
 PCOD8301448
Probable space group: I M M A
;
_chemical_formula_sum "Si O2"
_cell_formula_units_Z 112
_cell_length_a 21.863625
_cell_length_b 18.096996
_cell_length_c 17.517400
_cell_angle_alpha 90.000000
_cell_angle_beta 90.000000
_cell_angle_gamma 90.000000
_cell_volume 6931.038435
_symmetry_space_group_name_H-M "I M M A"
_symmetry_group_IT_number 74
_symmetry_cell_setting 'orthorhombic'
loop_
_space_group_symop_operation_xyz
x,y,z
-x,1/2-y,z
x,-y,-z
-x,1/2+y,-z
-x,-y,-z
x,1/2+y,-z
-x,y,z
x,1/2-y,z
1/2+x,1/2+y,1/2+z
1/2-x,-y,1/2+z
1/2+x,1/2-y,1/2-z
1/2-x,y,1/2-z
1/2-x,1/2-y,1/2-z
1/2+x,y,1/2-z
1/2-x,1/2+y,1/2+z
1/2+x,-y,1/2+z
loop_
_atom_site_type_symbol
_atom_site_label
_atom_site_fract_x
_atom_site_fract_y
_atom_site_fract_z
Si Si1 0.338705 0.385578 0.799474
Si Si2 0.804713 0.060284 0.149589
Si Si3 0.349963 0.916970 0.972395
Si Si4 0.336684 0.948622 0.809558
Si Si5 0.203693 0.107205 0.861652
Si Si6 0.222669 0.335674 0.018880
Si Si7 0.069011 0.332858 0.584888
O O1 0.362659 0.469200 0.801114
O O2 0.275862 0.385080 0.846530
O O3 0.330459 0.358377 0.712150
O O4 0.389354 0.335074 0.839336
O O5 0.734217 0.054469 0.170545
O O6 0.843708 0.087421 0.224673
O O7 0.815806 0.119095 0.082422
O O8 0.820642 0.976496 0.124708
O O9 0.370068 0.911543 0.882555
O O10 0.291358 0.866093 0.987790
O O11 0.407146 0.888092 0.020114
O O12 0.333432 0.000000 0.000000
O O13 0.188668 0.153795 0.937652
O O14 0.223750 0.250000 0.042146
O O15 0.071168 0.250000 0.552194
O O16 0.000000 0.356044 0.606197
#
# Coordination Sequence:
#
# PCOD8301448 Si02
#       7
#    16  16  16  16  16  16  16
#     4   9  16  30  47  67  85 116 154 192 230 269
#     4   8  15  27  42  61  91 120 150 183 230 271
#     4  11  18  31  49  63  85 120 165 197 223 259
#     4   8  14  27  45  64  81 114 155 195 218 260
#     4   9  16  27  49  67  87 118 157 191 225 271
#     4  11  19  26  40  68  98 125 152 187 231 281
#     4  11  23  35  45  64  97 126 150 189 237 276
#
# _framework density 16.159195
#
# number of rings (size 3 to 8) (size 9 to 14) (size 15 to 20)
#    0.000    2.429    2.857    4.286    0.000    0.857 
#    0.000    7.857    0.000    0.000    0.000    0.000 
#    0.000   10.286    0.000    4.571    0.000    0.000 
#
# Total GULP energy -693752.644984 kJ/mol
# GULP energy per Si atom -12388.440089 kJ/mol
# Density = 1.612242 g / cm^3
# Si number density = 16.159195 Si / 1000 Ang^3
#
#
#
# Elastic Constant Matrix: (Units=GPa)
#
#
# Indices 1 2 3 4 5 6 
#
# 1 43.0587 16.0547 30.7808 0.0000 0.0000 0.0000
# 2 16.0547 67.3424 36.0426 0.0000 0.0000 0.0000
# 3 30.7808 36.0426 129.6616 0.0000 0.0000 0.0000
# 4 0.0000 0.0000 0.0000 15.1508 0.0000 0.0000
# 5 0.0000 0.0000 0.0000 0.0000 13.6856 0.0000
# 6 0.0000 0.0000 0.0000 0.0000 0.0000 11.9999
#
#
#
# Elastic Compliance Matrix: (Units=1/GPa)
#
#
# Indices 1 2 3 4 5 6 
#
# 1 0.028760 -0.003762 -0.005782 0.000000 0.000000 0.000000
# 2 -0.003762 0.017937 -0.004093 0.000000 0.000000 0.000000
# 3 -0.005782 -0.004093 0.010223 0.000000 0.000000 0.000000
# 4 0.000000 0.000000 0.000000 0.066003 0.000000 0.000000
# 5 0.000000 0.000000 0.000000 0.000000 0.073069 0.000000
# 6 0.000000 0.000000 0.000000 0.000000 0.000000 0.083334
#
#
# Mechanical properties :
#
#
# Convention : Reuss Voigt Hill
#
# Bulk Modulus (GPa) = 33.73114 45.09100 39.41107
# Shear Modulus (GPa) = 15.79869 18.64621 17.22245
#
# Velocity S-wave (km/s) = 3.13020 3.40061 3.26820
# Velocity P-wave (km/s) = 5.82956 6.58663 6.21962
#
# Compressibility (1/GPa) = 0.02964620
#
# Stress axis : x y z
#
# Youngs Moduli (GPa) = 34.77068 55.75078 97.82209
#
# Poissons Ratio (x) = 0.20974 0.56557
# Poissons Ratio (y) = 0.13081 0.40038
# Poissons Ratio (z) = 0.20103 0.22818
#
# Static dielectric constant tensor:
#      x y z
#    x 2.543860 0.000000 0.000000 
#    y 0.000000 2.961840 0.000000 
#    z 0.000000 0.000000 3.783790 
# 
# 
# High freq. dielectric constant tensor:
#      x y z
#    x 1.544940 0.000000 0.000000 
#    y 0.000000 1.609890 0.000000 
#    z 0.000000 0.000000 1.641410 
# 
# From -- ./inp_files/44564.got.cif
#   From: 2010.03.12/outbox.cif.g09.slc.cpg/sg74_23_cif.got.tgz:44564.got - 2010.04.16 15:46:19.
