data_PCOD8301866
_publ_section_title
;
Structure prediction by ZEFSAII (Michael W. Deem and Ramdas Pophale) SiO2 
 PCOD8301866
Probable space group: P 41
;
_chemical_formula_sum "Si O2"
_cell_formula_units_Z 24
_cell_length_a 11.013035
_cell_length_b 11.013035
_cell_length_c 9.413998
_cell_angle_alpha 90.000000
_cell_angle_beta 90.000000
_cell_angle_gamma 90.000000
_cell_volume 1141.795010
_symmetry_space_group_name_H-M "P 41"
_symmetry_group_IT_number 76
_symmetry_cell_setting 'tetragonal'
loop_
_space_group_symop_operation_xyz
x,y,z
-y,x,1/4+z
-x,-y,1/2+z
y,-x,3/4+z
loop_
_atom_site_type_symbol
_atom_site_label
_atom_site_fract_x
_atom_site_fract_y
_atom_site_fract_z
Si Si1 0.557365 0.595892 0.906720
Si Si2 0.931475 0.515563 0.430162
Si Si3 0.874923 0.035133 0.502112
Si Si4 0.374828 0.087727 0.909080
Si Si5 0.287587 0.202530 0.290294
Si Si6 0.331266 0.710894 0.754710
O O1 0.590944 0.469883 0.825405
O O2 0.667626 0.691052 0.894671
O O3 0.440260 0.628592 0.811061
O O4 0.961149 0.476291 0.270176
O O5 0.892604 0.396900 0.520642
O O6 0.823979 0.614322 0.419959
O O7 0.047367 0.579072 0.503531
O O8 0.857800 0.161974 0.591318
O O9 0.950327 0.052034 0.358853
O O10 0.750193 0.972799 0.455637
O O11 0.364410 0.235238 0.907338
O O12 0.243548 0.256269 0.139799
#
# Coordination Sequence:
#
# PCOD8301866 Si02
#       6
#     4   4   4   4   4   4
#     4   9  18  34  59  86 119 157 201 249 309 380
#     4  10  19  37  65  85 124 163 208 260 317 380
#     4  12  23  44  69  91 128 172 220 268 323 384
#     4  11  21  40  64  92 122 169 212 262 321 382
#     4   9  18  37  61  83 118 168 208 247 313 380
#     4   9  17  36  62  83 117 165 205 244 317 382
#
# _framework density 21.019537
#
# number of rings (size 3 to 8) (size 9 to 14) (size 15 to 20)
#    0.000    2.000    5.000    1.000    0.000    0.000 
#    9.000    0.000    0.000    0.000    0.000    0.000 
#    0.000    0.000    0.000    0.000    0.000    0.000 
#
# Total GULP energy -297412.969531 kJ/mol
# GULP energy per Si atom -12392.207064 kJ/mol
# Density = 2.097170 g / cm^3
# Si number density = 21.019537 Si / 1000 Ang^3
#
#
#
# Elastic Constant Matrix: (Units=GPa)
#
#
# Indices 1 2 3 4 5 6 
#
# 1 80.2842 28.9108 19.7256 0.0000 0.0000 14.8459
# 2 28.9108 80.2842 19.7256 0.0000 0.0000 -14.8459
# 3 19.7256 19.7256 54.8929 0.0000 0.0000 0.0000
# 4 0.0000 0.0000 0.0000 30.2030 0.0000 0.0000
# 5 0.0000 0.0000 0.0000 0.0000 30.2030 0.0000
# 6 14.8459 -14.8459 0.0000 0.0000 0.0000 35.5327
#
#
#
# Elastic Compliance Matrix: (Units=1/GPa)
#
#
# Indices 1 2 3 4 5 6 
#
# 1 0.018093 -0.007569 -0.003782 0.000000 0.000000 -0.010722
# 2 -0.007569 0.018093 -0.003782 0.000000 0.000000 0.010722
# 3 -0.003782 -0.003782 0.020935 0.000000 0.000000 0.000000
# 4 0.000000 0.000000 0.000000 0.033109 0.000000 0.000000
# 5 0.000000 0.000000 0.000000 0.000000 0.033109 0.000000
# 6 -0.010722 0.010722 0.000000 0.000000 0.000000 0.037103
#
#
# Mechanical properties :
#
#
# Convention : Reuss Voigt Hill
#
# Bulk Modulus (GPa) = 37.23511 39.13171 38.18341
# Shear Modulus (GPa) = 25.04251 28.99437 27.01844
#
# Velocity S-wave (km/s) = 3.45540 3.71806 3.58913
# Velocity P-wave (km/s) = 5.80282 6.09009 5.94819
#
# Compressibility (1/GPa) = 0.02685637
#
# Stress axis : x y z
#
# Youngs Moduli (GPa) = 55.26918 55.26918 47.76623
#
# Poissons Ratio (x) = 0.41833 0.18065
# Poissons Ratio (y) = 0.41833 0.18065
# Poissons Ratio (z) = 0.20902 0.20902
#
# Static dielectric constant tensor:
#      x y z
#    x 3.992880 0.000000 0.000000 
#    y 0.000000 3.992880 0.000000 
#    z 0.000000 0.000000 3.516220 
# 
# 
# High freq. dielectric constant tensor:
#      x y z
#    x 1.825930 0.000000 0.000000 
#    y 0.000000 1.825930 0.000000 
#    z 0.000000 0.000000 1.785800 
# 
# From -- ./inp_files/576.got.cif
#   From: 2010.03.12/outbox.cif.g09.slc.cpg/sg76_cif.got.tgz:576.got - 2010.04.16 16:34:25.
