data_PCOD8301144
_publ_section_title
;
Structure prediction by ZEFSAII (Michael W. Deem and Ramdas Pophale) SiO2 
 PCOD8301144
Probable space group: I M M A
;
_chemical_formula_sum "Si O2"
_cell_formula_units_Z 88
_cell_length_a 16.335094
_cell_length_b 20.405174
_cell_length_c 13.654019
_cell_angle_alpha 90.000000
_cell_angle_beta 90.000000
_cell_angle_gamma 90.000000
_cell_volume 4551.163558
_symmetry_space_group_name_H-M "I M M A"
_symmetry_group_IT_number 74
_symmetry_cell_setting 'orthorhombic'
loop_
_space_group_symop_operation_xyz
x,y,z
-x,1/2-y,z
x,-y,-z
-x,1/2+y,-z
-x,-y,-z
x,1/2+y,-z
-x,y,z
x,1/2-y,z
1/2+x,1/2+y,1/2+z
1/2-x,-y,1/2+z
1/2+x,1/2-y,1/2-z
1/2-x,y,1/2-z
1/2-x,1/2-y,1/2-z
1/2+x,y,1/2-z
1/2-x,1/2+y,1/2+z
1/2+x,-y,1/2+z
loop_
_atom_site_type_symbol
_atom_site_label
_atom_site_fract_x
_atom_site_fract_y
_atom_site_fract_z
Si Si1 0.500000 0.672294 0.752982
Si Si2 0.211817 0.750000 0.641694
Si Si3 0.093939 0.507713 0.384777
Si Si4 0.909868 0.250000 0.786912
Si Si5 0.637593 0.351969 0.872060
Si Si6 0.000000 0.673469 0.521829
Si Si7 0.232444 0.750000 0.065855
Si Si8 0.841275 0.121522 0.291891
O O1 0.500000 0.750000 0.735824
O O2 0.414841 0.639495 0.712921
O O3 0.500000 0.647260 0.867251
O O4 0.250000 0.750000 0.750000
O O5 0.276906 0.750000 0.552438
O O6 0.155631 0.684535 0.632844
O O7 0.095197 0.500000 0.500000
O O8 0.146013 0.570966 0.347196
O O9 0.142725 0.446778 0.341788
O O10 0.000000 0.511602 0.346669
O O11 0.898805 0.314665 0.721457
O O12 0.854737 0.250000 0.883378
O O13 0.000000 0.250000 0.831062
O O14 0.578732 0.353008 0.965599
O O15 0.722022 0.316248 0.899809
O O16 0.000000 0.750000 0.516095
O O17 0.750000 0.119090 0.250000
#
# Coordination Sequence:
#
# PCOD8301144 Si02
#       8
#     8   8  16   8  16   8   8  16
#     4  11  20  31  57  85 108 146 190 231 300 350
#     4  10  21  40  60  83 109 142 199 249 296 346
#     4  11  21  33  54  86 119 148 187 241 298 350
#     4  11  21  38  55  80 120 162 199 234 278 353
#     4  11  19  33  53  89 123 148 186 235 294 353
#     4  11  16  27  55  87 117 142 171 234 294 343
#     4  11  22  34  61  84 114 156 193 239 293 360
#     4  11  23  37  56  83 118 148 185 241 296 351
#
# _framework density 19.335715
#
# number of rings (size 3 to 8) (size 9 to 14) (size 15 to 20)
#    0.000    1.091    5.455    4.364    0.000    1.455 
#    0.000    0.000    8.000    0.000    0.000    0.636 
#    0.000    0.364    0.000    0.000    0.000    0.000 
#
# Total GULP energy -545151.268085 kJ/mol
# GULP energy per Si atom -12389.801547 kJ/mol
# Density = 1.929171 g / cm^3
# Si number density = 19.335715 Si / 1000 Ang^3
#
#
#
# Elastic Constant Matrix: (Units=GPa)
#
#
# Indices 1 2 3 4 5 6 
#
# 1 142.3760 51.3939 38.0340 0.0000 0.0000 0.0000
# 2 51.3939 183.3512 31.9275 0.0000 0.0000 0.0000
# 3 38.0340 31.9275 56.2860 0.0000 0.0000 0.0000
# 4 0.0000 0.0000 0.0000 13.2763 0.0000 0.0000
# 5 0.0000 0.0000 0.0000 0.0000 25.9407 0.0000
# 6 0.0000 0.0000 0.0000 0.0000 0.0000 0.1953
#
#
#
# Elastic Compliance Matrix: (Units=1/GPa)
#
#
# Indices 1 2 3 4 5 6 
#
# 1 0.008985 -0.001621 -0.005152 0.000000 0.000000 0.000000
# 2 -0.001621 0.006344 -0.002503 0.000000 0.000000 0.000000
# 3 -0.005152 -0.002503 0.022667 0.000000 0.000000 0.000000
# 4 0.000000 0.000000 0.000000 0.075322 0.000000 0.000000
# 5 0.000000 0.000000 0.000000 0.000000 0.038549 0.000000
# 6 0.000000 0.000000 0.000000 0.000000 0.000000 5.119616
#
#
# Mechanical properties :
#
#
# Convention : Reuss Voigt Hill
#
# Bulk Modulus (GPa) = 51.42885 69.41376 60.42130
# Shear Modulus (GPa) = 0.94402 25.25964 13.10183
#
# Velocity S-wave (km/s) = 0.69949 3.61830 2.60589
# Velocity P-wave (km/s) = 5.22570 7.30981 6.35379
#
# Compressibility (1/GPa) = 0.01944434
#
# Stress axis : x y z
#
# Youngs Moduli (GPa) = 111.29401 157.61952 44.11608
#
# Poissons Ratio (x) = 0.25558 0.22728
# Poissons Ratio (y) = 0.18046 0.11043
# Poissons Ratio (z) = 0.57336 0.39454
#
# Static dielectric constant tensor:
#      x y z
#    x 3.777580 0.000000 0.000000 
#    y 0.000000 4.340290 0.000000 
#    z 0.000000 0.000000 3.390890 
# 
# 
# High freq. dielectric constant tensor:
#      x y z
#    x 1.755510 0.000000 0.000000 
#    y 0.000000 1.771490 0.000000 
#    z 0.000000 0.000000 1.701850 
# 
# From -- ./inp_files/22294.got.cif
#   From: 2010.03.12/outbox.cif.g09.slc.cpg/sg74_12_cif.got.tgz:22294.got - 2010.04.16 15:46:19.
