data_PCOD8301126
_publ_section_title
;
Structure prediction by ZEFSAII (Michael W. Deem and Ramdas Pophale) SiO2 
 PCOD8301126
Probable space group: I M M A
;
_chemical_formula_sum "Si O2"
_cell_formula_units_Z 88
_cell_length_a 35.824507
_cell_length_b 21.971946
_cell_length_c 4.970416
_cell_angle_alpha 90.000000
_cell_angle_beta 90.000000
_cell_angle_gamma 90.000000
_cell_volume 3912.384090
_symmetry_space_group_name_H-M "I M M A"
_symmetry_group_IT_number 74
_symmetry_cell_setting 'orthorhombic'
loop_
_space_group_symop_operation_xyz
x,y,z
-x,1/2-y,z
x,-y,-z
-x,1/2+y,-z
-x,-y,-z
x,1/2+y,-z
-x,y,z
x,1/2-y,z
1/2+x,1/2+y,1/2+z
1/2-x,-y,1/2+z
1/2+x,1/2-y,1/2-z
1/2-x,y,1/2-z
1/2-x,1/2-y,1/2-z
1/2+x,y,1/2-z
1/2-x,1/2+y,1/2+z
1/2+x,-y,1/2+z
loop_
_atom_site_type_symbol
_atom_site_label
_atom_site_fract_x
_atom_site_fract_y
_atom_site_fract_z
Si Si1 0.350145 0.500000 0.500000
Si Si2 0.136258 0.317083 0.060924
Si Si3 0.684385 0.818516 0.061427
Si Si4 0.412846 0.081470 0.654589
Si Si5 0.541400 0.435058 0.140040
Si Si6 0.708393 0.941080 0.836946
O O1 0.378546 0.533732 0.291261
O O2 0.323784 0.555969 0.606485
O O3 0.120523 0.250000 0.013233
O O4 0.172438 0.326972 0.869252
O O5 0.102027 0.359196 0.992558
O O6 0.148515 0.325606 0.369796
O O7 0.702533 0.750000 0.019407
O O8 0.711132 0.875794 0.988634
O O9 0.442954 0.056134 0.439987
O O10 0.431381 0.102065 0.937196
O O11 0.500000 0.405666 0.154761
O O12 0.539621 0.500000 0.000000
O O13 0.750000 0.956340 0.750000
O O14 0.694598 0.000000 0.000000
#
# Coordination Sequence:
#
# PCOD8301126 Si02
#       6
#     8  16  16  16  16  16
#     4  12  24  38  59  94 118 164 214 256 307 394
#     4  10  21  39  63  93 123 159 210 267 313 359
#     4  10  22  41  65  90 124 167 217 271 315 376
#     4  12  22  37  65  90 120 165 203 260 304 371
#     4  11  23  39  58  92 130 160 197 247 318 379
#     4  12  26  42  62  90 135 173 209 269 334 384
#
# _framework density 22.49268
#
# number of rings (size 3 to 8) (size 9 to 14) (size 15 to 20)
#    0.000    0.909    4.545    2.727    2.545    1.818 
#    0.000    0.000    0.000    7.091    0.000    0.000 
#    0.000    0.000    0.000    0.000    0.000    0.000 
#
# Total GULP energy -545130.519824 kJ/mol
# GULP energy per Si atom -12389.329996 kJ/mol
# Density = 2.244149 g / cm^3
# Si number density = 22.492680 Si / 1000 Ang^3
#
#
#
# Elastic Constant Matrix: (Units=GPa)
#
#
# Indices 1 2 3 4 5 6 
#
# 1 118.6434 13.5901 14.6378 -0.0014 -0.0032 0.0022
# 2 13.5901 109.6712 -4.2672 0.0003 -0.0047 0.0032
# 3 14.6378 -4.2672 58.3267 0.0151 -0.0116 0.0194
# 4 -0.0014 0.0003 0.0151 30.1213 0.0029 -0.0063
# 5 -0.0032 -0.0047 -0.0116 0.0029 15.0906 0.0072
# 6 0.0022 0.0032 0.0194 -0.0063 0.0072 11.0966
#
#
#
# Elastic Compliance Matrix: (Units=1/GPa)
#
#
# Indices 1 2 3 4 5 6 
#
# 1 0.008849 -0.001186 -0.002308 0.000002 0.000000 0.000003
# 2 -0.001186 0.009303 0.000978 -0.000001 0.000003 -0.000004
# 3 -0.002308 0.000978 0.017796 -0.000009 0.000014 -0.000031
# 4 0.000002 -0.000001 -0.000009 0.033199 -0.000006 0.000019
# 5 0.000000 0.000003 0.000014 -0.000006 0.066266 -0.000043
# 6 0.000003 -0.000004 -0.000031 0.000019 -0.000043 0.090118
#
#
# Mechanical properties :
#
#
# Convention : Reuss Voigt Hill
#
# Bulk Modulus (GPa) = 32.34490 37.17363 34.75926
# Shear Modulus (GPa) = 20.75824 28.77373 24.76598
#
# Velocity S-wave (km/s) = 3.04120 3.58054 3.32184
# Velocity P-wave (km/s) = 5.17139 5.80143 5.49545
#
# Compressibility (1/GPa) = 0.03091677
#
# Stress axis : x y z
#
# Youngs Moduli (GPa) = 113.00437 107.48939 56.19388
#
# Poissons Ratio (x) = 0.12752 0.12967
# Poissons Ratio (y) = 0.13406 -0.05498
# Poissons Ratio (z) = 0.26077 -0.10516
#
# Static dielectric constant tensor:
#      x y z
#    x 4.019580 0.000000 0.000000 
#    y 0.000000 4.207540 -0.000010 
#    z 0.000000 -0.000010 4.392030 
# 
# 
# High freq. dielectric constant tensor:
#      x y z
#    x 1.863740 0.000000 0.000000 
#    y 0.000000 1.883000 0.000000 
#    z 0.000000 0.000000 1.891750 
# 
# From -- ./inp_files/5144.got.cif
#   From: 2010.03.12/outbox.cif.g09.slc.cpg/sg74_3_cif.got.tgz:5144.got - 2010.04.16 15:46:19.
