data_PCOD8301976
_publ_section_title
;
Structure prediction by ZEFSAII (Michael W. Deem and Ramdas Pophale) SiO2 
 PCOD8301976
Probable space group: P 41
;
_chemical_formula_sum "Si O2"
_cell_formula_units_Z 20
_cell_length_a 9.528491
_cell_length_b 9.528491
_cell_length_c 8.960238
_cell_angle_alpha 90.000000
_cell_angle_beta 90.000000
_cell_angle_gamma 90.000000
_cell_volume 813.519190
_symmetry_space_group_name_H-M "P 41"
_symmetry_group_IT_number 76
_symmetry_cell_setting 'tetragonal'
loop_
_space_group_symop_operation_xyz
x,y,z
-y,x,1/4+z
-x,-y,1/2+z
y,-x,3/4+z
loop_
_atom_site_type_symbol
_atom_site_label
_atom_site_fract_x
_atom_site_fract_y
_atom_site_fract_z
Si Si1 0.898067 0.414170 0.266700
Si Si2 0.192889 0.463528 0.378281
Si Si3 0.610928 0.614432 0.630826
Si Si4 0.240328 0.305636 0.652380
Si Si5 0.148104 0.063084 0.838460
O O1 0.776998 0.339537 0.364212
O O2 0.805208 0.541558 0.204669
O O3 0.959101 0.310069 0.139477
O O4 0.024471 0.474854 0.366110
O O5 0.259143 0.455295 0.215375
O O6 0.230335 0.322055 0.472361
O O7 0.257852 0.604201 0.453345
O O8 0.466096 0.595397 0.723142
O O9 0.132779 0.194597 0.724803
O O10 0.088416 0.933422 0.744028
#
# Coordination Sequence:
#
# PCOD8301976 Si02
#       5
#     4   4   4   4   4
#     4  12  28  48  79 113 160 206 267 329 399 486
#     4  12  27  47  79 118 156 211 264 333 406 476
#     4  12  26  46  79 117 162 208 273 339 408 474
#     4  12  26  49  77 117 158 204 267 334 397 471
#     4  12  29  54  82 121 166 211 265 337 410 487
#
# _framework density 24.584546
#
# number of rings (size 3 to 8) (size 9 to 14) (size 15 to 20)
#    0.000    0.000    4.000    4.800    5.600    1.600 
#    0.000    0.000    0.000    0.000    0.000    0.000 
#    0.000    0.000    0.000    0.000    0.000    0.000 
#
# Total GULP energy -247891.295740 kJ/mol
# GULP energy per Si atom -12394.564787 kJ/mol
# Density = 2.452859 g / cm^3
# Si number density = 24.584546 Si / 1000 Ang^3
#
#
#
# Elastic Constant Matrix: (Units=GPa)
#
#
# Indices 1 2 3 4 5 6 
#
# 1 139.9102 34.3640 34.9789 0.0000 0.0000 5.4110
# 2 34.3640 139.9102 34.9789 0.0000 0.0000 -5.4110
# 3 34.9789 34.9789 89.4434 0.0000 0.0000 0.0000
# 4 0.0000 0.0000 0.0000 46.9844 0.0000 0.0000
# 5 0.0000 0.0000 0.0000 0.0000 46.9844 0.0000
# 6 5.4110 -5.4110 0.0000 0.0000 0.0000 33.0886
#
#
#
# Elastic Compliance Matrix: (Units=1/GPa)
#
#
# Indices 1 2 3 4 5 6 
#
# 1 0.008221 -0.001415 -0.002662 0.000000 0.000000 -0.001576
# 2 -0.001415 0.008221 -0.002662 0.000000 0.000000 0.001576
# 3 -0.002662 -0.002662 0.013262 0.000000 0.000000 0.000000
# 4 0.000000 0.000000 0.000000 0.021284 0.000000 0.000000
# 5 0.000000 0.000000 0.000000 0.000000 0.021284 0.000000
# 6 -0.001576 0.001576 0.000000 0.000000 0.000000 0.030737
#
#
# Mechanical properties :
#
#
# Convention : Reuss Voigt Hill
#
# Bulk Modulus (GPa) = 61.62210 64.21194 62.91702
# Shear Modulus (GPa) = 41.01861 43.07428 42.04645
#
# Velocity S-wave (km/s) = 4.08912 4.19034 4.14004
# Velocity P-wave (km/s) = 6.88581 7.04183 6.96426
#
# Compressibility (1/GPa) = 0.01622794
#
# Stress axis : x y z
#
# Youngs Moduli (GPa) = 121.63433 121.63433 75.40202
#
# Poissons Ratio (x) = 0.17208 0.20071
# Poissons Ratio (y) = 0.17208 0.20071
# Poissons Ratio (z) = 0.32378 0.32378
#
# Static dielectric constant tensor:
#      x y z
#    x 4.448570 0.000000 0.000000 
#    y 0.000000 4.448570 0.000000 
#    z 0.000000 0.000000 4.807400 
# 
# 
# High freq. dielectric constant tensor:
#      x y z
#    x 1.977010 0.000000 0.000000 
#    y 0.000000 1.977010 0.000000 
#    z 0.000000 0.000000 1.983760 
# 
# From -- ./inp_files/433.got.cif
#   From: 2010.03.12/outbox.cif.g09.slc.cpg/sg76_cif.got.tgz:433.got - 2010.04.16 16:34:25.
