data_PCOD8301725
_publ_section_title
;
Structure prediction by ZEFSAII (Michael W. Deem and Ramdas Pophale) SiO2 
 PCOD8301725
Probable space group: I M M A
;
_chemical_formula_sum "Si O2"
_cell_formula_units_Z 88
_cell_length_a 11.411280
_cell_length_b 30.549512
_cell_length_c 11.933183
_cell_angle_alpha 90.000000
_cell_angle_beta 90.000000
_cell_angle_gamma 90.000000
_cell_volume 4160.015414
_symmetry_space_group_name_H-M "I M M A"
_symmetry_group_IT_number 74
_symmetry_cell_setting 'orthorhombic'
loop_
_space_group_symop_operation_xyz
x,y,z
-x,1/2-y,z
x,-y,-z
-x,1/2+y,-z
-x,-y,-z
x,1/2+y,-z
-x,y,z
x,1/2-y,z
1/2+x,1/2+y,1/2+z
1/2-x,-y,1/2+z
1/2+x,1/2-y,1/2-z
1/2-x,y,1/2-z
1/2-x,1/2-y,1/2-z
1/2+x,y,1/2-z
1/2-x,1/2+y,1/2+z
1/2+x,-y,1/2+z
loop_
_atom_site_type_symbol
_atom_site_label
_atom_site_fract_x
_atom_site_fract_y
_atom_site_fract_z
Si Si1 0.000000 0.798649 0.604217
Si Si2 0.185705 0.201137 0.585475
Si Si3 0.000000 0.629482 0.789079
Si Si4 0.000000 0.298154 0.777485
Si Si5 0.750000 0.418380 0.250000
Si Si6 0.000000 0.875223 0.046054
Si Si7 0.632545 0.451052 0.042443
Si Si8 0.764809 0.891379 0.120033
O O1 0.887352 0.806405 0.527146
O O2 0.000000 0.750000 0.652474
O O3 0.000000 0.827938 0.713230
O O4 0.244271 0.250000 0.582786
O O5 0.274624 0.160775 0.590895
O O6 0.111948 0.196335 0.698423
O O7 0.874036 0.606811 0.764059
O O8 0.000000 0.641915 0.919240
O O9 0.000000 0.333827 0.872448
O O10 0.000000 0.250000 0.832626
O O11 0.728029 0.447991 0.141096
O O12 0.890386 0.907228 0.073987
O O13 0.500000 0.440123 0.083367
O O14 0.640408 0.500000 0.000000
O O15 0.661099 0.416265 0.944453
O O16 0.750000 0.901588 0.250000
#
# Coordination Sequence:
#
# PCOD8301725 Si02
#       8
#     8  16   8   8   8   8  16  16
#     4   9  20  39  65  92 126 184 243 288 334 403
#     4   9  19  37  64  94 128 180 235 280 336 405
#     4  12  25  44  71  98 141 183 233 284 350 414
#     4   9  18  35  57  89 134 175 223 279 337 398
#     4  12  24  48  75 104 136 182 225 288 350 416
#     4  12  25  40  56 103 133 176 222 278 348 398
#     4  11  27  49  75 104 135 180 230 279 350 426
#     4  12  25  41  67  98 141 179 227 284 342 411
#
# _framework density 21.153769
#
# number of rings (size 3 to 8) (size 9 to 14) (size 15 to 20)
#    0.000    1.273    4.545    2.182    5.091    1.455 
#    0.000    2.273    0.000    0.000    0.000    0.000 
#    0.000    0.000    0.000    0.000    0.000    0.000 
#
# Total GULP energy -545182.421306 kJ/mol
# GULP energy per Si atom -12390.509575 kJ/mol
# Density = 2.110562 g / cm^3
# Si number density = 21.153769 Si / 1000 Ang^3
#
#
#
# Elastic Constant Matrix: (Units=GPa)
#
#
# Indices 1 2 3 4 5 6 
#
# 1 133.2375 42.5892 44.7930 0.0019 -0.0004 0.0007
# 2 42.5892 85.2968 38.4758 0.0021 -0.0005 -0.0002
# 3 44.7930 38.4758 153.9812 0.0093 -0.0025 0.0041
# 4 0.0019 0.0021 0.0093 21.6337 -0.0011 -0.0006
# 5 -0.0004 -0.0005 -0.0025 -0.0011 30.1329 0.0011
# 6 0.0007 -0.0002 0.0041 -0.0006 0.0011 0.2525
#
#
#
# Elastic Compliance Matrix: (Units=1/GPa)
#
#
# Indices 1 2 3 4 5 6 
#
# 1 0.009330 -0.003870 -0.001747 0.000000 0.000000 -0.000001
# 2 -0.003870 0.014819 -0.002577 0.000000 0.000000 0.000067
# 3 -0.001747 -0.002577 0.007646 -0.000003 0.000001 -0.000121
# 4 0.000000 0.000000 -0.000003 0.046224 0.000002 0.000105
# 5 0.000000 0.000000 0.000001 0.000002 0.033186 -0.000151
# 6 -0.000001 0.000067 -0.000121 0.000105 -0.000151 3.960191
#
#
# Mechanical properties :
#
#
# Convention : Reuss Voigt Hill
#
# Bulk Modulus (GPa) = 64.90803 69.35904 67.13354
# Shear Modulus (GPa) = 1.22162 26.84766 14.03464
#
# Velocity S-wave (km/s) = 0.76076 3.56640 2.57856
# Velocity P-wave (km/s) = 5.61446 7.05820 6.37732
#
# Compressibility (1/GPa) = 0.01540641
#
# Stress axis : x y z
#
# Youngs Moduli (GPa) = 107.18254 67.48231 130.78090
#
# Poissons Ratio (x) = 0.26119 0.22847
# Poissons Ratio (y) = 0.41485 0.33701
# Poissons Ratio (z) = 0.18724 0.17389
#
# Static dielectric constant tensor:
#      x y z
#    x 4.467890 0.000000 0.000000 
#    y 0.000000 3.701230 0.000000 
#    z 0.000000 0.000000 3.931040 
# 
# 
# High freq. dielectric constant tensor:
#      x y z
#    x 1.844050 0.000000 0.000000 
#    y 0.000000 1.810210 0.000000 
#    z 0.000000 0.000000 1.838010 
# 
# From -- ./inp_files/19124.got.cif
#   From: 2010.03.12/outbox.cif.g09.slc.cpg/sg74_10_cif.got.tgz:19124.got - 2010.04.16 15:46:19.
