data_PCOD8301045
_publ_section_title
;
Structure prediction by ZEFSAII (Michael W. Deem and Ramdas Pophale) SiO2 
 PCOD8301045
Probable space group: I M M A
;
_chemical_formula_sum "Si O2"
_cell_formula_units_Z 88
_cell_length_a 9.254209
_cell_length_b 21.342810
_cell_length_c 21.171253
_cell_angle_alpha 90.000000
_cell_angle_beta 90.000000
_cell_angle_gamma 90.000000
_cell_volume 4181.551633
_symmetry_space_group_name_H-M "I M M A"
_symmetry_group_IT_number 74
_symmetry_cell_setting 'orthorhombic'
loop_
_space_group_symop_operation_xyz
x,y,z
-x,1/2-y,z
x,-y,-z
-x,1/2+y,-z
-x,-y,-z
x,1/2+y,-z
-x,y,z
x,1/2-y,z
1/2+x,1/2+y,1/2+z
1/2-x,-y,1/2+z
1/2+x,1/2-y,1/2-z
1/2-x,y,1/2-z
1/2-x,1/2-y,1/2-z
1/2+x,y,1/2-z
1/2-x,1/2+y,1/2+z
1/2+x,-y,1/2+z
loop_
_atom_site_type_symbol
_atom_site_label
_atom_site_fract_x
_atom_site_fract_y
_atom_site_fract_z
Si Si1 0.663880 0.379784 0.688425
Si Si2 0.671888 0.750000 0.005405
Si Si3 0.162534 0.631853 0.950529
Si Si4 0.169865 0.912074 0.811322
Si Si5 0.659346 0.523917 0.133839
Si Si6 0.159493 0.750000 0.130159
Si Si7 0.761363 0.000000 0.500000
O O1 0.500000 0.403785 0.692129
O O2 0.750000 0.400761 0.750000
O O3 0.749467 0.411922 0.630764
O O4 0.674553 0.306615 0.678158
O O5 0.500000 0.750000 0.999105
O O6 0.730180 0.814451 0.975094
O O7 0.715662 0.750000 0.078554
O O8 0.194112 0.627418 0.875323
O O9 0.171373 0.564453 0.986963
O O10 0.000000 0.655924 0.961534
O O11 0.250000 0.880860 0.750000
O O12 0.000000 0.920458 0.797060
O O13 0.246170 0.978498 0.822424
O O14 0.500000 0.531022 0.163694
O O15 0.638443 0.504482 0.061315
O O16 0.000000 0.750000 0.097315
#
# Coordination Sequence:
#
# PCOD8301045 Si02
#       7
#    16   8  16  16  16   8   8
#     4  11  23  39  58  82 112 151 198 245 295 352
#     4  12  26  41  62  93 127 162 202 246 299 358
#     4  10  22  41  65  90 122 161 201 247 302 362
#     4  10  21  38  61  88 116 151 193 241 296 354
#     4  11  22  36  56  84 119 155 191 240 297 355
#     4  10  23  41  61  81 109 152 197 242 294 352
#     4  10  22  38  64  96 120 154 206 258 304 354
#
# _framework density 21.044819
#
# number of rings (size 3 to 8) (size 9 to 14) (size 15 to 20)
#    0.000    1.455    0.000    4.909    0.000   10.909 
#    0.000    0.455    0.000    0.000    0.000    0.000 
#    0.000    0.000    0.000    0.000    0.000    0.000 
#
# Total GULP energy -545260.759638 kJ/mol
# GULP energy per Si atom -12392.289992 kJ/mol
# Density = 2.099692 g / cm^3
# Si number density = 21.044819 Si / 1000 Ang^3
#
#
#
# Elastic Constant Matrix: (Units=GPa)
#
#
# Indices 1 2 3 4 5 6 
#
# 1 188.7324 55.0222 51.2077 0.0000 0.0000 0.0000
# 2 55.0222 92.1167 19.5252 0.0000 0.0000 0.0000
# 3 51.2077 19.5252 99.2450 0.0000 0.0000 0.0000
# 4 0.0000 0.0000 0.0000 18.4543 0.0000 0.0000
# 5 0.0000 0.0000 0.0000 0.0000 29.3444 0.0000
# 6 0.0000 0.0000 0.0000 0.0000 0.0000 27.7716
#
#
#
# Elastic Compliance Matrix: (Units=1/GPa)
#
#
# Indices 1 2 3 4 5 6 
#
# 1 0.007172 -0.003652 -0.002982 0.000000 0.000000 0.000000
# 2 -0.003652 0.013188 -0.000710 0.000000 0.000000 0.000000
# 3 -0.002982 -0.000710 0.011755 0.000000 0.000000 0.000000
# 4 0.000000 0.000000 0.000000 0.054188 0.000000 0.000000
# 5 0.000000 0.000000 0.000000 0.000000 0.034078 0.000000
# 6 0.000000 0.000000 0.000000 0.000000 0.000000 0.036008
#
#
# Mechanical properties :
#
#
# Convention : Reuss Voigt Hill
#
# Bulk Modulus (GPa) = 57.38635 70.17824 63.78229
# Shear Modulus (GPa) = 28.26681 32.07001 30.16841
#
# Velocity S-wave (km/s) = 3.66891 3.90794 3.79031
# Velocity P-wave (km/s) = 6.72872 7.33363 7.03768
#
# Compressibility (1/GPa) = 0.01742575
#
# Stress axis : x y z
#
# Youngs Moduli (GPa) = 139.42438 75.82830 85.07338
#
# Poissons Ratio (x) = 0.27692 0.25371
# Poissons Ratio (y) = 0.50918 0.06042
# Poissons Ratio (z) = 0.41580 0.05385
#
# Static dielectric constant tensor:
#      x y z
#    x 3.806150 0.000000 0.000000 
#    y 0.000000 3.742590 0.000000 
#    z 0.000000 0.000000 3.826210 
# 
# 
# High freq. dielectric constant tensor:
#      x y z
#    x 1.832600 0.000000 0.000000 
#    y 0.000000 1.811000 0.000000 
#    z 0.000000 0.000000 1.834620 
# 
# From -- ./inp_files/48833.got.cif
#   From: 2010.03.12/outbox.cif.g09.slc.cpg/sg74_25_cif.got.tgz:48833.got - 2010.04.16 15:46:19.
