data_PCOD8301340
_publ_section_title
;
Structure prediction by ZEFSAII (Michael W. Deem and Ramdas Pophale) SiO2 
 PCOD8301340
Probable space group: I M M A
;
_chemical_formula_sum "Si O2"
_cell_formula_units_Z 56
_cell_length_a 9.921708
_cell_length_b 10.557813
_cell_length_c 26.299910
_cell_angle_alpha 90.000000
_cell_angle_beta 90.000000
_cell_angle_gamma 90.000000
_cell_volume 2754.956014
_symmetry_space_group_name_H-M "I M M A"
_symmetry_group_IT_number 74
_symmetry_cell_setting 'orthorhombic'
loop_
_space_group_symop_operation_xyz
x,y,z
-x,1/2-y,z
x,-y,-z
-x,1/2+y,-z
-x,-y,-z
x,1/2+y,-z
-x,y,z
x,1/2-y,z
1/2+x,1/2+y,1/2+z
1/2-x,-y,1/2+z
1/2+x,1/2-y,1/2-z
1/2-x,y,1/2-z
1/2-x,1/2-y,1/2-z
1/2+x,y,1/2-z
1/2-x,1/2+y,1/2+z
1/2+x,-y,1/2+z
loop_
_atom_site_type_symbol
_atom_site_label
_atom_site_fract_x
_atom_site_fract_y
_atom_site_fract_z
Si Si1 0.000000 0.607972 0.825419
Si Si2 0.000000 0.401624 0.288736
Si Si3 0.156923 0.106117 0.537931
Si Si4 0.847205 0.250000 0.796680
Si Si5 0.242611 0.487486 0.646570
O O1 0.000000 0.542206 0.768943
O O2 0.133517 0.585069 0.859337
O O3 0.000000 0.750000 0.807984
O O4 0.131963 0.456058 0.315836
O O5 0.000000 0.250000 0.293676
O O6 0.219113 0.250000 0.531835
O O7 0.175572 0.050670 0.593888
O O8 0.000000 0.117990 0.526002
O O9 0.221671 0.000000 0.500000
O O10 0.750000 0.250000 0.750000
O O11 0.819350 0.131188 0.831251
O O12 0.000000 0.250000 0.777077
#
# Coordination Sequence:
#
# PCOD8301340 Si02
#       5
#     8   8  16   8  16
#     4  11  24  41  60  91 136 176 216 265 321 396
#     4  11  24  41  64  95 132 180 224 265 321 402
#     4  10  22  42  66  95 128 166 218 281 335 396
#     4  12  26  40  66 100 138 178 220 266 325 398
#     4  12  23  41  65  94 132 171 218 270 333 394
#
# _framework density 20.327003000000001
#
# number of rings (size 3 to 8) (size 9 to 14) (size 15 to 20)
#    0.000    0.857    4.286    3.429    2.000    4.571 
#    0.000    0.714    0.000    0.000    0.000    0.000 
#    0.000    0.000    0.000    0.000    0.000    0.000 
#
# Total GULP energy -347012.916044 kJ/mol
# GULP energy per Si atom -12393.318430 kJ/mol
# Density = 2.028074 g / cm^3
# Si number density = 20.327003 Si / 1000 Ang^3
#
#
#
# Elastic Constant Matrix: (Units=GPa)
#
#
# Indices 1 2 3 4 5 6 
#
# 1 96.9394 27.3019 -4.9840 0.0000 0.0000 0.0000
# 2 27.3019 111.1188 40.8544 0.0000 0.0000 0.0000
# 3 -4.9840 40.8544 74.0321 0.0000 0.0000 0.0000
# 4 0.0000 0.0000 0.0000 75.0123 0.0000 0.0000
# 5 0.0000 0.0000 0.0000 0.0000 16.0077 0.0000
# 6 0.0000 0.0000 0.0000 0.0000 0.0000 22.5382
#
#
#
# Elastic Compliance Matrix: (Units=1/GPa)
#
#
# Indices 1 2 3 4 5 6 
#
# 1 0.011573 -0.003927 0.002946 0.000000 0.000000 0.000000
# 2 -0.003927 0.012622 -0.007230 0.000000 0.000000 0.000000
# 3 0.002946 -0.007230 0.017696 0.000000 0.000000 0.000000
# 4 0.000000 0.000000 0.000000 0.013331 0.000000 0.000000
# 5 0.000000 0.000000 0.000000 0.000000 0.062470 0.000000
# 6 0.000000 0.000000 0.000000 0.000000 0.000000 0.044369
#
#
# Mechanical properties :
#
#
# Convention : Reuss Voigt Hill
#
# Bulk Modulus (GPa) = 39.26172 45.38165 42.32169
# Shear Modulus (GPa) = 26.74189 37.30619 32.02404
#
# Velocity S-wave (km/s) = 3.63103 4.28869 3.97349
# Velocity P-wave (km/s) = 6.07752 6.84822 6.47434
#
# Compressibility (1/GPa) = 0.02547010
#
# Stress axis : x y z
#
# Youngs Moduli (GPa) = 86.40739 79.22444 56.51046
#
# Poissons Ratio (x) = 0.31109 -0.16648
# Poissons Ratio (y) = 0.33929 0.40857
# Poissons Ratio (z) = -0.25456 0.57279
#
# Static dielectric constant tensor:
#      x y z
#    x 3.622630 0.000000 0.000000 
#    y 0.000000 4.134980 0.000000 
#    z 0.000000 0.000000 3.585550 
# 
# 
# High freq. dielectric constant tensor:
#      x y z
#    x 1.786410 0.000000 0.000000 
#    y 0.000000 1.820860 0.000000 
#    z 0.000000 0.000000 1.780850 
# 
# From -- ./inp_files/63296.got.cif
#   From: 2010.03.12/outbox.cif.g09.slc.cpg/sg74_32_cif.got.tgz:63296.got - 2010.04.16 15:46:19.
