data_PCOD8301325
_publ_section_title
;
Structure prediction by ZEFSAII (Michael W. Deem and Ramdas Pophale) SiO2 
 PCOD8301325
Probable space group: I M M A
;
_chemical_formula_sum "Si O2"
_cell_formula_units_Z 104
_cell_length_a 8.504531
_cell_length_b 19.808610
_cell_length_c 30.243531
_cell_angle_alpha 90.000000
_cell_angle_beta 90.000000
_cell_angle_gamma 90.000000
_cell_volume 5094.914082
_symmetry_space_group_name_H-M "I M M A"
_symmetry_group_IT_number 74
_symmetry_cell_setting 'orthorhombic'
loop_
_space_group_symop_operation_xyz
x,y,z
-x,1/2-y,z
x,-y,-z
-x,1/2+y,-z
-x,-y,-z
x,1/2+y,-z
-x,y,z
x,1/2-y,z
1/2+x,1/2+y,1/2+z
1/2-x,-y,1/2+z
1/2+x,1/2-y,1/2-z
1/2-x,y,1/2-z
1/2-x,1/2-y,1/2-z
1/2+x,y,1/2-z
1/2-x,1/2+y,1/2+z
1/2+x,-y,1/2+z
loop_
_atom_site_type_symbol
_atom_site_label
_atom_site_fract_x
_atom_site_fract_y
_atom_site_fract_z
Si Si1 0.672145 0.997768 0.948773
Si Si2 0.817509 0.750000 0.081319
Si Si3 0.813943 0.750000 0.702585
Si Si4 0.321697 0.868937 0.572909
Si Si5 0.815915 0.524979 0.201375
Si Si6 0.184731 0.250000 0.484536
Si Si7 0.818687 0.387360 0.335126
Si Si8 0.815373 0.604322 0.115085
O O1 0.500000 0.978901 0.927503
O O2 0.728222 0.066509 0.925098
O O3 0.812928 0.943764 0.946368
O O4 0.640046 0.000000 0.000000
O O5 0.776560 0.684022 0.110690
O O6 0.000000 0.750000 0.067415
O O7 0.716579 0.750000 0.036631
O O8 0.750000 0.750000 0.750000
O O9 0.743817 0.681997 0.682255
O O10 0.000000 0.750000 0.697894
O O11 0.500000 0.851345 0.586928
O O12 0.260506 0.815574 0.537512
O O13 0.201875 0.877021 0.613138
O O14 0.750000 0.542802 0.250000
O O15 0.773903 0.449719 0.185776
O O16 0.755973 0.577223 0.163267
O O17 0.000000 0.530465 0.206001
O O18 0.000000 0.250000 0.475651
O O19 0.000000 0.396931 0.322253
O O20 0.000000 0.590332 0.110444
#
# Coordination Sequence:
#
# PCOD8301325 Si02
#       8
#    16   8   8  16  16   8  16  16
#     4  11  23  38  60  91 126 164 207 256 310 369
#     4  10  22  43  68  93 123 164 206 261 326 388
#     4  10  23  38  55  81 114 153 199 246 297 350
#     4  12  24  39  60  88 122 165 211 254 304 366
#     4  11  23  40  63  93 125 165 214 268 326 388
#     4  12  25  41  60  90 130 171 215 263 313 375
#     4  11  22  39  61  88 123 164 207 260 315 370
#     4  10  22  41  65  92 124 162 211 262 320 390
#
# _framework density 20.412513000000001
#
# number of rings (size 3 to 8) (size 9 to 14) (size 15 to 20)
#    0.000    1.077    1.538    5.308    0.000    8.000 
#    0.000    0.385    0.000    0.000    0.000    0.000 
#    0.000    0.000    0.000    0.000    0.000    0.000 
#
# Total GULP energy -644381.294915 kJ/mol
# GULP energy per Si atom -12391.947979 kJ/mol
# Density = 2.036605 g / cm^3
# Si number density = 20.412513 Si / 1000 Ang^3
#
#
#
# Elastic Constant Matrix: (Units=GPa)
#
#
# Indices 1 2 3 4 5 6 
#
# 1 64.2598 38.0543 30.4173 0.0000 0.0000 0.0000
# 2 38.0543 155.3046 60.7621 0.0000 0.0000 0.0000
# 3 30.4173 60.7621 128.3031 0.0000 0.0000 0.0000
# 4 0.0000 0.0000 0.0000 30.2523 0.0000 0.0000
# 5 0.0000 0.0000 0.0000 0.0000 6.6507 0.0000
# 6 0.0000 0.0000 0.0000 0.0000 0.0000 25.2051
#
#
#
# Elastic Compliance Matrix: (Units=1/GPa)
#
#
# Indices 1 2 3 4 5 6 
#
# 1 0.019001 -0.003551 -0.002823 0.000000 0.000000 0.000000
# 2 -0.003551 0.008567 -0.003215 0.000000 0.000000 0.000000
# 3 -0.002823 -0.003215 0.009986 0.000000 0.000000 0.000000
# 4 0.000000 0.000000 0.000000 0.033055 0.000000 0.000000
# 5 0.000000 0.000000 0.000000 0.000000 0.150360 0.000000
# 6 0.000000 0.000000 0.000000 0.000000 0.000000 0.039674
#
#
# Mechanical properties :
#
#
# Convention : Reuss Voigt Hill
#
# Bulk Modulus (GPa) = 54.42117 67.37055 60.89586
# Shear Modulus (GPa) = 17.48566 26.99721 22.24144
#
# Velocity S-wave (km/s) = 2.92997 3.64068 3.30449
# Velocity P-wave (km/s) = 6.17777 7.12383 6.66760
#
# Compressibility (1/GPa) = 0.01837520
#
# Stress axis : x y z
#
# Youngs Moduli (GPa) = 52.62841 116.72507 100.14067
#
# Poissons Ratio (x) = 0.41454 0.28267
# Poissons Ratio (y) = 0.18691 0.32198
# Poissons Ratio (z) = 0.14856 0.37530
#
# Static dielectric constant tensor:
#      x y z
#    x 3.819390 0.000000 0.000000 
#    y 0.000000 3.868610 0.000000 
#    z 0.000000 0.000000 3.776710 
# 
# 
# High freq. dielectric constant tensor:
#      x y z
#    x 1.802290 0.000000 0.000000 
#    y 0.000000 1.802090 0.000000 
#    z 0.000000 0.000000 1.800730 
# 
# From -- ./inp_files/64562.got.cif
#   From: 2010.03.12/outbox.cif.g09.slc.cpg/sg74_33_cif.got.tgz:64562.got - 2010.04.16 15:46:19.
