data_PCOD8301230
_publ_section_title
;
Structure prediction by ZEFSAII (Michael W. Deem and Ramdas Pophale) SiO2 
 PCOD8301230
Probable space group: I M M A
;
_chemical_formula_sum "Si O2"
_cell_formula_units_Z 40
_cell_length_a 13.477639
_cell_length_b 10.252783
_cell_length_c 14.961787
_cell_angle_alpha 90.000000
_cell_angle_beta 90.000000
_cell_angle_gamma 90.000000
_cell_volume 2067.469222
_symmetry_space_group_name_H-M "I M M A"
_symmetry_group_IT_number 74
_symmetry_cell_setting 'orthorhombic'
loop_
_space_group_symop_operation_xyz
x,y,z
-x,1/2-y,z
x,-y,-z
-x,1/2+y,-z
-x,-y,-z
x,1/2+y,-z
-x,y,z
x,1/2-y,z
1/2+x,1/2+y,1/2+z
1/2-x,-y,1/2+z
1/2+x,1/2-y,1/2-z
1/2-x,y,1/2-z
1/2-x,1/2-y,1/2-z
1/2+x,y,1/2-z
1/2-x,1/2+y,1/2+z
1/2+x,-y,1/2+z
loop_
_atom_site_type_symbol
_atom_site_label
_atom_site_fract_x
_atom_site_fract_y
_atom_site_fract_z
Si Si1 0.664854 0.500000 0.500000
Si Si2 0.000000 0.393531 0.880740
Si Si3 0.854917 0.602625 0.569424
Si Si4 0.000000 0.398107 0.275016
O O1 0.597374 0.596546 0.442216
O O2 0.735246 0.582377 0.568449
O O3 0.000000 0.505122 0.807339
O O4 0.000000 0.250000 0.836193
O O5 0.904065 0.500000 0.500000
O O6 0.881512 0.750000 0.539545
O O7 0.900818 0.576088 0.666859
O O8 0.000000 0.250000 0.238244
#
# Coordination Sequence:
#
# PCOD8301230 Si02
#       4
#     8   8  16   8
#     4   9  22  39  62  80 112 149 196 235 280 336
#     4  11  23  40  59  85 115 153 193 236 283 336
#     4   9  19  37  61  86 113 150 191 233 283 338
#     4  10  22  38  59  88 120 149 184 235 290 337
#
# _framework density 19.347325999999999
#
# number of rings (size 3 to 8) (size 9 to 14) (size 15 to 20)
#    1.200    1.200    0.000    1.800    0.000    8.000 
#    0.000    6.000    0.000    0.000    0.000    0.000 
#    0.000    0.000    0.000    0.000    0.000    0.000 
#
# Total GULP energy -247795.037939 kJ/mol
# GULP energy per Si atom -12389.751897 kJ/mol
# Density = 1.930329 g / cm^3
# Si number density = 19.347326 Si / 1000 Ang^3
#
#
#
# Elastic Constant Matrix: (Units=GPa)
#
#
# Indices 1 2 3 4 5 6 
#
# 1 139.6203 40.3181 54.9243 0.0000 0.0000 0.0000
# 2 40.3181 139.1407 60.7659 0.0000 0.0000 0.0000
# 3 54.9243 60.7659 90.4731 0.0000 0.0000 0.0000
# 4 0.0000 0.0000 0.0000 37.7961 0.0000 0.0000
# 5 0.0000 0.0000 0.0000 0.0000 -78.3908 0.0000
# 6 0.0000 0.0000 0.0000 0.0000 0.0000 9.6521
#
#
#
# Elastic Compliance Matrix: (Units=1/GPa)
#
#
# Indices 1 2 3 4 5 6 
#
# 1 0.009420 -0.000328 -0.005498 0.000000 0.000000 0.000000
# 2 -0.000328 0.010182 -0.006639 0.000000 0.000000 0.000000
# 3 -0.005498 -0.006639 0.018850 0.000000 0.000000 0.000000
# 4 0.000000 0.000000 0.000000 0.026458 0.000000 0.000000
# 5 0.000000 0.000000 0.000000 0.000000 -0.012757 0.000000
# 6 0.000000 0.000000 0.000000 0.000000 0.000000 0.103605
#
#
# Mechanical properties :
#
#
# Convention : Reuss Voigt Hill
#
# Bulk Modulus (GPa) = 73.96275 75.69452 74.82864
# Shear Modulus (GPa) = 26.99856 8.02652 17.51254
#
# Velocity S-wave (km/s) = 3.73965 2.03903 3.01186
# Velocity P-wave (km/s) = 7.54709 6.68973 7.13131
#
# Compressibility (1/GPa) = 0.01352032
#
# Stress axis : x y z
#
# Youngs Moduli (GPa) = 106.15738 98.21693 53.05088
#
# Poissons Ratio (x) = 0.03226 0.29168
# Poissons Ratio (y) = 0.03487 0.35220
# Poissons Ratio (z) = 0.58366 0.65206
#
# Static dielectric constant tensor:
#      x y z
#    x 3.676140 0.000000 0.000000 
#    y 0.000000 3.443140 0.000000 
#    z 0.000000 0.000000 3.195410 
# 
# 
# High freq. dielectric constant tensor:
#      x y z
#    x 1.765970 0.000000 0.000000 
#    y 0.000000 1.757260 0.000000 
#    z 0.000000 0.000000 1.723130 
# 
# From -- ./inp_files/33318.got.cif
#   From: 2010.03.12/outbox.cif.g09.slc.cpg/sg74_17_cif.got.tgz:33318.got - 2010.04.16 15:46:19.
