data_PCOD8301333
_publ_section_title
;
Structure prediction by ZEFSAII (Michael W. Deem and Ramdas Pophale) SiO2 
 PCOD8301333
Probable space group: I M M A
;
_chemical_formula_sum "Si O2"
_cell_formula_units_Z 104
_cell_length_a 22.424206
_cell_length_b 22.785597
_cell_length_c 9.772238
_cell_angle_alpha 90.000000
_cell_angle_beta 90.000000
_cell_angle_gamma 90.000000
_cell_volume 4993.114461
_symmetry_space_group_name_H-M "I M M A"
_symmetry_group_IT_number 74
_symmetry_cell_setting 'orthorhombic'
loop_
_space_group_symop_operation_xyz
x,y,z
-x,1/2-y,z
x,-y,-z
-x,1/2+y,-z
-x,-y,-z
x,1/2+y,-z
-x,y,z
x,1/2-y,z
1/2+x,1/2+y,1/2+z
1/2-x,-y,1/2+z
1/2+x,1/2-y,1/2-z
1/2-x,y,1/2-z
1/2-x,1/2-y,1/2-z
1/2+x,y,1/2-z
1/2-x,1/2+y,1/2+z
1/2+x,-y,1/2+z
loop_
_atom_site_type_symbol
_atom_site_label
_atom_site_fract_x
_atom_site_fract_y
_atom_site_fract_z
Si Si1 0.127419 0.817716 0.568118
Si Si2 0.181954 0.898882 0.795372
Si Si3 0.311484 0.184119 0.796480
Si Si4 0.000000 0.980981 0.656281
Si Si5 0.500000 0.843045 0.857218
Si Si6 0.393657 0.011300 0.653391
Si Si7 0.500000 0.816748 0.545634
Si Si8 0.624033 0.636321 0.437752
O O1 0.145584 0.750000 0.598560
O O2 0.144742 0.860741 0.689521
O O3 0.157988 0.843731 0.430965
O O4 0.056151 0.822088 0.553401
O O5 0.250000 0.900013 0.750000
O O6 0.158425 0.965432 0.808151
O O7 0.172170 0.866246 0.939811
O O8 0.295467 0.250000 0.838727
O O9 0.250000 0.151442 0.750000
O O10 0.356944 0.186336 0.668482
O O11 0.000000 0.911800 0.669874
O O12 0.000000 0.000000 0.500000
O O13 0.056879 0.007354 0.731149
O O14 0.500000 0.812581 0.709055
O O15 0.369645 0.077331 0.653112
O O16 0.419320 0.000000 0.500000
O O17 0.500000 0.750000 0.488950
O O18 0.442279 0.852216 0.493620
#
# Coordination Sequence:
#
# PCOD8301333 Si02
#       8
#    16  16  16   8   8  16   8  16
#     4  11  23  40  65  93 129 172 213 270 337 396
#     4  11  23  41  65  94 124 170 229 276 318 390
#     4  10  23  42  61  88 129 172 213 264 331 401
#     4  12  24  39  65  95 121 167 211 269 321 401
#     4  12  22  41  64  94 135 162 213 273 335 389
#     4  10  22  42  63  89 127 169 209 263 333 388
#     4  12  23  40  70 103 134 172 225 285 334 408
#     4  11  23  40  67  95 131 173 217 279 335 398
#
# _framework density 20.828683999999999
#
# number of rings (size 3 to 8) (size 9 to 14) (size 15 to 20)
#    0.000    1.077    3.077    3.692    2.154    2.154 
#    0.000    4.615    0.000    0.000    0.000    0.000 
#    0.000    0.000    0.000    0.000    0.000    0.000 
#
# Total GULP energy -644699.343310 kJ/mol
# GULP energy per Si atom -12398.064294 kJ/mol
# Density = 2.078128 g / cm^3
# Si number density = 20.828684 Si / 1000 Ang^3
#
#
#
# Elastic Constant Matrix: (Units=GPa)
#
#
# Indices 1 2 3 4 5 6 
#
# 1 121.5703 33.5307 57.0936 0.0000 0.0000 0.0000
# 2 33.5307 89.4555 42.1660 0.0000 0.0000 0.0000
# 3 57.0936 42.1660 130.9759 0.0000 0.0000 0.0000
# 4 0.0000 0.0000 0.0000 28.0236 0.0000 0.0000
# 5 0.0000 0.0000 0.0000 0.0000 44.2462 0.0000
# 6 0.0000 0.0000 0.0000 0.0000 0.0000 21.4125
#
#
#
# Elastic Compliance Matrix: (Units=1/GPa)
#
#
# Indices 1 2 3 4 5 6 
#
# 1 0.010677 -0.002132 -0.003968 0.000000 0.000000 0.000000
# 2 -0.002132 0.013604 -0.003450 0.000000 0.000000 0.000000
# 3 -0.003968 -0.003450 0.010475 0.000000 0.000000 0.000000
# 4 0.000000 0.000000 0.000000 0.035684 0.000000 0.000000
# 5 0.000000 0.000000 0.000000 0.000000 0.022601 0.000000
# 6 0.000000 0.000000 0.000000 0.000000 0.000000 0.046702
#
#
# Mechanical properties :
#
#
# Convention : Reuss Voigt Hill
#
# Bulk Modulus (GPa) = 63.87129 67.50915 65.69022
# Shear Modulus (GPa) = 30.47614 32.68388 31.58001
#
# Velocity S-wave (km/s) = 3.82930 3.96558 3.89804
# Velocity P-wave (km/s) = 7.09106 7.31093 7.20183
#
# Compressibility (1/GPa) = 0.01565649
#
# Stress axis : x y z
#
# Youngs Moduli (GPa) = 93.65784 73.50665 95.46089
#
# Poissons Ratio (x) = 0.15670 0.37879
# Poissons Ratio (y) = 0.19966 0.32938
# Poissons Ratio (z) = 0.37163 0.25363
#
# Static dielectric constant tensor:
#      x y z
#    x 3.898570 0.000000 0.000000 
#    y 0.000000 3.863720 0.000000 
#    z 0.000000 0.000000 3.878610 
# 
# 
# High freq. dielectric constant tensor:
#      x y z
#    x 1.816570 0.000000 0.000000 
#    y 0.000000 1.816130 0.000000 
#    z 0.000000 0.000000 1.822210 
# 
# From -- ./inp_files/12809.got.cif
#   From: 2010.03.12/outbox.cif.g09.slc.cpg/sg74_7_cif.got.tgz:12809.got - 2010.04.16 15:46:19.
