data_PCOD8301537
_publ_section_title
;
Structure prediction by ZEFSAII (Michael W. Deem and Ramdas Pophale) SiO2 
 PCOD8301537
Probable space group: I M M A
;
_chemical_formula_sum "Si O2"
_cell_formula_units_Z 80
_cell_length_a 8.753917
_cell_length_b 17.948204
_cell_length_c 27.707688
_cell_angle_alpha 90.000000
_cell_angle_beta 90.000000
_cell_angle_gamma 90.000000
_cell_volume 4353.351257
_symmetry_space_group_name_H-M "I M M A"
_symmetry_group_IT_number 74
_symmetry_cell_setting 'orthorhombic'
loop_
_space_group_symop_operation_xyz
x,y,z
-x,1/2-y,z
x,-y,-z
-x,1/2+y,-z
-x,-y,-z
x,1/2+y,-z
-x,y,z
x,1/2-y,z
1/2+x,1/2+y,1/2+z
1/2-x,-y,1/2+z
1/2+x,1/2-y,1/2-z
1/2-x,y,1/2-z
1/2-x,1/2-y,1/2-z
1/2+x,y,1/2-z
1/2-x,1/2+y,1/2+z
1/2+x,-y,1/2+z
loop_
_atom_site_type_symbol
_atom_site_label
_atom_site_fract_x
_atom_site_fract_y
_atom_site_fract_z
Si Si1 0.178630 0.830539 0.197659
Si Si2 0.832573 0.060722 0.541157
Si Si3 0.819920 0.021250 0.697043
Si Si4 0.680618 0.664874 0.960034
Si Si5 0.178365 0.046027 0.109547
O O1 0.203569 0.750000 0.170976
O O2 0.250000 0.823443 0.250000
O O3 0.000000 0.849345 0.201746
O O4 0.263976 0.900129 0.172734
O O5 0.773769 0.135465 0.513841
O O6 0.000000 0.073439 0.565403
O O7 0.851321 0.000000 0.500000
O O8 0.714389 0.030724 0.580759
O O9 0.750000 0.009473 0.750000
O O10 0.761790 0.956186 0.661499
O O11 0.000000 0.019161 0.701260
O O12 0.500000 0.655133 0.952528
O O13 0.733603 0.750000 0.955902
O O14 0.765049 0.618868 0.918469
O O15 0.000000 0.051913 0.118159
#
# Coordination Sequence:
#
# PCOD8301537 Si02
#       5
#    16  16  16  16  16
#     4   9  16  27  44  66  92 121 156 200 249 298
#     4   8  15  30  51  74 100 131 165 202 248 302
#     4  11  21  34  52  73 100 136 180 224 264 308
#     4   9  18  34  56  80 106 136 170 210 258 312
#     4  11  21  33  51  76 106 139 175 214 258 308
#
# _framework density 18.376647999999999
#
# number of rings (size 3 to 8) (size 9 to 14) (size 15 to 20)
#    0.000    2.400    0.000    6.600    0.000    5.200 
#    0.000    1.000    0.000    4.200    0.000    0.000 
#    0.000    0.000    0.000    0.000    0.000    0.000 
#
# Total GULP energy -495636.363396 kJ/mol
# GULP energy per Si atom -12390.909085 kJ/mol
# Density = 1.833482 g / cm^3
# Si number density = 18.376648 Si / 1000 Ang^3
#
#
#
# Elastic Constant Matrix: (Units=GPa)
#
#
# Indices 1 2 3 4 5 6 
#
# 1 127.0967 45.7589 41.6786 0.0000 0.0000 0.0000
# 2 45.7589 107.3926 47.5389 0.0000 0.0000 0.0000
# 3 41.6786 47.5389 74.2545 0.0000 0.0000 0.0000
# 4 0.0000 0.0000 0.0000 21.0336 0.0000 0.0000
# 5 0.0000 0.0000 0.0000 0.0000 25.9098 0.0000
# 6 0.0000 0.0000 0.0000 0.0000 0.0000 23.9329
#
#
#
# Elastic Compliance Matrix: (Units=1/GPa)
#
#
# Indices 1 2 3 4 5 6 
#
# 1 0.010104 -0.002504 -0.004068 0.000000 0.000000 0.000000
# 2 -0.002504 0.013615 -0.007311 0.000000 0.000000 0.000000
# 3 -0.004068 -0.007311 0.020431 0.000000 0.000000 0.000000
# 4 0.000000 0.000000 0.000000 0.047543 0.000000 0.000000
# 5 0.000000 0.000000 0.000000 0.000000 0.038595 0.000000
# 6 0.000000 0.000000 0.000000 0.000000 0.000000 0.041783
#
#
# Mechanical properties :
#
#
# Convention : Reuss Voigt Hill
#
# Bulk Modulus (GPa) = 61.03679 64.29964 62.66822
# Shear Modulus (GPa) = 24.35479 25.75976 25.05727
#
# Velocity S-wave (km/s) = 3.64443 3.74808 3.69662
# Velocity P-wave (km/s) = 7.14112 7.33462 7.23852
#
# Compressibility (1/GPa) = 0.01638356
#
# Stress axis : x y z
#
# Youngs Moduli (GPa) = 98.97451 73.44855 48.94553
#
# Poissons Ratio (x) = 0.18395 0.19910
# Poissons Ratio (y) = 0.24787 0.35783
# Poissons Ratio (z) = 0.40260 0.53697
#
# Static dielectric constant tensor:
#      x y z
#    x 3.348160 0.000000 0.000000 
#    y 0.000000 3.765080 0.000000 
#    z 0.000000 0.000000 3.298790 
# 
# 
# High freq. dielectric constant tensor:
#      x y z
#    x 1.716950 0.000000 0.000000 
#    y 0.000000 1.697640 0.000000 
#    z 0.000000 0.000000 1.689440 
# 
# From -- ./inp_files/63934.got.cif
#   From: 2010.03.12/outbox.cif.g09.slc.cpg/sg74_32_cif.got.tgz:63934.got - 2010.04.16 15:46:19.
