data_PCOD8301186
_publ_section_title
;
Structure prediction by ZEFSAII (Michael W. Deem and Ramdas Pophale) SiO2 
 PCOD8301186
Probable space group: I M M A
;
_chemical_formula_sum "Si O2"
_cell_formula_units_Z 96
_cell_length_a 14.565231
_cell_length_b 22.824855
_cell_length_c 15.183044
_cell_angle_alpha 90.000000
_cell_angle_beta 90.000000
_cell_angle_gamma 90.000000
_cell_volume 5047.592131
_symmetry_space_group_name_H-M "I M M A"
_symmetry_group_IT_number 74
_symmetry_cell_setting 'orthorhombic'
loop_
_space_group_symop_operation_xyz
x,y,z
-x,1/2-y,z
x,-y,-z
-x,1/2+y,-z
-x,-y,-z
x,1/2+y,-z
-x,y,z
x,1/2-y,z
1/2+x,1/2+y,1/2+z
1/2-x,-y,1/2+z
1/2+x,1/2-y,1/2-z
1/2-x,y,1/2-z
1/2-x,1/2-y,1/2-z
1/2+x,y,1/2-z
1/2-x,1/2+y,1/2+z
1/2+x,-y,1/2+z
loop_
_atom_site_type_symbol
_atom_site_label
_atom_site_fract_x
_atom_site_fract_y
_atom_site_fract_z
Si Si1 0.901681 0.514708 0.899648
Si Si2 0.605684 0.750000 0.987614
Si Si3 0.393917 0.416018 0.155441
Si Si4 0.270978 0.250000 0.352113
Si Si5 0.104502 0.874677 0.462391
Si Si6 0.787825 0.522734 0.399610
Si Si7 0.393626 0.358566 0.334212
O O1 0.817149 0.475499 0.863372
O O2 0.876009 0.583240 0.891735
O O3 0.000000 0.502367 0.850373
O O4 0.916304 0.500000 0.000000
O O5 0.500000 0.750000 0.949600
O O6 0.676623 0.750000 0.906795
O O7 0.620130 0.694422 0.052219
O O8 0.500000 0.430696 0.165923
O O9 0.343752 0.478682 0.162887
O O10 0.362404 0.372776 0.233677
O O11 0.370202 0.384386 0.064581
O O12 0.250000 0.250000 0.250000
O O13 0.331327 0.307432 0.375148
O O14 0.168994 0.912211 0.397199
O O15 0.000000 0.894162 0.443966
O O16 0.791672 0.500000 0.500000
O O17 0.500000 0.338983 0.337389
#
# Coordination Sequence:
#
# PCOD8301186 Si02
#       7
#    16   8  16   8  16  16  16
#     4   9  19  33  49  65  90 124 163 211 255 283
#     4  10  22  35  48  69 100 130 166 204 243 295
#     4   9  17  29  47  70  99 127 159 200 243 289
#     4  12  25  31  52  67  99 139 178 199 236 280
#     4   9  17  31  48  70  97 127 157 198 246 294
#     4   9  17  27  49  68  92 118 165 199 245 290
#     4  10  22  37  50  70 100 134 172 210 244 286
#
# _framework density 19.018968999999998
#
# number of rings (size 3 to 8) (size 9 to 14) (size 15 to 20)
#    0.000    2.500    0.000    1.750    9.333    4.000 
#    0.000    0.000    0.000    0.000    0.000    0.000 
#    0.000    4.000    0.000   18.167    0.000    0.000 
#
# Total GULP energy -594876.343820 kJ/mol
# GULP energy per Si atom -12393.257163 kJ/mol
# Density = 1.897568 g / cm^3
# Si number density = 19.018969 Si / 1000 Ang^3
#
#
#
# Elastic Constant Matrix: (Units=GPa)
#
#
# Indices 1 2 3 4 5 6 
#
# 1 135.1814 81.1170 14.1842 0.0001 0.0000 0.0000
# 2 81.1170 136.6195 19.3075 0.0000 0.0000 0.0000
# 3 14.1842 19.3075 13.2478 0.0002 0.0000 0.0000
# 4 0.0001 0.0000 0.0002 25.7883 0.0000 0.0000
# 5 0.0000 0.0000 0.0000 0.0000 14.5940 0.0000
# 6 0.0000 0.0000 0.0000 0.0000 0.0000 27.6076
#
#
#
# Elastic Compliance Matrix: (Units=1/GPa)
#
#
# Indices 1 2 3 4 5 6 
#
# 1 0.011585 -0.006455 -0.002996 0.000000 0.000000 0.000000
# 2 -0.006455 0.012815 -0.011765 0.000000 0.000000 0.000000
# 3 -0.002996 -0.011765 0.095839 -0.000001 0.000000 0.000000
# 4 0.000000 0.000000 -0.000001 0.038777 0.000000 0.000000
# 5 0.000000 0.000000 0.000000 0.000000 0.068521 0.000000
# 6 0.000000 0.000000 0.000000 0.000000 0.000000 0.036222
#
#
# Mechanical properties :
#
#
# Convention : Reuss Voigt Hill
#
# Bulk Modulus (GPa) = 12.85249 57.14070 34.99659
# Shear Modulus (GPa) = 15.05438 24.96066 20.00752
#
# Velocity S-wave (km/s) = 2.81649 3.62665 3.24694
# Velocity P-wave (km/s) = 4.16524 6.90261 5.70067
#
# Compressibility (1/GPa) = 0.07780596
#
# Stress axis : x y z
#
# Youngs Moduli (GPa) = 86.31510 78.03266 10.43414
#
# Poissons Ratio (x) = 0.50373 0.03126
# Poissons Ratio (y) = 0.55720 0.12276
# Poissons Ratio (z) = 0.25862 0.91808
#
# Static dielectric constant tensor:
#      x y z
#    x 4.011840 0.000000 0.000000 
#    y 0.000000 4.169340 0.000000 
#    z 0.000000 0.000000 3.046200 
# 
# 
# High freq. dielectric constant tensor:
#      x y z
#    x 1.762960 0.000000 0.000000 
#    y 0.000000 1.731460 0.000000 
#    z 0.000000 0.000000 1.681370 
# 
# From -- ./inp_files/32427.got.cif
#   From: 2010.03.12/outbox.cif.g09.slc.cpg/sg74_17_cif.got.tgz:32427.got - 2010.04.16 15:46:19.
