data_PCOD8301241
_publ_section_title
;
Structure prediction by ZEFSAII (Michael W. Deem and Ramdas Pophale) SiO2 
 PCOD8301241
Probable space group: I M M A
;
_chemical_formula_sum "Si O2"
_cell_formula_units_Z 112
_cell_length_a 25.103935
_cell_length_b 14.989437
_cell_length_c 13.933122
_cell_angle_alpha 90.000000
_cell_angle_beta 90.000000
_cell_angle_gamma 90.000000
_cell_volume 5242.948150
_symmetry_space_group_name_H-M "I M M A"
_symmetry_group_IT_number 74
_symmetry_cell_setting 'orthorhombic'
loop_
_space_group_symop_operation_xyz
x,y,z
-x,1/2-y,z
x,-y,-z
-x,1/2+y,-z
-x,-y,-z
x,1/2+y,-z
-x,y,z
x,1/2-y,z
1/2+x,1/2+y,1/2+z
1/2-x,-y,1/2+z
1/2+x,1/2-y,1/2-z
1/2-x,y,1/2-z
1/2-x,1/2-y,1/2-z
1/2+x,y,1/2-z
1/2-x,1/2+y,1/2+z
1/2+x,-y,1/2+z
loop_
_atom_site_type_symbol
_atom_site_label
_atom_site_fract_x
_atom_site_fract_y
_atom_site_fract_z
Si Si1 0.940851 0.350103 0.544440
Si Si2 0.058915 0.546188 0.898876
Si Si3 0.604628 0.055719 0.770775
Si Si4 0.640925 0.431271 0.079909
Si Si5 0.691047 0.648450 0.350515
Si Si6 0.343835 0.848940 0.560551
Si Si7 0.253745 0.531884 0.641643
O O1 0.944545 0.250000 0.579283
O O2 0.927471 0.400904 0.642774
O O3 0.896140 0.350040 0.457397
O O4 0.000000 0.382162 0.507867
O O5 0.067637 0.470759 0.817883
O O6 0.098582 0.630102 0.894413
O O7 0.000000 0.585549 0.887326
O O8 0.067695 0.500000 0.000000
O O9 0.653650 0.118439 0.737932
O O10 0.628690 0.962901 0.812058
O O11 0.705456 0.426135 0.077704
O O12 0.620625 0.500000 0.000000
O O13 0.712874 0.750000 0.332297
O O14 0.654889 0.647818 0.445437
O O15 0.740261 0.577216 0.361303
O O16 0.326307 0.750000 0.595643
O O17 0.306235 0.927151 0.596849
O O18 0.250000 0.566007 0.750000
#
# Coordination Sequence:
#
# PCOD8301241 Si02
#       7
#    16  16  16  16  16  16  16
#     4  10  23  43  67  99 137 174 224 288 347 408
#     4  11  21  37  63  92 128 176 223 269 332 404
#     4  11  20  40  64  97 130 170 217 277 337 407
#     4  10  22  38  64  92 126 173 217 268 332 406
#     4  11  22  38  65  95 130 173 216 277 348 405
#     4  11  23  40  62  88 130 179 224 274 328 391
#     4  12  22  42  65  93 131 174 226 284 339 404
#
# _framework density 21.362027000000001
#
# number of rings (size 3 to 8) (size 9 to 14) (size 15 to 20)
#    0.000    1.143    4.286    2.143    0.000    4.571 
#    0.000    4.286    0.000    0.000    0.000    0.000 
#    0.000    0.000    0.000    0.000    0.000    0.000 
#
# Total GULP energy -693766.764413 kJ/mol
# GULP energy per Si atom -12388.692222 kJ/mol
# Density = 2.131341 g / cm^3
# Si number density = 21.362027 Si / 1000 Ang^3
#
#
#
# Elastic Constant Matrix: (Units=GPa)
#
#
# Indices 1 2 3 4 5 6 
#
# 1 146.3366 44.9173 42.2992 0.0000 0.0000 0.0000
# 2 44.9173 90.1048 36.4981 0.0000 0.0000 0.0000
# 3 42.2992 36.4981 108.7354 0.0000 0.0000 0.0000
# 4 0.0000 0.0000 0.0000 26.0774 0.0000 0.0000
# 5 0.0000 0.0000 0.0000 0.0000 24.9426 0.0000
# 6 0.0000 0.0000 0.0000 0.0000 0.0000 19.1517
#
#
#
# Elastic Compliance Matrix: (Units=1/GPa)
#
#
# Indices 1 2 3 4 5 6 
#
# 1 0.008492 -0.003351 -0.002179 0.000000 0.000000 0.000000
# 2 -0.003351 0.014167 -0.003452 0.000000 0.000000 0.000000
# 3 -0.002179 -0.003452 0.011203 0.000000 0.000000 0.000000
# 4 0.000000 0.000000 0.000000 0.038347 0.000000 0.000000
# 5 0.000000 0.000000 0.000000 0.000000 0.040092 0.000000
# 6 0.000000 0.000000 0.000000 0.000000 0.000000 0.052215
#
#
# Mechanical properties :
#
#
# Convention : Reuss Voigt Hill
#
# Bulk Modulus (GPa) = 62.89692 65.84511 64.37102
# Shear Modulus (GPa) = 26.62728 28.79849 27.71289
#
# Velocity S-wave (km/s) = 3.53438 3.67565 3.60571
# Velocity P-wave (km/s) = 6.79434 6.99316 6.89446
#
# Compressibility (1/GPa) = 0.01589903
#
# Stress axis : x y z
#
# Youngs Moduli (GPa) = 117.76081 70.58830 89.26345
#
# Poissons Ratio (x) = 0.23652 0.19448
# Poissons Ratio (y) = 0.39457 0.30811
# Poissons Ratio (z) = 0.25657 0.24365
#
# Static dielectric constant tensor:
#      x y z
#    x 3.999080 0.000000 0.000000 
#    y 0.000000 3.806190 0.000000 
#    z 0.000000 0.000000 4.062280 
# 
# 
# High freq. dielectric constant tensor:
#      x y z
#    x 1.838410 0.000000 0.000000 
#    y 0.000000 1.814800 0.000000 
#    z 0.000000 0.000000 1.848170 
# 
# From -- ./inp_files/37409.got.cif
#   From: 2010.03.12/outbox.cif.g09.slc.cpg/sg74_19_cif.got.tgz:37409.got - 2010.04.16 15:46:19.
