data_PCOD8301972
_publ_section_title
;
Structure prediction by ZEFSAII (Michael W. Deem and Ramdas Pophale) SiO2 
 PCOD8301972
Probable space group: P 41
;
_chemical_formula_sum "Si O2"
_cell_formula_units_Z 24
_cell_length_a 9.635935
_cell_length_b 9.635935
_cell_length_c 10.705857
_cell_angle_alpha 90.000000
_cell_angle_beta 90.000000
_cell_angle_gamma 90.000000
_cell_volume 994.052133
_symmetry_space_group_name_H-M "P 41"
_symmetry_group_IT_number 76
_symmetry_cell_setting 'tetragonal'
loop_
_space_group_symop_operation_xyz
x,y,z
-y,x,1/4+z
-x,-y,1/2+z
y,-x,3/4+z
loop_
_atom_site_type_symbol
_atom_site_label
_atom_site_fract_x
_atom_site_fract_y
_atom_site_fract_z
Si Si1 0.618892 0.460351 0.093220
Si Si2 0.218142 0.210611 0.954032
Si Si3 0.894496 0.732303 0.719099
Si Si4 0.754760 0.981873 0.838369
Si Si5 0.076426 0.747532 0.355079
Si Si6 0.547734 0.139053 0.693470
O O1 0.552809 0.516822 0.222582
O O2 0.681494 0.311067 0.127372
O O3 0.735884 0.568005 0.042826
O O4 0.074683 0.191825 0.882379
O O5 0.291950 0.059611 0.956141
O O6 0.189813 0.274595 0.090543
O O7 0.827462 0.613603 0.807979
O O8 0.872740 0.884979 0.778442
O O9 0.626385 0.002116 0.744020
O O10 0.817643 0.128889 0.877829
O O11 0.696346 0.910189 0.962434
O O12 0.111155 0.616376 0.440747
#
# Coordination Sequence:
#
# PCOD8301972 Si02
#       6
#     4   4   4   4   4   4
#     4  12  31  56  79 111 159 217 275 324 398 479
#     4  12  26  47  79 117 155 205 263 335 401 483
#     4  12  25  46  79 118 160 198 269 331 412 472
#     4  12  24  47  75 110 155 209 260 334 404 475
#     4  12  25  44  78 107 158 202 265 329 405 474
#     4  12  27  46  74 115 155 207 264 327 404 479
#
# _framework density 24.143605000000001
#
# number of rings (size 3 to 8) (size 9 to 14) (size 15 to 20)
#    0.000    0.000    3.333    7.000    9.333    0.000 
#    0.000    0.000    0.000    0.000    0.000    0.000 
#    0.000    0.000    0.000    0.000    0.000    0.000 
#
# Total GULP energy -297599.648438 kJ/mol
# GULP energy per Si atom -12399.985352 kJ/mol
# Density = 2.408865 g / cm^3
# Si number density = 24.143605 Si / 1000 Ang^3
#
#
#
# Elastic Constant Matrix: (Units=GPa)
#
#
# Indices 1 2 3 4 5 6 
#
# 1 84.2790 25.5892 27.6675 0.0000 0.0000 5.5417
# 2 25.5892 84.2790 27.6675 0.0000 0.0000 -5.5417
# 3 27.6675 27.6675 169.2198 0.0000 0.0000 0.0000
# 4 0.0000 0.0000 0.0000 45.6561 0.0000 0.0000
# 5 0.0000 0.0000 0.0000 0.0000 45.6561 0.0000
# 6 5.5417 -5.5417 0.0000 0.0000 0.0000 24.4285
#
#
#
# Elastic Compliance Matrix: (Units=1/GPa)
#
#
# Indices 1 2 3 4 5 6 
#
# 1 0.013860 -0.003941 -0.001622 0.000000 0.000000 -0.004038
# 2 -0.003941 0.013860 -0.001622 0.000000 0.000000 0.004038
# 3 -0.001622 -0.001622 0.006440 0.000000 0.000000 0.000000
# 4 0.000000 0.000000 0.000000 0.021903 0.000000 0.000000
# 5 0.000000 0.000000 0.000000 0.000000 0.021903 0.000000
# 6 -0.004038 0.004038 0.000000 0.000000 0.000000 0.042768
#
#
# Mechanical properties :
#
#
# Convention : Reuss Voigt Hill
#
# Bulk Modulus (GPa) = 50.53017 55.51402 53.02209
# Shear Modulus (GPa) = 35.28590 40.27172 37.77881
#
# Velocity S-wave (km/s) = 3.82711 4.08856 3.95999
# Velocity P-wave (km/s) = 6.36423 6.73287 6.55114
#
# Compressibility (1/GPa) = 0.01979016
#
# Stress axis : x y z
#
# Youngs Moduli (GPa) = 72.15026 72.15026 155.28507
#
# Poissons Ratio (x) = 0.28437 0.25182
# Poissons Ratio (y) = 0.28437 0.25182
# Poissons Ratio (z) = 0.11701 0.11701
#
# Static dielectric constant tensor:
#      x y z
#    x 4.150570 0.000000 0.000000 
#    y 0.000000 4.150570 0.000000 
#    z 0.000000 0.000000 4.818960 
# 
# 
# High freq. dielectric constant tensor:
#      x y z
#    x 1.946920 0.000000 0.000000 
#    y 0.000000 1.946920 0.000000 
#    z 0.000000 0.000000 1.991000 
# 
# From -- ./inp_files/850.got.cif
#   From: 2010.03.12/outbox.cif.g09.slc.cpg/sg76_cif.got.tgz:850.got - 2010.04.16 16:34:25.
