data_PCOD8301623
_publ_section_title
;
Structure prediction by ZEFSAII (Michael W. Deem and Ramdas Pophale) SiO2 
 PCOD8301623
Probable space group: I M M A
;
_chemical_formula_sum "Si O2"
_cell_formula_units_Z 72
_cell_length_a 28.851485
_cell_length_b 8.626351
_cell_length_c 13.910289
_cell_angle_alpha 90.000000
_cell_angle_beta 90.000000
_cell_angle_gamma 90.000000
_cell_volume 3462.034965
_symmetry_space_group_name_H-M "I M M A"
_symmetry_group_IT_number 74
_symmetry_cell_setting 'orthorhombic'
loop_
_space_group_symop_operation_xyz
x,y,z
-x,1/2-y,z
x,-y,-z
-x,1/2+y,-z
-x,-y,-z
x,1/2+y,-z
-x,y,z
x,1/2-y,z
1/2+x,1/2+y,1/2+z
1/2-x,-y,1/2+z
1/2+x,1/2-y,1/2-z
1/2-x,y,1/2-z
1/2-x,1/2-y,1/2-z
1/2+x,y,1/2-z
1/2-x,1/2+y,1/2+z
1/2+x,-y,1/2+z
loop_
_atom_site_type_symbol
_atom_site_label
_atom_site_fract_x
_atom_site_fract_y
_atom_site_fract_z
Si Si1 0.086760 0.066064 0.281407
Si Si2 0.175464 0.569050 0.604919
Si Si3 0.370224 0.067179 0.606522
Si Si4 0.000000 0.566725 0.393380
Si Si5 0.776434 0.067979 0.105465
O O1 0.081117 0.250000 0.282893
O O2 0.134042 0.004080 0.330354
O O3 0.088837 0.004696 0.171813
O O4 0.044635 0.989701 0.336565
O O5 0.171498 0.500000 0.500000
O O6 0.168892 0.750000 0.592174
O O7 0.226073 0.536526 0.655250
O O8 0.374839 0.250000 0.603384
O O9 0.375390 0.000000 0.500000
O O10 0.320431 0.017208 0.653550
O O11 0.000000 0.500000 0.500000
O O12 0.000000 0.750000 0.400252
O O13 0.787920 0.250000 0.102300
O O14 0.770893 0.000000 0.000000
#
# Coordination Sequence:
#
# PCOD8301623 Si02
#       5
#    16  16  16   8  16
#     4  11  23  41  63  89 118 155 199 247 300 357
#     4   9  19  33  54  83 118 156 198 244 294 349
#     4  11  22  38  59  86 119 159 201 246 294 349
#     4  12  26  46  69  96 125 156 192 238 294 354
#     4   9  16  30  51  79 115 157 198 241 290 345
#
# _framework density 20.797018000000001
#
# number of rings (size 3 to 8) (size 9 to 14) (size 15 to 20)
#    0.000    1.778    0.000    6.333    0.000    5.333 
#    0.000    5.000    0.000    0.000    0.000    0.000 
#    0.000    0.000    0.000    0.000    0.000    0.000 
#
# Total GULP energy -446221.261836 kJ/mol
# GULP energy per Si atom -12395.035051 kJ/mol
# Density = 2.074968 g / cm^3
# Si number density = 20.797018 Si / 1000 Ang^3
#
#
#
# Elastic Constant Matrix: (Units=GPa)
#
#
# Indices 1 2 3 4 5 6 
#
# 1 143.4282 65.4829 83.9849 0.0000 0.0000 0.0000
# 2 65.4829 131.4778 47.8937 0.0000 0.0000 0.0000
# 3 83.9849 47.8937 96.4187 0.0000 0.0000 0.0000
# 4 0.0000 0.0000 0.0000 29.1984 0.0000 0.0000
# 5 0.0000 0.0000 0.0000 0.0000 37.3143 0.0000
# 6 0.0000 0.0000 0.0000 0.0000 0.0000 31.2208
#
#
#
# Elastic Compliance Matrix: (Units=1/GPa)
#
#
# Indices 1 2 3 4 5 6 
#
# 1 0.015378 -0.003394 -0.011709 0.000000 0.000000 0.000000
# 2 -0.003394 0.010035 -0.002029 0.000000 0.000000 0.000000
# 3 -0.011709 -0.002029 0.021578 0.000000 0.000000 0.000000
# 4 0.000000 0.000000 0.000000 0.034248 0.000000 0.000000
# 5 0.000000 0.000000 0.000000 0.000000 0.026799 0.000000
# 6 0.000000 0.000000 0.000000 0.000000 0.000000 0.032030
#
#
# Mechanical properties :
#
#
# Convention : Reuss Voigt Hill
#
# Bulk Modulus (GPa) = 78.56461 85.11640 81.84051
# Shear Modulus (GPa) = 27.99960 31.14424 29.57192
#
# Velocity S-wave (km/s) = 3.67321 3.87400 3.77494
# Velocity P-wave (km/s) = 7.47321 7.81195 7.64446
#
# Compressibility (1/GPa) = 0.01272838
#
# Stress axis : x y z
#
# Youngs Moduli (GPa) = 65.02910 99.65068 46.34330
#
# Poissons Ratio (x) = 0.33818 0.54263
# Poissons Ratio (y) = 0.22069 0.09401
# Poissons Ratio (z) = 0.76142 0.20216
#
# Static dielectric constant tensor:
#      x y z
#    x 4.316480 0.000000 0.000000 
#    y 0.000000 3.849250 0.000000 
#    z 0.000000 0.000000 3.734680 
# 
# 
# High freq. dielectric constant tensor:
#      x y z
#    x 1.813580 0.000000 0.000000 
#    y 0.000000 1.819270 0.000000 
#    z 0.000000 0.000000 1.813880 
# 
# From -- ./inp_files/29218.got.cif
#   From: 2010.03.12/outbox.cif.g09.slc.cpg/sg74_15_cif.got.tgz:29218.got - 2010.04.16 15:46:19.
