data_PCOD8301597
_publ_section_title
;
Structure prediction by ZEFSAII (Michael W. Deem and Ramdas Pophale) SiO2 
 PCOD8301597
Probable space group: I M M A
;
_chemical_formula_sum "Si O2"
_cell_formula_units_Z 64
_cell_length_a 14.220293
_cell_length_b 8.938098
_cell_length_c 27.887863
_cell_angle_alpha 90.000000
_cell_angle_beta 90.000000
_cell_angle_gamma 90.000000
_cell_volume 3544.613549
_symmetry_space_group_name_H-M "I M M A"
_symmetry_group_IT_number 74
_symmetry_cell_setting 'orthorhombic'
loop_
_space_group_symop_operation_xyz
x,y,z
-x,1/2-y,z
x,-y,-z
-x,1/2+y,-z
-x,-y,-z
x,1/2+y,-z
-x,y,z
x,1/2-y,z
1/2+x,1/2+y,1/2+z
1/2-x,-y,1/2+z
1/2+x,1/2-y,1/2-z
1/2-x,y,1/2-z
1/2-x,1/2-y,1/2-z
1/2+x,y,1/2-z
1/2-x,1/2+y,1/2+z
1/2+x,-y,1/2+z
loop_
_atom_site_type_symbol
_atom_site_label
_atom_site_fract_x
_atom_site_fract_y
_atom_site_fract_z
Si Si1 0.500000 0.425696 0.302331
Si Si2 0.500000 0.080496 0.796573
Si Si3 0.357621 0.923626 0.120719
Si Si4 0.143902 0.074049 0.869917
Si Si5 0.000000 0.072709 0.448194
Si Si6 0.500000 0.576788 0.449380
O O1 0.500000 0.250000 0.309521
O O2 0.500000 0.463816 0.246373
O O3 0.594407 0.491850 0.325713
O O4 0.500000 0.250000 0.776571
O O5 0.407658 0.051374 0.828413
O O6 0.363575 0.750000 0.105318
O O7 0.251008 0.979312 0.126120
O O8 0.406649 0.020780 0.079646
O O9 0.135782 0.250000 0.859868
O O10 0.092304 0.030111 0.919388
O O11 0.000000 0.250000 0.452911
O O12 0.000000 0.000000 0.500000
O O13 0.500000 0.750000 0.460160
O O14 0.500000 0.500000 0.500000
#
# Coordination Sequence:
#
# PCOD8301597 Si02
#       6
#     8   8  16  16   8   8
#     4  11  22  34  51  77 109 141 175 215 258 312
#     4   9  18  34  55  77 103 135 171 215 268 322
#     4   9  19  37  59  80 102 134 179 224 266 315
#     4   9  19  37  57  76 102 137 177 219 263 311
#     4  11  22  36  55  79 111 145 177 217 262 312
#     4   9  18  32  51  75 103 133 165 207 256 306
#
# _framework density 18.055564
#
# number of rings (size 3 to 8) (size 9 to 14) (size 15 to 20)
#    0.000    2.500    0.000    3.750    0.000    7.000 
#    0.000    7.500    0.000    0.000    0.000    0.000 
#    0.000    0.000    0.000    0.000    0.000    0.000 
#
# Total GULP energy -396865.007480 kJ/mol
# GULP energy per Si atom -12402.031484 kJ/mol
# Density = 1.801447 g / cm^3
# Si number density = 18.055564 Si / 1000 Ang^3
#
#
#
# Elastic Constant Matrix: (Units=GPa)
#
#
# Indices 1 2 3 4 5 6 
#
# 1 182.2610 53.0445 69.6287 0.0000 0.0000 0.0000
# 2 53.0445 87.5689 57.9654 0.0000 0.0000 0.0000
# 3 69.6287 57.9654 130.2528 0.0000 0.0000 0.0000
# 4 0.0000 0.0000 0.0000 36.3781 0.0000 0.0000
# 5 0.0000 0.0000 0.0000 0.0000 13.3153 0.0000
# 6 0.0000 0.0000 0.0000 0.0000 0.0000 20.8743
#
#
#
# Elastic Compliance Matrix: (Units=1/GPa)
#
#
# Indices 1 2 3 4 5 6 
#
# 1 0.007291 -0.002603 -0.002739 0.000000 0.000000 0.000000
# 2 -0.002603 0.017118 -0.006226 0.000000 0.000000 0.000000
# 3 -0.002739 -0.006226 0.011912 0.000000 0.000000 0.000000
# 4 0.000000 0.000000 0.000000 0.027489 0.000000 0.000000
# 5 0.000000 0.000000 0.000000 0.000000 0.075101 0.000000
# 6 0.000000 0.000000 0.000000 0.000000 0.000000 0.047906
#
#
# Mechanical properties :
#
#
# Convention : Reuss Voigt Hill
#
# Bulk Modulus (GPa) = 75.84878 84.59555 80.22216
# Shear Modulus (GPa) = 23.32651 28.74315 26.03483
#
# Velocity S-wave (km/s) = 3.59824 3.99423 3.80139
# Velocity P-wave (km/s) = 7.70473 8.25993 7.98715
#
# Compressibility (1/GPa) = 0.01318413
#
# Stress axis : x y z
#
# Youngs Moduli (GPa) = 137.16323 58.41834 83.94748
#
# Poissons Ratio (x) = 0.15208 0.22991
# Poissons Ratio (y) = 0.35708 0.52267
# Poissons Ratio (z) = 0.37566 0.36372
#
# Static dielectric constant tensor:
#      x y z
#    x 3.287530 0.000000 0.000000 
#    y 0.000000 3.221190 0.000000 
#    z 0.000000 0.000000 3.268790 
# 
# 
# High freq. dielectric constant tensor:
#      x y z
#    x 1.706040 0.000000 0.000000 
#    y 0.000000 1.690690 0.000000 
#    z 0.000000 0.000000 1.699220 
# 
# From -- ./inp_files/56508.got.cif
#   From: 2010.03.12/outbox.cif.g09.slc.cpg/sg74_29_cif.got.tgz:56508.got - 2010.04.16 15:46:19.
