data_PCOD8301149
_publ_section_title
;
Structure prediction by ZEFSAII (Michael W. Deem and Ramdas Pophale) SiO2 
 PCOD8301149
Probable space group: I M M A
;
_chemical_formula_sum "Si O2"
_cell_formula_units_Z 88
_cell_length_a 28.261735
_cell_length_b 27.481995
_cell_length_c 5.160072
_cell_angle_alpha 90.000000
_cell_angle_beta 90.000000
_cell_angle_gamma 90.000000
_cell_volume 4007.770439
_symmetry_space_group_name_H-M "I M M A"
_symmetry_group_IT_number 74
_symmetry_cell_setting 'orthorhombic'
loop_
_space_group_symop_operation_xyz
x,y,z
-x,1/2-y,z
x,-y,-z
-x,1/2+y,-z
-x,-y,-z
x,1/2+y,-z
-x,y,z
x,1/2-y,z
1/2+x,1/2+y,1/2+z
1/2-x,-y,1/2+z
1/2+x,1/2-y,1/2-z
1/2-x,y,1/2-z
1/2-x,1/2-y,1/2-z
1/2+x,y,1/2-z
1/2-x,1/2+y,1/2+z
1/2+x,-y,1/2+z
loop_
_atom_site_type_symbol
_atom_site_label
_atom_site_fract_x
_atom_site_fract_y
_atom_site_fract_z
Si Si1 0.700186 0.806269 0.101196
Si Si2 0.250000 0.870381 0.750000
Si Si3 0.193441 0.446950 0.018997
Si Si4 0.054240 0.194454 0.148209
Si Si5 0.399520 0.845731 0.149653
Si Si6 0.869850 0.053614 0.522258
O O1 0.690156 0.750000 0.044829
O O2 0.750000 0.813359 0.250000
O O3 0.654221 0.830598 0.233368
O O4 0.706649 0.835444 0.832403
O O5 0.233589 0.905399 0.987615
O O6 0.166143 0.439655 0.288529
O O7 0.218198 0.500000 0.000000
O O8 0.157306 0.441465 0.789962
O O9 0.060942 0.250000 0.057179
O O10 0.083542 0.187672 0.412439
O O11 0.000000 0.182256 0.211943
O O12 0.070101 0.160409 0.909775
O O13 0.406026 0.901201 0.041560
O O14 0.894793 0.000000 0.500000
#
# Coordination Sequence:
#
# PCOD8301149 Si02
#       6
#    16   8  16  16  16  16
#     4  11  25  40  59  91 134 181 223 262 312 388
#     4  12  23  38  56  84 128 172 221 276 308 374
#     4  10  22  37  58  83 123 169 223 276 320 363
#     4  11  25  45  71 102 130 161 215 279 336 392
#     4  12  23  43  71  96 130 177 216 265 334 393
#     4  10  21  40  61  92 125 165 215 269 320 388
#
# _framework density 21.957343000000002
#
# number of rings (size 3 to 8) (size 9 to 14) (size 15 to 20)
#    0.000    1.091    1.818    4.636    2.545    3.636 
#    0.000    0.000    0.000    3.273    0.000    0.000 
#    0.000    0.000    0.000    0.000    0.000    0.000 
#
# Total GULP energy -545388.370134 kJ/mol
# GULP energy per Si atom -12395.190230 kJ/mol
# Density = 2.190737 g / cm^3
# Si number density = 21.957343 Si / 1000 Ang^3
#
#
#
# Elastic Constant Matrix: (Units=GPa)
#
#
# Indices 1 2 3 4 5 6 
#
# 1 84.2988 35.4866 26.1904 0.0000 0.0000 0.0000
# 2 35.4866 144.5192 10.8042 0.0000 0.0000 0.0000
# 3 26.1904 10.8042 130.7116 0.0000 0.0000 0.0000
# 4 0.0000 0.0000 0.0000 33.1148 0.0000 0.0000
# 5 0.0000 0.0000 0.0000 0.0000 27.9958 0.0000
# 6 0.0000 0.0000 0.0000 0.0000 0.0000 18.9111
#
#
#
# Elastic Compliance Matrix: (Units=1/GPa)
#
#
# Indices 1 2 3 4 5 6 
#
# 1 0.014021 -0.003253 -0.002541 0.000000 0.000000 0.000000
# 2 -0.003253 0.007717 0.000014 0.000000 0.000000 0.000000
# 3 -0.002541 0.000014 0.008158 0.000000 0.000000 0.000000
# 4 0.000000 0.000000 0.000000 0.030198 0.000000 0.000000
# 5 0.000000 0.000000 0.000000 0.000000 0.035720 0.000000
# 6 0.000000 0.000000 0.000000 0.000000 0.000000 0.052879
#
#
# Mechanical properties :
#
#
# Convention : Reuss Voigt Hill
#
# Bulk Modulus (GPa) = 54.53277 56.05469 55.29373
# Shear Modulus (GPa) = 30.05440 35.14092 32.59766
#
# Velocity S-wave (km/s) = 3.70369 4.00486 3.85722
# Velocity P-wave (km/s) = 6.57111 6.85343 6.71376
#
# Compressibility (1/GPa) = 0.01833760
#
# Stress axis : x y z
#
# Youngs Moduli (GPa) = 71.32037 129.58030 122.57431
#
# Poissons Ratio (x) = 0.42152 0.31140
# Poissons Ratio (y) = 0.23200 -0.00170
# Poissons Ratio (z) = 0.18119 -0.00180
#
# Static dielectric constant tensor:
#      x y z
#    x 3.666160 0.000000 0.000000 
#    y 0.000000 4.647480 0.000000 
#    z 0.000000 0.000000 3.935670 
# 
# 
# High freq. dielectric constant tensor:
#      x y z
#    x 1.821040 0.000000 0.000000 
#    y 0.000000 1.889780 0.000000 
#    z 0.000000 0.000000 1.874020 
# 
# From -- ./inp_files/3943.got.cif
#   From: 2010.03.12/outbox.cif.g09.slc.cpg/sg74_2_cif.got.tgz:3943.got - 2010.04.16 15:46:19.
