data_PCOD8301200
_publ_section_title
;
Structure prediction by ZEFSAII (Michael W. Deem and Ramdas Pophale) SiO2 
 PCOD8301200
Probable space group: I M M A
;
_chemical_formula_sum "Si O2"
_cell_formula_units_Z 64
_cell_length_a 24.710005
_cell_length_b 10.407922
_cell_length_c 12.263679
_cell_angle_alpha 90.000000
_cell_angle_beta 90.000000
_cell_angle_gamma 90.000000
_cell_volume 3153.970570
_symmetry_space_group_name_H-M "I M M A"
_symmetry_group_IT_number 74
_symmetry_cell_setting 'orthorhombic'
loop_
_space_group_symop_operation_xyz
x,y,z
-x,1/2-y,z
x,-y,-z
-x,1/2+y,-z
-x,-y,-z
x,1/2+y,-z
-x,y,z
x,1/2-y,z
1/2+x,1/2+y,1/2+z
1/2-x,-y,1/2+z
1/2+x,1/2-y,1/2-z
1/2-x,y,1/2-z
1/2-x,1/2-y,1/2-z
1/2+x,y,1/2-z
1/2-x,1/2+y,1/2+z
1/2+x,-y,1/2+z
loop_
_atom_site_type_symbol
_atom_site_label
_atom_site_fract_x
_atom_site_fract_y
_atom_site_fract_z
Si Si1 0.607248 0.509078 0.372151
Si Si2 0.191853 0.899354 0.293379
Si Si3 0.000000 0.889267 0.088216
Si Si4 0.561582 0.250000 0.034731
Si Si5 0.438836 0.250000 0.290462
Si Si6 0.632856 0.000000 0.000000
O O1 0.620431 0.500000 0.500000
O O2 0.654946 0.581048 0.311917
O O3 0.554186 0.593921 0.341792
O O4 0.596989 0.367734 0.329204
O O5 0.192604 0.750000 0.329440
O O6 0.250000 0.945510 0.250000
O O7 0.171635 0.988491 0.393822
O O8 0.000000 0.750000 0.031508
O O9 0.000000 0.000000 0.000000
O O10 0.500000 0.250000 0.985137
O O11 0.556579 0.250000 0.162646
O O12 0.594245 0.124057 0.998018
O O13 0.500000 0.250000 0.339725
#
# Coordination Sequence:
#
# PCOD8301200 Si02
#       6
#    16  16   8   8   8   8
#     4  11  24  38  64  96 135 170 223 264 336 399
#     4  11  26  47  68  94 133 181 227 281 341 397
#     4  10  22  36  60  91 132 171 214 267 327 395
#     4  11  24  44  70 104 144 181 229 279 348 416
#     4  11  22  40  61  98 137 179 210 274 330 408
#     4  12  23  48  72 102 136 181 232 288 342 412
#
# _framework density 20.291882999999999
#
# number of rings (size 3 to 8) (size 9 to 14) (size 15 to 20)
#    0.000    1.000    5.000    1.125   10.500    0.000 
#    2.250    2.500    0.000    0.000    0.000    0.000 
#    0.000    0.000    0.000    0.000    0.000    0.000 
#
# Total GULP energy -396683.510241 kJ/mol
# GULP energy per Si atom -12396.359695 kJ/mol
# Density = 2.024570 g / cm^3
# Si number density = 20.291883 Si / 1000 Ang^3
#
#
#
# Elastic Constant Matrix: (Units=GPa)
#
#
# Indices 1 2 3 4 5 6 
#
# 1 170.5151 47.0971 58.0076 0.0000 0.0000 0.0000
# 2 47.0971 129.4720 12.5799 0.0000 0.0000 0.0000
# 3 58.0076 12.5799 97.1777 0.0000 0.0000 0.0000
# 4 0.0000 0.0000 0.0000 -22.4679 0.0000 0.0000
# 5 0.0000 0.0000 0.0000 0.0000 -14.0768 0.0000
# 6 0.0000 0.0000 0.0000 0.0000 0.0000 27.9051
#
#
#
# Elastic Compliance Matrix: (Units=1/GPa)
#
#
# Indices 1 2 3 4 5 6 
#
# 1 0.008089 -0.002505 -0.004504 0.000000 0.000000 0.000000
# 2 -0.002505 0.008598 0.000382 0.000000 0.000000 0.000000
# 3 -0.004504 0.000382 0.012930 0.000000 0.000000 0.000000
# 4 0.000000 0.000000 0.000000 -0.044508 0.000000 0.000000
# 5 0.000000 0.000000 0.000000 0.000000 -0.071039 0.000000
# 6 0.000000 0.000000 0.000000 0.000000 0.000000 0.035836
#
#
# Mechanical properties :
#
#
# Convention : Reuss Voigt Hill
#
# Bulk Modulus (GPa) = 61.11509 70.28156 65.69833
# Shear Modulus (GPa) = -159.29803 16.90410 -71.19697
#
# Velocity S-wave (km/s) = -8.86982 2.88939 -5.92981
# Velocity P-wave (km/s) = 8.64378 6.77067 3.79954
#
# Compressibility (1/GPa) = 0.01636257
#
# Stress axis : x y z
#
# Youngs Moduli (GPa) = 123.63028 116.31053 77.34234
#
# Poissons Ratio (x) = 0.29133 0.34835
# Poissons Ratio (y) = 0.30966 -0.02956
# Poissons Ratio (z) = 0.55684 -0.04445
#
# Static dielectric constant tensor:
#      x y z
#    x 4.251760 0.000000 0.000000 
#    y 0.000000 3.908790 0.000000 
#    z 0.000000 0.000000 3.849190 
# 
# 
# High freq. dielectric constant tensor:
#      x y z
#    x 1.797260 0.000000 0.000000 
#    y 0.000000 1.801690 0.000000 
#    z 0.000000 0.000000 1.790960 
# 
# From -- ./inp_files/36018.got.cif
#   From: 2010.03.12/outbox.cif.g09.slc.cpg/sg74_19_cif.got.tgz:36018.got - 2010.04.16 15:46:19.
