data_PCOD8301140
_publ_section_title
;
Structure prediction by ZEFSAII (Michael W. Deem and Ramdas Pophale) SiO2 
 PCOD8301140
Probable space group: I M M A
;
_chemical_formula_sum "Si O2"
_cell_formula_units_Z 56
_cell_length_a 9.929789
_cell_length_b 10.454851
_cell_length_c 26.511130
_cell_angle_alpha 90.000000
_cell_angle_beta 90.000000
_cell_angle_gamma 90.000000
_cell_volume 2752.238763
_symmetry_space_group_name_H-M "I M M A"
_symmetry_group_IT_number 74
_symmetry_cell_setting 'orthorhombic'
loop_
_space_group_symop_operation_xyz
x,y,z
-x,1/2-y,z
x,-y,-z
-x,1/2+y,-z
-x,-y,-z
x,1/2+y,-z
-x,y,z
x,1/2-y,z
1/2+x,1/2+y,1/2+z
1/2-x,-y,1/2+z
1/2+x,1/2-y,1/2-z
1/2-x,y,1/2-z
1/2-x,1/2-y,1/2-z
1/2+x,y,1/2-z
1/2-x,1/2+y,1/2+z
1/2+x,-y,1/2+z
loop_
_atom_site_type_symbol
_atom_site_label
_atom_site_fract_x
_atom_site_fract_y
_atom_site_fract_z
Si Si1 0.341425 0.750000 0.199380
Si Si2 0.500000 0.097894 0.327858
Si Si3 0.846585 0.605506 0.537134
Si Si4 0.714999 0.489815 0.146163
Si Si5 0.000000 0.609268 0.718691
O O1 0.500000 0.750000 0.214764
O O2 0.250000 0.750000 0.250000
O O3 0.308448 0.865158 0.162020
O O4 0.500000 0.250000 0.330927
O O5 0.500000 0.032677 0.271652
O O6 0.370917 0.044708 0.356600
O O7 0.775801 0.500000 0.500000
O O8 0.780193 0.750000 0.535108
O O9 0.845885 0.544565 0.592429
O O10 0.000000 0.622126 0.519878
O O11 0.636464 0.408410 0.187937
O O12 0.000000 0.750000 0.739911
#
# Coordination Sequence:
#
# PCOD8301140 Si02
#       5
#     8   8  16  16   8
#     4  12  26  42  66  96 138 180 224 272 325 397
#     4  11  24  39  62  95 129 171 212 267 328 401
#     4  10  21  39  66  94 126 164 218 281 339 393
#     4  12  24  40  64  91 132 170 220 267 332 387
#     4  11  20  37  62  89 125 163 214 265 320 385
#
# _framework density 20.347071
#
# number of rings (size 3 to 8) (size 9 to 14) (size 15 to 20)
#    0.000    0.857    2.857    5.143    4.000    2.286 
#    0.000    0.714    0.000    0.000    0.000    0.000 
#    0.000    0.000    0.000    0.000    0.000    0.000 
#
# Total GULP energy -346975.071912 kJ/mol
# GULP energy per Si atom -12391.966854 kJ/mol
# Density = 2.030076 g / cm^3
# Si number density = 20.347071 Si / 1000 Ang^3
#
#
#
# Elastic Constant Matrix: (Units=GPa)
#
#
# Indices 1 2 3 4 5 6 
#
# 1 107.8836 29.3324 -7.9699 0.0000 0.0000 0.0000
# 2 29.3324 164.7852 60.8544 0.0000 0.0000 0.0000
# 3 -7.9699 60.8544 85.5546 0.0000 0.0000 0.0000
# 4 0.0000 0.0000 0.0000 38.4163 0.0000 0.0000
# 5 0.0000 0.0000 0.0000 0.0000 9.7597 0.0000
# 6 0.0000 0.0000 0.0000 0.0000 0.0000 27.0057
#
#
#
# Elastic Compliance Matrix: (Units=1/GPa)
#
#
# Indices 1 2 3 4 5 6 
#
# 1 0.010303 -0.002968 0.003071 0.000000 0.000000 0.000000
# 2 -0.002968 0.009085 -0.006739 0.000000 0.000000 0.000000
# 3 0.003071 -0.006739 0.016768 0.000000 0.000000 0.000000
# 4 0.000000 0.000000 0.000000 0.026031 0.000000 0.000000
# 5 0.000000 0.000000 0.000000 0.000000 0.102462 0.000000
# 6 0.000000 0.000000 0.000000 0.000000 0.000000 0.037029
#
#
# Mechanical properties :
#
#
# Convention : Reuss Voigt Hill
#
# Bulk Modulus (GPa) = 43.69792 58.07300 50.88546
# Shear Modulus (GPa) = 22.46397 33.43679 27.95038
#
# Velocity S-wave (km/s) = 3.32631 4.05819 3.71034
# Velocity P-wave (km/s) = 6.02290 7.11067 6.58927
#
# Compressibility (1/GPa) = 0.02288439
#
# Stress axis : x y z
#
# Youngs Moduli (GPa) = 97.05811 110.06554 59.63778
#
# Poissons Ratio (x) = 0.32668 -0.18315
# Poissons Ratio (y) = 0.28808 0.40190
# Poissons Ratio (z) = -0.29806 0.74173
#
# Static dielectric constant tensor:
#      x y z
#    x 3.485770 0.000000 0.000000 
#    y 0.000000 4.110200 0.000000 
#    z 0.000000 0.000000 3.600420 
# 
# 
# High freq. dielectric constant tensor:
#      x y z
#    x 1.773540 0.000000 0.000000 
#    y 0.000000 1.813510 0.000000 
#    z 0.000000 0.000000 1.791900 
# 
# From -- ./inp_files/63294.got.cif
#   From: 2010.03.12/outbox.cif.g09.slc.cpg/sg74_32_cif.got.tgz:63294.got - 2010.04.16 15:46:19.
