data_PCOD8301799
_publ_section_title
;
Structure prediction by ZEFSAII (Michael W. Deem and Ramdas Pophale) SiO2 
 PCOD8301799
Probable space group: I M M A
;
_chemical_formula_sum "Si O2"
_cell_formula_units_Z 96
_cell_length_a 30.265331
_cell_length_b 7.853132
_cell_length_c 33.609043
_cell_angle_alpha 90.000000
_cell_angle_beta 90.000000
_cell_angle_gamma 90.000000
_cell_volume 7988.118002
_symmetry_space_group_name_H-M "I M M A"
_symmetry_group_IT_number 74
_symmetry_cell_setting 'orthorhombic'
loop_
_space_group_symop_operation_xyz
x,y,z
-x,1/2-y,z
x,-y,-z
-x,1/2+y,-z
-x,-y,-z
x,1/2+y,-z
-x,y,z
x,1/2-y,z
1/2+x,1/2+y,1/2+z
1/2-x,-y,1/2+z
1/2+x,1/2-y,1/2-z
1/2-x,y,1/2-z
1/2-x,1/2-y,1/2-z
1/2+x,y,1/2-z
1/2-x,1/2+y,1/2+z
1/2+x,-y,1/2+z
loop_
_atom_site_type_symbol
_atom_site_label
_atom_site_fract_x
_atom_site_fract_y
_atom_site_fract_z
Si Si1 0.869390 0.561193 0.741811
Si Si2 0.683527 0.061158 0.160298
Si Si3 0.233625 0.750000 0.313691
Si Si4 0.180333 0.750000 0.231627
Si Si5 0.049452 0.049570 0.542823
Si Si6 0.399382 0.548008 0.118829
Si Si7 0.450096 0.951654 0.197056
O O1 0.862863 0.750000 0.760374
O O2 0.843780 0.543427 0.700609
O O3 0.850180 0.418874 0.771780
O O4 0.921115 0.530797 0.732764
O O5 0.704674 0.250000 0.156305
O O6 0.721970 0.918905 0.160702
O O7 0.649430 0.030576 0.124143
O O8 0.206785 0.750000 0.272760
O O9 0.285891 0.750000 0.305263
O O10 0.046888 0.250000 0.547742
O O11 0.080584 0.975775 0.577621
O O12 0.000000 0.971460 0.546683
O O13 0.069846 0.000000 0.500000
O O14 0.394555 0.750000 0.118704
O O15 0.431900 0.488693 0.154203
O O16 0.500000 0.018462 0.201743
O O17 0.447396 0.750000 0.200461
#
# Coordination Sequence:
#
# PCOD8301799 Si02
#       7
#    16  16   8   8  16  16  16
#     4   9  16  25  35  48  66  84 104 128 153 186
#     4   9  16  25  37  52  66  80 100 126 155 188
#     4   9  16  26  38  50  66  82 100 126 150 186
#     4   9  16  26  37  48  64  86 103 120 154 187
#     4   9  17  27  37  49  65  85 108 133 161 196
#     4   9  15  25  38  49  64  84 105 131 165 200
#     4   9  15  23  36  50  63  82 108 136 164 194
#
# _framework density 12.017849999999999
#
# number of rings (size 3 to 8) (size 9 to 14) (size 15 to 20)
#    0.000    3.000    1.667    0.500    0.000    3.667 
#    0.000    3.333    0.000    3.000    0.000    0.000 
#    0.000    0.000    0.000    0.000    0.000    0.000 
#
# Total GULP energy -594932.488700 kJ/mol
# GULP energy per Si atom -12394.426848 kJ/mol
# Density = 1.199050 g / cm^3
# Si number density = 12.017850 Si / 1000 Ang^3
#
#
#
# Elastic Constant Matrix: (Units=GPa)
#
#
# Indices 1 2 3 4 5 6 
#
# 1 68.7332 38.2973 37.2886 0.0000 0.0000 0.0000
# 2 38.2973 70.1835 23.8986 0.0000 0.0000 0.0000
# 3 37.2886 23.8986 33.8743 0.0000 0.0000 0.0000
# 4 0.0000 0.0000 0.0000 9.4079 0.0000 0.0000
# 5 0.0000 0.0000 0.0000 0.0000 16.5907 0.0000
# 6 0.0000 0.0000 0.0000 0.0000 0.0000 9.1109
#
#
#
# Elastic Compliance Matrix: (Units=1/GPa)
#
#
# Indices 1 2 3 4 5 6 
#
# 1 0.040016 -0.008998 -0.037701 0.000000 0.000000 0.000000
# 2 -0.008998 0.020777 -0.004754 0.000000 0.000000 0.000000
# 3 -0.037701 -0.004754 0.074376 0.000000 0.000000 0.000000
# 4 0.000000 0.000000 0.000000 0.106294 0.000000 0.000000
# 5 0.000000 0.000000 0.000000 0.000000 0.060275 0.000000
# 6 0.000000 0.000000 0.000000 0.000000 0.000000 0.109759
#
#
# Mechanical properties :
#
#
# Convention : Reuss Voigt Hill
#
# Bulk Modulus (GPa) = 30.99482 41.30666 36.15074
# Shear Modulus (GPa) = 9.52099 11.90898 10.71499
#
# Velocity S-wave (km/s) = 2.81772 3.15134 2.98919
# Velocity P-wave (km/s) = 6.03595 6.90557 6.48536
#
# Compressibility (1/GPa) = 0.03226345
#
# Stress axis : x y z
#
# Youngs Moduli (GPa) = 24.99014 48.13045 13.44525
#
# Poissons Ratio (x) = 0.43306 0.50690
# Poissons Ratio (y) = 0.22485 0.06391
# Poissons Ratio (z) = 0.94216 0.22879
#
# Static dielectric constant tensor:
#      x y z
#    x 2.455940 0.000000 0.000000 
#    y 0.000000 2.589050 0.000000 
#    z 0.000000 0.000000 2.203280 
# 
# 
# High freq. dielectric constant tensor:
#      x y z
#    x 1.431430 0.000000 0.000000 
#    y 0.000000 1.468960 0.000000 
#    z 0.000000 0.000000 1.395240 
# 
# From -- ./inp_files/74013.got.cif
#   From: 2010.03.12/outbox.cif.g09.slc.cpg/sg74_38_cif.got.tgz:74013.got - 2010.04.16 15:46:19.
