data_PCOD8301983
_publ_section_title
;
Structure prediction by ZEFSAII (Michael W. Deem and Ramdas Pophale) SiO2 
 PCOD8301983
Probable space group: P 41
;
_chemical_formula_sum "Si O2"
_cell_formula_units_Z 20
_cell_length_a 9.734015
_cell_length_b 9.734015
_cell_length_c 8.176783
_cell_angle_alpha 90.000000
_cell_angle_beta 90.000000
_cell_angle_gamma 90.000000
_cell_volume 774.758759
_symmetry_space_group_name_H-M "P 41"
_symmetry_group_IT_number 76
_symmetry_cell_setting 'tetragonal'
loop_
_space_group_symop_operation_xyz
x,y,z
-y,x,1/4+z
-x,-y,1/2+z
y,-x,3/4+z
loop_
_atom_site_type_symbol
_atom_site_label
_atom_site_fract_x
_atom_site_fract_y
_atom_site_fract_z
Si Si1 0.152735 0.056871 0.509530
Si Si2 0.543713 0.774851 0.312054
Si Si3 0.296847 0.753713 0.071513
Si Si4 0.696813 0.048581 0.299500
Si Si5 0.265626 0.472141 0.894745
O O1 0.261281 0.179489 0.462253
O O2 0.018023 0.124245 0.588419
O O3 0.201044 0.942020 0.644026
O O4 0.446229 0.766731 0.155248
O O5 0.603199 0.626934 0.370457
O O6 0.461735 0.819321 0.474523
O O7 0.660786 0.888217 0.292789
O O8 0.249448 0.894283 0.974396
O O9 0.311583 0.625689 0.947162
O O10 0.570544 0.153746 0.278502
#
# Coordination Sequence:
#
# PCOD8301983 Si02
#       5
#     4   4   4   4   4
#     4  12  28  50  81 117 164 217 279 348 417 507
#     4  12  28  49  78 112 168 211 278 342 421 496
#     4  12  30  49  83 119 165 221 277 348 428 497
#     4  12  27  51  78 117 157 219 277 340 420 507
#     4  12  29  47  78 117 160 216 275 346 410 503
#
# _framework density 25.814488999999998
#
# number of rings (size 3 to 8) (size 9 to 14) (size 15 to 20)
#    0.000    0.000    2.000    6.000   16.800    0.000 
#    0.000    0.000    0.000    0.000    0.000    0.000 
#    0.000    0.000    0.000    0.000    0.000    0.000 
#
# Total GULP energy -247833.720994 kJ/mol
# GULP energy per Si atom -12391.686050 kJ/mol
# Density = 2.575573 g / cm^3
# Si number density = 25.814489 Si / 1000 Ang^3
#
#
#
# Elastic Constant Matrix: (Units=GPa)
#
#
# Indices 1 2 3 4 5 6 
#
# 1 115.9532 47.7652 41.3816 0.0000 0.0000 0.0036
# 2 47.7652 115.9532 41.3816 0.0000 0.0000 -0.0036
# 3 41.3816 41.3816 126.9106 0.0000 0.0000 0.0000
# 4 0.0000 0.0000 0.0000 51.1954 0.0000 0.0000
# 5 0.0000 0.0000 0.0000 0.0000 51.1954 0.0000
# 6 0.0036 -0.0036 0.0000 0.0000 0.0000 22.0769
#
#
#
# Elastic Compliance Matrix: (Units=1/GPa)
#
#
# Indices 1 2 3 4 5 6 
#
# 1 0.010989 -0.003676 -0.002385 0.000000 0.000000 -0.000002
# 2 -0.003676 0.010989 -0.002385 0.000000 0.000000 0.000002
# 3 -0.002385 -0.002385 0.009435 0.000000 0.000000 0.000000
# 4 0.000000 0.000000 0.000000 0.019533 0.000000 0.000000
# 5 0.000000 0.000000 0.000000 0.000000 0.019533 0.000000
# 6 -0.000002 0.000002 0.000000 0.000000 0.000000 0.045296
#
#
# Mechanical properties :
#
#
# Convention : Reuss Voigt Hill
#
# Bulk Modulus (GPa) = 68.85641 68.87486 68.86563
# Shear Modulus (GPa) = 36.36165 40.11277 38.23721
#
# Velocity S-wave (km/s) = 3.75717 3.94621 3.85285
# Velocity P-wave (km/s) = 6.74931 6.89218 6.82112
#
# Compressibility (1/GPa) = 0.01452298
#
# Stress axis : x y z
#
# Youngs Moduli (GPa) = 90.99631 90.99631 105.99138
#
# Poissons Ratio (x) = 0.33449 0.25276
# Poissons Ratio (y) = 0.33449 0.25276
# Poissons Ratio (z) = 0.21700 0.21700
#
# Static dielectric constant tensor:
#      x y z
#    x 4.405430 0.000000 0.000000 
#    y 0.000000 4.405430 0.000000 
#    z 0.000000 0.000000 5.268410 
# 
# 
# High freq. dielectric constant tensor:
#      x y z
#    x 2.024660 0.000000 0.000000 
#    y 0.000000 2.024660 0.000000 
#    z 0.000000 0.000000 2.067190 
# 
# From -- ./inp_files/437.got.cif
#   From: 2010.03.12/outbox.cif.g09.slc.cpg/sg76_cif.got.tgz:437.got - 2010.04.16 16:34:25.
