data_PCOD8301873
_publ_section_title
;
Structure prediction by ZEFSAII (Michael W. Deem and Ramdas Pophale) SiO2 
 PCOD8301873
Probable space group: P 41
;
_chemical_formula_sum "Si O2"
_cell_formula_units_Z 24
_cell_length_a 11.996771
_cell_length_b 11.996771
_cell_length_c 7.876279
_cell_angle_alpha 90.000000
_cell_angle_beta 90.000000
_cell_angle_gamma 90.000000
_cell_volume 1133.573878
_symmetry_space_group_name_H-M "P 41"
_symmetry_group_IT_number 76
_symmetry_cell_setting 'tetragonal'
loop_
_space_group_symop_operation_xyz
x,y,z
-y,x,1/4+z
-x,-y,1/2+z
y,-x,3/4+z
loop_
_atom_site_type_symbol
_atom_site_label
_atom_site_fract_x
_atom_site_fract_y
_atom_site_fract_z
Si Si1 0.145231 0.973682 0.875000
Si Si2 0.843141 0.403647 0.310712
Si Si3 0.632900 0.112195 0.923120
Si Si4 0.262538 0.179349 0.750419
Si Si5 0.102975 0.354757 0.291595
Si Si6 0.409256 0.147710 0.433803
O O1 0.218789 0.051921 0.750813
O O2 0.048277 0.908711 0.775951
O O3 0.231779 0.882787 0.955842
O O4 0.822949 0.532471 0.264686
O O5 0.799411 0.375183 0.501281
O O6 0.973062 0.379755 0.299344
O O7 0.783986 0.328514 0.169664
O O8 0.747055 0.151576 0.008357
O O9 0.642169 0.152666 0.729329
O O10 0.622224 0.981286 0.942166
O O11 0.342070 0.204282 0.588300
O O12 0.162870 0.456530 0.193110
#
# Coordination Sequence:
#
# PCOD8301873 Si02
#       6
#     4   4   4   4   4   4
#     4  11  26  40  56  88 136 178 213 248 307 383
#     4   9  20  37  57  88 112 155 205 259 301 363
#     4  10  20  35  63  86 118 154 201 259 310 359
#     4  11  22  38  59  92 118 161 206 251 314 368
#     4   9  20  37  61  84 118 163 212 249 303 354
#     4  10  20  39  62  86 122 155 205 264 303 363
#
# _framework density 21.171975
#
# number of rings (size 3 to 8) (size 9 to 14) (size 15 to 20)
#    0.000    2.000    1.667    1.000   11.667    4.000 
#    0.000    0.000    0.000    0.000    4.333    0.000 
#    0.000    0.000    0.000    0.000    0.000    0.000 
#
# Total GULP energy -297446.947377 kJ/mol
# GULP energy per Si atom -12393.622807 kJ/mol
# Density = 2.112379 g / cm^3
# Si number density = 21.171975 Si / 1000 Ang^3
#
#
#
# Elastic Constant Matrix: (Units=GPa)
#
#
# Indices 1 2 3 4 5 6 
#
# 1 63.7619 19.1937 33.8739 0.0000 0.0000 0.8791
# 2 19.1937 63.7619 33.8739 0.0000 0.0000 -0.8791
# 3 33.8739 33.8739 151.1126 0.0000 0.0000 0.0000
# 4 0.0000 0.0000 0.0000 23.6909 0.0000 0.0000
# 5 0.0000 0.0000 0.0000 0.0000 23.6909 0.0000
# 6 0.8791 -0.8791 0.0000 0.0000 0.0000 11.5901
#
#
#
# Elastic Compliance Matrix: (Units=1/GPa)
#
#
# Indices 1 2 3 4 5 6 
#
# 1 0.018630 -0.003874 -0.003308 0.000000 0.000000 -0.001707
# 2 -0.003874 0.018630 -0.003308 0.000000 0.000000 0.001707
# 3 -0.003308 -0.003308 0.008101 0.000000 0.000000 0.000000
# 4 0.000000 0.000000 0.000000 0.042210 0.000000 0.000000
# 5 0.000000 0.000000 0.000000 0.000000 0.042210 0.000000
# 6 -0.001707 0.001707 0.000000 0.000000 0.000000 0.086539
#
#
# Mechanical properties :
#
#
# Convention : Reuss Voigt Hill
#
# Bulk Modulus (GPa) = 41.01467 50.27993 45.64730
# Shear Modulus (GPa) = 20.37256 24.57407 22.47331
#
# Velocity S-wave (km/s) = 3.10537 3.41058 3.26155
# Velocity P-wave (km/s) = 5.68084 6.26972 5.98253
#
# Compressibility (1/GPa) = 0.02438152
#
# Stress axis : x y z
#
# Youngs Moduli (GPa) = 53.67565 53.67565 123.44874
#
# Poissons Ratio (x) = 0.20796 0.40834
# Poissons Ratio (y) = 0.20796 0.40834
# Poissons Ratio (z) = 0.17755 0.17755
#
# Static dielectric constant tensor:
#      x y z
#    x 3.640120 0.000000 0.000000 
#    y 0.000000 3.640120 0.000000 
#    z 0.000000 0.000000 4.274770 
# 
# 
# High freq. dielectric constant tensor:
#      x y z
#    x 1.799100 0.000000 0.000000 
#    y 0.000000 1.799100 0.000000 
#    z 0.000000 0.000000 1.850910 
# 
# From -- ./inp_files/551.got.cif
#   From: 2010.03.12/outbox.cif.g09.slc.cpg/sg76_cif.got.tgz:551.got - 2010.04.16 16:34:25.
