data_PCOD8301767
_publ_section_title
;
Structure prediction by ZEFSAII (Michael W. Deem and Ramdas Pophale) SiO2 
 PCOD8301767
Probable space group: I M M A
;
_chemical_formula_sum "Si O2"
_cell_formula_units_Z 80
_cell_length_a 9.419357
_cell_length_b 27.264034
_cell_length_c 18.635798
_cell_angle_alpha 90.000000
_cell_angle_beta 90.000000
_cell_angle_gamma 90.000000
_cell_volume 4785.853125
_symmetry_space_group_name_H-M "I M M A"
_symmetry_group_IT_number 74
_symmetry_cell_setting 'orthorhombic'
loop_
_space_group_symop_operation_xyz
x,y,z
-x,1/2-y,z
x,-y,-z
-x,1/2+y,-z
-x,-y,-z
x,1/2+y,-z
-x,y,z
x,1/2-y,z
1/2+x,1/2+y,1/2+z
1/2-x,-y,1/2+z
1/2+x,1/2-y,1/2-z
1/2-x,y,1/2-z
1/2-x,1/2-y,1/2-z
1/2+x,y,1/2-z
1/2-x,1/2+y,1/2+z
1/2+x,-y,1/2+z
loop_
_atom_site_type_symbol
_atom_site_label
_atom_site_fract_x
_atom_site_fract_y
_atom_site_fract_z
Si Si1 0.331355 0.303875 0.391221
Si Si2 0.668969 0.850625 0.464751
Si Si3 0.668360 0.449754 0.468485
Si Si4 0.663400 0.307627 0.682062
Si Si5 0.831992 0.596893 0.820433
O O1 0.500000 0.303764 0.392813
O O2 0.273470 0.250000 0.367220
O O3 0.275145 0.315332 0.471559
O O4 0.282078 0.347125 0.337664
O O5 0.500000 0.847849 0.462864
O O6 0.721684 0.905853 0.480302
O O7 0.729577 0.833209 0.388436
O O8 0.735446 0.500000 0.500000
O O9 0.500000 0.452432 0.471261
O O10 0.713335 0.438815 0.386149
O O11 0.500000 0.321943 0.693689
O O12 0.682881 0.250000 0.672090
O O13 0.750000 0.327512 0.750000
O O14 0.750000 0.578552 0.750000
O O15 0.000000 0.594349 0.806971
#
# Coordination Sequence:
#
# PCOD8301767 Si02
#       5
#    16  16  16  16  16
#     4   8  13  22  38  60  82 104 134 168 195 224
#     4   8  13  22  38  58  77 100 134 171 200 229
#     4   8  14  26  44  63  80 101 134 172 202 229
#     4   9  16  25  38  57  81 107 132 161 199 239
#     4   9  17  28  43  63  85 108 132 161 199 238
#
# _framework density 16.715931999999999
#
# number of rings (size 3 to 8) (size 9 to 14) (size 15 to 20)
#    0.000    3.600    0.000    3.000    0.000    2.800 
#    0.000    1.000    0.000    5.400    0.000    0.000 
#    0.000    0.000    0.000    0.000    0.000    0.000 
#
# Total GULP energy -495616.972977 kJ/mol
# GULP energy per Si atom -12390.424324 kJ/mol
# Density = 1.667789 g / cm^3
# Si number density = 16.715932 Si / 1000 Ang^3
#
#
#
# Elastic Constant Matrix: (Units=GPa)
#
#
# Indices 1 2 3 4 5 6 
#
# 1 19.4243 13.6848 30.7318 0.0000 0.0000 0.0000
# 2 13.6848 92.5556 46.3311 0.0000 0.0000 0.0000
# 3 30.7318 46.3311 137.1618 0.0000 0.0000 0.0000
# 4 0.0000 0.0000 0.0000 21.1914 0.0000 0.0000
# 5 0.0000 0.0000 0.0000 0.0000 24.9742 0.0000
# 6 0.0000 0.0000 0.0000 0.0000 0.0000 7.8029
#
#
#
# Elastic Compliance Matrix: (Units=1/GPa)
#
#
# Indices 1 2 3 4 5 6 
#
# 1 0.080666 -0.003466 -0.016903 0.000000 0.000000 0.000000
# 2 -0.003466 0.013152 -0.003666 0.000000 0.000000 0.000000
# 3 -0.016903 -0.003666 0.012316 0.000000 0.000000 0.000000
# 4 0.000000 0.000000 0.000000 0.047189 0.000000 0.000000
# 5 0.000000 0.000000 0.000000 0.000000 0.040041 0.000000
# 6 0.000000 0.000000 0.000000 0.000000 0.000000 0.128158
#
#
# Mechanical properties :
#
#
# Convention : Reuss Voigt Hill
#
# Bulk Modulus (GPa) = 17.22206 47.84855 32.53530
# Shear Modulus (GPa) = 12.85521 21.35330 17.10426
#
# Velocity S-wave (km/s) = 2.77616 3.57798 3.20227
# Velocity P-wave (km/s) = 4.53886 6.76431 5.76009
#
# Compressibility (1/GPa) = 0.05806507
#
# Stress axis : x y z
#
# Youngs Moduli (GPa) = 12.39672 76.03508 81.19388
#
# Poissons Ratio (x) = 0.26351 1.37243
# Poissons Ratio (y) = 0.04296 0.29766
# Poissons Ratio (z) = 0.20954 0.27874
#
# Static dielectric constant tensor:
#      x y z
#    x 2.536820 0.000000 0.000000 
#    y 0.000000 3.464860 0.000000 
#    z 0.000000 0.000000 3.281460 
# 
# 
# High freq. dielectric constant tensor:
#      x y z
#    x 1.575840 0.000000 0.000000 
#    y 0.000000 1.637770 0.000000 
#    z 0.000000 0.000000 1.650290 
# 
# From -- ./inp_files/27045.got.cif
#   From: 2010.03.12/outbox.cif.g09.slc.cpg/sg74_14_cif.got.tgz:27045.got - 2010.04.16 15:46:19.
