data_PCOD8301870
_publ_section_title
;
Structure prediction by ZEFSAII (Michael W. Deem and Ramdas Pophale) SiO2 
 PCOD8301870
Probable space group: P 41
;
_chemical_formula_sum "Si O2"
_cell_formula_units_Z 24
_cell_length_a 16.087009
_cell_length_b 16.087009
_cell_length_c 5.264494
_cell_angle_alpha 90.000000
_cell_angle_beta 90.000000
_cell_angle_gamma 90.000000
_cell_volume 1362.408187
_symmetry_space_group_name_H-M "P 41"
_symmetry_group_IT_number 76
_symmetry_cell_setting 'tetragonal'
loop_
_space_group_symop_operation_xyz
x,y,z
-y,x,1/4+z
-x,-y,1/2+z
y,-x,3/4+z
loop_
_atom_site_type_symbol
_atom_site_label
_atom_site_fract_x
_atom_site_fract_y
_atom_site_fract_z
Si Si1 0.605008 0.029681 0.745530
Si Si2 0.755155 0.440219 0.058400
Si Si3 0.409443 0.061613 0.744755
Si Si4 0.690218 0.645324 0.512168
Si Si5 0.488107 0.376691 0.423256
Si Si6 0.785814 0.629186 0.037043
O O1 0.507063 0.044430 0.739436
O O2 0.653139 0.117711 0.756075
O O3 0.632176 0.981132 0.491143
O O4 0.631627 0.976148 0.990786
O O5 0.840091 0.390601 0.000041
O O6 0.696142 0.438322 0.812652
O O7 0.704545 0.391984 0.284005
O O8 0.779277 0.533730 0.127722
O O9 0.661130 0.549078 0.455283
O O10 0.744985 0.678539 0.274458
O O11 0.740677 0.649463 0.773695
O O12 0.556267 0.419844 0.604935
#
# Coordination Sequence:
#
# PCOD8301870 Si02
#       6
#     4   4   4   4   4   4
#     4   9  17  32  47  66  84 110 148 184 232 281
#     4  10  20  32  46  68  91 117 156 200 240 272
#     4   9  18  29  48  66  86 109 142 194 235 274
#     4  11  21  33  47  66  90 119 155 197 239 275
#     4  11  21  33  47  63  88 128 169 208 242 274
#     4  10  21  33  49  65  89 121 154 193 232 278
#
# _framework density 17.615867999999999
#
# number of rings (size 3 to 8) (size 9 to 14) (size 15 to 20)
#    0.000    2.000    0.000    5.000    0.000   12.000 
#    0.000    0.000    0.000    0.000    0.000    0.000 
#    0.000    0.000    0.000    0.000    0.000   46.667 
#
# Total GULP energy -297457.788382 kJ/mol
# GULP energy per Si atom -12394.074516 kJ/mol
# Density = 1.757577 g / cm^3
# Si number density = 17.615868 Si / 1000 Ang^3
#
#
#
# Elastic Constant Matrix: (Units=GPa)
#
#
# Indices 1 2 3 4 5 6 
#
# 1 70.6501 18.5734 34.1176 0.0000 0.0000 -4.2349
# 2 18.5734 70.6501 34.1176 0.0000 0.0000 4.2349
# 3 34.1176 34.1176 118.1536 0.0000 0.0000 0.0000
# 4 0.0000 0.0000 0.0000 20.5232 0.0000 0.0000
# 5 0.0000 0.0000 0.0000 0.0000 20.5232 0.0000
# 6 -4.2349 4.2349 0.0000 0.0000 0.0000 6.1890
#
#
#
# Elastic Compliance Matrix: (Units=1/GPa)
#
#
# Indices 1 2 3 4 5 6 
#
# 1 0.017996 -0.003611 -0.004154 0.000000 0.000000 0.014785
# 2 -0.003611 0.017996 -0.004154 0.000000 0.000000 -0.014785
# 3 -0.004154 -0.004154 0.010862 0.000000 0.000000 0.000000
# 4 0.000000 0.000000 0.000000 0.048725 0.000000 0.000000
# 5 0.000000 0.000000 0.000000 0.000000 0.048725 0.000000
# 6 0.014785 -0.014785 0.000000 0.000000 0.000000 0.181810
#
#
# Mechanical properties :
#
#
# Convention : Reuss Voigt Hill
#
# Bulk Modulus (GPa) = 43.44676 48.11901 45.78288
# Shear Modulus (GPa) = 13.98117 20.95675 17.46896
#
# Velocity S-wave (km/s) = 2.82027 3.45287 3.15248
# Velocity P-wave (km/s) = 5.94325 6.57811 6.26872
#
# Compressibility (1/GPa) = 0.02301668
#
# Stress axis : x y z
#
# Youngs Moduli (GPa) = 55.56876 55.56876 92.06163
#
# Poissons Ratio (x) = 0.20068 0.38238
# Poissons Ratio (y) = 0.20068 0.38238
# Poissons Ratio (z) = 0.23081 0.23081
#
# Static dielectric constant tensor:
#      x y z
#    x 3.200760 0.000000 0.000000 
#    y 0.000000 3.200760 0.000000 
#    z 0.000000 0.000000 3.345740 
# 
# 
# High freq. dielectric constant tensor:
#      x y z
#    x 1.641300 0.000000 0.000000 
#    y 0.000000 1.641300 0.000000 
#    z 0.000000 0.000000 1.698470 
# 
# From -- ./inp_files/219.got.cif
#   From: 2010.03.12/outbox.cif.g09.slc.cpg/sg76_cif.got.tgz:219.got - 2010.04.16 16:34:25.
