data_PCOD8301540
_publ_section_title
;
Structure prediction by ZEFSAII (Michael W. Deem and Ramdas Pophale) SiO2 
 PCOD8301540
Probable space group: I M M A
;
_chemical_formula_sum "Si O2"
_cell_formula_units_Z 96
_cell_length_a 23.952515
_cell_length_b 8.980637
_cell_length_c 23.402286
_cell_angle_alpha 90.000000
_cell_angle_beta 90.000000
_cell_angle_gamma 90.000000
_cell_volume 5034.038652
_symmetry_space_group_name_H-M "I M M A"
_symmetry_group_IT_number 74
_symmetry_cell_setting 'orthorhombic'
loop_
_space_group_symop_operation_xyz
x,y,z
-x,1/2-y,z
x,-y,-z
-x,1/2+y,-z
-x,-y,-z
x,1/2+y,-z
-x,y,z
x,1/2-y,z
1/2+x,1/2+y,1/2+z
1/2-x,-y,1/2+z
1/2+x,1/2-y,1/2-z
1/2-x,y,1/2-z
1/2-x,1/2-y,1/2-z
1/2+x,y,1/2-z
1/2-x,1/2+y,1/2+z
1/2+x,-y,1/2+z
loop_
_atom_site_type_symbol
_atom_site_label
_atom_site_fract_x
_atom_site_fract_y
_atom_site_fract_z
Si Si1 0.669613 0.572815 0.562160
Si Si2 0.939328 0.075267 0.938753
Si Si3 0.732286 0.076341 0.658408
Si Si4 0.162817 0.077295 0.731559
Si Si5 0.566006 0.913037 0.946718
Si Si6 0.062273 0.073049 0.321630
O O1 0.678154 0.500000 0.500000
O O2 0.667088 0.750000 0.556809
O O3 0.612458 0.508199 0.591945
O O4 0.720579 0.523626 0.602724
O O5 0.925525 0.250000 0.944833
O O6 0.000000 0.053299 0.907663
O O7 0.943658 0.000000 0.000000
O O8 0.725882 0.250000 0.643177
O O9 0.794629 0.040538 0.679995
O O10 0.689414 0.030658 0.708323
O O11 0.148016 0.250000 0.731590
O O12 0.105694 0.987214 0.724465
O O13 0.500000 0.901028 0.954913
O O14 0.593260 0.750000 0.948347
O O15 0.578279 0.988792 0.885086
O O16 0.593318 0.000000 0.000000
O O17 0.063872 0.250000 0.323424
O O18 0.000000 0.018926 0.304583
#
# Coordination Sequence:
#
# PCOD8301540 Si02
#       6
#    16  16  16  16  16  16
#     4  11  21  33  53  80 108 139 173 213 262 310
#     4   9  16  27  45  69  99 136 173 208 250 302
#     4   9  19  38  58  77 103 133 171 217 262 308
#     4   9  19  36  59  80  99 131 173 217 260 305
#     4   8  14  25  41  63  93 130 167 200 239 289
#     4   9  18  32  50  75 109 141 168 209 262 310
#
# _framework density 19.070176
#
# number of rings (size 3 to 8) (size 9 to 14) (size 15 to 20)
#    0.000    2.833    0.000    5.000    0.000    3.333 
#    0.000    5.000    0.000    3.000    0.000    0.000 
#    0.000    0.000    0.000    0.000    0.000    0.000 
#
# Total GULP energy -594784.411428 kJ/mol
# GULP energy per Si atom -12391.341905 kJ/mol
# Density = 1.902677 g / cm^3
# Si number density = 19.070176 Si / 1000 Ang^3
#
#
#
# Elastic Constant Matrix: (Units=GPa)
#
#
# Indices 1 2 3 4 5 6 
#
# 1 84.8717 35.1098 35.7838 0.0000 0.0000 0.0000
# 2 35.1098 90.2001 33.4851 0.0000 0.0000 0.0000
# 3 35.7838 33.4851 61.2004 0.0000 0.0000 0.0000
# 4 0.0000 0.0000 0.0000 28.8963 0.0000 0.0000
# 5 0.0000 0.0000 0.0000 0.0000 23.9924 0.0000
# 6 0.0000 0.0000 0.0000 0.0000 0.0000 25.9884
#
#
#
# Elastic Compliance Matrix: (Units=1/GPa)
#
#
# Indices 1 2 3 4 5 6 
#
# 1 0.016504 -0.003566 -0.007698 0.000000 0.000000 0.000000
# 2 -0.003566 0.014683 -0.005948 0.000000 0.000000 0.000000
# 3 -0.007698 -0.005948 0.024096 0.000000 0.000000 0.000000
# 4 0.000000 0.000000 0.000000 0.034606 0.000000 0.000000
# 5 0.000000 0.000000 0.000000 0.000000 0.041680 0.000000
# 6 0.000000 0.000000 0.000000 0.000000 0.000000 0.038479
#
#
# Mechanical properties :
#
#
# Convention : Reuss Voigt Hill
#
# Bulk Modulus (GPa) = 47.94766 49.44773 48.69769
# Shear Modulus (GPa) = 23.64908 24.56835 24.10872
#
# Velocity S-wave (km/s) = 3.52534 3.59320 3.55943
# Velocity P-wave (km/s) = 6.46282 6.57270 6.51799
#
# Compressibility (1/GPa) = 0.02085608
#
# Stress axis : x y z
#
# Youngs Moduli (GPa) = 60.59315 68.10717 41.50122
#
# Poissons Ratio (x) = 0.24287 0.31950
# Poissons Ratio (y) = 0.21607 0.24687
# Poissons Ratio (z) = 0.46648 0.40513
#
# Static dielectric constant tensor:
#      x y z
#    x 3.696010 0.000000 0.000000 
#    y 0.000000 3.422500 0.000000 
#    z 0.000000 0.000000 3.361810 
# 
# 
# High freq. dielectric constant tensor:
#      x y z
#    x 1.729590 0.000000 0.000000 
#    y 0.000000 1.735010 0.000000 
#    z 0.000000 0.000000 1.719230 
# 
# From -- ./inp_files/61910.got.cif
#   From: 2010.03.12/outbox.cif.g09.slc.cpg/sg74_31_cif.got.tgz:61910.got - 2010.04.16 15:46:19.
