data_PCOD8301659
_publ_section_title
;
Structure prediction by ZEFSAII (Michael W. Deem and Ramdas Pophale) SiO2 
 PCOD8301659
Probable space group: I M M A
;
_chemical_formula_sum "Si O2"
_cell_formula_units_Z 80
_cell_length_a 26.143653
_cell_length_b 16.296271
_cell_length_c 8.795645
_cell_angle_alpha 90.000000
_cell_angle_beta 90.000000
_cell_angle_gamma 90.000000
_cell_volume 3747.332255
_symmetry_space_group_name_H-M "I M M A"
_symmetry_group_IT_number 74
_symmetry_cell_setting 'orthorhombic'
loop_
_space_group_symop_operation_xyz
x,y,z
-x,1/2-y,z
x,-y,-z
-x,1/2+y,-z
-x,-y,-z
x,1/2+y,-z
-x,y,z
x,1/2-y,z
1/2+x,1/2+y,1/2+z
1/2-x,-y,1/2+z
1/2+x,1/2-y,1/2-z
1/2-x,y,1/2-z
1/2-x,1/2-y,1/2-z
1/2+x,y,1/2-z
1/2-x,1/2+y,1/2+z
1/2+x,-y,1/2+z
loop_
_atom_site_type_symbol
_atom_site_label
_atom_site_fract_x
_atom_site_fract_y
_atom_site_fract_z
Si Si1 0.245505 0.590078 0.429783
Si Si2 0.444362 0.346086 0.582820
Si Si3 0.652579 0.154181 0.106116
Si Si4 0.943174 0.347287 0.580521
Si Si5 0.153091 0.090283 0.068648
O O1 0.239883 0.500000 0.500000
O O2 0.250000 0.585236 0.250000
O O3 0.197599 0.644529 0.482547
O O4 0.297764 0.632964 0.490175
O O5 0.500000 0.379642 0.525987
O O6 0.448553 0.250000 0.600118
O O7 0.432330 0.382966 0.750257
O O8 0.400340 0.365631 0.463435
O O9 0.648938 0.250000 0.153706
O O10 0.662776 0.095875 0.250850
O O11 0.599892 0.119858 0.033884
O O12 0.939219 0.250000 0.584917
O O13 0.000000 0.374564 0.525540
O O14 0.149007 0.000000 0.000000
#
# Coordination Sequence:
#
# PCOD8301659 Si02
#       5
#    16  16  16  16  16
#     4  11  23  41  62  84 117 158 197 240 297 358
#     4   9  18  35  59  84 113 152 196 243 294 347
#     4  11  23  38  61  91 119 153 200 250 295 347
#     4   8  16  33  56  82 111 143 184 235 291 347
#     4  11  23  38  56  82 117 156 196 240 295 353
#
# _framework density 21.348521000000002
#
# number of rings (size 3 to 8) (size 9 to 14) (size 15 to 20)
#    0.000    2.000    0.000    6.000    0.000    4.000 
#    0.000    2.000    0.000    3.000    0.000    0.000 
#    0.000    0.000    0.000    0.000    0.000    0.000 
#
# Total GULP energy -495787.758601 kJ/mol
# GULP energy per Si atom -12394.693965 kJ/mol
# Density = 2.129993 g / cm^3
# Si number density = 21.348521 Si / 1000 Ang^3
#
#
#
# Elastic Constant Matrix: (Units=GPa)
#
#
# Indices 1 2 3 4 5 6 
#
# 1 181.9263 12.7766 72.2937 0.0000 0.0000 0.0000
# 2 12.7766 35.3709 19.2678 0.0000 0.0000 0.0000
# 3 72.2937 19.2678 151.5159 0.0000 0.0000 0.0000
# 4 0.0000 0.0000 0.0000 27.1590 0.0000 0.0000
# 5 0.0000 0.0000 0.0000 0.0000 129.9671 0.0000
# 6 0.0000 0.0000 0.0000 0.0000 0.0000 12.6541
#
#
#
# Elastic Compliance Matrix: (Units=1/GPa)
#
#
# Indices 1 2 3 4 5 6 
#
# 1 0.006801 -0.000740 -0.003151 0.000000 0.000000 0.000000
# 2 -0.000740 0.030457 -0.003520 0.000000 0.000000 0.000000
# 3 -0.003151 -0.003520 0.008551 0.000000 0.000000 0.000000
# 4 0.000000 0.000000 0.000000 0.036820 0.000000 0.000000
# 5 0.000000 0.000000 0.000000 0.000000 0.007694 0.000000
# 6 0.000000 0.000000 0.000000 0.000000 0.000000 0.079026
#
#
# Mechanical properties :
#
#
# Convention : Reuss Voigt Hill
#
# Bulk Modulus (GPa) = 32.27203 64.16548 48.21875
# Shear Modulus (GPa) = 25.70706 51.58771 38.64739
#
# Velocity S-wave (km/s) = 3.47387 4.92108 4.25939
# Velocity P-wave (km/s) = 5.58927 7.90005 6.84290
#
# Compressibility (1/GPa) = 0.03098659
#
# Stress axis : x y z
#
# Youngs Moduli (GPa) = 147.04230 32.83355 116.94643
#
# Poissons Ratio (x) = 0.02430 0.36847
# Poissons Ratio (y) = 0.10884 0.41164
# Poissons Ratio (z) = 0.46329 0.11557
#
# Static dielectric constant tensor:
#      x y z
#    x 4.726410 0.000000 0.000000 
#    y 0.000000 3.397760 0.000000 
#    z 0.000000 0.000000 3.944730 
# 
# 
# High freq. dielectric constant tensor:
#      x y z
#    x 1.864190 0.000000 0.000000 
#    y 0.000000 1.797300 0.000000 
#    z 0.000000 0.000000 1.837830 
# 
# From -- ./inp_files/10877.got.cif
#   From: 2010.03.12/outbox.cif.g09.slc.cpg/sg74_6_cif.got.tgz:10877.got - 2010.04.16 15:46:19.
