data_PCOD8301453
_publ_section_title
;
Structure prediction by ZEFSAII (Michael W. Deem and Ramdas Pophale) SiO2 
 PCOD8301453
Probable space group: I M M A
;
_chemical_formula_sum "Si O2"
_cell_formula_units_Z 96
_cell_length_a 33.641057
_cell_length_b 7.947174
_cell_length_c 30.009765
_cell_angle_alpha 90.000000
_cell_angle_beta 90.000000
_cell_angle_gamma 90.000000
_cell_volume 8023.150691
_symmetry_space_group_name_H-M "I M M A"
_symmetry_group_IT_number 74
_symmetry_cell_setting 'orthorhombic'
loop_
_space_group_symop_operation_xyz
x,y,z
-x,1/2-y,z
x,-y,-z
-x,1/2+y,-z
-x,-y,-z
x,1/2+y,-z
-x,y,z
x,1/2-y,z
1/2+x,1/2+y,1/2+z
1/2-x,-y,1/2+z
1/2+x,1/2-y,1/2-z
1/2-x,y,1/2-z
1/2-x,1/2-y,1/2-z
1/2+x,y,1/2-z
1/2-x,1/2+y,1/2+z
1/2+x,-y,1/2+z
loop_
_atom_site_type_symbol
_atom_site_label
_atom_site_fract_x
_atom_site_fract_y
_atom_site_fract_z
Si Si1 0.813944 0.250000 0.234609
Si Si2 0.241463 0.066234 0.868037
Si Si3 0.767060 0.750000 0.679050
Si Si4 0.956271 0.448282 0.950843
Si Si5 0.339521 0.937240 0.313682
Si Si6 0.120687 0.946859 0.097193
Si Si7 0.302168 0.441490 0.449761
O O1 0.803737 0.250000 0.286780
O O2 0.774406 0.250000 0.205088
O O3 0.839609 0.418482 0.224175
O O4 0.262319 0.250000 0.862974
O O5 0.202411 0.062321 0.838106
O O6 0.270590 0.917316 0.851539
O O7 0.228498 0.045614 0.919310
O O8 0.959038 0.250000 0.947788
O O9 0.923174 0.514199 0.916011
O O10 0.000000 0.526245 0.939849
O O11 0.942459 0.500000 0.000000
O O12 0.347264 0.750000 0.293081
O O13 0.373095 0.982825 0.350326
O O14 0.125775 0.750000 0.086852
O O15 0.152673 0.041607 0.066862
O O16 0.298035 0.500000 0.500000
O O17 0.289100 0.250000 0.445430
#
# Coordination Sequence:
#
# PCOD8301453 Si02
#       7
#     8  16   8  16  16  16  16
#     4   9  16  24  38  52  67  82 106 122 151 190
#     4   9  16  27  37  48  67  86 104 128 156 184
#     4   9  16  26  36  52  66  86 104 124 150 191
#     4   9  17  28  38  48  64  83 106 136 165 200
#     4   8  15  25  36  50  67  82 100 128 156 189
#     4   9  17  27  37  50  64  82 105 130 168 204
#     4  11  19  26  36  50  65  83 109 136 164 196
#
# _framework density 11.965374000000001
#
# number of rings (size 3 to 8) (size 9 to 14) (size 15 to 20)
#    0.000    2.833    0.833    3.000    3.500    2.667 
#    0.000    3.333    0.000    0.000    0.000    0.000 
#    0.000    0.000    0.000    0.000    0.000    0.000 
#
# Total GULP energy -594863.657900 kJ/mol
# GULP energy per Si atom -12392.992873 kJ/mol
# Density = 1.193814 g / cm^3
# Si number density = 11.965374 Si / 1000 Ang^3
#
#
#
# Elastic Constant Matrix: (Units=GPa)
#
#
# Indices 1 2 3 4 5 6 
#
# 1 33.8399 23.2320 34.1438 0.0000 0.0000 0.0000
# 2 23.2320 83.3192 36.4179 0.0000 0.0000 0.0000
# 3 34.1438 36.4179 60.3395 0.0000 0.0000 0.0000
# 4 0.0000 0.0000 0.0000 15.2183 0.0000 0.0000
# 5 0.0000 0.0000 0.0000 0.0000 20.5509 0.0000
# 6 0.0000 0.0000 0.0000 0.0000 0.0000 8.4159
#
#
#
# Elastic Compliance Matrix: (Units=1/GPa)
#
#
# Indices 1 2 3 4 5 6 
#
# 1 0.069411 -0.002970 -0.037485 0.000000 0.000000 0.000000
# 2 -0.002970 0.016430 -0.008236 0.000000 0.000000 0.000000
# 3 -0.037485 -0.008236 0.042755 0.000000 0.000000 0.000000
# 4 0.000000 0.000000 0.000000 0.065710 0.000000 0.000000
# 5 0.000000 0.000000 0.000000 0.000000 0.048660 0.000000
# 6 0.000000 0.000000 0.000000 0.000000 0.000000 0.118823
#
#
# Mechanical properties :
#
#
# Convention : Reuss Voigt Hill
#
# Bulk Modulus (GPa) = 32.03563 40.56510 36.30037
# Shear Modulus (GPa) = 10.64794 14.41734 12.53264
#
# Velocity S-wave (km/s) = 2.98635 3.47496 3.23988
# Velocity P-wave (km/s) = 6.22276 7.07645 6.66329
#
# Compressibility (1/GPa) = 0.03121525
#
# Stress axis : x y z
#
# Youngs Moduli (GPa) = 14.40692 60.86478 23.38928
#
# Poissons Ratio (x) = 0.18076 0.87674
# Poissons Ratio (y) = 0.04279 0.19263
# Poissons Ratio (z) = 0.54004 0.50126
#
# Static dielectric constant tensor:
#      x y z
#    x 2.305960 0.000000 0.000000 
#    y 0.000000 2.741940 0.000000 
#    z 0.000000 0.000000 2.427920 
# 
# 
# High freq. dielectric constant tensor:
#      x y z
#    x 1.394610 0.000000 0.000000 
#    y 0.000000 1.472900 0.000000 
#    z 0.000000 0.000000 1.428250 
# 
# From -- ./inp_files/74002.got.cif
#   From: 2010.03.12/outbox.cif.g09.slc.cpg/sg74_38_cif.got.tgz:74002.got - 2010.04.16 15:46:19.
