data_PCOD8301070
_publ_section_title
;
Structure prediction by ZEFSAII (Michael W. Deem and Ramdas Pophale) SiO2 
 PCOD8301070
Probable space group: I M M A
;
_chemical_formula_sum "Si O2"
_cell_formula_units_Z 80
_cell_length_a 13.545446
_cell_length_b 13.147265
_cell_length_c 24.070321
_cell_angle_alpha 90.000000
_cell_angle_beta 90.000000
_cell_angle_gamma 90.000000
_cell_volume 4286.576790
_symmetry_space_group_name_H-M "I M M A"
_symmetry_group_IT_number 74
_symmetry_cell_setting 'orthorhombic'
loop_
_space_group_symop_operation_xyz
x,y,z
-x,1/2-y,z
x,-y,-z
-x,1/2+y,-z
-x,-y,-z
x,1/2+y,-z
-x,y,z
x,1/2-y,z
1/2+x,1/2+y,1/2+z
1/2-x,-y,1/2+z
1/2+x,1/2-y,1/2-z
1/2-x,y,1/2-z
1/2-x,1/2-y,1/2-z
1/2+x,y,1/2-z
1/2-x,1/2+y,1/2+z
1/2+x,-y,1/2+z
loop_
_atom_site_type_symbol
_atom_site_label
_atom_site_fract_x
_atom_site_fract_y
_atom_site_fract_z
Si Si1 0.212394 0.457888 0.337593
Si Si2 0.390195 0.750000 0.428632
Si Si3 0.385778 0.250000 0.994986
Si Si4 0.384663 0.531623 0.267714
Si Si5 0.618980 0.750000 0.876268
Si Si6 0.609935 0.750000 0.297791
Si Si7 0.742748 0.077850 0.951069
O O1 0.319757 0.456541 0.307036
O O2 0.131135 0.507491 0.296900
O O3 0.172687 0.345647 0.348910
O O4 0.219643 0.521373 0.393907
O O5 0.500000 0.750000 0.453087
O O6 0.388397 0.750000 0.363218
O O7 0.339442 0.647436 0.449459
O O8 0.500000 0.250000 0.988163
O O9 0.350034 0.351529 0.964639
O O10 0.354038 0.250000 0.059025
O O11 0.500000 0.521090 0.284342
O O12 0.340802 0.645703 0.276624
O O13 0.500000 0.750000 0.866121
O O14 0.500000 0.750000 0.273410
O O15 0.762339 0.000000 0.000000
#
# Coordination Sequence:
#
# PCOD8301070 Si02
#       7
#    16   8   8  16   8   8  16
#     4  11  23  39  63  87 118 160 201 247 304 353
#     4  10  21  38  62  91 125 164 195 238 303 355
#     4  10  23  38  59  88 122 159 196 246 302 352
#     4  10  22  39  61  91 123 158 199 246 298 357
#     4  11  23  42  62  84 117 158 203 250 301 357
#     4   9  17  34  59  87 121 152 189 238 296 353
#     4  11  22  39  62  91 124 154 202 249 290 358
#
# _framework density 18.662911000000001
#
# number of rings (size 3 to 8) (size 9 to 14) (size 15 to 20)
#    0.000    1.600    4.000    0.600    0.000    7.200 
#    0.000    2.500    0.000    0.000    0.000    0.000 
#    0.000    0.000    0.000    0.000    0.000    0.000 
#
# Total GULP energy -495875.200725 kJ/mol
# GULP energy per Si atom -12396.880018 kJ/mol
# Density = 1.862043 g / cm^3
# Si number density = 18.662911 Si / 1000 Ang^3
#
#
#
# Elastic Constant Matrix: (Units=GPa)
#
#
# Indices 1 2 3 4 5 6 
#
# 1 88.0061 51.7439 51.4008 0.0000 0.0000 0.0000
# 2 51.7439 146.8737 72.0416 0.0000 0.0000 0.0000
# 3 51.4008 72.0416 130.9800 0.0000 0.0000 0.0000
# 4 0.0000 0.0000 0.0000 19.8259 0.0000 0.0000
# 5 0.0000 0.0000 0.0000 0.0000 26.9488 0.0000
# 6 0.0000 0.0000 0.0000 0.0000 0.0000 20.5578
#
#
#
# Elastic Compliance Matrix: (Units=1/GPa)
#
#
# Indices 1 2 3 4 5 6 
#
# 1 0.015950 -0.003491 -0.004339 0.000000 0.000000 0.000000
# 2 -0.003491 0.010088 -0.004179 0.000000 0.000000 0.000000
# 3 -0.004339 -0.004179 0.011636 0.000000 0.000000 0.000000
# 4 0.000000 0.000000 0.000000 0.050439 0.000000 0.000000
# 5 0.000000 0.000000 0.000000 0.000000 0.037107 0.000000
# 6 0.000000 0.000000 0.000000 0.000000 0.000000 0.048643
#
#
# Mechanical properties :
#
#
# Convention : Reuss Voigt Hill
#
# Bulk Modulus (GPa) = 73.22611 79.58138 76.40374
# Shear Modulus (GPa) = 24.69954 26.17805 25.43880
#
# Velocity S-wave (km/s) = 3.64188 3.74930 3.69598
# Velocity P-wave (km/s) = 7.55021 7.84073 7.69684
#
# Compressibility (1/GPa) = 0.01365633
#
# Stress axis : x y z
#
# Youngs Moduli (GPa) = 62.69758 99.12734 85.94023
#
# Poissons Ratio (x) = 0.34602 0.37291
# Poissons Ratio (y) = 0.21886 0.35912
# Poissons Ratio (z) = 0.27206 0.41423
#
# Static dielectric constant tensor:
#      x y z
#    x 3.527490 0.000000 0.000000 
#    y 0.000000 3.557690 0.000000 
#    z 0.000000 0.000000 3.589030 
# 
# 
# High freq. dielectric constant tensor:
#      x y z
#    x 1.725980 0.000000 0.000000 
#    y 0.000000 1.731710 0.000000 
#    z 0.000000 0.000000 1.731830 
# 
# From -- ./inp_files/58586.got.cif
#   From: 2010.03.12/outbox.cif.g09.slc.cpg/sg74_30_cif.got.tgz:58586.got - 2010.04.16 15:46:19.
