data_PCOD8301964
_publ_section_title
;
Structure prediction by ZEFSAII (Michael W. Deem and Ramdas Pophale) SiO2 
 PCOD8301964
Probable space group: P 41
;
_chemical_formula_sum "Si O2"
_cell_formula_units_Z 20
_cell_length_a 9.516753
_cell_length_b 9.516753
_cell_length_c 9.321317
_cell_angle_alpha 90.000000
_cell_angle_beta 90.000000
_cell_angle_gamma 90.000000
_cell_volume 844.218516
_symmetry_space_group_name_H-M "P 41"
_symmetry_group_IT_number 76
_symmetry_cell_setting 'tetragonal'
loop_
_space_group_symop_operation_xyz
x,y,z
-y,x,1/4+z
-x,-y,1/2+z
y,-x,3/4+z
loop_
_atom_site_type_symbol
_atom_site_label
_atom_site_fract_x
_atom_site_fract_y
_atom_site_fract_z
Si Si1 0.895260 0.090512 0.018460
Si Si2 0.760732 0.834561 0.866165
Si Si3 0.016734 0.624968 0.867097
Si Si4 0.411495 0.604422 0.229394
Si Si5 0.859183 0.409751 0.059033
O O1 0.835726 0.247543 0.015046
O O2 0.919030 0.043178 0.182483
O O3 0.787285 0.986800 0.937432
O O4 0.689941 0.857623 0.711755
O O5 0.658514 0.749057 0.973799
O O6 0.900122 0.744089 0.843203
O O7 0.073683 0.575329 0.714988
O O8 0.958595 0.485954 0.944284
O O9 0.415228 0.458954 0.315031
O O10 0.515974 0.708615 0.312739
#
# Coordination Sequence:
#
# PCOD8301964 Si02
#       5
#     4   4   4   4   4
#     4  12  25  44  76 113 154 191 247 314 380 448
#     4  11  25  47  76 112 152 194 254 317 382 443
#     4  11  27  47  75 112 152 201 251 312 377 454
#     4  11  28  52  74 107 149 209 253 313 379 455
#     4  11  29  46  75 110 151 203 247 308 384 448
#
# _framework density 23.690546999999999
#
# number of rings (size 3 to 8) (size 9 to 14) (size 15 to 20)
#    0.000    0.800    2.000    2.400   16.800    0.000 
#    0.000    0.000    0.000    0.000    0.000    0.000 
#    0.000    0.000    0.000    0.000    0.000    0.000 
#
# Total GULP energy -248110.531989 kJ/mol
# GULP energy per Si atom -12405.526599 kJ/mol
# Density = 2.363663 g / cm^3
# Si number density = 23.690547 Si / 1000 Ang^3
#
#
#
# Elastic Constant Matrix: (Units=GPa)
#
#
# Indices 1 2 3 4 5 6 
#
# 1 133.5664 45.3840 48.5631 0.0000 0.0000 3.0727
# 2 45.3840 133.5664 48.5631 0.0000 0.0000 -3.0727
# 3 48.5631 48.5631 112.5583 0.0000 0.0000 0.0000
# 4 0.0000 0.0000 0.0000 37.0641 0.0000 0.0000
# 5 0.0000 0.0000 0.0000 0.0000 37.0641 0.0000
# 6 3.0727 -3.0727 0.0000 0.0000 0.0000 14.8842
#
#
#
# Elastic Compliance Matrix: (Units=1/GPa)
#
#
# Indices 1 2 3 4 5 6 
#
# 1 0.009401 -0.002104 -0.003148 0.000000 0.000000 -0.002375
# 2 -0.002104 0.009401 -0.003148 0.000000 0.000000 0.002375
# 3 -0.003148 -0.003148 0.011601 0.000000 0.000000 0.000000
# 4 0.000000 0.000000 0.000000 0.026980 0.000000 0.000000
# 5 0.000000 0.000000 0.000000 0.000000 0.026980 0.000000
# 6 -0.002375 0.002375 0.000000 0.000000 0.000000 0.068166
#
#
# Mechanical properties :
#
#
# Convention : Reuss Voigt Hill
#
# Bulk Modulus (GPa) = 73.52016 73.85683 73.68849
# Shear Modulus (GPa) = 28.75789 33.61456 31.18623
#
# Velocity S-wave (km/s) = 3.48788 3.77092 3.63216
# Velocity P-wave (km/s) = 6.87905 7.08541 6.98300
#
# Compressibility (1/GPa) = 0.01360171
#
# Stress axis : x y z
#
# Youngs Moduli (GPa) = 106.36877 106.36877 86.20041
#
# Poissons Ratio (x) = 0.22384 0.27138
# Poissons Ratio (y) = 0.22384 0.27138
# Poissons Ratio (z) = 0.33487 0.33487
#
# Static dielectric constant tensor:
#      x y z
#    x 4.305790 0.000000 0.000000 
#    y 0.000000 4.305790 0.000000 
#    z 0.000000 0.000000 4.378740 
# 
# 
# High freq. dielectric constant tensor:
#      x y z
#    x 1.939970 0.000000 0.000000 
#    y 0.000000 1.939970 0.000000 
#    z 0.000000 0.000000 1.951910 
# 
# From -- ./inp_files/435.got.cif
#   From: 2010.03.12/outbox.cif.g09.slc.cpg/sg76_cif.got.tgz:435.got - 2010.04.16 16:34:25.
