data_PCOD8301776
_publ_section_title
;
Structure prediction by ZEFSAII (Michael W. Deem and Ramdas Pophale) SiO2 
 PCOD8301776
Probable space group: I M M A
;
_chemical_formula_sum "Si O2"
_cell_formula_units_Z 64
_cell_length_a 23.111137
_cell_length_b 10.044792
_cell_length_c 12.811320
_cell_angle_alpha 90.000000
_cell_angle_beta 90.000000
_cell_angle_gamma 90.000000
_cell_volume 2974.103919
_symmetry_space_group_name_H-M "I M M A"
_symmetry_group_IT_number 74
_symmetry_cell_setting 'orthorhombic'
loop_
_space_group_symop_operation_xyz
x,y,z
-x,1/2-y,z
x,-y,-z
-x,1/2+y,-z
-x,-y,-z
x,1/2+y,-z
-x,y,z
x,1/2-y,z
1/2+x,1/2+y,1/2+z
1/2-x,-y,1/2+z
1/2+x,1/2-y,1/2-z
1/2-x,y,1/2-z
1/2-x,1/2-y,1/2-z
1/2+x,y,1/2-z
1/2-x,1/2+y,1/2+z
1/2+x,-y,1/2+z
loop_
_atom_site_type_symbol
_atom_site_label
_atom_site_fract_x
_atom_site_fract_y
_atom_site_fract_z
Si Si1 0.065864 0.393133 0.575217
Si Si2 0.564856 0.096444 0.683512
Si Si3 0.162246 0.402704 0.185008
Si Si4 0.286634 0.096936 0.092970
O O1 0.097765 0.500000 0.500000
O O2 0.097222 0.250000 0.560181
O O3 0.066575 0.436528 0.694464
O O4 0.000000 0.378040 0.537263
O O5 0.500000 0.066872 0.640472
O O6 0.581381 0.250000 0.660774
O O7 0.612382 0.997049 0.634677
O O8 0.142180 0.250000 0.173342
O O9 0.219983 0.430154 0.120586
O O10 0.173625 0.436451 0.306809
O O11 0.294653 0.250000 0.059119
O O12 0.305582 0.000000 0.000000
#
# Coordination Sequence:
#
# PCOD8301776 Si02
#       4
#    16  16  16  16
#     4   8  14  24  36  52  79 116 156 195 233 276
#     4   9  18  31  46  68 100 135 170 209 251 297
#     4   9  19  35  53  76 106 136 169 211 258 309
#     4   9  19  36  56  78 104 133 168 214 264 309
#
# _framework density 21.519085
#
# number of rings (size 3 to 8) (size 9 to 14) (size 15 to 20)
#    0.000    3.250    0.000    3.000    0.000    4.500 
#    0.000   10.000    0.000    0.750    0.000    0.000 
#    0.000    0.000    0.000    0.000    0.000    0.000 
#
# Total GULP energy -396580.049014 kJ/mol
# GULP energy per Si atom -12393.126532 kJ/mol
# Density = 2.147011 g / cm^3
# Si number density = 21.519085 Si / 1000 Ang^3
#
#
#
# Elastic Constant Matrix: (Units=GPa)
#
#
# Indices 1 2 3 4 5 6 
#
# 1 123.8427 62.9356 -4.8044 0.0000 0.0000 0.0000
# 2 62.9356 104.5617 7.6536 0.0000 0.0000 0.0000
# 3 -4.8044 7.6536 24.6653 0.0000 0.0000 0.0000
# 4 0.0000 0.0000 0.0000 23.8839 0.0000 0.0000
# 5 0.0000 0.0000 0.0000 0.0000 8.2067 0.0000
# 6 0.0000 0.0000 0.0000 0.0000 0.0000 18.2289
#
#
#
# Elastic Compliance Matrix: (Units=1/GPa)
#
#
# Indices 1 2 3 4 5 6 
#
# 1 0.012153 -0.007662 0.004745 0.000000 0.000000 0.000000
# 2 -0.007662 0.014617 -0.006028 0.000000 0.000000 0.000000
# 3 0.004745 -0.006028 0.043337 0.000000 0.000000 0.000000
# 4 0.000000 0.000000 0.000000 0.041869 0.000000 0.000000
# 5 0.000000 0.000000 0.000000 0.000000 0.121851 0.000000
# 6 0.000000 0.000000 0.000000 0.000000 0.000000 0.054858
#
#
# Mechanical properties :
#
#
# Convention : Reuss Voigt Hill
#
# Bulk Modulus (GPa) = 19.15118 42.73770 30.94444
# Shear Modulus (GPa) = 15.43303 22.54958 18.99130
#
# Velocity S-wave (km/s) = 2.68092 3.24062 2.97397
# Velocity P-wave (km/s) = 4.30141 5.82286 5.11897
#
# Compressibility (1/GPa) = 0.05221610
#
# Stress axis : x y z
#
# Youngs Moduli (GPa) = 82.28758 68.41528 23.07476
#
# Poissons Ratio (x) = 0.52419 -0.10948
# Poissons Ratio (y) = 0.63048 0.13909
# Poissons Ratio (z) = -0.39042 0.41240
#
# Static dielectric constant tensor:
#      x y z
#    x 3.860910 0.000000 0.000000 
#    y 0.000000 3.922860 0.000000 
#    z 0.000000 0.000000 3.404070 
# 
# 
# High freq. dielectric constant tensor:
#      x y z
#    x 1.851340 0.000000 0.000000 
#    y 0.000000 1.844340 0.000000 
#    z 0.000000 0.000000 1.805000 
# 
# From -- ./inp_files/18628.got.cif
#   From: 2010.03.12/outbox.cif.g09.slc.cpg/sg74_10_cif.got.tgz:18628.got - 2010.04.16 15:46:19.
