data_PCOD8301800
_publ_section_title
;
Structure prediction by ZEFSAII (Michael W. Deem and Ramdas Pophale) SiO2 
 PCOD8301800
Probable space group: I M M A
;
_chemical_formula_sum "Si O2"
_cell_formula_units_Z 96
_cell_length_a 22.421315
_cell_length_b 14.013537
_cell_length_c 20.209258
_cell_angle_alpha 90.000000
_cell_angle_beta 90.000000
_cell_angle_gamma 90.000000
_cell_volume 6349.787814
_symmetry_space_group_name_H-M "I M M A"
_symmetry_group_IT_number 74
_symmetry_cell_setting 'orthorhombic'
loop_
_space_group_symop_operation_xyz
x,y,z
-x,1/2-y,z
x,-y,-z
-x,1/2+y,-z
-x,-y,-z
x,1/2+y,-z
-x,y,z
x,1/2-y,z
1/2+x,1/2+y,1/2+z
1/2-x,-y,1/2+z
1/2+x,1/2-y,1/2-z
1/2-x,y,1/2-z
1/2-x,1/2-y,1/2-z
1/2+x,y,1/2-z
1/2-x,1/2+y,1/2+z
1/2+x,-y,1/2+z
loop_
_atom_site_type_symbol
_atom_site_label
_atom_site_fract_x
_atom_site_fract_y
_atom_site_fract_z
Si Si1 0.787461 0.449019 0.599972
Si Si2 0.348534 0.950603 0.360494
Si Si3 0.221028 0.358788 0.462683
Si Si4 0.566274 0.394984 0.528294
Si Si5 0.351476 0.351126 0.416931
Si Si6 0.181272 0.641705 0.269643
O O1 0.718180 0.431852 0.615220
O O2 0.803806 0.561307 0.588781
O O3 0.802264 0.385760 0.535520
O O4 0.827841 0.411064 0.660194
O O5 0.394465 0.890305 0.405081
O O6 0.356706 0.915821 0.285155
O O7 0.363294 0.063862 0.365023
O O8 0.200891 0.250000 0.444585
O O9 0.292351 0.370499 0.460249
O O10 0.563860 0.500000 0.500000
O O11 0.500000 0.355747 0.543986
O O12 0.596024 0.334743 0.469885
O O13 0.345597 0.250000 0.377625
O O14 0.157619 0.750000 0.274521
O O15 0.250000 0.640607 0.250000
#
# Coordination Sequence:
#
# PCOD8301800 Si02
#       6
#    16  16  16  16  16  16
#     4   9  15  25  38  54  74  96 124 156 184 221
#     4   9  16  27  37  52  73  96 126 160 190 223
#     4   9  15  23  38  55  73  97 122 150 186 223
#     4   9  16  26  39  54  74 100 131 168 200 220
#     4   9  16  25  37  51  70  97 127 156 191 226
#     4   9  17  26  38  53  69  92 122 155 188 223
#
# _framework density 15.118615999999999
#
# number of rings (size 3 to 8) (size 9 to 14) (size 15 to 20)
#    0.000    3.000    1.667    0.500    0.000    1.667 
#    0.000    0.833    0.000    5.000    0.000    0.000 
#    0.000    0.000    0.000    3.000    0.000    4.333 
#
# Total GULP energy -594695.718002 kJ/mol
# GULP energy per Si atom -12389.494125 kJ/mol
# Density = 1.508421 g / cm^3
# Si number density = 15.118616 Si / 1000 Ang^3
#
#
#
# Elastic Constant Matrix: (Units=GPa)
#
#
# Indices 1 2 3 4 5 6 
#
# 1 25.6589 14.6650 25.9912 0.0000 0.0000 0.0000
# 2 14.6650 125.6496 61.0786 0.0000 0.0000 0.0000
# 3 25.9912 61.0786 110.5557 0.0000 0.0000 0.0000
# 4 0.0000 0.0000 0.0000 19.2803 0.0000 0.0000
# 5 0.0000 0.0000 0.0000 0.0000 12.8408 0.0000
# 6 0.0000 0.0000 0.0000 0.0000 0.0000 5.6441
#
#
#
# Elastic Compliance Matrix: (Units=1/GPa)
#
#
# Indices 1 2 3 4 5 6 
#
# 1 0.051158 -0.000170 -0.011933 0.000000 0.000000 0.000000
# 2 -0.000170 0.010881 -0.005972 0.000000 0.000000 0.000000
# 3 -0.011933 -0.005972 0.015150 0.000000 0.000000 0.000000
# 4 0.000000 0.000000 0.000000 0.051866 0.000000 0.000000
# 5 0.000000 0.000000 0.000000 0.000000 0.077877 0.000000
# 6 0.000000 0.000000 0.000000 0.000000 0.000000 0.177176
#
#
# Mechanical properties :
#
#
# Convention : Reuss Voigt Hill
#
# Bulk Modulus (GPa) = 24.36694 51.70378 38.03536
# Shear Modulus (GPa) = 11.52242 18.22834 14.87538
#
# Velocity S-wave (km/s) = 2.76367 3.47607 3.14014
# Velocity P-wave (km/s) = 5.13186 7.09815 6.19354
#
# Compressibility (1/GPa) = 0.04103921
#
# Stress axis : x y z
#
# Youngs Moduli (GPa) = 19.54747 91.90075 66.00783
#
# Poissons Ratio (x) = 0.01564 0.78767
# Poissons Ratio (y) = 0.00333 0.39417
# Poissons Ratio (z) = 0.23326 0.54879
#
# Static dielectric constant tensor:
#      x y z
#    x 2.587620 0.000000 0.000000 
#    y 0.000000 3.130360 0.000000 
#    z 0.000000 0.000000 2.875210 
# 
# 
# High freq. dielectric constant tensor:
#      x y z
#    x 1.511640 0.000000 0.000000 
#    y 0.000000 1.597840 0.000000 
#    z 0.000000 0.000000 1.558080 
# 
# From -- ./inp_files/52222.got.cif
#   From: 2010.03.12/outbox.cif.g09.slc.cpg/sg74_27_cif.got.tgz:52222.got - 2010.04.16 15:46:19.
