data_PCOD8301802
_publ_section_title
;
Structure prediction by ZEFSAII (Michael W. Deem and Ramdas Pophale) SiO2 
 PCOD8301802
Probable space group: I M M A
;
_chemical_formula_sum "Si O2"
_cell_formula_units_Z 80
_cell_length_a 7.779190
_cell_length_b 20.933123
_cell_length_c 39.269470
_cell_angle_alpha 90.000000
_cell_angle_beta 90.000000
_cell_angle_gamma 90.000000
_cell_volume 6394.748137
_symmetry_space_group_name_H-M "I M M A"
_symmetry_group_IT_number 74
_symmetry_cell_setting 'orthorhombic'
loop_
_space_group_symop_operation_xyz
x,y,z
-x,1/2-y,z
x,-y,-z
-x,1/2+y,-z
-x,-y,-z
x,1/2+y,-z
-x,y,z
x,1/2-y,z
1/2+x,1/2+y,1/2+z
1/2-x,-y,1/2+z
1/2+x,1/2-y,1/2-z
1/2-x,y,1/2-z
1/2-x,1/2-y,1/2-z
1/2+x,y,1/2-z
1/2-x,1/2+y,1/2+z
1/2+x,-y,1/2+z
loop_
_atom_site_type_symbol
_atom_site_label
_atom_site_fract_x
_atom_site_fract_y
_atom_site_fract_z
Si Si1 0.299767 0.178119 0.785556
Si Si2 0.500000 0.980533 0.054432
Si Si3 0.198811 0.097245 0.919571
Si Si4 0.806213 0.824484 0.012326
Si Si5 0.802819 0.321060 0.857225
Si Si6 0.000000 0.600669 0.513723
O O1 0.500000 0.177140 0.790574
O O2 0.224140 0.250000 0.783271
O O3 0.250000 0.142364 0.750000
O O4 0.219697 0.146827 0.819673
O O5 0.324803 0.963048 0.074654
O O6 0.500000 0.056581 0.047466
O O7 0.500000 0.943424 0.019154
O O8 0.273149 0.132154 0.885837
O O9 0.000000 0.073745 0.915911
O O10 0.217061 0.147445 0.950067
O O11 0.765840 0.750000 0.014776
O O12 0.672044 0.856194 0.986093
O O13 0.000000 0.837435 0.998930
O O14 0.715373 0.250000 0.858069
O O15 0.000000 0.312990 0.866447
#
# Coordination Sequence:
#
# PCOD8301802 Si02
#       6
#    16   8  16  16  16   8
#     4   9  16  24  33  45  61  82 107 134 167 211
#     4   9  18  28  38  50  68  90 118 142 168 210
#     4   9  17  27  38  52  70  90 112 142 177 213
#     4   9  16  26  40  56  72  89 110 139 177 215
#     4   9  16  25  36  49  65  84 107 139 179 219
#     4   9  17  28  38  52  69  91 114 140 172 209
#
# _framework density 12.510267000000001
#
# number of rings (size 3 to 8) (size 9 to 14) (size 15 to 20)
#    0.000    3.000    0.000    1.500    1.400    5.600 
#    0.000    5.000    0.000    0.000    0.000    0.000 
#    0.000    0.000    0.000    0.000    0.000    0.000 
#
# Total GULP energy -495648.273246 kJ/mol
# GULP energy per Si atom -12391.206831 kJ/mol
# Density = 1.248179 g / cm^3
# Si number density = 12.510267 Si / 1000 Ang^3
#
#
#
# Elastic Constant Matrix: (Units=GPa)
#
#
# Indices 1 2 3 4 5 6 
#
# 1 68.7645 31.2766 31.4608 0.0000 0.0000 0.0000
# 2 31.2766 43.9539 35.5373 0.0000 0.0000 0.0000
# 3 31.4608 35.5373 70.2672 0.0000 0.0000 0.0000
# 4 0.0000 0.0000 0.0000 10.4425 0.0000 0.0000
# 5 0.0000 0.0000 0.0000 0.0000 16.9681 0.0000
# 6 0.0000 0.0000 0.0000 0.0000 0.0000 14.6209
#
#
#
# Elastic Compliance Matrix: (Units=1/GPa)
#
#
# Indices 1 2 3 4 5 6 
#
# 1 0.021934 -0.012972 -0.003260 0.000000 0.000000 0.000000
# 2 -0.012972 0.046161 -0.017538 0.000000 0.000000 0.000000
# 3 -0.003260 -0.017538 0.024561 0.000000 0.000000 0.000000
# 4 0.000000 0.000000 0.000000 0.095763 0.000000 0.000000
# 5 0.000000 0.000000 0.000000 0.000000 0.058934 0.000000
# 6 0.000000 0.000000 0.000000 0.000000 0.000000 0.068395
#
#
# Mechanical properties :
#
#
# Convention : Reuss Voigt Hill
#
# Bulk Modulus (GPa) = 39.81490 42.17056 40.99273
# Shear Modulus (GPa) = 12.76617 14.05368 13.40993
#
# Velocity S-wave (km/s) = 3.19792 3.35531 3.27756
# Velocity P-wave (km/s) = 6.74763 6.98518 6.86743
#
# Compressibility (1/GPa) = 0.02511623
#
# Stress axis : x y z
#
# Youngs Moduli (GPa) = 45.59124 21.66318 40.71548
#
# Poissons Ratio (x) = 0.28101 0.13273
# Poissons Ratio (y) = 0.59141 0.71406
# Poissons Ratio (z) = 0.14863 0.37993
#
# Static dielectric constant tensor:
#      x y z
#    x 2.674340 0.000000 0.000000 
#    y 0.000000 2.328570 0.000000 
#    z 0.000000 0.000000 2.590570 
# 
# 
# High freq. dielectric constant tensor:
#      x y z
#    x 1.490840 0.000000 0.000000 
#    y 0.000000 1.416630 0.000000 
#    z 0.000000 0.000000 1.456690 
# 
# From -- ./inp_files/70156.got.cif
#   From: 2010.03.12/outbox.cif.g09.slc.cpg/sg74_36_cif.got.tgz:70156.got - 2010.04.16 15:46:19.
