data_PCOD8301227
_publ_section_title
;
Structure prediction by ZEFSAII (Michael W. Deem and Ramdas Pophale) SiO2 
 PCOD8301227
Probable space group: I M M A
;
_chemical_formula_sum "Si O2"
_cell_formula_units_Z 96
_cell_length_a 15.385939
_cell_length_b 14.689405
_cell_length_c 20.847145
_cell_angle_alpha 90.000000
_cell_angle_beta 90.000000
_cell_angle_gamma 90.000000
_cell_volume 4711.669272
_symmetry_space_group_name_H-M "I M M A"
_symmetry_group_IT_number 74
_symmetry_cell_setting 'orthorhombic'
loop_
_space_group_symop_operation_xyz
x,y,z
-x,1/2-y,z
x,-y,-z
-x,1/2+y,-z
-x,-y,-z
x,1/2+y,-z
-x,y,z
x,1/2-y,z
1/2+x,1/2+y,1/2+z
1/2-x,-y,1/2+z
1/2+x,1/2-y,1/2-z
1/2-x,y,1/2-z
1/2-x,1/2-y,1/2-z
1/2+x,y,1/2-z
1/2-x,1/2+y,1/2+z
1/2+x,-y,1/2+z
loop_
_atom_site_type_symbol
_atom_site_label
_atom_site_fract_x
_atom_site_fract_y
_atom_site_fract_z
Si Si1 0.594869 0.897869 0.522437
Si Si2 0.347884 0.348862 0.120093
Si Si3 0.403240 0.146836 0.258719
Si Si4 0.813706 0.961978 0.860323
Si Si5 0.903102 0.603823 0.485950
Si Si6 0.772643 0.150020 0.918229
O O1 0.500000 0.850563 0.513845
O O2 0.617231 0.905199 0.597411
O O3 0.669542 0.846185 0.483029
O O4 0.591134 0.000000 0.500000
O O5 0.302027 0.250000 0.127667
O O6 0.407535 0.366809 0.182107
O O7 0.279918 0.430211 0.116660
O O8 0.402657 0.346115 0.054618
O O9 0.500000 0.129668 0.285094
O O10 0.372039 0.250000 0.275656
O O11 0.337646 0.070461 0.288298
O O12 0.810945 0.072055 0.870280
O O13 0.883557 0.500000 0.500000
O O14 0.828659 0.638329 0.437315
O O15 0.000000 0.618855 0.455756
O O16 0.781646 0.250000 0.885171
#
# Coordination Sequence:
#
# PCOD8301227 Si02
#       6
#    16  16  16  16  16  16
#     4   9  18  33  53  77 111 150 191 239 288 337
#     4  11  21  36  59  87 117 149 186 237 294 354
#     4  10  22  38  58  87 118 150 192 240 297 359
#     4  11  20  36  56  82 116 156 194 236 287 350
#     4  11  21  37  60  87 120 158 196 239 297 356
#     4  11  22  37  56  83 118 156 200 245 289 341
#
# _framework density 20.374945
#
# number of rings (size 3 to 8) (size 9 to 14) (size 15 to 20)
#    0.000    1.500    3.333    3.000    0.000    5.000 
#    0.000    0.000    0.000    2.000    0.000    0.000 
#    0.000    0.000    0.000    0.000    0.000    0.000 
#
# Total GULP energy -594707.831692 kJ/mol
# GULP energy per Si atom -12389.746494 kJ/mol
# Density = 2.032857 g / cm^3
# Si number density = 20.374945 Si / 1000 Ang^3
#
#
#
# Elastic Constant Matrix: (Units=GPa)
#
#
# Indices 1 2 3 4 5 6 
#
# 1 105.1286 28.3615 6.5044 0.0000 0.0000 0.0000
# 2 28.3615 130.6513 29.8540 0.0000 0.0000 0.0000
# 3 6.5044 29.8540 63.0963 0.0000 0.0000 0.0000
# 4 0.0000 0.0000 0.0000 22.7998 0.0000 0.0000
# 5 0.0000 0.0000 0.0000 0.0000 43.8054 0.0000
# 6 0.0000 0.0000 0.0000 0.0000 0.0000 15.8050
#
#
#
# Elastic Compliance Matrix: (Units=1/GPa)
#
#
# Indices 1 2 3 4 5 6 
#
# 1 0.010104 -0.002192 -0.000004 0.000000 0.000000 0.000000
# 2 -0.002192 0.009057 -0.004060 0.000000 0.000000 0.000000
# 3 -0.000004 -0.004060 0.017770 0.000000 0.000000 0.000000
# 4 0.000000 0.000000 0.000000 0.043860 0.000000 0.000000
# 5 0.000000 0.000000 0.000000 0.000000 0.022828 0.000000
# 6 0.000000 0.000000 0.000000 0.000000 0.000000 0.063271
#
#
# Mechanical properties :
#
#
# Convention : Reuss Voigt Hill
#
# Bulk Modulus (GPa) = 40.95166 47.59068 44.27117
# Shear Modulus (GPa) = 26.66057 32.09245 29.37651
#
# Velocity S-wave (km/s) = 3.62124 3.97305 3.80122
# Velocity P-wave (km/s) = 6.13410 6.66746 6.40633
#
# Compressibility (1/GPa) = 0.02441903
#
# Stress axis : x y z
#
# Youngs Moduli (GPa) = 98.97189 110.40600 56.27460
#
# Poissons Ratio (x) = 0.24205 0.00024
# Poissons Ratio (y) = 0.21698 0.22845
# Poissons Ratio (z) = 0.00042 0.44820
#
# Static dielectric constant tensor:
#      x y z
#    x 3.913100 0.000000 0.000000 
#    y 0.000000 3.700920 0.000000 
#    z 0.000000 0.000000 3.622570 
# 
# 
# High freq. dielectric constant tensor:
#      x y z
#    x 1.803090 0.000000 0.000000 
#    y 0.000000 1.789670 0.000000 
#    z 0.000000 0.000000 1.760730 
# 
# From -- ./inp_files/51857.got.cif
#   From: 2010.03.12/outbox.cif.g09.slc.cpg/sg74_26_cif.got.tgz:51857.got - 2010.04.16 15:46:19.
