data_PCOD8301486
_publ_section_title
;
Structure prediction by ZEFSAII (Michael W. Deem and Ramdas Pophale) SiO2 
 PCOD8301486
Probable space group: I M M A
;
_chemical_formula_sum "Si O2"
_cell_formula_units_Z 96
_cell_length_a 27.357798
_cell_length_b 17.220727
_cell_length_c 11.632857
_cell_angle_alpha 90.000000
_cell_angle_beta 90.000000
_cell_angle_gamma 90.000000
_cell_volume 5480.485208
_symmetry_space_group_name_H-M "I M M A"
_symmetry_group_IT_number 74
_symmetry_cell_setting 'orthorhombic'
loop_
_space_group_symop_operation_xyz
x,y,z
-x,1/2-y,z
x,-y,-z
-x,1/2+y,-z
-x,-y,-z
x,1/2+y,-z
-x,y,z
x,1/2-y,z
1/2+x,1/2+y,1/2+z
1/2-x,-y,1/2+z
1/2+x,1/2-y,1/2-z
1/2-x,y,1/2-z
1/2-x,1/2-y,1/2-z
1/2+x,y,1/2-z
1/2-x,1/2+y,1/2+z
1/2+x,-y,1/2+z
loop_
_atom_site_type_symbol
_atom_site_label
_atom_site_fract_x
_atom_site_fract_y
_atom_site_fract_z
Si Si1 0.000000 0.664932 0.728654
Si Si2 0.000000 0.164042 0.543147
Si Si3 0.605463 0.342040 0.210177
Si Si4 0.176814 0.341676 0.688182
Si Si5 0.295762 0.657213 0.673752
Si Si6 0.722069 0.841226 0.420817
Si Si7 0.401584 0.410888 0.966573
O O1 0.000000 0.673779 0.592579
O O2 0.947354 0.623236 0.758032
O O3 0.000000 0.750000 0.787206
O O4 0.046449 0.115076 0.583714
O O5 0.000000 0.250000 0.600092
O O6 0.602119 0.250000 0.221479
O O7 0.652210 0.374843 0.279295
O O8 0.614193 0.361182 0.077001
O O9 0.166584 0.250000 0.670566
O O10 0.225152 0.369095 0.621147
O O11 0.181942 0.362200 0.823717
O O12 0.134404 0.394840 0.638561
O O13 0.296169 0.750000 0.675816
O O14 0.250000 0.626759 0.750000
O O15 0.290619 0.622316 0.545029
O O16 0.724058 0.750000 0.435922
O O17 0.402420 0.500000 0.000000
#
# Coordination Sequence:
#
# PCOD8301486 Si02
#       7
#     8   8  16  16  16  16  16
#     4   7  12  23  39  60  83 109 140 175 222 276
#     4   9  17  31  49  70  93 120 156 199 247 289
#     4   9  16  27  44  64  88 119 154 194 238 280
#     4   9  16  29  49  67  90 125 161 197 237 285
#     4   9  15  23  41  70  95 112 148 206 251 279
#     4   8  15  27  47  72  90 116 161 204 240 278
#     4  11  20  29  45  69 100 125 157 194 238 292
#
# _framework density 17.516697000000001
#
# number of rings (size 3 to 8) (size 9 to 14) (size 15 to 20)
#    0.000    3.000    0.000    4.750    0.000    2.667 
#    0.000    0.000   11.000    1.000    0.000    4.667 
#    0.000    5.333    0.000    0.000    0.000    0.000 
#
# Total GULP energy -594652.575261 kJ/mol
# GULP energy per Si atom -12388.595318 kJ/mol
# Density = 1.747683 g / cm^3
# Si number density = 17.516697 Si / 1000 Ang^3
#
#
#
# Elastic Constant Matrix: (Units=GPa)
#
#
# Indices 1 2 3 4 5 6 
#
# 1 162.4402 33.6290 70.2142 0.0000 0.0000 0.0000
# 2 33.6290 41.0992 11.5936 0.0000 0.0000 0.0000
# 3 70.2142 11.5936 105.9042 0.0000 0.0000 0.0000
# 4 0.0000 0.0000 0.0000 -15.2080 0.0000 0.0000
# 5 0.0000 0.0000 0.0000 0.0000 23.5546 0.0000
# 6 0.0000 0.0000 0.0000 0.0000 0.0000 4.4782
#
#
#
# Elastic Compliance Matrix: (Units=1/GPa)
#
#
# Indices 1 2 3 4 5 6 
#
# 1 0.010102 -0.006580 -0.005977 0.000000 0.000000 0.000000
# 2 -0.006580 0.029392 0.001145 0.000000 0.000000 0.000000
# 3 -0.005977 0.001145 0.013280 0.000000 0.000000 0.000000
# 4 0.000000 0.000000 0.000000 -0.065755 0.000000 0.000000
# 5 0.000000 0.000000 0.000000 0.000000 0.042454 0.000000
# 6 0.000000 0.000000 0.000000 0.000000 0.000000 0.223305
#
#
# Mechanical properties :
#
#
# Convention : Reuss Voigt Hill
#
# Bulk Modulus (GPa) = 33.38928 60.03525 46.71226
# Shear Modulus (GPa) = 17.50781 15.49874 16.50328
#
# Velocity S-wave (km/s) = 3.16491 2.97778 3.07277
# Velocity P-wave (km/s) = 5.69722 6.79489 6.27012
#
# Compressibility (1/GPa) = 0.02994973
#
# Stress axis : x y z
#
# Youngs Moduli (GPa) = 98.99122 34.02256 75.30068
#
# Poissons Ratio (x) = 0.22386 0.45009
# Poissons Ratio (y) = 0.65133 -0.08619
# Poissons Ratio (z) = 0.59169 -0.03894
#
# Static dielectric constant tensor:
#      x y z
#    x 3.880030 0.000000 0.000000 
#    y 0.000000 2.782900 0.000000 
#    z 0.000000 0.000000 3.391050 
# 
# 
# High freq. dielectric constant tensor:
#      x y z
#    x 1.690170 0.000000 0.000000 
#    y 0.000000 1.628790 0.000000 
#    z 0.000000 0.000000 1.649100 
# 
# From -- ./inp_files/25332.got.cif
#   From: 2010.03.12/outbox.cif.g09.slc.cpg/sg74_13_cif.got.tgz:25332.got - 2010.04.16 15:46:19.
