data_PCOD8301372
_publ_section_title
;
Structure prediction by ZEFSAII (Michael W. Deem and Ramdas Pophale) SiO2 
 PCOD8301372
Probable space group: I M M A
;
_chemical_formula_sum "Si O2"
_cell_formula_units_Z 56
_cell_length_a 22.716638
_cell_length_b 12.139170
_cell_length_c 7.769490
_cell_angle_alpha 90.000000
_cell_angle_beta 90.000000
_cell_angle_gamma 90.000000
_cell_volume 2142.523346
_symmetry_space_group_name_H-M "I M M A"
_symmetry_group_IT_number 74
_symmetry_cell_setting 'orthorhombic'
loop_
_space_group_symop_operation_xyz
x,y,z
-x,1/2-y,z
x,-y,-z
-x,1/2+y,-z
-x,-y,-z
x,1/2+y,-z
-x,y,z
x,1/2-y,z
1/2+x,1/2+y,1/2+z
1/2-x,-y,1/2+z
1/2+x,1/2-y,1/2-z
1/2-x,y,1/2-z
1/2-x,1/2-y,1/2-z
1/2+x,y,1/2-z
1/2-x,1/2+y,1/2+z
1/2+x,-y,1/2+z
loop_
_atom_site_type_symbol
_atom_site_label
_atom_site_fract_x
_atom_site_fract_y
_atom_site_fract_z
Si Si1 0.065662 0.381022 0.387711
Si Si2 0.861093 0.619128 0.294573
Si Si3 0.846284 0.120461 0.092700
Si Si4 0.737580 0.000000 0.000000
O O1 0.067534 0.250000 0.375253
O O2 0.083440 0.417331 0.583870
O O3 0.000000 0.423574 0.345992
O O4 0.113962 0.428755 0.251171
O O5 0.856530 0.750000 0.293665
O O6 0.868780 0.577728 0.096048
O O7 0.800300 0.575070 0.372372
O O8 0.851032 0.250000 0.103196
O O9 0.778968 0.081648 0.114293
#
# Coordination Sequence:
#
# PCOD8301372 Si02
#       4
#    16  16  16   8
#     4   9  20  41  67  93 123 163 214 267 316 371
#     4  10  23  41  63  94 129 167 210 259 319 382
#     4  10  23  41  63  94 129 167 210 259 319 382
#     4  12  24  38  66  92 130 166 214 260 314 372
#
# _framework density 26.137405999999999
#
# number of rings (size 3 to 8) (size 9 to 14) (size 15 to 20)
#    0.000    2.000    0.000    1.714    8.000    3.429 
#    0.000   11.429    0.000    0.000    0.000    0.000 
#    0.000    0.000    0.000    0.000    0.000    0.000 
#
# Total GULP energy -347310.886120 kJ/mol
# GULP energy per Si atom -12403.960219 kJ/mol
# Density = 2.607792 g / cm^3
# Si number density = 26.137406 Si / 1000 Ang^3
#
#
#
# Elastic Constant Matrix: (Units=GPa)
#
#
# Indices 1 2 3 4 5 6 
#
# 1 195.8591 30.9758 108.6985 0.0000 0.0000 0.0000
# 2 30.9758 66.4762 84.0873 0.0000 0.0000 0.0000
# 3 108.6985 84.0873 214.2237 0.0000 0.0000 0.0000
# 4 0.0000 0.0000 0.0000 62.5501 0.0000 0.0000
# 5 0.0000 0.0000 0.0000 0.0000 36.9825 0.0000
# 6 0.0000 0.0000 0.0000 0.0000 0.0000 44.4705
#
#
#
# Elastic Compliance Matrix: (Units=1/GPa)
#
#
# Indices 1 2 3 4 5 6 
#
# 1 0.007320 0.002557 -0.004717 0.000000 0.000000 0.000000
# 2 0.002557 0.030770 -0.013375 0.000000 0.000000 0.000000
# 3 -0.004717 -0.013375 0.012312 0.000000 0.000000 0.000000
# 4 0.000000 0.000000 0.000000 0.015987 0.000000 0.000000
# 5 0.000000 0.000000 0.000000 0.000000 0.027040 0.000000
# 6 0.000000 0.000000 0.000000 0.000000 0.000000 0.022487
#
#
# Mechanical properties :
#
#
# Convention : Reuss Voigt Hill
#
# Bulk Modulus (GPa) = 51.73482 102.67579 77.20530
# Shear Modulus (GPa) = 32.58800 45.65377 39.12089
#
# Velocity S-wave (km/s) = 3.53483 4.18387 3.87297
# Velocity P-wave (km/s) = 6.04123 7.91884 7.04288
#
# Compressibility (1/GPa) = 0.01932934
#
# Stress axis : x y z
#
# Youngs Moduli (GPa) = 136.62133 32.49888 81.22321
#
# Poissons Ratio (x) = -0.08309 0.38317
# Poissons Ratio (y) = -0.34929 1.08638
# Poissons Ratio (z) = 0.64451 0.43468
#
# Static dielectric constant tensor:
#      x y z
#    x 4.643230 0.000000 0.000000 
#    y 0.000000 5.708480 0.000000 
#    z 0.000000 0.000000 5.388380 
# 
# 
# High freq. dielectric constant tensor:
#      x y z
#    x 2.020410 0.000000 0.000000 
#    y 0.000000 2.137960 0.000000 
#    z 0.000000 0.000000 2.071350 
# 
# From -- ./inp_files/11638.got.cif
#   From: 2010.03.12/outbox.cif.g09.slc.cpg/sg74_6_cif.got.tgz:11638.got - 2010.04.16 15:46:19.
