data_PCOD8301956
_publ_section_title
;
Structure prediction by ZEFSAII (Michael W. Deem and Ramdas Pophale) SiO2 
 PCOD8301956
Probable space group: P 41
;
_chemical_formula_sum "Si O2"
_cell_formula_units_Z 24
_cell_length_a 7.913709
_cell_length_b 7.913709
_cell_length_c 16.544842
_cell_angle_alpha 90.000000
_cell_angle_beta 90.000000
_cell_angle_gamma 90.000000
_cell_volume 1036.150348
_symmetry_space_group_name_H-M "P 41"
_symmetry_group_IT_number 76
_symmetry_cell_setting 'tetragonal'
loop_
_space_group_symop_operation_xyz
x,y,z
-y,x,1/4+z
-x,-y,1/2+z
y,-x,3/4+z
loop_
_atom_site_type_symbol
_atom_site_label
_atom_site_fract_x
_atom_site_fract_y
_atom_site_fract_z
Si Si1 0.716983 0.188024 0.501560
Si Si2 0.731789 0.587006 0.331303
Si Si3 0.613753 0.986166 0.958995
Si Si4 0.894998 0.487255 0.048358
Si Si5 0.578772 0.252339 0.268257
Si Si6 0.221999 0.940051 0.173321
O O1 0.537615 0.152405 0.458140
O O2 0.721736 0.379615 0.532650
O O3 0.739648 0.066492 0.578525
O O4 0.873375 0.148680 0.441624
O O5 0.613434 0.721846 0.286106
O O6 0.672847 0.393751 0.320793
O O7 0.731105 0.632449 0.425206
O O8 0.916776 0.606115 0.293820
O O9 0.589981 0.112297 0.882897
O O10 0.797509 0.906759 0.952208
O O11 0.912408 0.605158 0.970943
O O12 0.064304 0.369793 0.048677
#
# Coordination Sequence:
#
# PCOD8301956 Si02
#       6
#     4   4   4   4   4   4
#     4  11  25  45  74 102 144 186 239 299 358 433
#     4  12  26  44  73 105 144 188 237 299 361 430
#     4  12  24  45  71 103 143 187 235 296 365 422
#     4  11  25  46  69 106 142 184 246 290 359 438
#     4  11  24  46  71 104 142 189 239 294 363 426
#     4  11  24  48  72 104 141 190 240 296 362 423
#
# _framework density 23.162659999999999
#
# number of rings (size 3 to 8) (size 9 to 14) (size 15 to 20)
#    0.000    0.667    5.000    4.000    2.333    5.333 
#    0.000    0.000    0.000    0.000    0.000    0.000 
#    0.000    0.000    0.000    0.000    0.000    0.000 
#
# Total GULP energy -297686.210336 kJ/mol
# GULP energy per Si atom -12403.592097 kJ/mol
# Density = 2.310994 g / cm^3
# Si number density = 23.162660 Si / 1000 Ang^3
#
#
#
# Elastic Constant Matrix: (Units=GPa)
#
#
# Indices 1 2 3 4 5 6 
#
# 1 77.4654 30.4226 -17.0463 0.0000 0.0000 -1.5774
# 2 30.4226 77.4654 -17.0463 0.0000 0.0000 1.5774
# 3 -17.0463 -17.0463 64.0224 0.0000 0.0000 0.0000
# 4 0.0000 0.0000 0.0000 34.8328 0.0000 0.0000
# 5 0.0000 0.0000 0.0000 0.0000 34.8328 0.0000
# 6 -1.5774 1.5774 0.0000 0.0000 0.0000 36.4423
#
#
#
# Elastic Compliance Matrix: (Units=1/GPa)
#
#
# Indices 1 2 3 4 5 6 
#
# 1 0.015720 -0.005599 0.002695 0.000000 0.000000 0.000923
# 2 -0.005599 0.015720 0.002695 0.000000 0.000000 -0.000923
# 3 0.002695 0.002695 0.017054 0.000000 0.000000 0.000000
# 4 0.000000 0.000000 0.000000 0.028709 0.000000 0.000000
# 5 0.000000 0.000000 0.000000 0.000000 0.028709 0.000000
# 6 0.000923 -0.000923 0.000000 0.000000 0.000000 0.027521
#
#
# Mechanical properties :
#
#
# Convention : Reuss Voigt Hill
#
# Bulk Modulus (GPa) = 20.80148 23.51260 22.15704
# Shear Modulus (GPa) = 33.36080 36.06311 34.71195
#
# Velocity S-wave (km/s) = 3.79922 3.95010 3.87540
# Velocity P-wave (km/s) = 5.31466 5.56575 5.44165
#
# Compressibility (1/GPa) = 0.04807350
#
# Stress axis : x y z
#
# Youngs Moduli (GPa) = 63.61429 63.61429 58.63584
#
# Poissons Ratio (x) = 0.35620 -0.15800
# Poissons Ratio (y) = 0.35620 -0.15800
# Poissons Ratio (z) = -0.17141 -0.17141
#
# Static dielectric constant tensor:
#      x y z
#    x 4.299330 0.000000 0.000000 
#    y 0.000000 4.299330 0.000000 
#    z 0.000000 0.000000 4.261540 
# 
# 
# High freq. dielectric constant tensor:
#      x y z
#    x 1.912950 0.000000 0.000000 
#    y 0.000000 1.912950 0.000000 
#    z 0.000000 0.000000 1.933640 
# 
# From -- ./inp_files/1085.got.cif
#   From: 2010.03.12/outbox.cif.g09.slc.cpg/sg76_cif.got.tgz:1085.got - 2010.04.16 16:34:25.
