data_PCOD8301382
_publ_section_title
;
Structure prediction by ZEFSAII (Michael W. Deem and Ramdas Pophale) SiO2 
 PCOD8301382
Probable space group: I M M A
;
_chemical_formula_sum "Si O2"
_cell_formula_units_Z 96
_cell_length_a 16.707151
_cell_length_b 11.011415
_cell_length_c 26.043497
_cell_angle_alpha 90.000000
_cell_angle_beta 90.000000
_cell_angle_gamma 90.000000
_cell_volume 4791.205817
_symmetry_space_group_name_H-M "I M M A"
_symmetry_group_IT_number 74
_symmetry_cell_setting 'orthorhombic'
loop_
_space_group_symop_operation_xyz
x,y,z
-x,1/2-y,z
x,-y,-z
-x,1/2+y,-z
-x,-y,-z
x,1/2+y,-z
-x,y,z
x,1/2-y,z
1/2+x,1/2+y,1/2+z
1/2-x,-y,1/2+z
1/2+x,1/2-y,1/2-z
1/2-x,y,1/2-z
1/2-x,1/2-y,1/2-z
1/2+x,y,1/2-z
1/2-x,1/2+y,1/2+z
1/2+x,-y,1/2+z
loop_
_atom_site_type_symbol
_atom_site_label
_atom_site_fract_x
_atom_site_fract_y
_atom_site_fract_z
Si Si1 0.089232 0.112141 0.777578
Si Si2 0.324776 0.490140 0.365679
Si Si3 0.093872 0.250000 0.136387
Si Si4 0.907703 0.750000 0.741934
Si Si5 0.340904 0.015177 0.188328
Si Si6 0.249215 0.391020 0.538711
Si Si7 0.410718 0.387333 0.905771
O O1 0.094823 0.250000 0.793475
O O2 0.000000 0.074338 0.758969
O O3 0.105534 0.041557 0.830037
O O4 0.151636 0.088873 0.731534
O O5 0.360694 0.365428 0.388738
O O6 0.249331 0.465991 0.329202
O O7 0.300949 0.585103 0.410070
O O8 0.108323 0.250000 0.197458
O O9 0.000000 0.250000 0.121824
O O10 0.868904 0.635595 0.715617
O O11 0.000000 0.750000 0.729283
O O12 0.396266 0.981829 0.139972
O O13 0.273457 0.500000 0.500000
O O14 0.266019 0.250000 0.520170
O O15 0.154513 0.406407 0.549528
O O16 0.500000 0.409425 0.928297
O O17 0.402590 0.250000 0.883977
#
# Coordination Sequence:
#
# PCOD8301382 Si02
#       7
#    16  16   8   8  16  16  16
#     4  11  22  35  54  81 115 156 196 238 288 344
#     4  11  23  38  60  86 114 152 197 243 294 353
#     4  11  23  39  61  87 120 162 200 240 293 354
#     4  11  21  33  51  79 122 162 194 232 280 332
#     4  11  21  33  53  83 120 158 199 236 280 337
#     4  10  23  42  65  91 118 150 195 250 311 364
#     4   9  18  35  58  85 121 163 202 240 283 342
#
# _framework density 20.036708999999998
#
# number of rings (size 3 to 8) (size 9 to 14) (size 15 to 20)
#    0.000    1.500    1.667    4.000    1.167    5.000 
#    1.500    0.000    0.000    2.000    0.000    0.000 
#    0.000    0.000    0.000    0.000    0.000    0.000 
#
# Total GULP energy -595038.705820 kJ/mol
# GULP energy per Si atom -12396.639705 kJ/mol
# Density = 1.999110 g / cm^3
# Si number density = 20.036709 Si / 1000 Ang^3
#
#
#
# Elastic Constant Matrix: (Units=GPa)
#
#
# Indices 1 2 3 4 5 6 
#
# 1 84.2258 39.7286 11.9140 0.0000 0.0000 0.0000
# 2 39.7286 108.5169 22.7051 0.0000 0.0000 0.0000
# 3 11.9140 22.7051 47.0066 0.0000 0.0000 0.0000
# 4 0.0000 0.0000 0.0000 37.2503 0.0000 0.0000
# 5 0.0000 0.0000 0.0000 0.0000 41.8546 0.0000
# 6 0.0000 0.0000 0.0000 0.0000 0.0000 34.4640
#
#
#
# Elastic Compliance Matrix: (Units=1/GPa)
#
#
# Indices 1 2 3 4 5 6 
#
# 1 0.014415 -0.005020 -0.001229 0.000000 0.000000 0.000000
# 2 -0.005020 0.012000 -0.004524 0.000000 0.000000 0.000000
# 3 -0.001229 -0.004524 0.023770 0.000000 0.000000 0.000000
# 4 0.000000 0.000000 0.000000 0.026845 0.000000 0.000000
# 5 0.000000 0.000000 0.000000 0.000000 0.023892 0.000000
# 6 0.000000 0.000000 0.000000 0.000000 0.000000 0.029016
#
#
# Mechanical properties :
#
#
# Convention : Reuss Voigt Hill
#
# Bulk Modulus (GPa) = 34.91701 43.16053 39.03877
# Shear Modulus (GPa) = 31.05031 33.74054 32.39543
#
# Velocity S-wave (km/s) = 3.94086 4.10803 4.02531
# Velocity P-wave (km/s) = 6.17831 6.63993 6.41328
#
# Compressibility (1/GPa) = 0.02863934
#
# Stress axis : x y z
#
# Youngs Moduli (GPa) = 69.37392 83.33636 42.06984
#
# Poissons Ratio (x) = 0.41837 0.05169
# Poissons Ratio (y) = 0.34827 0.19031
# Poissons Ratio (z) = 0.08523 0.37698
#
# Static dielectric constant tensor:
#      x y z
#    x 3.732430 0.000000 0.000000 
#    y 0.000000 3.722050 0.000000 
#    z 0.000000 0.000000 3.330790 
# 
# 
# High freq. dielectric constant tensor:
#      x y z
#    x 1.786180 0.000000 0.000000 
#    y 0.000000 1.795250 0.000000 
#    z 0.000000 0.000000 1.749760 
# 
# From -- ./inp_files/60811.got.cif
#   From: 2010.03.12/outbox.cif.g09.slc.cpg/sg74_31_cif.got.tgz:60811.got - 2010.04.16 15:46:19.
