data_PCOD8301388
_publ_section_title
;
Structure prediction by ZEFSAII (Michael W. Deem and Ramdas Pophale) SiO2 
 PCOD8301388
Probable space group: I M M A
;
_chemical_formula_sum "Si O2"
_cell_formula_units_Z 88
_cell_length_a 15.465339
_cell_length_b 21.911060
_cell_length_c 12.200938
_cell_angle_alpha 90.000000
_cell_angle_beta 90.000000
_cell_angle_gamma 90.000000
_cell_volume 4134.433896
_symmetry_space_group_name_H-M "I M M A"
_symmetry_group_IT_number 74
_symmetry_cell_setting 'orthorhombic'
loop_
_space_group_symop_operation_xyz
x,y,z
-x,1/2-y,z
x,-y,-z
-x,1/2+y,-z
-x,-y,-z
x,1/2+y,-z
-x,y,z
x,1/2-y,z
1/2+x,1/2+y,1/2+z
1/2-x,-y,1/2+z
1/2+x,1/2-y,1/2-z
1/2-x,y,1/2-z
1/2-x,1/2-y,1/2-z
1/2+x,y,1/2-z
1/2-x,1/2+y,1/2+z
1/2+x,-y,1/2+z
loop_
_atom_site_type_symbol
_atom_site_label
_atom_site_fract_x
_atom_site_fract_y
_atom_site_fract_z
Si Si1 0.361735 0.912500 0.086718
Si Si2 0.178660 0.568672 0.040241
Si Si3 0.403426 0.043058 0.150242
Si Si4 0.000000 0.886712 0.098807
Si Si5 0.000000 0.677267 0.323597
Si Si6 0.500000 0.317881 0.372128
Si Si7 0.169303 0.628486 0.812567
O O1 0.259349 0.910565 0.117424
O O2 0.413530 0.851738 0.122049
O O3 0.405539 0.969980 0.145917
O O4 0.365631 0.923756 0.956600
O O5 0.088157 0.573081 0.107566
O O6 0.192944 0.500000 0.000000
O O7 0.183706 0.616348 0.940190
O O8 0.500000 0.066632 0.168519
O O9 0.346119 0.063312 0.253264
O O10 0.000000 0.835847 0.193458
O O11 0.000000 0.860243 0.977785
O O12 0.000000 0.750000 0.343305
O O13 0.500000 0.250000 0.416938
O O14 0.414929 0.328993 0.298145
O O15 0.250000 0.660735 0.750000
#
# Coordination Sequence:
#
# PCOD8301388 Si02
#       7
#    16  16  16   8   8   8  16
#     4  11  21  39  63  95 131 166 210 261 322 380
#     4  11  22  39  64 100 132 163 204 262 331 391
#     4  11  19  37  64  95 132 161 195 261 331 392
#     4  10  26  44  63  89 131 169 219 268 309 377
#     4  12  27  46  67  91 126 180 233 269 312 375
#     4  10  23  43  62  83 119 168 212 256 305 364
#     4  11  21  36  63  94 129 156 197 256 319 388
#
# _framework density 21.284654
#
# number of rings (size 3 to 8) (size 9 to 14) (size 15 to 20)
#    0.000    1.091    6.364    1.091    2.545    1.091 
#    0.000    7.273    0.000    0.000    0.000    0.000 
#    0.000    0.000    0.000    0.000    0.000    0.000 
#
# Total GULP energy -545466.666402 kJ/mol
# GULP energy per Si atom -12396.969691 kJ/mol
# Density = 2.123621 g / cm^3
# Si number density = 21.284654 Si / 1000 Ang^3
#
#
#
# Elastic Constant Matrix: (Units=GPa)
#
#
# Indices 1 2 3 4 5 6 
#
# 1 205.3348 47.8612 20.6065 0.0000 0.0000 0.0000
# 2 47.8612 99.1418 14.0132 0.0000 0.0000 0.0000
# 3 20.6065 14.0132 47.5473 0.0000 0.0000 0.0000
# 4 0.0000 0.0000 0.0000 20.0543 0.0000 0.0000
# 5 0.0000 0.0000 0.0000 0.0000 14.7624 0.0000
# 6 0.0000 0.0000 0.0000 0.0000 0.0000 12.2105
#
#
#
# Elastic Compliance Matrix: (Units=1/GPa)
#
#
# Indices 1 2 3 4 5 6 
#
# 1 0.005617 -0.002471 -0.001706 0.000000 0.000000 0.000000
# 2 -0.002471 0.011612 -0.002351 0.000000 0.000000 0.000000
# 3 -0.001706 -0.002351 0.022464 0.000000 0.000000 0.000000
# 4 0.000000 0.000000 0.000000 0.049865 0.000000 0.000000
# 5 0.000000 0.000000 0.000000 0.000000 0.067739 0.000000
# 6 0.000000 0.000000 0.000000 0.000000 0.000000 0.081897
#
#
# Mechanical properties :
#
#
# Convention : Reuss Voigt Hill
#
# Bulk Modulus (GPa) = 37.54271 57.44286 47.49279
# Shear Modulus (GPa) = 19.14763 27.37500 23.26131
#
# Velocity S-wave (km/s) = 3.00258 3.59017 3.30944
# Velocity P-wave (km/s) = 5.44953 6.65073 6.07987
#
# Compressibility (1/GPa) = 0.02663633
#
# Stress axis : x y z
#
# Youngs Moduli (GPa) = 178.02496 86.12081 44.51527
#
# Poissons Ratio (x) = 0.21277 0.07596
# Poissons Ratio (y) = 0.43982 0.10468
# Poissons Ratio (z) = 0.30377 0.20251
#
# Static dielectric constant tensor:
#      x y z
#    x 4.450290 0.000000 0.000000 
#    y 0.000000 3.342190 0.000000 
#    z 0.000000 0.000000 3.723330 
# 
# 
# High freq. dielectric constant tensor:
#      x y z
#    x 1.866520 0.000000 0.000000 
#    y 0.000000 1.785400 0.000000 
#    z 0.000000 0.000000 1.828140 
# 
# From -- ./inp_files/20705.got.cif
#   From: 2010.03.12/outbox.cif.g09.slc.cpg/sg74_11_cif.got.tgz:20705.got - 2010.04.16 15:46:19.
