data_PCOD8301879
_publ_section_title
;
Structure prediction by ZEFSAII (Michael W. Deem and Ramdas Pophale) SiO2 
 PCOD8301879
Probable space group: P 41
;
_chemical_formula_sum "Si O2"
_cell_formula_units_Z 24
_cell_length_a 9.562495
_cell_length_b 9.562495
_cell_length_c 12.747862
_cell_angle_alpha 90.000000
_cell_angle_beta 90.000000
_cell_angle_gamma 90.000000
_cell_volume 1165.681209
_symmetry_space_group_name_H-M "P 41"
_symmetry_group_IT_number 76
_symmetry_cell_setting 'tetragonal'
loop_
_space_group_symop_operation_xyz
x,y,z
-y,x,1/4+z
-x,-y,1/2+z
y,-x,3/4+z
loop_
_atom_site_type_symbol
_atom_site_label
_atom_site_fract_x
_atom_site_fract_y
_atom_site_fract_z
Si Si1 0.773954 0.031345 0.726370
Si Si2 0.545682 0.770476 0.039641
Si Si3 0.125480 0.738241 0.573858
Si Si4 0.125480 0.261759 0.238907
Si Si5 0.454319 0.770476 0.273124
Si Si6 0.968654 0.226045 0.836395
O O1 0.750854 0.072404 0.606731
O O2 0.655905 0.105450 0.799353
O O3 0.920674 0.079326 0.781382
O O4 0.763925 0.863886 0.725909
O O5 0.407585 0.790832 0.967600
O O6 0.500000 0.792703 0.156382
O O7 0.617739 0.617739 0.031382
O O8 0.655905 0.894549 0.013412
O O9 0.209168 0.592415 0.595165
O O10 0.072407 0.750856 0.456033
O O11 0.999999 0.753614 0.656382
O O12 0.236075 0.863886 0.586857
#
# Coordination Sequence:
#
# PCOD8301879 Si02
#       6
#     4   4   4   4   4   4
#     4  10  20  37  60  84 113 152 192 233 291 359
#     4   9  21  39  56  77 110 154 194 228 287 366
#     4  11  21  34  58  91 117 142 193 255 298 337
#     4  11  21  34  58  91 117 142 193 255 298 337
#     4   9  21  39  56  77 110 154 194 228 287 366
#     4  10  20  37  60  84 113 152 192 233 291 359
#
# _framework density 20.588819000000001
#
# number of rings (size 3 to 8) (size 9 to 14) (size 15 to 20)
#    0.000    2.000    0.000    4.000    0.000    8.000 
#    0.000    8.333    0.000    2.000    0.000    0.000 
#    0.000    0.000    0.000    0.000    0.000    0.000 
#
# Total GULP energy -297339.575074 kJ/mol
# GULP energy per Si atom -12389.148961 kJ/mol
# Density = 2.054196 g / cm^3
# Si number density = 20.588819 Si / 1000 Ang^3
#
#
#
# Elastic Constant Matrix: (Units=GPa)
#
#
# Indices 1 2 3 4 5 6 
#
# 1 153.8042 61.9255 18.5571 0.0000 0.0000 -0.0004
# 2 61.9255 153.8042 18.5571 0.0000 0.0000 0.0004
# 3 18.5571 18.5571 63.2798 0.0000 0.0000 0.0000
# 4 0.0000 0.0000 0.0000 17.3165 0.0000 0.0000
# 5 0.0000 0.0000 0.0000 0.0000 17.3165 0.0000
# 6 -0.0004 0.0004 0.0000 0.0000 0.0000 21.7974
#
#
#
# Elastic Compliance Matrix: (Units=1/GPa)
#
#
# Indices 1 2 3 4 5 6 
#
# 1 0.007883 -0.003001 -0.001432 0.000000 0.000000 0.000000
# 2 -0.003001 0.007883 -0.001432 0.000000 0.000000 0.000000
# 3 -0.001432 -0.001432 0.016642 0.000000 0.000000 0.000000
# 4 0.000000 0.000000 0.000000 0.057748 0.000000 0.000000
# 5 0.000000 0.000000 0.000000 0.000000 0.057748 0.000000
# 6 0.000000 0.000000 0.000000 0.000000 0.000000 0.045877
#
#
# Mechanical properties :
#
#
# Convention : Reuss Voigt Hill
#
# Bulk Modulus (GPa) = 48.35694 63.21864 55.78779
# Shear Modulus (GPa) = 23.54007 29.40930 26.47468
#
# Velocity S-wave (km/s) = 3.38500 3.78353 3.58980
# Velocity P-wave (km/s) = 6.23022 7.06108 6.65862
#
# Compressibility (1/GPa) = 0.02067956
#
# Stress axis : x y z
#
# Youngs Moduli (GPa) = 126.85812 126.85812 60.08723
#
# Poissons Ratio (x) = 0.38071 0.08602
# Poissons Ratio (y) = 0.38071 0.08602
# Poissons Ratio (z) = 0.18161 0.18161
#
# Static dielectric constant tensor:
#      x y z
#    x 4.705380 0.000000 0.000000 
#    y 0.000000 4.705380 0.000000 
#    z 0.000000 0.000000 3.653690 
# 
# 
# High freq. dielectric constant tensor:
#      x y z
#    x 1.801590 0.000000 0.000000 
#    y 0.000000 1.801590 0.000000 
#    z 0.000000 0.000000 1.798190 
# 
# From -- ./inp_files/1089.got.cif
#   From: 2010.03.12/outbox.cif.g09.slc.cpg/sg76_cif.got.tgz:1089.got - 2010.04.16 16:34:25.
