data_PCOD8301242
_publ_section_title
;
Structure prediction by ZEFSAII (Michael W. Deem and Ramdas Pophale) SiO2 
 PCOD8301242
Probable space group: I M M A
;
_chemical_formula_sum "Si O2"
_cell_formula_units_Z 84
_cell_length_a 14.118498
_cell_length_b 23.257197
_cell_length_c 11.472241
_cell_angle_alpha 90.000000
_cell_angle_beta 90.000000
_cell_angle_gamma 90.000000
_cell_volume 3766.987074
_symmetry_space_group_name_H-M "I M M A"
_symmetry_group_IT_number 74
_symmetry_cell_setting 'orthorhombic'
loop_
_space_group_symop_operation_xyz
x,y,z
-x,1/2-y,z
x,-y,-z
-x,1/2+y,-z
-x,-y,-z
x,1/2+y,-z
-x,y,z
x,1/2-y,z
1/2+x,1/2+y,1/2+z
1/2-x,-y,1/2+z
1/2+x,1/2-y,1/2-z
1/2-x,y,1/2-z
1/2-x,1/2-y,1/2-z
1/2+x,y,1/2-z
1/2-x,1/2+y,1/2+z
1/2+x,-y,1/2+z
loop_
_atom_site_type_symbol
_atom_site_label
_atom_site_fract_x
_atom_site_fract_y
_atom_site_fract_z
Si Si1 0.824145 0.144335 0.467369
Si Si2 0.210496 0.250000 0.120508
Si Si3 0.642599 0.071934 0.242452
Si Si4 0.500000 0.750000 0.547915
Si Si5 0.000000 0.010846 0.635558
Si Si6 0.000000 0.139952 0.885593
Si Si7 0.000000 0.643943 0.372144
Si Si8 0.154526 0.068852 0.001744
O O1 0.749839 0.195346 0.449543
O O2 0.872724 0.126337 0.343966
O O3 0.763563 0.089756 0.514334
O O4 0.906355 0.162681 0.556860
O O5 0.250000 0.250000 0.250000
O O6 0.096190 0.250000 0.124967
O O7 0.750000 0.051826 0.250000
O O8 0.611264 0.089704 0.372921
O O9 0.591074 0.016136 0.195355
O O10 0.500000 0.693034 0.471704
O O11 0.000000 0.077399 0.657051
O O12 0.000000 0.000000 0.500000
O O13 0.000000 0.170188 0.757540
O O14 0.091292 0.098630 0.902487
O O15 0.150288 0.000000 0.000000
#
# Coordination Sequence:
#
# PCOD8301242 Si02
#       8
#    16   8  16   4   8   8   8  16
#     4  11  25  44  70 109 143 183 239 301 363 418
#     4  12  26  53  82 111 139 185 236 294 368 416
#     4  10  22  38  65 104 142 183 230 299 356 414
#     4  12  28  52  76 108 146 182 246 302 334 428
#     4  12  21  41  67 101 150 185 234 284 355 430
#     4  12  26  48  69 102 140 202 245 287 360 420
#     4  12  28  44  67 104 146 195 245 285 355 435
#     4  11  23  42  70 103 147 184 242 292 362 433
#
# _framework density 22.298988999999999
#
# number of rings (size 3 to 8) (size 9 to 14) (size 15 to 20)
#    0.000    0.762    3.810    3.714    5.333    2.667 
#    0.000    0.952    0.000    0.000    0.000    0.000 
#    0.000    0.000    0.000    0.000    0.000    0.000 
#
# Total GULP energy -520749.420220 kJ/mol
# GULP energy per Si atom -12398.795720 kJ/mol
# Density = 2.224824 g / cm^3
# Si number density = 22.298989 Si / 1000 Ang^3
#
#
#
# Elastic Constant Matrix: (Units=GPa)
#
#
# Indices 1 2 3 4 5 6 
#
# 1 148.7233 37.3661 63.4906 -0.0001 0.0000 0.0000
# 2 37.3661 97.5449 6.7950 -0.0003 0.0001 0.0001
# 3 63.4906 6.7950 130.1085 -0.0012 0.0004 0.0004
# 4 -0.0001 -0.0003 -0.0012 22.3288 0.0001 0.0001
# 5 0.0000 0.0001 0.0004 0.0001 29.7899 0.0000
# 6 0.0000 0.0001 0.0004 0.0001 0.0000 35.0488
#
#
#
# Elastic Compliance Matrix: (Units=1/GPa)
#
#
# Indices 1 2 3 4 5 6 
#
# 1 0.009451 -0.003311 -0.004439 0.000000 0.000000 0.000000
# 2 -0.003311 0.011449 0.001018 0.000000 0.000000 0.000000
# 3 -0.004439 0.001018 0.009799 0.000001 0.000000 0.000000
# 4 0.000000 0.000000 0.000001 0.044785 0.000000 0.000000
# 5 0.000000 0.000000 0.000000 0.000000 0.033568 0.000000
# 6 0.000000 0.000000 0.000000 0.000000 0.000000 0.028532
#
#
# Mechanical properties :
#
#
# Convention : Reuss Voigt Hill
#
# Bulk Modulus (GPa) = 58.02327 65.74223 61.88275
# Shear Modulus (GPa) = 31.88917 35.34851 33.61884
#
# Velocity S-wave (km/s) = 3.78573 3.98578 3.88705
# Velocity P-wave (km/s) = 6.72206 7.12237 6.92511
#
# Compressibility (1/GPa) = 0.01723446
#
# Stress axis : x y z
#
# Youngs Moduli (GPa) = 105.81154 87.34280 102.05297
#
# Poissons Ratio (x) = 0.28920 0.45300
# Poissons Ratio (y) = 0.35035 -0.10387
# Poissons Ratio (z) = 0.46968 -0.08890
#
# Static dielectric constant tensor:
#      x y z
#    x 4.154410 0.000000 0.000000 
#    y 0.000000 3.906220 0.000000 
#    z 0.000000 0.000000 4.276590 
# 
# 
# High freq. dielectric constant tensor:
#      x y z
#    x 1.885030 0.000000 0.000000 
#    y 0.000000 1.871540 0.000000 
#    z 0.000000 0.000000 1.879620 
# 
# From -- ./inp_files/20721.got.cif
#   From: 2010.03.12/outbox.cif.g09.slc.cpg/sg74_11_cif.got.tgz:20721.got - 2010.04.16 15:46:19.
