data_PCOD8301350
_publ_section_title
;
Structure prediction by ZEFSAII (Michael W. Deem and Ramdas Pophale) SiO2 
 PCOD8301350
Probable space group: I M M A
;
_chemical_formula_sum "Si O2"
_cell_formula_units_Z 56
_cell_length_a 17.217734
_cell_length_b 8.684434
_cell_length_c 17.932070
_cell_angle_alpha 90.000000
_cell_angle_beta 90.000000
_cell_angle_gamma 90.000000
_cell_volume 2681.315622
_symmetry_space_group_name_H-M "I M M A"
_symmetry_group_IT_number 74
_symmetry_cell_setting 'orthorhombic'
loop_
_space_group_symop_operation_xyz
x,y,z
-x,1/2-y,z
x,-y,-z
-x,1/2+y,-z
-x,-y,-z
x,1/2+y,-z
-x,y,z
x,1/2-y,z
1/2+x,1/2+y,1/2+z
1/2-x,-y,1/2+z
1/2+x,1/2-y,1/2-z
1/2-x,y,1/2-z
1/2-x,1/2-y,1/2-z
1/2+x,y,1/2-z
1/2-x,1/2+y,1/2+z
1/2+x,-y,1/2+z
loop_
_atom_site_type_symbol
_atom_site_label
_atom_site_fract_x
_atom_site_fract_y
_atom_site_fract_z
Si Si1 0.641750 0.929984 0.167696
Si Si2 0.000000 0.930408 0.580836
Si Si3 0.410713 0.429071 0.667218
Si Si4 0.720234 0.568561 0.580325
O O1 0.634514 0.750000 0.150387
O O2 0.631116 0.963804 0.254756
O O3 0.576252 0.018383 0.123277
O O4 0.725039 0.991974 0.142511
O O5 0.000000 0.750000 0.573296
O O6 0.000000 0.000000 0.500000
O O7 0.500000 0.482740 0.671210
O O8 0.404833 0.250000 0.646461
O O9 0.367982 0.526663 0.602949
O O10 0.741127 0.500000 0.500000
O O11 0.732724 0.750000 0.578178
#
# Coordination Sequence:
#
# PCOD8301350 Si02
#       4
#    16   8  16  16
#     4  11  22  42  67  94 128 168 211 259 318 383
#     4  12  24  38  60  92 131 170 211 260 314 376
#     4  10  22  43  69  96 127 168 212 258 318 385
#     4  12  26  43  64  94 129 170 215 267 321 376
#
# _framework density 20.885269999999998
#
# number of rings (size 3 to 8) (size 9 to 14) (size 15 to 20)
#    0.000    0.857    1.429    6.429    0.000    6.857 
#    0.000    0.000    0.000    0.000    0.000    0.000 
#    0.000    0.000    0.000    0.000    0.000    0.000 
#
# Total GULP energy -347400.898769 kJ/mol
# GULP energy per Si atom -12407.174956 kJ/mol
# Density = 2.083773 g / cm^3
# Si number density = 20.885270 Si / 1000 Ang^3
#
#
#
# Elastic Constant Matrix: (Units=GPa)
#
#
# Indices 1 2 3 4 5 6 
#
# 1 111.6672 30.1176 30.6791 0.0000 0.0000 0.0000
# 2 30.1176 116.1293 30.2827 0.0000 0.0000 0.0000
# 3 30.6791 30.2827 56.7195 0.0000 0.0000 0.0000
# 4 0.0000 0.0000 0.0000 35.5930 0.0000 0.0000
# 5 0.0000 0.0000 0.0000 0.0000 71.8024 0.0000
# 6 0.0000 0.0000 0.0000 0.0000 0.0000 36.7363
#
#
#
# Elastic Compliance Matrix: (Units=1/GPa)
#
#
# Indices 1 2 3 4 5 6 
#
# 1 0.010731 -0.001475 -0.005017 0.000000 0.000000 0.000000
# 2 -0.001475 0.010207 -0.004652 0.000000 0.000000 0.000000
# 3 -0.005017 -0.004652 0.022828 0.000000 0.000000 0.000000
# 4 0.000000 0.000000 0.000000 0.028095 0.000000 0.000000
# 5 0.000000 0.000000 0.000000 0.000000 0.013927 0.000000
# 6 0.000000 0.000000 0.000000 0.000000 0.000000 0.027221
#
#
# Mechanical properties :
#
#
# Convention : Reuss Voigt Hill
#
# Bulk Modulus (GPa) = 46.55771 51.85277 49.20524
# Shear Modulus (GPa) = 35.09860 41.72212 38.41036
#
# Velocity S-wave (km/s) = 4.10389 4.47439 4.29314
# Velocity P-wave (km/s) = 6.69301 7.18157 6.94159
#
# Compressibility (1/GPa) = 0.02147872
#
# Stress axis : x y z
#
# Youngs Moduli (GPa) = 93.18504 97.97617 43.80618
#
# Poissons Ratio (x) = 0.14450 0.21978
# Poissons Ratio (y) = 0.13743 0.20377
# Poissons Ratio (z) = 0.46752 0.45574
#
# Static dielectric constant tensor:
#      x y z
#    x 3.855350 0.000000 0.000000 
#    y 0.000000 3.857480 0.000000 
#    z 0.000000 0.000000 3.800460 
# 
# 
# High freq. dielectric constant tensor:
#      x y z
#    x 1.833450 0.000000 0.000000 
#    y 0.000000 1.822050 0.000000 
#    z 0.000000 0.000000 1.824890 
# 
# From -- ./inp_files/28515.got.cif
#   From: 2010.03.12/outbox.cif.g09.slc.cpg/sg74_15_cif.got.tgz:28515.got - 2010.04.16 15:46:19.
