data_PCOD8301797
_publ_section_title
;
Structure prediction by ZEFSAII (Michael W. Deem and Ramdas Pophale) SiO2 
 PCOD8301797
Probable space group: I M M A
;
_chemical_formula_sum "Si O2"
_cell_formula_units_Z 64
_cell_length_a 9.124035
_cell_length_b 9.397634
_cell_length_c 41.692252
_cell_angle_alpha 90.000000
_cell_angle_beta 90.000000
_cell_angle_gamma 90.000000
_cell_volume 3574.874695
_symmetry_space_group_name_H-M "I M M A"
_symmetry_group_IT_number 74
_symmetry_cell_setting 'orthorhombic'
loop_
_space_group_symop_operation_xyz
x,y,z
-x,1/2-y,z
x,-y,-z
-x,1/2+y,-z
-x,-y,-z
x,1/2+y,-z
-x,y,z
x,1/2-y,z
1/2+x,1/2+y,1/2+z
1/2-x,-y,1/2+z
1/2+x,1/2-y,1/2-z
1/2-x,y,1/2-z
1/2-x,1/2-y,1/2-z
1/2+x,y,1/2-z
1/2-x,1/2+y,1/2+z
1/2+x,-y,1/2+z
loop_
_atom_site_type_symbol
_atom_site_label
_atom_site_fract_x
_atom_site_fract_y
_atom_site_fract_z
Si Si1 0.834584 0.080534 0.094088
Si Si2 0.665807 0.419640 0.281244
Si Si3 0.165744 0.419734 0.343756
Si Si4 0.329683 0.915164 0.968916
O O1 0.832181 0.250000 0.094839
O O2 0.745886 0.020486 0.124577
O O3 0.758900 0.025627 0.061579
O O4 0.000000 0.022187 0.095544
O O5 0.500000 0.478260 0.281091
O O6 0.665164 0.250000 0.281195
O O7 0.750000 0.477964 0.250000
O O8 0.748491 0.477711 0.312694
O O9 0.165867 0.250000 0.343899
O O10 0.000000 0.478039 0.343031
O O11 0.500000 0.942913 0.962022
O O12 0.297161 0.750000 0.975029
O O13 0.274981 0.000000 0.000000
#
# Coordination Sequence:
#
# PCOD8301797 Si02
#       4
#    16  16  16  16
#     4   9  16  25  37  53  72  94 122 157 195 234
#     4   9  15  21  28  39  57  82 114 152 192 232
#     4   9  15  22  32  45  62  86 117 153 192 232
#     4   9  17  29  44  61  81 105 133 165 201 241
#
# _framework density 17.902725
#
# number of rings (size 3 to 8) (size 9 to 14) (size 15 to 20)
#    0.000    3.000    0.000    2.250    0.000    9.500 
#    0.000    0.000    0.000    0.000    0.000    0.000 
#    0.000    0.000    0.000    0.000    0.000    1.250 
#
# Total GULP energy -396759.644107 kJ/mol
# GULP energy per Si atom -12398.738878 kJ/mol
# Density = 1.786198 g / cm^3
# Si number density = 17.902725 Si / 1000 Ang^3
#
#
#
# Elastic Constant Matrix: (Units=GPa)
#
#
# Indices 1 2 3 4 5 6 
#
# 1 170.3055 12.4088 113.5940 0.0000 0.0000 0.0000
# 2 12.4088 7.9466 18.6554 0.0000 0.0000 0.0000
# 3 113.5940 18.6554 210.1672 0.0000 0.0000 0.0000
# 4 0.0000 0.0000 0.0000 12.8754 0.0000 0.0000
# 5 0.0000 0.0000 0.0000 0.0000 42.9352 0.0000
# 6 0.0000 0.0000 0.0000 0.0000 0.0000 5.4993
#
#
#
# Elastic Compliance Matrix: (Units=1/GPa)
#
#
# Indices 1 2 3 4 5 6 
#
# 1 0.009255 -0.003422 -0.004699 0.000000 0.000000 0.000000
# 2 -0.003422 0.160231 -0.012374 0.000000 0.000000 0.000000
# 3 -0.004699 -0.012374 0.008396 0.000000 0.000000 0.000000
# 4 0.000000 0.000000 0.000000 0.077668 0.000000 0.000000
# 5 0.000000 0.000000 0.000000 0.000000 0.023291 0.000000
# 6 0.000000 0.000000 0.000000 0.000000 0.000000 0.181843
#
#
# Mechanical properties :
#
#
# Convention : Reuss Voigt Hill
#
# Bulk Modulus (GPa) = 7.30489 75.30399 41.30444
# Shear Modulus (GPa) = 9.13572 28.51269 18.82421
#
# Velocity S-wave (km/s) = 2.26143 3.99513 3.24616
# Velocity P-wave (km/s) = 3.30271 7.96464 6.09686
#
# Compressibility (1/GPa) = 0.13689463
#
# Stress axis : x y z
#
# Youngs Moduli (GPa) = 108.04887 6.24099 119.10427
#
# Poissons Ratio (x) = 0.02135 0.55962
# Poissons Ratio (y) = 0.36970 1.47374
# Poissons Ratio (z) = 0.50768 0.07722
#
# Static dielectric constant tensor:
#      x y z
#    x 3.517340 0.000000 0.000000 
#    y 0.000000 2.451370 0.000000 
#    z 0.000000 0.000000 3.580260 
# 
# 
# High freq. dielectric constant tensor:
#      x y z
#    x 1.708130 0.000000 0.000000 
#    y 0.000000 1.591090 0.000000 
#    z 0.000000 0.000000 1.714220 
# 
# From -- ./inp_files/71386.got.cif
#   From: 2010.03.12/outbox.cif.g09.slc.cpg/sg74_36_cif.got.tgz:71386.got - 2010.04.16 15:46:19.
