data_PCOD8301994
_publ_section_title
;
Structure prediction by ZEFSAII (Michael W. Deem and Ramdas Pophale) SiO2 
 PCOD8301994
Probable space group: P 42
;
_chemical_formula_sum "Si O2"
_cell_formula_units_Z 26
_cell_length_a 11.987148
_cell_length_b 11.987148
_cell_length_c 8.289468
_cell_angle_alpha 90.000000
_cell_angle_beta 90.000000
_cell_angle_gamma 90.000000
_cell_volume 1191.127891
_symmetry_space_group_name_H-M "P 42"
_symmetry_group_IT_number 77
_symmetry_cell_setting 'tetragonal'
loop_
_space_group_symop_operation_xyz
x,y,z
-y,x,1/2+z
-x,-y,z
y,-x,1/2+z
loop_
_atom_site_type_symbol
_atom_site_label
_atom_site_fract_x
_atom_site_fract_y
_atom_site_fract_z
Si Si1 0.334232 0.559861 0.631610
Si Si2 0.216272 0.127563 0.843580
Si Si3 0.500000 0.500000 0.882943
Si Si4 0.309648 0.759321 0.104316
Si Si5 0.121270 0.946717 0.631933
Si Si6 0.824895 0.280703 0.792578
Si Si7 0.993583 0.370576 0.587475
O O1 0.414209 0.573565 0.783992
O O2 0.413757 0.577486 0.479777
O O3 0.283605 0.435178 0.621274
O O4 0.247217 0.660567 0.648163
O O5 0.255887 0.246982 0.774850
O O6 0.316140 0.085349 0.953623
O O7 0.202078 0.048014 0.684891
O O8 0.101295 0.137719 0.950037
O O9 0.236866 0.699803 0.962516
O O10 0.310832 0.889393 0.064774
O O11 0.149301 0.848644 0.759352
O O12 0.000000 0.000000 0.649963
O O13 0.943265 0.346208 0.768201
O O14 0.000000 0.500000 0.551845
#
# Coordination Sequence:
#
# PCOD8301994 Si02
#       7
#     4   4   2   4   4   4   4
#     4  11  23  44  71 101 141 185 238 296 366 429
#     4  11  25  41  68 102 135 181 236 290 363 422
#     4  10  24  42  70 106 132 182 242 302 350 432
#     4  12  25  44  68 103 144 187 237 299 360 440
#     4  11  24  42  67 100 131 180 233 297 349 430
#     4  11  24  45  68  99 138 189 237 292 364 437
#     4  11  24  45  67  96 140 187 228 295 363 424
#
# _framework density 21.828052
#
# number of rings (size 3 to 8) (size 9 to 14) (size 15 to 20)
#    0.000    0.923    4.615    2.308    8.615    0.000 
#    0.000    2.308    0.000    0.000    0.000    0.000 
#    0.000    0.000    0.000    0.000    0.000    0.000 
#
# Total GULP energy -322118.872594 kJ/mol
# GULP energy per Si atom -12389.187407 kJ/mol
# Density = 2.177837 g / cm^3
# Si number density = 21.828052 Si / 1000 Ang^3
#
#
#
# Elastic Constant Matrix: (Units=GPa)
#
#
# Indices 1 2 3 4 5 6 
#
# 1 81.5411 12.0139 20.2147 0.0000 0.0000 -0.3159
# 2 12.0139 81.5411 20.2147 0.0000 0.0000 0.3159
# 3 20.2147 20.2147 84.2974 0.0000 0.0000 0.0000
# 4 0.0000 0.0000 0.0000 -8.2711 0.0000 0.0000
# 5 0.0000 0.0000 0.0000 0.0000 -8.2711 0.0000
# 6 -0.3159 0.3159 0.0000 0.0000 0.0000 42.9454
#
#
#
# Elastic Compliance Matrix: (Units=1/GPa)
#
#
# Indices 1 2 3 4 5 6 
#
# 1 0.013154 -0.001230 -0.002860 0.000000 0.000000 0.000106
# 2 -0.001230 0.013154 -0.002860 0.000000 0.000000 -0.000106
# 3 -0.002860 -0.002860 0.013234 0.000000 0.000000 0.000000
# 4 0.000000 0.000000 0.000000 -0.120903 0.000000 0.000000
# 5 0.000000 0.000000 0.000000 0.000000 -0.120903 0.000000
# 6 0.000106 -0.000106 0.000000 0.000000 0.000000 0.023287
#
#
# Mechanical properties :
#
#
# Convention : Reuss Voigt Hill
#
# Bulk Modulus (GPa) = 38.99352 39.14068 39.06710
# Shear Modulus (GPa) = -31.94260 18.27640 -6.83310
#
# Velocity S-wave (km/s) = -3.82956 2.89674 -1.77122
# Velocity P-wave (km/s) = 1.28502 5.39985 3.70858
#
# Compressibility (1/GPa) = 0.02564529
#
# Stress axis : x y z
#
# Youngs Moduli (GPa) = 76.02117 76.02117 75.56177
#
# Poissons Ratio (x) = 0.09348 0.21607
# Poissons Ratio (y) = 0.09348 0.21607
# Poissons Ratio (z) = 0.21739 0.21739
#
# Static dielectric constant tensor:
#      x y z
#    x 4.089110 0.000000 0.000000 
#    y 0.000000 4.089110 0.000000 
#    z 0.000000 0.000000 3.921700 
# 
# 
# High freq. dielectric constant tensor:
#      x y z
#    x 1.862010 0.000000 0.000000 
#    y 0.000000 1.862010 0.000000 
#    z 0.000000 0.000000 1.854650 
# 
# From -- ./inp_files/466.got.cif
#   From: 2010.03.12/outbox.cif.g09.slc.cpg/sg77_cif.got.tgz:466.got - 2010.04.16 16:36:19.
