data_PCOD8301040
_publ_section_title
;
Structure prediction by ZEFSAII (Michael W. Deem and Ramdas Pophale) SiO2 
 PCOD8301040
Probable space group: I M M A
;
_chemical_formula_sum "Si O2"
_cell_formula_units_Z 112
_cell_length_a 24.604279
_cell_length_b 14.177954
_cell_length_c 15.920359
_cell_angle_alpha 90.000000
_cell_angle_beta 90.000000
_cell_angle_gamma 90.000000
_cell_volume 5553.631540
_symmetry_space_group_name_H-M "I M M A"
_symmetry_group_IT_number 74
_symmetry_cell_setting 'orthorhombic'
loop_
_space_group_symop_operation_xyz
x,y,z
-x,1/2-y,z
x,-y,-z
-x,1/2+y,-z
-x,-y,-z
x,1/2+y,-z
-x,y,z
x,1/2-y,z
1/2+x,1/2+y,1/2+z
1/2-x,-y,1/2+z
1/2+x,1/2-y,1/2-z
1/2-x,y,1/2-z
1/2-x,1/2-y,1/2-z
1/2+x,y,1/2-z
1/2-x,1/2+y,1/2+z
1/2+x,-y,1/2+z
loop_
_atom_site_type_symbol
_atom_site_label
_atom_site_fract_x
_atom_site_fract_y
_atom_site_fract_z
Si Si1 0.848225 0.979622 0.595325
Si Si2 0.387672 0.649031 0.364686
Si Si3 0.060917 0.953156 0.869731
Si Si4 0.692400 0.141814 0.786885
Si Si5 0.437108 0.639395 0.808896
Si Si6 0.246191 0.356065 0.344867
Si Si7 0.337906 0.901098 0.528711
O O1 0.900654 0.926853 0.632581
O O2 0.797036 0.910930 0.600083
O O3 0.863224 0.000000 0.500000
O O4 0.830631 0.077610 0.638315
O O5 0.417964 0.750000 0.355886
O O6 0.431548 0.566033 0.364479
O O7 0.350054 0.629618 0.286358
O O8 0.346406 0.658528 0.444360
O O9 0.073065 0.898246 0.784288
O O10 0.100893 0.913231 0.938967
O O11 0.000000 0.932641 0.900151
O O12 0.697053 0.250000 0.819200
O O13 0.750000 0.106228 0.750000
O O14 0.500000 0.626597 0.835249
O O15 0.420311 0.750000 0.814510
O O16 0.225285 0.250000 0.334918
O O17 0.250000 0.399546 0.250000
O O18 0.302558 0.355776 0.396871
O O19 0.311251 0.000000 0.500000
#
# Coordination Sequence:
#
# PCOD8301040 Si02
#       7
#    16  16  16  16  16  16  16
#     4  12  25  39  65  95 124 155 200 258 306 362
#     4  10  21  38  61  86 119 165 206 248 301 362
#     4  10  21  39  62  88 121 159 205 256 302 360
#     4  10  23  41  62  86 123 170 206 240 296 368
#     4  10  22  43  68  90 119 161 202 247 309 373
#     4  11  24  39  60  90 126 162 199 249 306 358
#     4  10  22  36  56  87 122 164 202 246 299 362
#
# _framework density 20.166985
#
# number of rings (size 3 to 8) (size 9 to 14) (size 15 to 20)
#    0.000    1.571    1.429    2.571    8.000    6.571 
#    0.000    0.000    0.000    0.429    0.000    0.000 
#    0.000    0.000    0.000    0.000    0.000    0.000 
#
# Total GULP energy -694126.006697 kJ/mol
# GULP energy per Si atom -12395.107262 kJ/mol
# Density = 2.012108 g / cm^3
# Si number density = 20.166985 Si / 1000 Ang^3
#
#
#
# Elastic Constant Matrix: (Units=GPa)
#
#
# Indices 1 2 3 4 5 6 
#
# 1 62.9890 39.3070 21.7230 0.0000 0.0000 0.0000
# 2 39.3070 109.5961 47.9744 0.0000 0.0000 0.0000
# 3 21.7230 47.9744 98.4927 0.0000 0.0000 0.0000
# 4 0.0000 0.0000 0.0000 66.2202 0.0000 0.0000
# 5 0.0000 0.0000 0.0000 0.0000 24.3022 0.0000
# 6 0.0000 0.0000 0.0000 0.0000 0.0000 27.3882
#
#
#
# Elastic Compliance Matrix: (Units=1/GPa)
#
#
# Indices 1 2 3 4 5 6 
#
# 1 0.020564 -0.006851 -0.001199 0.000000 0.000000 0.000000
# 2 -0.006851 0.013879 -0.005249 0.000000 0.000000 0.000000
# 3 -0.001199 -0.005249 0.012974 0.000000 0.000000 0.000000
# 4 0.000000 0.000000 0.000000 0.015101 0.000000 0.000000
# 5 0.000000 0.000000 0.000000 0.000000 0.041148 0.000000
# 6 0.000000 0.000000 0.000000 0.000000 0.000000 0.036512
#
#
# Mechanical properties :
#
#
# Convention : Reuss Voigt Hill
#
# Bulk Modulus (GPa) = 48.03022 54.34296 51.18659
# Shear Modulus (GPa) = 28.78239 34.38703 31.58471
#
# Velocity S-wave (km/s) = 3.78193 4.13378 3.96177
# Velocity P-wave (km/s) = 6.55276 7.05615 6.80911
#
# Compressibility (1/GPa) = 0.02082022
#
# Stress axis : x y z
#
# Youngs Moduli (GPa) = 48.62814 72.04946 77.07514
#
# Poissons Ratio (x) = 0.49359 0.09238
# Poissons Ratio (y) = 0.33314 0.40460
# Poissons Ratio (z) = 0.05829 0.37822
#
# Static dielectric constant tensor:
#      x y z
#    x 3.535310 0.000000 0.000000 
#    y 0.000000 3.969740 0.000000 
#    z 0.000000 0.000000 3.659920 
# 
# 
# High freq. dielectric constant tensor:
#      x y z
#    x 1.778790 0.000000 0.000000 
#    y 0.000000 1.802500 0.000000 
#    z 0.000000 0.000000 1.787610 
# 
# From -- ./inp_files/36480.got.cif
#   From: 2010.03.12/outbox.cif.g09.slc.cpg/sg74_19_cif.got.tgz:36480.got - 2010.04.16 15:46:19.
