data_PCOD8301369
_publ_section_title
;
Structure prediction by ZEFSAII (Michael W. Deem and Ramdas Pophale) SiO2 
 PCOD8301369
Probable space group: I M M A
;
_chemical_formula_sum "Si O2"
_cell_formula_units_Z 64
_cell_length_a 19.026643
_cell_length_b 22.738841
_cell_length_c 7.225447
_cell_angle_alpha 90.000000
_cell_angle_beta 90.000000
_cell_angle_gamma 90.000000
_cell_volume 3126.044919
_symmetry_space_group_name_H-M "I M M A"
_symmetry_group_IT_number 74
_symmetry_cell_setting 'orthorhombic'
loop_
_space_group_symop_operation_xyz
x,y,z
-x,1/2-y,z
x,-y,-z
-x,1/2+y,-z
-x,-y,-z
x,1/2+y,-z
-x,y,z
x,1/2-y,z
1/2+x,1/2+y,1/2+z
1/2-x,-y,1/2+z
1/2+x,1/2-y,1/2-z
1/2-x,y,1/2-z
1/2-x,1/2-y,1/2-z
1/2+x,y,1/2-z
1/2-x,1/2+y,1/2+z
1/2+x,-y,1/2+z
loop_
_atom_site_type_symbol
_atom_site_label
_atom_site_fract_x
_atom_site_fract_y
_atom_site_fract_z
Si Si1 0.316599 0.567671 0.030241
Si Si2 0.918564 0.871259 0.734072
Si Si3 0.217184 0.750000 0.033245
Si Si4 0.675962 0.374969 0.580827
Si Si5 0.641803 0.250000 0.146303
O O1 0.337852 0.583671 0.241871
O O2 0.246388 0.603476 0.973951
O O3 0.298528 0.500000 0.000000
O O4 0.380994 0.581932 0.896889
O O5 0.907516 0.807123 0.643972
O O6 0.000000 0.886720 0.740881
O O7 0.889677 0.877485 0.942604
O O8 0.302642 0.750000 0.022949
O O9 0.186903 0.750000 0.830420
O O10 0.189745 0.807442 0.143396
#
# Coordination Sequence:
#
# PCOD8301369 Si02
#       5
#    16  16   8  16   8
#     4  11  25  40  63  92 122 163 218 266 304 372
#     4  11  23  40  63  91 130 168 202 254 324 388
#     4   9  16  36  66  95 124 153 211 271 313 361
#     4  10  23  40  66  95 121 164 211 269 314 366
#     4   9  17  35  61  94 126 160 204 257 315 378
#
# _framework density 20.473154000000001
#
# number of rings (size 3 to 8) (size 9 to 14) (size 15 to 20)
#    0.000    1.750    2.500    1.125    7.000    4.500 
#    0.000    1.250    0.000    3.000    0.000    0.000 
#    0.000    0.000    0.000    0.000    0.000    0.000 
#
# Total GULP energy -396740.966990 kJ/mol
# GULP energy per Si atom -12398.155218 kJ/mol
# Density = 2.042656 g / cm^3
# Si number density = 20.473154 Si / 1000 Ang^3
#
#
#
# Elastic Constant Matrix: (Units=GPa)
#
#
# Indices 1 2 3 4 5 6 
#
# 1 131.9669 29.9743 32.7116 0.0000 0.0000 0.0000
# 2 29.9743 139.1686 28.3602 0.0000 0.0000 0.0000
# 3 32.7116 28.3602 79.4894 0.0000 0.0000 0.0000
# 4 0.0000 0.0000 0.0000 33.4269 0.0000 0.0000
# 5 0.0000 0.0000 0.0000 0.0000 26.5107 0.0000
# 6 0.0000 0.0000 0.0000 0.0000 0.0000 1.2752
#
#
#
# Elastic Compliance Matrix: (Units=1/GPa)
#
#
# Indices 1 2 3 4 5 6 
#
# 1 0.008627 -0.001224 -0.003114 0.000000 0.000000 0.000000
# 2 -0.001224 0.007922 -0.002323 0.000000 0.000000 0.000000
# 3 -0.003114 -0.002323 0.014690 0.000000 0.000000 0.000000
# 4 0.000000 0.000000 0.000000 0.029916 0.000000 0.000000
# 5 0.000000 0.000000 0.000000 0.000000 0.037721 0.000000
# 6 0.000000 0.000000 0.000000 0.000000 0.000000 0.784215
#
#
# Mechanical properties :
#
#
# Convention : Reuss Voigt Hill
#
# Bulk Modulus (GPa) = 55.80525 59.19079 57.49802
# Shear Modulus (GPa) = 5.54087 29.54782 17.54434
#
# Velocity S-wave (km/s) = 1.64690 3.80313 2.93054
# Velocity P-wave (km/s) = 5.56177 6.94689 6.29256
#
# Compressibility (1/GPa) = 0.01791946
#
# Stress axis : x y z
#
# Youngs Moduli (GPa) = 115.90939 126.22321 68.07129
#
# Poissons Ratio (x) = 0.15445 0.21196
# Poissons Ratio (y) = 0.14183 0.15813
# Poissons Ratio (z) = 0.36092 0.29322
#
# Static dielectric constant tensor:
#      x y z
#    x 3.438340 0.000000 0.000000 
#    y 0.000000 3.882120 0.000000 
#    z 0.000000 0.000000 3.613990 
# 
# 
# High freq. dielectric constant tensor:
#      x y z
#    x 1.775260 0.000000 0.000000 
#    y 0.000000 1.809300 0.000000 
#    z 0.000000 0.000000 1.802900 
# 
# From -- ./inp_files/10306.got.cif
#   From: 2010.03.12/outbox.cif.g09.slc.cpg/sg74_6_cif.got.tgz:10306.got - 2010.04.16 15:46:19.
