data_PCOD8301699
_publ_section_title
;
Structure prediction by ZEFSAII (Michael W. Deem and Ramdas Pophale) SiO2 
 PCOD8301699
Probable space group: I M M A
;
_chemical_formula_sum "Si O2"
_cell_formula_units_Z 112
_cell_length_a 24.540074
_cell_length_b 14.891733
_cell_length_c 15.921498
_cell_angle_alpha 90.000000
_cell_angle_beta 90.000000
_cell_angle_gamma 90.000000
_cell_volume 5818.419574
_symmetry_space_group_name_H-M "I M M A"
_symmetry_group_IT_number 74
_symmetry_cell_setting 'orthorhombic'
loop_
_space_group_symop_operation_xyz
x,y,z
-x,1/2-y,z
x,-y,-z
-x,1/2+y,-z
-x,-y,-z
x,1/2+y,-z
-x,y,z
x,1/2-y,z
1/2+x,1/2+y,1/2+z
1/2-x,-y,1/2+z
1/2+x,1/2-y,1/2-z
1/2-x,y,1/2-z
1/2-x,1/2-y,1/2-z
1/2+x,y,1/2-z
1/2-x,1/2+y,1/2+z
1/2+x,-y,1/2+z
loop_
_atom_site_type_symbol
_atom_site_label
_atom_site_fract_x
_atom_site_fract_y
_atom_site_fract_z
Si Si1 0.173128 0.855886 0.682855
Si Si2 0.290820 0.151076 0.357720
Si Si3 0.761036 0.353013 0.652910
Si Si4 0.938554 0.856197 0.120131
Si Si5 0.667227 0.402018 0.528371
Si Si6 0.436390 0.850706 0.189648
Si Si7 0.359509 0.021929 0.903302
O O1 0.156999 0.750000 0.669776
O O2 0.229405 0.886216 0.635210
O O3 0.175161 0.890039 0.780161
O O4 0.131053 0.925107 0.641501
O O5 0.280151 0.250000 0.323096
O O6 0.324174 0.155496 0.444059
O O7 0.780717 0.250000 0.639640
O O8 0.750000 0.372847 0.750000
O O9 0.704368 0.366463 0.603604
O O10 0.804965 0.423351 0.619794
O O11 0.934172 0.750000 0.110400
O O12 0.895708 0.901450 0.056580
O O13 0.924061 0.883965 0.215412
O O14 0.000000 0.888036 0.096973
O O15 0.685838 0.500000 0.500000
O O16 0.500000 0.850209 0.172530
O O17 0.412836 0.750000 0.178112
O O18 0.410024 0.916402 0.122312
O O19 0.360766 0.000000 0.000000
#
# Coordination Sequence:
#
# PCOD8301699 Si02
#       7
#    16  16  16  16  16  16  16
#     4   9  20  36  54  76 112 159 197 229 272 343
#     4   9  18  34  53  72 104 155 199 226 264 334
#     4  11  24  39  57  84 122 159 192 239 299 350
#     4   9  19  38  61  82 109 148 193 241 292 345
#     4  12  23  32  53  87 117 151 187 239 288 345
#     4   9  20  41  66  87 111 150 194 237 295 360
#     4  12  24  35  58  90 119 149 186 247 298 349
#
# _framework density 19.249213000000001
#
# number of rings (size 3 to 8) (size 9 to 14) (size 15 to 20)
#    0.000    1.857    0.000    6.429    6.000    5.143 
#    0.000    0.000    0.000    0.429    0.000    0.000 
#    0.000    0.000    0.000    0.000    0.000    0.000 
#
# Total GULP energy -693965.696639 kJ/mol
# GULP energy per Si atom -12392.244583 kJ/mol
# Density = 1.920540 g / cm^3
# Si number density = 19.249213 Si / 1000 Ang^3
#
#
#
# Elastic Constant Matrix: (Units=GPa)
#
#
# Indices 1 2 3 4 5 6 
#
# 1 72.6580 31.3683 55.0791 0.0000 0.0000 0.0000
# 2 31.3683 93.7646 45.8992 0.0000 0.0000 0.0000
# 3 55.0791 45.8992 149.0454 0.0000 0.0000 0.0000
# 4 0.0000 0.0000 0.0000 30.9554 0.0000 0.0000
# 5 0.0000 0.0000 0.0000 0.0000 17.5767 0.0000
# 6 0.0000 0.0000 0.0000 0.0000 0.0000 24.0507
#
#
#
# Elastic Compliance Matrix: (Units=1/GPa)
#
#
# Indices 1 2 3 4 5 6 
#
# 1 0.020122 -0.003640 -0.006315 0.000000 0.000000 0.000000
# 2 -0.003640 0.013217 -0.002725 0.000000 0.000000 0.000000
# 3 -0.006315 -0.002725 0.009882 0.000000 0.000000 0.000000
# 4 0.000000 0.000000 0.000000 0.032305 0.000000 0.000000
# 5 0.000000 0.000000 0.000000 0.000000 0.056893 0.000000
# 6 0.000000 0.000000 0.000000 0.000000 0.000000 0.041579
#
#
# Mechanical properties :
#
#
# Convention : Reuss Voigt Hill
#
# Bulk Modulus (GPa) = 55.98965 64.46236 60.22600
# Shear Modulus (GPa) = 24.35329 26.72466 25.53897
#
# Velocity S-wave (km/s) = 3.56076 3.73010 3.64642
# Velocity P-wave (km/s) = 6.78640 7.21890 7.00599
#
# Compressibility (1/GPa) = 0.01786044
#
# Stress axis : x y z
#
# Youngs Moduli (GPa) = 49.69735 75.66166 101.19286
#
# Poissons Ratio (x) = 0.27544 0.63902
# Poissons Ratio (y) = 0.18092 0.27574
# Poissons Ratio (z) = 0.31383 0.20617
#
# Static dielectric constant tensor:
#      x y z
#    x 3.308170 0.000000 0.000000 
#    y 0.000000 3.663210 0.000000 
#    z 0.000000 0.000000 3.647850 
# 
# 
# High freq. dielectric constant tensor:
#      x y z
#    x 1.720390 0.000000 0.000000 
#    y 0.000000 1.755350 0.000000 
#    z 0.000000 0.000000 1.754960 
# 
# From -- ./inp_files/32734.got.cif
#   From: 2010.03.12/outbox.cif.g09.slc.cpg/sg74_17_cif.got.tgz:32734.got - 2010.04.16 15:46:19.
