data_PCOD8301334
_publ_section_title
;
Structure prediction by ZEFSAII (Michael W. Deem and Ramdas Pophale) SiO2 
 PCOD8301334
Probable space group: I M M A
;
_chemical_formula_sum "Si O2"
_cell_formula_units_Z 104
_cell_length_a 25.659658
_cell_length_b 9.403740
_cell_length_c 21.185175
_cell_angle_alpha 90.000000
_cell_angle_beta 90.000000
_cell_angle_gamma 90.000000
_cell_volume 5111.913925
_symmetry_space_group_name_H-M "I M M A"
_symmetry_group_IT_number 74
_symmetry_cell_setting 'orthorhombic'
loop_
_space_group_symop_operation_xyz
x,y,z
-x,1/2-y,z
x,-y,-z
-x,1/2+y,-z
-x,-y,-z
x,1/2+y,-z
-x,y,z
x,1/2-y,z
1/2+x,1/2+y,1/2+z
1/2-x,-y,1/2+z
1/2+x,1/2-y,1/2-z
1/2-x,y,1/2-z
1/2-x,1/2-y,1/2-z
1/2+x,y,1/2-z
1/2-x,1/2+y,1/2+z
1/2+x,-y,1/2+z
loop_
_atom_site_type_symbol
_atom_site_label
_atom_site_fract_x
_atom_site_fract_y
_atom_site_fract_z
Si Si1 0.288153 0.087178 0.437699
Si Si2 0.133438 0.904472 0.444216
Si Si3 0.500000 0.082076 0.434675
Si Si4 0.140408 0.082105 0.753811
Si Si5 0.108375 0.089379 0.126768
Si Si6 0.723584 0.092399 0.843568
Si Si7 0.557461 0.080128 0.844709
O O1 0.268275 0.250000 0.444975
O O2 0.350861 0.084014 0.431506
O O3 0.271130 0.000000 0.500000
O O4 0.263533 0.020349 0.373553
O O5 0.122893 0.750000 0.473662
O O6 0.174571 0.893128 0.388853
O O7 0.080485 0.966667 0.412905
O O8 0.155250 0.000000 0.500000
O O9 0.500000 0.250000 0.448671
O O10 0.448483 0.036184 0.395695
O O11 0.500000 0.000000 0.500000
O O12 0.135080 0.250000 0.761678
O O13 0.198023 0.045539 0.724233
O O14 0.093768 0.019879 0.710888
O O15 0.133560 0.011051 0.821096
O O16 0.104018 0.250000 0.152957
O O17 0.750156 0.250000 0.837432
O O18 0.500000 0.014783 0.836680
O O19 0.556876 0.250000 0.841726
#
# Coordination Sequence:
#
# PCOD8301334 Si02
#       7
#    16  16   8  16  16  16  16
#     4  11  23  38  58  84 112 146 187 230 279 336
#     4   9  17  29  46  69  99 135 175 219 268 319
#     4  10  22  42  64  86 116 152 187 232 289 344
#     4   9  19  35  57  84 110 143 189 231 272 329
#     4  10  23  40  58  84 117 148 180 228 289 342
#     4   9  19  36  55  79 112 147 184 229 277 326
#     4   8  15  29  48  70  99 134 173 222 270 314
#
# _framework density 20.344631
#
# number of rings (size 3 to 8) (size 9 to 14) (size 15 to 20)
#    0.000    2.615    0.000    3.231    1.077    5.231 
#    0.000    5.385    0.000    0.923    0.000    0.000 
#    0.000    0.000    0.000    0.000    0.000    0.000 
#
# Total GULP energy -644459.277482 kJ/mol
# GULP energy per Si atom -12393.447644 kJ/mol
# Density = 2.029833 g / cm^3
# Si number density = 20.344631 Si / 1000 Ang^3
#
#
#
# Elastic Constant Matrix: (Units=GPa)
#
#
# Indices 1 2 3 4 5 6 
#
# 1 107.7524 33.5410 21.0412 0.0000 0.0000 0.0000
# 2 33.5410 82.5588 46.5315 0.0000 0.0000 0.0000
# 3 21.0412 46.5315 83.1745 0.0000 0.0000 0.0000
# 4 0.0000 0.0000 0.0000 31.3173 0.0000 0.0000
# 5 0.0000 0.0000 0.0000 0.0000 21.3417 0.0000
# 6 0.0000 0.0000 0.0000 0.0000 0.0000 21.9081
#
#
#
# Elastic Compliance Matrix: (Units=1/GPa)
#
#
# Indices 1 2 3 4 5 6 
#
# 1 0.010633 -0.004095 -0.000399 0.000000 0.000000 0.000000
# 2 -0.004095 0.019268 -0.009743 0.000000 0.000000 0.000000
# 3 -0.000399 -0.009743 0.017575 0.000000 0.000000 0.000000
# 4 0.000000 0.000000 0.000000 0.031931 0.000000 0.000000
# 5 0.000000 0.000000 0.000000 0.000000 0.046857 0.000000
# 6 0.000000 0.000000 0.000000 0.000000 0.000000 0.045645
#
#
# Mechanical properties :
#
#
# Convention : Reuss Voigt Hill
#
# Bulk Modulus (GPa) = 52.62894 52.85700 52.74297
# Shear Modulus (GPa) = 24.18768 26.40489 25.29628
#
# Velocity S-wave (km/s) = 3.45178 3.60652 3.53000
# Velocity P-wave (km/s) = 6.46616 6.58634 6.52653
#
# Compressibility (1/GPa) = 0.01900095
#
# Stress axis : x y z
#
# Youngs Moduli (GPa) = 94.04553 51.90022 56.90006
#
# Poissons Ratio (x) = 0.21253 0.02270
# Poissons Ratio (y) = 0.38512 0.55439
# Poissons Ratio (z) = 0.03752 0.50568
#
# Static dielectric constant tensor:
#      x y z
#    x 4.057270 0.000000 0.000000 
#    y 0.000000 3.435650 0.000000 
#    z 0.000000 0.000000 3.658450 
# 
# 
# High freq. dielectric constant tensor:
#      x y z
#    x 1.807470 0.000000 0.000000 
#    y 0.000000 1.765630 0.000000 
#    z 0.000000 0.000000 1.790950 
# 
# From -- ./inp_files/55256.got.cif
#   From: 2010.03.12/outbox.cif.g09.slc.cpg/sg74_28_cif.got.tgz:55256.got - 2010.04.16 15:46:19.
