data_PCOD8301443
_publ_section_title
;
Structure prediction by ZEFSAII (Michael W. Deem and Ramdas Pophale) SiO2 
 PCOD8301443
Probable space group: I M M A
;
_chemical_formula_sum "Si O2"
_cell_formula_units_Z 96
_cell_length_a 19.684802
_cell_length_b 22.538783
_cell_length_c 12.356429
_cell_angle_alpha 90.000000
_cell_angle_beta 90.000000
_cell_angle_gamma 90.000000
_cell_volume 5482.195150
_symmetry_space_group_name_H-M "I M M A"
_symmetry_group_IT_number 74
_symmetry_cell_setting 'orthorhombic'
loop_
_space_group_symop_operation_xyz
x,y,z
-x,1/2-y,z
x,-y,-z
-x,1/2+y,-z
-x,-y,-z
x,1/2+y,-z
-x,y,z
x,1/2-y,z
1/2+x,1/2+y,1/2+z
1/2-x,-y,1/2+z
1/2+x,1/2-y,1/2-z
1/2-x,y,1/2-z
1/2-x,1/2-y,1/2-z
1/2+x,y,1/2-z
1/2-x,1/2+y,1/2+z
1/2+x,-y,1/2+z
loop_
_atom_site_type_symbol
_atom_site_label
_atom_site_fract_x
_atom_site_fract_y
_atom_site_fract_z
Si Si1 0.217331 0.750000 0.076546
Si Si2 0.651808 0.067416 0.041467
Si Si3 0.200969 0.124447 0.014359
Si Si4 0.821791 0.067036 0.799150
Si Si5 0.920875 0.873168 0.358256
Si Si6 0.675861 0.568589 0.721070
Si Si7 0.142581 0.750000 0.296671
O O1 0.159023 0.750000 0.168590
O O2 0.289465 0.750000 0.134180
O O3 0.211686 0.805548 0.996161
O O4 0.728408 0.088641 0.020323
O O5 0.631325 0.071984 0.169197
O O6 0.599541 0.111257 0.981465
O O7 0.644812 0.000000 0.000000
O O8 0.153458 0.110287 0.119869
O O9 0.161536 0.102188 0.908305
O O10 0.750000 0.089875 0.750000
O O11 0.881406 0.079844 0.715483
O O12 0.819416 0.997811 0.824532
O O13 0.901819 0.806621 0.327140
O O14 0.000000 0.883063 0.341186
O O15 0.750000 0.592572 0.750000
#
# Coordination Sequence:
#
# PCOD8301443 Si02
#       7
#     8  16  16  16  16  16   8
#     4  11  20  32  62  86 112 147 192 248 277 342
#     4  11  19  36  55  82 119 150 188 234 288 338
#     4  11  19  32  56  88 114 144 191 238 292 332
#     4  11  17  34  58  83 115 149 185 238 289 341
#     4  12  24  36  58  88 117 150 192 236 286 346
#     4   9  19  31  53  84 116 148 181 232 286 340
#     4  11  21  40  55  83 119 150 187 235 298 333
#
# _framework density 17.511234000000002
#
# number of rings (size 3 to 8) (size 9 to 14) (size 15 to 20)
#    0.000    1.167    6.667    2.750    0.000    0.333 
#    0.000    4.583    0.000    3.000    0.000    0.000 
#    0.000    0.000    0.000    0.000    0.000    0.000 
#
# Total GULP energy -595074.683977 kJ/mol
# GULP energy per Si atom -12397.389250 kJ/mol
# Density = 1.747138 g / cm^3
# Si number density = 17.511234 Si / 1000 Ang^3
#
#
#
# Elastic Constant Matrix: (Units=GPa)
#
#
# Indices 1 2 3 4 5 6 
#
# 1 76.3849 17.3564 32.7631 0.0000 0.0000 0.0000
# 2 17.3564 81.3466 51.1843 0.0000 0.0000 0.0000
# 3 32.7631 51.1843 135.7816 0.0000 0.0000 0.0000
# 4 0.0000 0.0000 0.0000 34.0684 0.0000 0.0000
# 5 0.0000 0.0000 0.0000 0.0000 12.5057 0.0000
# 6 0.0000 0.0000 0.0000 0.0000 0.0000 -15.1904
#
#
#
# Elastic Compliance Matrix: (Units=1/GPa)
#
#
# Indices 1 2 3 4 5 6 
#
# 1 0.014690 -0.001185 -0.003098 0.000000 0.000000 0.000000
# 2 -0.001185 0.016211 -0.005825 0.000000 0.000000 0.000000
# 3 -0.003098 -0.005825 0.010308 0.000000 0.000000 0.000000
# 4 0.000000 0.000000 0.000000 0.029353 0.000000 0.000000
# 5 0.000000 0.000000 0.000000 0.000000 0.079963 0.000000
# 6 0.000000 0.000000 0.000000 0.000000 0.000000 -0.065831
#
#
# Mechanical properties :
#
#
# Convention : Reuss Voigt Hill
#
# Bulk Modulus (GPa) = 47.63486 55.12453 51.37969
# Shear Modulus (GPa) = 44.68004 19.09072 31.88538
#
# Velocity S-wave (km/s) = 5.05672 3.30540 4.27177
# Velocity P-wave (km/s) = 7.83297 6.79083 7.33045
#
# Compressibility (1/GPa) = 0.02099303
#
# Stress axis : x y z
#
# Youngs Moduli (GPa) = 68.07557 61.68621 97.01181
#
# Poissons Ratio (x) = 0.07310 0.30052
# Poissons Ratio (y) = 0.08067 0.56509
# Poissons Ratio (z) = 0.21088 0.35932
#
# Static dielectric constant tensor:
#      x y z
#    x 2.845500 0.000000 0.000000 
#    y 0.000000 3.393160 0.000000 
#    z 0.000000 0.000000 3.842340 
# 
# 
# High freq. dielectric constant tensor:
#      x y z
#    x 1.619580 0.000000 0.000000 
#    y 0.000000 1.682780 0.000000 
#    z 0.000000 0.000000 1.690620 
# 
# From -- ./inp_files/23974.got.cif
#   From: 2010.03.12/outbox.cif.g09.slc.cpg/sg74_12_cif.got.tgz:23974.got - 2010.04.16 15:46:19.
