data_PCOD8301154
_publ_section_title
;
Structure prediction by ZEFSAII (Michael W. Deem and Ramdas Pophale) SiO2 
 PCOD8301154
Probable space group: I M M A
;
_chemical_formula_sum "Si O2"
_cell_formula_units_Z 64
_cell_length_a 15.098515
_cell_length_b 23.991321
_cell_length_c 8.593248
_cell_angle_alpha 90.000000
_cell_angle_beta 90.000000
_cell_angle_gamma 90.000000
_cell_volume 3112.760753
_symmetry_space_group_name_H-M "I M M A"
_symmetry_group_IT_number 74
_symmetry_cell_setting 'orthorhombic'
loop_
_space_group_symop_operation_xyz
x,y,z
-x,1/2-y,z
x,-y,-z
-x,1/2+y,-z
-x,-y,-z
x,1/2+y,-z
-x,y,z
x,1/2-y,z
1/2+x,1/2+y,1/2+z
1/2-x,-y,1/2+z
1/2+x,1/2-y,1/2-z
1/2-x,y,1/2-z
1/2-x,1/2-y,1/2-z
1/2+x,y,1/2-z
1/2-x,1/2+y,1/2+z
1/2+x,-y,1/2+z
loop_
_atom_site_type_symbol
_atom_site_label
_atom_site_fract_x
_atom_site_fract_y
_atom_site_fract_z
Si Si1 0.347957 0.364249 0.816075
Si Si2 0.655319 0.863906 0.816094
Si Si3 0.500000 0.435071 0.680135
Si Si4 0.102670 0.250000 0.158936
Si Si5 0.500000 0.933275 0.677044
Si Si6 0.651790 0.250000 0.687528
O O1 0.250000 0.374717 0.750000
O O2 0.411481 0.414013 0.764209
O O3 0.392570 0.306731 0.751671
O O4 0.341843 0.362188 0.999787
O O5 0.750000 0.881725 0.750000
O O6 0.627757 0.803261 0.758569
O O7 0.586801 0.910069 0.759958
O O8 0.500000 0.500965 0.693764
O O9 0.500000 0.414325 0.502326
O O10 0.000000 0.250000 0.115507
O O11 0.156449 0.250000 0.998636
O O12 0.750000 0.250000 0.750000
#
# Coordination Sequence:
#
# PCOD8301154 Si02
#       6
#    16  16   8   8   8   8
#     4  11  24  42  66  98 130 171 216 263 323 386
#     4  12  24  43  69  95 133 171 215 266 322 390
#     4  11  25  44  69  90 133 165 217 275 322 381
#     4  12  24  40  67 100 136 174 215 266 327 387
#     4  11  25  46  65  98 123 171 219 269 326 381
#     4  10  21  40  63  95 133 169 213 257 315 382
#
# _framework density 20.560525999999999
#
# number of rings (size 3 to 8) (size 9 to 14) (size 15 to 20)
#    0.000    0.750    1.250    7.875    1.750    3.000 
#    0.000    0.000    0.000    0.000    0.000    0.000 
#    0.000    0.000    0.000    0.000    0.000    0.000 
#
# Total GULP energy -396964.288044 kJ/mol
# GULP energy per Si atom -12405.134001 kJ/mol
# Density = 2.051373 g / cm^3
# Si number density = 20.560526 Si / 1000 Ang^3
#
#
#
# Elastic Constant Matrix: (Units=GPa)
#
#
# Indices 1 2 3 4 5 6 
#
# 1 144.5576 52.5871 60.4384 -0.0003 -0.0003 -0.0040
# 2 52.5871 103.0727 63.0650 -0.0002 0.0000 -0.0005
# 3 60.4384 63.0650 213.9789 -0.0035 -0.0002 -0.0312
# 4 -0.0003 -0.0002 -0.0035 49.9505 0.0000 -0.0043
# 5 -0.0003 0.0000 -0.0002 0.0000 36.9705 -0.0062
# 6 -0.0040 -0.0005 -0.0312 -0.0043 -0.0062 -271.6885
#
#
#
# Elastic Compliance Matrix: (Units=1/GPa)
#
#
# Indices 1 2 3 4 5 6 
#
# 1 0.008836 -0.003637 -0.001424 0.000000 0.000000 0.000000
# 2 -0.003637 0.013333 -0.002902 0.000000 0.000000 0.000000
# 3 -0.001424 -0.002902 0.005931 0.000000 0.000000 -0.000001
# 4 0.000000 0.000000 0.000000 0.020020 0.000000 0.000000
# 5 0.000000 0.000000 0.000000 0.000000 0.027049 -0.000001
# 6 0.000000 0.000000 -0.000001 0.000000 -0.000001 -0.003681
#
#
# Mechanical properties :
#
#
# Convention : Reuss Voigt Hill
#
# Bulk Modulus (GPa) = 82.14303 90.42114 86.28208
# Shear Modulus (GPa) = 54.66147 -17.91892 18.37127
#
# Velocity S-wave (km/s) = 5.16172 -2.95536 2.99243
# Velocity P-wave (km/s) = 8.69270 5.69456 7.34816
#
# Compressibility (1/GPa) = 0.01217389
#
# Stress axis : x y z
#
# Youngs Moduli (GPa) = 113.17361 75.00050 168.60754
#
# Poissons Ratio (x) = 0.27277 0.24007
# Poissons Ratio (y) = 0.41160 0.48937
# Poissons Ratio (z) = 0.16114 0.21768
#
# Static dielectric constant tensor:
#      x y z
#    x 3.927180 0.000010 0.000000 
#    y 0.000010 4.038930 0.000000 
#    z 0.000000 0.000000 3.959730 
# 
# 
# High freq. dielectric constant tensor:
#      x y z
#    x 1.814640 0.000000 0.000000 
#    y 0.000000 1.808220 0.000000 
#    z 0.000000 0.000000 1.826910 
# 
# From -- ./inp_files/8903.got.cif
#   From: 2010.03.12/outbox.cif.g09.slc.cpg/sg74_5_cif.got.tgz:8903.got - 2010.04.16 15:46:19.
