data_PCOD8301210
_publ_section_title
;
Structure prediction by ZEFSAII (Michael W. Deem and Ramdas Pophale) SiO2 
 PCOD8301210
Probable space group: I M M A
;
_chemical_formula_sum "Si O2"
_cell_formula_units_Z 96
_cell_length_a 18.359336
_cell_length_b 19.391621
_cell_length_c 13.820613
_cell_angle_alpha 90.000000
_cell_angle_beta 90.000000
_cell_angle_gamma 90.000000
_cell_volume 4920.377125
_symmetry_space_group_name_H-M "I M M A"
_symmetry_group_IT_number 74
_symmetry_cell_setting 'orthorhombic'
loop_
_space_group_symop_operation_xyz
x,y,z
-x,1/2-y,z
x,-y,-z
-x,1/2+y,-z
-x,-y,-z
x,1/2+y,-z
-x,y,z
x,1/2-y,z
1/2+x,1/2+y,1/2+z
1/2-x,-y,1/2+z
1/2+x,1/2-y,1/2-z
1/2-x,y,1/2-z
1/2-x,1/2-y,1/2-z
1/2+x,y,1/2-z
1/2-x,1/2+y,1/2+z
1/2+x,-y,1/2+z
loop_
_atom_site_type_symbol
_atom_site_label
_atom_site_fract_x
_atom_site_fract_y
_atom_site_fract_z
Si Si1 0.421025 0.329235 0.797113
Si Si2 0.416535 0.943484 0.917537
Si Si3 0.836878 0.167668 0.520808
Si Si4 0.201208 0.422893 0.034553
Si Si5 0.171290 0.480288 0.229054
Si Si6 0.083909 0.907493 0.116684
O O1 0.500000 0.365800 0.819633
O O2 0.431424 0.250000 0.816920
O O3 0.357216 0.354532 0.868652
O O4 0.401977 0.340941 0.684457
O O5 0.500000 0.948597 0.883807
O O6 0.362446 0.952584 0.827751
O O7 0.400448 0.866268 0.955872
O O8 0.398536 0.000000 0.000000
O O9 0.833567 0.250000 0.504383
O O10 0.760474 0.133181 0.495505
O O11 0.187747 0.419826 0.150121
O O12 0.224537 0.500000 0.000000
O O13 0.126226 0.400362 0.983464
O O14 0.250000 0.515928 0.250000
O O15 0.112976 0.530268 0.181561
O O16 0.000000 0.919230 0.090112
#
# Coordination Sequence:
#
# PCOD8301210 Si02
#       6
#    16  16  16  16  16  16
#     4   9  19  35  56  85 121 155 187 235 298 359
#     4  11  23  39  64  92 121 155 196 245 304 361
#     4  11  22  37  59  88 122 155 201 246 294 351
#     4  10  23  39  59  84 119 161 194 244 294 353
#     4  11  22  37  60  85 117 155 194 246 294 350
#     4  10  22  37  59  88 118 154 193 242 295 358
#
# _framework density 19.5107
#
# number of rings (size 3 to 8) (size 9 to 14) (size 15 to 20)
#    0.000    1.667    1.667    2.500    7.000    8.000 
#    0.000    3.333    0.000    0.000    0.000    2.333 
#    0.000    0.000    0.000    0.000    0.000    0.000 
#
# Total GULP energy -594838.381283 kJ/mol
# GULP energy per Si atom -12392.466277 kJ/mol
# Density = 1.946629 g / cm^3
# Si number density = 19.510700 Si / 1000 Ang^3
#
#
#
# Elastic Constant Matrix: (Units=GPa)
#
#
# Indices 1 2 3 4 5 6 
#
# 1 132.4794 45.9571 58.2630 0.0000 0.0000 0.0000
# 2 45.9571 73.4871 33.3417 0.0000 0.0000 0.0000
# 3 58.2630 33.3417 115.9494 0.0000 0.0000 0.0000
# 4 0.0000 0.0000 0.0000 21.8071 0.0000 0.0000
# 5 0.0000 0.0000 0.0000 0.0000 27.9777 0.0000
# 6 0.0000 0.0000 0.0000 0.0000 0.0000 25.4690
#
#
#
# Elastic Compliance Matrix: (Units=1/GPa)
#
#
# Indices 1 2 3 4 5 6 
#
# 1 0.011129 -0.005086 -0.004130 0.000000 0.000000 0.000000
# 2 -0.005086 0.017974 -0.002613 0.000000 0.000000 0.000000
# 3 -0.004130 -0.002613 0.011451 0.000000 0.000000 0.000000
# 4 0.000000 0.000000 0.000000 0.045857 0.000000 0.000000
# 5 0.000000 0.000000 0.000000 0.000000 0.035743 0.000000
# 6 0.000000 0.000000 0.000000 0.000000 0.000000 0.039263
#
#
# Mechanical properties :
#
#
# Convention : Reuss Voigt Hill
#
# Bulk Modulus (GPa) = 59.18300 66.33773 62.76037
# Shear Modulus (GPa) = 26.21840 27.34102 26.77971
#
# Velocity S-wave (km/s) = 3.66976 3.74750 3.70883
# Velocity P-wave (km/s) = 6.95382 7.26633 7.11179
#
# Compressibility (1/GPa) = 0.01689674
#
# Stress axis : x y z
#
# Youngs Moduli (GPa) = 89.85647 55.63584 87.32995
#
# Poissons Ratio (x) = 0.28297 0.36064
# Poissons Ratio (y) = 0.45702 0.22818
# Poissons Ratio (z) = 0.37107 0.14537
#
# Static dielectric constant tensor:
#      x y z
#    x 3.844420 0.000000 0.000000 
#    y 0.000000 3.416560 0.000000 
#    z 0.000000 0.000000 4.057590 
# 
# 
# High freq. dielectric constant tensor:
#      x y z
#    x 1.777990 0.000000 0.000000 
#    y 0.000000 1.729270 0.000000 
#    z 0.000000 0.000000 1.764950 
# 
# From -- ./inp_files/32411.got.cif
#   From: 2010.03.12/outbox.cif.g09.slc.cpg/sg74_17_cif.got.tgz:32411.got - 2010.04.16 15:46:19.
