data_PCOD8301709
_publ_section_title
;
Structure prediction by ZEFSAII (Michael W. Deem and Ramdas Pophale) SiO2 
 PCOD8301709
Probable space group: I M M A
;
_chemical_formula_sum "Si O2"
_cell_formula_units_Z 56
_cell_length_a 18.428531
_cell_length_b 14.133054
_cell_length_c 9.069620
_cell_angle_alpha 90.000000
_cell_angle_beta 90.000000
_cell_angle_gamma 90.000000
_cell_volume 2362.195442
_symmetry_space_group_name_H-M "I M M A"
_symmetry_group_IT_number 74
_symmetry_cell_setting 'orthorhombic'
loop_
_space_group_symop_operation_xyz
x,y,z
-x,1/2-y,z
x,-y,-z
-x,1/2+y,-z
-x,-y,-z
x,1/2+y,-z
-x,y,z
x,1/2-y,z
1/2+x,1/2+y,1/2+z
1/2-x,-y,1/2+z
1/2+x,1/2-y,1/2-z
1/2-x,y,1/2-z
1/2-x,1/2-y,1/2-z
1/2+x,y,1/2-z
1/2-x,1/2+y,1/2+z
1/2+x,-y,1/2+z
loop_
_atom_site_type_symbol
_atom_site_label
_atom_site_fract_x
_atom_site_fract_y
_atom_site_fract_z
Si Si1 0.144509 0.852190 0.253118
Si Si2 0.641034 0.860208 0.908909
Si Si3 0.750000 0.990244 0.750000
Si Si4 0.500000 0.909810 0.720095
Si Si5 0.000000 0.120230 0.898537
O O1 0.185572 0.750000 0.251287
O O2 0.125777 0.882315 0.420677
O O3 0.191805 0.936096 0.176598
O O4 0.071266 0.833319 0.166849
O O5 0.657654 0.750000 0.879879
O O6 0.571067 0.890981 0.816251
O O7 0.711456 0.922222 0.867529
O O8 0.500000 0.849128 0.570656
O O9 0.500000 0.012551 0.650593
#
# Coordination Sequence:
#
# PCOD8301709 Si02
#       5
#    16  16   8   8   8
#     4  11  25  45  71 101 134 176 226 277 333 398
#     4  11  25  45  71 101 134 176 226 277 333 398
#     4  12  24  42  68  96 136 178 220 274 328 400
#     4  11  24  43  70 101 135 174 223 280 335 392
#     4  11  24  43  70 101 135 174 223 280 335 392
#
# _framework density 23.706759999999999
#
# number of rings (size 3 to 8) (size 9 to 14) (size 15 to 20)
#    0.000    0.857    2.857    3.429    0.000   10.286 
#    0.000    0.000    0.000    0.000    0.000    0.000 
#    0.000    0.000    0.000    0.000    0.000    0.000 
#
# Total GULP energy -346977.040124 kJ/mol
# GULP energy per Si atom -12392.037147 kJ/mol
# Density = 2.365280 g / cm^3
# Si number density = 23.706760 Si / 1000 Ang^3
#
#
#
# Elastic Constant Matrix: (Units=GPa)
#
#
# Indices 1 2 3 4 5 6 
#
# 1 155.8489 55.5159 74.8892 0.0000 0.0000 0.0000
# 2 55.5159 138.5684 42.4120 0.0000 0.0000 0.0000
# 3 74.8892 42.4120 138.0501 0.0000 0.0000 0.0000
# 4 0.0000 0.0000 0.0000 25.4647 0.0000 0.0000
# 5 0.0000 0.0000 0.0000 0.0000 24.2080 0.0000
# 6 0.0000 0.0000 0.0000 0.0000 0.0000 -14.5335
#
#
#
# Elastic Compliance Matrix: (Units=1/GPa)
#
#
# Indices 1 2 3 4 5 6 
#
# 1 0.009363 -0.002425 -0.004334 0.000000 0.000000 0.000000
# 2 -0.002425 0.008594 -0.001325 0.000000 0.000000 0.000000
# 3 -0.004334 -0.001325 0.010002 0.000000 0.000000 0.000000
# 4 0.000000 0.000000 0.000000 0.039270 0.000000 0.000000
# 5 0.000000 0.000000 0.000000 0.000000 0.041309 0.000000
# 6 0.000000 0.000000 0.000000 0.000000 0.000000 -0.068806
#
#
# Mechanical properties :
#
#
# Convention : Reuss Voigt Hill
#
# Bulk Modulus (GPa) = 84.80999 86.45575 85.63287
# Shear Modulus (GPa) = 83.57233 24.33785 53.95509
#
# Velocity S-wave (km/s) = 5.94383 3.20757 4.77585
# Velocity P-wave (km/s) = 9.10811 7.08985 8.16161
#
# Compressibility (1/GPa) = 0.01179106
#
# Stress axis : x y z
#
# Youngs Moduli (GPa) = 106.80509 116.36681 99.97969
#
# Poissons Ratio (x) = 0.28213 0.43334
# Poissons Ratio (y) = 0.25895 0.13246
# Poissons Ratio (z) = 0.46292 0.15417
#
# Static dielectric constant tensor:
#      x y z
#    x 4.421400 0.000000 0.000000 
#    y 0.000000 4.705660 0.000000 
#    z 0.000000 0.000000 4.323310 
# 
# 
# High freq. dielectric constant tensor:
#      x y z
#    x 1.941120 0.000000 0.000000 
#    y 0.000000 1.977470 0.000000 
#    z 0.000000 0.000000 1.925050 
# 
# From -- ./inp_files/11665.got.cif
#   From: 2010.03.12/outbox.cif.g09.slc.cpg/sg74_6_cif.got.tgz:11665.got - 2010.04.16 15:46:19.
