data_PCOD8301778
_publ_section_title
;
Structure prediction by ZEFSAII (Michael W. Deem and Ramdas Pophale) SiO2 
 PCOD8301778
Probable space group: I M M A
;
_chemical_formula_sum "Si O2"
_cell_formula_units_Z 80
_cell_length_a 28.971190
_cell_length_b 7.752160
_cell_length_c 26.813518
_cell_angle_alpha 90.000000
_cell_angle_beta 90.000000
_cell_angle_gamma 90.000000
_cell_volume 6022.029245
_symmetry_space_group_name_H-M "I M M A"
_symmetry_group_IT_number 74
_symmetry_cell_setting 'orthorhombic'
loop_
_space_group_symop_operation_xyz
x,y,z
-x,1/2-y,z
x,-y,-z
-x,1/2+y,-z
-x,-y,-z
x,1/2+y,-z
-x,y,z
x,1/2-y,z
1/2+x,1/2+y,1/2+z
1/2-x,-y,1/2+z
1/2+x,1/2-y,1/2-z
1/2-x,y,1/2-z
1/2-x,1/2-y,1/2-z
1/2+x,y,1/2-z
1/2-x,1/2+y,1/2+z
1/2+x,-y,1/2+z
loop_
_atom_site_type_symbol
_atom_site_label
_atom_site_fract_x
_atom_site_fract_y
_atom_site_fract_z
Si Si1 0.825509 0.750000 0.758010
Si Si2 0.746862 0.750000 0.831843
Si Si3 0.699251 0.942599 0.123931
Si Si4 0.948726 0.545518 0.361149
Si Si5 0.619274 0.047924 0.943236
Si Si6 0.127446 0.441488 0.713682
O O1 0.798644 0.750000 0.810427
O O2 0.789934 0.750000 0.712504
O O3 0.857405 0.579114 0.755560
O O4 0.740245 0.578177 0.865393
O O5 0.720036 0.750000 0.114650
O O6 0.669696 0.012505 0.076405
O O7 0.664930 0.934100 0.170273
O O8 0.951794 0.750000 0.366212
O O9 0.921740 0.467279 0.409334
O O10 0.921153 0.498493 0.310522
O O11 0.000000 0.463926 0.358832
O O12 0.617818 0.250000 0.935379
O O13 0.611116 0.000000 0.000000
O O14 0.123294 0.250000 0.737965
#
# Coordination Sequence:
#
# PCOD8301778 Si02
#       6
#     8   8  16  16  16  16
#     4   9  16  24  35  56  70  80 109 134 166 223
#     4   9  16  24  38  52  68  88 102 134 174 211
#     4   8  15  26  36  49  67  87 111 135 171 218
#     4   8  14  26  40  50  65  92 121 148 184 223
#     4   9  17  26  37  51  66  88 117 152 188 224
#     4   8  14  25  38  49  67  90 108 136 174 209
#
# _framework density 13.284558000000001
#
# number of rings (size 3 to 8) (size 9 to 14) (size 15 to 20)
#    0.000    3.600    0.000    2.400    1.400    1.200 
#    1.800    4.500    0.000    0.000    0.000    0.000 
#    0.000    0.000    0.000    0.000    0.000    0.000 
#
# Total GULP energy -495586.849071 kJ/mol
# GULP energy per Si atom -12389.671227 kJ/mol
# Density = 1.325432 g / cm^3
# Si number density = 13.284558 Si / 1000 Ang^3
#
#
#
# Elastic Constant Matrix: (Units=GPa)
#
#
# Indices 1 2 3 4 5 6 
#
# 1 73.8045 39.7541 50.1240 0.0000 0.0000 0.0000
# 2 39.7541 66.8786 27.1704 0.0000 0.0000 0.0000
# 3 50.1240 27.1704 35.3989 0.0000 0.0000 0.0000
# 4 0.0000 0.0000 0.0000 16.0510 0.0000 0.0000
# 5 0.0000 0.0000 0.0000 0.0000 17.4656 0.0000
# 6 0.0000 0.0000 0.0000 0.0000 0.0000 11.0173
#
#
#
# Elastic Compliance Matrix: (Units=1/GPa)
#
#
# Indices 1 2 3 4 5 6 
#
# 1 0.357854 -0.009964 -0.499064 0.000000 0.000000 0.000000
# 2 -0.009964 0.022005 -0.002781 0.000000 0.000000 0.000000
# 3 -0.499064 -0.002781 0.737047 0.000000 0.000000 0.000000
# 4 0.000000 0.000000 0.000000 0.062301 0.000000 0.000000
# 5 0.000000 0.000000 0.000000 0.000000 0.057255 0.000000
# 6 0.000000 0.000000 0.000000 0.000000 0.000000 0.090767
#
#
# Mechanical properties :
#
#
# Convention : Reuss Voigt Hill
#
# Bulk Modulus (GPa) = 10.71963 45.57544 28.14754
# Shear Modulus (GPa) = 2.09913 12.84235 7.47074
#
# Velocity S-wave (km/s) = 1.25839 3.11257 2.37399
# Velocity P-wave (km/s) = 3.19346 6.87743 5.36177
#
# Compressibility (1/GPa) = 0.09328678
#
# Stress axis : x y z
#
# Youngs Moduli (GPa) = 2.79444 45.44381 1.35677
#
# Poissons Ratio (x) = 0.45280 0.67711
# Poissons Ratio (y) = 0.02784 0.00377
# Poissons Ratio (z) = 1.39460 0.12640
#
# Static dielectric constant tensor:
#      x y z
#    x 2.689270 0.000000 0.000000 
#    y 0.000000 2.842260 0.000000 
#    z 0.000000 0.000000 2.139380 
# 
# 
# High freq. dielectric constant tensor:
#      x y z
#    x 1.472350 0.000000 0.000000 
#    y 0.000000 1.513640 0.000000 
#    z 0.000000 0.000000 1.453560 
# 
# From -- ./inp_files/49006.got.cif
#   From: 2010.03.12/outbox.cif.g09.slc.cpg/sg74_25_cif.got.tgz:49006.got - 2010.04.16 15:46:19.
