data_PCOD8301098
_publ_section_title
;
Structure prediction by ZEFSAII (Michael W. Deem and Ramdas Pophale) SiO2 
 PCOD8301098
Probable space group: I M M A
;
_chemical_formula_sum "Si O2"
_cell_formula_units_Z 48
_cell_length_a 5.149072
_cell_length_b 17.802397
_cell_length_c 25.636450
_cell_angle_alpha 90.000000
_cell_angle_beta 90.000000
_cell_angle_gamma 90.000000
_cell_volume 2349.986312
_symmetry_space_group_name_H-M "I M M A"
_symmetry_group_IT_number 74
_symmetry_cell_setting 'orthorhombic'
loop_
_space_group_symop_operation_xyz
x,y,z
-x,1/2-y,z
x,-y,-z
-x,1/2+y,-z
-x,-y,-z
x,1/2+y,-z
-x,y,z
x,1/2-y,z
1/2+x,1/2+y,1/2+z
1/2-x,-y,1/2+z
1/2+x,1/2-y,1/2-z
1/2-x,y,1/2-z
1/2-x,1/2-y,1/2-z
1/2+x,y,1/2-z
1/2-x,1/2+y,1/2+z
1/2+x,-y,1/2+z
loop_
_atom_site_type_symbol
_atom_site_label
_atom_site_fract_x
_atom_site_fract_y
_atom_site_fract_z
Si Si1 0.500000 0.334304 0.506348
Si Si2 0.500000 0.250000 0.711978
Si Si3 0.000000 0.590878 0.715018
Si Si4 0.000000 0.375529 0.877296
Si Si5 0.500000 0.250000 0.214143
Si Si6 0.000000 0.478835 0.627285
Si Si7 0.500000 0.923124 0.969469
O O1 0.500000 0.250000 0.484424
O O2 0.500000 0.328699 0.569219
O O3 0.250648 0.375756 0.483991
O O4 0.750000 0.250000 0.750000
O O5 0.500000 0.177317 0.674038
O O6 0.750000 0.588491 0.750000
O O7 0.000000 0.670695 0.681970
O O8 0.000000 0.514368 0.683692
O O9 0.749667 0.427567 0.879272
O O10 0.750000 0.250000 0.250000
O O11 0.000000 0.552140 0.590479
O O12 0.500000 0.000000 0.000000
#
# Coordination Sequence:
#
# PCOD8301098 Si02
#       7
#     8   4   8   8   4   8   8
#     4  12  24  44  68  95 131 176 221 267 333 416
#     4  12  28  46  66  98 140 176 234 294 328 386
#     4  10  21  39  61  86 120 161 204 252 309 379
#     4  12  24  43  67  92 125 181 217 261 336 399
#     4   8  16  34  58  76 104 152 190 226 292 362
#     4  12  25  39  68  98 129 166 219 271 328 391
#     4  12  23  42  69  97 132 169 216 277 334 395
#
# _framework density 20.425651999999999
#
# number of rings (size 3 to 8) (size 9 to 14) (size 15 to 20)
#    0.000    0.667    4.167    4.000    0.000    4.000 
#    3.000    0.000    3.667    0.000    0.000    0.000 
#    0.000    0.000    0.000    0.000    0.000    0.000 
#
# Total GULP energy -297420.915820 kJ/mol
# GULP energy per Si atom -12392.538159 kJ/mol
# Density = 2.037916 g / cm^3
# Si number density = 20.425652 Si / 1000 Ang^3
#
#
#
# Elastic Constant Matrix: (Units=GPa)
#
#
# Indices 1 2 3 4 5 6 
#
# 1 206.6765 82.1838 51.0307 0.0000 0.0000 0.0000
# 2 82.1838 160.2249 51.3135 0.0000 0.0000 0.0000
# 3 51.0307 51.3135 95.8189 0.0000 0.0000 0.0000
# 4 0.0000 0.0000 0.0000 48.2170 0.0000 0.0000
# 5 0.0000 0.0000 0.0000 0.0000 20.7852 0.0000
# 6 0.0000 0.0000 0.0000 0.0000 0.0000 -12.5871
#
#
#
# Elastic Compliance Matrix: (Units=1/GPa)
#
#
# Indices 1 2 3 4 5 6 
#
# 1 0.006376 -0.002635 -0.001985 0.000000 0.000000 0.000000
# 2 -0.002635 0.008622 -0.003214 0.000000 0.000000 0.000000
# 3 -0.001985 -0.003214 0.013215 0.000000 0.000000 0.000000
# 4 0.000000 0.000000 0.000000 0.020740 0.000000 0.000000
# 5 0.000000 0.000000 0.000000 0.000000 0.048111 0.000000
# 6 0.000000 0.000000 0.000000 0.000000 0.000000 -0.079446
#
#
# Mechanical properties :
#
#
# Convention : Reuss Voigt Hill
#
# Bulk Modulus (GPa) = 79.71008 92.41958 86.06483
# Shear Modulus (GPa) = 133.45102 29.82917 81.64010
#
# Velocity S-wave (km/s) = 8.09178 3.82563 6.32899
# Velocity P-wave (km/s) = 11.24329 8.05351 9.77933
#
# Compressibility (1/GPa) = 0.01254546
#
# Stress axis : x y z
#
# Youngs Moduli (GPa) = 156.83043 115.98113 75.67381
#
# Poissons Ratio (x) = 0.30560 0.15020
# Poissons Ratio (y) = 0.41324 0.24322
# Poissons Ratio (z) = 0.31127 0.37277
#
# Static dielectric constant tensor:
#      x y z
#    x 3.854730 0.000000 0.000000 
#    y 0.000000 4.145890 0.000000 
#    z 0.000000 0.000000 18.165700 
# 
# 
# High freq. dielectric constant tensor:
#      x y z
#    x 1.824890 0.000000 0.000000 
#    y 0.000000 1.824810 0.000000 
#    z 0.000000 0.000000 1.783080 
# 
# From -- ./inp_files/62932.got.cif
#   From: 2010.03.12/outbox.cif.g09.slc.cpg/sg74_32_cif.got.tgz:62932.got - 2010.04.16 15:46:19.
