data_PCOD8301464
_publ_section_title
;
Structure prediction by ZEFSAII (Michael W. Deem and Ramdas Pophale) SiO2 
 PCOD8301464
Probable space group: I M M A
;
_chemical_formula_sum "Si O2"
_cell_formula_units_Z 96
_cell_length_a 24.737606
_cell_length_b 18.847005
_cell_length_c 11.570743
_cell_angle_alpha 90.000000
_cell_angle_beta 90.000000
_cell_angle_gamma 90.000000
_cell_volume 5394.625009
_symmetry_space_group_name_H-M "I M M A"
_symmetry_group_IT_number 74
_symmetry_cell_setting 'orthorhombic'
loop_
_space_group_symop_operation_xyz
x,y,z
-x,1/2-y,z
x,-y,-z
-x,1/2+y,-z
-x,-y,-z
x,1/2+y,-z
-x,y,z
x,1/2-y,z
1/2+x,1/2+y,1/2+z
1/2-x,-y,1/2+z
1/2+x,1/2-y,1/2-z
1/2-x,y,1/2-z
1/2-x,1/2-y,1/2-z
1/2+x,y,1/2-z
1/2-x,1/2+y,1/2+z
1/2+x,-y,1/2+z
loop_
_atom_site_type_symbol
_atom_site_label
_atom_site_fract_x
_atom_site_fract_y
_atom_site_fract_z
Si Si1 0.937966 0.670594 0.851419
Si Si2 0.739260 0.329229 0.383104
Si Si3 0.852322 0.061022 0.092986
Si Si4 0.668475 0.393174 0.999319
Si Si5 0.807861 0.506646 0.309527
Si Si6 0.060790 0.330988 0.418911
O O1 0.921439 0.750000 0.892234
O O2 0.904827 0.610504 0.917852
O O3 0.926144 0.664236 0.715906
O O4 0.000000 0.656475 0.880107
O O5 0.714093 0.250000 0.386613
O O6 0.750000 0.350729 0.250000
O O7 0.698220 0.387547 0.432232
O O8 0.793380 0.327138 0.463434
O O9 0.850966 0.021006 0.216062
O O10 0.854642 0.000000 0.000000
O O11 0.691934 0.452391 0.085221
O O12 0.604865 0.377619 0.013689
O O13 0.675920 0.417197 0.865720
O O14 0.750000 0.513776 0.250000
O O15 0.064982 0.250000 0.461209
O O16 0.000000 0.359787 0.444650
#
# Coordination Sequence:
#
# PCOD8301464 Si02
#       6
#    16  16  16  16  16  16
#     4   9  18  34  55  79 108 137 176 234 286 323
#     4  11  20  31  53  81 105 133 181 233 272 325
#     4  12  21  34  53  76 110 144 180 226 269 332
#     4  11  19  33  55  76 111 145 173 223 274 333
#     4  11  21  34  49  76 109 148 177 207 273 327
#     4   9  17  32  56  84 111 137 174 233 291 326
#
# _framework density 17.795490000000001
#
# number of rings (size 3 to 8) (size 9 to 14) (size 15 to 20)
#    0.000    1.500    5.000    3.000    0.000    3.000 
#    0.000    2.500    0.000   11.000    0.000    2.333 
#    0.000    0.000    0.000    0.000    0.000    0.000 
#
# Total GULP energy -594942.248589 kJ/mol
# GULP energy per Si atom -12394.630179 kJ/mol
# Density = 1.775499 g / cm^3
# Si number density = 17.795490 Si / 1000 Ang^3
#
#
#
# Elastic Constant Matrix: (Units=GPa)
#
#
# Indices 1 2 3 4 5 6 
#
# 1 125.0272 66.0382 38.5353 0.0000 0.0000 0.0000
# 2 66.0382 108.4577 50.6331 0.0000 0.0000 0.0000
# 3 38.5353 50.6331 61.2002 0.0000 0.0000 0.0000
# 4 0.0000 0.0000 0.0000 23.4420 0.0000 0.0000
# 5 0.0000 0.0000 0.0000 0.0000 13.8893 0.0000
# 6 0.0000 0.0000 0.0000 0.0000 0.0000 17.9527
#
#
#
# Elastic Compliance Matrix: (Units=1/GPa)
#
#
# Indices 1 2 3 4 5 6 
#
# 1 0.012014 -0.006165 -0.002465 0.000000 0.000000 0.000000
# 2 -0.006165 0.018186 -0.011164 0.000000 0.000000 0.000000
# 3 -0.002465 -0.011164 0.027128 0.000000 0.000000 0.000000
# 4 0.000000 0.000000 0.000000 0.042659 0.000000 0.000000
# 5 0.000000 0.000000 0.000000 0.000000 0.071998 0.000000
# 6 0.000000 0.000000 0.000000 0.000000 0.000000 0.055702
#
#
# Mechanical properties :
#
#
# Convention : Reuss Voigt Hill
#
# Bulk Modulus (GPa) = 56.36551 67.23315 61.79933
# Shear Modulus (GPa) = 18.30256 20.35536 19.32896
#
# Velocity S-wave (km/s) = 3.21049 3.38575 3.29929
# Velocity P-wave (km/s) = 6.74432 7.29023 7.02258
#
# Compressibility (1/GPa) = 0.01774135
#
# Stress axis : x y z
#
# Youngs Moduli (GPa) = 83.23679 54.98873 36.86224
#
# Poissons Ratio (x) = 0.33898 0.09085
# Poissons Ratio (y) = 0.51312 0.41153
# Poissons Ratio (z) = 0.20514 0.61389
#
# Static dielectric constant tensor:
#      x y z
#    x 3.344830 0.000000 0.000000 
#    y 0.000000 3.469350 0.000000 
#    z 0.000000 0.000000 3.223340 
# 
# 
# High freq. dielectric constant tensor:
#      x y z
#    x 1.691220 0.000000 0.000000 
#    y 0.000000 1.689710 0.000000 
#    z 0.000000 0.000000 1.648710 
# 
# From -- ./inp_files/25294.got.cif
#   From: 2010.03.12/outbox.cif.g09.slc.cpg/sg74_13_cif.got.tgz:25294.got - 2010.04.16 15:46:19.
