data_PCOD8301364
_publ_section_title
;
Structure prediction by ZEFSAII (Michael W. Deem and Ramdas Pophale) SiO2 
 PCOD8301364
Probable space group: I M M A
;
_chemical_formula_sum "Si O2"
_cell_formula_units_Z 72
_cell_length_a 15.249602
_cell_length_b 8.626536
_cell_length_c 26.241040
_cell_angle_alpha 90.000000
_cell_angle_beta 90.000000
_cell_angle_gamma 90.000000
_cell_volume 3452.041368
_symmetry_space_group_name_H-M "I M M A"
_symmetry_group_IT_number 74
_symmetry_cell_setting 'orthorhombic'
loop_
_space_group_symop_operation_xyz
x,y,z
-x,1/2-y,z
x,-y,-z
-x,1/2+y,-z
-x,-y,-z
x,1/2+y,-z
-x,y,z
x,1/2-y,z
1/2+x,1/2+y,1/2+z
1/2-x,-y,1/2+z
1/2+x,1/2-y,1/2-z
1/2-x,y,1/2-z
1/2-x,1/2-y,1/2-z
1/2+x,y,1/2-z
1/2-x,1/2+y,1/2+z
1/2+x,-y,1/2+z
loop_
_atom_site_type_symbol
_atom_site_label
_atom_site_fract_x
_atom_site_fract_y
_atom_site_fract_z
Si Si1 0.000000 0.932709 0.289727
Si Si2 0.500000 0.931972 0.091630
Si Si3 0.500000 0.433175 0.555718
Si Si4 0.155442 0.428825 0.226059
Si Si5 0.168351 0.067858 0.882826
Si Si6 0.179720 0.932683 0.553487
O O1 0.000000 0.750000 0.279591
O O2 0.000000 0.974147 0.349072
O O3 0.913878 0.008328 0.266326
O O4 0.500000 0.750000 0.082323
O O5 0.416036 0.003035 0.064552
O O6 0.500000 0.250000 0.553634
O O7 0.500000 0.500000 0.500000
O O8 0.586103 0.493288 0.584668
O O9 0.136043 0.250000 0.213372
O O10 0.250000 0.452157 0.250000
O O11 0.148283 0.529631 0.175399
O O12 0.183294 0.250000 0.889167
O O13 0.255364 0.980937 0.901202
O O14 0.175914 0.750000 0.549777
O O15 0.215061 0.000000 0.500000
#
# Coordination Sequence:
#
# PCOD8301364 Si02
#       6
#     8   8   8  16  16  16
#     4  11  24  41  64  92 124 164 207 254 309 372
#     4  11  24  43  66  93 124 162 207 256 313 372
#     4  10  23  40  61  89 120 156 199 248 299 356
#     4  11  24  41  63  92 125 162 206 256 310 368
#     4  11  23  41  64  92 125 162 207 255 307 368
#     4  12  25  42  64  92 126 164 207 256 311 370
#
# _framework density 20.857223999999999
#
# number of rings (size 3 to 8) (size 9 to 14) (size 15 to 20)
#    0.000    0.889    0.000    7.000    0.000   11.556 
#    0.000    0.000    0.000    0.000    0.000    0.000 
#    0.000    0.000    0.000    0.000    0.000    0.000 
#
# Total GULP energy -446713.873771 kJ/mol
# GULP energy per Si atom -12408.718716 kJ/mol
# Density = 2.080975 g / cm^3
# Si number density = 20.857224 Si / 1000 Ang^3
#
#
#
# Elastic Constant Matrix: (Units=GPa)
#
#
# Indices 1 2 3 4 5 6 
#
# 1 101.0289 39.6817 17.5393 0.0000 0.0000 0.0000
# 2 39.6817 100.5494 39.7966 0.0000 0.0000 0.0000
# 3 17.5393 39.7966 100.8679 0.0000 0.0000 0.0000
# 4 0.0000 0.0000 0.0000 38.9353 0.0000 0.0000
# 5 0.0000 0.0000 0.0000 0.0000 554.5339 0.0000
# 6 0.0000 0.0000 0.0000 0.0000 0.0000 33.3798
#
#
#
# Elastic Compliance Matrix: (Units=1/GPa)
#
#
# Indices 1 2 3 4 5 6 
#
# 1 0.011719 -0.004525 -0.000252 0.000000 0.000000 0.000000
# 2 -0.004525 0.013533 -0.004553 0.000000 0.000000 0.000000
# 3 -0.000252 -0.004553 0.011754 0.000000 0.000000 0.000000
# 4 0.000000 0.000000 0.000000 0.025684 0.000000 0.000000
# 5 0.000000 0.000000 0.000000 0.000000 0.001803 0.000000
# 6 0.000000 0.000000 0.000000 0.000000 0.000000 0.029958
#
#
# Mechanical properties :
#
#
# Convention : Reuss Voigt Hill
#
# Bulk Modulus (GPa) = 54.50707 55.16459 54.83583
# Shear Modulus (GPa) = 41.93678 139.06505 90.50092
#
# Velocity S-wave (km/s) = 4.48890 8.17432 6.59431
# Velocity P-wave (km/s) = 7.28403 10.75169 9.18303
#
# Compressibility (1/GPa) = 0.01834624
#
# Stress axis : x y z
#
# Youngs Moduli (GPa) = 85.32910 73.89329 85.07735
#
# Poissons Ratio (x) = 0.33437 0.02148
# Poissons Ratio (y) = 0.38612 0.38731
# Poissons Ratio (z) = 0.02154 0.33640
#
# Static dielectric constant tensor:
#      x y z
#    x 3.835470 0.000000 0.000000 
#    y 0.000000 3.871060 0.000000 
#    z 0.000000 0.000000 3.810870 
# 
# 
# High freq. dielectric constant tensor:
#      x y z
#    x 1.835380 0.000000 0.000000 
#    y 0.000000 1.827790 0.000000 
#    z 0.000000 0.000000 1.833550 
# 
# From -- ./inp_files/66775.got.cif
#   From: 2010.03.12/outbox.cif.g09.slc.cpg/sg74_34_cif.got.tgz:66775.got - 2010.04.16 15:46:19.
