data_PCOD8301906
_publ_section_title
;
Structure prediction by ZEFSAII (Michael W. Deem and Ramdas Pophale) SiO2 
 PCOD8301906
Probable space group: P 41
;
_chemical_formula_sum "Si O2"
_cell_formula_units_Z 20
_cell_length_a 9.451226
_cell_length_b 9.451226
_cell_length_c 10.133526
_cell_angle_alpha 90.000000
_cell_angle_beta 90.000000
_cell_angle_gamma 90.000000
_cell_volume 905.184029
_symmetry_space_group_name_H-M "P 41"
_symmetry_group_IT_number 76
_symmetry_cell_setting 'tetragonal'
loop_
_space_group_symop_operation_xyz
x,y,z
-y,x,1/4+z
-x,-y,1/2+z
y,-x,3/4+z
loop_
_atom_site_type_symbol
_atom_site_label
_atom_site_fract_x
_atom_site_fract_y
_atom_site_fract_z
Si Si1 0.609745 0.929698 0.855850
Si Si2 0.790406 0.267507 0.365256
Si Si3 0.961060 0.304105 0.111865
Si Si4 0.109954 0.939138 0.440564
Si Si5 0.373944 0.504846 0.179313
O O1 0.664748 0.909820 0.707268
O O2 0.586014 0.776983 0.924772
O O3 0.471834 0.027408 0.842151
O O4 0.725381 0.018540 0.936774
O O5 0.842195 0.263921 0.216335
O O6 0.650966 0.362982 0.368453
O O7 0.753894 0.110552 0.414163
O O8 0.910404 0.226525 0.977713
O O9 0.033493 0.968948 0.301719
O O10 0.419084 0.490825 0.334098
#
# Coordination Sequence:
#
# PCOD8301906 Si02
#       5
#     4   4   4   4   4
#     4  10  25  42  67 100 138 176 228 291 347 411
#     4  10  22  41  67  95 136 183 221 291 351 405
#     4  11  23  43  68  97 136 178 231 284 345 413
#     4  12  26  45  72 106 139 181 235 289 352 418
#     4   9  20  45  66  94 137 182 229 281 353 411
#
# _framework density 22.094957000000001
#
# number of rings (size 3 to 8) (size 9 to 14) (size 15 to 20)
#    0.000    1.600    2.000    1.200    5.600    1.600 
#    7.200    0.000    0.000    0.000    0.000    0.000 
#    0.000    0.000    0.000    0.000    0.000    0.000 
#
# Total GULP energy -248016.958068 kJ/mol
# GULP energy per Si atom -12400.847903 kJ/mol
# Density = 2.204467 g / cm^3
# Si number density = 22.094957 Si / 1000 Ang^3
#
#
#
# Elastic Constant Matrix: (Units=GPa)
#
#
# Indices 1 2 3 4 5 6 
#
# 1 107.5723 49.6156 44.3704 0.0000 0.0000 4.2150
# 2 49.6156 107.5723 44.3704 0.0000 0.0000 -4.2150
# 3 44.3704 44.3704 75.8637 0.0000 0.0000 0.0000
# 4 0.0000 0.0000 0.0000 35.5555 0.0000 0.0000
# 5 0.0000 0.0000 0.0000 0.0000 35.5555 0.0000
# 6 4.2150 -4.2150 0.0000 0.0000 0.0000 38.1632
#
#
#
# Elastic Compliance Matrix: (Units=1/GPa)
#
#
# Indices 1 2 3 4 5 6 
#
# 1 0.013517 -0.004019 -0.005555 0.000000 0.000000 -0.001937
# 2 -0.004019 0.013517 -0.005555 0.000000 0.000000 0.001937
# 3 -0.005555 -0.005555 0.019680 0.000000 0.000000 0.000000
# 4 0.000000 0.000000 0.000000 0.028125 0.000000 0.000000
# 5 0.000000 0.000000 0.000000 0.000000 0.028125 0.000000
# 6 -0.001937 0.001937 0.000000 0.000000 0.000000 0.026631
#
#
# Mechanical properties :
#
#
# Convention : Reuss Voigt Hill
#
# Bulk Modulus (GPa) = 60.77128 63.08015 61.92571
# Shear Modulus (GPa) = 30.24109 32.03162 31.13635
#
# Velocity S-wave (km/s) = 3.70359 3.81166 3.75801
# Velocity P-wave (km/s) = 6.77149 6.92699 6.84968
#
# Compressibility (1/GPa) = 0.01645514
#
# Stress axis : x y z
#
# Youngs Moduli (GPa) = 73.98119 73.98119 50.81425
#
# Poissons Ratio (x) = 0.29733 0.28228
# Poissons Ratio (y) = 0.29733 0.28228
# Poissons Ratio (z) = 0.41097 0.41097
#
# Static dielectric constant tensor:
#      x y z
#    x 4.002600 0.000000 0.000000 
#    y 0.000000 4.002600 0.000000 
#    z 0.000000 0.000000 3.834060 
# 
# 
# High freq. dielectric constant tensor:
#      x y z
#    x 1.869570 0.000000 0.000000 
#    y 0.000000 1.869570 0.000000 
#    z 0.000000 0.000000 1.861140 
# 
# From -- ./inp_files/776.got.cif
#   From: 2010.03.12/outbox.cif.g09.slc.cpg/sg76_cif.got.tgz:776.got - 2010.04.16 16:34:25.
