data_PCOD8301834
_publ_section_title
;
Structure prediction by ZEFSAII (Michael W. Deem and Ramdas Pophale) SiO2 
 PCOD8301834
Probable space group: P 4
;
_chemical_formula_sum "Si O2"
_cell_formula_units_Z 20
_cell_length_a 8.007151
_cell_length_b 8.007151
_cell_length_c 14.090220
_cell_angle_alpha 90.000000
_cell_angle_beta 90.000000
_cell_angle_gamma 90.000000
_cell_volume 903.386947
_symmetry_space_group_name_H-M "P 4"
_symmetry_group_IT_number 75
_symmetry_cell_setting 'tetragonal'
loop_
_space_group_symop_operation_xyz
x,y,z
-y,x,z
-x,-y,z
y,-x,z
loop_
_atom_site_type_symbol
_atom_site_label
_atom_site_fract_x
_atom_site_fract_y
_atom_site_fract_z
Si Si1 0.000000 0.500000 0.144460
Si Si2 0.917998 0.735985 0.664712
Si Si3 0.735985 0.082002 0.303967
Si Si4 0.236589 0.413995 0.484340
Si Si5 0.235569 0.576116 0.984339
Si Si6 0.500000 0.000000 0.824219
O O1 0.107695 0.372882 0.209058
O O2 0.125927 0.606095 0.078505
O O3 0.878531 0.619073 0.575434
O O4 0.793043 0.890646 0.662368
O O5 0.892305 0.627118 0.759621
O O6 0.619073 0.121470 0.393245
O O7 0.890646 0.206957 0.306312
O O8 0.394916 0.291953 0.484340
O O9 0.294289 0.384650 0.984339
O O10 0.125927 0.606095 0.890174
#
# Coordination Sequence:
#
# PCOD8301834 Si02
#       6
#     2   4   4   4   4   2
#     4  11  22  39  62  88 120 155 198 249 298 354
#     4  11  23  39  61  89 122 161 202 245 295 350
#     4  11  23  39  61  89 122 161 202 245 295 350
#     4  11  24  41  62  89 122 160 200 243 292 349
#     4  10  22  40  62  88 118 154 196 245 302 358
#     4  11  22  39  62  88 120 155 198 249 298 354
#
# _framework density 22.138905999999999
#
# number of rings (size 3 to 8) (size 9 to 14) (size 15 to 20)
#    0.000    1.200    0.000    6.000    0.000    4.000 
#    0.000    4.000    0.000    9.600    0.000    0.000 
#    0.000    0.000    0.000    0.000    0.000    0.000 
#
# Total GULP energy -248100.102053 kJ/mol
# GULP energy per Si atom -12405.005103 kJ/mol
# Density = 2.208852 g / cm^3
# Si number density = 22.138906 Si / 1000 Ang^3
#
#
#
# Elastic Constant Matrix: (Units=GPa)
#
#
# Indices 1 2 3 4 5 6 
#
# 1 96.5290 23.8823 53.8583 0.0000 0.0000 5.9427
# 2 23.8823 96.5290 53.8583 0.0000 0.0000 -5.9427
# 3 53.8583 53.8583 192.0751 0.0000 0.0000 0.0000
# 4 0.0000 0.0000 0.0000 6.9623 0.0000 0.0000
# 5 0.0000 0.0000 0.0000 0.0000 6.9623 0.0000
# 6 5.9427 -5.9427 0.0000 0.0000 0.0000 34.9954
#
#
#
# Elastic Compliance Matrix: (Units=1/GPa)
#
#
# Indices 1 2 3 4 5 6 
#
# 1 0.012622 -0.001537 -0.003108 0.000000 0.000000 -0.002404
# 2 -0.001537 0.012622 -0.003108 0.000000 0.000000 0.002404
# 3 -0.003108 -0.003108 0.006950 0.000000 0.000000 0.000000
# 4 0.000000 0.000000 0.000000 0.143631 0.000000 0.000000
# 5 0.000000 0.000000 0.000000 0.000000 0.143631 0.000000
# 6 -0.002404 0.002404 0.000000 0.000000 0.000000 0.029392
#
#
# Mechanical properties :
#
#
# Convention : Reuss Voigt Hill
#
# Bulk Modulus (GPa) = 59.92697 72.03676 65.98186
# Shear Modulus (GPa) = 13.51656 26.68626 20.10141
#
# Velocity S-wave (km/s) = 2.47358 3.47566 3.01652
# Velocity P-wave (km/s) = 5.94016 6.97969 6.48080
#
# Compressibility (1/GPa) = 0.01668698
#
# Stress axis : x y z
#
# Youngs Moduli (GPa) = 79.22618 79.22618 143.89501
#
# Poissons Ratio (x) = 0.12173 0.44729
# Poissons Ratio (y) = 0.12173 0.44729
# Poissons Ratio (z) = 0.24627 0.24627
#
# Static dielectric constant tensor:
#      x y z
#    x 3.910120 0.000000 0.000000 
#    y 0.000000 3.910120 0.000000 
#    z 0.000000 0.000000 4.069700 
# 
# 
# High freq. dielectric constant tensor:
#      x y z
#    x 1.875850 0.000000 0.000000 
#    y 0.000000 1.875850 0.000000 
#    z 0.000000 0.000000 1.884350 
# 
# From -- ./inp_files/525.got.cif
#   From: 2010.03.12/outbox.cif.g09.slc.cpg/sg75_cif.got.tgz:525.got - 2010.04.16 16:33:55.
