data_PCOD8301427
_publ_section_title
;
Structure prediction by ZEFSAII (Michael W. Deem and Ramdas Pophale) SiO2 
 PCOD8301427
Probable space group: I M M A
;
_chemical_formula_sum "Si O2"
_cell_formula_units_Z 88
_cell_length_a 8.625175
_cell_length_b 21.693168
_cell_length_c 24.177416
_cell_angle_alpha 90.000000
_cell_angle_beta 90.000000
_cell_angle_gamma 90.000000
_cell_volume 4523.772729
_symmetry_space_group_name_H-M "I M M A"
_symmetry_group_IT_number 74
_symmetry_cell_setting 'orthorhombic'
loop_
_space_group_symop_operation_xyz
x,y,z
-x,1/2-y,z
x,-y,-z
-x,1/2+y,-z
-x,-y,-z
x,1/2+y,-z
-x,y,z
x,1/2-y,z
1/2+x,1/2+y,1/2+z
1/2-x,-y,1/2+z
1/2+x,1/2-y,1/2-z
1/2-x,y,1/2-z
1/2-x,1/2-y,1/2-z
1/2+x,y,1/2-z
1/2-x,1/2+y,1/2+z
1/2+x,-y,1/2+z
loop_
_atom_site_type_symbol
_atom_site_label
_atom_site_fract_x
_atom_site_fract_y
_atom_site_fract_z
Si Si1 0.819028 0.404714 0.403533
Si Si2 0.676869 0.682867 0.513400
Si Si3 0.183329 0.347050 0.596468
Si Si4 0.683427 0.680969 0.806343
Si Si5 0.181417 0.023263 0.939107
Si Si6 0.181773 0.750000 0.311829
O O1 0.786747 0.368706 0.460398
O O2 0.754335 0.361389 0.355246
O O3 0.721708 0.467198 0.398320
O O4 0.000000 0.419626 0.398769
O O5 0.500000 0.659284 0.516828
O O6 0.694446 0.750000 0.542268
O O7 0.729013 0.691377 0.450481
O O8 0.234565 0.418223 0.588695
O O9 0.230281 0.312813 0.654340
O O10 0.000000 0.342403 0.588227
O O11 0.500000 0.681025 0.804702
O O12 0.748336 0.750000 0.815342
O O13 0.750000 0.652792 0.750000
O O14 0.000000 0.037676 0.941396
O O15 0.241323 0.000000 0.000000
O O16 0.250000 0.750000 0.250000
O O17 0.000000 0.750000 0.303974
#
# Coordination Sequence:
#
# PCOD8301427 Si02
#       6
#    16  16  16  16  16   8
#     4  11  22  36  57  84 117 156 198 242 289 347
#     4  11  22  34  53  85 121 156 193 238 295 352
#     4  11  22  39  62  89 118 152 197 243 297 359
#     4   9  19  36  57  82 112 148 191 237 285 336
#     4  11  23  38  57  86 122 158 198 240 294 359
#     4  10  24  44  68  96 122 156 203 254 307 366
#
# _framework density 19.45279
#
# number of rings (size 3 to 8) (size 9 to 14) (size 15 to 20)
#    0.000    1.455    2.727    2.727    0.000    5.455 
#    0.000    2.727    0.000    0.000    0.000    0.000 
#    0.000    0.000    0.000    0.000    0.000    0.000 
#
# Total GULP energy -545341.646847 kJ/mol
# GULP energy per Si atom -12394.128337 kJ/mol
# Density = 1.940852 g / cm^3
# Si number density = 19.452790 Si / 1000 Ang^3
#
#
#
# Elastic Constant Matrix: (Units=GPa)
#
#
# Indices 1 2 3 4 5 6 
#
# 1 36.6913 23.9550 15.7033 0.0000 0.0000 0.0000
# 2 23.9550 140.2196 54.7076 0.0000 0.0000 0.0000
# 3 15.7033 54.7076 110.7475 0.0000 0.0000 0.0000
# 4 0.0000 0.0000 0.0000 5.4449 0.0000 0.0000
# 5 0.0000 0.0000 0.0000 0.0000 31.0617 0.0000
# 6 0.0000 0.0000 0.0000 0.0000 0.0000 28.1991
#
#
#
# Elastic Compliance Matrix: (Units=1/GPa)
#
#
# Indices 1 2 3 4 5 6 
#
# 1 0.031107 -0.004451 -0.002212 0.000000 0.000000 0.000000
# 2 -0.004451 0.009471 -0.004048 0.000000 0.000000 0.000000
# 3 -0.002212 -0.004048 0.011343 0.000000 0.000000 0.000000
# 4 0.000000 0.000000 0.000000 0.183657 0.000000 0.000000
# 5 0.000000 0.000000 0.000000 0.000000 0.032194 0.000000
# 6 0.000000 0.000000 0.000000 0.000000 0.000000 0.035462
#
#
# Mechanical properties :
#
#
# Convention : Reuss Voigt Hill
#
# Bulk Modulus (GPa) = 32.78731 52.93225 42.85978
# Shear Modulus (GPa) = 14.93331 25.82732 20.38032
#
# Velocity S-wave (km/s) = 2.77369 3.64770 3.24030
# Velocity P-wave (km/s) = 5.21049 6.70900 6.00666
#
# Compressibility (1/GPa) = 0.03049960
#
# Stress axis : x y z
#
# Youngs Moduli (GPa) = 32.14686 105.58214 88.16331
#
# Poissons Ratio (x) = 0.46998 0.19501
# Poissons Ratio (y) = 0.14310 0.35684
# Poissons Ratio (z) = 0.07111 0.42734
#
# Static dielectric constant tensor:
#      x y z
#    x 3.429980 0.000000 0.000000 
#    y 0.000000 3.780510 0.000000 
#    z 0.000000 0.000000 3.556720 
# 
# 
# High freq. dielectric constant tensor:
#      x y z
#    x 1.757090 0.000000 0.000000 
#    y 0.000000 1.771470 0.000000 
#    z 0.000000 0.000000 1.736880 
# 
# From -- ./inp_files/48757.got.cif
#   From: 2010.03.12/outbox.cif.g09.slc.cpg/sg74_25_cif.got.tgz:48757.got - 2010.04.16 15:46:19.
