data_PCOD8301393
_publ_section_title
;
Structure prediction by ZEFSAII (Michael W. Deem and Ramdas Pophale) SiO2 
 PCOD8301393
Probable space group: I M M A
;
_chemical_formula_sum "Si O2"
_cell_formula_units_Z 80
_cell_length_a 28.608087
_cell_length_b 8.888360
_cell_length_c 15.569179
_cell_angle_alpha 90.000000
_cell_angle_beta 90.000000
_cell_angle_gamma 90.000000
_cell_volume 3958.914896
_symmetry_space_group_name_H-M "I M M A"
_symmetry_group_IT_number 74
_symmetry_cell_setting 'orthorhombic'
loop_
_space_group_symop_operation_xyz
x,y,z
-x,1/2-y,z
x,-y,-z
-x,1/2+y,-z
-x,-y,-z
x,1/2+y,-z
-x,y,z
x,1/2-y,z
1/2+x,1/2+y,1/2+z
1/2-x,-y,1/2+z
1/2+x,1/2-y,1/2-z
1/2-x,y,1/2-z
1/2-x,1/2-y,1/2-z
1/2+x,y,1/2-z
1/2-x,1/2+y,1/2+z
1/2+x,-y,1/2+z
loop_
_atom_site_type_symbol
_atom_site_label
_atom_site_fract_x
_atom_site_fract_y
_atom_site_fract_z
Si Si1 0.109880 0.572708 0.914901
Si Si2 0.199843 0.071765 0.853258
Si Si3 0.945712 0.923377 0.747579
Si Si4 0.302634 0.072459 0.841262
Si Si5 0.899266 0.428186 0.587944
O O1 0.107510 0.750000 0.923898
O O2 0.163501 0.517621 0.911656
O O3 0.082030 0.516709 0.830927
O O4 0.086717 0.500000 0.000000
O O5 0.191493 0.250000 0.862608
O O6 0.252663 0.025070 0.881946
O O7 0.192559 0.013801 0.755939
O O8 0.933231 0.750000 0.728555
O O9 0.000000 0.944868 0.767282
O O10 0.932281 0.021874 0.665496
O O11 0.304624 0.250000 0.835901
O O12 0.346224 0.011260 0.896530
O O13 0.918167 0.500000 0.500000
O O14 0.901363 0.250000 0.580065
#
# Coordination Sequence:
#
# PCOD8301393 Si02
#       5
#    16  16  16  16  16
#     4  11  23  38  59  88 119 152 192 239 289 345
#     4   9  16  33  58  84 117 156 195 234 280 337
#     4  10  23  44  65  85 113 148 190 244 298 346
#     4   8  16  31  56  85 117 156 193 232 281 334
#     4  11  22  38  61  90 120 154 194 237 286 344
#
# _framework density 20.207557000000001
#
# number of rings (size 3 to 8) (size 9 to 14) (size 15 to 20)
#    0.000    2.200    2.000    2.400    0.000    2.800 
#    0.000    6.000    0.000    0.000    0.000    0.000 
#    0.000    0.000    0.000    0.000    0.000    0.000 
#
# Total GULP energy -495961.449288 kJ/mol
# GULP energy per Si atom -12399.036232 kJ/mol
# Density = 2.016156 g / cm^3
# Si number density = 20.207557 Si / 1000 Ang^3
#
#
#
# Elastic Constant Matrix: (Units=GPa)
#
#
# Indices 1 2 3 4 5 6 
#
# 1 88.1993 26.1079 36.8537 0.0000 0.0000 0.0000
# 2 26.1079 59.9216 39.5973 0.0000 0.0000 0.0000
# 3 36.8537 39.5973 126.4246 0.0000 0.0000 0.0000
# 4 0.0000 0.0000 0.0000 29.8648 0.0000 0.0000
# 5 0.0000 0.0000 0.0000 0.0000 12.0644 0.0000
# 6 0.0000 0.0000 0.0000 0.0000 0.0000 26.1933
#
#
#
# Elastic Compliance Matrix: (Units=1/GPa)
#
#
# Indices 1 2 3 4 5 6 
#
# 1 0.013700 -0.004199 -0.002678 0.000000 0.000000 0.000000
# 2 -0.004199 0.022331 -0.005770 0.000000 0.000000 0.000000
# 3 -0.002678 -0.005770 0.010498 0.000000 0.000000 0.000000
# 4 0.000000 0.000000 0.000000 0.033484 0.000000 0.000000
# 5 0.000000 0.000000 0.000000 0.000000 0.082889 0.000000
# 6 0.000000 0.000000 0.000000 0.000000 0.000000 0.038178
#
#
# Mechanical properties :
#
#
# Convention : Reuss Voigt Hill
#
# Bulk Modulus (GPa) = 47.09547 53.29591 50.19569
# Shear Modulus (GPa) = 21.41758 25.09029 23.25393
#
# Velocity S-wave (km/s) = 3.25911 3.52750 3.39596
# Velocity P-wave (km/s) = 6.12526 6.55915 6.34592
#
# Compressibility (1/GPa) = 0.02123347
#
# Stress axis : x y z
#
# Youngs Moduli (GPa) = 72.99193 44.78062 95.25696
#
# Poissons Ratio (x) = 0.18804 0.25514
# Poissons Ratio (y) = 0.30651 0.54965
# Poissons Ratio (z) = 0.19551 0.25839
#
# Static dielectric constant tensor:
#      x y z
#    x 3.872940 0.000000 0.000000 
#    y 0.000000 3.356910 0.000000 
#    z 0.000000 0.000000 3.706600 
# 
# 
# High freq. dielectric constant tensor:
#      x y z
#    x 1.789420 0.000000 0.000000 
#    y 0.000000 1.765310 0.000000 
#    z 0.000000 0.000000 1.790620 
# 
# From -- ./inp_files/46937.got.cif
#   From: 2010.03.12/outbox.cif.g09.slc.cpg/sg74_24_cif.got.tgz:46937.got - 2010.04.16 15:46:19.
