data_PCOD8301345
_publ_section_title
;
Structure prediction by ZEFSAII (Michael W. Deem and Ramdas Pophale) SiO2 
 PCOD8301345
Probable space group: I M M A
;
_chemical_formula_sum "Si O2"
_cell_formula_units_Z 64
_cell_length_a 25.643904
_cell_length_b 13.249263
_cell_length_c 8.241284
_cell_angle_alpha 90.000000
_cell_angle_beta 90.000000
_cell_angle_gamma 90.000000
_cell_volume 2800.081962
_symmetry_space_group_name_H-M "I M M A"
_symmetry_group_IT_number 74
_symmetry_cell_setting 'orthorhombic'
loop_
_space_group_symop_operation_xyz
x,y,z
-x,1/2-y,z
x,-y,-z
-x,1/2+y,-z
-x,-y,-z
x,1/2+y,-z
-x,y,z
x,1/2-y,z
1/2+x,1/2+y,1/2+z
1/2-x,-y,1/2+z
1/2+x,1/2-y,1/2-z
1/2-x,y,1/2-z
1/2-x,1/2-y,1/2-z
1/2+x,y,1/2-z
1/2-x,1/2+y,1/2+z
1/2+x,-y,1/2+z
loop_
_atom_site_type_symbol
_atom_site_label
_atom_site_fract_x
_atom_site_fract_y
_atom_site_fract_z
Si Si1 0.056600 0.365114 0.777764
Si Si2 0.412019 0.500000 0.000000
Si Si3 0.250000 0.490946 0.750000
Si Si4 0.836430 0.864868 0.058944
Si Si5 0.669858 0.367221 0.176576
O O1 0.064676 0.250000 0.717289
O O2 0.052512 0.441707 0.627735
O O3 0.105106 0.397466 0.889693
O O4 0.000000 0.373696 0.868517
O O5 0.379087 0.589322 0.917363
O O6 0.206724 0.425963 0.842064
O O7 0.279383 0.567501 0.876901
O O8 0.825239 0.750000 0.102026
O O9 0.835046 0.885731 0.868805
O O10 0.677569 0.250000 0.131295
#
# Coordination Sequence:
#
# PCOD8301345 Si02
#       5
#    16   8   8  16  16
#     4  10  22  42  68  97 129 169 218 270 325 386
#     4  12  23  42  66  94 136 176 213 264 324 388
#     4  12  22  40  68  96 130 168 212 272 328 382
#     4  10  23  44  69  98 131 170 219 269 324 387
#     4  11  26  43  64  97 134 173 218 269 325 390
#
# _framework density 22.856473999999999
#
# number of rings (size 3 to 8) (size 9 to 14) (size 15 to 20)
#    0.000    1.250    2.500    2.625    3.500    0.000 
#    0.000    3.750    0.000    6.000    0.000    0.000 
#    0.000    0.000    0.000    0.000    0.000    0.000 
#
# Total GULP energy -396560.963084 kJ/mol
# GULP energy per Si atom -12392.530096 kJ/mol
# Density = 2.280445 g / cm^3
# Si number density = 22.856474 Si / 1000 Ang^3
#
#
#
# Elastic Constant Matrix: (Units=GPa)
#
#
# Indices 1 2 3 4 5 6 
#
# 1 172.8682 69.2392 36.4283 0.0000 0.0000 0.0000
# 2 69.2392 149.1595 42.2286 0.0000 0.0000 0.0000
# 3 36.4283 42.2286 43.9872 0.0000 0.0000 0.0000
# 4 0.0000 0.0000 0.0000 35.6786 0.0000 0.0000
# 5 0.0000 0.0000 0.0000 0.0000 21.0277 0.0000
# 6 0.0000 0.0000 0.0000 0.0000 0.0000 16.2252
#
#
#
# Elastic Compliance Matrix: (Units=1/GPa)
#
#
# Indices 1 2 3 4 5 6 
#
# 1 0.007582 -0.002392 -0.003983 0.000000 0.000000 0.000000
# 2 -0.002392 0.009961 -0.007582 0.000000 0.000000 0.000000
# 3 -0.003983 -0.007582 0.033311 0.000000 0.000000 0.000000
# 4 0.000000 0.000000 0.000000 0.028028 0.000000 0.000000
# 5 0.000000 0.000000 0.000000 0.000000 0.047556 0.000000
# 6 0.000000 0.000000 0.000000 0.000000 0.000000 0.061633
#
#
# Mechanical properties :
#
#
# Convention : Reuss Voigt Hill
#
# Bulk Modulus (GPa) = 43.59042 73.53413 58.56227
# Shear Modulus (GPa) = 22.35822 29.12756 25.74289
#
# Velocity S-wave (km/s) = 3.13101 3.57370 3.35966
# Velocity P-wave (km/s) = 5.67307 7.01929 6.38178
#
# Compressibility (1/GPa) = 0.02294082
#
# Stress axis : x y z
#
# Youngs Moduli (GPa) = 131.88925 100.39034 30.02011
#
# Poissons Ratio (x) = 0.24014 0.11956
# Poissons Ratio (y) = 0.31548 0.22761
# Poissons Ratio (z) = 0.52529 0.76115
#
# Static dielectric constant tensor:
#      x y z
#    x 4.777880 0.000000 0.000000 
#    y 0.000000 4.590060 0.000000 
#    z 0.000000 0.000000 4.027730 
# 
# 
# High freq. dielectric constant tensor:
#      x y z
#    x 1.914560 0.000000 0.000000 
#    y 0.000000 1.932920 0.000000 
#    z 0.000000 0.000000 1.879680 
# 
# From -- ./inp_files/13328.got.cif
#   From: 2010.03.12/outbox.cif.g09.slc.cpg/sg74_7_cif.got.tgz:13328.got - 2010.04.16 15:46:19.
