data_PCOD8301256
_publ_section_title
;
Structure prediction by ZEFSAII (Michael W. Deem and Ramdas Pophale) SiO2 
 PCOD8301256
Probable space group: I M M A
;
_chemical_formula_sum "Si O2"
_cell_formula_units_Z 104
_cell_length_a 22.150853
_cell_length_b 8.666660
_cell_length_c 26.180129
_cell_angle_alpha 90.000000
_cell_angle_beta 90.000000
_cell_angle_gamma 90.000000
_cell_volume 5025.901772
_symmetry_space_group_name_H-M "I M M A"
_symmetry_group_IT_number 74
_symmetry_cell_setting 'orthorhombic'
loop_
_space_group_symop_operation_xyz
x,y,z
-x,1/2-y,z
x,-y,-z
-x,1/2+y,-z
-x,-y,-z
x,1/2+y,-z
-x,y,z
x,1/2-y,z
1/2+x,1/2+y,1/2+z
1/2-x,-y,1/2+z
1/2+x,1/2-y,1/2-z
1/2-x,y,1/2-z
1/2-x,1/2-y,1/2-z
1/2+x,y,1/2-z
1/2-x,1/2+y,1/2+z
1/2+x,-y,1/2+z
loop_
_atom_site_type_symbol
_atom_site_label
_atom_site_fract_x
_atom_site_fract_y
_atom_site_fract_z
Si Si1 0.222183 0.068880 0.945108
Si Si2 0.386672 0.572475 0.613942
Si Si3 0.569324 0.930693 0.173137
Si Si4 0.678165 0.067975 0.120103
Si Si5 0.000000 0.566836 0.945341
Si Si6 0.386050 0.924068 0.724186
Si Si7 0.733056 0.082907 0.694415
O O1 0.223519 0.250000 0.951830
O O2 0.175762 0.020722 0.899177
O O3 0.289202 0.009585 0.928902
O O4 0.203101 0.000000 0.000000
O O5 0.370812 0.750000 0.601970
O O6 0.438582 0.501759 0.578726
O O7 0.419866 0.559271 0.669905
O O8 0.500000 0.982419 0.165730
O O9 0.577724 0.750000 0.165305
O O10 0.608721 0.015484 0.129350
O O11 0.588999 0.967412 0.231458
O O12 0.680505 0.250000 0.113219
O O13 0.711636 0.012000 0.170989
O O14 0.000000 0.750000 0.942602
O O15 0.000000 0.500000 0.000000
O O16 0.386297 0.750000 0.746091
O O17 0.321847 0.966530 0.699518
O O18 0.720937 0.250000 0.665647
O O19 0.750000 0.135158 0.750000
#
# Coordination Sequence:
#
# PCOD8301256 Si02
#       7
#    16  16  16  16   8  16  16
#     4  12  25  42  66  93 125 159 200 257 317 376
#     4  10  22  39  59  86 122 162 209 259 311 366
#     4  11  25  43  62  88 126 169 211 257 309 372
#     4  12  24  40  64  92 123 159 206 256 311 377
#     4  10  22  40  58  78 110 158 210 264 311 360
#     4  11  22  35  58  87 121 161 204 251 301 361
#     4  11  21  34  56  85 121 158 196 241 296 354
#
# _framework density 20.692803999999999
#
# number of rings (size 3 to 8) (size 9 to 14) (size 15 to 20)
#    0.000    0.923    3.077    4.615    1.077    4.308 
#    0.000    0.000    0.000    0.462    0.000    0.000 
#    0.000    0.000    0.000    0.000    0.000    0.000 
#
# Total GULP energy -644307.306080 kJ/mol
# GULP energy per Si atom -12390.525117 kJ/mol
# Density = 2.064571 g / cm^3
# Si number density = 20.692804 Si / 1000 Ang^3
#
#
#
# Elastic Constant Matrix: (Units=GPa)
#
#
# Indices 1 2 3 4 5 6 
#
# 1 108.3237 35.9110 13.7875 0.0000 0.0000 0.0000
# 2 35.9110 113.9003 22.4937 0.0000 0.0000 0.0000
# 3 13.7875 22.4937 55.5354 0.0000 0.0000 0.0000
# 4 0.0000 0.0000 0.0000 34.1274 0.0000 0.0000
# 5 0.0000 0.0000 0.0000 0.0000 31.2694 0.0000
# 6 0.0000 0.0000 0.0000 0.0000 0.0000 26.1079
#
#
#
# Elastic Compliance Matrix: (Units=1/GPa)
#
#
# Indices 1 2 3 4 5 6 
#
# 1 0.010403 -0.003011 -0.001363 0.000000 0.000000 0.000000
# 2 -0.003011 0.010414 -0.003471 0.000000 0.000000 0.000000
# 3 -0.001363 -0.003471 0.019751 0.000000 0.000000 0.000000
# 4 0.000000 0.000000 0.000000 0.029302 0.000000 0.000000
# 5 0.000000 0.000000 0.000000 0.000000 0.031980 0.000000
# 6 0.000000 0.000000 0.000000 0.000000 0.000000 0.038303
#
#
# Mechanical properties :
#
#
# Convention : Reuss Voigt Hill
#
# Bulk Modulus (GPa) = 40.19490 46.90487 43.54989
# Shear Modulus (GPa) = 30.46269 32.00542 31.23406
#
# Velocity S-wave (km/s) = 3.84101 3.93707 3.88934
# Velocity P-wave (km/s) = 6.25603 6.58664 6.42346
#
# Compressibility (1/GPa) = 0.02487878
#
# Stress axis : x y z
#
# Youngs Moduli (GPa) = 96.12414 96.02222 50.63106
#
# Poissons Ratio (x) = 0.28910 0.06903
# Poissons Ratio (y) = 0.28940 0.17572
# Poissons Ratio (z) = 0.13105 0.33326
#
# Static dielectric constant tensor:
#      x y z
#    x 3.647540 0.000000 0.000000 
#    y 0.000000 3.788610 0.000000 
#    z 0.000000 0.000000 3.207010 
# 
# 
# High freq. dielectric constant tensor:
#      x y z
#    x 1.800040 0.000000 0.000000 
#    y 0.000000 1.820610 0.000000 
#    z 0.000000 0.000000 1.804940 
# 
# From -- ./inp_files/73369.got.cif
#   From: 2010.03.12/outbox.cif.g09.slc.cpg/sg74_37_cif.got.tgz:73369.got - 2010.04.16 15:46:19.
