data_PCOD8301417
_publ_section_title
;
Structure prediction by ZEFSAII (Michael W. Deem and Ramdas Pophale) SiO2 
 PCOD8301417
Probable space group: I M M A
;
_chemical_formula_sum "Si O2"
_cell_formula_units_Z 96
_cell_length_a 14.736204
_cell_length_b 15.088791
_cell_length_c 21.156024
_cell_angle_alpha 90.000000
_cell_angle_beta 90.000000
_cell_angle_gamma 90.000000
_cell_volume 4704.073719
_symmetry_space_group_name_H-M "I M M A"
_symmetry_group_IT_number 74
_symmetry_cell_setting 'orthorhombic'
loop_
_space_group_symop_operation_xyz
x,y,z
-x,1/2-y,z
x,-y,-z
-x,1/2+y,-z
-x,-y,-z
x,1/2+y,-z
-x,y,z
x,1/2-y,z
1/2+x,1/2+y,1/2+z
1/2-x,-y,1/2+z
1/2+x,1/2-y,1/2-z
1/2-x,y,1/2-z
1/2-x,1/2-y,1/2-z
1/2+x,y,1/2-z
1/2-x,1/2+y,1/2+z
1/2+x,-y,1/2+z
loop_
_atom_site_type_symbol
_atom_site_label
_atom_site_fract_x
_atom_site_fract_y
_atom_site_fract_z
Si Si1 0.101528 0.849441 0.526488
Si Si2 0.603998 0.750000 0.555779
Si Si3 0.204150 0.581001 0.416460
Si Si4 0.250000 0.059896 0.250000
Si Si5 0.239191 0.610063 0.888293
Si Si6 0.352490 0.750000 0.276424
Si Si7 0.101800 0.574125 0.287650
Si Si8 0.174056 0.750000 0.078436
O O1 0.104415 0.750000 0.497477
O O2 0.134446 0.921604 0.475036
O O3 0.164926 0.851421 0.588229
O O4 0.000000 0.874671 0.547955
O O5 0.500000 0.750000 0.579479
O O6 0.654363 0.837398 0.582551
O O7 0.602315 0.750000 0.479220
O O8 0.265192 0.492670 0.410292
O O9 0.146660 0.597953 0.354000
O O10 0.268576 0.662131 0.431227
O O11 0.240139 0.120157 0.187683
O O12 0.160262 0.999369 0.251657
O O13 0.250000 0.750000 0.250000
O O14 0.403183 0.662999 0.253049
O O15 0.366613 0.750000 0.351717
O O16 0.000000 0.537702 0.297220
#
# Coordination Sequence:
#
# PCOD8301417 Si02
#       8
#    16   8  16   8  16   8  16   8
#     4  11  22  38  65 102 137 167 205 258 325 398
#     4  12  28  49  66  90 123 170 232 284 318 364
#     4  11  20  38  68  97 131 167 204 251 329 392
#     4  10  24  42  66  90 124 164 210 269 334 383
#     4  11  23  44  69  92 124 169 211 273 325 382
#     4  12  19  35  60  88 129 179 213 244 306 374
#     4  11  22  37  59  96 133 167 211 258 310 386
#     4  12  22  41  64  91 132 172 211 267 307 365
#
# _framework density 20.407844000000001
#
# number of rings (size 3 to 8) (size 9 to 14) (size 15 to 20)
#    0.000    0.833    5.833    2.250    0.000    5.667 
#    0.000    1.667    0.000    0.000    0.000    0.000 
#    0.000    0.000    0.000    0.000    0.000    0.000 
#
# Total GULP energy -595170.710028 kJ/mol
# GULP energy per Si atom -12399.389792 kJ/mol
# Density = 2.036139 g / cm^3
# Si number density = 20.407844 Si / 1000 Ang^3
#
#
#
# Elastic Constant Matrix: (Units=GPa)
#
#
# Indices 1 2 3 4 5 6 
#
# 1 132.2562 41.1104 48.9110 0.0000 0.0000 0.0000
# 2 41.1104 101.2640 37.4810 0.0000 0.0000 0.0000
# 3 48.9110 37.4810 157.4642 0.0000 0.0000 0.0000
# 4 0.0000 0.0000 0.0000 31.9829 0.0000 0.0000
# 5 0.0000 0.0000 0.0000 0.0000 10.9774 0.0000
# 6 0.0000 0.0000 0.0000 0.0000 0.0000 6.3939
#
#
#
# Elastic Compliance Matrix: (Units=1/GPa)
#
#
# Indices 1 2 3 4 5 6 
#
# 1 0.009289 -0.002964 -0.002180 0.000000 0.000000 0.000000
# 2 -0.002964 0.011775 -0.001882 0.000000 0.000000 0.000000
# 3 -0.002180 -0.001882 0.007476 0.000000 0.000000 0.000000
# 4 0.000000 0.000000 0.000000 0.031267 0.000000 0.000000
# 5 0.000000 0.000000 0.000000 0.000000 0.091096 0.000000
# 6 0.000000 0.000000 0.000000 0.000000 0.000000 0.156399
#
#
# Mechanical properties :
#
#
# Convention : Reuss Voigt Hill
#
# Bulk Modulus (GPa) = 69.02450 71.77659 70.40055
# Shear Modulus (GPa) = 15.32884 27.43629 21.38256
#
# Velocity S-wave (km/s) = 2.74364 3.67058 3.24043
# Velocity P-wave (km/s) = 6.62817 7.29463 6.96937
#
# Compressibility (1/GPa) = 0.01448761
#
# Stress axis : x y z
#
# Youngs Moduli (GPa) = 107.65976 84.92441 133.76718
#
# Poissons Ratio (x) = 0.25173 0.29156
# Poissons Ratio (y) = 0.31912 0.25177
# Poissons Ratio (z) = 0.23466 0.15984
#
# Static dielectric constant tensor:
#      x y z
#    x 3.578260 0.000000 0.000000 
#    y 0.000000 0.640050 0.000000 
#    z 0.000000 0.000000 3.899680 
# 
# 
# High freq. dielectric constant tensor:
#      x y z
#    x 1.782730 0.000000 0.000000 
#    y 0.000000 1.801580 0.000000 
#    z 0.000000 0.000000 1.805400 
# 
# From -- ./inp_files/51977.got.cif
#   From: 2010.03.12/outbox.cif.g09.slc.cpg/sg74_26_cif.got.tgz:51977.got - 2010.04.16 15:46:19.
