data_PCOD8301949
_publ_section_title
;
Structure prediction by ZEFSAII (Michael W. Deem and Ramdas Pophale) SiO2 
 PCOD8301949
Probable space group: P 41
;
_chemical_formula_sum "Si O2"
_cell_formula_units_Z 28
_cell_length_a 12.732038
_cell_length_b 12.732038
_cell_length_c 7.410324
_cell_angle_alpha 90.000000
_cell_angle_beta 90.000000
_cell_angle_gamma 90.000000
_cell_volume 1201.249028
_symmetry_space_group_name_H-M "P 41"
_symmetry_group_IT_number 76
_symmetry_cell_setting 'tetragonal'
loop_
_space_group_symop_operation_xyz
x,y,z
-y,x,1/4+z
-x,-y,1/2+z
y,-x,3/4+z
loop_
_atom_site_type_symbol
_atom_site_label
_atom_site_fract_x
_atom_site_fract_y
_atom_site_fract_z
Si Si1 0.697123 0.154397 0.462710
Si Si2 0.276954 0.640417 0.167903
Si Si3 0.140961 0.979009 0.791306
Si Si4 0.456566 0.629007 0.451380
Si Si5 0.349896 0.063072 0.609540
Si Si6 0.566158 0.027497 0.750380
Si Si7 0.476914 0.816124 0.687831
O O1 0.705137 0.276591 0.507650
O O2 0.813832 0.107435 0.431663
O O3 0.631167 0.139187 0.276038
O O4 0.643409 0.096208 0.630323
O O5 0.377935 0.625486 0.287623
O O6 0.263825 0.525771 0.082892
O O7 0.176876 0.676069 0.281920
O O8 0.241588 0.030197 0.698123
O O9 0.067200 0.924828 0.644342
O O10 0.416251 0.566554 0.627881
O O11 0.462651 0.752882 0.502130
O O12 0.447236 0.074565 0.750219
O O13 0.389361 0.979002 0.455532
O O14 0.560644 0.910437 0.665211
#
# Coordination Sequence:
#
# PCOD8301949 Si02
#       7
#     4   4   4   4   4   4   4
#     4  12  26  47  73 107 148 191 246 309 370 438
#     4  11  26  43  73 103 143 187 239 297 367 443
#     4  12  32  51  74 106 151 199 250 307 379 451
#     4  12  26  43  71 101 150 190 235 291 369 451
#     4  11  25  47  75 109 141 189 243 304 374 432
#     4  11  23  45  77 109 145 183 246 318 360 435
#     4  11  24  46  69 107 140 185 243 304 367 438
#
# _framework density 23.309070999999999
#
# number of rings (size 3 to 8) (size 9 to 14) (size 15 to 20)
#    0.000    0.571    4.286    2.571   12.000    1.143 
#    0.000    0.000    0.000    0.000    0.000    0.000 
#    0.000    0.000    0.000    0.000    0.000    0.000 
#
# Total GULP energy -347264.049768 kJ/mol
# GULP energy per Si atom -12402.287492 kJ/mol
# Density = 2.325602 g / cm^3
# Si number density = 23.309071 Si / 1000 Ang^3
#
#
#
# Elastic Constant Matrix: (Units=GPa)
#
#
# Indices 1 2 3 4 5 6 
#
# 1 82.1104 33.8053 23.9208 0.0000 0.0000 6.9801
# 2 33.8053 82.1104 23.9208 0.0000 0.0000 -6.9801
# 3 23.9208 23.9208 74.8103 0.0000 0.0000 0.0000
# 4 0.0000 0.0000 0.0000 45.2503 0.0000 0.0000
# 5 0.0000 0.0000 0.0000 0.0000 45.2503 0.0000
# 6 6.9801 -6.9801 0.0000 0.0000 0.0000 28.9625
#
#
#
# Elastic Compliance Matrix: (Units=1/GPa)
#
#
# Indices 1 2 3 4 5 6 
#
# 1 0.016095 -0.006156 -0.003178 0.000000 0.000000 -0.005363
# 2 -0.006156 0.016095 -0.003178 0.000000 0.000000 0.005363
# 3 -0.003178 -0.003178 0.015399 0.000000 0.000000 0.000000
# 4 0.000000 0.000000 0.000000 0.022099 0.000000 0.000000
# 5 0.000000 0.000000 0.000000 0.000000 0.022099 0.000000
# 6 -0.005363 0.005363 0.000000 0.000000 0.000000 0.037112
#
#
# Mechanical properties :
#
#
# Convention : Reuss Voigt Hill
#
# Bulk Modulus (GPa) = 44.31640 44.70277 44.50958
# Shear Modulus (GPa) = 30.97000 34.38490 32.67745
#
# Velocity S-wave (km/s) = 3.64904 3.84496 3.74828
# Velocity P-wave (km/s) = 6.06694 6.23952 6.15384
#
# Compressibility (1/GPa) = 0.02256501
#
# Stress axis : x y z
#
# Youngs Moduli (GPa) = 62.13092 62.13092 64.93753
#
# Poissons Ratio (x) = 0.38251 0.20636
# Poissons Ratio (y) = 0.38251 0.20636
# Poissons Ratio (z) = 0.19744 0.19744
#
# Static dielectric constant tensor:
#      x y z
#    x 4.463600 0.000000 0.000000 
#    y 0.000000 4.463600 0.000000 
#    z 0.000000 0.000000 4.177810 
# 
# 
# High freq. dielectric constant tensor:
#      x y z
#    x 1.932030 0.000000 0.000000 
#    y 0.000000 1.932030 0.000000 
#    z 0.000000 0.000000 1.924200 
# 
# From -- ./inp_files/611.got.cif
#   From: 2010.03.12/outbox.cif.g09.slc.cpg/sg76_cif.got.tgz:611.got - 2010.04.16 16:34:25.
