data_PCOD8301184
_publ_section_title
;
Structure prediction by ZEFSAII (Michael W. Deem and Ramdas Pophale) SiO2 
 PCOD8301184
Probable space group: I M M A
;
_chemical_formula_sum "Si O2"
_cell_formula_units_Z 88
_cell_length_a 8.694526
_cell_length_b 22.522237
_cell_length_c 24.177112
_cell_angle_alpha 90.000000
_cell_angle_beta 90.000000
_cell_angle_gamma 90.000000
_cell_volume 4734.366307
_symmetry_space_group_name_H-M "I M M A"
_symmetry_group_IT_number 74
_symmetry_cell_setting 'orthorhombic'
loop_
_space_group_symop_operation_xyz
x,y,z
-x,1/2-y,z
x,-y,-z
-x,1/2+y,-z
-x,-y,-z
x,1/2+y,-z
-x,y,z
x,1/2-y,z
1/2+x,1/2+y,1/2+z
1/2-x,-y,1/2+z
1/2+x,1/2-y,1/2-z
1/2-x,y,1/2-z
1/2-x,1/2-y,1/2-z
1/2+x,y,1/2-z
1/2-x,1/2+y,1/2+z
1/2+x,-y,1/2+z
loop_
_atom_site_type_symbol
_atom_site_label
_atom_site_fract_x
_atom_site_fract_y
_atom_site_fract_z
Si Si1 0.680048 0.595111 0.807893
Si Si2 0.181638 0.750000 0.310593
Si Si3 0.323378 0.319102 0.393034
Si Si4 0.821987 0.181818 0.981168
Si Si5 0.181448 0.469093 0.808629
Si Si6 0.180011 0.134127 0.623610
O O1 0.500000 0.585309 0.800392
O O2 0.750000 0.617484 0.750000
O O3 0.710796 0.644191 0.854099
O O4 0.755673 0.533241 0.826255
O O5 0.250000 0.750000 0.250000
O O6 0.239294 0.808107 0.343166
O O7 0.000000 0.750000 0.306228
O O8 0.500000 0.332119 0.377184
O O9 0.285914 0.250000 0.385228
O O10 0.291733 0.338708 0.456070
O O11 0.772285 0.250000 0.974150
O O12 0.717815 0.141942 0.941098
O O13 0.000000 0.173569 0.965598
O O14 0.250000 0.448284 0.750000
O O15 0.228495 0.422793 0.855394
O O16 0.000000 0.472285 0.803160
O O17 0.000000 0.123568 0.631860
#
# Coordination Sequence:
#
# PCOD8301184 Si02
#       6
#    16   8  16  16  16  16
#     4  11  22  38  60  85 113 146 182 224 275 332
#     4  10  22  34  48  74 108 144 181 230 279 320
#     4   9  19  37  60  86 116 147 182 225 273 329
#     4   9  18  34  56  81 110 148 188 226 275 329
#     4  11  22  38  58  80 108 146 187 230 279 333
#     4  11  21  35  53  79 111 147 189 231 278 327
#
# _framework density 18.587492999999998
#
# number of rings (size 3 to 8) (size 9 to 14) (size 15 to 20)
#    0.000    1.818    0.909    6.545    0.000    4.364 
#    0.000    2.727    0.000    5.455    0.000    0.000 
#    0.000    0.000    0.000    0.000    0.000    0.000 
#
# Total GULP energy -545789.407914 kJ/mol
# GULP energy per Si atom -12404.304725 kJ/mol
# Density = 1.854519 g / cm^3
# Si number density = 18.587493 Si / 1000 Ang^3
#
#
#
# Elastic Constant Matrix: (Units=GPa)
#
#
# Indices 1 2 3 4 5 6 
#
# 1 114.4381 42.8920 45.6015 0.0000 0.0000 0.0000
# 2 42.8920 82.7566 59.8065 0.0000 0.0000 0.0000
# 3 45.6015 59.8065 109.9318 0.0000 0.0000 0.0000
# 4 0.0000 0.0000 0.0000 30.8550 0.0000 0.0000
# 5 0.0000 0.0000 0.0000 0.0000 35.3441 0.0000
# 6 0.0000 0.0000 0.0000 0.0000 0.0000 29.2398
#
#
#
# Elastic Compliance Matrix: (Units=1/GPa)
#
#
# Indices 1 2 3 4 5 6 
#
# 1 0.011235 -0.004045 -0.002459 0.000000 0.000000 0.000000
# 2 -0.004045 0.021369 -0.009947 0.000000 0.000000 0.000000
# 3 -0.002459 -0.009947 0.015528 0.000000 0.000000 0.000000
# 4 0.000000 0.000000 0.000000 0.032410 0.000000 0.000000
# 5 0.000000 0.000000 0.000000 0.000000 0.028293 0.000000
# 6 0.000000 0.000000 0.000000 0.000000 0.000000 0.034200
#
#
# Mechanical properties :
#
#
# Convention : Reuss Voigt Hill
#
# Bulk Modulus (GPa) = 65.66987 67.08073 66.37530
# Shear Modulus (GPa) = 27.62192 29.67620 28.64906
#
# Velocity S-wave (km/s) = 3.85911 4.00004 3.93021
# Velocity P-wave (km/s) = 7.43396 7.58296 7.50883
#
# Compressibility (1/GPa) = 0.01522768
#
# Stress axis : x y z
#
# Youngs Moduli (GPa) = 89.01035 46.79654 64.39773
#
# Poissons Ratio (x) = 0.18931 0.15839
# Poissons Ratio (y) = 0.36008 0.64059
# Poissons Ratio (z) = 0.21892 0.46550
#
# Static dielectric constant tensor:
#      x y z
#    x 3.380110 0.000000 0.000000 
#    y 0.000000 3.320860 0.000000 
#    z 0.000000 0.000000 3.357260 
# 
# 
# High freq. dielectric constant tensor:
#      x y z
#    x 1.726340 0.000000 0.000000 
#    y 0.000000 1.712690 0.000000 
#    z 0.000000 0.000000 1.723280 
# 
# From -- ./inp_files/54491.got.cif
#   From: 2010.03.12/outbox.cif.g09.slc.cpg/sg74_28_cif.got.tgz:54491.got - 2010.04.16 15:46:19.
