data_PCOD8301806
_publ_section_title
;
Structure prediction by ZEFSAII (Michael W. Deem and Ramdas Pophale) SiO2 
 PCOD8301806
Probable space group: I M M A
;
_chemical_formula_sum "Si O2"
_cell_formula_units_Z 80
_cell_length_a 15.110281
_cell_length_b 13.740975
_cell_length_c 24.994012
_cell_angle_alpha 90.000000
_cell_angle_beta 90.000000
_cell_angle_gamma 90.000000
_cell_volume 5189.506548
_symmetry_space_group_name_H-M "I M M A"
_symmetry_group_IT_number 74
_symmetry_cell_setting 'orthorhombic'
loop_
_space_group_symop_operation_xyz
x,y,z
-x,1/2-y,z
x,-y,-z
-x,1/2+y,-z
-x,-y,-z
x,1/2+y,-z
-x,y,z
x,1/2-y,z
1/2+x,1/2+y,1/2+z
1/2-x,-y,1/2+z
1/2+x,1/2-y,1/2-z
1/2-x,y,1/2-z
1/2-x,1/2-y,1/2-z
1/2+x,y,1/2-z
1/2-x,1/2+y,1/2+z
1/2+x,-y,1/2+z
loop_
_atom_site_type_symbol
_atom_site_label
_atom_site_fract_x
_atom_site_fract_y
_atom_site_fract_z
Si Si1 0.602232 0.489130 0.937192
Si Si2 0.219503 0.362825 0.630441
Si Si3 0.398380 0.856592 0.852193
Si Si4 0.402418 0.861676 0.323449
Si Si5 0.157417 0.015493 0.727032
O O1 0.500000 0.463348 0.921577
O O2 0.671893 0.405443 0.921866
O O3 0.634729 0.585346 0.904980
O O4 0.611007 0.500000 0.000000
O O5 0.203306 0.250000 0.627830
O O6 0.324979 0.388296 0.633918
O O7 0.170119 0.402132 0.682610
O O8 0.500000 0.835798 0.860013
O O9 0.350590 0.750000 0.848327
O O10 0.386247 0.919436 0.798214
O O11 0.500000 0.872403 0.350238
O O12 0.387436 0.750000 0.303809
O O13 0.400972 0.935231 0.273278
O O14 0.250000 0.979228 0.750000
#
# Coordination Sequence:
#
# PCOD8301806 Si02
#       5
#    16  16  16  16  16
#     4   9  18  31  45  61  81 106 137 172 211 254
#     4   9  17  28  42  63  88 110 136 171 208 247
#     4   9  17  28  40  55  78 106 135 168 203 240
#     4   9  16  26  42  63  87 114 139 165 202 247
#     4   9  16  26  40  59  84 111 139 169 199 239
#
# _framework density 15.415725
#
# number of rings (size 3 to 8) (size 9 to 14) (size 15 to 20)
#    0.000    3.000    0.000    1.200    0.000    4.800 
#    0.000    2.000    0.000    0.600    0.000    0.000 
#    0.000    0.000    0.000    0.000    0.000    0.000 
#
# Total GULP energy -495578.559672 kJ/mol
# GULP energy per Si atom -12389.463992 kJ/mol
# Density = 1.538064 g / cm^3
# Si number density = 15.415725 Si / 1000 Ang^3
#
#
#
# Elastic Constant Matrix: (Units=GPa)
#
#
# Indices 1 2 3 4 5 6 
#
# 1 74.8649 34.9409 27.6581 0.0000 0.0000 0.0000
# 2 34.9409 105.4723 36.5829 0.0000 0.0000 0.0000
# 3 27.6581 36.5829 65.1264 0.0000 0.0000 0.0000
# 4 0.0000 0.0000 0.0000 13.4279 0.0000 0.0000
# 5 0.0000 0.0000 0.0000 0.0000 22.1047 0.0000
# 6 0.0000 0.0000 0.0000 0.0000 0.0000 19.1285
#
#
#
# Elastic Compliance Matrix: (Units=1/GPa)
#
#
# Indices 1 2 3 4 5 6 
#
# 1 0.017040 -0.003894 -0.005050 0.000000 0.000000 0.000000
# 2 -0.003894 0.012665 -0.005461 0.000000 0.000000 0.000000
# 3 -0.005050 -0.005461 0.020567 0.000000 0.000000 0.000000
# 4 0.000000 0.000000 0.000000 0.074472 0.000000 0.000000
# 5 0.000000 0.000000 0.000000 0.000000 0.045239 0.000000
# 6 0.000000 0.000000 0.000000 0.000000 0.000000 0.052278
#
#
# Mechanical properties :
#
#
# Convention : Reuss Voigt Hill
#
# Bulk Modulus (GPa) = 46.58939 49.31413 47.95176
# Shear Modulus (GPa) = 19.36310 20.68434 20.02372
#
# Velocity S-wave (km/s) = 3.54794 3.66699 3.60796
# Velocity P-wave (km/s) = 6.86086 7.07022 6.96633
#
# Compressibility (1/GPa) = 0.02146412
#
# Stress axis : x y z
#
# Youngs Moduli (GPa) = 58.68497 78.95726 48.62258
#
# Poissons Ratio (x) = 0.30743 0.24552
# Poissons Ratio (y) = 0.22850 0.26551
# Poissons Ratio (z) = 0.29633 0.43116
#
# Static dielectric constant tensor:
#      x y z
#    x 3.041360 0.000000 0.000000 
#    y 0.000000 3.213170 0.000000 
#    z 0.000000 0.000000 2.791460 
# 
# 
# High freq. dielectric constant tensor:
#      x y z
#    x 1.584630 0.000000 0.000000 
#    y 0.000000 1.590130 0.000000 
#    z 0.000000 0.000000 1.563380 
# 
# From -- ./inp_files/51652.got.cif
#   From: 2010.03.12/outbox.cif.g09.slc.cpg/sg74_26_cif.got.tgz:51652.got - 2010.04.16 15:46:19.
