data_PCOD8301159
_publ_section_title
;
Structure prediction by ZEFSAII (Michael W. Deem and Ramdas Pophale) SiO2 
 PCOD8301159
Probable space group: I M M A
;
_chemical_formula_sum "Si O2"
_cell_formula_units_Z 64
_cell_length_a 16.508512
_cell_length_b 20.528017
_cell_length_c 8.780117
_cell_angle_alpha 90.000000
_cell_angle_beta 90.000000
_cell_angle_gamma 90.000000
_cell_volume 2975.467641
_symmetry_space_group_name_H-M "I M M A"
_symmetry_group_IT_number 74
_symmetry_cell_setting 'orthorhombic'
loop_
_space_group_symop_operation_xyz
x,y,z
-x,1/2-y,z
x,-y,-z
-x,1/2+y,-z
-x,-y,-z
x,1/2+y,-z
-x,y,z
x,1/2-y,z
1/2+x,1/2+y,1/2+z
1/2-x,-y,1/2+z
1/2+x,1/2-y,1/2-z
1/2-x,y,1/2-z
1/2-x,1/2-y,1/2-z
1/2+x,y,1/2-z
1/2-x,1/2+y,1/2+z
1/2+x,-y,1/2+z
loop_
_atom_site_type_symbol
_atom_site_label
_atom_site_fract_x
_atom_site_fract_y
_atom_site_fract_z
Si Si1 0.094732 0.381190 0.157751
Si Si2 0.902669 0.250000 0.633601
Si Si3 0.843636 0.250000 0.297010
Si Si4 0.907088 0.125917 0.818644
Si Si5 0.165619 0.004324 0.679366
O O1 0.109946 0.311790 0.231361
O O2 0.141553 0.434750 0.254716
O O3 0.000000 0.398357 0.160221
O O4 0.131826 0.381580 0.986711
O O5 0.853036 0.250000 0.477795
O O6 0.871139 0.186942 0.726237
O O7 0.000000 0.250000 0.604548
O O8 0.750000 0.250000 0.250000
O O9 0.000000 0.142097 0.845944
O O10 0.898934 0.059539 0.723616
O O11 0.250000 0.027636 0.750000
O O12 0.172046 0.000000 0.500000
#
# Coordination Sequence:
#
# PCOD8301159 Si02
#       5
#    16   8   8  16  16
#     4  11  23  42  66  91 123 163 207 254 306 365
#     4  10  21  40  65  92 123 162 208 253 302 365
#     4  12  25  40  60  92 128 162 205 255 309 363
#     4  10  22  41  65  92 122 161 208 256 306 364
#     4  12  25  41  62  91 127 164 204 253 309 366
#
# _framework density 21.509222999999999
#
# number of rings (size 3 to 8) (size 9 to 14) (size 15 to 20)
#    0.000    1.000    0.000    7.125    0.000   10.000 
#    0.000    1.875    0.000    0.000    0.000    0.000 
#    0.000    0.000    0.000    0.000    0.000    0.000 
#
# Total GULP energy -396966.542330 kJ/mol
# GULP energy per Si atom -12405.204448 kJ/mol
# Density = 2.146027 g / cm^3
# Si number density = 21.509223 Si / 1000 Ang^3
#
#
#
# Elastic Constant Matrix: (Units=GPa)
#
#
# Indices 1 2 3 4 5 6 
#
# 1 52.6409 3.4454 32.6068 0.0000 0.0000 0.0000
# 2 3.4454 156.8777 75.3742 0.0000 0.0000 0.0000
# 3 32.6068 75.3742 226.2694 0.0000 0.0000 0.0000
# 4 0.0000 0.0000 0.0000 47.9205 0.0000 0.0000
# 5 0.0000 0.0000 0.0000 0.0000 32.1533 0.0000
# 6 0.0000 0.0000 0.0000 0.0000 0.0000 12.6569
#
#
#
# Elastic Compliance Matrix: (Units=1/GPa)
#
#
# Indices 1 2 3 4 5 6 
#
# 1 0.021042 0.001184 -0.003427 0.000000 0.000000 0.000000
# 2 0.001184 0.007656 -0.002721 0.000000 0.000000 0.000000
# 3 -0.003427 -0.002721 0.005820 0.000000 0.000000 0.000000
# 4 0.000000 0.000000 0.000000 0.020868 0.000000 0.000000
# 5 0.000000 0.000000 0.000000 0.000000 0.031101 0.000000
# 6 0.000000 0.000000 0.000000 0.000000 0.000000 0.079009
#
#
# Mechanical properties :
#
#
# Convention : Reuss Voigt Hill
#
# Bulk Modulus (GPa) = 40.66625 73.18230 56.92427
# Shear Modulus (GPa) = 27.23045 40.17026 33.70035
#
# Velocity S-wave (km/s) = 3.56193 4.32624 3.96256
# Velocity P-wave (km/s) = 5.98865 7.68458 6.88900
#
# Compressibility (1/GPa) = 0.02459041
#
# Stress axis : x y z
#
# Youngs Moduli (GPa) = 47.52465 130.62200 171.83002
#
# Poissons Ratio (x) = -0.15470 0.58882
# Poissons Ratio (y) = -0.05628 0.46753
# Poissons Ratio (z) = 0.16286 0.35541
#
# Static dielectric constant tensor:
#      x y z
#    x 3.747730 0.000000 0.000000 
#    y 0.000000 3.951710 0.000000 
#    z 0.000000 0.000000 4.170870 
# 
# 
# High freq. dielectric constant tensor:
#      x y z
#    x 1.832160 0.000000 0.000000 
#    y 0.000000 1.861740 0.000000 
#    z 0.000000 0.000000 1.865610 
# 
# From -- ./inp_files/10336.got.cif
#   From: 2010.03.12/outbox.cif.g09.slc.cpg/sg74_6_cif.got.tgz:10336.got - 2010.04.16 15:46:19.
