data_PCOD8301674
_publ_section_title
;
Structure prediction by ZEFSAII (Michael W. Deem and Ramdas Pophale) SiO2 
 PCOD8301674
Probable space group: I M M A
;
_chemical_formula_sum "Si O2"
_cell_formula_units_Z 88
_cell_length_a 28.757170
_cell_length_b 12.857200
_cell_length_c 12.511512
_cell_angle_alpha 90.000000
_cell_angle_beta 90.000000
_cell_angle_gamma 90.000000
_cell_volume 4625.964985
_symmetry_space_group_name_H-M "I M M A"
_symmetry_group_IT_number 74
_symmetry_cell_setting 'orthorhombic'
loop_
_space_group_symop_operation_xyz
x,y,z
-x,1/2-y,z
x,-y,-z
-x,1/2+y,-z
-x,-y,-z
x,1/2+y,-z
-x,y,z
x,1/2-y,z
1/2+x,1/2+y,1/2+z
1/2-x,-y,1/2+z
1/2+x,1/2-y,1/2-z
1/2-x,y,1/2-z
1/2-x,1/2-y,1/2-z
1/2+x,y,1/2-z
1/2-x,1/2+y,1/2+z
1/2+x,-y,1/2+z
loop_
_atom_site_type_symbol
_atom_site_label
_atom_site_fract_x
_atom_site_fract_y
_atom_site_fract_z
Si Si1 0.359275 0.520794 0.122916
Si Si2 0.358201 0.628333 0.680584
Si Si3 0.947673 0.370739 0.703127
Si Si4 0.801594 0.500000 0.000000
Si Si5 0.232061 0.638910 0.367100
Si Si6 0.551942 0.468953 0.382766
O O1 0.350368 0.421871 0.201629
O O2 0.410639 0.570613 0.129042
O O3 0.320156 0.602112 0.151982
O O4 0.350448 0.500000 0.000000
O O5 0.343428 0.750000 0.682597
O O6 0.332043 0.566952 0.584609
O O7 0.413418 0.619346 0.660119
O O8 0.934712 0.250000 0.714842
O O9 0.944338 0.422778 0.819036
O O10 0.000000 0.384261 0.655419
O O11 0.767097 0.429787 0.933574
O O12 0.230272 0.750000 0.426402
O O13 0.250000 0.652328 0.250000
O O14 0.567180 0.500000 0.500000
O O15 0.500000 0.422004 0.377065
#
# Coordination Sequence:
#
# PCOD8301674 Si02
#       6
#    16  16  16   8  16  16
#     4  11  23  42  62  86 121 157 205 257 298 354
#     4  11  24  40  61  90 125 164 201 245 308 366
#     4   9  19  36  59  87 117 152 195 244 300 355
#     4  12  22  44  61  92 125 158 194 256 304 368
#     4  11  23  40  63  89 120 160 201 243 298 357
#     4   9  18  35  57  87 124 157 196 243 292 356
#
# _framework density 19.023057999999999
#
# number of rings (size 3 to 8) (size 9 to 14) (size 15 to 20)
#    0.000    1.636    3.636    1.091    0.000    2.909 
#    0.000    2.727    0.000    0.000    0.000    0.000 
#    0.000    0.000    0.000    0.000    0.000    0.000 
#
# Total GULP energy -545170.028477 kJ/mol
# GULP energy per Si atom -12390.227920 kJ/mol
# Density = 1.897976 g / cm^3
# Si number density = 19.023058 Si / 1000 Ang^3
#
#
#
# Elastic Constant Matrix: (Units=GPa)
#
#
# Indices 1 2 3 4 5 6 
#
# 1 104.5158 53.0360 27.7767 0.0000 0.0000 0.0000
# 2 53.0360 137.5654 40.3472 0.0000 0.0000 0.0000
# 3 27.7767 40.3472 87.5258 0.0000 0.0000 0.0000
# 4 0.0000 0.0000 0.0000 -1.4489 0.0000 0.0000
# 5 0.0000 0.0000 0.0000 0.0000 23.5354 0.0000
# 6 0.0000 0.0000 0.0000 0.0000 0.0000 -73.4692
#
#
#
# Elastic Compliance Matrix: (Units=1/GPa)
#
#
# Indices 1 2 3 4 5 6 
#
# 1 0.012181 -0.004119 -0.001967 0.000000 0.000000 0.000000
# 2 -0.004119 0.009799 -0.003210 0.000000 0.000000 0.000000
# 3 -0.001967 -0.003210 0.013529 0.000000 0.000000 0.000000
# 4 0.000000 0.000000 0.000000 -0.690195 0.000000 0.000000
# 5 0.000000 0.000000 0.000000 0.000000 0.042489 0.000000
# 6 0.000000 0.000000 0.000000 0.000000 0.000000 -0.013611
#
#
# Mechanical properties :
#
#
# Convention : Reuss Voigt Hill
#
# Bulk Modulus (GPa) = 59.11180 63.54744 61.32962
# Shear Modulus (GPa) = -8.31147 3.61996 -2.34576
#
# Velocity S-wave (km/s) = -2.09252 1.38096 -1.11166
# Velocity P-wave (km/s) = 5.03021 6.00173 5.53732
#
# Compressibility (1/GPa) = 0.01691709
#
# Stress axis : x y z
#
# Youngs Moduli (GPa) = 82.09535 102.05338 73.91550
#
# Poissons Ratio (x) = 0.42039 0.14538
# Poissons Ratio (y) = 0.33818 0.23725
# Poissons Ratio (z) = 0.16146 0.32756
#
# Static dielectric constant tensor:
#      x y z
#    x 3.857150 0.000000 0.000000 
#    y 0.000000 3.743150 0.000000 
#    z 0.000000 0.000000 -13.878090 
# 
# 
# High freq. dielectric constant tensor:
#      x y z
#    x 1.760820 0.000000 0.000000 
#    y 0.000000 1.732360 0.000000 
#    z 0.000000 0.000000 1.737750 
# 
# From -- ./inp_files/27001.got.cif
#   From: 2010.03.12/outbox.cif.g09.slc.cpg/sg74_14_cif.got.tgz:27001.got - 2010.04.16 15:46:19.
