data_PCOD8301973
_publ_section_title
;
Structure prediction by ZEFSAII (Michael W. Deem and Ramdas Pophale) SiO2 
 PCOD8301973
Probable space group: P 41
;
_chemical_formula_sum "Si O2"
_cell_formula_units_Z 16
_cell_length_a 9.625760
_cell_length_b 9.625760
_cell_length_c 6.710182
_cell_angle_alpha 90.000000
_cell_angle_beta 90.000000
_cell_angle_gamma 90.000000
_cell_volume 621.733628
_symmetry_space_group_name_H-M "P 41"
_symmetry_group_IT_number 76
_symmetry_cell_setting 'tetragonal'
loop_
_space_group_symop_operation_xyz
x,y,z
-y,x,1/4+z
-x,-y,1/2+z
y,-x,3/4+z
loop_
_atom_site_type_symbol
_atom_site_label
_atom_site_fract_x
_atom_site_fract_y
_atom_site_fract_z
Si Si1 0.664157 0.848564 0.068960
Si Si2 0.057609 0.176009 0.379136
Si Si3 0.685110 0.469148 0.503163
Si Si4 0.064306 0.546605 0.733105
O O1 0.604393 0.852659 0.291833
O O2 0.831949 0.849949 0.060388
O O3 0.624342 0.706593 0.951932
O O4 0.593529 0.974872 0.941580
O O5 0.907352 0.117650 0.439415
O O6 0.042545 0.335415 0.311161
O O7 0.608740 0.606300 0.575547
O O8 0.831537 0.506494 0.403268
#
# Coordination Sequence:
#
# PCOD8301973 Si02
#       4
#     4   4   4   4
#     4  12  26  49  83 111 161 214 270 335 409 486
#     4  12  25  46  76 121 160 210 273 334 409 490
#     4  12  30  52  79 119 162 217 279 333 407 495
#     4  12  27  51  82 115 167 213 268 344 415 483
#
# _framework density 25.734496
#
# number of rings (size 3 to 8) (size 9 to 14) (size 15 to 20)
#    0.000    0.000    5.000    3.000    3.500    6.000 
#    0.000    0.000    0.000    0.000    0.000    0.000 
#    0.000    0.000    0.000    0.000    0.000    0.000 
#
# Total GULP energy -198355.968850 kJ/mol
# GULP energy per Si atom -12397.248053 kJ/mol
# Density = 2.567592 g / cm^3
# Si number density = 25.734496 Si / 1000 Ang^3
#
#
#
# Elastic Constant Matrix: (Units=GPa)
#
#
# Indices 1 2 3 4 5 6 
#
# 1 96.2777 44.3822 24.0359 0.0000 0.0000 -7.7155
# 2 44.3822 96.2777 24.0359 0.0000 0.0000 7.7155
# 3 24.0359 24.0359 128.7705 0.0000 0.0000 0.0000
# 4 0.0000 0.0000 0.0000 50.9699 0.0000 0.0000
# 5 0.0000 0.0000 0.0000 0.0000 50.9699 0.0000
# 6 -7.7155 7.7155 0.0000 0.0000 0.0000 29.6190
#
#
#
# Elastic Compliance Matrix: (Units=1/GPa)
#
#
# Indices 1 2 3 4 5 6 
#
# 1 0.014241 -0.006647 -0.001417 0.000000 0.000000 0.005441
# 2 -0.006647 0.014241 -0.001417 0.000000 0.000000 -0.005441
# 3 -0.001417 -0.001417 0.008295 0.000000 0.000000 0.000000
# 4 0.000000 0.000000 0.000000 0.019619 0.000000 0.000000
# 5 0.000000 0.000000 0.000000 0.000000 0.019619 0.000000
# 6 0.005441 -0.005441 0.000000 0.000000 0.000000 0.036597
#
#
# Mechanical properties :
#
#
# Convention : Reuss Voigt Hill
#
# Bulk Modulus (GPa) = 56.13965 56.24819 56.19392
# Shear Modulus (GPa) = 36.36030 41.56986 38.96508
#
# Velocity S-wave (km/s) = 3.76294 4.02348 3.89539
# Velocity P-wave (km/s) = 6.38294 6.59463 6.48965
#
# Compressibility (1/GPa) = 0.01781272
#
# Stress axis : x y z
#
# Youngs Moduli (GPa) = 70.22192 70.22192 120.55608
#
# Poissons Ratio (x) = 0.46675 0.17088
# Poissons Ratio (y) = 0.46675 0.17088
# Poissons Ratio (z) = 0.09953 0.09953
#
# Static dielectric constant tensor:
#      x y z
#    x 4.615580 0.000000 0.000000 
#    y 0.000000 4.615580 0.000000 
#    z 0.000000 0.000000 4.628030 
# 
# 
# High freq. dielectric constant tensor:
#      x y z
#    x 2.027660 0.000000 0.000000 
#    y 0.000000 2.027660 0.000000 
#    z 0.000000 0.000000 2.040340 
# 
# From -- ./inp_files/391.got.cif
#   From: 2010.03.12/outbox.cif.g09.slc.cpg/sg76_cif.got.tgz:391.got - 2010.04.16 16:34:25.
