data_PCOD8301206
_publ_section_title
;
Structure prediction by ZEFSAII (Michael W. Deem and Ramdas Pophale) SiO2 
 PCOD8301206
Probable space group: I M M A
;
_chemical_formula_sum "Si O2"
_cell_formula_units_Z 128
_cell_length_a 18.090188
_cell_length_b 19.981697
_cell_length_c 19.396795
_cell_angle_alpha 90.000000
_cell_angle_beta 90.000000
_cell_angle_gamma 90.000000
_cell_volume 7011.410993
_symmetry_space_group_name_H-M "I M M A"
_symmetry_group_IT_number 74
_symmetry_cell_setting 'orthorhombic'
loop_
_space_group_symop_operation_xyz
x,y,z
-x,1/2-y,z
x,-y,-z
-x,1/2+y,-z
-x,-y,-z
x,1/2+y,-z
-x,y,z
x,1/2-y,z
1/2+x,1/2+y,1/2+z
1/2-x,-y,1/2+z
1/2+x,1/2-y,1/2-z
1/2-x,y,1/2-z
1/2-x,1/2-y,1/2-z
1/2+x,y,1/2-z
1/2-x,1/2+y,1/2+z
1/2+x,-y,1/2+z
loop_
_atom_site_type_symbol
_atom_site_label
_atom_site_fract_x
_atom_site_fract_y
_atom_site_fract_z
Si Si1 0.912452 0.177182 0.365430
Si Si2 0.417741 0.824107 0.446042
Si Si3 0.829451 0.452437 0.784940
Si Si4 0.087585 0.537634 0.687308
Si Si5 0.917306 0.323926 0.782631
Si Si6 0.145413 0.044600 0.561776
Si Si7 0.086700 0.177699 0.519495
Si Si8 0.316245 0.444364 0.552886
O O1 0.883561 0.250000 0.337952
O O2 0.881571 0.164392 0.442562
O O3 0.000000 0.178910 0.367754
O O4 0.887205 0.115410 0.317493
O O5 0.500000 0.844476 0.472517
O O6 0.397099 0.750000 0.474088
O O7 0.419036 0.822763 0.364285
O O8 0.356314 0.876338 0.471608
O O9 0.750000 0.463205 0.750000
O O10 0.886196 0.510371 0.760961
O O11 0.859445 0.380311 0.758324
O O12 0.831286 0.460621 0.867118
O O13 0.133509 0.494600 0.632098
O O14 0.000000 0.528819 0.676163
O O15 0.892934 0.250000 0.755304
O O16 0.000000 0.340633 0.754782
O O17 0.107391 0.116977 0.569531
O O18 0.229249 0.062134 0.543697
O O19 0.110536 0.000000 0.500000
O O20 0.117018 0.250000 0.546877
O O21 0.000000 0.182162 0.514946
O O22 0.347205 0.500000 0.500000
#
# Coordination Sequence:
#
# PCOD8301206 Si02
#       8
#    16  16  16  16  16  16  16  16
#     4   8  15  29  50  77 105 137 179 220 259 309
#     4   8  15  31  56  81 103 132 176 227 271 314
#     4  11  21  36  52  76 108 144 178 224 269 318
#     4  11  21  33  55  81 105 143 183 223 271 320
#     4   8  15  30  52  75 101 135 176 218 258 312
#     4  11  20  32  50  77 110 146 182 217 263 312
#     4   9  17  29  46  71 107 147 184 221 257 300
#     4  10  22  37  55  79 109 143 178 218 272 324
#
# _framework density 18.255955
#
# number of rings (size 3 to 8) (size 9 to 14) (size 15 to 20)
#    0.000    2.500    2.500    2.250    0.000    2.000 
#    0.000    0.625    0.000    3.375    0.000    1.750 
#    0.000    0.000    0.000    0.000    0.000    0.000 
#
# Total GULP energy -793025.046322 kJ/mol
# GULP energy per Si atom -12391.016349 kJ/mol
# Density = 1.821440 g / cm^3
# Si number density = 18.255955 Si / 1000 Ang^3
#
#
#
# Elastic Constant Matrix: (Units=GPa)
#
#
# Indices 1 2 3 4 5 6 
#
# 1 64.5178 46.9859 11.1945 0.0000 0.0000 0.0000
# 2 46.9859 163.8165 40.1878 0.0000 0.0000 0.0000
# 3 11.1945 40.1878 53.1096 0.0000 0.0000 0.0000
# 4 0.0000 0.0000 0.0000 24.4880 0.0000 0.0000
# 5 0.0000 0.0000 0.0000 0.0000 14.6135 0.0000
# 6 0.0000 0.0000 0.0000 0.0000 0.0000 21.4797
#
#
#
# Elastic Compliance Matrix: (Units=1/GPa)
#
#
# Indices 1 2 3 4 5 6 
#
# 1 0.019593 -0.005657 0.000150 0.000000 0.000000 0.000000
# 2 -0.005657 0.009129 -0.005716 0.000000 0.000000 0.000000
# 3 0.000150 -0.005716 0.023122 0.000000 0.000000 0.000000
# 4 0.000000 0.000000 0.000000 0.040836 0.000000 0.000000
# 5 0.000000 0.000000 0.000000 0.000000 0.068430 0.000000
# 6 0.000000 0.000000 0.000000 0.000000 0.000000 0.046556
#
#
# Mechanical properties :
#
#
# Convention : Reuss Voigt Hill
#
# Bulk Modulus (GPa) = 34.01266 53.13115 43.57190
# Shear Modulus (GPa) = 20.84119 24.32128 22.58123
#
# Velocity S-wave (km/s) = 3.38244 3.65394 3.52081
# Velocity P-wave (km/s) = 5.82460 6.85335 6.35981
#
# Compressibility (1/GPa) = 0.02940082
#
# Stress axis : x y z
#
# Youngs Moduli (GPa) = 51.03877 109.54159 43.24851
#
# Poissons Ratio (x) = 0.61963 -0.00651
# Poissons Ratio (y) = 0.28870 0.24719
# Poissons Ratio (z) = -0.00768 0.62609
#
# Static dielectric constant tensor:
#      x y z
#    x 3.247190 0.000000 0.000000 
#    y 0.000000 4.019250 0.000000 
#    z 0.000000 0.000000 3.087370 
# 
# 
# High freq. dielectric constant tensor:
#      x y z
#    x 1.688610 0.000000 0.000000 
#    y 0.000000 1.722970 0.000000 
#    z 0.000000 0.000000 1.668410 
# 
# From -- ./inp_files/54170.got.cif
#   From: 2010.03.12/outbox.cif.g09.slc.cpg/sg74_28_cif.got.tgz:54170.got - 2010.04.16 15:46:19.
