data_PCOD8301513
_publ_section_title
;
Structure prediction by ZEFSAII (Michael W. Deem and Ramdas Pophale) SiO2 
 PCOD8301513
Probable space group: I M M A
;
_chemical_formula_sum "Si O2"
_cell_formula_units_Z 96
_cell_length_a 24.853773
_cell_length_b 19.178389
_cell_length_c 10.457645
_cell_angle_alpha 90.000000
_cell_angle_beta 90.000000
_cell_angle_gamma 90.000000
_cell_volume 4984.692194
_symmetry_space_group_name_H-M "I M M A"
_symmetry_group_IT_number 74
_symmetry_cell_setting 'orthorhombic'
loop_
_space_group_symop_operation_xyz
x,y,z
-x,1/2-y,z
x,-y,-z
-x,1/2+y,-z
-x,-y,-z
x,1/2+y,-z
-x,y,z
x,1/2-y,z
1/2+x,1/2+y,1/2+z
1/2-x,-y,1/2+z
1/2+x,1/2-y,1/2-z
1/2-x,y,1/2-z
1/2-x,1/2-y,1/2-z
1/2+x,y,1/2-z
1/2-x,1/2+y,1/2+z
1/2+x,-y,1/2+z
loop_
_atom_site_type_symbol
_atom_site_label
_atom_site_fract_x
_atom_site_fract_y
_atom_site_fract_z
Si Si1 0.345436 0.078034 0.453935
Si Si2 0.339260 0.398704 0.962693
Si Si3 0.061086 0.669667 0.880162
Si Si4 0.259886 0.828177 0.396243
Si Si5 0.191524 0.516959 0.701296
Si Si6 0.439121 0.169438 0.082443
O O1 0.399985 0.122633 0.466832
O O2 0.299127 0.116062 0.535793
O O3 0.332962 0.070322 0.304185
O O4 0.355203 0.000000 0.500000
O O5 0.300879 0.331412 0.951416
O O6 0.341260 0.445121 0.831173
O O7 0.307437 0.441392 0.070225
O O8 0.399866 0.378281 0.998194
O O9 0.074509 0.750000 0.908414
O O10 0.069958 0.653584 0.731042
O O11 0.000000 0.652484 0.919810
O O12 0.282719 0.750000 0.416580
O O13 0.250000 0.847591 0.250000
O O14 0.250000 0.493834 0.750000
O O15 0.500000 0.150118 0.042930
O O16 0.427561 0.250000 0.052753
#
# Coordination Sequence:
#
# PCOD8301513 Si02
#       6
#    16  16  16  16  16  16
#     4  12  22  37  59  86 117 156 200 243 303 365
#     4  11  20  36  59  83 120 158 197 241 300 365
#     4   9  19  37  59  84 117 155 199 252 305 355
#     4  11  24  40  59  86 119 155 200 252 305 369
#     4  11  22  36  53  85 119 159 193 241 297 361
#     4   9  18  35  59  87 120 156 199 254 309 359
#
# _framework density 19.258962
#
# number of rings (size 3 to 8) (size 9 to 14) (size 15 to 20)
#    0.000    1.500    3.333    4.500    0.000    0.333 
#    0.000    3.333    0.000    3.000    0.000   11.667 
#    0.000    0.000    0.000    0.000    0.000    0.000 
#
# Total GULP energy -594773.793486 kJ/mol
# GULP energy per Si atom -12391.120698 kJ/mol
# Density = 1.921513 g / cm^3
# Si number density = 19.258962 Si / 1000 Ang^3
#
#
#
# Elastic Constant Matrix: (Units=GPa)
#
#
# Indices 1 2 3 4 5 6 
#
# 1 137.6265 68.9145 44.7604 0.0000 0.0000 0.0000
# 2 68.9145 114.7382 46.6500 0.0000 0.0000 0.0000
# 3 44.7604 46.6500 73.5797 0.0000 0.0000 0.0000
# 4 0.0000 0.0000 0.0000 24.0037 0.0000 0.0000
# 5 0.0000 0.0000 0.0000 0.0000 25.6542 0.0000
# 6 0.0000 0.0000 0.0000 0.0000 0.0000 38.9153
#
#
#
# Elastic Compliance Matrix: (Units=1/GPa)
#
#
# Indices 1 2 3 4 5 6 
#
# 1 0.010977 -0.005225 -0.003365 0.000000 0.000000 0.000000
# 2 -0.005225 0.014229 -0.005843 0.000000 0.000000 0.000000
# 3 -0.003365 -0.005843 0.019342 0.000000 0.000000 0.000000
# 4 0.000000 0.000000 0.000000 0.041660 0.000000 0.000000
# 5 0.000000 0.000000 0.000000 0.000000 0.038980 0.000000
# 6 0.000000 0.000000 0.000000 0.000000 0.000000 0.025697
#
#
# Mechanical properties :
#
#
# Convention : Reuss Voigt Hill
#
# Bulk Modulus (GPa) = 63.76451 71.84380 67.80416
# Shear Modulus (GPa) = 27.03025 28.75595 27.89310
#
# Velocity S-wave (km/s) = 3.75042 3.86828 3.80981
# Velocity P-wave (km/s) = 7.20660 7.57209 7.39160
#
# Compressibility (1/GPa) = 0.01568270
#
# Stress axis : x y z
#
# Youngs Moduli (GPa) = 91.10281 70.27761 51.70054
#
# Poissons Ratio (x) = 0.36718 0.17396
# Poissons Ratio (y) = 0.47599 0.30209
# Poissons Ratio (z) = 0.30654 0.41064
#
# Static dielectric constant tensor:
#      x y z
#    x 3.473160 0.000000 0.000000 
#    y 0.000000 3.595650 0.000000 
#    z 0.000000 0.000000 3.594490 
# 
# 
# High freq. dielectric constant tensor:
#      x y z
#    x 1.741440 0.000000 0.000000 
#    y 0.000000 1.756700 0.000000 
#    z 0.000000 0.000000 1.739820 
# 
# From -- ./inp_files/25298.got.cif
#   From: 2010.03.12/outbox.cif.g09.slc.cpg/sg74_13_cif.got.tgz:25298.got - 2010.04.16 15:46:19.
