data_PCOD8301960
_publ_section_title
;
Structure prediction by ZEFSAII (Michael W. Deem and Ramdas Pophale) SiO2 
 PCOD8301960
Probable space group: P 41
;
_chemical_formula_sum "Si O2"
_cell_formula_units_Z 28
_cell_length_a 13.735450
_cell_length_b 13.735450
_cell_length_c 6.712520
_cell_angle_alpha 90.000000
_cell_angle_beta 90.000000
_cell_angle_gamma 90.000000
_cell_volume 1266.401386
_symmetry_space_group_name_H-M "P 41"
_symmetry_group_IT_number 76
_symmetry_cell_setting 'tetragonal'
loop_
_space_group_symop_operation_xyz
x,y,z
-y,x,1/4+z
-x,-y,1/2+z
y,-x,3/4+z
loop_
_atom_site_type_symbol
_atom_site_label
_atom_site_fract_x
_atom_site_fract_y
_atom_site_fract_z
Si Si1 0.879155 0.939391 0.554390
Si Si2 0.294887 0.015955 0.331775
Si Si3 0.136607 0.384899 0.309318
Si Si4 0.413904 0.202185 0.409724
Si Si5 0.135530 0.264686 0.915179
Si Si6 0.651529 0.293684 0.879839
Si Si7 0.511024 0.631988 0.642521
O O1 0.833887 0.848209 0.434781
O O2 0.978333 0.900822 0.646526
O O3 0.808575 0.982181 0.722217
O O4 0.278319 0.965091 0.544761
O O5 0.330085 0.126320 0.352412
O O6 0.374429 0.954766 0.207096
O O7 0.236989 0.361554 0.422600
O O8 0.138968 0.493979 0.227719
O O9 0.121136 0.309168 0.132507
O O10 0.376520 0.267783 0.593359
O O11 0.437435 0.269709 0.219066
O O12 0.224186 0.317798 0.808579
O O13 0.551811 0.345080 0.945749
O O14 0.446181 0.591834 0.825759
#
# Coordination Sequence:
#
# PCOD8301960 Si02
#       7
#     4   4   4   4   4   4   4
#     4  12  25  45  75 104 141 181 239 292 363 427
#     4  11  28  44  71 104 145 184 239 290 362 432
#     4  11  24  50  67 105 148 183 237 296 347 435
#     4  12  26  43  76 102 144 193 237 291 369 421
#     4  11  25  48  69 106 145 186 230 301 353 429
#     4  11  25  45  74 102 143 187 243 291 358 424
#     4  12  25  45  72 105 142 184 243 301 358 426
#
# _framework density 22.109891999999999
#
# number of rings (size 3 to 8) (size 9 to 14) (size 15 to 20)
#    0.000    0.571    2.857    4.286    8.000    0.000 
#    0.000    0.000    0.000    0.000    0.000    0.000 
#    0.000    0.000    0.000    0.000    0.000    0.000 
#
# Total GULP energy -347436.441707 kJ/mol
# GULP energy per Si atom -12408.444347 kJ/mol
# Density = 2.205957 g / cm^3
# Si number density = 22.109892 Si / 1000 Ang^3
#
#
#
# Elastic Constant Matrix: (Units=GPa)
#
#
# Indices 1 2 3 4 5 6 
#
# 1 74.3996 9.3438 18.3657 0.0000 0.0000 -15.1055
# 2 9.3438 74.3996 18.3657 0.0000 0.0000 15.1055
# 3 18.3657 18.3657 94.3913 0.0000 0.0000 0.0000
# 4 0.0000 0.0000 0.0000 39.7144 0.0000 0.0000
# 5 0.0000 0.0000 0.0000 0.0000 39.7144 0.0000
# 6 -15.1055 15.1055 0.0000 0.0000 0.0000 39.8518
#
#
#
# Elastic Compliance Matrix: (Units=1/GPa)
#
#
# Indices 1 2 3 4 5 6 
#
# 1 0.015855 -0.002800 -0.002540 0.000000 0.000000 0.007071
# 2 -0.002800 0.015855 -0.002540 0.000000 0.000000 -0.007071
# 3 -0.002540 -0.002540 0.011583 0.000000 0.000000 0.000000
# 4 0.000000 0.000000 0.000000 0.025180 0.000000 0.000000
# 5 0.000000 0.000000 0.000000 0.000000 0.025180 0.000000
# 6 0.007071 -0.007071 0.000000 0.000000 0.000000 0.030453
#
#
# Mechanical properties :
#
#
# Convention : Reuss Voigt Hill
#
# Bulk Modulus (GPa) = 36.32036 37.26008 36.79022
# Shear Modulus (GPa) = 33.54710 36.99714 35.27212
#
# Velocity S-wave (km/s) = 3.89947 4.09507 3.99847
# Velocity P-wave (km/s) = 6.06113 6.26485 6.16383
#
# Compressibility (1/GPa) = 0.02753276
#
# Stress axis : x y z
#
# Youngs Moduli (GPa) = 63.07059 63.07059 86.33578
#
# Poissons Ratio (x) = 0.17659 0.21931
# Poissons Ratio (y) = 0.17659 0.21931
# Poissons Ratio (z) = 0.16021 0.16021
#
# Static dielectric constant tensor:
#      x y z
#    x 4.045590 0.000000 0.000000 
#    y 0.000000 4.045590 0.000000 
#    z 0.000000 0.000000 3.922350 
# 
# 
# High freq. dielectric constant tensor:
#      x y z
#    x 1.879310 0.000000 0.000000 
#    y 0.000000 1.879310 0.000000 
#    z 0.000000 0.000000 1.876300 
# 
# From -- ./inp_files/276.got.cif
#   From: 2010.03.12/outbox.cif.g09.slc.cpg/sg76_cif.got.tgz:276.got - 2010.04.16 16:34:25.
