data_PCOD8301405
_publ_section_title
;
Structure prediction by ZEFSAII (Michael W. Deem and Ramdas Pophale) SiO2 
 PCOD8301405
Probable space group: I M M A
;
_chemical_formula_sum "Si O2"
_cell_formula_units_Z 88
_cell_length_a 15.392256
_cell_length_b 11.303164
_cell_length_c 24.784388
_cell_angle_alpha 90.000000
_cell_angle_beta 90.000000
_cell_angle_gamma 90.000000
_cell_volume 4312.017414
_symmetry_space_group_name_H-M "I M M A"
_symmetry_group_IT_number 74
_symmetry_cell_setting 'orthorhombic'
loop_
_space_group_symop_operation_xyz
x,y,z
-x,1/2-y,z
x,-y,-z
-x,1/2+y,-z
-x,-y,-z
x,1/2+y,-z
-x,y,z
x,1/2-y,z
1/2+x,1/2+y,1/2+z
1/2-x,-y,1/2+z
1/2+x,1/2-y,1/2-z
1/2-x,y,1/2-z
1/2-x,1/2-y,1/2-z
1/2+x,y,1/2-z
1/2-x,1/2+y,1/2+z
1/2+x,-y,1/2+z
loop_
_atom_site_type_symbol
_atom_site_label
_atom_site_fract_x
_atom_site_fract_y
_atom_site_fract_z
Si Si1 0.604090 0.750000 0.386893
Si Si2 0.159220 0.990177 0.062446
Si Si3 0.662932 0.496014 0.778675
Si Si4 0.674019 0.386914 0.106503
Si Si5 0.102789 0.250000 0.758204
Si Si6 0.000000 0.623892 0.891565
Si Si7 0.000000 0.876486 0.766571
Si Si8 0.500000 0.384446 0.038317
O O1 0.500000 0.750000 0.399194
O O2 0.654796 0.642335 0.414957
O O3 0.620398 0.750000 0.322587
O O4 0.251879 0.052052 0.070693
O O5 0.086665 0.056388 0.095523
O O6 0.135250 0.000000 0.000000
O O7 0.750000 0.540108 0.750000
O O8 0.664194 0.535797 0.840131
O O9 0.650168 0.356653 0.772221
O O10 0.584453 0.552958 0.747579
O O11 0.697942 0.250000 0.119261
O O12 0.584374 0.394784 0.074973
O O13 0.000000 0.250000 0.746896
O O14 0.000000 0.750000 0.922154
O O15 0.000000 0.645519 0.828981
O O16 0.000000 0.750000 0.735811
O O17 0.500000 0.250000 0.011012
O O18 0.500000 0.500000 0.000000
#
# Coordination Sequence:
#
# PCOD8301405 Si02
#       8
#     8  16  16  16   8   8   8   8
#     4  11  24  43  69  98 140 189 222 273 339 392
#     4  12  26  42  67  97 135 178 233 278 331 399
#     4  12  24  41  69  97 136 177 222 270 336 405
#     4  11  25  45  69  98 137 175 223 282 345 401
#     4  11  23  43  69  98 141 175 222 276 332 409
#     4  11  23  39  64  95 137 174 216 275 327 392
#     4  11  23  40  63  97 133 172 221 271 329 399
#     4  10  23  49  73  98 133 180 231 299 356 411
#
# _framework density 20.408080000000002
#
# number of rings (size 3 to 8) (size 9 to 14) (size 15 to 20)
#    0.000    0.727    1.818    6.000    2.545    4.364 
#    3.273    0.000    0.000    0.000    0.000    0.000 
#    0.000    0.000    0.000    0.000    0.000    0.000 
#
# Total GULP energy -545541.012856 kJ/mol
# GULP energy per Si atom -12398.659383 kJ/mol
# Density = 2.036163 g / cm^3
# Si number density = 20.408080 Si / 1000 Ang^3
#
#
#
# Elastic Constant Matrix: (Units=GPa)
#
#
# Indices 1 2 3 4 5 6 
#
# 1 122.8778 33.8958 -1.3823 0.0000 0.0000 0.0000
# 2 33.8958 164.5864 36.4754 0.0000 0.0000 0.0000
# 3 -1.3823 36.4754 72.7655 0.0000 0.0000 0.0000
# 4 0.0000 0.0000 0.0000 37.3257 0.0000 0.0000
# 5 0.0000 0.0000 0.0000 0.0000 -79.5878 0.0000
# 6 0.0000 0.0000 0.0000 0.0000 0.0000 14.3113
#
#
#
# Elastic Compliance Matrix: (Units=1/GPa)
#
#
# Indices 1 2 3 4 5 6 
#
# 1 0.008720 -0.002062 0.001199 0.000000 0.000000 0.000000
# 2 -0.002062 0.007323 -0.003710 0.000000 0.000000 0.000000
# 3 0.001199 -0.003710 0.015625 0.000000 0.000000 0.000000
# 4 0.000000 0.000000 0.000000 0.026791 0.000000 0.000000
# 5 0.000000 0.000000 0.000000 0.000000 -0.012565 0.000000
# 6 0.000000 0.000000 0.000000 0.000000 0.000000 0.069875
#
#
# Mechanical properties :
#
#
# Convention : Reuss Voigt Hill
#
# Bulk Modulus (GPa) = 44.39818 55.35641 49.87729
# Shear Modulus (GPa) = 37.75816 13.82591 25.79203
#
# Velocity S-wave (km/s) = 4.30601 2.60565 3.55887
# Velocity P-wave (km/s) = 6.82090 6.01965 6.43277
#
# Compressibility (1/GPa) = 0.02252345
#
# Stress axis : x y z
#
# Youngs Moduli (GPa) = 114.67413 136.56385 63.99929
#
# Poissons Ratio (x) = 0.28155 -0.07674
# Poissons Ratio (y) = 0.23642 0.23742
# Poissons Ratio (z) = -0.13751 0.50662
#
# Static dielectric constant tensor:
#      x y z
#    x 3.714260 0.000000 0.000000 
#    y 0.000000 4.391890 0.000000 
#    z 0.000000 0.000000 3.631490 
# 
# 
# High freq. dielectric constant tensor:
#      x y z
#    x 1.817110 0.000000 0.000000 
#    y 0.000000 1.822620 0.000000 
#    z 0.000000 0.000000 1.794200 
# 
# From -- ./inp_files/59879.got.cif
#   From: 2010.03.12/outbox.cif.g09.slc.cpg/sg74_30_cif.got.tgz:59879.got - 2010.04.16 15:46:19.
