data_PCOD8301053
_publ_section_title
;
Structure prediction by ZEFSAII (Michael W. Deem and Ramdas Pophale) SiO2 
 PCOD8301053
Probable space group: I M M A
;
_chemical_formula_sum "Si O2"
_cell_formula_units_Z 96
_cell_length_a 8.744621
_cell_length_b 26.750920
_cell_length_c 20.259625
_cell_angle_alpha 90.000000
_cell_angle_beta 90.000000
_cell_angle_gamma 90.000000
_cell_volume 4739.266344
_symmetry_space_group_name_H-M "I M M A"
_symmetry_group_IT_number 74
_symmetry_cell_setting 'orthorhombic'
loop_
_space_group_symop_operation_xyz
x,y,z
-x,1/2-y,z
x,-y,-z
-x,1/2+y,-z
-x,-y,-z
x,1/2+y,-z
-x,y,z
x,1/2-y,z
1/2+x,1/2+y,1/2+z
1/2-x,-y,1/2+z
1/2+x,1/2-y,1/2-z
1/2-x,y,1/2-z
1/2-x,1/2-y,1/2-z
1/2+x,y,1/2-z
1/2-x,1/2+y,1/2+z
1/2+x,-y,1/2+z
loop_
_atom_site_type_symbol
_atom_site_label
_atom_site_fract_x
_atom_site_fract_y
_atom_site_fract_z
Si Si1 0.679056 0.625646 0.319021
Si Si2 0.820532 0.692328 0.680651
Si Si3 0.179883 0.989849 0.180535
Si Si4 0.819191 0.854608 0.946090
Si Si5 0.179736 0.959662 0.554982
Si Si6 0.823470 0.192791 0.568704
O O1 0.500000 0.635213 0.315997
O O2 0.750000 0.643375 0.250000
O O3 0.718797 0.568012 0.333104
O O4 0.749525 0.657898 0.376843
O O5 0.781646 0.750000 0.665796
O O6 0.750000 0.675555 0.750000
O O7 0.744541 0.658087 0.625677
O O8 0.000000 0.682489 0.681965
O O9 0.250000 0.006857 0.250000
O O10 0.259069 0.023138 0.125449
O O11 0.000000 0.999929 0.180715
O O12 0.762888 0.909232 0.967459
O O13 0.000000 0.852840 0.944912
O O14 0.758115 0.814658 0.998657
O O15 0.000000 0.950239 0.559528
O O16 0.222885 0.000000 0.500000
O O17 0.802342 0.250000 0.590633
O O18 0.000000 0.178381 0.560711
#
# Coordination Sequence:
#
# PCOD8301053 Si02
#       6
#    16  16  16  16  16  16
#     4  10  21  38  62  90 121 157 196 241 292 349
#     4  10  21  39  63  90 121 156 195 240 290 346
#     4  10  21  38  61  89 120 154 194 239 289 346
#     4  12  25  40  61  88 119 155 196 243 293 349
#     4  11  24  41  62  87 117 154 195 241 293 349
#     4  11  24  41  61  86 118 156 198 245 295 348
#
# _framework density 20.256301000000001
#
# number of rings (size 3 to 8) (size 9 to 14) (size 15 to 20)
#    0.000    1.333    0.000    5.500    0.000   11.333 
#    0.000    3.333    0.000    0.000    0.000    0.000 
#    0.000    0.000    0.000    0.000    0.000    0.000 
#
# Total GULP energy -595576.506107 kJ/mol
# GULP energy per Si atom -12407.843877 kJ/mol
# Density = 2.021020 g / cm^3
# Si number density = 20.256301 Si / 1000 Ang^3
#
#
#
# Elastic Constant Matrix: (Units=GPa)
#
#
# Indices 1 2 3 4 5 6 
#
# 1 104.5324 23.3607 28.8971 0.0000 0.0000 -0.0001
# 2 23.3607 47.8593 12.7004 -0.0001 0.0000 -0.0001
# 3 28.8971 12.7004 86.5449 -0.0004 0.0000 -0.0001
# 4 0.0000 -0.0001 -0.0004 36.2568 0.0000 0.0000
# 5 0.0000 0.0000 0.0000 0.0000 41.3688 0.0000
# 6 -0.0001 -0.0001 -0.0001 0.0000 0.0000 50.3960
#
#
#
# Elastic Compliance Matrix: (Units=1/GPa)
#
#
# Indices 1 2 3 4 5 6 
#
# 1 0.011503 -0.004782 -0.003139 0.000000 0.000000 0.000000
# 2 -0.004782 0.023729 -0.001886 0.000000 0.000000 0.000000
# 3 -0.003139 -0.001886 0.012880 0.000000 0.000000 0.000000
# 4 0.000000 0.000000 0.000000 0.027581 0.000000 0.000000
# 5 0.000000 0.000000 0.000000 0.000000 0.024173 0.000000
# 6 0.000000 0.000000 0.000000 0.000000 0.000000 0.019843
#
#
# Mechanical properties :
#
#
# Convention : Reuss Voigt Hill
#
# Bulk Modulus (GPa) = 35.08942 40.98368 38.03655
# Shear Modulus (GPa) = 33.59762 37.20288 35.40025
#
# Velocity S-wave (km/s) = 4.07704 4.29022 4.18499
# Velocity P-wave (km/s) = 6.28676 6.69461 6.49389
#
# Compressibility (1/GPa) = 0.02849862
#
# Stress axis : x y z
#
# Youngs Moduli (GPa) = 86.93564 42.14266 77.64262
#
# Poissons Ratio (x) = 0.20151 0.24372
# Poissons Ratio (y) = 0.41569 0.14640
# Poissons Ratio (z) = 0.27289 0.07947
#
# Static dielectric constant tensor:
#      x y z
#    x 3.836250 0.000000 0.000000 
#    y 0.000000 3.646610 0.000000 
#    z 0.000000 0.000000 3.804030 
# 
# 
# High freq. dielectric constant tensor:
#      x y z
#    x 1.809130 0.000000 0.000000 
#    y 0.000000 1.792140 0.000000 
#    z 0.000000 0.000000 1.805080 
# 
# From -- ./inp_files/49054.got.cif
#   From: 2010.03.12/outbox.cif.g09.slc.cpg/sg74_25_cif.got.tgz:49054.got - 2010.04.16 15:46:19.
