data_PCOD8301156
_publ_section_title
;
Structure prediction by ZEFSAII (Michael W. Deem and Ramdas Pophale) SiO2 
 PCOD8301156
Probable space group: I M M A
;
_chemical_formula_sum "Si O2"
_cell_formula_units_Z 64
_cell_length_a 8.643756
_cell_length_b 14.985870
_cell_length_c 24.351006
_cell_angle_alpha 90.000000
_cell_angle_beta 90.000000
_cell_angle_gamma 90.000000
_cell_volume 3154.288172
_symmetry_space_group_name_H-M "I M M A"
_symmetry_group_IT_number 74
_symmetry_cell_setting 'orthorhombic'
loop_
_space_group_symop_operation_xyz
x,y,z
-x,1/2-y,z
x,-y,-z
-x,1/2+y,-z
-x,-y,-z
x,1/2+y,-z
-x,y,z
x,1/2-y,z
1/2+x,1/2+y,1/2+z
1/2-x,-y,1/2+z
1/2+x,1/2-y,1/2-z
1/2-x,y,1/2-z
1/2-x,1/2-y,1/2-z
1/2+x,y,1/2-z
1/2-x,1/2+y,1/2+z
1/2+x,-y,1/2+z
loop_
_atom_site_type_symbol
_atom_site_label
_atom_site_fract_x
_atom_site_fract_y
_atom_site_fract_z
Si Si1 0.818790 0.401950 0.615357
Si Si2 0.184060 0.597975 0.884460
Si Si3 0.682820 0.250000 0.689510
Si Si4 0.816697 0.250000 0.310306
Si Si5 0.170364 0.605421 0.004579
O O1 0.752743 0.500209 0.624452
O O2 0.739110 0.338354 0.659007
O O3 0.785153 0.366203 0.553415
O O4 0.000000 0.401329 0.625549
O O5 0.256517 0.661385 0.839377
O O6 0.000000 0.592978 0.878145
O O7 0.228431 0.638326 0.944703
O O8 0.500000 0.250000 0.692324
O O9 0.750000 0.250000 0.750000
O O10 0.750000 0.250000 0.250000
O O11 0.000000 0.250000 0.309135
O O12 0.000000 0.644777 0.017974
O O13 0.158378 0.500000 0.000000
#
# Coordination Sequence:
#
# PCOD8301156 Si02
#       5
#    16  16   8   8  16
#     4  11  22  38  62  93 125 157 196 243 296 352
#     4  10  21  40  64  90 122 160 199 242 297 355
#     4  12  26  45  64  85 116 155 203 251 297 352
#     4  12  26  43  62  87 118 155 203 253 299 350
#     4   8  16  33  58  88 122 158 194 236 292 354
#
# _framework density 20.289836999999999
#
# number of rings (size 3 to 8) (size 9 to 14) (size 15 to 20)
#    0.000    1.750    0.000    6.750    0.000    7.500 
#    0.000    6.250    0.000    0.000    0.000    0.000 
#    0.000    0.000    0.000    0.000    0.000    0.000 
#
# Total GULP energy -396757.781586 kJ/mol
# GULP energy per Si atom -12398.680675 kJ/mol
# Density = 2.024366 g / cm^3
# Si number density = 20.289837 Si / 1000 Ang^3
#
#
#
# Elastic Constant Matrix: (Units=GPa)
#
#
# Indices 1 2 3 4 5 6 
#
# 1 179.1483 63.9468 88.1525 0.0000 0.0000 0.0000
# 2 63.9468 106.7924 79.2936 0.0000 0.0000 0.0000
# 3 88.1525 79.2936 189.4646 0.0000 0.0000 0.0000
# 4 0.0000 0.0000 0.0000 39.5212 0.0000 0.0000
# 5 0.0000 0.0000 0.0000 0.0000 38.3465 0.0000
# 6 0.0000 0.0000 0.0000 0.0000 0.0000 32.7386
#
#
#
# Elastic Compliance Matrix: (Units=1/GPa)
#
#
# Indices 1 2 3 4 5 6 
#
# 1 0.007801 -0.002867 -0.002430 0.000000 0.000000 0.000000
# 2 -0.002867 0.014639 -0.004793 0.000000 0.000000 0.000000
# 3 -0.002430 -0.004793 0.008414 0.000000 0.000000 0.000000
# 4 0.000000 0.000000 0.000000 0.025303 0.000000 0.000000
# 5 0.000000 0.000000 0.000000 0.000000 0.026078 0.000000
# 6 0.000000 0.000000 0.000000 0.000000 0.000000 0.030545
#
#
# Mechanical properties :
#
#
# Convention : Reuss Voigt Hill
#
# Bulk Modulus (GPa) = 93.67198 104.24345 98.95771
# Shear Modulus (GPa) = 36.62513 38.38875 37.50694
#
# Velocity S-wave (km/s) = 4.25325 4.35445 4.30415
# Velocity P-wave (km/s) = 8.38972 8.76187 8.57781
#
# Compressibility (1/GPa) = 0.01067555
#
# Stress axis : x y z
#
# Youngs Moduli (GPa) = 128.19008 68.30837 118.84505
#
# Poissons Ratio (x) = 0.19585 0.28874
# Poissons Ratio (y) = 0.36754 0.56960
# Poissons Ratio (z) = 0.31145 0.32739
#
# Static dielectric constant tensor:
#      x y z
#    x 3.784640 0.000000 0.000000 
#    y 0.000000 3.611270 0.000000 
#    z 0.000000 0.000000 4.111550 
# 
# 
# High freq. dielectric constant tensor:
#      x y z
#    x 1.799180 0.000000 0.000000 
#    y 0.000000 1.791110 0.000000 
#    z 0.000000 0.000000 1.801780 
# 
# From -- ./inp_files/56423.got.cif
#   From: 2010.03.12/outbox.cif.g09.slc.cpg/sg74_29_cif.got.tgz:56423.got - 2010.04.16 15:46:19.
