data_PCOD8301330
_publ_section_title
;
Structure prediction by ZEFSAII (Michael W. Deem and Ramdas Pophale) SiO2 
 PCOD8301330
Probable space group: I M M A
;
_chemical_formula_sum "Si O2"
_cell_formula_units_Z 56
_cell_length_a 30.559976
_cell_length_b 9.874479
_cell_length_c 9.818761
_cell_angle_alpha 90.000000
_cell_angle_beta 90.000000
_cell_angle_gamma 90.000000
_cell_volume 2962.947036
_symmetry_space_group_name_H-M "I M M A"
_symmetry_group_IT_number 74
_symmetry_cell_setting 'orthorhombic'
loop_
_space_group_symop_operation_xyz
x,y,z
-x,1/2-y,z
x,-y,-z
-x,1/2+y,-z
-x,-y,-z
x,1/2+y,-z
-x,y,z
x,1/2-y,z
1/2+x,1/2+y,1/2+z
1/2-x,-y,1/2+z
1/2+x,1/2-y,1/2-z
1/2-x,y,1/2-z
1/2-x,1/2-y,1/2-z
1/2+x,y,1/2-z
1/2-x,1/2+y,1/2+z
1/2+x,-y,1/2+z
loop_
_atom_site_type_symbol
_atom_site_label
_atom_site_fract_x
_atom_site_fract_y
_atom_site_fract_z
Si Si1 0.500000 0.404203 0.870562
Si Si2 0.593284 0.910841 0.245270
Si Si3 0.305125 0.750000 0.404862
Si Si4 0.141048 0.000000 0.000000
Si Si5 0.348945 0.000000 0.000000
Si Si6 0.297804 0.250000 0.917752
O O1 0.500000 0.250000 0.925180
O O2 0.458149 0.431832 0.776470
O O3 0.500000 0.500000 0.000000
O O4 0.604651 0.750000 0.259092
O O5 0.619236 0.984738 0.126507
O O6 0.607710 0.998968 0.374223
O O7 0.326346 0.875213 0.482868
O O8 0.313504 0.750000 0.241003
O O9 0.253891 0.750000 0.430877
O O10 0.316436 0.125955 0.004021
#
# Coordination Sequence:
#
# PCOD8301330 Si02
#       6
#     8  16   8   8   8   8
#     4  10  22  41  66  96 128 160 208 263 310 366
#     4  11  23  42  65  93 131 163 203 261 317 369
#     4  11  24  43  61  90 129 165 206 268 307 373
#     4  12  21  45  64  88 130 170 204 253 321 372
#     4  12  19  41  64  90 124 162 206 257 311 376
#     4  11  24  41  63  92 125 163 212 260 319 359
#
# _framework density 18.900102
#
# number of rings (size 3 to 8) (size 9 to 14) (size 15 to 20)
#    0.000    0.857    7.143    0.857    0.000    1.714 
#    2.571    1.429    0.000    0.000    0.000    0.000 
#    0.000    0.000    0.000    0.000    0.000    0.000 
#
# Total GULP energy -346998.364871 kJ/mol
# GULP energy per Si atom -12392.798745 kJ/mol
# Density = 1.885708 g / cm^3
# Si number density = 18.900102 Si / 1000 Ang^3
#
#
#
# Elastic Constant Matrix: (Units=GPa)
#
#
# Indices 1 2 3 4 5 6 
#
# 1 181.6560 76.0640 74.1099 0.0000 0.0000 0.0000
# 2 76.0640 141.6012 71.5829 0.0000 0.0000 0.0000
# 3 74.1099 71.5829 136.5758 0.0000 0.0000 0.0000
# 4 0.0000 0.0000 0.0000 37.5355 0.0000 0.0000
# 5 0.0000 0.0000 0.0000 0.0000 35.6441 0.0000
# 6 0.0000 0.0000 0.0000 0.0000 0.0000 32.0399
#
#
#
# Elastic Compliance Matrix: (Units=1/GPa)
#
#
# Indices 1 2 3 4 5 6 
#
# 1 0.007804 -0.002791 -0.002772 0.000000 0.000000 0.000000
# 2 -0.002791 0.010606 -0.004044 0.000000 0.000000 0.000000
# 3 -0.002772 -0.004044 0.010946 0.000000 0.000000 0.000000
# 4 0.000000 0.000000 0.000000 0.026641 0.000000 0.000000
# 5 0.000000 0.000000 0.000000 0.000000 0.028055 0.000000
# 6 0.000000 0.000000 0.000000 0.000000 0.000000 0.031211
#
#
# Mechanical properties :
#
#
# Convention : Reuss Voigt Hill
#
# Bulk Modulus (GPa) = 98.60580 100.37184 99.48882
# Shear Modulus (GPa) = 36.26891 36.91567 36.59229
#
# Velocity S-wave (km/s) = 4.38537 4.42430 4.40488
# Velocity P-wave (km/s) = 8.82764 8.90623 8.86703
#
# Compressibility (1/GPa) = 0.01014139
#
# Stress axis : x y z
#
# Youngs Moduli (GPa) = 128.13126 94.28783 91.35834
#
# Poissons Ratio (x) = 0.26315 0.25326
# Poissons Ratio (y) = 0.35761 0.36948
# Poissons Ratio (z) = 0.35520 0.38133
#
# Static dielectric constant tensor:
#      x y z
#    x 3.874060 0.000000 0.000000 
#    y 0.000000 3.520480 0.000000 
#    z 0.000000 0.000000 3.226330 
# 
# 
# High freq. dielectric constant tensor:
#      x y z
#    x 1.768060 0.000000 0.000000 
#    y 0.000000 1.734530 0.000000 
#    z 0.000000 0.000000 1.724360 
# 
# From -- ./inp_files/26731.got.cif
#   From: 2010.03.12/outbox.cif.g09.slc.cpg/sg74_14_cif.got.tgz:26731.got - 2010.04.16 15:46:19.
