data_PCOD8301219
_publ_section_title
;
Structure prediction by ZEFSAII (Michael W. Deem and Ramdas Pophale) SiO2 
 PCOD8301219
Probable space group: I M M A
;
_chemical_formula_sum "Si O2"
_cell_formula_units_Z 72
_cell_length_a 9.525034
_cell_length_b 15.215779
_cell_length_c 25.049672
_cell_angle_alpha 90.000000
_cell_angle_beta 90.000000
_cell_angle_gamma 90.000000
_cell_volume 3630.469311
_symmetry_space_group_name_H-M "I M M A"
_symmetry_group_IT_number 74
_symmetry_cell_setting 'orthorhombic'
loop_
_space_group_symop_operation_xyz
x,y,z
-x,1/2-y,z
x,-y,-z
-x,1/2+y,-z
-x,-y,-z
x,1/2+y,-z
-x,y,z
x,1/2-y,z
1/2+x,1/2+y,1/2+z
1/2-x,-y,1/2+z
1/2+x,1/2-y,1/2-z
1/2-x,y,1/2-z
1/2-x,1/2-y,1/2-z
1/2+x,y,1/2-z
1/2-x,1/2+y,1/2+z
1/2+x,-y,1/2+z
loop_
_atom_site_type_symbol
_atom_site_label
_atom_site_fract_x
_atom_site_fract_y
_atom_site_fract_z
Si Si1 0.338073 0.387172 0.603615
Si Si2 0.151512 0.649520 0.793068
Si Si3 0.835944 0.250000 0.805700
Si Si4 0.162146 0.907988 0.904615
Si Si5 0.340545 0.104551 0.996713
O O1 0.500000 0.366783 0.588538
O O2 0.298239 0.335923 0.658258
O O3 0.311660 0.490426 0.610008
O O4 0.237848 0.355945 0.555130
O O5 0.133640 0.750000 0.775819
O O6 0.250000 0.600814 0.750000
O O7 0.212186 0.644495 0.852476
O O8 0.000000 0.601479 0.791771
O O9 0.750000 0.250000 0.750000
O O10 0.000000 0.250000 0.790485
O O11 0.256010 0.865542 0.951009
O O12 0.000000 0.891737 0.920036
O O13 0.500000 0.140339 0.997298
O O14 0.337212 0.000000 0.000000
#
# Coordination Sequence:
#
# PCOD8301219 Si02
#       5
#    16  16   8  16  16
#     4   9  18  34  53  72  97 132 169 204 247 299
#     4   9  18  32  48  68  96 128 160 197 240 286
#     4  10  22  38  54  74 102 136 175 218 259 300
#     4   9  17  31  52  74  98 131 168 202 244 302
#     4   9  17  30  50  76 102 126 157 202 252 297
#
# _framework density 19.832146999999999
#
# number of rings (size 3 to 8) (size 9 to 14) (size 15 to 20)
#    0.000    2.889    0.000    0.667    0.000    5.333 
#    2.000    0.000    0.000    0.000    0.000    0.000 
#    0.000    0.000    0.000    0.000    0.000    0.000 
#
# Total GULP energy -446102.355650 kJ/mol
# GULP energy per Si atom -12391.732101 kJ/mol
# Density = 1.978701 g / cm^3
# Si number density = 19.832147 Si / 1000 Ang^3
#
#
#
# Elastic Constant Matrix: (Units=GPa)
#
#
# Indices 1 2 3 4 5 6 
#
# 1 130.1466 18.9573 109.5432 0.0000 0.0000 0.0000
# 2 18.9573 31.3226 19.5320 0.0000 0.0000 0.0000
# 3 109.5432 19.5320 187.0612 0.0000 0.0000 0.0000
# 4 0.0000 0.0000 0.0000 13.6382 0.0000 0.0000
# 5 0.0000 0.0000 0.0000 0.0000 45.9142 0.0000
# 6 0.0000 0.0000 0.0000 0.0000 0.0000 11.1698
#
#
#
# Elastic Compliance Matrix: (Units=1/GPa)
#
#
# Indices 1 2 3 4 5 6 
#
# 1 0.015609 -0.004008 -0.008722 0.000000 0.000000 0.000000
# 2 -0.004008 0.035178 -0.001326 0.000000 0.000000 0.000000
# 3 -0.008722 -0.001326 0.010592 0.000000 0.000000 0.000000
# 4 0.000000 0.000000 0.000000 0.073324 0.000000 0.000000
# 5 0.000000 0.000000 0.000000 0.000000 0.021780 0.000000
# 6 0.000000 0.000000 0.000000 0.000000 0.000000 0.089527
#
#
# Mechanical properties :
#
#
# Convention : Reuss Voigt Hill
#
# Bulk Modulus (GPa) = 30.05983 71.62170 50.84076
# Shear Modulus (GPa) = 17.53094 27.51098 22.52096
#
# Velocity S-wave (km/s) = 2.97638 3.72854 3.37349
# Velocity P-wave (km/s) = 5.19633 7.39786 6.39258
#
# Compressibility (1/GPa) = 0.03326699
#
# Stress axis : x y z
#
# Youngs Moduli (GPa) = 64.06729 28.42648 94.41212
#
# Poissons Ratio (x) = 0.11393 0.82345
# Poissons Ratio (y) = 0.25678 0.12520
# Poissons Ratio (z) = 0.55879 0.03770
#
# Static dielectric constant tensor:
#      x y z
#    x 3.887940 0.000000 0.000000 
#    y 0.000000 3.320790 0.000000 
#    z 0.000000 0.000000 3.667070 
# 
# 
# High freq. dielectric constant tensor:
#      x y z
#    x 1.768360 0.000000 0.000000 
#    y 0.000000 1.748080 0.000000 
#    z 0.000000 0.000000 1.776890 
# 
# From -- ./inp_files/48394.got.cif
#   From: 2010.03.12/outbox.cif.g09.slc.cpg/sg74_25_cif.got.tgz:48394.got - 2010.04.16 15:46:19.
