data_PCOD8301030
_publ_section_title
;
Structure prediction by ZEFSAII (Michael W. Deem and Ramdas Pophale) SiO2 
 PCOD8301030
Probable space group: I M M A
;
_chemical_formula_sum "Si O2"
_cell_formula_units_Z 80
_cell_length_a 25.773208
_cell_length_b 16.504001
_cell_length_c 8.684373
_cell_angle_alpha 90.000000
_cell_angle_beta 90.000000
_cell_angle_gamma 90.000000
_cell_volume 3693.994023
_symmetry_space_group_name_H-M "I M M A"
_symmetry_group_IT_number 74
_symmetry_cell_setting 'orthorhombic'
loop_
_space_group_symop_operation_xyz
x,y,z
-x,1/2-y,z
x,-y,-z
-x,1/2+y,-z
-x,-y,-z
x,1/2+y,-z
-x,y,z
x,1/2-y,z
1/2+x,1/2+y,1/2+z
1/2-x,-y,1/2+z
1/2+x,1/2-y,1/2-z
1/2-x,y,1/2-z
1/2-x,1/2-y,1/2-z
1/2+x,y,1/2-z
1/2-x,1/2+y,1/2+z
1/2+x,-y,1/2+z
loop_
_atom_site_type_symbol
_atom_site_label
_atom_site_fract_x
_atom_site_fract_y
_atom_site_fract_z
Si Si1 0.940740 0.410035 0.447449
Si Si2 0.254845 0.411013 0.068118
Si Si3 0.850798 0.909326 0.061876
Si Si4 0.152191 0.341323 0.613472
Si Si5 0.942023 0.842218 0.878130
O O1 0.925632 0.500000 0.500000
O O2 0.903815 0.347457 0.534252
O O3 0.931575 0.402248 0.264563
O O4 0.000000 0.388845 0.490576
O O5 0.250000 0.414485 0.250000
O O6 0.261252 0.500000 0.000000
O O7 0.201679 0.370420 0.007070
O O8 0.303796 0.358723 0.013710
O O9 0.844954 0.905169 0.246284
O O10 0.901244 0.858622 0.013293
O O11 0.857245 0.000000 0.000000
O O12 0.159169 0.250000 0.675597
O O13 0.936481 0.750000 0.819908
O O14 0.000000 0.857453 0.944208
#
# Coordination Sequence:
#
# PCOD8301030 Si02
#       5
#    16  16  16  16  16
#     4  10  21  39  63  89 119 159 206 253 304 367
#     4  11  23  42  66  90 120 161 209 256 307 369
#     4  11  23  40  62  88 120 161 208 256 306 363
#     4  12  25  39  61  94 129 163 203 257 315 372
#     4  10  21  38  60  86 119 159 201 248 303 362
#
# _framework density 21.656776000000001
#
# number of rings (size 3 to 8) (size 9 to 14) (size 15 to 20)
#    0.000    1.200    0.000    7.200    0.000    5.200 
#    0.000    0.000    0.000    0.000    0.000    0.000 
#    0.000    0.000    0.000    0.000    0.000    0.000 
#
# Total GULP energy -496129.691279 kJ/mol
# GULP energy per Si atom -12403.242282 kJ/mol
# Density = 2.160748 g / cm^3
# Si number density = 21.656776 Si / 1000 Ang^3
#
#
#
# Elastic Constant Matrix: (Units=GPa)
#
#
# Indices 1 2 3 4 5 6 
#
# 1 155.9493 38.5023 63.7755 0.0000 0.0000 0.0000
# 2 38.5023 87.1439 31.2569 0.0000 0.0000 0.0000
# 3 63.7755 31.2569 137.7247 0.0000 0.0000 0.0000
# 4 0.0000 0.0000 0.0000 26.6665 0.0000 0.0000
# 5 0.0000 0.0000 0.0000 0.0000 25.9695 0.0000
# 6 0.0000 0.0000 0.0000 0.0000 0.0000 23.0992
#
#
#
# Elastic Compliance Matrix: (Units=1/GPa)
#
#
# Indices 1 2 3 4 5 6 
#
# 1 0.008389 -0.002518 -0.003313 0.000000 0.000000 0.000000
# 2 -0.002518 0.013248 -0.001841 0.000000 0.000000 0.000000
# 3 -0.003313 -0.001841 0.009213 0.000000 0.000000 0.000000
# 4 0.000000 0.000000 0.000000 0.037500 0.000000 0.000000
# 5 0.000000 0.000000 0.000000 0.000000 0.038507 0.000000
# 6 0.000000 0.000000 0.000000 0.000000 0.000000 0.043291
#
#
# Mechanical properties :
#
#
# Convention : Reuss Voigt Hill
#
# Bulk Modulus (GPa) = 64.49090 71.98745 68.23918
# Shear Modulus (GPa) = 29.29791 31.63259 30.46525
#
# Velocity S-wave (km/s) = 3.68207 3.82597 3.75471
# Velocity P-wave (km/s) = 6.92244 7.26840 7.09753
#
# Compressibility (1/GPa) = 0.01550606
#
# Stress axis : x y z
#
# Youngs Moduli (GPa) = 119.20462 75.48297 108.54472
#
# Poissons Ratio (x) = 0.19007 0.35962
# Poissons Ratio (y) = 0.30017 0.19979
# Poissons Ratio (z) = 0.39494 0.13894
#
# Static dielectric constant tensor:
#      x y z
#    x 4.299010 0.000000 0.000000 
#    y 0.000000 3.777130 0.000000 
#    z 0.000000 0.000000 3.739470 
# 
# 
# High freq. dielectric constant tensor:
#      x y z
#    x 1.873530 0.000000 0.000000 
#    y 0.000000 1.839320 0.000000 
#    z 0.000000 0.000000 1.847620 
# 
# From -- ./inp_files/14919.got.cif
#   From: 2010.03.12/outbox.cif.g09.slc.cpg/sg74_8_cif.got.tgz:14919.got - 2010.04.16 15:46:19.
