data_PCOD8301228
_publ_section_title
;
Structure prediction by ZEFSAII (Michael W. Deem and Ramdas Pophale) SiO2 
 PCOD8301228
Probable space group: I M M A
;
_chemical_formula_sum "Si O2"
_cell_formula_units_Z 72
_cell_length_a 22.034552
_cell_length_b 9.032455
_cell_length_c 17.498022
_cell_angle_alpha 90.000000
_cell_angle_beta 90.000000
_cell_angle_gamma 90.000000
_cell_volume 3482.563066
_symmetry_space_group_name_H-M "I M M A"
_symmetry_group_IT_number 74
_symmetry_cell_setting 'orthorhombic'
loop_
_space_group_symop_operation_xyz
x,y,z
-x,1/2-y,z
x,-y,-z
-x,1/2+y,-z
-x,-y,-z
x,1/2+y,-z
-x,y,z
x,1/2-y,z
1/2+x,1/2+y,1/2+z
1/2-x,-y,1/2+z
1/2+x,1/2-y,1/2-z
1/2-x,y,1/2-z
1/2-x,1/2-y,1/2-z
1/2+x,y,1/2-z
1/2-x,1/2+y,1/2+z
1/2+x,-y,1/2+z
loop_
_atom_site_type_symbol
_atom_site_label
_atom_site_fract_x
_atom_site_fract_y
_atom_site_fract_z
Si Si1 0.337600 0.578624 0.699455
Si Si2 0.738087 0.075586 0.075276
Si Si3 0.629662 0.424523 0.853754
Si Si4 0.067800 0.578715 0.926964
Si Si5 0.500000 0.423564 0.917952
O O1 0.335522 0.750000 0.726071
O O2 0.277330 0.539464 0.651211
O O3 0.345874 0.473992 0.771479
O O4 0.395478 0.542707 0.648356
O O5 0.735165 0.250000 0.061512
O O6 0.670902 0.008254 0.084216
O O7 0.767627 0.000000 0.000000
O O8 0.638863 0.250000 0.862233
O O9 0.559561 0.470081 0.869033
O O10 0.069078 0.750000 0.946148
O O11 0.000000 0.518622 0.912952
O O12 0.097738 0.500000 0.000000
O O13 0.500000 0.250000 0.933670
O O14 0.500000 0.500000 0.000000
#
# Coordination Sequence:
#
# PCOD8301228 Si02
#       5
#    16  16  16  16   8
#     4  10  22  38  58  87 122 157 196 243 296 354
#     4  11  23  40  62  89 122 158 200 246 296 355
#     4  11  24  41  62  89 121 155 199 249 301 356
#     4   9  18  33  53  79 112 152 198 242 288 345
#     4  10  24  44  64  90 119 152 197 248 297 352
#
# _framework density 20.674427999999999
#
# number of rings (size 3 to 8) (size 9 to 14) (size 15 to 20)
#    0.000    1.778    0.000    3.333    1.556    8.889 
#    0.000    0.000    0.000    0.000    0.000    0.000 
#    0.000    0.000    0.000    0.000    0.000    0.000 
#
# Total GULP energy -446406.324450 kJ/mol
# GULP energy per Si atom -12400.175679 kJ/mol
# Density = 2.062737 g / cm^3
# Si number density = 20.674428 Si / 1000 Ang^3
#
#
#
# Elastic Constant Matrix: (Units=GPa)
#
#
# Indices 1 2 3 4 5 6 
#
# 1 124.9552 48.6083 41.9933 0.0000 0.0000 0.0000
# 2 48.6083 79.2298 54.0205 0.0000 0.0000 0.0000
# 3 41.9933 54.0205 108.5591 0.0000 0.0000 0.0000
# 4 0.0000 0.0000 0.0000 43.5336 0.0000 0.0000
# 5 0.0000 0.0000 0.0000 0.0000 -32.7129 0.0000
# 6 0.0000 0.0000 0.0000 0.0000 0.0000 28.7581
#
#
#
# Elastic Compliance Matrix: (Units=1/GPa)
#
#
# Indices 1 2 3 4 5 6 
#
# 1 0.010634 -0.005629 -0.001312 0.000000 0.000000 0.000000
# 2 -0.005629 0.022083 -0.008811 0.000000 0.000000 0.000000
# 3 -0.001312 -0.008811 0.014104 0.000000 0.000000 0.000000
# 4 0.000000 0.000000 0.000000 0.022971 0.000000 0.000000
# 5 0.000000 0.000000 0.000000 0.000000 -0.030569 0.000000
# 6 0.000000 0.000000 0.000000 0.000000 0.000000 0.034773
#
#
# Mechanical properties :
#
#
# Convention : Reuss Voigt Hill
#
# Bulk Modulus (GPa) = 65.29545 66.88762 66.09153
# Shear Modulus (GPa) = 45.20603 19.12389 32.16496
#
# Velocity S-wave (km/s) = 4.68115 3.04468 3.94862
# Velocity P-wave (km/s) = 7.80185 6.69202 7.26815
#
# Compressibility (1/GPa) = 0.01531500
#
# Stress axis : x y z
#
# Youngs Moduli (GPa) = 94.04124 45.28428 70.90329
#
# Poissons Ratio (x) = 0.25491 0.09304
# Poissons Ratio (y) = 0.52937 0.62474
# Poissons Ratio (z) = 0.12340 0.39901
#
# Static dielectric constant tensor:
#      x y z
#    x 4.890380 0.000000 0.000000 
#    y 0.000000 3.646260 0.000000 
#    z 0.000000 0.000000 3.789600 
# 
# 
# High freq. dielectric constant tensor:
#      x y z
#    x 1.823790 0.000000 0.000000 
#    y 0.000000 1.802650 0.000000 
#    z 0.000000 0.000000 1.815870 
# 
# From -- ./inp_files/45810.got.cif
#   From: 2010.03.12/outbox.cif.g09.slc.cpg/sg74_23_cif.got.tgz:45810.got - 2010.04.16 15:46:19.
