data_PCOD8301999
_publ_section_title
;
Structure prediction by ZEFSAII (Michael W. Deem and Ramdas Pophale) SiO2 
 PCOD8301999
Probable space group: P 42
;
_chemical_formula_sum "Si O2"
_cell_formula_units_Z 24
_cell_length_a 8.820811
_cell_length_b 8.820811
_cell_length_c 15.155842
_cell_angle_alpha 90.000000
_cell_angle_beta 90.000000
_cell_angle_gamma 90.000000
_cell_volume 1179.226153
_symmetry_space_group_name_H-M "P 42"
_symmetry_group_IT_number 77
_symmetry_cell_setting 'tetragonal'
loop_
_space_group_symop_operation_xyz
x,y,z
-y,x,1/2+z
-x,-y,z
y,-x,1/2+z
loop_
_atom_site_type_symbol
_atom_site_label
_atom_site_fract_x
_atom_site_fract_y
_atom_site_fract_z
Si Si1 0.780697 0.115151 0.722620
Si Si2 0.884800 0.780801 0.521041
Si Si3 0.884849 0.780697 0.021033
Si Si4 0.724803 0.609778 0.871830
Si Si5 0.780801 0.115200 0.222612
Si Si6 0.724803 0.609778 0.371823
O O1 0.733936 0.147198 0.621827
O O2 0.650312 0.180658 0.784632
O O3 0.939254 0.195555 0.745372
O O4 0.794979 0.936349 0.739561
O O5 0.864925 0.727658 0.621827
O O6 0.819147 0.650429 0.459076
O O7 0.060746 0.804445 0.498281
O O8 0.794979 0.936349 0.504092
O O9 0.819342 0.650312 0.959021
O O10 0.819147 0.650429 0.784577
O O11 0.568529 0.700777 0.872040
O O12 0.700777 0.431471 0.871613
#
# Coordination Sequence:
#
# PCOD8301999 Si02
#       6
#     4   4   4   4   4   4
#     4   9  19  37  60  83 105 133 175 225 270 313
#     4   9  19  37  60  83 105 133 175 225 270 313
#     4   9  19  37  60  83 105 133 175 225 270 313
#     4  11  24  37  50  76 114 149 178 213 260 314
#     4   9  19  37  60  83 105 133 175 225 270 313
#     4  11  24  37  50  76 114 149 178 213 260 314
#
# _framework density 20.352329999999998
#
# number of rings (size 3 to 8) (size 9 to 14) (size 15 to 20)
#    0.000    2.333    0.000    4.000    0.000   10.667 
#    0.000   10.000    0.000    0.000    0.000    0.000 
#    0.000    0.000    0.000    0.000    0.000    0.000 
#
# Total GULP energy -297689.480369 kJ/mol
# GULP energy per Si atom -12403.728349 kJ/mol
# Density = 2.030601 g / cm^3
# Si number density = 20.352330 Si / 1000 Ang^3
#
#
#
# Elastic Constant Matrix: (Units=GPa)
#
#
# Indices 1 2 3 4 5 6 
#
# 1 14.8114 -8.4579 9.8848 0.0000 0.0000 -1.9549
# 2 -8.4579 14.8114 9.8848 0.0000 0.0000 1.9549
# 3 9.8848 9.8848 91.7818 0.0000 0.0000 0.0000
# 4 0.0000 0.0000 0.0000 5.8724 0.0000 0.0000
# 5 0.0000 0.0000 0.0000 0.0000 5.8724 0.0000
# 6 -1.9549 1.9549 0.0000 0.0000 0.0000 35.2455
#
#
#
# Elastic Compliance Matrix: (Units=1/GPa)
#
#
# Indices 1 2 3 4 5 6 
#
# 1 0.140050 0.096671 -0.025495 0.000000 0.000000 0.002406
# 2 0.096671 0.140050 -0.025495 0.000000 0.000000 -0.002406
# 3 -0.025495 -0.025495 0.016387 0.000000 0.000000 0.000000
# 4 0.000000 0.000000 0.000000 0.170288 0.000000 0.000000
# 5 0.000000 0.000000 0.000000 0.000000 0.170288 0.000000
# 6 0.002406 -0.002406 0.000000 0.000000 0.000000 0.028639
#
#
# Mechanical properties :
#
#
# Convention : Reuss Voigt Hill
#
# Bulk Modulus (GPa) = 2.57831 16.00312 9.29071
# Shear Modulus (GPa) = 7.10607 16.73758 11.92183
#
# Velocity S-wave (km/s) = 1.87059 2.87085 2.42290
# Velocity P-wave (km/s) = 2.43620 4.34386 3.52166
#
# Compressibility (1/GPa) = 0.38785105
#
# Stress axis : x y z
#
# Youngs Moduli (GPa) = 7.14029 7.14029 61.02447
#
# Poissons Ratio (x) = -0.69026 1.55579
# Poissons Ratio (y) = -0.69026 1.55579
# Poissons Ratio (z) = 0.18204 0.18204
#
# Static dielectric constant tensor:
#      x y z
#    x 3.514840 0.000000 0.000000 
#    y 0.000000 3.514840 0.000000 
#    z 0.000000 0.000000 3.695740 
# 
# 
# High freq. dielectric constant tensor:
#      x y z
#    x 1.787370 0.000000 0.000000 
#    y 0.000000 1.787370 0.000000 
#    z 0.000000 0.000000 1.807180 
# 
# From -- ./inp_files/1093.got.cif
#   From: 2010.03.12/outbox.cif.g09.slc.cpg/sg77_cif.got.tgz:1093.got - 2010.04.16 16:36:19.
