data_PCOD8301992
_publ_section_title
;
Structure prediction by ZEFSAII (Michael W. Deem and Ramdas Pophale) SiO2 
 PCOD8301992
Probable space group: P 42
;
_chemical_formula_sum "Si O2"
_cell_formula_units_Z 24
_cell_length_a 10.998334
_cell_length_b 10.998334
_cell_length_c 8.749251
_cell_angle_alpha 90.000000
_cell_angle_beta 90.000000
_cell_angle_gamma 90.000000
_cell_volume 1058.338718
_symmetry_space_group_name_H-M "P 42"
_symmetry_group_IT_number 77
_symmetry_cell_setting 'tetragonal'
loop_
_space_group_symop_operation_xyz
x,y,z
-y,x,1/2+z
-x,-y,z
y,-x,1/2+z
loop_
_atom_site_type_symbol
_atom_site_label
_atom_site_fract_x
_atom_site_fract_y
_atom_site_fract_z
Si Si1 0.330736 0.837455 0.853400
Si Si2 0.868918 0.724551 0.015796
Si Si3 0.919055 0.312066 0.539361
Si Si4 0.311796 0.522740 0.517646
Si Si5 0.885235 0.315749 0.880707
Si Si6 0.539148 0.283147 0.362988
O O1 0.348776 0.837006 0.671213
O O2 0.406870 0.720843 0.913325
O O3 0.190059 0.808607 0.882034
O O4 0.353273 0.966577 0.936554
O O5 0.826318 0.867107 0.016992
O O6 0.803929 0.656819 0.874020
O O7 0.013019 0.709792 0.005916
O O8 0.804687 0.392803 0.492842
O O9 0.950391 0.337276 0.716511
O O10 0.433958 0.595036 0.464019
O O11 0.327891 0.482168 0.691444
O O12 0.797125 0.427110 0.926531
#
# Coordination Sequence:
#
# PCOD8301992 Si02
#       6
#     4   4   4   4   4   4
#     4  11  23  38  62  94 126 164 211 262 320 382
#     4  10  22  39  63  93 125 165 214 264 317 376
#     4   9  21  41  60  88 124 163 210 258 317 382
#     4  10  22  41  66  91 124 168 212 262 317 382
#     4  10  22  40  61  88 126 165 204 261 322 378
#     4  10  22  43  66  90 125 167 213 261 317 382
#
# _framework density 22.677050999999999
#
# number of rings (size 3 to 8) (size 9 to 14) (size 15 to 20)
#    0.000    2.000    0.000    3.000    0.000   12.000 
#    0.000    8.333    0.000    2.000    0.000    0.000 
#    0.000    0.000    0.000    0.000    0.000    0.000 
#
# Total GULP energy -297410.360183 kJ/mol
# GULP energy per Si atom -12392.098341 kJ/mol
# Density = 2.262544 g / cm^3
# Si number density = 22.677051 Si / 1000 Ang^3
#
#
#
# Elastic Constant Matrix: (Units=GPa)
#
#
# Indices 1 2 3 4 5 6 
#
# 1 64.5652 54.9885 43.8210 0.0000 0.0000 -0.9539
# 2 54.9885 64.5652 43.8210 0.0000 0.0000 0.9539
# 3 43.8210 43.8210 85.2937 0.0000 0.0000 0.0000
# 4 0.0000 0.0000 0.0000 34.9980 0.0000 0.0000
# 5 0.0000 0.0000 0.0000 0.0000 34.9980 0.0000
# 6 -0.9539 0.9539 0.0000 0.0000 0.0000 32.8996
#
#
#
# Elastic Compliance Matrix: (Units=1/GPa)
#
#
# Indices 1 2 3 4 5 6 
#
# 1 0.059222 -0.045804 -0.006894 0.000000 0.000000 0.003045
# 2 -0.045804 0.059222 -0.006894 0.000000 0.000000 -0.003045
# 3 -0.006894 -0.006894 0.018808 0.000000 0.000000 0.000000
# 4 0.000000 0.000000 0.000000 0.028573 0.000000 0.000000
# 5 0.000000 0.000000 0.000000 0.000000 0.028573 0.000000
# 6 0.003045 -0.003045 0.000000 0.000000 0.000000 0.030572
#
#
# Mechanical properties :
#
#
# Convention : Reuss Voigt Hill
#
# Bulk Modulus (GPa) = 55.34369 55.52055 55.43212
# Shear Modulus (GPa) = 14.27847 25.36537 19.82192
#
# Velocity S-wave (km/s) = 2.51199 3.34810 2.95972
# Velocity P-wave (km/s) = 5.73338 6.28352 6.01474
#
# Compressibility (1/GPa) = 0.01806891
#
# Stress axis : x y z
#
# Youngs Moduli (GPa) = 16.88549 16.88549 53.16955
#
# Poissons Ratio (x) = 0.77343 0.36654
# Poissons Ratio (y) = 0.77343 0.36654
# Poissons Ratio (z) = 0.11640 0.11640
#
# Static dielectric constant tensor:
#      x y z
#    x 4.170120 0.000000 0.000000 
#    y 0.000000 4.170120 0.000000 
#    z 0.000000 0.000000 3.942300 
# 
# 
# High freq. dielectric constant tensor:
#      x y z
#    x 1.897780 0.000000 0.000000 
#    y 0.000000 1.897780 0.000000 
#    z 0.000000 0.000000 1.885640 
# 
# From -- ./inp_files/446.got.cif
#   From: 2010.03.12/outbox.cif.g09.slc.cpg/sg77_cif.got.tgz:446.got - 2010.04.16 16:36:19.
