data_PCOD8301404
_publ_section_title
;
Structure prediction by ZEFSAII (Michael W. Deem and Ramdas Pophale) SiO2 
 PCOD8301404
Probable space group: I M M A
;
_chemical_formula_sum "Si O2"
_cell_formula_units_Z 48
_cell_length_a 21.120165
_cell_length_b 17.842206
_cell_length_c 5.034046
_cell_angle_alpha 90.000000
_cell_angle_beta 90.000000
_cell_angle_gamma 90.000000
_cell_volume 1896.981239
_symmetry_space_group_name_H-M "I M M A"
_symmetry_group_IT_number 74
_symmetry_cell_setting 'orthorhombic'
loop_
_space_group_symop_operation_xyz
x,y,z
-x,1/2-y,z
x,-y,-z
-x,1/2+y,-z
-x,-y,-z
x,1/2+y,-z
-x,y,z
x,1/2-y,z
1/2+x,1/2+y,1/2+z
1/2-x,-y,1/2+z
1/2+x,1/2-y,1/2-z
1/2-x,y,1/2-z
1/2-x,1/2-y,1/2-z
1/2+x,y,1/2-z
1/2-x,1/2+y,1/2+z
1/2+x,-y,1/2+z
loop_
_atom_site_type_symbol
_atom_site_label
_atom_site_fract_x
_atom_site_fract_y
_atom_site_fract_z
Si Si1 0.570075 0.333545 0.573096
Si Si2 0.866433 0.449922 0.246772
Si Si3 0.308251 0.665339 0.066075
O O1 0.500000 0.340884 0.702296
O O2 0.578613 0.250000 0.448302
O O3 0.575268 0.396931 0.344890
O O4 0.624418 0.346732 0.789729
O O5 0.886942 0.500000 0.500000
O O6 0.809017 0.392735 0.320586
O O7 0.842671 0.500000 0.000000
O O8 0.300487 0.750000 0.958992
O O9 0.250000 0.642990 0.250000
#
# Coordination Sequence:
#
# PCOD8301404 Si02
#       3
#    16  16  16
#     4  10  23  46  74 104 143 195 254 308 362 433
#     4  12  25  48  71 108 151 196 235 304 371 444
#     4  10  23  48  79 109 146 195 253 306 360 432
#
# _framework density 25.303359
#
# number of rings (size 3 to 8) (size 9 to 14) (size 15 to 20)
#    0.000    1.333    3.333    1.000    0.000    4.000 
#    6.000    8.333    0.000    0.000    0.000    0.000 
#    0.000    0.000    0.000    0.000    0.000    0.000 
#
# Total GULP energy -297440.116237 kJ/mol
# GULP energy per Si atom -12393.338177 kJ/mol
# Density = 2.524577 g / cm^3
# Si number density = 25.303359 Si / 1000 Ang^3
#
#
#
# Elastic Constant Matrix: (Units=GPa)
#
#
# Indices 1 2 3 4 5 6 
#
# 1 160.8468 49.9310 55.8852 0.0000 0.0000 0.0000
# 2 49.9310 199.7157 86.2194 0.0000 0.0000 0.0000
# 3 55.8852 86.2194 141.9134 0.0000 0.0000 0.0000
# 4 0.0000 0.0000 0.0000 -36.1658 0.0000 0.0000
# 5 0.0000 0.0000 0.0000 0.0000 29.2176 0.0000
# 6 0.0000 0.0000 0.0000 0.0000 0.0000 -62.6737
#
#
#
# Elastic Compliance Matrix: (Units=1/GPa)
#
#
# Indices 1 2 3 4 5 6 
#
# 1 0.007294 -0.000791 -0.002392 0.000000 0.000000 0.000000
# 2 -0.000791 0.006873 -0.003864 0.000000 0.000000 0.000000
# 3 -0.002392 -0.003864 0.010336 0.000000 0.000000 0.000000
# 4 0.000000 0.000000 0.000000 -0.027650 0.000000 0.000000
# 5 0.000000 0.000000 0.000000 0.000000 0.034226 0.000000
# 6 0.000000 0.000000 0.000000 0.000000 0.000000 -0.015956
#
#
# Mechanical properties :
#
#
# Convention : Reuss Voigt Hill
#
# Bulk Modulus (GPa) = 96.07037 98.50523 97.28780
# Shear Modulus (GPa) = 152.97023 6.77166 79.87095
#
# Velocity S-wave (km/s) = 7.78369 1.63768 5.62440
# Velocity P-wave (km/s) = 10.90096 6.52612 8.98390
#
# Compressibility (1/GPa) = 0.01040904
#
# Stress axis : x y z
#
# Youngs Moduli (GPa) = 137.10659 145.49439 96.74812
#
# Poissons Ratio (x) = 0.11508 0.23139
# Poissons Ratio (y) = 0.10845 0.37386
# Poissons Ratio (z) = 0.32791 0.56223
#
# Static dielectric constant tensor:
#      x y z
#    x 4.350810 0.000000 0.000000 
#    y 0.000000 5.343300 0.000000 
#    z 0.000000 0.000000 4.396330 
# 
# 
# High freq. dielectric constant tensor:
#      x y z
#    x 1.993920 0.000000 0.000000 
#    y 0.000000 2.042900 0.000000 
#    z 0.000000 0.000000 1.991090 
# 
# From -- ./inp_files/2672.got.cif
#   From: 2010.03.12/outbox.cif.g09.slc.cpg/sg74_2_cif.got.tgz:2672.got - 2010.04.16 15:46:19.
