data_PCOD8301875
_publ_section_title
;
Structure prediction by ZEFSAII (Michael W. Deem and Ramdas Pophale) SiO2 
 PCOD8301875
Probable space group: P 41
;
_chemical_formula_sum "Si O2"
_cell_formula_units_Z 32
_cell_length_a 11.402210
_cell_length_b 11.402210
_cell_length_c 12.500491
_cell_angle_alpha 90.000000
_cell_angle_beta 90.000000
_cell_angle_gamma 90.000000
_cell_volume 1625.193746
_symmetry_space_group_name_H-M "P 41"
_symmetry_group_IT_number 76
_symmetry_cell_setting 'tetragonal'
loop_
_space_group_symop_operation_xyz
x,y,z
-y,x,1/4+z
-x,-y,1/2+z
y,-x,3/4+z
loop_
_atom_site_type_symbol
_atom_site_label
_atom_site_fract_x
_atom_site_fract_y
_atom_site_fract_z
Si Si1 0.960342 0.624319 0.851570
Si Si2 0.789161 0.837353 0.572797
Si Si3 0.678106 0.166014 0.805499
Si Si4 0.992305 0.610042 0.244776
Si Si5 0.840900 0.941924 0.354658
Si Si6 0.349567 0.731155 0.976444
Si Si7 0.259453 0.611281 0.185770
Si Si8 0.929353 0.171437 0.869432
O O1 0.027670 0.506640 0.815026
O O2 0.866470 0.659437 0.761990
O O3 0.048820 0.730264 0.875707
O O4 0.893912 0.601941 0.962900
O O5 0.778980 0.860797 0.445058
O O6 0.717994 0.723365 0.615235
O O7 0.920751 0.814951 0.613157
O O8 0.683989 0.306399 0.780147
O O9 0.815855 0.130655 0.803158
O O10 0.620239 0.120666 0.915891
O O11 0.117684 0.608115 0.184967
O O12 0.995754 0.720914 0.322763
O O13 0.797176 0.891116 0.240886
O O14 0.981612 0.937110 0.369588
O O15 0.294781 0.649970 0.067726
O O16 0.482351 0.690217 0.957375
#
# Coordination Sequence:
#
# PCOD8301875 Si02
#       8
#     4   4   4   4   4   4   4   4
#     4  10  22  35  57  87 117 156 199 257 304 373
#     4  11  21  37  56  84 121 157 197 245 314 368
#     4  10  20  36  59  85 115 158 205 246 305 380
#     4  10  20  38  58  87 121 155 202 253 313 374
#     4  10  22  34  55  84 118 158 185 247 306 368
#     4  10  20  42  60  86 120 156 215 252 306 367
#     4   9  21  38  65  87 115 165 205 260 306 363
#     4  10  20  36  56  84 117 157 200 242 306 373
#
# _framework density 19.689959000000002
#
# number of rings (size 3 to 8) (size 9 to 14) (size 15 to 20)
#    0.000    2.000    2.500    0.750    3.500    2.000 
#    6.750    1.250    0.000    0.000    0.000    0.000 
#    0.000    0.000    0.000    0.000    0.000    0.000 
#
# Total GULP energy -396497.047884 kJ/mol
# GULP energy per Si atom -12390.532746 kJ/mol
# Density = 1.964514 g / cm^3
# Si number density = 19.689959 Si / 1000 Ang^3
#
#
#
# Elastic Constant Matrix: (Units=GPa)
#
#
# Indices 1 2 3 4 5 6 
#
# 1 75.2745 32.9798 49.0275 0.0000 0.0000 -0.5561
# 2 32.9798 75.2745 49.0275 0.0000 0.0000 0.5561
# 3 49.0275 49.0275 124.8790 0.0000 0.0000 0.0000
# 4 0.0000 0.0000 0.0000 28.0182 0.0000 0.0000
# 5 0.0000 0.0000 0.0000 0.0000 28.0182 0.0000
# 6 -0.5561 0.5561 0.0000 0.0000 0.0000 16.7448
#
#
#
# Elastic Compliance Matrix: (Units=1/GPa)
#
#
# Indices 1 2 3 4 5 6 
#
# 1 0.019000 -0.004665 -0.005628 0.000000 0.000000 0.000786
# 2 -0.004665 0.019000 -0.005628 0.000000 0.000000 -0.000786
# 3 -0.005628 -0.005628 0.012427 0.000000 0.000000 0.000000
# 4 0.000000 0.000000 0.000000 0.035691 0.000000 0.000000
# 5 0.000000 0.000000 0.000000 0.000000 0.035691 0.000000
# 6 0.000786 -0.000786 0.000000 0.000000 0.000000 0.059772
#
#
# Mechanical properties :
#
#
# Convention : Reuss Voigt Hill
#
# Bulk Modulus (GPa) = 53.80592 59.72196 56.76394
# Shear Modulus (GPa) = 22.76690 24.18246 23.47468
#
# Velocity S-wave (km/s) = 3.40409 3.50832 3.45659
# Velocity P-wave (km/s) = 6.54494 6.84164 6.69494
#
# Compressibility (1/GPa) = 0.01858532
#
# Stress axis : x y z
#
# Youngs Moduli (GPa) = 52.63219 52.63219 80.47078
#
# Poissons Ratio (x) = 0.24550 0.45289
# Poissons Ratio (y) = 0.24550 0.45289
# Poissons Ratio (z) = 0.29622 0.29622
#
# Static dielectric constant tensor:
#      x y z
#    x 3.475830 0.000000 0.000000 
#    y 0.000000 3.475830 0.000000 
#    z 0.000000 0.000000 3.674340 
# 
# 
# High freq. dielectric constant tensor:
#      x y z
#    x 1.749490 0.000000 0.000000 
#    y 0.000000 1.749490 0.000000 
#    z 0.000000 0.000000 1.769460 
# 
# From -- ./inp_files/972.got.cif
#   From: 2010.03.12/outbox.cif.g09.slc.cpg/sg76_cif.got.tgz:972.got - 2010.04.16 16:34:25.
