data_PCOD8301590
_publ_section_title
;
Structure prediction by ZEFSAII (Michael W. Deem and Ramdas Pophale) SiO2 
 PCOD8301590
Probable space group: I M M A
;
_chemical_formula_sum "Si O2"
_cell_formula_units_Z 80
_cell_length_a 16.487205
_cell_length_b 29.620640
_cell_length_c 8.457431
_cell_angle_alpha 90.000000
_cell_angle_beta 90.000000
_cell_angle_gamma 90.000000
_cell_volume 4130.284230
_symmetry_space_group_name_H-M "I M M A"
_symmetry_group_IT_number 74
_symmetry_cell_setting 'orthorhombic'
loop_
_space_group_symop_operation_xyz
x,y,z
-x,1/2-y,z
x,-y,-z
-x,1/2+y,-z
-x,-y,-z
x,1/2+y,-z
-x,y,z
x,1/2-y,z
1/2+x,1/2+y,1/2+z
1/2-x,-y,1/2+z
1/2+x,1/2-y,1/2-z
1/2-x,y,1/2-z
1/2-x,1/2-y,1/2-z
1/2+x,y,1/2-z
1/2-x,1/2+y,1/2+z
1/2+x,-y,1/2+z
loop_
_atom_site_type_symbol
_atom_site_label
_atom_site_fract_x
_atom_site_fract_y
_atom_site_fract_z
Si Si1 0.591191 0.750000 0.645724
Si Si2 0.748429 0.750000 0.439172
Si Si3 0.141370 0.677554 0.605375
Si Si4 0.000000 0.538940 0.707335
Si Si5 0.000000 0.122967 0.527556
Si Si6 0.250000 0.895340 0.750000
Si Si7 0.500000 0.939350 0.298301
Si Si8 0.138158 0.951753 0.952504
O O1 0.500000 0.750000 0.573764
O O2 0.656052 0.750000 0.502743
O O3 0.601475 0.793387 0.755990
O O4 0.750000 0.750000 0.250000
O O5 0.793362 0.794328 0.504637
O O6 0.177919 0.634738 0.689442
O O7 0.075097 0.656491 0.491205
O O8 0.000000 0.575281 0.566730
O O9 0.000000 0.483957 0.681496
O O10 0.918014 0.548013 0.799891
O O11 0.000000 0.107461 0.707120
O O12 0.216816 0.922886 0.902969
O O13 0.418112 0.936088 0.402166
O O14 0.174432 0.000000 0.000000
#
# Coordination Sequence:
#
# PCOD8301590 Si02
#       8
#     8   8  16   8   8   8   8  16
#     4  11  21  45  71  91 121 164 209 243 306 395
#     4  11  25  46  65  94 134 157 192 267 343 370
#     4  11  23  40  66  92 123 164 210 258 303 388
#     4   9  17  37  64  78 117 168 213 254 300 373
#     4  12  21  37  62  99 120 162 221 260 306 381
#     4  12  20  39  66  86 124 168 218 251 304 386
#     4   9  21  39  58  87 127 162 210 271 322 351
#     4   9  20  39  58  84 121 170 211 259 313 365
#
# _framework density 19.369126999999999
#
# number of rings (size 3 to 8) (size 9 to 14) (size 15 to 20)
#    0.000    1.600    5.000    2.100    0.000    1.600 
#    9.000    0.000    0.000    0.000    0.000    0.000 
#    0.000    0.000    0.000    0.000    0.000    0.000 
#
# Total GULP energy -495547.463042 kJ/mol
# GULP energy per Si atom -12388.686576 kJ/mol
# Density = 1.932504 g / cm^3
# Si number density = 19.369127 Si / 1000 Ang^3
#
#
#
# Elastic Constant Matrix: (Units=GPa)
#
#
# Indices 1 2 3 4 5 6 
#
# 1 122.3667 64.6444 46.0728 -0.0013 -0.0009 0.0009
# 2 64.6444 122.4412 56.7152 0.0051 -0.0001 0.0060
# 3 46.0728 56.7152 88.8268 -0.0222 0.0028 0.0158
# 4 -0.0013 0.0051 -0.0222 -3.2702 0.0020 0.0013
# 5 -0.0009 -0.0001 0.0028 0.0020 25.8561 -0.0023
# 6 0.0009 0.0060 0.0158 0.0013 -0.0023 27.8104
#
#
#
# Elastic Compliance Matrix: (Units=1/GPa)
#
#
# Indices 1 2 3 4 5 6 
#
# 1 0.011894 -0.004859 -0.003067 0.000009 0.000001 0.000002
# 2 -0.004859 0.013582 -0.006152 0.000065 0.000001 0.000001
# 3 -0.003067 -0.006152 0.016776 -0.000122 -0.000002 -0.000008
# 4 0.000009 0.000065 -0.000122 -0.305793 0.000024 0.000015
# 5 0.000001 0.000001 -0.000002 0.000024 0.038676 0.000003
# 6 0.000002 0.000001 -0.000008 0.000015 0.000003 0.035958
#
#
# Mechanical properties :
#
#
# Convention : Reuss Voigt Hill
#
# Bulk Modulus (GPa) = 70.93540 74.27771 72.60656
# Shear Modulus (GPa) = -32.04016 21.15943 -5.44037
#
# Velocity S-wave (km/s) = -4.07158 3.30878 -1.67776
# Velocity P-wave (km/s) = 3.82083 7.28211 5.81497
#
# Compressibility (1/GPa) = 0.01409733
#
# Stress axis : x y z
#
# Youngs Moduli (GPa) = 84.07813 73.62660 59.60795
#
# Poissons Ratio (x) = 0.35775 0.18280
# Poissons Ratio (y) = 0.40853 0.36669
# Poissons Ratio (z) = 0.25784 0.45293
#
# Static dielectric constant tensor:
#      x y z
#    x 3.287000 0.000020 0.000030 
#    y 0.000020 3.768490 -0.000020 
#    z 0.000030 -0.000020 3.384730 
# 
# 
# High freq. dielectric constant tensor:
#      x y z
#    x 1.758380 0.000000 0.000000 
#    y 0.000000 1.767010 0.000000 
#    z 0.000000 0.000000 1.735990 
# 
# From -- ./inp_files/11214.got.cif
#   From: 2010.03.12/outbox.cif.g09.slc.cpg/sg74_6_cif.got.tgz:11214.got - 2010.04.16 15:46:19.
