data_PCOD8301832
_publ_section_title
;
Structure prediction by ZEFSAII (Michael W. Deem and Ramdas Pophale) SiO2 
 PCOD8301832
Probable space group: P 4
;
_chemical_formula_sum "Si O2"
_cell_formula_units_Z 28
_cell_length_a 11.267138
_cell_length_b 11.267138
_cell_length_c 11.941209
_cell_angle_alpha 90.000000
_cell_angle_beta 90.000000
_cell_angle_gamma 90.000000
_cell_volume 1515.917361
_symmetry_space_group_name_H-M "P 4"
_symmetry_group_IT_number 75
_symmetry_cell_setting 'tetragonal'
loop_
_space_group_symop_operation_xyz
x,y,z
-y,x,z
-x,-y,z
y,-x,z
loop_
_atom_site_type_symbol
_atom_site_label
_atom_site_fract_x
_atom_site_fract_y
_atom_site_fract_z
Si Si1 0.033555 0.811575 0.700150
Si Si2 0.175205 0.646310 0.849608
Si Si3 0.438025 0.683114 0.160650
Si Si4 0.641789 0.994576 0.033216
Si Si5 0.009724 0.189639 0.440178
Si Si6 0.391902 0.779519 0.916851
Si Si7 0.378871 0.933403 0.263561
O O1 0.077462 0.690681 0.759574
O O2 0.906450 0.864847 0.735835
O O3 0.012539 0.783793 0.570331
O O4 0.305388 0.702670 0.837900
O O5 0.186918 0.504391 0.839088
O O6 0.127975 0.680546 0.975113
O O7 0.350986 0.573875 0.189077
O O8 0.399818 0.793775 0.238485
O O9 0.433125 0.710870 0.028368
O O10 0.694306 0.009219 0.158106
O O11 0.500000 0.000000 0.047759
O O12 0.679949 0.102302 0.952127
O O13 0.036790 0.310225 0.376488
O O14 0.890417 0.122091 0.405926
O O15 0.500000 0.000000 0.282613
#
# Coordination Sequence:
#
# PCOD8301832 Si02
#       7
#     4   4   4   4   4   4   4
#     4   9  19  38  60  78 102 141 189 241 298 350
#     4  11  19  32  52  80 113 148 186 235 280 343
#     4  10  20  35  54  82 124 170 200 229 286 370
#     4   8  18  32  45  73 111 144 175 222 274 325
#     4   9  20  39  60  80 109 148 191 249 305 354
#     4  10  19  30  51  79 114 156 189 228 278 344
#     4  10  21  33  56  87 115 147 196 244 290 345
#
# _framework density 18.470663999999999
#
# number of rings (size 3 to 8) (size 9 to 14) (size 15 to 20)
#    0.000    2.429    1.429    2.571    2.000    1.429 
#    0.000    5.000    0.000    1.714    0.000    0.000 
#    0.000    0.000    0.000    0.000    0.000    0.000 
#
# Total GULP energy -346886.836254 kJ/mol
# GULP energy per Si atom -12388.815580 kJ/mol
# Density = 1.842862 g / cm^3
# Si number density = 18.470664 Si / 1000 Ang^3
#
#
#
# Elastic Constant Matrix: (Units=GPa)
#
#
# Indices 1 2 3 4 5 6 
#
# 1 86.8064 39.2287 44.3072 0.0000 0.0000 4.3050
# 2 39.2287 86.8064 44.3072 0.0000 0.0000 -4.3050
# 3 44.3072 44.3072 63.0835 0.0000 0.0000 0.0000
# 4 0.0000 0.0000 0.0000 28.1237 0.0000 0.0000
# 5 0.0000 0.0000 0.0000 0.0000 28.1237 0.0000
# 6 4.3050 -4.3050 0.0000 0.0000 0.0000 28.8785
#
#
#
# Elastic Compliance Matrix: (Units=1/GPa)
#
#
# Indices 1 2 3 4 5 6 
#
# 1 0.018638 -0.002963 -0.011009 0.000000 0.000000 -0.003220
# 2 -0.002963 0.018638 -0.011009 0.000000 0.000000 0.003220
# 3 -0.011009 -0.011009 0.031317 0.000000 0.000000 0.000000
# 4 0.000000 0.000000 0.000000 0.035557 0.000000 0.000000
# 5 0.000000 0.000000 0.000000 0.000000 0.035557 0.000000
# 6 -0.003220 0.003220 0.000000 0.000000 0.000000 0.035588
#
#
# Mechanical properties :
#
#
# Convention : Reuss Voigt Hill
#
# Bulk Modulus (GPa) = 53.67884 54.70917 54.19401
# Shear Modulus (GPa) = 21.60114 24.28203 22.94158
#
# Velocity S-wave (km/s) = 3.42348 3.62971 3.52810
# Velocity P-wave (km/s) = 6.68967 6.87388 6.78240
#
# Compressibility (1/GPa) = 0.01862931
#
# Stress axis : x y z
#
# Youngs Moduli (GPa) = 53.65383 53.65383 31.93133
#
# Poissons Ratio (x) = 0.15898 0.35155
# Poissons Ratio (y) = 0.15898 0.35155
# Poissons Ratio (z) = 0.59070 0.59070
#
# Static dielectric constant tensor:
#      x y z
#    x 3.421400 0.000000 0.000000 
#    y 0.000000 3.421400 0.000000 
#    z 0.000000 0.000000 3.181070 
# 
# 
# High freq. dielectric constant tensor:
#      x y z
#    x 1.715940 0.000000 0.000000 
#    y 0.000000 1.715940 0.000000 
#    z 0.000000 0.000000 1.684570 
# 
# From -- ./inp_files/561.got.cif
#   From: 2010.03.12/outbox.cif.g09.slc.cpg/sg75_cif.got.tgz:561.got - 2010.04.16 16:33:55.
