data_PCOD8301172
_publ_section_title
;
Structure prediction by ZEFSAII (Michael W. Deem and Ramdas Pophale) SiO2 
 PCOD8301172
Probable space group: I M M A
;
_chemical_formula_sum "Si O2"
_cell_formula_units_Z 72
_cell_length_a 27.202022
_cell_length_b 14.342324
_cell_length_c 9.344631
_cell_angle_alpha 90.000000
_cell_angle_beta 90.000000
_cell_angle_gamma 90.000000
_cell_volume 3645.716329
_symmetry_space_group_name_H-M "I M M A"
_symmetry_group_IT_number 74
_symmetry_cell_setting 'orthorhombic'
loop_
_space_group_symop_operation_xyz
x,y,z
-x,1/2-y,z
x,-y,-z
-x,1/2+y,-z
-x,-y,-z
x,1/2+y,-z
-x,y,z
x,1/2-y,z
1/2+x,1/2+y,1/2+z
1/2-x,-y,1/2+z
1/2+x,1/2-y,1/2-z
1/2-x,y,1/2-z
1/2-x,1/2-y,1/2-z
1/2+x,y,1/2-z
1/2-x,1/2+y,1/2+z
1/2+x,-y,1/2+z
loop_
_atom_site_type_symbol
_atom_site_label
_atom_site_fract_x
_atom_site_fract_y
_atom_site_fract_z
Si Si1 0.197279 0.903889 0.918691
Si Si2 0.908277 0.112217 0.502529
Si Si3 0.057890 0.250000 0.733747
Si Si4 0.876927 0.750000 0.988369
Si Si5 0.804741 0.093621 0.412658
Si Si6 0.554413 0.750000 0.780883
O O1 0.183617 0.923877 0.754063
O O2 0.251759 0.855389 0.928555
O O3 0.157660 0.839734 0.995874
O O4 0.195984 0.000000 0.000000
O O5 0.926824 0.155362 0.651445
O O6 0.851670 0.146833 0.479310
O O7 0.940568 0.156749 0.376393
O O8 0.913514 0.000000 0.500000
O O9 0.084651 0.250000 0.884568
O O10 0.000000 0.250000 0.760874
O O11 0.905441 0.750000 0.840630
O O12 0.799092 0.000000 0.500000
O O13 0.500000 0.750000 0.713529
#
# Coordination Sequence:
#
# PCOD8301172 Si02
#       6
#    16  16   8   8  16   8
#     4  10  22  39  61  92 131 162 194 240 297 359
#     4  10  21  41  67  91 115 157 200 249 304 358
#     4  11  27  44  60  86 123 155 203 265 305 349
#     4  12  25  39  60  90 119 169 199 240 309 365
#     4   9  19  37  65  92 125 158 197 242 294 351
#     4  11  23  40  61  88 118 152 207 258 301 354
#
# _framework density 19.749206000000001
#
# number of rings (size 3 to 8) (size 9 to 14) (size 15 to 20)
#    0.000    1.778    2.222    1.667    6.222    5.333 
#    0.000    1.111    0.000    4.000    0.000    0.000 
#    0.000    0.000    0.000    0.000    0.000    0.000 
#
# Total GULP energy -446127.810180 kJ/mol
# GULP energy per Si atom -12392.439172 kJ/mol
# Density = 1.970426 g / cm^3
# Si number density = 19.749206 Si / 1000 Ang^3
#
#
#
# Elastic Constant Matrix: (Units=GPa)
#
#
# Indices 1 2 3 4 5 6 
#
# 1 159.9398 44.5908 49.7477 0.0000 0.0000 0.0000
# 2 44.5908 112.9732 40.3025 0.0000 0.0000 0.0000
# 3 49.7477 40.3025 110.0844 0.0000 0.0000 0.0000
# 4 0.0000 0.0000 0.0000 3.4471 0.0000 0.0000
# 5 0.0000 0.0000 0.0000 0.0000 56.3094 0.0000
# 6 0.0000 0.0000 0.0000 0.0000 0.0000 24.0864
#
#
#
# Elastic Compliance Matrix: (Units=1/GPa)
#
#
# Indices 1 2 3 4 5 6 
#
# 1 0.007670 -0.002060 -0.002712 0.000000 0.000000 0.000000
# 2 -0.002060 0.010735 -0.002999 0.000000 0.000000 0.000000
# 3 -0.002712 -0.002999 0.011408 0.000000 0.000000 0.000000
# 4 0.000000 0.000000 0.000000 0.290097 0.000000 0.000000
# 5 0.000000 0.000000 0.000000 0.000000 0.017759 0.000000
# 6 0.000000 0.000000 0.000000 0.000000 0.000000 0.041517
#
#
# Mechanical properties :
#
#
# Convention : Reuss Voigt Hill
#
# Bulk Modulus (GPa) = 70.07632 72.47549 71.27590
# Shear Modulus (GPa) = 12.51612 33.32568 22.92090
#
# Velocity S-wave (km/s) = 2.52018 4.11231 3.41045
# Velocity P-wave (km/s) = 6.63540 7.70232 7.18868
#
# Compressibility (1/GPa) = 0.01427016
#
# Stress axis : x y z
#
# Youngs Moduli (GPa) = 130.37439 93.15634 87.66150
#
# Poissons Ratio (x) = 0.19190 0.23774
# Poissons Ratio (y) = 0.26856 0.26291
# Poissons Ratio (z) = 0.35358 0.27939
#
# Static dielectric constant tensor:
#      x y z
#    x 4.166740 0.000000 0.000000 
#    y 0.000000 3.468880 0.000000 
#    z 0.000000 0.000000 3.601540 
# 
# 
# High freq. dielectric constant tensor:
#      x y z
#    x 1.792900 0.000000 0.000000 
#    y 0.000000 1.755270 0.000000 
#    z 0.000000 0.000000 1.767920 
# 
# From -- ./inp_files/9220.got.cif
#   From: 2010.03.12/outbox.cif.g09.slc.cpg/sg74_5_cif.got.tgz:9220.got - 2010.04.16 15:46:19.
