data_PCOD8301731
_publ_section_title
;
Structure prediction by ZEFSAII (Michael W. Deem and Ramdas Pophale) SiO2 
 PCOD8301731
Probable space group: I M M A
;
_chemical_formula_sum "Si O2"
_cell_formula_units_Z 68
_cell_length_a 14.522955
_cell_length_b 12.318167
_cell_length_c 19.422131
_cell_angle_alpha 90.000000
_cell_angle_beta 90.000000
_cell_angle_gamma 90.000000
_cell_volume 3474.545141
_symmetry_space_group_name_H-M "I M M A"
_symmetry_group_IT_number 74
_symmetry_cell_setting 'orthorhombic'
loop_
_space_group_symop_operation_xyz
x,y,z
-x,1/2-y,z
x,-y,-z
-x,1/2+y,-z
-x,-y,-z
x,1/2+y,-z
-x,y,z
x,1/2-y,z
1/2+x,1/2+y,1/2+z
1/2-x,-y,1/2+z
1/2+x,1/2-y,1/2-z
1/2-x,y,1/2-z
1/2-x,1/2-y,1/2-z
1/2+x,y,1/2-z
1/2-x,1/2+y,1/2+z
1/2+x,-y,1/2+z
loop_
_atom_site_type_symbol
_atom_site_label
_atom_site_fract_x
_atom_site_fract_y
_atom_site_fract_z
Si Si1 0.843051 0.250000 0.613619
Si Si2 0.500000 0.066738 0.109190
Si Si3 0.000000 0.125405 0.235807
Si Si4 0.174598 0.512682 0.194109
Si Si5 0.000000 0.750000 0.496929
Si Si6 0.697880 0.975968 0.079368
Si Si7 0.605521 0.250000 0.728376
O O1 0.912889 0.250000 0.550516
O O2 0.779563 0.146831 0.600752
O O3 0.888568 0.250000 0.688776
O O4 0.500000 0.128468 0.181364
O O5 0.592793 0.995805 0.104384
O O6 0.500000 0.145072 0.044439
O O7 0.000000 0.250000 0.209916
O O8 0.913387 0.061226 0.206579
O O9 0.250000 0.484045 0.250000
O O10 0.220821 0.467195 0.122939
O O11 0.152260 0.641867 0.197389
O O12 0.712392 0.000000 0.000000
O O13 0.500000 0.250000 0.706099
#
# Coordination Sequence:
#
# PCOD8301731 Si02
#       7
#     8   8   8  16   4  16   8
#     4  12  21  34  64  99 135 166 202 266 332 413
#     4  12  22  40  63  95 134 172 207 265 327 405
#     4  12  26  45  66  94 134 177 226 273 319 388
#     4  12  24  43  69  99 131 173 226 277 331 393
#     4  12  22  34  58 100 142 172 194 248 354 410
#     4  12  25  41  64  97 135 171 217 269 337 395
#     4  12  22  40  73 101 134 169 214 285 340 379
#
# _framework density 19.570906999999998
#
# number of rings (size 3 to 8) (size 9 to 14) (size 15 to 20)
#    0.000    0.000    9.412    2.118    0.000    0.471 
#    4.235    0.588    0.000    0.000    0.000    0.000 
#    0.000    0.000    0.000    0.000    0.000    0.000 
#
# Total GULP energy -421360.804454 kJ/mol
# GULP energy per Si atom -12392.964837 kJ/mol
# Density = 1.952636 g / cm^3
# Si number density = 19.570907 Si / 1000 Ang^3
#
#
#
# Elastic Constant Matrix: (Units=GPa)
#
#
# Indices 1 2 3 4 5 6 
#
# 1 151.3308 49.4909 78.5740 0.0000 0.0000 0.0000
# 2 49.4909 115.0103 31.1471 0.0000 0.0000 0.0000
# 3 78.5740 31.1471 125.4228 0.0000 0.0000 0.0000
# 4 0.0000 0.0000 0.0000 15.0912 0.0000 0.0000
# 5 0.0000 0.0000 0.0000 0.0000 44.7149 0.0000
# 6 0.0000 0.0000 0.0000 0.0000 0.0000 18.9257
#
#
#
# Elastic Compliance Matrix: (Units=1/GPa)
#
#
# Indices 1 2 3 4 5 6 
#
# 1 0.010669 -0.002981 -0.005943 0.000000 0.000000 0.000000
# 2 -0.002981 0.010155 -0.000654 0.000000 0.000000 0.000000
# 3 -0.005943 -0.000654 0.011859 0.000000 0.000000 0.000000
# 4 0.000000 0.000000 0.000000 0.066264 0.000000 0.000000
# 5 0.000000 0.000000 0.000000 0.000000 0.022364 0.000000
# 6 0.000000 0.000000 0.000000 0.000000 0.000000 0.052838
#
#
# Mechanical properties :
#
#
# Convention : Reuss Voigt Hill
#
# Bulk Modulus (GPa) = 73.93743 78.90977 76.42360
# Shear Modulus (GPa) = 25.27612 31.24982 28.26297
#
# Velocity S-wave (km/s) = 3.59766 4.00027 3.80430
# Velocity P-wave (km/s) = 7.42421 7.85771 7.64403
#
# Compressibility (1/GPa) = 0.01352495
#
# Stress axis : x y z
#
# Youngs Moduli (GPa) = 93.72902 98.47385 84.32503
#
# Poissons Ratio (x) = 0.29360 0.50118
# Poissons Ratio (y) = 0.27945 0.05515
# Poissons Ratio (z) = 0.55707 0.06441
#
# Static dielectric constant tensor:
#      x y z
#    x 3.465360 0.000000 0.000000 
#    y 0.000000 5.782430 0.000000 
#    z 0.000000 0.000000 3.712500 
# 
# 
# High freq. dielectric constant tensor:
#      x y z
#    x 1.766340 0.000000 0.000000 
#    y 0.000000 1.762940 0.000000 
#    z 0.000000 0.000000 1.763880 
# 
# From -- ./inp_files/51569.got.cif
#   From: 2010.03.12/outbox.cif.g09.slc.cpg/sg74_26_cif.got.tgz:51569.got - 2010.04.16 15:46:19.
