data_PCOD8301980
_publ_section_title
;
Structure prediction by ZEFSAII (Michael W. Deem and Ramdas Pophale) SiO2 
 PCOD8301980
Probable space group: P 41
;
_chemical_formula_sum "Si O2"
_cell_formula_units_Z 28
_cell_length_a 12.407230
_cell_length_b 12.407230
_cell_length_c 7.626426
_cell_angle_alpha 90.000000
_cell_angle_beta 90.000000
_cell_angle_gamma 90.000000
_cell_volume 1174.007109
_symmetry_space_group_name_H-M "P 41"
_symmetry_group_IT_number 76
_symmetry_cell_setting 'tetragonal'
loop_
_space_group_symop_operation_xyz
x,y,z
-y,x,1/4+z
-x,-y,1/2+z
y,-x,3/4+z
loop_
_atom_site_type_symbol
_atom_site_label
_atom_site_fract_x
_atom_site_fract_y
_atom_site_fract_z
Si Si1 0.834171 0.728682 0.447150
Si Si2 0.135689 0.672385 0.199144
Si Si3 0.356354 0.503809 0.772623
Si Si4 0.364820 0.153964 0.067596
Si Si5 0.219972 0.346655 0.575197
Si Si6 0.005372 0.865506 0.335573
Si Si7 0.423929 0.914814 0.001449
O O1 0.716580 0.782329 0.442000
O O2 0.846983 0.679684 0.252098
O O3 0.853842 0.638639 0.594746
O O4 0.913769 0.831304 0.475694
O O5 0.255160 0.705278 0.247233
O O6 0.058619 0.751003 0.303328
O O7 0.111541 0.549388 0.245702
O O8 0.118118 0.694367 0.994131
O O9 0.410810 0.437882 0.933258
O O10 0.246162 0.547642 0.862152
O O11 0.311892 0.435169 0.609782
O O12 0.411001 0.044677 0.979104
O O13 0.128409 0.381165 0.436945
O O14 0.953329 0.912773 0.159188
#
# Coordination Sequence:
#
# PCOD8301980 Si02
#       7
#     4   4   4   4   4   4   4
#     4  12  26  53  77 115 157 205 265 331 397 477
#     4  12  29  48  80 116 158 205 268 327 399 483
#     4  12  29  49  80 112 158 208 261 321 402 472
#     4  12  29  48  80 116 158 205 268 327 399 483
#     4  12  26  53  77 115 157 205 265 331 397 477
#     4  12  29  49  80 112 158 208 261 321 402 472
#     4  12  30  48  82 114 156 212 264 332 410 470
#
# _framework density 23.849941000000001
#
# number of rings (size 3 to 8) (size 9 to 14) (size 15 to 20)
#    0.000    0.000    4.286    3.429   10.000    0.000 
#    0.000    0.000    0.000    0.000    0.000    0.000 
#    0.000    0.000    0.000    0.000    0.000    0.000 
#
# Total GULP energy -347102.210834 kJ/mol
# GULP energy per Si atom -12396.507530 kJ/mol
# Density = 2.379566 g / cm^3
# Si number density = 23.849941 Si / 1000 Ang^3
#
#
#
# Elastic Constant Matrix: (Units=GPa)
#
#
# Indices 1 2 3 4 5 6 
#
# 1 135.3234 56.6272 26.1089 0.0000 0.0000 -4.8041
# 2 56.6272 135.3234 26.1089 0.0000 0.0000 4.8041
# 3 26.1089 26.1089 102.9435 0.0000 0.0000 0.0000
# 4 0.0000 0.0000 0.0000 25.5379 0.0000 0.0000
# 5 0.0000 0.0000 0.0000 0.0000 25.5379 0.0000
# 6 -4.8041 4.8041 0.0000 0.0000 0.0000 79.3945
#
#
#
# Elastic Compliance Matrix: (Units=1/GPa)
#
#
# Indices 1 2 3 4 5 6 
#
# 1 0.009199 -0.003603 -0.001419 0.000000 0.000000 0.000775
# 2 -0.003603 0.009199 -0.001419 0.000000 0.000000 -0.000775
# 3 -0.001419 -0.001419 0.010434 0.000000 0.000000 0.000000
# 4 0.000000 0.000000 0.000000 0.039157 0.000000 0.000000
# 5 0.000000 0.000000 0.000000 0.000000 0.039157 0.000000
# 6 0.000775 -0.000775 0.000000 0.000000 0.000000 0.012689
#
#
# Mechanical properties :
#
#
# Convention : Reuss Voigt Hill
#
# Bulk Modulus (GPa) = 62.70143 65.69783 64.19963
# Shear Modulus (GPa) = 36.22287 43.74375 39.98331
#
# Velocity S-wave (km/s) = 3.90138 4.28731 4.09889
# Velocity P-wave (km/s) = 6.82945 7.21902 7.02694
#
# Compressibility (1/GPa) = 0.01594860
#
# Stress axis : x y z
#
# Youngs Moduli (GPa) = 108.71079 108.71079 95.84091
#
# Poissons Ratio (x) = 0.39168 0.13602
# Poissons Ratio (y) = 0.39168 0.13602
# Poissons Ratio (z) = 0.15428 0.15428
#
# Static dielectric constant tensor:
#      x y z
#    x 4.634190 0.000000 0.000000 
#    y 0.000000 4.634190 0.000000 
#    z 0.000000 0.000000 4.233540 
# 
# 
# High freq. dielectric constant tensor:
#      x y z
#    x 1.965020 0.000000 0.000000 
#    y 0.000000 1.965020 0.000000 
#    z 0.000000 0.000000 1.942050 
# 
# From -- ./inp_files/622.got.cif
#   From: 2010.03.12/outbox.cif.g09.slc.cpg/sg76_cif.got.tgz:622.got - 2010.04.16 16:34:25.
