data_PCOD8301100
_publ_section_title
;
Structure prediction by ZEFSAII (Michael W. Deem and Ramdas Pophale) SiO2 
 PCOD8301100
Probable space group: I M M A
;
_chemical_formula_sum "Si O2"
_cell_formula_units_Z 72
_cell_length_a 17.360498
_cell_length_b 9.001019
_cell_length_c 23.260947
_cell_angle_alpha 90.000000
_cell_angle_beta 90.000000
_cell_angle_gamma 90.000000
_cell_volume 3634.806109
_symmetry_space_group_name_H-M "I M M A"
_symmetry_group_IT_number 74
_symmetry_cell_setting 'orthorhombic'
loop_
_space_group_symop_operation_xyz
x,y,z
-x,1/2-y,z
x,-y,-z
-x,1/2+y,-z
-x,-y,-z
x,1/2+y,-z
-x,y,z
x,1/2-y,z
1/2+x,1/2+y,1/2+z
1/2-x,-y,1/2+z
1/2+x,1/2-y,1/2-z
1/2-x,y,1/2-z
1/2-x,1/2-y,1/2-z
1/2+x,y,1/2-z
1/2-x,1/2+y,1/2+z
1/2+x,-y,1/2+z
loop_
_atom_site_type_symbol
_atom_site_label
_atom_site_fract_x
_atom_site_fract_y
_atom_site_fract_z
Si Si1 0.410192 0.422374 0.633016
Si Si2 0.500000 0.074420 0.938274
Si Si3 0.864758 0.921129 0.627743
Si Si4 0.910864 0.580849 0.752462
Si Si5 0.787697 0.577505 0.940959
O O1 0.500000 0.457309 0.624643
O O2 0.391136 0.250000 0.627522
O O3 0.382763 0.476681 0.695789
O O4 0.366348 0.509042 0.583001
O O5 0.500000 0.250000 0.946096
O O6 0.576006 0.027364 0.904297
O O7 0.500000 0.000000 0.000000
O O8 0.890301 0.750000 0.618145
O O9 0.862783 0.959095 0.695474
O O10 0.779686 0.951537 0.604649
O O11 0.896129 0.750000 0.771928
O O12 0.000000 0.553787 0.737386
O O13 0.801076 0.750000 0.952901
O O14 0.763667 0.500000 0.000000
#
# Coordination Sequence:
#
# PCOD8301100 Si02
#       5
#    16   8  16  16  16
#     4  10  22  40  62  88 119 153 194 244 298 357
#     4  12  24  36  56  84 118 162 207 246 289 344
#     4  10  21  39  61  87 120 158 199 243 292 349
#     4   9  17  34  61  88 119 156 195 239 287 345
#     4  11  24  41  62  86 117 155 198 248 300 354
#
# _framework density 19.808485000000001
#
# number of rings (size 3 to 8) (size 9 to 14) (size 15 to 20)
#    0.000    1.778    1.111    3.000    0.000    7.111 
#    0.000    4.444    0.000    0.000    0.000    0.000 
#    0.000    0.000    0.000    0.000    0.000    0.000 
#
# Total GULP energy -446604.758935 kJ/mol
# GULP energy per Si atom -12405.687748 kJ/mol
# Density = 1.976340 g / cm^3
# Si number density = 19.808485 Si / 1000 Ang^3
#
#
#
# Elastic Constant Matrix: (Units=GPa)
#
#
# Indices 1 2 3 4 5 6 
#
# 1 69.2797 46.7063 33.5634 0.0000 0.0000 0.0000
# 2 46.7063 114.6465 38.9551 0.0000 0.0000 0.0000
# 3 33.5634 38.9551 81.1875 0.0000 0.0000 0.0000
# 4 0.0000 0.0000 0.0000 39.3090 0.0000 0.0000
# 5 0.0000 0.0000 0.0000 0.0000 21.5913 0.0000
# 6 0.0000 0.0000 0.0000 0.0000 0.0000 21.1288
#
#
#
# Elastic Compliance Matrix: (Units=1/GPa)
#
#
# Indices 1 2 3 4 5 6 
#
# 1 0.021908 -0.006987 -0.005705 0.000000 0.000000 0.000000
# 2 -0.006987 0.012650 -0.003181 0.000000 0.000000 0.000000
# 3 -0.005705 -0.003181 0.016202 0.000000 0.000000 0.000000
# 4 0.000000 0.000000 0.000000 0.025439 0.000000 0.000000
# 5 0.000000 0.000000 0.000000 0.000000 0.046315 0.000000
# 6 0.000000 0.000000 0.000000 0.000000 0.000000 0.047329
#
#
# Mechanical properties :
#
#
# Convention : Reuss Voigt Hill
#
# Bulk Modulus (GPa) = 52.59115 55.95147 54.27131
# Shear Modulus (GPa) = 24.04693 26.13173 25.08933
#
# Velocity S-wave (km/s) = 3.48799 3.63605 3.56279
# Velocity P-wave (km/s) = 6.54438 6.77756 6.66199
#
# Compressibility (1/GPa) = 0.01901461
#
# Stress axis : x y z
#
# Youngs Moduli (GPa) = 45.64474 79.05242 61.72147
#
# Poissons Ratio (x) = 0.55234 0.35209
# Poissons Ratio (y) = 0.31892 0.19634
# Poissons Ratio (z) = 0.26038 0.25148
#
# Static dielectric constant tensor:
#      x y z
#    x 3.476400 0.000000 0.000000 
#    y 0.000000 3.643450 0.000000 
#    z 0.000000 0.000000 3.688120 
# 
# 
# High freq. dielectric constant tensor:
#      x y z
#    x 1.765700 0.000000 0.000000 
#    y 0.000000 1.773770 0.000000 
#    z 0.000000 0.000000 1.782470 
# 
# From -- ./inp_files/60611.got.cif
#   From: 2010.03.12/outbox.cif.g09.slc.cpg/sg74_31_cif.got.tgz:60611.got - 2010.04.16 15:46:19.
