data_PCOD8301689
_publ_section_title
;
Structure prediction by ZEFSAII (Michael W. Deem and Ramdas Pophale) SiO2 
 PCOD8301689
Probable space group: I M M A
;
_chemical_formula_sum "Si O2"
_cell_formula_units_Z 64
_cell_length_a 17.473131
_cell_length_b 13.785382
_cell_length_c 11.849270
_cell_angle_alpha 90.000000
_cell_angle_beta 90.000000
_cell_angle_gamma 90.000000
_cell_volume 2854.178521
_symmetry_space_group_name_H-M "I M M A"
_symmetry_group_IT_number 74
_symmetry_cell_setting 'orthorhombic'
loop_
_space_group_symop_operation_xyz
x,y,z
-x,1/2-y,z
x,-y,-z
-x,1/2+y,-z
-x,-y,-z
x,1/2+y,-z
-x,y,z
x,1/2-y,z
1/2+x,1/2+y,1/2+z
1/2-x,-y,1/2+z
1/2+x,1/2-y,1/2-z
1/2-x,y,1/2-z
1/2-x,1/2-y,1/2-z
1/2+x,y,1/2-z
1/2-x,1/2+y,1/2+z
1/2+x,-y,1/2+z
loop_
_atom_site_type_symbol
_atom_site_label
_atom_site_fract_x
_atom_site_fract_y
_atom_site_fract_z
Si Si1 0.159516 0.070841 0.102387
Si Si2 0.000000 0.867259 0.223503
Si Si3 0.500000 0.139513 0.466429
Si Si4 0.687081 0.641589 0.971785
Si Si5 0.357214 0.473462 0.826278
O O1 0.227999 0.147263 0.083030
O O2 0.075048 0.118207 0.109107
O O3 0.182653 0.009689 0.212315
O O4 0.158531 0.000000 0.000000
O O5 0.930453 0.911422 0.292729
O O6 0.000000 0.750000 0.228631
O O7 0.000000 0.909636 0.093005
O O8 0.500000 0.250000 0.499676
O O9 0.652910 0.750000 0.973215
O O10 0.629261 0.571935 0.900851
O O11 0.695396 0.598719 0.099012
#
# Coordination Sequence:
#
# PCOD8301689 Si02
#       5
#    16   8   8  16  16
#     4  12  22  42  68 101 135 175 216 279 340 397
#     4  11  23  42  70 103 136 174 222 282 336 402
#     4  11  24  40  66 103 136 172 222 276 341 401
#     4  11  26  45  68 100 138 181 230 274 329 401
#     4  11  24  44  70  95 135 181 223 275 339 392
#
# _framework density 22.423264
#
# number of rings (size 3 to 8) (size 9 to 14) (size 15 to 20)
#    0.000    0.750    5.000    3.375    0.000    5.000 
#    0.000    3.125    0.000    1.500    0.000    0.000 
#    0.000    0.000    0.000    0.000    0.000    0.000 
#
# Total GULP energy -396427.455566 kJ/mol
# GULP energy per Si atom -12388.357986 kJ/mol
# Density = 2.237223 g / cm^3
# Si number density = 22.423264 Si / 1000 Ang^3
#
#
#
# Elastic Constant Matrix: (Units=GPa)
#
#
# Indices 1 2 3 4 5 6 
#
# 1 113.5105 24.7489 41.4677 0.0000 0.0000 0.0000
# 2 24.7489 140.2995 56.9241 0.0000 0.0000 0.0000
# 3 41.4677 56.9241 151.7379 0.0000 0.0000 0.0000
# 4 0.0000 0.0000 0.0000 29.3193 0.0000 0.0000
# 5 0.0000 0.0000 0.0000 0.0000 -2.7808 0.0000
# 6 0.0000 0.0000 0.0000 0.0000 0.0000 34.1399
#
#
#
# Elastic Compliance Matrix: (Units=1/GPa)
#
#
# Indices 1 2 3 4 5 6 
#
# 1 0.009855 -0.000762 -0.002408 0.000000 0.000000 0.000000
# 2 -0.000762 0.008466 -0.002968 0.000000 0.000000 0.000000
# 3 -0.002408 -0.002968 0.008362 0.000000 0.000000 0.000000
# 4 0.000000 0.000000 0.000000 0.034107 0.000000 0.000000
# 5 0.000000 0.000000 0.000000 0.000000 -0.359611 0.000000
# 6 0.000000 0.000000 0.000000 0.000000 0.000000 0.029291
#
#
# Mechanical properties :
#
#
# Convention : Reuss Voigt Hill
#
# Bulk Modulus (GPa) = 69.40163 72.42547 70.91355
# Shear Modulus (GPa) = -19.80575 30.96283 5.57854
#
# Velocity S-wave (km/s) = -2.97521 3.71999 1.57900
# Velocity P-wave (km/s) = 4.38354 7.12885 5.91760
#
# Compressibility (1/GPa) = 0.01440888
#
# Stress axis : x y z
#
# Youngs Moduli (GPa) = 101.46755 118.11755 119.59326
#
# Poissons Ratio (x) = 0.08996 0.28793
# Poissons Ratio (y) = 0.07728 0.35494
# Poissons Ratio (z) = 0.24429 0.35056
#
# Static dielectric constant tensor:
#      x y z
#    x 6.509280 0.000000 0.000000 
#    y 0.000000 3.991890 0.000000 
#    z 0.000000 0.000000 3.234610 
# 
# 
# High freq. dielectric constant tensor:
#      x y z
#    x 1.870790 0.000000 0.000000 
#    y 0.000000 1.883820 0.000000 
#    z 0.000000 0.000000 1.896170 
# 
# From -- ./inp_files/19990.got.cif
#   From: 2010.03.12/outbox.cif.g09.slc.cpg/sg74_10_cif.got.tgz:19990.got - 2010.04.16 15:46:19.
