data_PCOD8301297
_publ_section_title
;
Structure prediction by ZEFSAII (Michael W. Deem and Ramdas Pophale) SiO2 
 PCOD8301297
Probable space group: I M M A
;
_chemical_formula_sum "Si O2"
_cell_formula_units_Z 64
_cell_length_a 18.073160
_cell_length_b 24.418013
_cell_length_c 7.292545
_cell_angle_alpha 90.000000
_cell_angle_beta 90.000000
_cell_angle_gamma 90.000000
_cell_volume 3218.277817
_symmetry_space_group_name_H-M "I M M A"
_symmetry_group_IT_number 74
_symmetry_cell_setting 'orthorhombic'
loop_
_space_group_symop_operation_xyz
x,y,z
-x,1/2-y,z
x,-y,-z
-x,1/2+y,-z
-x,-y,-z
x,1/2+y,-z
-x,y,z
x,1/2-y,z
1/2+x,1/2+y,1/2+z
1/2-x,-y,1/2+z
1/2+x,1/2-y,1/2-z
1/2-x,y,1/2-z
1/2-x,1/2-y,1/2-z
1/2+x,y,1/2-z
1/2-x,1/2+y,1/2+z
1/2+x,-y,1/2+z
loop_
_atom_site_type_symbol
_atom_site_label
_atom_site_fract_x
_atom_site_fract_y
_atom_site_fract_z
Si Si1 0.581450 0.499855 0.782196
Si Si2 0.913868 0.116911 0.647174
Si Si3 0.162877 0.107154 0.263780
Si Si4 0.414206 0.187206 0.513173
O O1 0.500000 0.512590 0.701702
O O2 0.606593 0.437819 0.733135
O O3 0.635552 0.546394 0.703763
O O4 0.579891 0.500000 0.000000
O O5 0.863230 0.122448 0.468300
O O6 0.898553 0.168305 0.778283
O O7 0.000000 0.113639 0.585021
O O8 0.250000 0.107077 0.250000
O O9 0.133166 0.153103 0.129127
O O10 0.500000 0.179075 0.464146
O O11 0.389786 0.250000 0.498081
#
# Coordination Sequence:
#
# PCOD8301297 Si02
#       4
#    16  16  16  16
#     4   8  15  33  58  81 109 147 191 233 280 340
#     4   9  19  39  62  82 112 153 196 244 291 332
#     4  11  22  36  55  89 122 155 180 230 297 358
#     4  10  22  40  62  86 109 147 208 252 277 331
#
# _framework density 19.886412
#
# number of rings (size 3 to 8) (size 9 to 14) (size 15 to 20)
#    0.000    2.500    0.000    3.750    0.000    3.500 
#   13.500    7.500    0.000    0.000    0.000    0.000 
#    0.000    0.000    0.000    0.000    0.000    0.000 
#
# Total GULP energy -396693.914476 kJ/mol
# GULP energy per Si atom -12396.684827 kJ/mol
# Density = 1.984115 g / cm^3
# Si number density = 19.886412 Si / 1000 Ang^3
#
#
#
# Elastic Constant Matrix: (Units=GPa)
#
#
# Indices 1 2 3 4 5 6 
#
# 1 132.8421 69.3264 60.8764 0.0000 0.0000 0.0000
# 2 69.3264 114.6515 43.1301 0.0000 0.0000 0.0000
# 3 60.8764 43.1301 78.6319 0.0000 0.0000 0.0000
# 4 0.0000 0.0000 0.0000 31.9897 0.0000 0.0000
# 5 0.0000 0.0000 0.0000 0.0000 13.0783 0.0000
# 6 0.0000 0.0000 0.0000 0.0000 0.0000 0.1583
#
#
#
# Elastic Compliance Matrix: (Units=1/GPa)
#
#
# Indices 1 2 3 4 5 6 
#
# 1 0.013982 -0.005522 -0.007796 0.000000 0.000000 0.000000
# 2 -0.005522 0.013170 -0.002949 0.000000 0.000000 0.000000
# 3 -0.007796 -0.002949 0.020371 0.000000 0.000000 0.000000
# 4 0.000000 0.000000 0.000000 0.031260 0.000000 0.000000
# 5 0.000000 0.000000 0.000000 0.000000 0.076463 0.000000
# 6 0.000000 0.000000 0.000000 0.000000 0.000000 6.318287
#
#
# Mechanical properties :
#
#
# Convention : Reuss Voigt Hill
#
# Bulk Modulus (GPa) = 66.71451 74.75460 70.73456
# Shear Modulus (GPa) = 0.76792 19.23140 9.99966
#
# Velocity S-wave (km/s) = 0.62209 3.11314 2.24484
# Velocity P-wave (km/s) = 5.84265 7.11299 6.50888
#
# Compressibility (1/GPa) = 0.01498924
#
# Stress axis : x y z
#
# Youngs Moduli (GPa) = 71.52034 75.92818 49.08993
#
# Poissons Ratio (x) = 0.41926 0.38271
# Poissons Ratio (y) = 0.39492 0.14477
# Poissons Ratio (z) = 0.55758 0.22392
#
# Static dielectric constant tensor:
#      x y z
#    x 3.494210 0.000000 0.000000 
#    y 0.000000 4.137560 0.000000 
#    z 0.000000 0.000000 3.409710 
# 
# 
# High freq. dielectric constant tensor:
#      x y z
#    x 1.752480 0.000000 0.000000 
#    y 0.000000 1.784800 0.000000 
#    z 0.000000 0.000000 1.769270 
# 
# From -- ./inp_files/8798.got.cif
#   From: 2010.03.12/outbox.cif.g09.slc.cpg/sg74_5_cif.got.tgz:8798.got - 2010.04.16 15:46:19.
