data_PCOD8301450
_publ_section_title
;
Structure prediction by ZEFSAII (Michael W. Deem and Ramdas Pophale) SiO2 
 PCOD8301450
Probable space group: I M M A
;
_chemical_formula_sum "Si O2"
_cell_formula_units_Z 92
_cell_length_a 17.656131
_cell_length_b 24.364411
_cell_length_c 12.405754
_cell_angle_alpha 90.000000
_cell_angle_beta 90.000000
_cell_angle_gamma 90.000000
_cell_volume 5336.722544
_symmetry_space_group_name_H-M "I M M A"
_symmetry_group_IT_number 74
_symmetry_cell_setting 'orthorhombic'
loop_
_space_group_symop_operation_xyz
x,y,z
-x,1/2-y,z
x,-y,-z
-x,1/2+y,-z
-x,-y,-z
x,1/2+y,-z
-x,y,z
x,1/2-y,z
1/2+x,1/2+y,1/2+z
1/2-x,-y,1/2+z
1/2+x,1/2-y,1/2-z
1/2-x,y,1/2-z
1/2-x,1/2-y,1/2-z
1/2+x,y,1/2-z
1/2-x,1/2+y,1/2+z
1/2+x,-y,1/2+z
loop_
_atom_site_type_symbol
_atom_site_label
_atom_site_fract_x
_atom_site_fract_y
_atom_site_fract_z
Si Si1 0.500000 0.944575 0.930715
Si Si2 0.852627 0.967123 0.689585
Si Si3 0.000000 0.365429 0.621699
Si Si4 0.206997 0.134857 0.907954
Si Si5 0.500000 0.250000 0.796254
Si Si6 0.153676 0.907388 0.311293
Si Si7 0.798718 0.449157 0.081600
Si Si8 0.330035 0.750000 0.320692
O O1 0.571668 0.940632 0.854242
O O2 0.500000 0.889973 0.002421
O O3 0.500000 0.000000 0.000000
O O4 0.855562 0.960548 0.819285
O O5 0.782970 0.936738 0.633334
O O6 0.843912 0.029931 0.651404
O O7 0.000000 0.299999 0.621002
O O8 0.069430 0.386116 0.691323
O O9 0.181524 0.095650 0.810707
O O10 0.298677 0.131027 0.895043
O O11 0.174719 0.196319 0.896527
O O12 0.178589 0.107094 0.018898
O O13 0.416179 0.250000 0.732514
O O14 0.799625 0.500000 0.000000
O O15 0.250000 0.750000 0.250000
#
# Coordination Sequence:
#
# PCOD8301450 Si02
#       8
#     8  16   8  16   4  16  16   8
#     4  12  22  34  55  80 116 144 177 234 289 332
#     4  11  21  34  52  86 114 146 184 225 279 344
#     4  12  22  34  55  80 112 145 181 229 288 344
#     4  11  20  33  54  80 111 146 178 228 278 333
#     4  12  24  40  58  84 116 152 192 242 300 338
#     4  11  18  31  55  83 112 143 182 221 279 351
#     4  11  19  33  57  77 109 149 187 217 272 340
#     4  12  22  38  58  84 116 146 190 246 290 340
#
# _framework density 17.239044
#
# number of rings (size 3 to 8) (size 9 to 14) (size 15 to 20)
#    0.000    0.696    8.696    2.609    0.000    0.000 
#    0.000    2.174    0.000    3.130    0.000    0.000 
#    0.000    0.000    0.000    0.000    0.000    0.000 
#
# Total GULP energy -569956.060296 kJ/mol
# GULP energy per Si atom -12390.349137 kJ/mol
# Density = 1.719981 g / cm^3
# Si number density = 17.239044 Si / 1000 Ang^3
#
#
#
# Elastic Constant Matrix: (Units=GPa)
#
#
# Indices 1 2 3 4 5 6 
#
# 1 97.4111 27.9953 27.3200 0.0000 0.0000 0.0000
# 2 27.9953 121.0269 47.8272 0.0000 0.0000 0.0000
# 3 27.3200 47.8272 96.1052 0.0000 0.0000 0.0000
# 4 0.0000 0.0000 0.0000 32.8111 0.0000 0.0000
# 5 0.0000 0.0000 0.0000 0.0000 91.2673 0.0000
# 6 0.0000 0.0000 0.0000 0.0000 0.0000 28.2128
#
#
#
# Elastic Compliance Matrix: (Units=1/GPa)
#
#
# Indices 1 2 3 4 5 6 
#
# 1 0.011427 -0.001692 -0.002406 0.000000 0.000000 0.000000
# 2 -0.001692 0.010536 -0.004762 0.000000 0.000000 0.000000
# 3 -0.002406 -0.004762 0.013459 0.000000 0.000000 0.000000
# 4 0.000000 0.000000 0.000000 0.030477 0.000000 0.000000
# 5 0.000000 0.000000 0.000000 0.000000 0.010957 0.000000
# 6 0.000000 0.000000 0.000000 0.000000 0.000000 0.035445
#
#
# Mechanical properties :
#
#
# Convention : Reuss Voigt Hill
#
# Bulk Modulus (GPa) = 56.49479 57.86977 57.18228
# Shear Modulus (GPa) = 36.78549 44.55161 40.66855
#
# Velocity S-wave (km/s) = 4.62437 5.08916 4.86232
# Velocity P-wave (km/s) = 7.83298 8.25679 8.04768
#
# Compressibility (1/GPa) = 0.01770075
#
# Stress axis : x y z
#
# Youngs Moduli (GPa) = 87.51218 94.91254 74.29864
#
# Poissons Ratio (x) = 0.16063 0.17877
# Poissons Ratio (y) = 0.14810 0.35383
# Poissons Ratio (z) = 0.21057 0.45199
#
# Static dielectric constant tensor:
#      x y z
#    x 3.752770 0.000000 0.000000 
#    y 0.000000 3.247590 0.000000 
#    z 0.000000 0.000000 3.196350 
# 
# 
# High freq. dielectric constant tensor:
#      x y z
#    x 1.672750 0.000000 0.000000 
#    y 0.000000 1.650110 0.000000 
#    z 0.000000 0.000000 1.649840 
# 
# From -- ./inp_files/22729.got.cif
#   From: 2010.03.12/outbox.cif.g09.slc.cpg/sg74_12_cif.got.tgz:22729.got - 2010.04.16 15:46:19.
