data_PCOD8301224
_publ_section_title
;
Structure prediction by ZEFSAII (Michael W. Deem and Ramdas Pophale) SiO2 
 PCOD8301224
Probable space group: I M M A
;
_chemical_formula_sum "Si O2"
_cell_formula_units_Z 112
_cell_length_a 31.537755
_cell_length_b 13.941627
_cell_length_c 12.025156
_cell_angle_alpha 90.000000
_cell_angle_beta 90.000000
_cell_angle_gamma 90.000000
_cell_volume 5287.312181
_symmetry_space_group_name_H-M "I M M A"
_symmetry_group_IT_number 74
_symmetry_cell_setting 'orthorhombic'
loop_
_space_group_symop_operation_xyz
x,y,z
-x,1/2-y,z
x,-y,-z
-x,1/2+y,-z
-x,-y,-z
x,1/2+y,-z
-x,y,z
x,1/2-y,z
1/2+x,1/2+y,1/2+z
1/2-x,-y,1/2+z
1/2+x,1/2-y,1/2-z
1/2-x,y,1/2-z
1/2-x,1/2-y,1/2-z
1/2+x,y,1/2-z
1/2-x,1/2+y,1/2+z
1/2+x,-y,1/2+z
loop_
_atom_site_type_symbol
_atom_site_label
_atom_site_fract_x
_atom_site_fract_y
_atom_site_fract_z
Si Si1 0.213984 0.354616 0.172380
Si Si2 0.880016 0.363420 0.218619
Si Si3 0.546470 0.977605 0.626923
Si Si4 0.757512 0.598831 0.060406
Si Si5 0.548698 0.860413 0.199554
Si Si6 0.618295 0.522431 0.118146
Si Si7 0.311960 0.359794 0.765029
O O1 0.209711 0.250000 0.227778
O O2 0.250000 0.409831 0.250000
O O3 0.166885 0.400115 0.179420
O O4 0.227199 0.338119 0.043742
O O5 0.882509 0.250000 0.234560
O O6 0.916993 0.397101 0.135260
O O7 0.890868 0.416992 0.333389
O O8 0.500000 0.940349 0.669578
O O9 0.542400 0.000000 0.500000
O O10 0.558102 0.076905 0.689908
O O11 0.717958 0.643284 0.125773
O O12 0.793483 0.586557 0.155529
O O13 0.745890 0.500000 0.000000
O O14 0.500000 0.863580 0.162898
O O15 0.563054 0.750000 0.219091
O O16 0.575813 0.913149 0.102377
O O17 0.646446 0.583600 0.202710
O O18 0.639911 0.500000 0.000000
O O19 0.321686 0.250000 0.731737
#
# Coordination Sequence:
#
# PCOD8301224 Si02
#       7
#    16  16  16  16  16  16  16
#     4  10  22  38  58  82 115 161 208 256 308 369
#     4  10  23  40  59  88 125 162 207 255 316 386
#     4   9  19  37  63  95 131 165 204 257 316 381
#     4  11  23  38  61  84 120 158 204 254 311 369
#     4   9  19  38  62  88 120 160 206 253 308 377
#     4  11  24  40  61  89 119 156 205 259 319 375
#     4  11  24  41  61  89 122 161 209 262 315 374
#
# _framework density 21.182786
#
# number of rings (size 3 to 8) (size 9 to 14) (size 15 to 20)
#    0.000    1.857    0.000    3.429    6.000    5.143 
#    0.000    2.857    0.000    0.000    0.000    0.000 
#    0.000    0.000    0.000    0.000    0.000    0.000 
#
# Total GULP energy -693750.615993 kJ/mol
# GULP energy per Si atom -12388.403857 kJ/mol
# Density = 2.113457 g / cm^3
# Si number density = 21.182786 Si / 1000 Ang^3
#
#
#
# Elastic Constant Matrix: (Units=GPa)
#
#
# Indices 1 2 3 4 5 6 
#
# 1 134.9846 45.5776 41.4450 0.0000 0.0000 0.0000
# 2 45.5776 111.6526 21.2343 0.0000 0.0000 0.0000
# 3 41.4450 21.2343 104.5455 0.0000 0.0000 0.0000
# 4 0.0000 0.0000 0.0000 43.4225 0.0000 0.0000
# 5 0.0000 0.0000 0.0000 0.0000 21.6220 0.0000
# 6 0.0000 0.0000 0.0000 0.0000 0.0000 27.3842
#
#
#
# Elastic Compliance Matrix: (Units=1/GPa)
#
#
# Indices 1 2 3 4 5 6 
#
# 1 0.009462 -0.003275 -0.003086 0.000000 0.000000 0.000000
# 2 -0.003275 0.010450 -0.000824 0.000000 0.000000 0.000000
# 3 -0.003086 -0.000824 0.010956 0.000000 0.000000 0.000000
# 4 0.000000 0.000000 0.000000 0.023030 0.000000 0.000000
# 5 0.000000 0.000000 0.000000 0.000000 0.046249 0.000000
# 6 0.000000 0.000000 0.000000 0.000000 0.000000 0.036517
#
#
# Mechanical properties :
#
#
# Convention : Reuss Voigt Hill
#
# Bulk Modulus (GPa) = 60.61581 63.07740 61.84660
# Shear Modulus (GPa) = 31.94215 34.68079 33.31147
#
# Velocity S-wave (km/s) = 3.88742 4.05064 3.96987
# Velocity P-wave (km/s) = 6.98764 7.19161 7.09036
#
# Compressibility (1/GPa) = 0.01649735
#
# Stress axis : x y z
#
# Youngs Moduli (GPa) = 105.69032 95.69229 91.27590
#
# Poissons Ratio (x) = 0.31344 0.28164
# Poissons Ratio (y) = 0.34619 0.07521
# Poissons Ratio (z) = 0.32612 0.07885
#
# Static dielectric constant tensor:
#      x y z
#    x 4.180360 0.000000 0.000000 
#    y 0.000000 3.894830 0.000000 
#    z 0.000000 0.000000 3.660270 
# 
# 
# High freq. dielectric constant tensor:
#      x y z
#    x 1.835990 0.000000 0.000000 
#    y 0.000000 1.837070 0.000000 
#    z 0.000000 0.000000 1.815980 
# 
# From -- ./inp_files/27226.got.cif
#   From: 2010.03.12/outbox.cif.g09.slc.cpg/sg74_14_cif.got.tgz:27226.got - 2010.04.16 15:46:19.
