data_PCOD8301639
_publ_section_title
;
Structure prediction by ZEFSAII (Michael W. Deem and Ramdas Pophale) SiO2 
 PCOD8301639
Probable space group: I M M A
;
_chemical_formula_sum "Si O2"
_cell_formula_units_Z 56
_cell_length_a 20.682061
_cell_length_b 14.748265
_cell_length_c 8.373153
_cell_angle_alpha 90.000000
_cell_angle_beta 90.000000
_cell_angle_gamma 90.000000
_cell_volume 2554.016944
_symmetry_space_group_name_H-M "I M M A"
_symmetry_group_IT_number 74
_symmetry_cell_setting 'orthorhombic'
loop_
_space_group_symop_operation_xyz
x,y,z
-x,1/2-y,z
x,-y,-z
-x,1/2+y,-z
-x,-y,-z
x,1/2+y,-z
-x,y,z
x,1/2-y,z
1/2+x,1/2+y,1/2+z
1/2-x,-y,1/2+z
1/2+x,1/2-y,1/2-z
1/2-x,y,1/2-z
1/2-x,1/2-y,1/2-z
1/2+x,y,1/2-z
1/2-x,1/2+y,1/2+z
1/2+x,-y,1/2+z
loop_
_atom_site_type_symbol
_atom_site_label
_atom_site_fract_x
_atom_site_fract_y
_atom_site_fract_z
Si Si1 0.116216 0.250000 0.449061
Si Si2 0.358729 0.602255 0.440297
Si Si3 0.573512 0.920457 0.114935
Si Si4 0.928756 0.750000 0.886378
Si Si5 0.259684 0.750000 0.558335
O O1 0.073690 0.333762 0.503292
O O2 0.122885 0.250000 0.256513
O O3 0.188596 0.250000 0.520325
O O4 0.352005 0.500000 0.500000
O O5 0.373459 0.593819 0.252868
O O6 0.419345 0.657852 0.512426
O O7 0.295212 0.660108 0.488951
O O8 0.500000 0.937773 0.178635
O O9 0.597735 0.000000 0.000000
O O10 0.000000 0.750000 0.814935
O O11 0.250000 0.750000 0.750000
#
# Coordination Sequence:
#
# PCOD8301639 Si02
#       5
#     8  16  16   8   8
#     4  12  23  43  66  90 139 178 222 284 354 405
#     4  11  24  44  70  98 134 183 229 288 347 418
#     4  11  25  42  66 103 140 176 226 285 349 420
#     4  11  22  39  70 104 134 177 230 286 352 426
#     4  11  25  47  68  98 136 178 238 298 341 409
#
# _framework density 21.926244000000001
#
# number of rings (size 3 to 8) (size 9 to 14) (size 15 to 20)
#    0.000    0.857    2.857    5.571    0.000    8.000 
#    0.000    0.000    0.000    0.000    0.000    0.000 
#    0.000    0.000    0.000    0.000    0.000    0.000 
#
# Total GULP energy -347031.294381 kJ/mol
# GULP energy per Si atom -12393.974799 kJ/mol
# Density = 2.187634 g / cm^3
# Si number density = 21.926244 Si / 1000 Ang^3
#
#
#
# Elastic Constant Matrix: (Units=GPa)
#
#
# Indices 1 2 3 4 5 6 
#
# 1 120.4984 33.2302 36.2469 0.0000 0.0000 0.0000
# 2 33.2302 203.2637 65.5404 0.0000 0.0000 0.0000
# 3 36.2469 65.5404 147.6998 0.0000 0.0000 0.0000
# 4 0.0000 0.0000 0.0000 34.4169 0.0000 0.0000
# 5 0.0000 0.0000 0.0000 0.0000 37.9009 0.0000
# 6 0.0000 0.0000 0.0000 0.0000 0.0000 3.5407
#
#
#
# Elastic Compliance Matrix: (Units=1/GPa)
#
#
# Indices 1 2 3 4 5 6 
#
# 1 0.009098 -0.000896 -0.001835 0.000000 0.000000 0.000000
# 2 -0.000896 0.005829 -0.002367 0.000000 0.000000 0.000000
# 3 -0.001835 -0.002367 0.008271 0.000000 0.000000 0.000000
# 4 0.000000 0.000000 0.000000 0.029056 0.000000 0.000000
# 5 0.000000 0.000000 0.000000 0.000000 0.026385 0.000000
# 6 0.000000 0.000000 0.000000 0.000000 0.000000 0.282432
#
#
# Mechanical properties :
#
#
# Convention : Reuss Voigt Hill
#
# Bulk Modulus (GPa) = 76.90647 82.38854 79.64750
# Shear Modulus (GPa) = 13.31203 37.60131 25.45667
#
# Velocity S-wave (km/s) = 2.46667 4.14563 3.41106
# Velocity P-wave (km/s) = 6.57752 7.78279 7.20540
#
# Compressibility (1/GPa) = 0.01300281
#
# Stress axis : x y z
#
# Youngs Moduli (GPa) = 109.91532 171.54651 120.90158
#
# Poissons Ratio (x) = 0.15363 0.22189
# Poissons Ratio (y) = 0.09844 0.28616
# Poissons Ratio (z) = 0.20173 0.40604
#
# Static dielectric constant tensor:
#      x y z
#    x 3.854950 0.000000 0.000000 
#    y 0.000000 4.080340 0.000000 
#    z 0.000000 0.000000 4.035000 
# 
# 
# High freq. dielectric constant tensor:
#      x y z
#    x 1.863770 0.000000 0.000000 
#    y 0.000000 1.874150 0.000000 
#    z 0.000000 0.000000 1.867110 
# 
# From -- ./inp_files/13233.got.cif
#   From: 2010.03.12/outbox.cif.g09.slc.cpg/sg74_7_cif.got.tgz:13233.got - 2010.04.16 15:46:19.
