data_PCOD8301240
_publ_section_title
;
Structure prediction by ZEFSAII (Michael W. Deem and Ramdas Pophale) SiO2 
 PCOD8301240
Probable space group: I M M A
;
_chemical_formula_sum "Si O2"
_cell_formula_units_Z 72
_cell_length_a 27.561382
_cell_length_b 8.988375
_cell_length_c 12.854141
_cell_angle_alpha 90.000000
_cell_angle_beta 90.000000
_cell_angle_gamma 90.000000
_cell_volume 3184.382533
_symmetry_space_group_name_H-M "I M M A"
_symmetry_group_IT_number 74
_symmetry_cell_setting 'orthorhombic'
loop_
_space_group_symop_operation_xyz
x,y,z
-x,1/2-y,z
x,-y,-z
-x,1/2+y,-z
-x,-y,-z
x,1/2+y,-z
-x,y,z
x,1/2-y,z
1/2+x,1/2+y,1/2+z
1/2-x,-y,1/2+z
1/2+x,1/2-y,1/2-z
1/2-x,y,1/2-z
1/2-x,1/2-y,1/2-z
1/2+x,y,1/2-z
1/2-x,1/2+y,1/2+z
1/2+x,-y,1/2+z
loop_
_atom_site_type_symbol
_atom_site_label
_atom_site_fract_x
_atom_site_fract_y
_atom_site_fract_z
Si Si1 0.136106 0.250000 0.581729
Si Si2 0.054959 0.250000 0.847569
Si Si3 0.844659 0.750000 0.798318
Si Si4 0.282343 0.250000 0.094336
Si Si5 0.344077 0.250000 0.538232
Si Si6 0.945156 0.250000 0.428887
Si Si7 0.096660 0.496790 0.710221
Si Si8 0.718856 0.500000 0.500000
O O1 0.173337 0.250000 0.487356
O O2 0.081819 0.250000 0.537930
O O3 0.138473 0.398297 0.652616
O O4 0.098545 0.250000 0.934452
O O5 0.059977 0.395090 0.776099
O O6 0.000000 0.250000 0.896910
O O7 0.801523 0.750000 0.712842
O O8 0.876264 0.602528 0.789795
O O9 0.828065 0.750000 0.916592
O O10 0.252134 0.400243 0.075494
O O11 0.315894 0.101047 0.576548
O O12 0.933289 0.401438 0.368466
O O13 0.000000 0.250000 0.461120
#
# Coordination Sequence:
#
# PCOD8301240 Si02
#       8
#     8   8   8   8   8   8  16   8
#     4  11  21  37  63  95 135 174 219 270 320 396
#     4  11  24  45  71  92 127 176 223 271 331 396
#     4  11  22  41  69  94 132 177 217 274 319 389
#     4  11  21  40  68  98 128 177 220 262 337 396
#     4  11  24  47  66  98 134 170 221 279 332 375
#     4  11  22  35  57  93 136 177 214 265 331 391
#     4  10  22  38  62  98 132 169 216 275 320 383
#     4  10  24  40  67  96 131 166 212 278 326 402
#
# _framework density 22.610347999999998
#
# number of rings (size 3 to 8) (size 9 to 14) (size 15 to 20)
#    0.000    1.333    2.222    4.000    0.000    5.333 
#    0.000   11.667    0.000   10.667    0.000    0.000 
#    0.000    0.000    0.000    0.000    0.000    0.000 
#
# Total GULP energy -446120.196540 kJ/mol
# GULP energy per Si atom -12392.227682 kJ/mol
# Density = 2.255889 g / cm^3
# Si number density = 22.610348 Si / 1000 Ang^3
#
#
#
# Elastic Constant Matrix: (Units=GPa)
#
#
# Indices 1 2 3 4 5 6 
#
# 1 139.6703 52.9258 31.4905 0.0000 0.0000 0.0000
# 2 52.9258 156.5524 29.5321 0.0000 0.0000 0.0000
# 3 31.4905 29.5321 86.6498 0.0000 0.0000 0.0000
# 4 0.0000 0.0000 0.0000 14.7451 0.0000 0.0000
# 5 0.0000 0.0000 0.0000 0.0000 34.1790 0.0000
# 6 0.0000 0.0000 0.0000 0.0000 0.0000 21.3010
#
#
#
# Elastic Compliance Matrix: (Units=1/GPa)
#
#
# Indices 1 2 3 4 5 6 
#
# 1 0.008615 -0.002481 -0.002285 0.000000 0.000000 0.000000
# 2 -0.002481 0.007541 -0.001668 0.000000 0.000000 0.000000
# 3 -0.002285 -0.001668 0.012940 0.000000 0.000000 0.000000
# 4 0.000000 0.000000 0.000000 0.067819 0.000000 0.000000
# 5 0.000000 0.000000 0.000000 0.000000 0.029258 0.000000
# 6 0.000000 0.000000 0.000000 0.000000 0.000000 0.046946
#
#
# Mechanical properties :
#
#
# Convention : Reuss Voigt Hill
#
# Bulk Modulus (GPa) = 61.62896 67.86327 64.74612
# Shear Modulus (GPa) = 26.12349 31.97329 29.04839
#
# Velocity S-wave (km/s) = 3.40277 3.76453 3.58821
# Velocity P-wave (km/s) = 6.53870 6.99821 6.77236
#
# Compressibility (1/GPa) = 0.01622614
#
# Stress axis : x y z
#
# Youngs Moduli (GPa) = 116.07287 132.60347 77.28070
#
# Poissons Ratio (x) = 0.32905 0.17661
# Poissons Ratio (y) = 0.28803 0.12893
# Poissons Ratio (z) = 0.26526 0.22124
#
# Static dielectric constant tensor:
#      x y z
#    x 4.040280 0.000000 0.000000 
#    y 0.000000 4.707650 0.000000 
#    z 0.000000 0.000000 3.773410 
# 
# 
# High freq. dielectric constant tensor:
#      x y z
#    x 1.889420 0.000000 0.000000 
#    y 0.000000 1.925440 0.000000 
#    z 0.000000 0.000000 1.869030 
# 
# From -- ./inp_files/37122.got.cif
#   From: 2010.03.12/outbox.cif.g09.slc.cpg/sg74_19_cif.got.tgz:37122.got - 2010.04.16 15:46:19.
