data_PCOD8301996
_publ_section_title
;
Structure prediction by ZEFSAII (Michael W. Deem and Ramdas Pophale) SiO2 
 PCOD8301996
Probable space group: P 42
;
_chemical_formula_sum "Si O2"
_cell_formula_units_Z 26
_cell_length_a 11.367194
_cell_length_b 11.367194
_cell_length_c 9.041964
_cell_angle_alpha 90.000000
_cell_angle_beta 90.000000
_cell_angle_gamma 90.000000
_cell_volume 1168.340193
_symmetry_space_group_name_H-M "P 42"
_symmetry_group_IT_number 77
_symmetry_cell_setting 'tetragonal'
loop_
_space_group_symop_operation_xyz
x,y,z
-y,x,1/2+z
-x,-y,z
y,-x,1/2+z
loop_
_atom_site_type_symbol
_atom_site_label
_atom_site_fract_x
_atom_site_fract_y
_atom_site_fract_z
Si Si1 0.617189 0.348877 0.075600
Si Si2 0.500000 0.500000 0.825792
Si Si3 0.876365 0.048795 0.217227
Si Si4 0.814592 0.238260 0.688498
Si Si5 0.135712 0.494054 0.694245
Si Si6 0.145050 0.738880 0.009982
Si Si7 0.895764 0.682637 0.945646
O O1 0.572641 0.411001 0.224123
O O2 0.578107 0.211609 0.074150
O O3 0.758665 0.345766 0.084621
O O4 0.573565 0.410803 0.926788
O O5 0.902449 0.153078 0.104947
O O6 0.801535 0.104436 0.349545
O O7 0.804819 0.943636 0.135024
O O8 0.000000 0.000000 0.278894
O O9 0.805428 0.378681 0.692578
O O10 0.708396 0.185895 0.589016
O O11 0.802140 0.201794 0.860494
O O12 0.151968 0.428990 0.853529
O O13 0.000000 0.500000 0.644637
O O14 0.032059 0.654729 0.983672
#
# Coordination Sequence:
#
# PCOD8301996 Si02
#       7
#     4   2   4   4   4   4   4
#     4  11  24  48  71 105 137 189 249 303 362 430
#     4  10  26  46  78 102 136 188 252 314 352 426
#     4  11  22  39  67 103 145 184 235 294 362 447
#     4  11  25  40  68 101 141 189 235 295 367 434
#     4  12  23  45  68 101 144 193 234 301 368 424
#     4  11  22  42  66 104 139 181 239 298 362 437
#     4  11  25  42  69 102 144 194 236 297 364 430
#
# _framework density 22.253792000000001
#
# number of rings (size 3 to 8) (size 9 to 14) (size 15 to 20)
#    0.000    0.923    6.154    0.923    6.462    0.000 
#    2.769    1.538    0.000    0.000    0.000    0.000 
#    0.000    0.000    0.000    0.000    0.000    0.000 
#
# Total GULP energy -322331.612298 kJ/mol
# GULP energy per Si atom -12397.369704 kJ/mol
# Density = 2.220314 g / cm^3
# Si number density = 22.253792 Si / 1000 Ang^3
#
#
#
# Elastic Constant Matrix: (Units=GPa)
#
#
# Indices 1 2 3 4 5 6 
#
# 1 129.3443 33.5911 49.6770 0.0000 0.0000 -13.6870
# 2 33.5911 129.3443 49.6770 0.0000 0.0000 13.6870
# 3 49.6770 49.6770 97.8716 0.0000 0.0000 0.0000
# 4 0.0000 0.0000 0.0000 34.3488 0.0000 0.0000
# 5 0.0000 0.0000 0.0000 0.0000 34.3488 0.0000
# 6 -13.6870 13.6870 0.0000 0.0000 0.0000 33.4635
#
#
#
# Elastic Compliance Matrix: (Units=1/GPa)
#
#
# Indices 1 2 3 4 5 6 
#
# 1 0.010357 -0.001469 -0.004512 0.000000 0.000000 0.004837
# 2 -0.001469 0.010357 -0.004512 0.000000 0.000000 -0.004837
# 3 -0.004512 -0.004512 0.014797 0.000000 0.000000 0.000000
# 4 0.000000 0.000000 0.000000 0.029113 0.000000 0.000000
# 5 0.000000 0.000000 0.000000 0.000000 0.029113 0.000000
# 6 0.004837 -0.004837 0.000000 0.000000 0.000000 0.033840
#
#
# Mechanical properties :
#
#
# Convention : Reuss Voigt Hill
#
# Bulk Modulus (GPa) = 68.83228 69.16117 68.99673
# Shear Modulus (GPa) = 32.59344 35.33991 33.96668
#
# Velocity S-wave (km/s) = 3.83119 3.98935 3.91107
# Velocity P-wave (km/s) = 7.11115 7.23641 7.17405
#
# Compressibility (1/GPa) = 0.01452807
#
# Stress axis : x y z
#
# Youngs Moduli (GPa) = 96.54952 96.54952 67.57982
#
# Poissons Ratio (x) = 0.14183 0.30489
# Poissons Ratio (y) = 0.14183 0.30489
# Poissons Ratio (z) = 0.43559 0.43559
#
# Static dielectric constant tensor:
#      x y z
#    x 4.103820 0.000000 0.000000 
#    y 0.000000 4.103820 0.000000 
#    z 0.000000 0.000000 4.058550 
# 
# 
# High freq. dielectric constant tensor:
#      x y z
#    x 1.882320 0.000000 0.000000 
#    y 0.000000 1.882320 0.000000 
#    z 0.000000 0.000000 1.859850 
# 
# From -- ./inp_files/465.got.cif
#   From: 2010.03.12/outbox.cif.g09.slc.cpg/sg77_cif.got.tgz:465.got - 2010.04.16 16:36:19.
