data_PCOD8301046
_publ_section_title
;
Structure prediction by ZEFSAII (Michael W. Deem and Ramdas Pophale) SiO2 
 PCOD8301046
Probable space group: I M M A
;
_chemical_formula_sum "Si O2"
_cell_formula_units_Z 80
_cell_length_a 18.068248
_cell_length_b 8.818493
_cell_length_c 25.515864
_cell_angle_alpha 90.000000
_cell_angle_beta 90.000000
_cell_angle_gamma 90.000000
_cell_volume 4065.563008
_symmetry_space_group_name_H-M "I M M A"
_symmetry_group_IT_number 74
_symmetry_cell_setting 'orthorhombic'
loop_
_space_group_symop_operation_xyz
x,y,z
-x,1/2-y,z
x,-y,-z
-x,1/2+y,-z
-x,-y,-z
x,1/2+y,-z
-x,y,z
x,1/2-y,z
1/2+x,1/2+y,1/2+z
1/2-x,-y,1/2+z
1/2+x,1/2-y,1/2-z
1/2-x,y,1/2-z
1/2-x,1/2-y,1/2-z
1/2+x,y,1/2-z
1/2-x,1/2+y,1/2+z
1/2+x,-y,1/2+z
loop_
_atom_site_type_symbol
_atom_site_label
_atom_site_fract_x
_atom_site_fract_y
_atom_site_fract_z
Si Si1 0.915977 0.928492 0.945702
Si Si2 0.174896 0.571860 0.654244
Si Si3 0.413337 0.424028 0.755283
Si Si4 0.331850 0.926783 0.351078
Si Si5 0.416175 0.928818 0.946454
O O1 0.910330 0.750000 0.951078
O O2 0.000000 0.980983 0.933288
O O3 0.861798 0.982305 0.900467
O O4 0.888397 0.000000 0.000000
O O5 0.192203 0.750000 0.653012
O O6 0.121624 0.536367 0.702596
O O7 0.249210 0.477855 0.661772
O O8 0.135064 0.516646 0.601124
O O9 0.500000 0.453956 0.754205
O O10 0.394301 0.250000 0.769598
O O11 0.382266 0.466511 0.698491
O O12 0.333693 0.750000 0.364309
O O13 0.500000 0.986188 0.936032
O O14 0.414312 0.750000 0.952142
O O15 0.384663 0.000000 0.000000
#
# Coordination Sequence:
#
# PCOD8301046 Si02
#       5
#    16  16  16  16  16
#     4  10  21  38  61  88 117 151 193 239 287 341
#     4  11  23  38  57  84 118 151 187 235 289 343
#     4  10  22  40  61  84 111 147 191 236 286 346
#     4  11  23  39  59  84 117 154 192 236 286 341
#     4   9  19  36  57  81 109 143 184 229 277 330
#
# _framework density 19.677471000000001
#
# number of rings (size 3 to 8) (size 9 to 14) (size 15 to 20)
#    0.000    1.800    0.000    3.600    0.000    9.600 
#    0.000    4.000    0.000    0.000    0.000    0.000 
#    0.000    0.000    0.000    0.000    0.000    0.000 
#
# Total GULP energy -496241.235290 kJ/mol
# GULP energy per Si atom -12406.030882 kJ/mol
# Density = 1.963268 g / cm^3
# Si number density = 19.677471 Si / 1000 Ang^3
#
#
#
# Elastic Constant Matrix: (Units=GPa)
#
#
# Indices 1 2 3 4 5 6 
#
# 1 95.7617 22.1096 49.6203 0.0000 0.0000 0.0000
# 2 22.1096 50.2199 40.4205 0.0000 0.0000 0.0000
# 3 49.6203 40.4205 123.2170 0.0000 0.0000 0.0000
# 4 0.0000 0.0000 0.0000 36.4849 0.0000 0.0000
# 5 0.0000 0.0000 0.0000 0.0000 -4.0990 0.0000
# 6 0.0000 0.0000 0.0000 0.0000 0.0000 30.8054
#
#
#
# Elastic Compliance Matrix: (Units=1/GPa)
#
#
# Indices 1 2 3 4 5 6 
#
# 1 0.013358 -0.002108 -0.004688 0.000000 0.000000 0.000000
# 2 -0.002108 0.027389 -0.008136 0.000000 0.000000 0.000000
# 3 -0.004688 -0.008136 0.012673 0.000000 0.000000 0.000000
# 4 0.000000 0.000000 0.000000 0.027409 0.000000 0.000000
# 5 0.000000 0.000000 0.000000 0.000000 -0.243960 0.000000
# 6 0.000000 0.000000 0.000000 0.000000 0.000000 0.032462
#
#
# Mechanical properties :
#
#
# Convention : Reuss Voigt Hill
#
# Bulk Modulus (GPa) = 42.45162 54.83326 48.64244
# Shear Modulus (GPa) = -53.79003 23.10812 -15.34096
#
# Velocity S-wave (km/s) = -5.23404 3.43059 -2.79520
# Velocity P-wave (km/s) = 3.86088 6.60442 3.78893
#
# Compressibility (1/GPa) = 0.02355623
#
# Stress axis : x y z
#
# Youngs Moduli (GPa) = 74.85899 36.51142 78.91051
#
# Poissons Ratio (x) = 0.07696 0.36994
# Poissons Ratio (y) = 0.15779 0.64200
# Poissons Ratio (z) = 0.35094 0.29705
#
# Static dielectric constant tensor:
#      x y z
#    x 3.670120 0.000000 0.000000 
#    y 0.000000 3.530330 0.000000 
#    z 0.000000 0.000000 3.667290 
# 
# 
# High freq. dielectric constant tensor:
#      x y z
#    x 1.771880 0.000000 0.000000 
#    y 0.000000 1.768880 0.000000 
#    z 0.000000 0.000000 1.779520 
# 
# From -- ./inp_files/63957.got.cif
#   From: 2010.03.12/outbox.cif.g09.slc.cpg/sg74_32_cif.got.tgz:63957.got - 2010.04.16 15:46:19.
