data_PCOD8301307
_publ_section_title
;
Structure prediction by ZEFSAII (Michael W. Deem and Ramdas Pophale) SiO2 
 PCOD8301307
Probable space group: I M M A
;
_chemical_formula_sum "Si O2"
_cell_formula_units_Z 104
_cell_length_a 13.708800
_cell_length_b 17.735833
_cell_length_c 20.850476
_cell_angle_alpha 90.000000
_cell_angle_beta 90.000000
_cell_angle_gamma 90.000000
_cell_volume 5069.521921
_symmetry_space_group_name_H-M "I M M A"
_symmetry_group_IT_number 74
_symmetry_cell_setting 'orthorhombic'
loop_
_space_group_symop_operation_xyz
x,y,z
-x,1/2-y,z
x,-y,-z
-x,1/2+y,-z
-x,-y,-z
x,1/2+y,-z
-x,y,z
x,1/2-y,z
1/2+x,1/2+y,1/2+z
1/2-x,-y,1/2+z
1/2+x,1/2-y,1/2-z
1/2-x,y,1/2-z
1/2-x,1/2-y,1/2-z
1/2+x,y,1/2-z
1/2-x,1/2+y,1/2+z
1/2+x,-y,1/2+z
loop_
_atom_site_type_symbol
_atom_site_label
_atom_site_fract_x
_atom_site_fract_y
_atom_site_fract_z
Si Si1 0.105525 0.533039 0.222290
Si Si2 0.659835 0.669637 0.202732
Si Si3 0.750000 0.907405 0.750000
Si Si4 0.890592 0.470674 0.428388
Si Si5 0.768123 0.588554 0.106094
Si Si6 0.732782 0.163498 0.112638
Si Si7 0.386401 0.837097 0.506725
O O1 0.093981 0.599629 0.275252
O O2 0.156762 0.461621 0.254340
O O3 0.154912 0.564219 0.158990
O O4 0.000000 0.504969 0.201708
O O5 0.602816 0.750000 0.203975
O O6 0.750000 0.672937 0.250000
O O7 0.702698 0.658432 0.130850
O O8 0.750818 0.856095 0.813098
O O9 0.898645 0.500000 0.500000
O O10 0.805750 0.518954 0.396415
O O11 0.853567 0.384443 0.421188
O O12 0.000000 0.477630 0.397504
O O13 0.826497 0.609872 0.042184
O O14 0.699176 0.250000 0.107509
O O15 0.835975 0.151249 0.075806
O O16 0.500000 0.862330 0.510477
O O17 0.379854 0.750000 0.484294
#
# Coordination Sequence:
#
# PCOD8301307 Si02
#       7
#    16  16   8  16  16  16  16
#     4  11  22  38  62  93 128 168 215 264 316 381
#     4   9  18  33  53  83 126 166 205 251 299 361
#     4  12  23  44  61  92 122 166 218 270 319 372
#     4  11  23  42  67  93 124 160 205 259 318 381
#     4  11  19  39  64  97 125 167 212 255 318 389
#     4  11  24  44  68  93 126 165 214 270 322 382
#     4  10  22  40  64  98 138 172 206 261 328 388
#
# _framework density 20.514755000000001
#
# number of rings (size 3 to 8) (size 9 to 14) (size 15 to 20)
#    0.000    1.385    5.385    1.154    0.000    4.308 
#    0.000    0.769    0.000    4.154    0.000    0.000 
#    0.000    0.000    0.000    0.000    0.000    0.000 
#
# Total GULP energy -644377.636881 kJ/mol
# GULP energy per Si atom -12391.877632 kJ/mol
# Density = 2.046806 g / cm^3
# Si number density = 20.514755 Si / 1000 Ang^3
#
#
#
# Elastic Constant Matrix: (Units=GPa)
#
#
# Indices 1 2 3 4 5 6 
#
# 1 147.9006 60.5077 44.8759 0.0000 0.0000 0.0000
# 2 60.5077 129.9712 48.5353 0.0000 0.0000 0.0000
# 3 44.8759 48.5353 113.5917 0.0000 0.0000 0.0000
# 4 0.0000 0.0000 0.0000 -12.0575 0.0000 0.0000
# 5 0.0000 0.0000 0.0000 0.0000 14.1810 0.0000
# 6 0.0000 0.0000 0.0000 0.0000 0.0000 1.5069
#
#
#
# Elastic Compliance Matrix: (Units=1/GPa)
#
#
# Indices 1 2 3 4 5 6 
#
# 1 0.008731 -0.003304 -0.002038 0.000000 0.000000 0.000000
# 2 -0.003304 0.010405 -0.003141 0.000000 0.000000 0.000000
# 3 -0.002038 -0.003141 0.010950 0.000000 0.000000 0.000000
# 4 0.000000 0.000000 0.000000 -0.082936 0.000000 0.000000
# 5 0.000000 0.000000 0.000000 0.000000 0.070517 0.000000
# 6 0.000000 0.000000 0.000000 0.000000 0.000000 0.663622
#
#
# Mechanical properties :
#
#
# Convention : Reuss Voigt Hill
#
# Bulk Modulus (GPa) = 76.20650 77.70016 76.95333
# Shear Modulus (GPa) = 7.11615 16.56240 11.83927
#
# Velocity S-wave (km/s) = 1.86449 2.84446 2.40492
# Velocity P-wave (km/s) = 6.47016 6.98179 6.73084
#
# Compressibility (1/GPa) = 0.01312224
#
# Stress axis : x y z
#
# Youngs Moduli (GPa) = 114.53156 96.10861 91.32107
#
# Poissons Ratio (x) = 0.31753 0.18609
# Poissons Ratio (y) = 0.37840 0.28680
# Poissons Ratio (z) = 0.23338 0.30183
#
# Static dielectric constant tensor:
#      x y z
#    x 3.793090 0.000000 0.000000 
#    y 0.000000 4.052060 0.000000 
#    z 0.000000 0.000000 1.023880 
# 
# 
# High freq. dielectric constant tensor:
#      x y z
#    x 1.798200 0.000000 0.000000 
#    y 0.000000 1.802750 0.000000 
#    z 0.000000 0.000000 1.802700 
# 
# From -- ./inp_files/52122.got.cif
#   From: 2010.03.12/outbox.cif.g09.slc.cpg/sg74_27_cif.got.tgz:52122.got - 2010.04.16 15:46:19.
