data_PCOD8301306
_publ_section_title
;
Structure prediction by ZEFSAII (Michael W. Deem and Ramdas Pophale) SiO2 
 PCOD8301306
Probable space group: I M M A
;
_chemical_formula_sum "Si O2"
_cell_formula_units_Z 56
_cell_length_a 16.786261
_cell_length_b 27.307354
_cell_length_c 5.162635
_cell_angle_alpha 90.000000
_cell_angle_beta 90.000000
_cell_angle_gamma 90.000000
_cell_volume 2366.491850
_symmetry_space_group_name_H-M "I M M A"
_symmetry_group_IT_number 74
_symmetry_cell_setting 'orthorhombic'
loop_
_space_group_symop_operation_xyz
x,y,z
-x,1/2-y,z
x,-y,-z
-x,1/2+y,-z
-x,-y,-z
x,1/2+y,-z
-x,y,z
x,1/2-y,z
1/2+x,1/2+y,1/2+z
1/2-x,-y,1/2+z
1/2+x,1/2-y,1/2-z
1/2-x,y,1/2-z
1/2-x,1/2-y,1/2-z
1/2+x,y,1/2-z
1/2-x,1/2+y,1/2+z
1/2+x,-y,1/2+z
loop_
_atom_site_type_symbol
_atom_site_label
_atom_site_fract_x
_atom_site_fract_y
_atom_site_fract_z
Si Si1 0.587556 0.943684 0.923428
Si Si2 0.843333 0.695599 0.762852
Si Si3 0.410327 0.352407 0.754297
Si Si4 0.250000 0.466565 0.250000
O O1 0.500000 0.931209 0.789807
O O2 0.667719 0.934186 0.750842
O O3 0.596262 0.910197 0.179157
O O4 0.586297 0.000000 0.000000
O O5 0.876741 0.750000 0.826292
O O6 0.750000 0.697279 0.750000
O O7 0.874699 0.679118 0.486009
O O8 0.866841 0.657162 0.984148
O O9 0.500000 0.335268 0.715661
O O10 0.252382 0.500000 0.500000
#
# Coordination Sequence:
#
# PCOD8301306 Si02
#       4
#    16  16  16   8
#     4   9  21  43  68  98 141 183 226 283 341 409
#     4  11  25  46  69  98 137 179 225 285 352 411
#     4  11  24  42  70 104 135 180 230 278 345 411
#     4  10  22  40  64  96 131 180 237 278 336 404
#
# _framework density 23.663719
#
# number of rings (size 3 to 8) (size 9 to 14) (size 15 to 20)
#    0.000    1.714    0.000    2.571    2.000   10.857 
#   10.286    8.571    0.000    0.000    0.000    0.000 
#    0.000    0.000    0.000    0.000    0.000    0.000 
#
# Total GULP energy -346972.639894 kJ/mol
# GULP energy per Si atom -12391.879996 kJ/mol
# Density = 2.360986 g / cm^3
# Si number density = 23.663719 Si / 1000 Ang^3
#
#
#
# Elastic Constant Matrix: (Units=GPa)
#
#
# Indices 1 2 3 4 5 6 
#
# 1 193.0371 63.3207 76.8187 0.0038 0.0085 -0.0013
# 2 63.3207 197.1902 109.9601 -0.0023 -0.0112 0.0150
# 3 76.8187 109.9601 215.4492 0.0224 0.1184 -0.0056
# 4 0.0038 -0.0023 0.0224 34.5744 0.0054 0.0031
# 5 0.0085 -0.0112 0.1184 0.0054 36.3814 -0.0007
# 6 -0.0013 0.0150 -0.0056 0.0031 -0.0007 36.8865
#
#
#
# Elastic Compliance Matrix: (Units=1/GPa)
#
#
# Indices 1 2 3 4 5 6 
#
# 1 0.006191 -0.001058 -0.001667 0.000000 0.000004 0.000000
# 2 -0.001058 0.007270 -0.003333 0.000003 0.000013 -0.000003
# 3 -0.001667 -0.003333 0.006937 -0.000005 -0.000023 0.000002
# 4 0.000000 0.000003 -0.000005 0.028923 -0.000004 -0.000002
# 5 0.000004 0.000013 -0.000023 -0.000004 0.027487 0.000001
# 6 0.000000 -0.000003 0.000002 -0.000002 0.000001 0.027110
#
#
# Mechanical properties :
#
#
# Convention : Reuss Voigt Hill
#
# Bulk Modulus (GPa) = 120.76368 122.87505 121.81936
# Shear Modulus (GPa) = 42.08940 45.27360 43.68150
#
# Velocity S-wave (km/s) = 4.22198 4.37877 4.30109
# Velocity P-wave (km/s) = 8.65510 8.80926 8.73252
#
# Compressibility (1/GPa) = 0.00828064
#
# Stress axis : x y z
#
# Youngs Moduli (GPa) = 161.52516 137.55857 144.15464
#
# Poissons Ratio (x) = 0.14558 0.24035
# Poissons Ratio (y) = 0.17094 0.48046
# Poissons Ratio (z) = 0.26931 0.45847
#
# Static dielectric constant tensor:
#      x y z
#    x 5.461950 -0.000020 -0.000030 
#    y -0.000020 4.432430 -0.000030 
#    z -0.000030 -0.000030 3.890470 
# 
# 
# High freq. dielectric constant tensor:
#      x y z
#    x 1.967750 0.000000 0.000000 
#    y 0.000000 1.944610 0.000000 
#    z 0.000000 0.000000 1.917800 
# 
# From -- ./inp_files/2169.got.cif
#   From: 2010.03.12/outbox.cif.g09.slc.cpg/sg74_2_cif.got.tgz:2169.got - 2010.04.16 15:46:19.
