data_PCOD8301719
_publ_section_title
;
Structure prediction by ZEFSAII (Michael W. Deem and Ramdas Pophale) SiO2 
 PCOD8301719
Probable space group: I M M A
;
_chemical_formula_sum "Si O2"
_cell_formula_units_Z 72
_cell_length_a 14.348855
_cell_length_b 26.164338
_cell_length_c 8.539396
_cell_angle_alpha 90.000000
_cell_angle_beta 90.000000
_cell_angle_gamma 90.000000
_cell_volume 3205.930856
_symmetry_space_group_name_H-M "I M M A"
_symmetry_group_IT_number 74
_symmetry_cell_setting 'orthorhombic'
loop_
_space_group_symop_operation_xyz
x,y,z
-x,1/2-y,z
x,-y,-z
-x,1/2+y,-z
-x,-y,-z
x,1/2+y,-z
-x,y,z
x,1/2-y,z
1/2+x,1/2+y,1/2+z
1/2-x,-y,1/2+z
1/2+x,1/2-y,1/2-z
1/2-x,y,1/2-z
1/2-x,1/2-y,1/2-z
1/2+x,y,1/2-z
1/2-x,1/2+y,1/2+z
1/2+x,-y,1/2+z
loop_
_atom_site_type_symbol
_atom_site_label
_atom_site_fract_x
_atom_site_fract_y
_atom_site_fract_z
Si Si1 0.323061 0.139943 0.380498
Si Si2 0.500000 0.021509 0.713813
Si Si3 0.300770 0.953101 0.411006
Si Si4 0.000000 0.403554 0.290600
Si Si5 0.500000 0.374694 0.862719
Si Si6 0.146810 0.306635 0.813044
O O1 0.250000 0.160191 0.250000
O O2 0.276989 0.096468 0.487562
O O3 0.410267 0.114475 0.300042
O O4 0.354617 0.184810 0.498755
O O5 0.410028 0.033055 0.606352
O O6 0.500000 0.064247 0.847412
O O7 0.500000 0.965615 0.795112
O O8 0.250000 0.943733 0.250000
O O9 0.251097 0.000000 0.500000
O O10 0.000000 0.370575 0.450792
O O11 0.410519 0.349258 0.781074
O O12 0.104991 0.250000 0.782697
O O13 0.250000 0.309953 0.750000
#
# Coordination Sequence:
#
# PCOD8301719 Si02
#       6
#    16   8  16   8   8  16
#     4  12  25  44  69 100 140 179 228 284 347 406
#     4  12  25  43  68  94 145 183 228 268 334 404
#     4  12  25  42  66  96 140 189 234 280 333 407
#     4  12  27  43  66 103 143 182 225 277 336 410
#     4  12  25  45  71 102 134 182 233 278 336 410
#     4  11  25  48  74  99 131 176 229 288 352 411
#
# _framework density 22.458373999999999
#
# number of rings (size 3 to 8) (size 9 to 14) (size 15 to 20)
#    0.000    0.222    4.444    5.000    3.111    0.444 
#    0.000    2.222    0.000    0.000    0.000    0.000 
#    0.000    0.000    0.000    0.000    0.000    0.000 
#
# Total GULP energy -446326.163375 kJ/mol
# GULP energy per Si atom -12397.948983 kJ/mol
# Density = 2.240726 g / cm^3
# Si number density = 22.458374 Si / 1000 Ang^3
#
#
#
# Elastic Constant Matrix: (Units=GPa)
#
#
# Indices 1 2 3 4 5 6 
#
# 1 83.9211 36.6588 35.9864 -0.0002 -0.0001 0.0647
# 2 36.6588 116.5706 50.9072 0.0009 -0.0032 0.0614
# 3 35.9864 50.9072 158.4866 0.0096 0.0111 0.2001
# 4 -0.0002 0.0009 0.0096 26.5958 0.0013 0.0096
# 5 -0.0001 -0.0032 0.0111 0.0013 -28.0639 -0.0787
# 6 0.0647 0.0614 0.2001 0.0096 -0.0787 483.0537
#
#
#
# Elastic Compliance Matrix: (Units=1/GPa)
#
#
# Indices 1 2 3 4 5 6 
#
# 1 0.014396 -0.003605 -0.002111 0.000001 0.000000 -0.000001
# 2 -0.003605 0.010881 -0.002676 0.000001 -0.000002 0.000000
# 3 -0.002111 -0.002676 0.007649 -0.000003 0.000003 -0.000003
# 4 0.000001 0.000001 -0.000003 0.037600 0.000002 -0.000001
# 5 0.000000 -0.000002 0.000003 0.000002 -0.035633 -0.000006
# 6 -0.000001 0.000000 -0.000003 -0.000001 -0.000006 0.002070
#
#
# Mechanical properties :
#
#
# Convention : Reuss Voigt Hill
#
# Bulk Modulus (GPa) = 61.95560 67.34256 64.64908
# Shear Modulus (GPa) = 84.56180 112.01217 98.28698
#
# Velocity S-wave (km/s) = 6.14283 7.06992 6.62262
# Velocity P-wave (km/s) = 8.82946 9.83339 9.34492
#
# Compressibility (1/GPa) = 0.01614059
#
# Stress axis : x y z
#
# Youngs Moduli (GPa) = 69.46380 91.90206 130.74215
#
# Poissons Ratio (x) = 0.33135 0.27596
# Poissons Ratio (y) = 0.25045 0.34993
# Poissons Ratio (z) = 0.14662 0.24597
#
# Static dielectric constant tensor:
#      x y z
#    x 4.196080 -0.000030 0.000040 
#    y -0.000030 4.299700 -0.000010 
#    z 0.000040 -0.000010 4.330910 
# 
# 
# High freq. dielectric constant tensor:
#      x y z
#    x 1.889730 0.000000 0.000000 
#    y 0.000000 1.884370 0.000000 
#    z 0.000000 0.000000 1.897960 
# 
# From -- ./inp_files/9216.got.cif
#   From: 2010.03.12/outbox.cif.g09.slc.cpg/sg74_5_cif.got.tgz:9216.got - 2010.04.16 15:46:19.
