data_PCOD8301985
_publ_section_title
;
Structure prediction by ZEFSAII (Michael W. Deem and Ramdas Pophale) SiO2 
 PCOD8301985
Probable space group: P 42
;
_chemical_formula_sum "Si O2"
_cell_formula_units_Z 26
_cell_length_a 12.346447
_cell_length_b 12.346447
_cell_length_c 9.450801
_cell_angle_alpha 90.000000
_cell_angle_beta 90.000000
_cell_angle_gamma 90.000000
_cell_volume 1440.630521
_symmetry_space_group_name_H-M "P 42"
_symmetry_group_IT_number 77
_symmetry_cell_setting 'tetragonal'
loop_
_space_group_symop_operation_xyz
x,y,z
-y,x,1/2+z
-x,-y,z
y,-x,1/2+z
loop_
_atom_site_type_symbol
_atom_site_label
_atom_site_fract_x
_atom_site_fract_y
_atom_site_fract_z
Si Si1 0.708350 0.979411 0.758810
Si Si2 0.112615 0.088961 0.258810
Si Si3 0.112318 0.562098 0.031173
Si Si4 0.000000 0.000000 0.008810
Si Si5 0.210504 0.663018 0.758810
Si Si6 0.584803 0.202444 0.758810
Si Si7 0.887682 0.437902 0.486447
O O1 0.835826 0.003315 0.758810
O O2 0.655529 0.095986 0.758810
O O3 0.670798 0.914060 0.619730
O O4 0.670798 0.914061 0.897890
O O5 0.103093 0.020945 0.404868
O O6 0.226654 0.144918 0.258810
O O7 0.103093 0.020945 0.112752
O O8 0.196933 0.488473 0.118508
O O9 0.000000 0.500000 0.995659
O O10 0.178239 0.591925 0.892483
O O11 0.339010 0.690716 0.758810
O O12 0.178239 0.591925 0.625137
O O13 0.511528 0.196933 0.899113
O O14 0.000000 0.500000 0.521962
#
# Coordination Sequence:
#
# PCOD8301985 Si02
#       7
#     4   4   4   2   4   4   4
#     4   8  15  31  51  68  95 127 157 188 227 278
#     4  10  19  30  44  70  98 135 164 184 227 273
#     4   9  17  32  52  73  96 122 155 198 238 275
#     4  10  20  30  40  62 112 138 152 186 220 274
#     4  11  19  30  53  73  91 120 165 203 230 283
#     4   8  18  33  48  70  97 122 150 194 247 281
#     4   9  17  32  52  73  96 122 155 198 238 275
#
# _framework density 18.047654000000001
#
# number of rings (size 3 to 8) (size 9 to 14) (size 15 to 20)
#    0.000    2.769    0.000    4.154    0.000    0.000 
#    0.000    3.077    0.000    6.462    0.000    0.000 
#    0.000    0.000    0.000    0.000    0.000    0.000 
#
# Total GULP energy -322165.400076 kJ/mol
# GULP energy per Si atom -12390.976926 kJ/mol
# Density = 1.800658 g / cm^3
# Si number density = 18.047654 Si / 1000 Ang^3
#
#
#
# Elastic Constant Matrix: (Units=GPa)
#
#
# Indices 1 2 3 4 5 6 
#
# 1 68.7839 30.2345 53.3897 0.0000 0.0000 5.0102
# 2 30.2345 68.7839 53.3897 0.0000 0.0000 -5.0102
# 3 53.3897 53.3897 160.4914 0.0000 0.0000 0.0000
# 4 0.0000 0.0000 0.0000 48.9265 0.0000 0.0000
# 5 0.0000 0.0000 0.0000 0.0000 48.9265 0.0000
# 6 5.0102 -5.0102 0.0000 0.0000 0.0000 32.6948
#
#
#
# Elastic Compliance Matrix: (Units=1/GPa)
#
#
# Indices 1 2 3 4 5 6 
#
# 1 0.021383 -0.005634 -0.005239 0.000000 0.000000 -0.004140
# 2 -0.005634 0.021383 -0.005239 0.000000 0.000000 0.004140
# 3 -0.005239 -0.005239 0.009717 0.000000 0.000000 0.000000
# 4 0.000000 0.000000 0.000000 0.020439 0.000000 0.000000
# 5 0.000000 0.000000 0.000000 0.000000 0.020439 0.000000
# 6 -0.004140 0.004140 0.000000 0.000000 0.000000 0.031855
#
#
# Mechanical properties :
#
#
# Convention : Reuss Voigt Hill
#
# Bulk Modulus (GPa) = 49.36332 63.56523 56.46428
# Shear Modulus (GPa) = 30.45219 36.84590 33.64905
#
# Velocity S-wave (km/s) = 4.11216 4.52330 4.32262
# Velocity P-wave (km/s) = 7.06806 7.91060 7.50117
#
# Compressibility (1/GPa) = 0.02025796
#
# Stress axis : x y z
#
# Youngs Moduli (GPa) = 46.76642 46.76642 102.91694
#
# Poissons Ratio (x) = 0.26348 0.53919
# Poissons Ratio (y) = 0.26348 0.53919
# Poissons Ratio (z) = 0.24501 0.24501
#
# Static dielectric constant tensor:
#      x y z
#    x 3.510750 0.000000 0.000000 
#    y 0.000000 3.510750 0.000000 
#    z 0.000000 0.000000 3.344870 
# 
# 
# High freq. dielectric constant tensor:
#      x y z
#    x 1.677500 0.000000 0.000000 
#    y 0.000000 1.677500 0.000000 
#    z 0.000000 0.000000 1.710640 
# 
# From -- ./inp_files/484.got.cif
#   From: 2010.03.12/outbox.cif.g09.slc.cpg/sg77_cif.got.tgz:484.got - 2010.04.16 16:36:19.
