data_PCOD8301422
_publ_section_title
;
Structure prediction by ZEFSAII (Michael W. Deem and Ramdas Pophale) SiO2 
 PCOD8301422
Probable space group: I M M A
;
_chemical_formula_sum "Si O2"
_cell_formula_units_Z 88
_cell_length_a 11.831015
_cell_length_b 16.027906
_cell_length_c 22.803405
_cell_angle_alpha 90.000000
_cell_angle_beta 90.000000
_cell_angle_gamma 90.000000
_cell_volume 4324.127514
_symmetry_space_group_name_H-M "I M M A"
_symmetry_group_IT_number 74
_symmetry_cell_setting 'orthorhombic'
loop_
_space_group_symop_operation_xyz
x,y,z
-x,1/2-y,z
x,-y,-z
-x,1/2+y,-z
-x,-y,-z
x,1/2+y,-z
-x,y,z
x,1/2-y,z
1/2+x,1/2+y,1/2+z
1/2-x,-y,1/2+z
1/2+x,1/2-y,1/2-z
1/2-x,y,1/2-z
1/2-x,1/2-y,1/2-z
1/2+x,y,1/2-z
1/2-x,1/2+y,1/2+z
1/2+x,-y,1/2+z
loop_
_atom_site_type_symbol
_atom_site_label
_atom_site_fract_x
_atom_site_fract_y
_atom_site_fract_z
Si Si1 0.633437 0.154967 0.583554
Si Si2 0.500000 0.494200 0.067123
Si Si3 0.000000 0.655040 0.362923
Si Si4 0.191843 0.910334 0.636216
Si Si5 0.871023 0.651362 0.952616
Si Si6 0.780222 0.582852 0.314820
Si Si7 0.366651 0.750000 0.790789
O O1 0.500000 0.147266 0.589937
O O2 0.673185 0.250000 0.591655
O O3 0.670041 0.123570 0.518130
O O4 0.689179 0.100998 0.634546
O O5 0.500000 0.591397 0.083588
O O6 0.608009 0.443804 0.087456
O O7 0.500000 0.500000 0.000000
O O8 0.891520 0.636819 0.323946
O O9 0.000000 0.750000 0.386119
O O10 0.305909 0.891044 0.600970
O O11 0.140845 0.830905 0.668881
O O12 0.205203 0.982765 0.684682
O O13 0.856997 0.750000 0.947509
O O14 0.000000 0.623983 0.944121
O O15 0.750000 0.611390 0.250000
O O16 0.500000 0.750000 0.763478
O O17 0.250000 0.750000 0.750000
#
# Coordination Sequence:
#
# PCOD8301422 Si02
#       7
#    16   8   8  16  16  16   8
#     4   9  20  39  63  93 127 165 209 268 334 402
#     4  10  24  43  66  96 137 170 210 276 336 401
#     4  10  24  44  63  91 124 159 216 260 314 394
#     4  11  23  43  67  95 131 171 221 274 336 401
#     4   9  19  37  63  97 133 161 206 266 328 400
#     4  11  25  42  61  89 127 168 214 270 327 385
#     4  12  26  48  72 104 138 186 243 290 343 412
#
# _framework density 20.350926000000001
#
# number of rings (size 3 to 8) (size 9 to 14) (size 15 to 20)
#    0.000    1.818    1.818    2.182    6.364    2.909 
#    1.636    1.818    0.000    0.000    0.000    0.000 
#    0.000    0.000    0.000    0.000    0.000    0.000 
#
# Total GULP energy -545205.598331 kJ/mol
# GULP energy per Si atom -12391.036326 kJ/mol
# Density = 2.030461 g / cm^3
# Si number density = 20.350926 Si / 1000 Ang^3
#
#
#
# Elastic Constant Matrix: (Units=GPa)
#
#
# Indices 1 2 3 4 5 6 
#
# 1 102.3552 34.2441 54.9024 0.0000 0.0000 0.0000
# 2 34.2441 116.6065 33.3671 0.0000 0.0000 0.0000
# 3 54.9024 33.3671 107.2316 0.0000 0.0000 0.0000
# 4 0.0000 0.0000 0.0000 14.2050 0.0000 0.0000
# 5 0.0000 0.0000 0.0000 0.0000 180.6327 0.0000
# 6 0.0000 0.0000 0.0000 0.0000 0.0000 37.4064
#
#
#
# Elastic Compliance Matrix: (Units=1/GPa)
#
#
# Indices 1 2 3 4 5 6 
#
# 1 0.013991 -0.002260 -0.006460 0.000000 0.000000 0.000000
# 2 -0.002260 0.009779 -0.001886 0.000000 0.000000 0.000000
# 3 -0.006460 -0.001886 0.013220 0.000000 0.000000 0.000000
# 4 0.000000 0.000000 0.000000 0.070398 0.000000 0.000000
# 5 0.000000 0.000000 0.000000 0.000000 0.005536 0.000000
# 6 0.000000 0.000000 0.000000 0.000000 0.000000 0.026733
#
#
# Mechanical properties :
#
#
# Convention : Reuss Voigt Hill
#
# Bulk Modulus (GPa) = 63.37886 63.46895 63.42390
# Shear Modulus (GPa) = 30.09696 60.02745 45.06221
#
# Velocity S-wave (km/s) = 3.84982 5.43693 4.71070
# Velocity P-wave (km/s) = 7.13947 8.40646 7.79874
#
# Compressibility (1/GPa) = 0.01577813
#
# Stress axis : x y z
#
# Youngs Moduli (GPa) = 71.47313 102.25747 75.64295
#
# Poissons Ratio (x) = 0.23113 0.48867
# Poissons Ratio (y) = 0.16155 0.14264
# Poissons Ratio (z) = 0.46173 0.19283
#
# Static dielectric constant tensor:
#      x y z
#    x 3.979570 0.000000 0.000000 
#    y 0.000000 3.740890 0.000000 
#    z 0.000000 0.000000 3.588980 
# 
# 
# High freq. dielectric constant tensor:
#      x y z
#    x 1.804150 0.000000 0.000000 
#    y 0.000000 1.803470 0.000000 
#    z 0.000000 0.000000 1.790140 
# 
# From -- ./inp_files/58659.got.cif
#   From: 2010.03.12/outbox.cif.g09.slc.cpg/sg74_30_cif.got.tgz:58659.got - 2010.04.16 15:46:19.
