data_PCOD8301097
_publ_section_title
;
Structure prediction by ZEFSAII (Michael W. Deem and Ramdas Pophale) SiO2 
 PCOD8301097
Probable space group: I M M A
;
_chemical_formula_sum "Si O2"
_cell_formula_units_Z 64
_cell_length_a 20.101488
_cell_length_b 16.820619
_cell_length_c 9.193920
_cell_angle_alpha 90.000000
_cell_angle_beta 90.000000
_cell_angle_gamma 90.000000
_cell_volume 3108.643367
_symmetry_space_group_name_H-M "I M M A"
_symmetry_group_IT_number 74
_symmetry_cell_setting 'orthorhombic'
loop_
_space_group_symop_operation_xyz
x,y,z
-x,1/2-y,z
x,-y,-z
-x,1/2+y,-z
-x,-y,-z
x,1/2+y,-z
-x,y,z
x,1/2-y,z
1/2+x,1/2+y,1/2+z
1/2-x,-y,1/2+z
1/2+x,1/2-y,1/2-z
1/2-x,y,1/2-z
1/2-x,1/2-y,1/2-z
1/2+x,y,1/2-z
1/2-x,1/2+y,1/2+z
1/2+x,-y,1/2+z
loop_
_atom_site_type_symbol
_atom_site_label
_atom_site_fract_x
_atom_site_fract_y
_atom_site_fract_z
Si Si1 0.500000 0.840220 0.852929
Si Si2 0.889177 0.910677 0.455033
Si Si3 0.112329 0.658697 0.145825
Si Si4 0.759305 0.425013 0.913104
Si Si5 0.500000 0.091203 0.455313
O O1 0.500000 0.750000 0.795702
O O2 0.500000 0.900861 0.718387
O O3 0.566410 0.852410 0.948321
O O4 0.905088 0.895759 0.285177
O O5 0.810457 0.894562 0.482042
O O6 0.908307 0.000000 0.500000
O O7 0.103486 0.750000 0.190891
O O8 0.187424 0.646094 0.087356
O O9 0.064576 0.635506 0.015163
O O10 0.750000 0.456638 0.750000
O O11 0.788464 0.500000 0.000000
O O12 0.500000 0.000000 0.500000
#
# Coordination Sequence:
#
# PCOD8301097 Si02
#       5
#     8  16  16  16   8
#     4  12  24  38  58  86 118 148 190 246 296 338
#     4  10  21  39  61  86 116 156 198 235 283 347
#     4  11  22  38  61  89 120 152 192 242 295 346
#     4   9  20  37  60  87 116 153 198 239 283 346
#     4  12  25  42  61  82 114 156 198 238 287 352
#
# _framework density 20.587758000000001
#
# number of rings (size 3 to 8) (size 9 to 14) (size 15 to 20)
#    0.000    1.500    0.000    5.250    0.000    9.500 
#    0.000    0.000    0.000    3.750    0.000    0.000 
#    0.000    0.000    0.000    0.000    0.000    0.000 
#
# Total GULP energy -396876.853114 kJ/mol
# GULP energy per Si atom -12402.401660 kJ/mol
# Density = 2.054090 g / cm^3
# Si number density = 20.587758 Si / 1000 Ang^3
#
#
#
# Elastic Constant Matrix: (Units=GPa)
#
#
# Indices 1 2 3 4 5 6 
#
# 1 112.6672 46.1624 62.1189 0.0000 0.0000 0.0000
# 2 46.1624 109.2118 28.3869 0.0000 0.0000 0.0000
# 3 62.1189 28.3869 95.5104 0.0000 0.0000 0.0000
# 4 0.0000 0.0000 0.0000 32.5477 0.0000 0.0000
# 5 0.0000 0.0000 0.0000 0.0000 23.2983 0.0000
# 6 0.0000 0.0000 0.0000 0.0000 0.0000 17.7910
#
#
#
# Elastic Compliance Matrix: (Units=1/GPa)
#
#
# Indices 1 2 3 4 5 6 
#
# 1 0.015467 -0.004252 -0.008796 0.000000 0.000000 0.000000
# 2 -0.004252 0.011092 -0.000531 0.000000 0.000000 0.000000
# 3 -0.008796 -0.000531 0.016349 0.000000 0.000000 0.000000
# 4 0.000000 0.000000 0.000000 0.030724 0.000000 0.000000
# 5 0.000000 0.000000 0.000000 0.000000 0.042922 0.000000
# 6 0.000000 0.000000 0.000000 0.000000 0.000000 0.056208
#
#
# Mechanical properties :
#
#
# Convention : Reuss Voigt Hill
#
# Bulk Modulus (GPa) = 63.49322 65.63620 64.56471
# Shear Modulus (GPa) = 24.37000 26.77549 25.57275
#
# Velocity S-wave (km/s) = 3.44425 3.61023 3.52822
# Velocity P-wave (km/s) = 6.83552 7.02344 6.93012
#
# Compressibility (1/GPa) = 0.01574971
#
# Stress axis : x y z
#
# Youngs Moduli (GPa) = 64.65199 90.15735 61.16586
#
# Poissons Ratio (x) = 0.38331 0.53803
# Poissons Ratio (y) = 0.27487 0.03251
# Poissons Ratio (z) = 0.56869 0.04792
#
# Static dielectric constant tensor:
#      x y z
#    x 3.957930 0.000000 0.000000 
#    y 0.000000 3.578980 0.000000 
#    z 0.000000 0.000000 3.690290 
# 
# 
# High freq. dielectric constant tensor:
#      x y z
#    x 1.820650 0.000000 0.000000 
#    y 0.000000 1.795040 0.000000 
#    z 0.000000 0.000000 1.803230 
# 
# From -- ./inp_files/11816.got.cif
#   From: 2010.03.12/outbox.cif.g09.slc.cpg/sg74_6_cif.got.tgz:11816.got - 2010.04.16 15:46:19.
