data_PCOD8301028
_publ_section_title
;
Structure prediction by ZEFSAII (Michael W. Deem and Ramdas Pophale) SiO2 
 PCOD8301028
Probable space group: I M M A
;
_chemical_formula_sum "Si O2"
_cell_formula_units_Z 72
_cell_length_a 16.186006
_cell_length_b 9.026320
_cell_length_c 24.641355
_cell_angle_alpha 90.000000
_cell_angle_beta 90.000000
_cell_angle_gamma 90.000000
_cell_volume 3600.103682
_symmetry_space_group_name_H-M "I M M A"
_symmetry_group_IT_number 74
_symmetry_cell_setting 'orthorhombic'
loop_
_space_group_symop_operation_xyz
x,y,z
-x,1/2-y,z
x,-y,-z
-x,1/2+y,-z
-x,-y,-z
x,1/2+y,-z
-x,y,z
x,1/2-y,z
1/2+x,1/2+y,1/2+z
1/2-x,-y,1/2+z
1/2+x,1/2-y,1/2-z
1/2-x,y,1/2-z
1/2-x,1/2-y,1/2-z
1/2+x,y,1/2-z
1/2-x,1/2+y,1/2+z
1/2+x,-y,1/2+z
loop_
_atom_site_type_symbol
_atom_site_label
_atom_site_fract_x
_atom_site_fract_y
_atom_site_fract_z
Si Si1 0.097214 0.414779 0.551604
Si Si2 0.500000 0.076281 0.558093
Si Si3 0.683716 0.424093 0.144575
Si Si4 0.143025 0.424522 0.860028
Si Si5 0.906540 0.918074 0.753265
O O1 0.136151 0.500000 0.500000
O O2 0.136164 0.250000 0.554330
O O3 0.115992 0.504460 0.605800
O O4 0.000000 0.403117 0.544908
O O5 0.500000 0.250000 0.548270
O O6 0.580929 0.028481 0.591958
O O7 0.500000 0.000000 0.500000
O O8 0.685232 0.250000 0.134621
O O9 0.772034 0.491039 0.130115
O O10 0.657506 0.462118 0.206065
O O11 0.158660 0.250000 0.859413
O O12 0.104312 0.470284 0.802704
O O13 0.888203 0.750000 0.772940
O O14 0.000000 0.930808 0.730873
#
# Coordination Sequence:
#
# PCOD8301028 Si02
#       5
#    16   8  16  16  16
#     4  10  21  38  60  86 118 158 201 246 299 357
#     4  10  24  44  66  90 116 154 203 254 309 368
#     4  11  23  38  59  90 124 160 203 249 301 363
#     4  11  23  41  61  87 121 155 198 254 310 365
#     4  10  21  38  61  88 121 161 202 244 299 367
#
# _framework density 19.999424999999999
#
# number of rings (size 3 to 8) (size 9 to 14) (size 15 to 20)
#    0.000    1.556    1.111    3.333    0.000    9.333 
#    0.000    2.222    0.000    0.000    0.000    0.000 
#    0.000    0.000    0.000    0.000    0.000    0.000 
#
# Total GULP energy -446535.895682 kJ/mol
# GULP energy per Si atom -12403.774880 kJ/mol
# Density = 1.995391 g / cm^3
# Si number density = 19.999425 Si / 1000 Ang^3
#
#
#
# Elastic Constant Matrix: (Units=GPa)
#
#
# Indices 1 2 3 4 5 6 
#
# 1 72.3093 39.0641 37.5432 0.0000 0.0000 0.0000
# 2 39.0641 117.4042 72.7759 0.0000 0.0000 0.0000
# 3 37.5432 72.7759 138.6739 0.0000 0.0000 0.0000
# 4 0.0000 0.0000 0.0000 39.0732 0.0000 0.0000
# 5 0.0000 0.0000 0.0000 0.0000 20.8656 0.0000
# 6 0.0000 0.0000 0.0000 0.0000 0.0000 34.0216
#
#
#
# Elastic Compliance Matrix: (Units=1/GPa)
#
#
# Indices 1 2 3 4 5 6 
#
# 1 0.017418 -0.004257 -0.002481 0.000000 0.000000 0.000000
# 2 -0.004257 0.013665 -0.006019 0.000000 0.000000 0.000000
# 3 -0.002481 -0.006019 0.011042 0.000000 0.000000 0.000000
# 4 0.000000 0.000000 0.000000 0.025593 0.000000 0.000000
# 5 0.000000 0.000000 0.000000 0.000000 0.047926 0.000000
# 6 0.000000 0.000000 0.000000 0.000000 0.000000 0.029393
#
#
# Mechanical properties :
#
#
# Convention : Reuss Voigt Hill
#
# Bulk Modulus (GPa) = 60.20642 69.68374 64.94508
# Shear Modulus (GPa) = 28.39498 30.72571 29.56034
#
# Velocity S-wave (km/s) = 3.77210 3.92386 3.84873
# Velocity P-wave (km/s) = 7.01007 7.44630 7.23147
#
# Compressibility (1/GPa) = 0.01660952
#
# Stress axis : x y z
#
# Youngs Moduli (GPa) = 57.41277 73.17942 90.56691
#
# Poissons Ratio (x) = 0.31155 0.22472
# Poissons Ratio (y) = 0.24443 0.54510
# Poissons Ratio (z) = 0.14245 0.44045
#
# Static dielectric constant tensor:
#      x y z
#    x 3.695760 0.000000 0.000000 
#    y 0.000000 3.801040 0.000000 
#    z 0.000000 0.000000 3.618250 
# 
# 
# High freq. dielectric constant tensor:
#      x y z
#    x 1.783610 0.000000 0.000000 
#    y 0.000000 1.789460 0.000000 
#    z 0.000000 0.000000 1.782100 
# 
# From -- ./inp_files/66758.got.cif
#   From: 2010.03.12/outbox.cif.g09.slc.cpg/sg74_34_cif.got.tgz:66758.got - 2010.04.16 15:46:19.
