data_PCOD8301752
_publ_section_title
;
Structure prediction by ZEFSAII (Michael W. Deem and Ramdas Pophale) SiO2 
 PCOD8301752
Probable space group: I M M A
;
_chemical_formula_sum "Si O2"
_cell_formula_units_Z 112
_cell_length_a 14.578148
_cell_length_b 28.805619
_cell_length_c 14.050737
_cell_angle_alpha 90.000000
_cell_angle_beta 90.000000
_cell_angle_gamma 90.000000
_cell_volume 5900.362197
_symmetry_space_group_name_H-M "I M M A"
_symmetry_group_IT_number 74
_symmetry_cell_setting 'orthorhombic'
loop_
_space_group_symop_operation_xyz
x,y,z
-x,1/2-y,z
x,-y,-z
-x,1/2+y,-z
-x,-y,-z
x,1/2+y,-z
-x,y,z
x,1/2-y,z
1/2+x,1/2+y,1/2+z
1/2-x,-y,1/2+z
1/2+x,1/2-y,1/2-z
1/2-x,y,1/2-z
1/2-x,1/2-y,1/2-z
1/2+x,y,1/2-z
1/2-x,1/2+y,1/2+z
1/2+x,-y,1/2+z
loop_
_atom_site_type_symbol
_atom_site_label
_atom_site_fract_x
_atom_site_fract_y
_atom_site_fract_z
Si Si1 0.106061 0.604262 0.005927
Si Si2 0.288124 0.970358 0.596813
Si Si3 0.900603 0.452077 0.447779
Si Si4 0.108374 0.604768 0.372479
Si Si5 0.608871 0.699252 0.419443
Si Si6 0.109318 0.199494 0.705670
Si Si7 0.106863 0.953485 0.195590
O O1 0.143591 0.657362 0.013017
O O2 0.122639 0.581553 0.108859
O O3 0.000000 0.602266 0.977855
O O4 0.158947 0.577696 0.922245
O O5 0.182519 0.958018 0.627570
O O6 0.286852 0.000000 0.500000
O O7 0.337786 0.998752 0.679896
O O8 0.918761 0.500000 0.500000
O O9 0.864448 0.413741 0.523778
O O10 0.000000 0.437377 0.402126
O O11 0.147375 0.657195 0.359247
O O12 0.147312 0.570230 0.291091
O O13 0.000000 0.604894 0.359275
O O14 0.500000 0.695110 0.411701
O O15 0.637147 0.750000 0.461160
O O16 0.648875 0.693800 0.312584
O O17 0.140551 0.250000 0.664365
O O18 0.000000 0.197430 0.709110
O O19 0.000000 0.966547 0.206132
#
# Coordination Sequence:
#
# PCOD8301752 Si02
#       7
#    16  16  16  16  16  16  16
#     4   9  14  22  36  55  82 110 134 165 205 249
#     4   9  17  27  38  56  79 102 136 170 214 258
#     4   9  18  32  45  56  75 105 144 184 218 255
#     4   9  15  25  43  63  82 110 147 183 216 249
#     4   8  12  18  31  52  79 111 143 168 193 238
#     4   8  12  19  34  58  85 110 140 175 207 242
#     4   9  15  24  40  63  85 105 134 170 210 255
#
# _framework density 18.981884999999998
#
# number of rings (size 3 to 8) (size 9 to 14) (size 15 to 20)
#    0.000    3.286    1.429    1.286    0.000    1.714 
#    0.000    6.429    0.000    0.857    0.000    3.000 
#    0.000    0.000    0.000    1.286    0.000   50.571 
#
# Total GULP energy -693797.774587 kJ/mol
# GULP energy per Si atom -12389.245975 kJ/mol
# Density = 1.893868 g / cm^3
# Si number density = 18.981885 Si / 1000 Ang^3
#
#
#
# Elastic Constant Matrix: (Units=GPa)
#
#
# Indices 1 2 3 4 5 6 
#
# 1 60.7789 35.8810 14.2245 0.0001 -0.0012 0.0008
# 2 35.8810 158.8651 30.7306 0.0003 -0.0088 0.0018
# 3 14.2245 30.7306 18.3275 -0.0005 -0.0287 0.0061
# 4 0.0001 0.0003 -0.0005 24.8276 -0.0066 0.0011
# 5 -0.0012 -0.0088 -0.0287 -0.0066 -328.9489 -0.0387
# 6 0.0008 0.0018 0.0061 0.0011 -0.0387 -196.0689
#
#
#
# Elastic Compliance Matrix: (Units=1/GPa)
#
#
# Indices 1 2 3 4 5 6 
#
# 1 0.020665 -0.002316 -0.012155 0.000000 0.000001 0.000000
# 2 -0.002316 0.009576 -0.014259 0.000000 0.000001 0.000000
# 3 -0.012155 -0.014259 0.087906 0.000002 -0.000007 0.000003
# 4 0.000000 0.000000 0.000002 0.040278 -0.000001 0.000000
# 5 0.000001 0.000001 -0.000007 -0.000001 -0.003040 0.000001
# 6 0.000000 0.000000 0.000003 0.000000 0.000001 -0.005100
#
#
# Mechanical properties :
#
#
# Convention : Reuss Voigt Hill
#
# Bulk Modulus (GPa) = 16.47823 44.40487 30.44155
# Shear Modulus (GPa) = 21.93228 -89.56235 -33.81503
#
# Velocity S-wave (km/s) = 3.40285 -6.87644 -4.22529
# Velocity P-wave (km/s) = 4.91315 6.29311 2.78066
#
# Compressibility (1/GPa) = 0.06068611
#
# Stress axis : x y z
#
# Youngs Moduli (GPa) = 48.39050 104.42787 11.37579
#
# Poissons Ratio (x) = 0.24186 0.13828
# Poissons Ratio (y) = 0.11208 0.16221
# Poissons Ratio (z) = 0.58821 1.48903
#
# Static dielectric constant tensor:
#      x y z
#    x 3.525730 0.000000 0.000000 
#    y 0.000000 3.981160 0.000000 
#    z 0.000000 0.000000 2.944950 
# 
# 
# High freq. dielectric constant tensor:
#      x y z
#    x 1.738640 0.000000 0.000000 
#    y 0.000000 1.737300 0.000000 
#    z 0.000000 0.000000 1.658290 
# 
# From -- ./inp_files/33156.got.cif
#   From: 2010.03.12/outbox.cif.g09.slc.cpg/sg74_17_cif.got.tgz:33156.got - 2010.04.16 15:46:19.
