data_PCOD8301061
_publ_section_title
;
Structure prediction by ZEFSAII (Michael W. Deem and Ramdas Pophale) SiO2 
 PCOD8301061
Probable space group: I M M A
;
_chemical_formula_sum "Si O2"
_cell_formula_units_Z 48
_cell_length_a 15.795688
_cell_length_b 15.527026
_cell_length_c 8.898407
_cell_angle_alpha 90.000000
_cell_angle_beta 90.000000
_cell_angle_gamma 90.000000
_cell_volume 2182.423819
_symmetry_space_group_name_H-M "I M M A"
_symmetry_group_IT_number 74
_symmetry_cell_setting 'orthorhombic'
loop_
_space_group_symop_operation_xyz
x,y,z
-x,1/2-y,z
x,-y,-z
-x,1/2+y,-z
-x,-y,-z
x,1/2+y,-z
-x,y,z
x,1/2-y,z
1/2+x,1/2+y,1/2+z
1/2-x,-y,1/2+z
1/2+x,1/2-y,1/2-z
1/2-x,y,1/2-z
1/2-x,1/2-y,1/2-z
1/2+x,y,1/2-z
1/2-x,1/2+y,1/2+z
1/2+x,-y,1/2+z
loop_
_atom_site_type_symbol
_atom_site_label
_atom_site_fract_x
_atom_site_fract_y
_atom_site_fract_z
Si Si1 0.667354 0.905422 0.566361
Si Si2 0.500000 0.648634 0.100100
Si Si3 0.346012 0.848105 0.891999
Si Si4 0.500000 0.595480 0.430609
O O1 0.651059 0.908930 0.745697
O O2 0.753531 0.853786 0.530205
O O3 0.586157 0.858456 0.489043
O O4 0.678499 0.000000 0.500000
O O5 0.500000 0.750000 0.138148
O O6 0.500000 0.593422 0.251271
O O7 0.582951 0.620994 0.007821
O O8 0.362830 0.750000 0.841299
O O9 0.500000 0.500000 0.500000
#
# Coordination Sequence:
#
# PCOD8301061 Si02
#       4
#    16   8  16   8
#     4  10  21  38  61  91 121 156 198 245 299 354
#     4  10  23  40  62  89 119 157 202 246 294 352
#     4  10  22  42  64  88 119 160 202 246 297 354
#     4  10  23  40  58  87 123 157 194 242 301 354
#
# _framework density 21.993894000000001
#
# number of rings (size 3 to 8) (size 9 to 14) (size 15 to 20)
#    0.000    2.000    0.000    3.000    0.000   14.667 
#    0.000   10.833    0.000    0.000    0.000    0.000 
#    0.000    0.000    0.000    0.000    0.000    0.000 
#
# Total GULP energy -297538.103258 kJ/mol
# GULP energy per Si atom -12397.420969 kJ/mol
# Density = 2.194384 g / cm^3
# Si number density = 21.993894 Si / 1000 Ang^3
#
#
#
# Elastic Constant Matrix: (Units=GPa)
#
#
# Indices 1 2 3 4 5 6 
#
# 1 228.9233 10.2697 106.7296 0.0000 0.0000 0.0000
# 2 10.2697 63.3451 53.3774 0.0000 0.0000 0.0000
# 3 106.7296 53.3774 168.2308 0.0000 0.0000 0.0000
# 4 0.0000 0.0000 0.0000 31.1550 0.0000 0.0000
# 5 0.0000 0.0000 0.0000 0.0000 35.3547 0.0000
# 6 0.0000 0.0000 0.0000 0.0000 0.0000 19.2354
#
#
#
# Elastic Compliance Matrix: (Units=1/GPa)
#
#
# Indices 1 2 3 4 5 6 
#
# 1 0.006702 0.003407 -0.005333 0.000000 0.000000 0.000000
# 2 0.003407 0.023280 -0.009548 0.000000 0.000000 0.000000
# 3 -0.005333 -0.009548 0.012357 0.000000 0.000000 0.000000
# 4 0.000000 0.000000 0.000000 0.032098 0.000000 0.000000
# 5 0.000000 0.000000 0.000000 0.000000 0.028285 0.000000
# 6 0.000000 0.000000 0.000000 0.000000 0.000000 0.051987
#
#
# Mechanical properties :
#
#
# Convention : Reuss Voigt Hill
#
# Bulk Modulus (GPa) = 51.56986 89.02808 70.29897
# Shear Modulus (GPa) = 27.15639 36.49052 31.82345
#
# Velocity S-wave (km/s) = 3.51768 4.07765 3.80797
# Velocity P-wave (km/s) = 6.32432 7.92061 7.16704
#
# Compressibility (1/GPa) = 0.01939117
#
# Stress axis : x y z
#
# Youngs Moduli (GPa) = 149.21630 42.95594 80.92678
#
# Poissons Ratio (x) = -0.14636 0.43156
# Poissons Ratio (y) = -0.50840 0.77268
# Poissons Ratio (z) = 0.79573 0.41014
#
# Static dielectric constant tensor:
#      x y z
#    x 4.977410 0.000000 0.000000 
#    y 0.000000 3.547860 0.000000 
#    z 0.000000 0.000000 3.816130 
# 
# 
# High freq. dielectric constant tensor:
#      x y z
#    x 1.899170 0.000000 0.000000 
#    y 0.000000 1.836360 0.000000 
#    z 0.000000 0.000000 1.856230 
# 
# From -- ./inp_files/8108.got.cif
#   From: 2010.03.12/outbox.cif.g09.slc.cpg/sg74_5_cif.got.tgz:8108.got - 2010.04.16 15:46:19.
