data_PCOD8301415
_publ_section_title
;
Structure prediction by ZEFSAII (Michael W. Deem and Ramdas Pophale) SiO2 
 PCOD8301415
Probable space group: I M M A
;
_chemical_formula_sum "Si O2"
_cell_formula_units_Z 56
_cell_length_a 12.399209
_cell_length_b 9.389166
_cell_length_c 25.858808
_cell_angle_alpha 90.000000
_cell_angle_beta 90.000000
_cell_angle_gamma 90.000000
_cell_volume 3010.436698
_symmetry_space_group_name_H-M "I M M A"
_symmetry_group_IT_number 74
_symmetry_cell_setting 'orthorhombic'
loop_
_space_group_symop_operation_xyz
x,y,z
-x,1/2-y,z
x,-y,-z
-x,1/2+y,-z
-x,-y,-z
x,1/2+y,-z
-x,y,z
x,1/2-y,z
1/2+x,1/2+y,1/2+z
1/2-x,-y,1/2+z
1/2+x,1/2-y,1/2-z
1/2-x,y,1/2-z
1/2-x,1/2-y,1/2-z
1/2+x,y,1/2-z
1/2-x,1/2+y,1/2+z
1/2+x,-y,1/2+z
loop_
_atom_site_type_symbol
_atom_site_label
_atom_site_fract_x
_atom_site_fract_y
_atom_site_fract_z
Si Si1 0.187768 0.417254 0.630394
Si Si2 0.375751 0.094065 0.225146
Si Si3 0.121539 0.585620 0.840195
Si Si4 0.500000 0.583886 0.052801
O O1 0.207074 0.250000 0.633545
O O2 0.136595 0.468434 0.684232
O O3 0.302375 0.496101 0.620930
O O4 0.106646 0.458974 0.584562
O O5 0.500000 0.104842 0.241541
O O6 0.339416 0.250000 0.202908
O O7 0.322643 0.064899 0.282500
O O8 0.121832 0.750000 0.856521
O O9 0.000000 0.524157 0.843649
O O10 0.500000 0.750000 0.040325
O O11 0.500000 0.500000 0.000000
#
# Coordination Sequence:
#
# PCOD8301415 Si02
#       4
#    16  16  16   8
#     4  11  21  34  52  77 109 138 172 223 276 322
#     4   9  17  30  49  74 106 146 186 217 251 306
#     4   9  19  34  51  76 110 146 185 218 246 304
#     4  10  24  42  58  80 106 134 176 230 279 326
#
# _framework density 18.601953000000002
#
# number of rings (size 3 to 8) (size 9 to 14) (size 15 to 20)
#    0.000    2.286    1.429    3.429    0.000    7.429 
#    0.000    2.857    0.000    0.857    0.000    0.000 
#    0.000    0.000    0.000    0.000    0.000    0.000 
#
# Total GULP energy -347137.664790 kJ/mol
# GULP energy per Si atom -12397.773742 kJ/mol
# Density = 1.855961 g / cm^3
# Si number density = 18.601953 Si / 1000 Ang^3
#
#
#
# Elastic Constant Matrix: (Units=GPa)
#
#
# Indices 1 2 3 4 5 6 
#
# 1 115.7688 62.7000 63.6571 0.0000 0.0000 0.0000
# 2 62.7000 86.9034 57.7366 0.0000 0.0000 0.0000
# 3 63.6571 57.7366 89.7463 0.0000 0.0000 0.0000
# 4 0.0000 0.0000 0.0000 28.3598 0.0000 0.0000
# 5 0.0000 0.0000 0.0000 0.0000 20.8672 0.0000
# 6 0.0000 0.0000 0.0000 0.0000 0.0000 34.0733
#
#
#
# Elastic Compliance Matrix: (Units=1/GPa)
#
#
# Indices 1 2 3 4 5 6 
#
# 1 0.016363 -0.007152 -0.007006 0.000000 0.000000 0.000000
# 2 -0.007152 0.023222 -0.009867 0.000000 0.000000 0.000000
# 3 -0.007006 -0.009867 0.022459 0.000000 0.000000 0.000000
# 4 0.000000 0.000000 0.000000 0.035261 0.000000 0.000000
# 5 0.000000 0.000000 0.000000 0.000000 0.047922 0.000000
# 6 0.000000 0.000000 0.000000 0.000000 0.000000 0.029348
#
#
# Mechanical properties :
#
#
# Convention : Reuss Voigt Hill
#
# Bulk Modulus (GPa) = 71.44655 73.40067 72.42361
# Shear Modulus (GPa) = 21.99825 23.88171 22.93998
#
# Velocity S-wave (km/s) = 3.44259 3.58694 3.51551
# Velocity P-wave (km/s) = 7.36841 7.52988 7.44958
#
# Compressibility (1/GPa) = 0.01399648
#
# Stress axis : x y z
#
# Youngs Moduli (GPa) = 61.11206 43.06216 44.52479
#
# Poissons Ratio (x) = 0.30796 0.31193
# Poissons Ratio (y) = 0.43705 0.43932
# Poissons Ratio (z) = 0.42813 0.42489
#
# Static dielectric constant tensor:
#      x y z
#    x 3.953940 0.000000 0.000000 
#    y 0.000000 3.251550 0.000000 
#    z 0.000000 0.000000 2.955490 
# 
# 
# High freq. dielectric constant tensor:
#      x y z
#    x 1.764670 0.000000 0.000000 
#    y 0.000000 1.713380 0.000000 
#    z 0.000000 0.000000 1.666800 
# 
# From -- ./inp_files/47834.got.cif
#   From: 2010.03.12/outbox.cif.g09.slc.cpg/sg74_24_cif.got.tgz:47834.got - 2010.04.16 15:46:19.
