data_PCOD8301008
_publ_section_title
;
Structure prediction by ZEFSAII (Michael W. Deem and Ramdas Pophale) SiO2 
 PCOD8301008
Probable space group: I M M A
;
_chemical_formula_sum "Si O2"
_cell_formula_units_Z 112
_cell_length_a 14.952318
_cell_length_b 24.809319
_cell_length_c 15.040770
_cell_angle_alpha 90.000000
_cell_angle_beta 90.000000
_cell_angle_gamma 90.000000
_cell_volume 5579.476316
_symmetry_space_group_name_H-M "I M M A"
_symmetry_group_IT_number 74
_symmetry_cell_setting 'orthorhombic'
loop_
_space_group_symop_operation_xyz
x,y,z
-x,1/2-y,z
x,-y,-z
-x,1/2+y,-z
-x,-y,-z
x,1/2+y,-z
-x,y,z
x,1/2-y,z
1/2+x,1/2+y,1/2+z
1/2-x,-y,1/2+z
1/2+x,1/2-y,1/2-z
1/2-x,y,1/2-z
1/2-x,1/2-y,1/2-z
1/2+x,y,1/2-z
1/2-x,1/2+y,1/2+z
1/2+x,-y,1/2+z
loop_
_atom_site_type_symbol
_atom_site_label
_atom_site_fract_x
_atom_site_fract_y
_atom_site_fract_z
Si Si1 0.395613 0.586441 0.721452
Si Si2 0.605197 0.987386 0.397040
Si Si3 0.599032 0.870804 0.905935
Si Si4 0.260137 0.310138 0.992971
Si Si5 0.747602 0.401579 0.650062
Si Si6 0.102330 0.809626 0.881842
Si Si7 0.098368 0.952676 0.439548
O O1 0.500000 0.580654 0.708037
O O2 0.355443 0.535822 0.666012
O O3 0.369181 0.588477 0.826268
O O4 0.362361 0.644105 0.684221
O O5 0.500000 0.977605 0.381396
O O6 0.655899 0.932247 0.372843
O O7 0.625076 0.000000 0.500000
O O8 0.500000 0.846973 0.880245
O O9 0.671950 0.824706 0.925696
O O10 0.589155 0.901317 0.998145
O O11 0.284347 0.250000 0.960249
O O12 0.264124 0.349741 0.910104
O O13 0.159296 0.312579 0.028538
O O14 0.750000 0.380499 0.750000
O O15 0.831580 0.442439 0.639031
O O16 0.113031 0.750000 0.837382
O O17 0.000000 0.820245 0.909696
O O18 0.000000 0.967727 0.399569
O O19 0.137504 0.000000 0.500000
#
# Coordination Sequence:
#
# PCOD8301008 Si02
#       7
#    16  16  16  16  16  16  16
#     4   9  18  33  55  84 117 150 187 231 287 343
#     4  10  21  38  59  84 119 158 192 233 287 347
#     4   9  19  35  55  82 110 143 186 232 287 349
#     4  10  22  40  59  79 108 150 197 243 298 354
#     4  11  24  38  56  86 113 144 196 245 292 347
#     4   9  18  34  55  79 111 149 187 229 278 336
#     4   9  19  36  57  77 109 150 186 229 286 348
#
# _framework density 20.07357
#
# number of rings (size 3 to 8) (size 9 to 14) (size 15 to 20)
#    0.000    2.429    0.000    1.286    2.000    5.143 
#    0.000    2.857    0.000    0.000    0.000    4.000 
#    0.000    0.000    0.000    0.000    0.000    0.000 
#
# Total GULP energy -694034.499504 kJ/mol
# GULP energy per Si atom -12393.473205 kJ/mol
# Density = 2.002788 g / cm^3
# Si number density = 20.073570 Si / 1000 Ang^3
#
#
#
# Elastic Constant Matrix: (Units=GPa)
#
#
# Indices 1 2 3 4 5 6 
#
# 1 81.4054 38.2965 39.8208 0.0000 0.0000 0.0000
# 2 38.2965 102.0214 35.1527 -0.0004 0.0000 0.0000
# 3 39.8208 35.1527 104.8539 -0.0002 0.0000 0.0000
# 4 0.0000 -0.0004 -0.0002 22.9083 0.0000 0.0000
# 5 0.0000 0.0000 0.0000 0.0000 14.7769 0.0000
# 6 0.0000 0.0000 0.0000 0.0000 0.0000 23.8631
#
#
#
# Elastic Compliance Matrix: (Units=1/GPa)
#
#
# Indices 1 2 3 4 5 6 
#
# 1 0.016839 -0.004655 -0.004834 0.000000 0.000000 0.000000
# 2 -0.004655 0.012369 -0.002379 0.000000 0.000000 0.000000
# 3 -0.004834 -0.002379 0.012171 0.000000 0.000000 0.000000
# 4 0.000000 0.000000 0.000000 0.043652 0.000000 0.000000
# 5 0.000000 0.000000 0.000000 0.000000 0.067673 0.000000
# 6 0.000000 0.000000 0.000000 0.000000 0.000000 0.041906
#
#
# Mechanical properties :
#
#
# Convention : Reuss Voigt Hill
#
# Bulk Modulus (GPa) = 56.68368 57.20228 56.94298
# Shear Modulus (GPa) = 22.29883 23.97705 23.13794
#
# Velocity S-wave (km/s) = 3.33657 3.45984 3.39876
# Velocity P-wave (km/s) = 6.56832 6.67225 6.62049
#
# Compressibility (1/GPa) = 0.01764176
#
# Stress axis : x y z
#
# Youngs Moduli (GPa) = 59.38596 80.84742 82.16571
#
# Poissons Ratio (x) = 0.37636 0.39722
# Poissons Ratio (y) = 0.27646 0.19546
# Poissons Ratio (z) = 0.28709 0.19232
#
# Static dielectric constant tensor:
#      x y z
#    x 3.903830 0.000000 0.000000 
#    y 0.000000 3.710290 0.000000 
#    z 0.000000 0.000000 3.500190 
# 
# 
# High freq. dielectric constant tensor:
#      x y z
#    x 1.787740 0.000000 0.000000 
#    y 0.000000 1.775550 0.000000 
#    z 0.000000 0.000000 1.766380 
# 
# From -- ./inp_files/32683.got.cif
#   From: 2010.03.12/outbox.cif.g09.slc.cpg/sg74_17_cif.got.tgz:32683.got - 2010.04.16 15:46:19.
