data_PCOD8301878
_publ_section_title
;
Structure prediction by ZEFSAII (Michael W. Deem and Ramdas Pophale) SiO2 
 PCOD8301878
Probable space group: P 41
;
_chemical_formula_sum "Si O2"
_cell_formula_units_Z 32
_cell_length_a 8.993378
_cell_length_b 8.993378
_cell_length_c 20.301802
_cell_angle_alpha 90.000000
_cell_angle_beta 90.000000
_cell_angle_gamma 90.000000
_cell_volume 1642.026959
_symmetry_space_group_name_H-M "P 41"
_symmetry_group_IT_number 76
_symmetry_cell_setting 'tetragonal'
loop_
_space_group_symop_operation_xyz
x,y,z
-y,x,1/4+z
-x,-y,1/2+z
y,-x,3/4+z
loop_
_atom_site_type_symbol
_atom_site_label
_atom_site_fract_x
_atom_site_fract_y
_atom_site_fract_z
Si Si1 0.938055 0.586152 0.545710
Si Si2 0.096012 0.891566 0.535670
Si Si3 0.596476 0.548582 0.571951
Si Si4 0.047645 0.050881 0.169841
Si Si5 0.334491 0.428257 0.209322
Si Si6 0.913194 0.383345 0.427238
Si Si7 0.152567 0.445059 0.803470
Si Si8 0.604145 0.010073 0.442413
O O1 0.759386 0.608973 0.549967
O O2 0.979442 0.457332 0.493607
O O3 0.004809 0.545785 0.617320
O O4 0.012324 0.737531 0.521472
O O5 0.270695 0.872853 0.546833
O O6 0.025841 0.975011 0.598648
O O7 0.070998 0.989481 0.470957
O O8 0.533410 0.420166 0.525394
O O9 0.607349 0.478632 0.645740
O O10 0.472419 0.675197 0.568331
O O11 0.222854 0.015653 0.163890
O O12 0.007021 0.216756 0.194758
O O13 0.357607 0.260788 0.185245
O O14 0.162321 0.458432 0.223652
O O15 0.944240 0.489739 0.364399
O O16 0.119677 0.533420 0.735830
#
# Coordination Sequence:
#
# PCOD8301878 Si02
#       8
#     4   4   4   4   4   4   4   4
#     4   9  18  35  57  79 105 138 180 225 269 320
#     4  11  22  35  54  83 116 144 179 226 273 322
#     4   9  17  33  55  76 100 135 176 217 263 317
#     4  10  20  37  59  80 107 146 187 224 271 326
#     4   8  16  31  53  77  98 129 178 222 258 309
#     4   9  18  35  59  80 100 137 187 225 262 319
#     4  11  21  33  52  80 111 141 176 219 268 321
#     4   9  18  33  53  77 105 142 179 218 268 320
#
# _framework density 19.488108
#
# number of rings (size 3 to 8) (size 9 to 14) (size 15 to 20)
#    0.000    2.500    0.000    4.500    0.000    6.000 
#    0.000    6.250    0.000    0.000    0.000    0.000 
#    0.000    0.000    0.000    0.000    0.000    0.000 
#
# Total GULP energy -396709.291163 kJ/mol
# GULP energy per Si atom -12397.165349 kJ/mol
# Density = 1.944375 g / cm^3
# Si number density = 19.488108 Si / 1000 Ang^3
#
#
#
# Elastic Constant Matrix: (Units=GPa)
#
#
# Indices 1 2 3 4 5 6 
#
# 1 43.7753 -8.8367 -5.0875 0.0000 0.0000 -2.4019
# 2 -8.8367 43.7753 -5.0875 0.0000 0.0000 2.4019
# 3 -5.0875 -5.0875 52.7110 0.0000 0.0000 0.0000
# 4 0.0000 0.0000 0.0000 32.8784 0.0000 0.0000
# 5 0.0000 0.0000 0.0000 0.0000 32.8784 0.0000
# 6 -2.4019 2.4019 0.0000 0.0000 0.0000 15.3858
#
#
#
# Elastic Compliance Matrix: (Units=1/GPa)
#
#
# Indices 1 2 3 4 5 6 
#
# 1 0.024366 0.005084 0.002842 0.000000 0.000000 0.003010
# 2 0.005084 0.024366 0.002842 0.000000 0.000000 -0.003010
# 3 0.002842 0.002842 0.019520 0.000000 0.000000 0.000000
# 4 0.000000 0.000000 0.000000 0.030415 0.000000 0.000000
# 5 0.000000 0.000000 0.000000 0.000000 0.030415 0.000000
# 6 0.003010 -0.003010 0.000000 0.000000 0.000000 0.065935
#
#
# Mechanical properties :
#
#
# Convention : Reuss Voigt Hill
#
# Bulk Modulus (GPa) = 11.13729 11.35979 11.24854
# Shear Modulus (GPa) = 24.58104 26.84675 25.71389
#
# Velocity S-wave (km/s) = 3.55538 3.71563 3.63639
# Velocity P-wave (km/s) = 4.75201 4.92439 4.83897
#
# Compressibility (1/GPa) = 0.08978842
#
# Stress axis : x y z
#
# Youngs Moduli (GPa) = 41.04133 41.04133 51.22937
#
# Poissons Ratio (x) = -0.20864 -0.14561
# Poissons Ratio (y) = -0.20864 -0.14561
# Poissons Ratio (z) = -0.11665 -0.11665
#
# Static dielectric constant tensor:
#      x y z
#    x 3.322160 0.000000 0.000000 
#    y 0.000000 3.322160 0.000000 
#    z 0.000000 0.000000 3.823500 
# 
# 
# High freq. dielectric constant tensor:
#      x y z
#    x 1.733480 0.000000 0.000000 
#    y 0.000000 1.733480 0.000000 
#    z 0.000000 0.000000 1.775830 
# 
# From -- ./inp_files/1415.got.cif
#   From: 2010.03.12/outbox.cif.g09.slc.cpg/sg76_cif.got.tgz:1415.got - 2010.04.16 16:34:25.
