data_PCOD8301011
_publ_section_title
;
Structure prediction by ZEFSAII (Michael W. Deem and Ramdas Pophale) SiO2 
 PCOD8301011
Probable space group: I M M A
;
_chemical_formula_sum "Si O2"
_cell_formula_units_Z 56
_cell_length_a 22.475536
_cell_length_b 25.767880
_cell_length_c 5.023826
_cell_angle_alpha 90.000000
_cell_angle_beta 90.000000
_cell_angle_gamma 90.000000
_cell_volume 2909.533327
_symmetry_space_group_name_H-M "I M M A"
_symmetry_group_IT_number 74
_symmetry_cell_setting 'orthorhombic'
loop_
_space_group_symop_operation_xyz
x,y,z
-x,1/2-y,z
x,-y,-z
-x,1/2+y,-z
-x,-y,-z
x,1/2+y,-z
-x,y,z
x,1/2-y,z
1/2+x,1/2+y,1/2+z
1/2-x,-y,1/2+z
1/2+x,1/2-y,1/2-z
1/2-x,y,1/2-z
1/2-x,1/2-y,1/2-z
1/2+x,y,1/2-z
1/2-x,1/2+y,1/2+z
1/2+x,-y,1/2+z
loop_
_atom_site_type_symbol
_atom_site_label
_atom_site_fract_x
_atom_site_fract_y
_atom_site_fract_z
Si Si1 0.864637 0.402911 0.596442
Si Si2 0.250000 0.033355 0.750000
Si Si3 0.931070 0.059033 0.084005
Si Si4 0.709804 0.308810 0.008100
O O1 0.803000 0.431470 0.647284
O O2 0.898750 0.432107 0.362250
O O3 0.849474 0.343645 0.518220
O O4 0.905237 0.402801 0.859171
O O5 0.273493 0.000000 0.500000
O O6 0.000000 0.071812 0.123457
O O7 0.920213 0.000000 0.000000
O O8 0.688207 0.250000 0.061385
O O9 0.750000 0.312647 0.750000
O O10 0.750000 0.329657 0.250000
#
# Coordination Sequence:
#
# PCOD8301011 Si02
#       4
#    16   8  16  16
#     4  12  22  38  61  85 118 153 191 243 290 345
#     4  12  24  34  53  88 125 150 180 234 304 354
#     4  11  24  41  59  82 115 161 206 235 274 340
#     4  10  21  38  59  86 118 151 189 231 288 358
#
# _framework density 19.247071999999999
#
# number of rings (size 3 to 8) (size 9 to 14) (size 15 to 20)
#    0.000    0.857    1.429    7.714    2.000    2.286 
#    0.000    0.000    0.000    5.143    0.000    0.000 
#    0.000    0.000    0.000    0.000    0.000    0.000 
#
# Total GULP energy -347389.238150 kJ/mol
# GULP energy per Si atom -12406.758505 kJ/mol
# Density = 1.920326 g / cm^3
# Si number density = 19.247072 Si / 1000 Ang^3
#
#
#
# Elastic Constant Matrix: (Units=GPa)
#
#
# Indices 1 2 3 4 5 6 
#
# 1 132.8147 49.1458 50.5391 0.0000 0.0000 0.0000
# 2 49.1458 79.1022 11.9596 0.0000 0.0000 0.0000
# 3 50.5391 11.9596 122.2337 0.0000 0.0000 0.0000
# 4 0.0000 0.0000 0.0000 21.2101 0.0000 0.0000
# 5 0.0000 0.0000 0.0000 0.0000 28.2209 0.0000
# 6 0.0000 0.0000 0.0000 0.0000 0.0000 105.0955
#
#
#
# Elastic Compliance Matrix: (Units=1/GPa)
#
#
# Indices 1 2 3 4 5 6 
#
# 1 0.011514 -0.006531 -0.004122 0.000000 0.000000 0.000000
# 2 -0.006531 0.016536 0.001082 0.000000 0.000000 0.000000
# 3 -0.004122 0.001082 0.009779 0.000000 0.000000 0.000000
# 4 0.000000 0.000000 0.000000 0.047147 0.000000 0.000000
# 5 0.000000 0.000000 0.000000 0.000000 0.035435 0.000000
# 6 0.000000 0.000000 0.000000 0.000000 0.000000 0.009515
#
#
# Mechanical properties :
#
#
# Convention : Reuss Voigt Hill
#
# Bulk Modulus (GPa) = 53.50699 61.93773 57.72236
# Shear Modulus (GPa) = 32.19651 45.73903 38.96777
#
# Velocity S-wave (km/s) = 4.09443 4.88014 4.50445
# Velocity P-wave (km/s) = 7.08610 8.00028 7.55703
#
# Compressibility (1/GPa) = 0.01868915
#
# Stress axis : x y z
#
# Youngs Moduli (GPa) = 86.84909 60.47544 102.25630
#
# Poissons Ratio (x) = 0.39494 0.42147
# Poissons Ratio (y) = 0.56717 -0.11067
# Poissons Ratio (z) = 0.35797 -0.06545
#
# Static dielectric constant tensor:
#      x y z
#    x 3.545710 0.000000 0.000000 
#    y 0.000000 3.715930 0.000000 
#    z 0.000000 0.000000 3.791830 
# 
# 
# High freq. dielectric constant tensor:
#      x y z
#    x 1.738450 0.000000 0.000000 
#    y 0.000000 1.738730 0.000000 
#    z 0.000000 0.000000 1.776510 
# 
# From -- ./inp_files/2858.got.cif
#   From: 2010.03.12/outbox.cif.g09.slc.cpg/sg74_2_cif.got.tgz:2858.got - 2010.04.16 15:46:19.
