data_PCOD8301566
_publ_section_title
;
Structure prediction by ZEFSAII (Michael W. Deem and Ramdas Pophale) SiO2 
 PCOD8301566
Probable space group: I M M A
;
_chemical_formula_sum "Si O2"
_cell_formula_units_Z 104
_cell_length_a 9.305327
_cell_length_b 26.601084
_cell_length_c 22.279029
_cell_angle_alpha 90.000000
_cell_angle_beta 90.000000
_cell_angle_gamma 90.000000
_cell_volume 5514.767820
_symmetry_space_group_name_H-M "I M M A"
_symmetry_group_IT_number 74
_symmetry_cell_setting 'orthorhombic'
loop_
_space_group_symop_operation_xyz
x,y,z
-x,1/2-y,z
x,-y,-z
-x,1/2+y,-z
-x,-y,-z
x,1/2+y,-z
-x,y,z
x,1/2-y,z
1/2+x,1/2+y,1/2+z
1/2-x,-y,1/2+z
1/2+x,1/2-y,1/2-z
1/2-x,y,1/2-z
1/2-x,1/2-y,1/2-z
1/2+x,y,1/2-z
1/2-x,1/2+y,1/2+z
1/2+x,-y,1/2+z
loop_
_atom_site_type_symbol
_atom_site_label
_atom_site_fract_x
_atom_site_fract_y
_atom_site_fract_z
Si Si1 0.170764 0.332124 0.894881
Si Si2 0.154299 0.305448 0.495121
Si Si3 0.169203 0.061887 0.938866
Si Si4 0.670980 0.548690 0.574544
Si Si5 0.719717 0.355960 0.121276
Si Si6 0.823945 0.250000 0.685279
Si Si7 0.500000 0.691546 0.655245
Si Si8 0.000000 0.810605 0.708919
O O1 0.215459 0.391597 0.895489
O O2 0.265651 0.300447 0.847611
O O3 0.000000 0.324053 0.883165
O O4 0.210670 0.313884 0.961402
O O5 0.171110 0.250000 0.467337
O O6 0.139681 0.343749 0.440273
O O7 0.000000 0.309762 0.530254
O O8 0.000000 0.059895 0.941420
O O9 0.224415 0.008450 0.912891
O O10 0.220440 0.067122 0.007956
O O11 0.500000 0.553328 0.582353
O O12 0.751491 0.583955 0.623182
O O13 0.867900 0.326880 0.116749
O O14 0.638737 0.336015 0.179587
O O15 0.750000 0.250000 0.750000
O O16 0.000000 0.250000 0.688479
O O17 0.500000 0.750000 0.660651
O O18 0.500000 0.670581 0.722991
O O19 0.000000 0.750000 0.701083
#
# Coordination Sequence:
#
# PCOD8301566 Si02
#       8
#    16  16  16  16  16   8   8   8
#     4  11  21  36  61  94 121 155 199 243 284 353
#     4  11  22  34  50  79 125 159 184 233 309 355
#     4   8  16  30  53  84 123 152 184 237 297 355
#     4   9  16  31  53  84 115 151 193 240 298 353
#     4  12  21  35  57  80 111 148 200 251 294 355
#     4  12  26  46  68  92 128 168 201 238 293 360
#     4  11  24  38  56  79 104 146 204 252 293 347
#     4  11  24  42  54  71 110 160 194 242 309 365
#
# _framework density 18.858454999999999
#
# number of rings (size 3 to 8) (size 9 to 14) (size 15 to 20)
#    0.000    1.538    3.846    3.923    1.077    1.231 
#    0.000    0.000    3.385    3.692    0.000    0.000 
#    0.000    0.000    0.000    0.000    0.000    0.000 
#
# Total GULP energy -644213.167609 kJ/mol
# GULP energy per Si atom -12388.714762 kJ/mol
# Density = 1.881553 g / cm^3
# Si number density = 18.858455 Si / 1000 Ang^3
#
#
#
# Elastic Constant Matrix: (Units=GPa)
#
#
# Indices 1 2 3 4 5 6 
#
# 1 90.1019 37.9530 18.8348 0.0000 0.0000 0.0000
# 2 37.9530 142.4416 42.3297 0.0000 0.0000 0.0000
# 3 18.8348 42.3297 58.8602 -0.0002 0.0001 0.0000
# 4 0.0000 0.0000 -0.0002 12.8117 0.0000 0.0000
# 5 0.0000 0.0000 0.0001 0.0000 25.0657 0.0000
# 6 0.0000 0.0000 0.0000 0.0000 0.0000 25.4471
#
#
#
# Elastic Compliance Matrix: (Units=1/GPa)
#
#
# Indices 1 2 3 4 5 6 
#
# 1 0.012697 -0.002767 -0.002073 0.000000 0.000000 0.000000
# 2 -0.002767 0.009532 -0.005969 0.000000 0.000000 0.000000
# 3 -0.002073 -0.005969 0.021946 0.000000 0.000000 0.000000
# 4 0.000000 0.000000 0.000000 0.078053 0.000000 0.000000
# 5 0.000000 0.000000 0.000000 0.000000 0.039895 0.000000
# 6 0.000000 0.000000 0.000000 0.000000 0.000000 0.039297
#
#
# Mechanical properties :
#
#
# Convention : Reuss Voigt Hill
#
# Bulk Modulus (GPa) = 44.33463 54.40431 49.36947
# Shear Modulus (GPa) = 21.68651 25.48400 23.58526
#
# Velocity S-wave (km/s) = 3.39479 3.68003 3.54028
# Velocity P-wave (km/s) = 6.23910 6.85334 6.55342
#
# Compressibility (1/GPa) = 0.02255573
#
# Stress axis : x y z
#
# Youngs Moduli (GPa) = 78.75582 104.91400 45.56718
#
# Poissons Ratio (x) = 0.29031 0.09447
# Poissons Ratio (y) = 0.21793 0.27200
# Poissons Ratio (z) = 0.16327 0.62626
#
# Static dielectric constant tensor:
#      x y z
#    x 3.482230 0.000000 0.000000 
#    y 0.000000 4.129460 0.000000 
#    z 0.000000 0.000000 3.305400 
# 
# 
# High freq. dielectric constant tensor:
#      x y z
#    x 1.727650 0.000000 0.000000 
#    y 0.000000 1.742360 0.000000 
#    z 0.000000 0.000000 1.695640 
# 
# From -- ./inp_files/57664.got.cif
#   From: 2010.03.12/outbox.cif.g09.slc.cpg/sg74_29_cif.got.tgz:57664.got - 2010.04.16 15:46:19.
