data_PCOD8301933
_publ_section_title
;
Structure prediction by ZEFSAII (Michael W. Deem and Ramdas Pophale) SiO2 
 PCOD8301933
Probable space group: P 41
;
_chemical_formula_sum "Si O2"
_cell_formula_units_Z 24
_cell_length_a 11.472517
_cell_length_b 11.472517
_cell_length_c 8.714253
_cell_angle_alpha 90.000000
_cell_angle_beta 90.000000
_cell_angle_gamma 90.000000
_cell_volume 1146.958184
_symmetry_space_group_name_H-M "P 41"
_symmetry_group_IT_number 76
_symmetry_cell_setting 'tetragonal'
loop_
_space_group_symop_operation_xyz
x,y,z
-y,x,1/4+z
-x,-y,1/2+z
y,-x,3/4+z
loop_
_atom_site_type_symbol
_atom_site_label
_atom_site_fract_x
_atom_site_fract_y
_atom_site_fract_z
Si Si1 0.807533 0.626505 0.077640
Si Si2 0.941206 0.679409 0.375780
Si Si3 0.349851 0.004095 0.118322
Si Si4 0.108231 0.490407 0.119407
Si Si5 0.109748 0.075562 0.997525
Si Si6 0.206651 0.597433 0.387806
O O1 0.899925 0.627484 0.215455
O O2 0.694068 0.693496 0.137391
O O3 0.775037 0.493272 0.028597
O O4 0.874205 0.686439 0.931688
O O5 0.865227 0.620972 0.512816
O O6 0.917329 0.816782 0.385825
O O7 0.078674 0.655774 0.400798
O O8 0.401622 0.071496 0.263758
O O9 0.244833 0.074389 0.043401
O O10 0.451938 0.991982 0.992150
O O11 0.217929 0.530993 0.222873
O O12 0.040012 0.077849 0.155441
#
# Coordination Sequence:
#
# PCOD8301933 Si02
#       6
#     4   4   4   4   4   4
#     4  11  25  43  73  94 141 178 234 285 353 405
#     4  12  22  44  67  99 136 185 226 280 343 433
#     4  11  23  42  64  97 131 181 221 283 332 419
#     4  11  21  41  69  90 128 172 238 270 329 410
#     4  12  29  40  62 105 151 184 226 278 361 429
#     4  11  24  44  69 101 127 186 229 288 348 410
#
# _framework density 20.924914999999999
#
# number of rings (size 3 to 8) (size 9 to 14) (size 15 to 20)
#    0.000    0.667    6.667    1.000    7.000    0.000 
#    0.000    1.667    0.000    0.000    0.000    0.000 
#    0.000    0.000    0.000    0.000    0.000    0.000 
#
# Total GULP energy -297424.544376 kJ/mol
# GULP energy per Si atom -12392.689349 kJ/mol
# Density = 2.087729 g / cm^3
# Si number density = 20.924915 Si / 1000 Ang^3
#
#
#
# Elastic Constant Matrix: (Units=GPa)
#
#
# Indices 1 2 3 4 5 6 
#
# 1 92.0015 73.2015 34.5005 0.0000 0.0000 -3.0932
# 2 73.2015 92.0015 34.5005 0.0000 0.0000 3.0932
# 3 34.5005 34.5005 108.7745 0.0000 0.0000 0.0000
# 4 0.0000 0.0000 0.0000 33.5353 0.0000 0.0000
# 5 0.0000 0.0000 0.0000 0.0000 33.5353 0.0000
# 6 -3.0932 3.0932 0.0000 0.0000 0.0000 33.4526
#
#
#
# Elastic Compliance Matrix: (Units=1/GPa)
#
#
# Indices 1 2 3 4 5 6 
#
# 1 0.030919 -0.023942 -0.002213 0.000000 0.000000 0.005073
# 2 -0.023942 0.030919 -0.002213 0.000000 0.000000 -0.005073
# 3 -0.002213 -0.002213 0.010597 0.000000 0.000000 0.000000
# 4 0.000000 0.000000 0.000000 0.029819 0.000000 0.000000
# 5 0.000000 0.000000 0.000000 0.000000 0.029819 0.000000
# 6 0.005073 -0.005073 0.000000 0.000000 0.000000 0.030831
#
#
# Mechanical properties :
#
#
# Convention : Reuss Voigt Hill
#
# Bulk Modulus (GPa) = 63.69478 64.13136 63.91307
# Shear Modulus (GPa) = 22.23463 30.14298 26.18880
#
# Velocity S-wave (km/s) = 3.26328 3.79955 3.54158
# Velocity P-wave (km/s) = 6.68614 7.06850 6.87997
#
# Compressibility (1/GPa) = 0.01569987
#
# Stress axis : x y z
#
# Youngs Moduli (GPa) = 32.34235 32.34235 94.36459
#
# Poissons Ratio (x) = 0.77433 0.20884
# Poissons Ratio (y) = 0.77433 0.20884
# Poissons Ratio (z) = 0.07158 0.07158
#
# Static dielectric constant tensor:
#      x y z
#    x 3.673250 0.000000 0.000000 
#    y 0.000000 3.673250 0.000000 
#    z 0.000000 0.000000 4.185830 
# 
# 
# High freq. dielectric constant tensor:
#      x y z
#    x 1.801810 0.000000 0.000000 
#    y 0.000000 1.801810 0.000000 
#    z 0.000000 0.000000 1.844620 
# 
# From -- ./inp_files/542.got.cif
#   From: 2010.03.12/outbox.cif.g09.slc.cpg/sg76_cif.got.tgz:542.got - 2010.04.16 16:34:25.
