data_PCOD8301317
_publ_section_title
;
Structure prediction by ZEFSAII (Michael W. Deem and Ramdas Pophale) SiO2 
 PCOD8301317
Probable space group: I M M A
;
_chemical_formula_sum "Si O2"
_cell_formula_units_Z 96
_cell_length_a 8.830587
_cell_length_b 23.545046
_cell_length_c 24.057867
_cell_angle_alpha 90.000000
_cell_angle_beta 90.000000
_cell_angle_gamma 90.000000
_cell_volume 5002.029359
_symmetry_space_group_name_H-M "I M M A"
_symmetry_group_IT_number 74
_symmetry_cell_setting 'orthorhombic'
loop_
_space_group_symop_operation_xyz
x,y,z
-x,1/2-y,z
x,-y,-z
-x,1/2+y,-z
-x,-y,-z
x,1/2+y,-z
-x,y,z
x,1/2-y,z
1/2+x,1/2+y,1/2+z
1/2-x,-y,1/2+z
1/2+x,1/2-y,1/2-z
1/2-x,y,1/2-z
1/2-x,1/2-y,1/2-z
1/2+x,y,1/2-z
1/2-x,1/2+y,1/2+z
1/2+x,-y,1/2+z
loop_
_atom_site_type_symbol
_atom_site_label
_atom_site_fract_x
_atom_site_fract_y
_atom_site_fract_z
Si Si1 0.325757 0.814577 0.385730
Si Si2 0.179171 0.113149 0.091929
Si Si3 0.672706 0.411972 0.692416
Si Si4 0.321901 0.184347 0.191225
Si Si5 0.678881 0.517745 0.411557
Si Si6 0.821842 0.886916 0.478501
O O1 0.500000 0.821243 0.405574
O O2 0.279182 0.750000 0.375392
O O3 0.302579 0.847032 0.327253
O O4 0.216858 0.840838 0.431807
O O5 0.250975 0.145457 0.143721
O O6 0.000000 0.121581 0.093820
O O7 0.227607 0.047278 0.092694
O O8 0.246677 0.137428 0.034750
O O9 0.500000 0.427066 0.701899
O O10 0.750000 0.424658 0.750000
O O11 0.738442 0.453297 0.645014
O O12 0.500000 0.173476 0.194323
O O13 0.284484 0.250000 0.177783
O O14 0.250000 0.166446 0.250000
O O15 0.500000 0.525530 0.419622
O O16 0.756194 0.550628 0.463219
O O17 0.000000 0.891585 0.486528
#
# Coordination Sequence:
#
# PCOD8301317 Si02
#       6
#    16  16  16  16  16  16
#     4   9  19  37  57  75 102 144 188 227 269 320
#     4  11  22  37  60  85 109 144 186 224 267 324
#     4   9  18  33  52  76 106 139 177 220 266 315
#     4  10  22  41  62  84 113 146 181 225 274 324
#     4   9  20  38  56  77 109 147 184 223 269 322
#     4  11  22  35  54  82 114 144 177 225 279 327
#
# _framework density 19.192211
#
# number of rings (size 3 to 8) (size 9 to 14) (size 15 to 20)
#    0.000    2.167    0.000    4.000    0.000    9.000 
#    0.000    1.667    0.000    0.000    0.000    0.000 
#    0.000    0.000    0.000    0.000    0.000    0.000 
#
# Total GULP energy -595240.893627 kJ/mol
# GULP energy per Si atom -12400.851951 kJ/mol
# Density = 1.914853 g / cm^3
# Si number density = 19.192211 Si / 1000 Ang^3
#
#
#
# Elastic Constant Matrix: (Units=GPa)
#
#
# Indices 1 2 3 4 5 6 
#
# 1 81.1515 20.5561 44.5166 0.0000 0.0000 0.0000
# 2 20.5561 54.0277 19.6893 0.0000 0.0000 0.0000
# 3 44.5166 19.6893 123.4679 0.0000 0.0000 0.0000
# 4 0.0000 0.0000 0.0000 24.4681 0.0000 0.0000
# 5 0.0000 0.0000 0.0000 0.0000 38.2210 0.0000
# 6 0.0000 0.0000 0.0000 0.0000 0.0000 26.2812
#
#
#
# Elastic Compliance Matrix: (Units=1/GPa)
#
#
# Indices 1 2 3 4 5 6 
#
# 1 0.016249 -0.004297 -0.005173 0.000000 0.000000 0.000000
# 2 -0.004297 0.020787 -0.001766 0.000000 0.000000 0.000000
# 3 -0.005173 -0.001766 0.010246 0.000000 0.000000 0.000000
# 4 0.000000 0.000000 0.000000 0.040869 0.000000 0.000000
# 5 0.000000 0.000000 0.000000 0.000000 0.026164 0.000000
# 6 0.000000 0.000000 0.000000 0.000000 0.000000 0.038050
#
#
# Mechanical properties :
#
#
# Convention : Reuss Voigt Hill
#
# Bulk Modulus (GPa) = 40.30557 47.57455 43.94006
# Shear Modulus (GPa) = 27.30634 29.38641 28.34638
#
# Velocity S-wave (km/s) = 3.77607 3.91725 3.84731
# Velocity P-wave (km/s) = 6.32916 6.73068 6.53301
#
# Compressibility (1/GPa) = 0.02481047
#
# Stress axis : x y z
#
# Youngs Moduli (GPa) = 61.54234 48.10614 97.59804
#
# Poissons Ratio (x) = 0.20671 0.50491
# Poissons Ratio (y) = 0.26445 0.17232
# Poissons Ratio (z) = 0.31838 0.08494
#
# Static dielectric constant tensor:
#      x y z
#    x 3.420840 0.000000 0.000000 
#    y 0.000000 3.588380 0.000000 
#    z 0.000000 0.000000 3.612300 
# 
# 
# High freq. dielectric constant tensor:
#      x y z
#    x 1.743820 0.000000 0.000000 
#    y 0.000000 1.744820 0.000000 
#    z 0.000000 0.000000 1.752200 
# 
# From -- ./inp_files/57271.got.cif
#   From: 2010.03.12/outbox.cif.g09.slc.cpg/sg74_29_cif.got.tgz:57271.got - 2010.04.16 15:46:19.
