data_PCOD8301436
_publ_section_title
;
Structure prediction by ZEFSAII (Michael W. Deem and Ramdas Pophale) SiO2 
 PCOD8301436
Probable space group: I M M A
;
_chemical_formula_sum "Si O2"
_cell_formula_units_Z 76
_cell_length_a 22.211974
_cell_length_b 11.853466
_cell_length_c 14.902847
_cell_angle_alpha 90.000000
_cell_angle_beta 90.000000
_cell_angle_gamma 90.000000
_cell_volume 3923.753875
_symmetry_space_group_name_H-M "I M M A"
_symmetry_group_IT_number 74
_symmetry_cell_setting 'orthorhombic'
loop_
_space_group_symop_operation_xyz
x,y,z
-x,1/2-y,z
x,-y,-z
-x,1/2+y,-z
-x,-y,-z
x,1/2+y,-z
-x,y,z
x,1/2-y,z
1/2+x,1/2+y,1/2+z
1/2-x,-y,1/2+z
1/2+x,1/2-y,1/2-z
1/2-x,y,1/2-z
1/2-x,1/2-y,1/2-z
1/2+x,y,1/2-z
1/2-x,1/2+y,1/2+z
1/2+x,-y,1/2+z
loop_
_atom_site_type_symbol
_atom_site_label
_atom_site_fract_x
_atom_site_fract_y
_atom_site_fract_z
Si Si1 0.680291 0.476689 0.594488
Si Si2 0.250922 0.250000 0.641500
Si Si3 0.500000 0.374127 0.172528
Si Si4 0.500000 0.750000 0.001332
Si Si5 0.112372 0.250000 0.636003
Si Si6 0.219650 0.874699 0.654124
Si Si7 0.614233 0.986658 0.222999
O O1 0.646079 0.500000 0.500000
O O2 0.713061 0.357462 0.606467
O O3 0.731007 0.574071 0.588252
O O4 0.632638 0.494957 0.673258
O O5 0.250000 0.250000 0.750000
O O6 0.182223 0.250000 0.602688
O O7 0.500000 0.250000 0.216927
O O8 0.443764 0.439867 0.209306
O O9 0.500000 0.361328 0.063243
O O10 0.562202 0.750000 0.057508
O O11 0.101032 0.358198 0.697773
O O12 0.198992 0.750000 0.621094
O O13 0.250000 0.865299 0.750000
O O14 0.164434 0.961414 0.657413
#
# Coordination Sequence:
#
# PCOD8301436 Si02
#       7
#    16   8   8   4   8  16  16
#     4  11  23  37  61  98 130 166 225 269 317 397
#     4  12  20  44  63  93 137 181 211 265 340 402
#     4  10  25  47  65  88 130 162 216 271 342 380
#     4  10  28  46  62 108 120 164 228 282 302 408
#     4  12  22  40  70  88 135 171 216 263 329 392
#     4   9  18  34  57  86 123 166 212 256 320 385
#     4  11  21  41  66  87 126 180 207 266 336 398
#
# _framework density 19.369206999999999
#
# number of rings (size 3 to 8) (size 9 to 14) (size 15 to 20)
#    0.316    1.053    4.211    1.895    1.474    4.211 
#    0.000    0.526    0.000    0.000    0.000    0.000 
#    0.000    0.000    0.000    0.000    0.000    0.000 
#
# Total GULP energy -470975.450643 kJ/mol
# GULP energy per Si atom -12394.090806 kJ/mol
# Density = 1.932512 g / cm^3
# Si number density = 19.369207 Si / 1000 Ang^3
#
#
#
# Elastic Constant Matrix: (Units=GPa)
#
#
# Indices 1 2 3 4 5 6 
#
# 1 128.6353 50.4258 60.9887 0.0000 0.0000 0.0000
# 2 50.4258 161.5252 53.3776 0.0000 0.0000 0.0000
# 3 60.9887 53.3776 121.9198 0.0000 0.0000 0.0000
# 4 0.0000 0.0000 0.0000 19.7419 0.0000 0.0000
# 5 0.0000 0.0000 0.0000 0.0000 29.0715 0.0000
# 6 0.0000 0.0000 0.0000 0.0000 0.0000 37.4573
#
#
#
# Elastic Compliance Matrix: (Units=1/GPa)
#
#
# Indices 1 2 3 4 5 6 
#
# 1 0.010632 -0.001826 -0.004519 0.000000 0.000000 0.000000
# 2 -0.001826 0.007552 -0.002393 0.000000 0.000000 0.000000
# 3 -0.004519 -0.002393 0.011510 0.000000 0.000000 0.000000
# 4 0.000000 0.000000 0.000000 0.050654 0.000000 0.000000
# 5 0.000000 0.000000 0.000000 0.000000 0.034398 0.000000
# 6 0.000000 0.000000 0.000000 0.000000 0.000000 0.026697
#
#
# Mechanical properties :
#
#
# Convention : Reuss Voigt Hill
#
# Bulk Modulus (GPa) = 81.84304 82.40718 82.12511
# Shear Modulus (GPa) = 30.67631 33.74001 32.20816
#
# Velocity S-wave (km/s) = 3.98397 4.17818 4.08223
# Velocity P-wave (km/s) = 7.96923 8.11875 8.04434
#
# Compressibility (1/GPa) = 0.01221851
#
# Stress axis : x y z
#
# Youngs Moduli (GPa) = 94.05255 132.42006 86.87736
#
# Poissons Ratio (x) = 0.24177 0.39263
# Poissons Ratio (y) = 0.17172 0.20789
# Poissons Ratio (z) = 0.42506 0.31687
#
# Static dielectric constant tensor:
#      x y z
#    x 2.571400 0.000000 0.000000 
#    y 0.000000 3.951610 0.000000 
#    z 0.000000 0.000000 3.482300 
# 
# 
# High freq. dielectric constant tensor:
#      x y z
#    x 1.738090 0.000000 0.000000 
#    y 0.000000 1.777080 0.000000 
#    z 0.000000 0.000000 1.742050 
# 
# From -- ./inp_files/36220.got.cif
#   From: 2010.03.12/outbox.cif.g09.slc.cpg/sg74_19_cif.got.tgz:36220.got - 2010.04.16 15:46:19.
