data_PCOD8301419
_publ_section_title
;
Structure prediction by ZEFSAII (Michael W. Deem and Ramdas Pophale) SiO2 
 PCOD8301419
Probable space group: I M M A
;
_chemical_formula_sum "Si O2"
_cell_formula_units_Z 96
_cell_length_a 18.942441
_cell_length_b 17.469256
_cell_length_c 14.848263
_cell_angle_alpha 90.000000
_cell_angle_beta 90.000000
_cell_angle_gamma 90.000000
_cell_volume 4913.443922
_symmetry_space_group_name_H-M "I M M A"
_symmetry_group_IT_number 74
_symmetry_cell_setting 'orthorhombic'
loop_
_space_group_symop_operation_xyz
x,y,z
-x,1/2-y,z
x,-y,-z
-x,1/2+y,-z
-x,-y,-z
x,1/2+y,-z
-x,y,z
x,1/2-y,z
1/2+x,1/2+y,1/2+z
1/2-x,-y,1/2+z
1/2+x,1/2-y,1/2-z
1/2-x,y,1/2-z
1/2-x,1/2-y,1/2-z
1/2+x,y,1/2-z
1/2-x,1/2+y,1/2+z
1/2+x,-y,1/2+z
loop_
_atom_site_type_symbol
_atom_site_label
_atom_site_fract_x
_atom_site_fract_y
_atom_site_fract_z
Si Si1 0.919264 0.159988 0.131171
Si Si2 0.419084 0.337608 0.883258
Si Si3 0.824148 0.339598 0.965270
Si Si4 0.670881 0.601796 0.271259
Si Si5 0.328907 0.925183 0.774287
Si Si6 0.181228 0.913789 0.519845
O O1 0.912310 0.250000 0.144563
O O2 0.885817 0.121382 0.218251
O O3 0.000000 0.133659 0.122048
O O4 0.878714 0.133467 0.041516
O O5 0.500000 0.362399 0.873364
O O6 0.411758 0.250000 0.914636
O O7 0.382512 0.347129 0.786374
O O8 0.384582 0.392579 0.957342
O O9 0.830089 0.250000 0.944242
O O10 0.844802 0.386756 0.876411
O O11 0.745393 0.357359 0.998147
O O12 0.750000 0.629692 0.250000
O O13 0.660462 0.514122 0.245096
O O14 0.250000 0.898515 0.750000
O O15 0.343505 0.905592 0.877825
O O16 0.206717 0.000000 0.500000
#
# Coordination Sequence:
#
# PCOD8301419 Si02
#       6
#    16  16  16  16  16  16
#     4  10  24  43  61  90 129 164 206 261 311 364
#     4  11  25  42  61  93 131 162 205 261 312 370
#     4  11  23  39  68  95 122 165 210 255 309 374
#     4  11  22  40  66  95 124 162 205 257 311 371
#     4  11  22  40  65  94 124 162 208 259 311 365
#     4  12  22  41  66  91 125 163 207 260 306 365
#
# _framework density 19.538231
#
# number of rings (size 3 to 8) (size 9 to 14) (size 15 to 20)
#    0.000    1.000    5.000    2.000    0.000    4.667 
#    0.000    4.167    0.000    0.000    0.000    0.000 
#    0.000    0.000    0.000    0.000    0.000    0.000 
#
# Total GULP energy -595539.428819 kJ/mol
# GULP energy per Si atom -12407.071434 kJ/mol
# Density = 1.949376 g / cm^3
# Si number density = 19.538231 Si / 1000 Ang^3
#
#
#
# Elastic Constant Matrix: (Units=GPa)
#
#
# Indices 1 2 3 4 5 6 
#
# 1 137.0935 29.6157 59.5326 0.0000 0.0000 0.0000
# 2 29.6157 39.1518 32.9325 0.0000 0.0000 0.0000
# 3 59.5326 32.9325 177.6115 0.0000 0.0000 0.0000
# 4 0.0000 0.0000 0.0000 33.6891 0.0000 0.0000
# 5 0.0000 0.0000 0.0000 0.0000 33.6335 0.0000
# 6 0.0000 0.0000 0.0000 0.0000 0.0000 18.8455
#
#
#
# Elastic Compliance Matrix: (Units=1/GPa)
#
#
# Indices 1 2 3 4 5 6 
#
# 1 0.009372 -0.005269 -0.002165 0.000000 0.000000 0.000000
# 2 -0.005269 0.033223 -0.004394 0.000000 0.000000 0.000000
# 3 -0.002165 -0.004394 0.007171 0.000000 0.000000 0.000000
# 4 0.000000 0.000000 0.000000 0.029683 0.000000 0.000000
# 5 0.000000 0.000000 0.000000 0.000000 0.029732 0.000000
# 6 0.000000 0.000000 0.000000 0.000000 0.000000 0.053063
#
#
# Mechanical properties :
#
#
# Convention : Reuss Voigt Hill
#
# Bulk Modulus (GPa) = 38.29795 66.44648 52.37221
# Shear Modulus (GPa) = 25.69323 32.68535 29.18929
#
# Velocity S-wave (km/s) = 3.63026 4.09454 3.86937
# Velocity P-wave (km/s) = 6.10048 7.51238 6.84294
#
# Compressibility (1/GPa) = 0.02611106
#
# Stress axis : x y z
#
# Youngs Moduli (GPa) = 106.69555 30.09936 139.45939
#
# Poissons Ratio (x) = 0.15859 0.30187
# Poissons Ratio (y) = 0.56217 0.61281
# Poissons Ratio (z) = 0.23095 0.13226
#
# Static dielectric constant tensor:
#      x y z
#    x 3.600690 0.000000 0.000000 
#    y 0.000000 3.533270 0.000000 
#    z 0.000000 0.000000 3.710780 
# 
# 
# High freq. dielectric constant tensor:
#      x y z
#    x 1.757650 0.000000 0.000000 
#    y 0.000000 1.763230 0.000000 
#    z 0.000000 0.000000 1.776710 
# 
# From -- ./inp_files/32366.got.cif
#   From: 2010.03.12/outbox.cif.g09.slc.cpg/sg74_17_cif.got.tgz:32366.got - 2010.04.16 15:46:19.
