data_PCOD8301314
_publ_section_title
;
Structure prediction by ZEFSAII (Michael W. Deem and Ramdas Pophale) SiO2 
 PCOD8301314
Probable space group: I M M A
;
_chemical_formula_sum "Si O2"
_cell_formula_units_Z 92
_cell_length_a 25.551257
_cell_length_b 18.953559
_cell_length_c 10.418951
_cell_angle_alpha 90.000000
_cell_angle_beta 90.000000
_cell_angle_gamma 90.000000
_cell_volume 5045.765201
_symmetry_space_group_name_H-M "I M M A"
_symmetry_group_IT_number 74
_symmetry_cell_setting 'orthorhombic'
loop_
_space_group_symop_operation_xyz
x,y,z
-x,1/2-y,z
x,-y,-z
-x,1/2+y,-z
-x,-y,-z
x,1/2+y,-z
-x,y,z
x,1/2-y,z
1/2+x,1/2+y,1/2+z
1/2-x,-y,1/2+z
1/2+x,1/2-y,1/2-z
1/2-x,y,1/2-z
1/2-x,1/2-y,1/2-z
1/2+x,y,1/2-z
1/2-x,1/2+y,1/2+z
1/2+x,-y,1/2+z
loop_
_atom_site_type_symbol
_atom_site_label
_atom_site_fract_x
_atom_site_fract_y
_atom_site_fract_z
Si Si1 0.107698 0.329434 0.390740
Si Si2 0.441923 0.250000 0.672935
Si Si3 0.402194 0.874633 0.173855
Si Si4 0.710272 0.924390 0.146014
Si Si5 0.000000 0.523918 0.352734
Si Si6 0.000000 0.627697 0.730858
Si Si7 0.000000 0.750000 0.930651
Si Si8 0.210605 0.408903 0.359594
O O1 0.120207 0.250000 0.345735
O O2 0.103897 0.331513 0.543251
O O3 0.152133 0.380466 0.330723
O O4 0.051244 0.353219 0.346730
O O5 0.500000 0.250000 0.738790
O O6 0.411154 0.180076 0.711849
O O7 0.447788 0.250000 0.518544
O O8 0.347801 0.913071 0.199185
O O9 0.448158 0.931650 0.172961
O O10 0.750000 0.891910 0.250000
O O11 0.715027 0.007873 0.140400
O O12 0.723242 0.887279 0.008159
O O13 0.000000 0.500000 0.500000
O O14 0.000000 0.457416 0.253403
O O15 0.000000 0.675515 0.857443
O O16 0.250000 0.377677 0.250000
#
# Coordination Sequence:
#
# PCOD8301314 Si02
#       8
#    16   8  16  16   8   8   4  16
#     4  11  20  32  58  85 113 144 184 238 289 345
#     4  10  22  41  57  74 114 163 196 225 283 344
#     4  11  20  36  60  88 111 146 197 244 285 344
#     4   9  19  36  57  81 110 147 194 241 292 342
#     4  12  21  30  60  97 117 139 186 246 301 346
#     4  12  22  36  54  86 122 146 179 229 295 352
#     4  10  24  42  54  72 122 170 186 216 288 360
#     4   9  19  36  56  79 113 148 186 239 294 346
#
# _framework density 18.233111000000001
#
# number of rings (size 3 to 8) (size 9 to 14) (size 15 to 20)
#    0.261    1.391    4.348    1.043    2.435    0.348 
#    3.130    2.174    3.826    0.000    0.000    0.000 
#    0.000    0.000    0.000    0.000    0.000    0.000 
#
# Total GULP energy -570055.059227 kJ/mol
# GULP energy per Si atom -12392.501288 kJ/mol
# Density = 1.819161 g / cm^3
# Si number density = 18.233111 Si / 1000 Ang^3
#
#
#
# Elastic Constant Matrix: (Units=GPa)
#
#
# Indices 1 2 3 4 5 6 
#
# 1 140.1938 23.0440 65.8705 0.0000 0.0000 0.0000
# 2 23.0440 72.4554 34.6567 0.0000 0.0000 0.0000
# 3 65.8705 34.6567 63.7406 0.0000 0.0000 0.0000
# 4 0.0000 0.0000 0.0000 20.0521 0.0000 0.0000
# 5 0.0000 0.0000 0.0000 0.0000 54.5516 0.0000
# 6 0.0000 0.0000 0.0000 0.0000 0.0000 23.5206
#
#
#
# Elastic Compliance Matrix: (Units=1/GPa)
#
#
# Indices 1 2 3 4 5 6 
#
# 1 0.014476 0.003448 -0.016835 0.000000 0.000000 0.000000
# 2 0.003448 0.019474 -0.014152 0.000000 0.000000 0.000000
# 3 -0.016835 -0.014152 0.040780 0.000000 0.000000 0.000000
# 4 0.000000 0.000000 0.000000 0.049870 0.000000 0.000000
# 5 0.000000 0.000000 0.000000 0.000000 0.018331 0.000000
# 6 0.000000 0.000000 0.000000 0.000000 0.000000 0.042516
#
#
# Mechanical properties :
#
#
# Convention : Reuss Voigt Hill
#
# Bulk Modulus (GPa) = 50.88024 58.17024 54.52524
# Shear Modulus (GPa) = 20.23678 29.81276 25.02477
#
# Velocity S-wave (km/s) = 3.33512 4.04801 3.70873
# Velocity P-wave (km/s) = 6.54192 7.33631 6.95047
#
# Compressibility (1/GPa) = 0.01965399
#
# Stress axis : x y z
#
# Youngs Moduli (GPa) = 69.08014 51.35065 24.52169
#
# Poissons Ratio (x) = -0.17707 0.41281
# Poissons Ratio (y) = -0.23821 0.34703
# Poissons Ratio (z) = 1.16293 0.72670
#
# Static dielectric constant tensor:
#      x y z
#    x 3.509510 0.000000 0.000000 
#    y 0.000000 3.598520 0.000000 
#    z 0.000000 0.000000 3.480830 
# 
# 
# High freq. dielectric constant tensor:
#      x y z
#    x 1.711300 0.000000 0.000000 
#    y 0.000000 1.704710 0.000000 
#    z 0.000000 0.000000 1.688710 
# 
# From -- ./inp_files/25259.got.cif
#   From: 2010.03.12/outbox.cif.g09.slc.cpg/sg74_13_cif.got.tgz:25259.got - 2010.04.16 15:46:19.
