data_PCOD8301445
_publ_section_title
;
Structure prediction by ZEFSAII (Michael W. Deem and Ramdas Pophale) SiO2 
 PCOD8301445
Probable space group: I M M A
;
_chemical_formula_sum "Si O2"
_cell_formula_units_Z 96
_cell_length_a 33.810727
_cell_length_b 14.296265
_cell_length_c 14.179895
_cell_angle_alpha 90.000000
_cell_angle_beta 90.000000
_cell_angle_gamma 90.000000
_cell_volume 6854.094909
_symmetry_space_group_name_H-M "I M M A"
_symmetry_group_IT_number 74
_symmetry_cell_setting 'orthorhombic'
loop_
_space_group_symop_operation_xyz
x,y,z
-x,1/2-y,z
x,-y,-z
-x,1/2+y,-z
-x,-y,-z
x,1/2+y,-z
-x,y,z
x,1/2-y,z
1/2+x,1/2+y,1/2+z
1/2-x,-y,1/2+z
1/2+x,1/2-y,1/2-z
1/2-x,y,1/2-z
1/2-x,1/2-y,1/2-z
1/2+x,y,1/2-z
1/2-x,1/2+y,1/2+z
1/2+x,-y,1/2+z
loop_
_atom_site_type_symbol
_atom_site_label
_atom_site_fract_x
_atom_site_fract_y
_atom_site_fract_z
Si Si1 0.832625 0.500000 0.210323
Si Si2 0.211385 0.500000 0.392778
Si Si3 0.408070 0.500000 0.400221
Si Si4 0.279103 0.643215 0.390473
Si Si5 0.279103 0.143215 0.390473
Si Si6 0.953167 0.355810 0.000000
O O1 0.826121 0.500000 0.323105
O O2 0.879632 0.500000 0.190269
O O3 0.813974 0.593585 0.166680
O O4 0.813974 0.406415 0.166680
O O5 0.195657 0.500000 0.500000
O O6 0.237593 0.591705 0.371022
O O7 0.237593 0.408295 0.371022
O O8 0.382821 0.500000 0.500000
O O9 0.436287 0.407649 0.405477
O O10 0.436287 0.592351 0.405477
O O11 0.275102 0.750000 0.356647
O O12 0.290100 0.636176 0.500000
O O13 0.275102 0.250000 0.356647
O O14 0.937919 0.250000 0.000000
O O15 0.000000 0.362032 1.000000
#
# Coordination Sequence:
#
# PCOD8301445 Si02
#       6
#    16  16  16  16  16  16
#     4  11  18  27  39  58  82 103 132 170 210 244
#     4   9  19  31  40  50  72 105 146 182 207 234
#     4   8  17  26  39  62  87 103 126 152 189 232
#     4   9  17  28  42  57  75 101 135 173 212 251
#     4   9  17  28  42  57  75 101 135 173 212 251
#     4   8  15  29  46  61  85 114 127 139 176 239
#
# _framework density 14.006225000000001
#
# number of rings (size 3 to 8) (size 9 to 14) (size 15 to 20)
#    1.000    1.833    0.000    5.500    0.000    4.000 
#    0.000    0.000    0.000    0.000    0.000    0.000 
#    0.000    2.667    0.000    3.667    0.000    0.000 
#
# Total GULP energy -594671.748592 kJ/mol
# GULP energy per Si atom -12388.994762 kJ/mol
# Density = 1.397435 g / cm^3
# Si number density = 14.006225 Si / 1000 Ang^3
#
#
#
# Elastic Constant Matrix: (Units=GPa)
#
#
# Indices 1 2 3 4 5 6 
#
# 1 70.3311 38.1592 37.8624 0.0000 0.0000 0.0000
# 2 38.1592 134.7199 31.0182 0.0000 0.0000 0.0000
# 3 37.8624 31.0182 51.7004 0.0000 0.0000 0.0000
# 4 0.0000 0.0000 0.0000 7.4567 0.0000 0.0000
# 5 0.0000 0.0000 0.0000 0.0000 20.6912 0.0000
# 6 0.0000 0.0000 0.0000 0.0000 0.0000 9.2354
#
#
#
# Elastic Compliance Matrix: (Units=1/GPa)
#
#
# Indices 1 2 3 4 5 6 
#
# 1 0.024662 -0.003280 -0.016093 0.000000 0.000000 0.000000
# 2 -0.003280 0.009049 -0.003027 0.000000 0.000000 0.000000
# 3 -0.016093 -0.003027 0.032944 0.000000 0.000000 0.000000
# 4 0.000000 0.000000 0.000000 0.134107 0.000000 0.000000
# 5 0.000000 0.000000 0.000000 0.000000 0.048330 0.000000
# 6 0.000000 0.000000 0.000000 0.000000 0.000000 0.108279
#
#
# Mechanical properties :
#
#
# Convention : Reuss Voigt Hill
#
# Bulk Modulus (GPa) = 45.75685 52.31455 49.03570
# Shear Modulus (GPa) = 12.21138 17.45744 14.83441
#
# Velocity S-wave (km/s) = 2.95592 3.53428 3.25796
# Velocity P-wave (km/s) = 6.66257 7.35437 7.01700
#
# Compressibility (1/GPa) = 0.02185465
#
# Stress axis : x y z
#
# Youngs Moduli (GPa) = 40.54883 110.51220 30.35494
#
# Poissons Ratio (x) = 0.36249 0.48850
# Poissons Ratio (y) = 0.13301 0.09188
# Poissons Ratio (z) = 0.65254 0.33449
#
# Static dielectric constant tensor:
#      x y z
#    x 2.412280 0.000000 0.000000 
#    y 0.000000 3.027230 0.000000 
#    z 0.000000 0.000000 2.580770 
# 
# 
# High freq. dielectric constant tensor:
#      x y z
#    x 1.497120 0.000000 0.000000 
#    y 0.000000 1.549840 0.000000 
#    z 0.000000 0.000000 1.505040 
# 
# From -- ./inp_files/37883.got.cif
#   From: 2010.03.12/outbox.cif.g09.slc.cpg/sg74_19_cif.got.tgz:37883.got - 2010.04.16 15:46:19.
