data_PCOD8301342
_publ_section_title
;
Structure prediction by ZEFSAII (Michael W. Deem and Ramdas Pophale) SiO2 
 PCOD8301342
Probable space group: I M M A
;
_chemical_formula_sum "Si O2"
_cell_formula_units_Z 56
_cell_length_a 17.191681
_cell_length_b 8.682031
_cell_length_c 18.291078
_cell_angle_alpha 90.000000
_cell_angle_beta 90.000000
_cell_angle_gamma 90.000000
_cell_volume 2730.102659
_symmetry_space_group_name_H-M "I M M A"
_symmetry_group_IT_number 74
_symmetry_cell_setting 'orthorhombic'
loop_
_space_group_symop_operation_xyz
x,y,z
-x,1/2-y,z
x,-y,-z
-x,1/2+y,-z
-x,-y,-z
x,1/2+y,-z
-x,y,z
x,1/2-y,z
1/2+x,1/2+y,1/2+z
1/2-x,-y,1/2+z
1/2+x,1/2-y,1/2-z
1/2-x,y,1/2-z
1/2-x,1/2-y,1/2-z
1/2+x,y,1/2-z
1/2-x,1/2+y,1/2+z
1/2+x,-y,1/2+z
loop_
_atom_site_type_symbol
_atom_site_label
_atom_site_fract_x
_atom_site_fract_y
_atom_site_fract_z
Si Si1 0.588943 0.927101 0.307866
Si Si2 0.857339 0.930499 0.663999
Si Si3 0.000000 0.569532 0.420760
Si Si4 0.283198 0.572236 0.420271
O O1 0.500000 0.983744 0.315846
O O2 0.592023 0.750000 0.281645
O O3 0.630710 0.946245 0.386215
O O4 0.635267 0.030098 0.249484
O O5 0.866737 0.750000 0.651834
O O6 0.774980 0.984690 0.633554
O O7 0.924211 0.018361 0.621603
O O8 0.000000 0.500000 0.500000
O O9 0.000000 0.750000 0.428287
O O10 0.282154 0.500000 0.500000
O O11 0.258192 0.750000 0.425948
#
# Coordination Sequence:
#
# PCOD8301342 Si02
#       4
#    16  16   8  16
#     4  10  22  42  67  93 125 168 213 258 314 377
#     4  12  24  40  63  94 127 163 209 260 313 373
#     4  12  24  40  62  90 127 166 205 254 312 376
#     4  11  24  42  64  92 127 169 213 261 317 373
#
# _framework density 20.512049999999999
#
# number of rings (size 3 to 8) (size 9 to 14) (size 15 to 20)
#    0.000    0.857    1.429    6.429    0.000    6.286 
#    0.000    0.000    0.000    0.000    0.000    0.000 
#    0.000    0.000    0.000    0.000    0.000    0.000 
#
# Total GULP energy -347362.436759 kJ/mol
# GULP energy per Si atom -12405.801313 kJ/mol
# Density = 2.046536 g / cm^3
# Si number density = 20.512050 Si / 1000 Ang^3
#
#
#
# Elastic Constant Matrix: (Units=GPa)
#
#
# Indices 1 2 3 4 5 6 
#
# 1 117.5299 42.2508 62.3593 0.0000 0.0000 0.0000
# 2 42.2508 146.0633 38.5624 0.0000 0.0000 0.0000
# 3 62.3593 38.5624 77.6299 0.0000 0.0000 0.0000
# 4 0.0000 0.0000 0.0000 39.4770 0.0000 0.0000
# 5 0.0000 0.0000 0.0000 0.0000 45.5631 0.0000
# 6 0.0000 0.0000 0.0000 0.0000 0.0000 29.7373
#
#
#
# Elastic Compliance Matrix: (Units=1/GPa)
#
#
# Indices 1 2 3 4 5 6 
#
# 1 0.015052 -0.001337 -0.011427 0.000000 0.000000 0.000000
# 2 -0.001337 0.007999 -0.002899 0.000000 0.000000 0.000000
# 3 -0.011427 -0.002899 0.023501 0.000000 0.000000 0.000000
# 4 0.000000 0.000000 0.000000 0.025331 0.000000 0.000000
# 5 0.000000 0.000000 0.000000 0.000000 0.021948 0.000000
# 6 0.000000 0.000000 0.000000 0.000000 0.000000 0.033628
#
#
# Mechanical properties :
#
#
# Convention : Reuss Voigt Hill
#
# Bulk Modulus (GPa) = 65.68117 69.72980 67.70549
# Shear Modulus (GPa) = 30.51389 36.15884 33.33637
#
# Velocity S-wave (km/s) = 3.86114 4.20314 4.03576
# Velocity P-wave (km/s) = 7.20889 7.59102 7.40242
#
# Compressibility (1/GPa) = 0.01522506
#
# Stress axis : x y z
#
# Youngs Moduli (GPa) = 66.43576 125.02277 42.55148
#
# Poissons Ratio (x) = 0.16718 0.48624
# Poissons Ratio (y) = 0.08884 0.12336
# Poissons Ratio (z) = 0.75916 0.36246
#
# Static dielectric constant tensor:
#      x y z
#    x 3.927010 0.000000 0.000000 
#    y 0.000000 4.017010 0.000000 
#    z 0.000000 0.000000 3.797850 
# 
# 
# High freq. dielectric constant tensor:
#      x y z
#    x 1.813540 0.000000 0.000000 
#    y 0.000000 1.810910 0.000000 
#    z 0.000000 0.000000 1.808630 
# 
# From -- ./inp_files/28506.got.cif
#   From: 2010.03.12/outbox.cif.g09.slc.cpg/sg74_15_cif.got.tgz:28506.got - 2010.04.16 15:46:19.
