data_PCOD8301266
_publ_section_title
;
Structure prediction by ZEFSAII (Michael W. Deem and Ramdas Pophale) SiO2 
 PCOD8301266
Probable space group: I M M A
;
_chemical_formula_sum "Si O2"
_cell_formula_units_Z 96
_cell_length_a 13.654025
_cell_length_b 22.071359
_cell_length_c 15.568259
_cell_angle_alpha 90.000000
_cell_angle_beta 90.000000
_cell_angle_gamma 90.000000
_cell_volume 4691.695487
_symmetry_space_group_name_H-M "I M M A"
_symmetry_group_IT_number 74
_symmetry_cell_setting 'orthorhombic'
loop_
_space_group_symop_operation_xyz
x,y,z
-x,1/2-y,z
x,-y,-z
-x,1/2+y,-z
-x,-y,-z
x,1/2+y,-z
-x,y,z
x,1/2-y,z
1/2+x,1/2+y,1/2+z
1/2-x,-y,1/2+z
1/2+x,1/2-y,1/2-z
1/2-x,y,1/2-z
1/2-x,1/2-y,1/2-z
1/2+x,y,1/2-z
1/2-x,1/2+y,1/2+z
1/2+x,-y,1/2+z
loop_
_atom_site_type_symbol
_atom_site_label
_atom_site_fract_x
_atom_site_fract_y
_atom_site_fract_z
Si Si1 0.113402 0.026509 0.836206
Si Si2 0.608815 0.114901 0.811416
Si Si3 0.341265 0.750000 0.186300
Si Si4 0.111520 0.610315 0.780491
Si Si5 0.774418 0.440689 0.536419
Si Si6 0.880498 0.750000 0.510574
Si Si7 0.786207 0.142750 0.384091
O O1 0.152983 0.076257 0.767312
O O2 0.172855 0.037181 0.922658
O O3 0.000000 0.037448 0.857304
O O4 0.133794 0.959395 0.801943
O O5 0.500000 0.091150 0.826738
O O6 0.604762 0.186956 0.790857
O O7 0.664477 0.100937 0.899205
O O8 0.250000 0.750000 0.250000
O O9 0.326902 0.750000 0.082618
O O10 0.131841 0.615326 0.679079
O O11 0.185646 0.656365 0.830527
O O12 0.000000 0.628924 0.801578
O O13 0.832404 0.500000 0.500000
O O14 0.745833 0.403249 0.453667
O O15 0.841462 0.804681 0.566703
O O16 0.000000 0.750000 0.499951
#
# Coordination Sequence:
#
# PCOD8301266 Si02
#       7
#    16  16   8  16  16   8  16
#     4  10  22  39  61  92 131 172 210 260 328 391
#     4  11  24  40  62  91 127 170 213 261 318 381
#     4  12  24  42  67  90 126 176 218 259 316 384
#     4  10  22  43  67  95 132 170 216 270 333 398
#     4  12  22  36  63  93 128 164 212 269 321 384
#     4  12  26  47  70  98 136 171 215 271 323 381
#     4  11  24  40  67  98 124 171 220 266 328 384
#
# _framework density 20.461687000000001
#
# number of rings (size 3 to 8) (size 9 to 14) (size 15 to 20)
#    0.000    1.000    3.333    3.750    2.333    3.333 
#    0.000    1.250    0.000    0.000    0.000    0.000 
#    0.000    0.000    0.000    0.000    0.000    0.000 
#
# Total GULP energy -594743.110073 kJ/mol
# GULP energy per Si atom -12390.481460 kJ/mol
# Density = 2.041512 g / cm^3
# Si number density = 20.461687 Si / 1000 Ang^3
#
#
#
# Elastic Constant Matrix: (Units=GPa)
#
#
# Indices 1 2 3 4 5 6 
#
# 1 108.6107 36.1461 55.4181 0.0002 0.0000 0.0000
# 2 36.1461 90.9190 44.7513 -0.0003 0.0000 0.0000
# 3 55.4181 44.7513 134.3080 -0.0009 -0.0001 0.0000
# 4 0.0002 -0.0003 -0.0009 116.9532 -0.0001 0.0001
# 5 0.0000 0.0000 -0.0001 -0.0001 13.0961 0.0000
# 6 0.0000 0.0000 0.0000 0.0001 0.0000 27.6820
#
#
#
# Elastic Compliance Matrix: (Units=1/GPa)
#
#
# Indices 1 2 3 4 5 6 
#
# 1 0.012250 -0.002850 -0.004105 0.000000 0.000000 0.000000
# 2 -0.002850 0.013819 -0.003429 0.000000 0.000000 0.000000
# 3 -0.004105 -0.003429 0.010282 0.000000 0.000000 0.000000
# 4 0.000000 0.000000 0.000000 0.008550 0.000000 0.000000
# 5 0.000000 0.000000 0.000000 0.000000 0.076358 0.000000
# 6 0.000000 0.000000 0.000000 0.000000 0.000000 0.036125
#
#
# Mechanical properties :
#
#
# Convention : Reuss Voigt Hill
#
# Bulk Modulus (GPa) = 64.16704 67.38539 65.77621
# Shear Modulus (GPa) = 27.27070 44.71441 35.99256
#
# Velocity S-wave (km/s) = 3.65467 4.67976 4.19862
# Velocity P-wave (km/s) = 7.01687 7.88697 7.46461
#
# Compressibility (1/GPa) = 0.01558433
#
# Stress axis : x y z
#
# Youngs Moduli (GPa) = 81.63121 72.36202 97.25813
#
# Poissons Ratio (x) = 0.20621 0.39926
# Poissons Ratio (y) = 0.23262 0.33348
# Poissons Ratio (z) = 0.33511 0.24811
#
# Static dielectric constant tensor:
#      x y z
#    x 3.697890 0.000000 0.000000 
#    y 0.000000 3.660400 0.000000 
#    z 0.000000 0.000000 3.921240 
# 
# 
# High freq. dielectric constant tensor:
#      x y z
#    x 1.796600 0.000000 0.000000 
#    y 0.000000 1.798890 0.000000 
#    z 0.000000 0.000000 1.815700 
# 
# From -- ./inp_files/32437.got.cif
#   From: 2010.03.12/outbox.cif.g09.slc.cpg/sg74_17_cif.got.tgz:32437.got - 2010.04.16 15:46:19.
