data_PCOD8301766
_publ_section_title
;
Structure prediction by ZEFSAII (Michael W. Deem and Ramdas Pophale) SiO2 
 PCOD8301766
Probable space group: I M M A
;
_chemical_formula_sum "Si O2"
_cell_formula_units_Z 96
_cell_length_a 9.813014
_cell_length_b 31.104310
_cell_length_c 19.478433
_cell_angle_alpha 90.000000
_cell_angle_beta 90.000000
_cell_angle_gamma 90.000000
_cell_volume 5945.344244
_symmetry_space_group_name_H-M "I M M A"
_symmetry_group_IT_number 74
_symmetry_cell_setting 'orthorhombic'
loop_
_space_group_symop_operation_xyz
x,y,z
-x,1/2-y,z
x,-y,-z
-x,1/2+y,-z
-x,-y,-z
x,1/2+y,-z
-x,y,z
x,1/2-y,z
1/2+x,1/2+y,1/2+z
1/2-x,-y,1/2+z
1/2+x,1/2-y,1/2-z
1/2-x,y,1/2-z
1/2-x,1/2-y,1/2-z
1/2+x,y,1/2-z
1/2-x,1/2+y,1/2+z
1/2+x,-y,1/2+z
loop_
_atom_site_type_symbol
_atom_site_label
_atom_site_fract_x
_atom_site_fract_y
_atom_site_fract_z
Si Si1 0.656964 0.411149 0.812910
Si Si2 0.349063 0.199117 0.192371
Si Si3 0.838219 0.540664 0.540642
Si Si4 0.837549 0.297541 0.460064
Si Si5 0.837956 0.621761 0.458463
Si Si6 0.656232 0.011709 0.187681
O O1 0.500000 0.400701 0.795362
O O2 0.750000 0.395599 0.750000
O O3 0.707915 0.385330 0.880007
O O4 0.676484 0.461417 0.828249
O O5 0.500000 0.178990 0.202068
O O6 0.358607 0.250000 0.201352
O O7 0.250000 0.178823 0.250000
O O8 0.290622 0.188546 0.116512
O O9 0.775820 0.500000 0.500000
O O10 0.778519 0.584248 0.507489
O O11 0.797153 0.538103 0.620591
O O12 0.000000 0.539484 0.533313
O O13 0.780339 0.250000 0.479156
O O14 0.781622 0.332314 0.514730
O O15 0.000000 0.295960 0.460279
O O16 0.000000 0.620493 0.462605
O O17 0.500000 0.021347 0.207081
O O18 0.750000 0.027345 0.250000
#
# Coordination Sequence:
#
# PCOD8301766 Si02
#       6
#    16  16  16  16  16  16
#     4   9  16  26  42  63  83 105 135 169 203 244
#     4   8  13  22  37  56  77 101 130 164 199 235
#     4   9  14  23  39  59  80 102 133 172 202 231
#     4   8  14  24  38  58  82 105 134 174 211 239
#     4   9  15  24  41  62  80 103 138 173 204 239
#     4   9  16  26  41  60  84 111 137 168 204 242
#
# _framework density 16.147088
#
# number of rings (size 3 to 8) (size 9 to 14) (size 15 to 20)
#    0.000    3.333    1.667    1.000    0.000    0.000 
#    0.000    0.833    0.000    3.000    0.000    0.000 
#    0.000    0.000    0.000    0.000    0.000    0.000 
#
# Total GULP energy -594888.089960 kJ/mol
# GULP energy per Si atom -12393.501874 kJ/mol
# Density = 1.611034 g / cm^3
# Si number density = 16.147088 Si / 1000 Ang^3
#
#
#
# Elastic Constant Matrix: (Units=GPa)
#
#
# Indices 1 2 3 4 5 6 
#
# 1 35.8553 18.0817 46.3283 0.0000 0.0000 0.0000
# 2 18.0817 81.5006 68.8379 0.0000 0.0000 0.0000
# 3 46.3283 68.8379 155.1412 0.0000 0.0000 0.0000
# 4 0.0000 0.0000 0.0000 24.4569 0.0000 0.0000
# 5 0.0000 0.0000 0.0000 0.0000 24.6845 0.0000
# 6 0.0000 0.0000 0.0000 0.0000 0.0000 6.3648
#
#
#
# Elastic Compliance Matrix: (Units=1/GPa)
#
#
# Indices 1 2 3 4 5 6 
#
# 1 0.045661 0.002218 -0.014619 0.000000 0.000000 0.000000
# 2 0.002218 0.019732 -0.009418 0.000000 0.000000 0.000000
# 3 -0.014619 -0.009418 0.014990 0.000000 0.000000 0.000000
# 4 0.000000 0.000000 0.000000 0.040888 0.000000 0.000000
# 5 0.000000 0.000000 0.000000 0.000000 0.040511 0.000000
# 6 0.000000 0.000000 0.000000 0.000000 0.000000 0.157113
#
#
# Mechanical properties :
#
#
# Convention : Reuss Voigt Hill
#
# Bulk Modulus (GPa) = 27.21484 59.88810 43.55147
# Shear Modulus (GPa) = 13.34105 20.38452 16.86278
#
# Velocity S-wave (km/s) = 2.87752 3.55692 3.23511
# Velocity P-wave (km/s) = 5.28499 7.35109 6.40194
#
# Compressibility (1/GPa) = 0.03674466
#
# Stress axis : x y z
#
# Youngs Moduli (GPa) = 21.90050 50.67833 66.71083
#
# Poissons Ratio (x) = -0.11238 0.97526
# Poissons Ratio (y) = -0.04856 0.62826
# Poissons Ratio (z) = 0.32017 0.47727
#
# Static dielectric constant tensor:
#      x y z
#    x 2.719250 0.000000 0.000000 
#    y 0.000000 3.060060 0.000000 
#    z 0.000000 0.000000 3.216270 
# 
# 
# High freq. dielectric constant tensor:
#      x y z
#    x 1.563950 0.000000 0.000000 
#    y 0.000000 1.595550 0.000000 
#    z 0.000000 0.000000 1.628290 
# 
# From -- ./inp_files/41623.got.cif
#   From: 2010.03.12/outbox.cif.g09.slc.cpg/sg74_21_cif.got.tgz:41623.got - 2010.04.16 15:46:19.
