data_PCOD8301338
_publ_section_title
;
Structure prediction by ZEFSAII (Michael W. Deem and Ramdas Pophale) SiO2 
 PCOD8301338
Probable space group: I M M A
;
_chemical_formula_sum "Si O2"
_cell_formula_units_Z 96
_cell_length_a 26.621679
_cell_length_b 20.264679
_cell_length_c 9.413216
_cell_angle_alpha 90.000000
_cell_angle_beta 90.000000
_cell_angle_gamma 90.000000
_cell_volume 5078.239691
_symmetry_space_group_name_H-M "I M M A"
_symmetry_group_IT_number 74
_symmetry_cell_setting 'orthorhombic'
loop_
_space_group_symop_operation_xyz
x,y,z
-x,1/2-y,z
x,-y,-z
-x,1/2+y,-z
-x,-y,-z
x,1/2+y,-z
-x,y,z
x,1/2-y,z
1/2+x,1/2+y,1/2+z
1/2-x,-y,1/2+z
1/2+x,1/2-y,1/2-z
1/2-x,y,1/2-z
1/2-x,1/2-y,1/2-z
1/2+x,y,1/2-z
1/2-x,1/2+y,1/2+z
1/2+x,-y,1/2+z
loop_
_atom_site_type_symbol
_atom_site_label
_atom_site_fract_x
_atom_site_fract_y
_atom_site_fract_z
Si Si1 0.692560 0.867350 0.281070
Si Si2 0.177908 0.868619 0.675164
Si Si3 0.225471 0.177548 0.060495
Si Si4 0.941687 0.543583 0.364087
Si Si5 0.356301 0.499620 0.670794
Si Si6 0.111065 0.675613 0.430692
O O1 0.750000 0.850911 0.250000
O O2 0.684876 0.846310 0.444520
O O3 0.656958 0.824769 0.179972
O O4 0.680436 0.944266 0.265683
O O5 0.194385 0.815949 0.793378
O O6 0.227093 0.874010 0.570966
O O7 0.165377 0.934928 0.759178
O O8 0.130278 0.842815 0.588145
O O9 0.246727 0.250000 0.022270
O O10 0.925096 0.500000 0.500000
O O11 0.912340 0.516032 0.226855
O O12 0.930575 0.621344 0.388829
O O13 0.000000 0.534761 0.331105
O O14 0.356786 0.500000 0.500000
O O15 0.088134 0.750000 0.431790
#
# Coordination Sequence:
#
# PCOD8301338 Si02
#       6
#    16  16  16  16  16  16
#     4  11  23  34  54  83 123 160 194 239 281 340
#     4  11  21  36  54  82 116 155 201 243 277 335
#     4  11  22  36  53  78 119 169 201 234 285 337
#     4  10  22  42  65  90 115 143 185 243 306 359
#     4  11  23  39  58  85 115 152 201 241 292 344
#     4  11  22  38  62  90 116 152 196 241 290 350
#
# _framework density 18.904188000000001
#
# number of rings (size 3 to 8) (size 9 to 14) (size 15 to 20)
#    0.000    1.167    5.000    2.500    2.333    1.333 
#    0.000    0.000    0.000    0.000    0.000    0.000 
#    0.000    0.000    0.000    0.000    0.000    0.000 
#
# Total GULP energy -594998.723160 kJ/mol
# GULP energy per Si atom -12395.806733 kJ/mol
# Density = 1.886116 g / cm^3
# Si number density = 18.904188 Si / 1000 Ang^3
#
#
#
# Elastic Constant Matrix: (Units=GPa)
#
#
# Indices 1 2 3 4 5 6 
#
# 1 59.1016 25.8579 17.0330 0.0000 0.0000 0.0000
# 2 25.8579 131.0234 30.1989 0.0000 0.0000 0.0000
# 3 17.0330 30.1989 73.3220 0.0000 0.0000 0.0000
# 4 0.0000 0.0000 0.0000 24.2942 0.0000 0.0000
# 5 0.0000 0.0000 0.0000 0.0000 24.6861 0.0000
# 6 0.0000 0.0000 0.0000 0.0000 0.0000 18.1292
#
#
#
# Elastic Compliance Matrix: (Units=1/GPa)
#
#
# Indices 1 2 3 4 5 6 
#
# 1 0.019175 -0.003047 -0.003200 0.000000 0.000000 0.000000
# 2 -0.003047 0.008917 -0.002965 0.000000 0.000000 0.000000
# 3 -0.003200 -0.002965 0.015603 0.000000 0.000000 0.000000
# 4 0.000000 0.000000 0.000000 0.041162 0.000000 0.000000
# 5 0.000000 0.000000 0.000000 0.000000 0.040509 0.000000
# 6 0.000000 0.000000 0.000000 0.000000 0.000000 0.055160
#
#
# Mechanical properties :
#
#
# Convention : Reuss Voigt Hill
#
# Bulk Modulus (GPa) = 39.56867 45.51406 42.54137
# Shear Modulus (GPa) = 24.11128 26.11237 25.11183
#
# Velocity S-wave (km/s) = 3.57521 3.72062 3.64864
# Velocity P-wave (km/s) = 6.16599 6.52578 6.34843
#
# Compressibility (1/GPa) = 0.02527252
#
# Stress axis : x y z
#
# Youngs Moduli (GPa) = 52.15073 112.14709 64.09093
#
# Poissons Ratio (x) = 0.34169 0.20506
# Poissons Ratio (y) = 0.15889 0.19001
# Poissons Ratio (z) = 0.16686 0.33249
#
# Static dielectric constant tensor:
#      x y z
#    x 3.165580 0.000000 0.000000 
#    y 0.000000 3.465830 0.000000 
#    z 0.000000 0.000000 3.831140 
# 
# 
# High freq. dielectric constant tensor:
#      x y z
#    x 1.698610 0.000000 0.000000 
#    y 0.000000 1.742450 0.000000 
#    z 0.000000 0.000000 1.750230 
# 
# From -- ./inp_files/15139.got.cif
#   From: 2010.03.12/outbox.cif.g09.slc.cpg/sg74_8_cif.got.tgz:15139.got - 2010.04.16 15:46:19.
