data_PCOD8301657
_publ_section_title
;
Structure prediction by ZEFSAII (Michael W. Deem and Ramdas Pophale) SiO2 
 PCOD8301657
Probable space group: I M M A
;
_chemical_formula_sum "Si O2"
_cell_formula_units_Z 64
_cell_length_a 24.745780
_cell_length_b 9.249239
_cell_length_c 13.589237
_cell_angle_alpha 90.000000
_cell_angle_beta 90.000000
_cell_angle_gamma 90.000000
_cell_volume 3110.299584
_symmetry_space_group_name_H-M "I M M A"
_symmetry_group_IT_number 74
_symmetry_cell_setting 'orthorhombic'
loop_
_space_group_symop_operation_xyz
x,y,z
-x,1/2-y,z
x,-y,-z
-x,1/2+y,-z
-x,-y,-z
x,1/2+y,-z
-x,y,z
x,1/2-y,z
1/2+x,1/2+y,1/2+z
1/2-x,-y,1/2+z
1/2+x,1/2-y,1/2-z
1/2-x,y,1/2-z
1/2-x,1/2-y,1/2-z
1/2+x,y,1/2-z
1/2-x,1/2+y,1/2+z
1/2+x,-y,1/2+z
loop_
_atom_site_type_symbol
_atom_site_label
_atom_site_fract_x
_atom_site_fract_y
_atom_site_fract_z
Si Si1 0.062262 0.750000 0.149920
Si Si2 0.167164 0.415966 0.405483
Si Si3 0.277214 0.423212 0.598814
Si Si4 0.380185 0.983609 0.708337
Si Si5 0.065476 0.250000 0.074007
O O1 0.079920 0.617164 0.216317
O O2 0.000000 0.750000 0.132570
O O3 0.086972 0.750000 0.038919
O O4 0.142163 0.500000 0.500000
O O5 0.181701 0.250000 0.433704
O O6 0.220397 0.503691 0.372097
O O7 0.124284 0.411563 0.315958
O O8 0.298016 0.500000 0.500000
O O9 0.271055 0.250000 0.588163
O O10 0.320534 0.462228 0.681095
O O11 0.408239 0.886061 0.626525
O O12 0.000000 0.250000 0.082646
#
# Coordination Sequence:
#
# PCOD8301657 Si02
#       5
#     8  16  16  16   8
#     4  11  24  42  66  97 129 163 202 258 316 377
#     4  11  25  42  64  92 128 167 211 260 307 365
#     4  11  23  37  62  96 133 168 207 253 306 375
#     4  12  24  39  67  95 126 170 210 252 312 374
#     4  11  24  44  66  95 129 161 206 260 318 375
#
# _framework density 20.576796000000002
#
# number of rings (size 3 to 8) (size 9 to 14) (size 15 to 20)
#    0.000    0.750    2.500    6.750    7.000    4.000 
#    0.000    0.000    0.000    4.500    0.000    0.000 
#    0.000    0.000    0.000    0.000    0.000    0.000 
#
# Total GULP energy -396627.725408 kJ/mol
# GULP energy per Si atom -12394.616419 kJ/mol
# Density = 2.052996 g / cm^3
# Si number density = 20.576796 Si / 1000 Ang^3
#
#
#
# Elastic Constant Matrix: (Units=GPa)
#
#
# Indices 1 2 3 4 5 6 
#
# 1 48.0903 30.3015 39.6124 0.0000 0.0000 0.0000
# 2 30.3015 169.6317 31.1396 0.0000 0.0000 0.0000
# 3 39.6124 31.1396 91.4964 0.0000 0.0000 0.0000
# 4 0.0000 0.0000 0.0000 66.1130 0.0000 0.0000
# 5 0.0000 0.0000 0.0000 0.0000 25.7200 0.0000
# 6 0.0000 0.0000 0.0000 0.0000 0.0000 37.8919
#
#
#
# Elastic Compliance Matrix: (Units=1/GPa)
#
#
# Indices 1 2 3 4 5 6 
#
# 1 0.034292 -0.003627 -0.013612 0.000000 0.000000 0.000000
# 2 -0.003627 0.006672 -0.000700 0.000000 0.000000 0.000000
# 3 -0.013612 -0.000700 0.017061 0.000000 0.000000 0.000000
# 4 0.000000 0.000000 0.000000 0.015126 0.000000 0.000000
# 5 0.000000 0.000000 0.000000 0.000000 0.038880 0.000000
# 6 0.000000 0.000000 0.000000 0.000000 0.000000 0.026391
#
#
# Mechanical properties :
#
#
# Convention : Reuss Voigt Hill
#
# Bulk Modulus (GPa) = 45.15498 56.81396 50.98447
# Shear Modulus (GPa) = 27.52075 39.82265 33.67170
#
# Velocity S-wave (km/s) = 3.66110 4.40400 4.04962
# Velocity P-wave (km/s) = 6.31378 7.31648 6.83355
#
# Compressibility (1/GPa) = 0.02214595
#
# Stress axis : x y z
#
# Youngs Moduli (GPa) = 29.16155 149.89005 58.61352
#
# Poissons Ratio (x) = 0.54362 0.79784
# Poissons Ratio (y) = 0.10576 0.04105
# Poissons Ratio (z) = 0.39694 0.10498
#
# Static dielectric constant tensor:
#      x y z
#    x 3.566000 0.000000 0.000000 
#    y 0.000000 4.094950 0.000000 
#    z 0.000000 0.000000 3.799950 
# 
# 
# High freq. dielectric constant tensor:
#      x y z
#    x 1.783940 0.000000 0.000000 
#    y 0.000000 1.827170 0.000000 
#    z 0.000000 0.000000 1.803290 
# 
# From -- ./inp_files/28845.got.cif
#   From: 2010.03.12/outbox.cif.g09.slc.cpg/sg74_15_cif.got.tgz:28845.got - 2010.04.16 15:46:19.
