data_PCOD8301727
_publ_section_title
;
Structure prediction by ZEFSAII (Michael W. Deem and Ramdas Pophale) SiO2 
 PCOD8301727
Probable space group: I M M A
;
_chemical_formula_sum "Si O2"
_cell_formula_units_Z 80
_cell_length_a 14.074438
_cell_length_b 13.632730
_cell_length_c 25.668949
_cell_angle_alpha 90.000000
_cell_angle_beta 90.000000
_cell_angle_gamma 90.000000
_cell_volume 4925.178589
_symmetry_space_group_name_H-M "I M M A"
_symmetry_group_IT_number 74
_symmetry_cell_setting 'orthorhombic'
loop_
_space_group_symop_operation_xyz
x,y,z
-x,1/2-y,z
x,-y,-z
-x,1/2+y,-z
-x,-y,-z
x,1/2+y,-z
-x,y,z
x,1/2-y,z
1/2+x,1/2+y,1/2+z
1/2-x,-y,1/2+z
1/2+x,1/2-y,1/2-z
1/2-x,y,1/2-z
1/2-x,1/2-y,1/2-z
1/2+x,y,1/2-z
1/2-x,1/2+y,1/2+z
1/2+x,-y,1/2+z
loop_
_atom_site_type_symbol
_atom_site_label
_atom_site_fract_x
_atom_site_fract_y
_atom_site_fract_z
Si Si1 0.608629 0.135991 0.662735
Si Si2 0.110412 0.636652 0.583175
Si Si3 0.395353 0.633950 0.034241
Si Si4 0.391036 0.139260 0.783214
Si Si5 0.214118 0.462299 0.625951
O O1 0.500000 0.116757 0.646376
O O2 0.635245 0.250000 0.652037
O O3 0.623912 0.110813 0.723316
O O4 0.673285 0.060532 0.629368
O O5 0.138230 0.750000 0.589186
O O6 0.126764 0.596777 0.524330
O O7 0.183926 0.575892 0.619195
O O8 0.000000 0.620572 0.599284
O O9 0.500000 0.596892 0.051300
O O10 0.393688 0.750000 0.032140
O O11 0.321020 0.597712 0.076198
O O12 0.500000 0.127959 0.799574
O O13 0.356555 0.250000 0.792829
O O14 0.329329 0.070337 0.819374
#
# Coordination Sequence:
#
# PCOD8301727 Si02
#       5
#    16  16  16  16  16
#     4   9  19  33  45  63  95 125 145 177 228 273
#     4   9  19  33  45  63  95 125 145 177 228 273
#     4   9  17  28  43  68  98 118 136 173 226 278
#     4   9  17  28  43  68  98 118 136 173 226 278
#     4  12  18  25  48  71  86 116 160 186 206 258
#
# _framework density 16.243067
#
# number of rings (size 3 to 8) (size 9 to 14) (size 15 to 20)
#    0.000    2.400    0.000    7.200    0.000    4.800 
#    0.000    0.000    0.000    5.400    0.000    5.600 
#    0.000    0.000    0.000    0.000    0.000    0.000 
#
# Total GULP energy -495821.299102 kJ/mol
# GULP energy per Si atom -12395.532478 kJ/mol
# Density = 1.620610 g / cm^3
# Si number density = 16.243067 Si / 1000 Ang^3
#
#
#
# Elastic Constant Matrix: (Units=GPa)
#
#
# Indices 1 2 3 4 5 6 
#
# 1 105.5903 50.8974 49.7679 0.0000 0.0000 0.0000
# 2 50.8974 53.6184 29.4263 0.0000 0.0000 0.0000
# 3 49.7679 29.4263 48.5452 0.0000 0.0000 0.0000
# 4 0.0000 0.0000 0.0000 27.6982 0.0000 0.0000
# 5 0.0000 0.0000 0.0000 0.0000 25.9659 0.0000
# 6 0.0000 0.0000 0.0000 0.0000 0.0000 25.8724
#
#
#
# Elastic Compliance Matrix: (Units=1/GPa)
#
#
# Indices 1 2 3 4 5 6 
#
# 1 0.023497 -0.013613 -0.015837 0.000000 0.000000 0.000000
# 2 -0.013613 0.035834 -0.007766 0.000000 0.000000 0.000000
# 3 -0.015837 -0.007766 0.041542 0.000000 0.000000 0.000000
# 4 0.000000 0.000000 0.000000 0.036103 0.000000 0.000000
# 5 0.000000 0.000000 0.000000 0.000000 0.038512 0.000000
# 6 0.000000 0.000000 0.000000 0.000000 0.000000 0.038651
#
#
# Mechanical properties :
#
#
# Convention : Reuss Voigt Hill
#
# Bulk Modulus (GPa) = 37.81791 51.99301 44.90546
# Shear Modulus (GPa) = 16.81319 21.08478 18.94899
#
# Velocity S-wave (km/s) = 3.22079 3.60679 3.41924
# Velocity P-wave (km/s) = 6.09626 7.03023 6.57984
#
# Compressibility (1/GPa) = 0.02644250
#
# Stress axis : x y z
#
# Youngs Moduli (GPa) = 42.55893 27.90622 24.07175
#
# Poissons Ratio (x) = 0.37989 0.38122
# Poissons Ratio (y) = 0.57935 0.18693
# Poissons Ratio (z) = 0.67401 0.21671
#
# Static dielectric constant tensor:
#      x y z
#    x 3.077700 0.000000 0.000000 
#    y 0.000000 2.995020 0.000000 
#    z 0.000000 0.000000 2.988700 
# 
# 
# High freq. dielectric constant tensor:
#      x y z
#    x 1.609450 0.000000 0.000000 
#    y 0.000000 1.610040 0.000000 
#    z 0.000000 0.000000 1.614620 
# 
# From -- ./inp_files/51649.got.cif
#   From: 2010.03.12/outbox.cif.g09.slc.cpg/sg74_26_cif.got.tgz:51649.got - 2010.04.16 15:46:19.
