data_PCOD8301484
_publ_section_title
;
Structure prediction by ZEFSAII (Michael W. Deem and Ramdas Pophale) SiO2 
 PCOD8301484
Probable space group: I M M A
;
_chemical_formula_sum "Si O2"
_cell_formula_units_Z 80
_cell_length_a 23.857791
_cell_length_b 8.767310
_cell_length_c 25.989000
_cell_angle_alpha 90.000000
_cell_angle_beta 90.000000
_cell_angle_gamma 90.000000
_cell_volume 5436.084035
_symmetry_space_group_name_H-M "I M M A"
_symmetry_group_IT_number 74
_symmetry_cell_setting 'orthorhombic'
loop_
_space_group_symop_operation_xyz
x,y,z
-x,1/2-y,z
x,-y,-z
-x,1/2+y,-z
-x,-y,-z
x,1/2+y,-z
-x,y,z
x,1/2-y,z
1/2+x,1/2+y,1/2+z
1/2-x,-y,1/2+z
1/2+x,1/2-y,1/2-z
1/2-x,y,1/2-z
1/2-x,1/2-y,1/2-z
1/2+x,y,1/2-z
1/2-x,1/2+y,1/2+z
1/2+x,-y,1/2+z
loop_
_atom_site_type_symbol
_atom_site_label
_atom_site_fract_x
_atom_site_fract_y
_atom_site_fract_z
Si Si1 0.115862 0.930774 0.445026
Si Si2 0.279898 0.580736 0.304860
Si Si3 0.000000 0.931398 0.397042
Si Si4 0.500000 0.070404 0.781758
Si Si5 0.317862 0.071596 0.144979
Si Si6 0.120764 0.569624 0.258943
O O1 0.116687 0.750000 0.448174
O O2 0.055160 0.991815 0.426292
O O3 0.129930 0.000000 0.500000
O O4 0.164076 0.985452 0.406453
O O5 0.279613 0.750000 0.329347
O O6 0.250000 0.584004 0.250000
O O7 0.247484 0.467783 0.343292
O O8 0.343906 0.526116 0.292582
O O9 0.000000 0.750000 0.395430
O O10 0.000000 0.999952 0.339253
O O11 0.500000 0.250000 0.788317
O O12 0.555889 0.020484 0.750718
O O13 0.324020 0.250000 0.136556
O O14 0.357026 0.018659 0.191480
O O15 0.127160 0.750000 0.270340
#
# Coordination Sequence:
#
# PCOD8301484 Si02
#       6
#    16  16   8   8  16  16
#     4  11  21  34  47  61  80 106 141 181 219 256
#     4   8  15  27  43  61  79 104 135 169 208 251
#     4   9  17  29  47  61  78 108 142 179 217 249
#     4   9  14  25  45  65  82 109 142 174 210 247
#     4  11  20  29  42  60  81 107 138 175 214 251
#     4   9  16  28  45  62  82 108 139 171 208 251
#
# _framework density 14.716476
#
# number of rings (size 3 to 8) (size 9 to 14) (size 15 to 20)
#    0.000    2.400    2.000    3.900    0.000    3.600 
#    0.000    3.000    0.000    0.000    0.000    0.000 
#    0.000    0.000    0.000    0.900    0.000    9.000 
#
# Total GULP energy -495766.723187 kJ/mol
# GULP energy per Si atom -12394.168080 kJ/mol
# Density = 1.468298 g / cm^3
# Si number density = 14.716476 Si / 1000 Ang^3
#
#
#
# Elastic Constant Matrix: (Units=GPa)
#
#
# Indices 1 2 3 4 5 6 
#
# 1 117.4785 26.4840 54.3356 0.0000 0.0000 0.0000
# 2 26.4840 54.9378 22.6973 0.0000 0.0000 0.0000
# 3 54.3356 22.6973 59.3828 0.0000 0.0000 0.0000
# 4 0.0000 0.0000 0.0000 19.4898 0.0000 0.0000
# 5 0.0000 0.0000 0.0000 0.0000 11.4857 0.0000
# 6 0.0000 0.0000 0.0000 0.0000 0.0000 10.2616
#
#
#
# Elastic Compliance Matrix: (Units=1/GPa)
#
#
# Indices 1 2 3 4 5 6 
#
# 1 0.014913 -0.001843 -0.012941 0.000000 0.000000 0.000000
# 2 -0.001843 0.021843 -0.006663 0.000000 0.000000 0.000000
# 3 -0.012941 -0.006663 0.031228 0.000000 0.000000 0.000000
# 4 0.000000 0.000000 0.000000 0.051309 0.000000 0.000000
# 5 0.000000 0.000000 0.000000 0.000000 0.087064 0.000000
# 6 0.000000 0.000000 0.000000 0.000000 0.000000 0.097450
#
#
# Mechanical properties :
#
#
# Convention : Reuss Voigt Hill
#
# Bulk Modulus (GPa) = 39.85536 48.75920 44.30728
# Shear Modulus (GPa) = 14.08190 16.79959 15.44074
#
# Velocity S-wave (km/s) = 3.09670 3.38235 3.24267
# Velocity P-wave (km/s) = 6.31878 6.96118 6.64775
#
# Compressibility (1/GPa) = 0.02509073
#
# Stress axis : x y z
#
# Youngs Moduli (GPa) = 67.05488 45.78033 32.02245
#
# Poissons Ratio (x) = 0.08435 0.41441
# Poissons Ratio (y) = 0.12355 0.21337
# Poissons Ratio (z) = 0.86778 0.30504
#
# Static dielectric constant tensor:
#      x y z
#    x 3.366520 0.000000 0.000000 
#    y 0.000000 2.703530 0.000000 
#    z 0.000000 0.000000 2.634850 
# 
# 
# High freq. dielectric constant tensor:
#      x y z
#    x 1.561990 0.000000 0.000000 
#    y 0.000000 1.552230 0.000000 
#    z 0.000000 0.000000 1.518030 
# 
# From -- ./inp_files/62212.got.cif
#   From: 2010.03.12/outbox.cif.g09.slc.cpg/sg74_32_cif.got.tgz:62212.got - 2010.04.16 15:46:19.
