data_PCOD8301850
_publ_section_title
;
Structure prediction by ZEFSAII (Michael W. Deem and Ramdas Pophale) SiO2 
 PCOD8301850
Probable space group: P 41
;
_chemical_formula_sum "Si O2"
_cell_formula_units_Z 24
_cell_length_a 11.199279
_cell_length_b 11.199279
_cell_length_c 10.957607
_cell_angle_alpha 90.000000
_cell_angle_beta 90.000000
_cell_angle_gamma 90.000000
_cell_volume 1374.345258
_symmetry_space_group_name_H-M "P 41"
_symmetry_group_IT_number 76
_symmetry_cell_setting 'tetragonal'
loop_
_space_group_symop_operation_xyz
x,y,z
-y,x,1/4+z
-x,-y,1/2+z
y,-x,3/4+z
loop_
_atom_site_type_symbol
_atom_site_label
_atom_site_fract_x
_atom_site_fract_y
_atom_site_fract_z
Si Si1 0.798401 0.628517 0.097460
Si Si2 0.859418 0.834226 0.920411
Si Si3 0.991482 0.678305 0.287857
Si Si4 0.386055 0.198511 0.714898
Si Si5 0.856033 0.190364 0.152510
Si Si6 0.875031 0.117251 0.408473
O O1 0.898583 0.601397 0.203385
O O2 0.676771 0.688344 0.149192
O O3 0.856162 0.718166 0.002260
O O4 0.763218 0.513586 0.018031
O O5 0.846430 0.798047 0.777227
O O6 0.987112 0.892315 0.947118
O O7 0.756296 0.927846 0.948671
O O8 0.913265 0.763096 0.372384
O O9 0.082130 0.602493 0.375045
O O10 0.312601 0.171846 0.836379
O O11 0.852358 0.211090 0.299171
O O12 0.986948 0.154989 0.107720
#
# Coordination Sequence:
#
# PCOD8301850 Si02
#       6
#     4   4   4   4   4   4
#     4  10  22  38  60  79 113 151 194 235 281 335
#     4  10  18  30  51  82 117 147 178 221 284 348
#     4  10  18  34  52  82 110 142 182 228 290 332
#     4  10  22  38  60  79 113 151 194 235 281 335
#     4  10  18  30  51  82 117 147 178 221 284 348
#     4  10  18  26  52  86 122 146 176 218 284 358
#
# _framework density 17.462861
#
# number of rings (size 3 to 8) (size 9 to 14) (size 15 to 20)
#    0.000    2.000    3.333    2.000    2.333    2.667 
#    0.000    0.000    3.667    0.000    0.000    0.000 
#    0.000    0.000    0.000    0.000    0.000    0.000 
#
# Total GULP energy -297372.432593 kJ/mol
# GULP energy per Si atom -12390.518025 kJ/mol
# Density = 1.742311 g / cm^3
# Si number density = 17.462861 Si / 1000 Ang^3
#
#
#
# Elastic Constant Matrix: (Units=GPa)
#
#
# Indices 1 2 3 4 5 6 
#
# 1 54.9789 13.1063 18.4284 0.0000 0.0000 -0.7988
# 2 13.1063 54.9789 18.4284 0.0000 0.0000 0.7988
# 3 18.4284 18.4284 101.0514 0.0000 0.0000 0.0000
# 4 0.0000 0.0000 0.0000 22.0161 0.0000 0.0000
# 5 0.0000 0.0000 0.0000 0.0000 22.0161 0.0000
# 6 -0.7988 0.7988 0.0000 0.0000 0.0000 3.3235
#
#
#
# Elastic Compliance Matrix: (Units=1/GPa)
#
#
# Indices 1 2 3 4 5 6 
#
# 1 0.020200 -0.003903 -0.002972 0.000000 0.000000 0.005793
# 2 -0.003903 0.020200 -0.002972 0.000000 0.000000 -0.005793
# 3 -0.002972 -0.002972 0.010980 0.000000 0.000000 0.000000
# 4 0.000000 0.000000 0.000000 0.045421 0.000000 0.000000
# 5 0.000000 0.000000 0.000000 0.000000 0.045421 0.000000
# 6 0.005793 -0.005793 0.000000 0.000000 0.000000 0.303671
#
#
# Mechanical properties :
#
#
# Convention : Reuss Voigt Hill
#
# Bulk Modulus (GPa) = 31.56081 34.54837 33.05459
# Shear Modulus (GPa) = 10.50092 20.20755 15.35423
#
# Velocity S-wave (km/s) = 2.45486 3.40541 2.96843
# Velocity P-wave (km/s) = 5.11346 5.94048 5.54242
#
# Compressibility (1/GPa) = 0.03168486
#
# Stress axis : x y z
#
# Youngs Moduli (GPa) = 49.50590 49.50590 91.07547
#
# Poissons Ratio (x) = 0.19324 0.27067
# Poissons Ratio (y) = 0.19324 0.27067
# Poissons Ratio (z) = 0.14713 0.14713
#
# Static dielectric constant tensor:
#      x y z
#    x 3.059430 0.000000 0.000000 
#    y 0.000000 3.059430 0.000000 
#    z 0.000000 0.000000 3.542440 
# 
# 
# High freq. dielectric constant tensor:
#      x y z
#    x 1.645370 0.000000 0.000000 
#    y 0.000000 1.645370 0.000000 
#    z 0.000000 0.000000 1.698750 
# 
# From -- ./inp_files/856.got.cif
#   From: 2010.03.12/outbox.cif.g09.slc.cpg/sg76_cif.got.tgz:856.got - 2010.04.16 16:34:25.
