data_PCOD8301467
_publ_section_title
;
Structure prediction by ZEFSAII (Michael W. Deem and Ramdas Pophale) SiO2 
 PCOD8301467
Probable space group: I M M A
;
_chemical_formula_sum "Si O2"
_cell_formula_units_Z 72
_cell_length_a 10.099067
_cell_length_b 23.058239
_cell_length_c 16.472256
_cell_angle_alpha 90.000000
_cell_angle_beta 90.000000
_cell_angle_gamma 90.000000
_cell_volume 3835.839906
_symmetry_space_group_name_H-M "I M M A"
_symmetry_group_IT_number 74
_symmetry_cell_setting 'orthorhombic'
loop_
_space_group_symop_operation_xyz
x,y,z
-x,1/2-y,z
x,-y,-z
-x,1/2+y,-z
-x,-y,-z
x,1/2+y,-z
-x,y,z
x,1/2-y,z
1/2+x,1/2+y,1/2+z
1/2-x,-y,1/2+z
1/2+x,1/2-y,1/2-z
1/2-x,y,1/2-z
1/2-x,1/2-y,1/2-z
1/2+x,y,1/2-z
1/2-x,1/2+y,1/2+z
1/2+x,-y,1/2+z
loop_
_atom_site_type_symbol
_atom_site_label
_atom_site_fract_x
_atom_site_fract_y
_atom_site_fract_z
Si Si1 0.000000 0.577619 0.139723
Si Si2 0.752428 0.634844 0.411490
Si Si3 0.500000 0.055010 0.352208
Si Si4 0.841956 0.250000 0.831773
Si Si5 0.764823 0.559611 0.552978
Si Si6 0.500000 0.096745 0.813775
Si Si7 0.500000 0.959374 0.827479
O O1 0.866382 0.588281 0.091071
O O2 0.000000 0.512306 0.165514
O O3 0.000000 0.617451 0.220373
O O4 0.692737 0.697536 0.392894
O O5 0.805323 0.617638 0.500962
O O6 0.868051 0.624847 0.347955
O O7 0.374481 0.073432 0.404785
O O8 0.500000 0.076470 0.258108
O O9 0.750000 0.250000 0.750000
O O10 0.000000 0.250000 0.809874
O O11 0.767661 0.500000 0.500000
O O12 0.869420 0.557559 0.624677
O O13 0.500000 0.028542 0.821881
#
# Coordination Sequence:
#
# PCOD8301467 Si02
#       7
#     8  16   8   8  16   8   8
#     4  11  19  34  52  84 115 159 200 239 297 352
#     4  12  24  37  59  82 117 162 204 253 294 347
#     4  11  22  34  58  85 124 156 199 242 304 377
#     4  12  28  46  62  88 123 165 212 252 297 361
#     4  12  21  37  57  89 120 158 202 250 306 361
#     4  11  21  34  56  84 121 161 200 237 299 356
#     4  11  22  38  56  89 126 164 193 244 304 377
#
# _framework density 18.770333999999998
#
# number of rings (size 3 to 8) (size 9 to 14) (size 15 to 20)
#    0.000    0.444    5.556    4.667    1.556    3.556 
#    0.000    0.000    0.000    0.000    0.000    4.667 
#    0.000    0.000    0.000    0.000    0.000    0.000 
#
# Total GULP energy -446058.881485 kJ/mol
# GULP energy per Si atom -12390.524486 kJ/mol
# Density = 1.872761 g / cm^3
# Si number density = 18.770334 Si / 1000 Ang^3
#
#
#
# Elastic Constant Matrix: (Units=GPa)
#
#
# Indices 1 2 3 4 5 6 
#
# 1 65.9011 8.7208 -8.3468 0.0000 0.0000 0.0000
# 2 8.7208 65.2654 27.3832 0.0001 0.0000 0.0000
# 3 -8.3468 27.3832 86.7145 0.0001 0.0000 0.0000
# 4 0.0000 0.0001 0.0001 25.3058 0.0000 0.0000
# 5 0.0000 0.0000 0.0000 0.0000 47.2968 0.0000
# 6 0.0000 0.0000 0.0000 0.0000 0.0000 20.6878
#
#
#
# Elastic Compliance Matrix: (Units=1/GPa)
#
#
# Indices 1 2 3 4 5 6 
#
# 1 0.015919 -0.003193 0.002541 0.000000 0.000000 0.000000
# 2 -0.003193 0.018303 -0.006087 0.000000 0.000000 0.000000
# 3 0.002541 -0.006087 0.013699 0.000000 0.000000 0.000000
# 4 0.000000 0.000000 0.000000 0.039517 0.000000 0.000000
# 5 0.000000 0.000000 0.000000 0.000000 0.021143 0.000000
# 6 0.000000 0.000000 0.000000 0.000000 0.000000 0.048338
#
#
# Mechanical properties :
#
#
# Convention : Reuss Voigt Hill
#
# Bulk Modulus (GPa) = 29.03511 30.37730 29.70620
# Shear Modulus (GPa) = 27.49114 31.33300 29.41207
#
# Velocity S-wave (km/s) = 3.83117 4.09012 3.96276
# Velocity P-wave (km/s) = 5.92222 6.20679 6.06617
#
# Compressibility (1/GPa) = 0.03444106
#
# Stress axis : x y z
#
# Youngs Moduli (GPa) = 62.81968 54.63697 72.99888
#
# Poissons Ratio (x) = 0.17446 -0.18546
# Poissons Ratio (y) = 0.20058 0.44435
# Poissons Ratio (z) = -0.15960 0.33258
#
# Static dielectric constant tensor:
#      x y z
#    x 3.654020 0.000000 0.000000 
#    y 0.000000 3.215140 0.000000 
#    z 0.000000 0.000000 3.739330 
# 
# 
# High freq. dielectric constant tensor:
#      x y z
#    x 1.754430 0.000000 0.000000 
#    y 0.000000 1.683240 0.000000 
#    z 0.000000 0.000000 1.737850 
# 
# From -- ./inp_files/39538.got.cif
#   From: 2010.03.12/outbox.cif.g09.slc.cpg/sg74_20_cif.got.tgz:39538.got - 2010.04.16 15:46:19.
