data_PCOD8301229
_publ_section_title
;
Structure prediction by ZEFSAII (Michael W. Deem and Ramdas Pophale) SiO2 
 PCOD8301229
Probable space group: I M M A
;
_chemical_formula_sum "Si O2"
_cell_formula_units_Z 56
_cell_length_a 14.059827
_cell_length_b 22.314576
_cell_length_c 9.485435
_cell_angle_alpha 90.000000
_cell_angle_beta 90.000000
_cell_angle_gamma 90.000000
_cell_volume 2975.951633
_symmetry_space_group_name_H-M "I M M A"
_symmetry_group_IT_number 74
_symmetry_cell_setting 'orthorhombic'
loop_
_space_group_symop_operation_xyz
x,y,z
-x,1/2-y,z
x,-y,-z
-x,1/2+y,-z
-x,-y,-z
x,1/2+y,-z
-x,y,z
x,1/2-y,z
1/2+x,1/2+y,1/2+z
1/2-x,-y,1/2+z
1/2+x,1/2-y,1/2-z
1/2-x,y,1/2-z
1/2-x,1/2-y,1/2-z
1/2+x,y,1/2-z
1/2-x,1/2+y,1/2+z
1/2+x,-y,1/2+z
loop_
_atom_site_type_symbol
_atom_site_label
_atom_site_fract_x
_atom_site_fract_y
_atom_site_fract_z
Si Si1 0.743417 0.612237 0.403866
Si Si2 0.890291 0.682631 0.892883
Si Si3 0.389804 0.099461 0.135853
Si Si4 0.250000 0.497786 0.250000
O O1 0.750000 0.644438 0.250000
O O2 0.660287 0.641694 0.492439
O O3 0.843366 0.617259 0.486657
O O4 0.719774 0.541446 0.380131
O O5 0.848938 0.750000 0.894354
O O6 0.874811 0.656285 0.737268
O O7 0.000000 0.682400 0.934661
O O8 0.500000 0.083915 0.111810
O O9 0.339723 0.042183 0.206256
#
# Coordination Sequence:
#
# PCOD8301229 Si02
#       4
#    16  16  16   8
#     4  10  23  37  60  88 127 157 197 250 314 362
#     4  10  22  41  64  89 118 161 213 254 297 358
#     4  11  22  39  63  88 120 164 208 252 298 357
#     4  10  22  38  58  90 124 158 202 250 306 370
#
# _framework density 18.817511
#
# number of rings (size 3 to 8) (size 9 to 14) (size 15 to 20)
#    0.857    0.857    2.857    0.857    0.000    7.429 
#    0.000    2.857    0.000    3.429    0.000    0.000 
#    0.000    0.000    0.000    0.000    0.000    0.000 
#
# Total GULP energy -347056.282776 kJ/mol
# GULP energy per Si atom -12394.867242 kJ/mol
# Density = 1.877468 g / cm^3
# Si number density = 18.817511 Si / 1000 Ang^3
#
#
#
# Elastic Constant Matrix: (Units=GPa)
#
#
# Indices 1 2 3 4 5 6 
#
# 1 114.0527 65.7091 81.0375 0.0001 0.0000 0.0000
# 2 65.7091 122.4626 49.9213 -0.0002 0.0000 0.0000
# 3 81.0375 49.9213 140.2766 -0.0013 0.0001 0.0000
# 4 0.0001 -0.0002 -0.0013 36.2217 0.0000 -0.0001
# 5 0.0000 0.0000 0.0001 0.0000 19.7416 0.0000
# 6 0.0000 0.0000 0.0000 -0.0001 0.0000 27.8007
#
#
#
# Elastic Compliance Matrix: (Units=1/GPa)
#
#
# Indices 1 2 3 4 5 6 
#
# 1 0.018432 -0.006491 -0.008338 0.000000 0.000000 0.000000
# 2 -0.006491 0.011837 -0.000463 0.000000 0.000000 0.000000
# 3 -0.008338 -0.000463 0.012110 0.000000 0.000000 0.000000
# 4 0.000000 0.000000 0.000000 0.027608 0.000000 0.000000
# 5 0.000000 0.000000 0.000000 0.000000 0.050655 0.000000
# 6 0.000000 0.000000 0.000000 0.000000 0.000000 0.035970
#
#
# Mechanical properties :
#
#
# Convention : Reuss Voigt Hill
#
# Bulk Modulus (GPa) = 84.77562 85.56975 85.17268
# Shear Modulus (GPa) = 26.16051 28.76107 27.46079
#
# Velocity S-wave (km/s) = 3.73261 3.91374 3.82425
# Velocity P-wave (km/s) = 7.98284 8.12375 8.05361
#
# Compressibility (1/GPa) = 0.01179584
#
# Stress axis : x y z
#
# Youngs Moduli (GPa) = 54.25364 84.47932 82.57368
#
# Poissons Ratio (x) = 0.54835 0.68851
# Poissons Ratio (y) = 0.35216 0.03822
# Poissons Ratio (z) = 0.45237 0.03910
#
# Static dielectric constant tensor:
#      x y z
#    x 3.385900 0.000000 0.000000 
#    y 0.000000 3.549160 0.000000 
#    z 0.000000 0.000000 3.586390 
# 
# 
# High freq. dielectric constant tensor:
#      x y z
#    x 1.725800 0.000000 0.000000 
#    y 0.000000 1.730710 0.000000 
#    z 0.000000 0.000000 1.737290 
# 
# From -- ./inp_files/8440.got.cif
#   From: 2010.03.12/outbox.cif.g09.slc.cpg/sg74_5_cif.got.tgz:8440.got - 2010.04.16 15:46:19.
