data_PCOD8301392
_publ_section_title
;
Structure prediction by ZEFSAII (Michael W. Deem and Ramdas Pophale) SiO2 
 PCOD8301392
Probable space group: I M M A
;
_chemical_formula_sum "Si O2"
_cell_formula_units_Z 84
_cell_length_a 13.729055
_cell_length_b 30.221698
_cell_length_c 10.842232
_cell_angle_alpha 90.000000
_cell_angle_beta 90.000000
_cell_angle_gamma 90.000000
_cell_volume 4498.608529
_symmetry_space_group_name_H-M "I M M A"
_symmetry_group_IT_number 74
_symmetry_cell_setting 'orthorhombic'
loop_
_space_group_symop_operation_xyz
x,y,z
-x,1/2-y,z
x,-y,-z
-x,1/2+y,-z
-x,-y,-z
x,1/2+y,-z
-x,y,z
x,1/2-y,z
1/2+x,1/2+y,1/2+z
1/2-x,-y,1/2+z
1/2+x,1/2-y,1/2-z
1/2-x,y,1/2-z
1/2-x,1/2-y,1/2-z
1/2+x,y,1/2-z
1/2-x,1/2+y,1/2+z
1/2+x,-y,1/2+z
loop_
_atom_site_type_symbol
_atom_site_label
_atom_site_fract_x
_atom_site_fract_y
_atom_site_fract_z
Si Si1 0.500000 0.700288 0.534673
Si Si2 0.112977 0.453468 0.555030
Si Si3 0.000000 0.250000 0.508089
Si Si4 0.820583 0.112457 0.352236
Si Si5 0.000000 0.673977 0.695060
Si Si6 0.696687 0.838929 0.456045
Si Si7 0.794057 0.750000 0.383879
Si Si8 0.250000 0.593725 0.250000
O O1 0.500000 0.750000 0.482327
O O2 0.500000 0.703442 0.682362
O O3 0.413108 0.672953 0.478284
O O4 0.150138 0.500000 0.500000
O O5 0.123462 0.421134 0.439908
O O6 0.175418 0.437692 0.673904
O O7 0.000000 0.455742 0.596450
O O8 0.000000 0.294096 0.423991
O O9 0.089506 0.250000 0.603467
O O10 0.750000 0.089172 0.250000
O O11 0.903397 0.144196 0.297834
O O12 0.740553 0.139612 0.424306
O O13 0.758753 0.794662 0.445154
O O14 0.694939 0.873232 0.342376
O O15 0.750000 0.750000 0.250000
#
# Coordination Sequence:
#
# PCOD8301392 Si02
#       8
#     8  16   4  16   8  16   8   8
#     4  12  24  35  58  90 127 170 207 264 308 354
#     4  10  23  43  68  96 124 159 205 256 322 394
#     4  12  26  38  68  84 124 174 222 268 318 370
#     4  11  22  39  64  88 123 161 207 262 310 381
#     4  12  22  38  60  91 120 167 213 258 317 365
#     4  11  23  39  58  87 124 166 214 252 310 364
#     4  12  24  41  56  87 119 167 219 261 304 365
#     4  10  24  43  64  90 126 168 202 261 312 380
#
# _framework density 18.672440999999999
#
# number of rings (size 3 to 8) (size 9 to 14) (size 15 to 20)
#    0.000    0.952    7.143    0.000    2.667    0.762 
#    0.000    2.857    0.000    0.571    0.000    0.000 
#    0.000    0.000    0.000    0.000    0.000    0.000 
#
# Total GULP energy -520529.866518 kJ/mol
# GULP energy per Si atom -12393.568250 kJ/mol
# Density = 1.862994 g / cm^3
# Si number density = 18.672441 Si / 1000 Ang^3
#
#
#
# Elastic Constant Matrix: (Units=GPa)
#
#
# Indices 1 2 3 4 5 6 
#
# 1 140.7582 48.0307 55.4394 0.0005 -0.0001 0.0002
# 2 48.0307 101.4411 30.3432 -0.0003 0.0001 0.0000
# 3 55.4394 30.3432 94.9217 0.0034 0.0018 0.0012
# 4 0.0005 -0.0003 0.0034 32.4492 0.0013 0.0011
# 5 -0.0001 0.0001 0.0018 0.0013 8.1587 0.0008
# 6 0.0002 0.0000 0.0012 0.0011 0.0008 28.7319
#
#
#
# Elastic Compliance Matrix: (Units=1/GPa)
#
#
# Indices 1 2 3 4 5 6 
#
# 1 0.010166 -0.003359 -0.004864 0.000000 0.000001 0.000000
# 2 -0.003359 0.012010 -0.001878 0.000000 0.000000 0.000000
# 3 -0.004864 -0.001878 0.013976 -0.000001 -0.000003 -0.000001
# 4 0.000000 0.000000 -0.000001 0.030817 -0.000005 -0.000001
# 5 0.000001 0.000000 -0.000003 -0.000005 0.122569 -0.000003
# 6 0.000000 0.000000 -0.000001 -0.000001 -0.000003 0.034805
#
#
# Mechanical properties :
#
#
# Convention : Reuss Voigt Hill
#
# Bulk Modulus (GPa) = 62.68888 67.19418 64.94153
# Shear Modulus (GPa) = 20.01120 27.42180 23.71650
#
# Velocity S-wave (km/s) = 3.27723 3.83635 3.56776
# Velocity P-wave (km/s) = 6.92576 7.46239 7.19908
#
# Compressibility (1/GPa) = 0.01595179
#
# Stress axis : x y z
#
# Youngs Moduli (GPa) = 98.36557 83.26546 71.55130
#
# Poissons Ratio (x) = 0.27965 0.34802
# Poissons Ratio (y) = 0.33037 0.13434
# Poissons Ratio (z) = 0.47845 0.15633
#
# Static dielectric constant tensor:
#      x y z
#    x 3.434780 0.000000 0.000000 
#    y 0.000000 3.490520 0.000000 
#    z 0.000000 0.000000 3.526130 
# 
# 
# High freq. dielectric constant tensor:
#      x y z
#    x 1.736990 0.000000 0.000000 
#    y 0.000000 1.726550 0.000000 
#    z 0.000000 0.000000 1.731270 
# 
# From -- ./inp_files/19122.got.cif
#   From: 2010.03.12/outbox.cif.g09.slc.cpg/sg74_10_cif.got.tgz:19122.got - 2010.04.16 15:46:19.
