data_PCOD8301361
_publ_section_title
;
Structure prediction by ZEFSAII (Michael W. Deem and Ramdas Pophale) SiO2 
 PCOD8301361
Probable space group: I M M A
;
_chemical_formula_sum "Si O2"
_cell_formula_units_Z 56
_cell_length_a 9.551886
_cell_length_b 15.114521
_cell_length_c 18.592406
_cell_angle_alpha 90.000000
_cell_angle_beta 90.000000
_cell_angle_gamma 90.000000
_cell_volume 2684.226214
_symmetry_space_group_name_H-M "I M M A"
_symmetry_group_IT_number 74
_symmetry_cell_setting 'orthorhombic'
loop_
_space_group_symop_operation_xyz
x,y,z
-x,1/2-y,z
x,-y,-z
-x,1/2+y,-z
-x,-y,-z
x,1/2+y,-z
-x,y,z
x,1/2-y,z
1/2+x,1/2+y,1/2+z
1/2-x,-y,1/2+z
1/2+x,1/2-y,1/2-z
1/2-x,y,1/2-z
1/2-x,1/2-y,1/2-z
1/2+x,y,1/2-z
1/2-x,1/2+y,1/2+z
1/2+x,-y,1/2+z
loop_
_atom_site_type_symbol
_atom_site_label
_atom_site_fract_x
_atom_site_fract_y
_atom_site_fract_z
Si Si1 0.154927 0.066693 0.312493
Si Si2 0.000000 0.897688 0.290191
Si Si3 0.299321 0.750000 0.461027
Si Si4 0.843791 0.921500 0.949364
Si Si5 0.500000 0.750000 0.093074
Si Si6 0.500000 0.750000 0.330532
O O1 0.250000 0.109546 0.250000
O O2 0.231716 0.086689 0.386602
O O3 0.000000 0.111712 0.314517
O O4 0.136836 0.961301 0.295568
O O5 0.000000 0.838783 0.217911
O O6 0.000000 0.837275 0.359684
O O7 0.353770 0.666062 0.503752
O O8 0.361577 0.750000 0.379973
O O9 0.132674 0.750000 0.458749
O O10 0.000000 0.941804 0.918355
O O11 0.791248 0.000000 0.000000
#
# Coordination Sequence:
#
# PCOD8301361 Si02
#       6
#    16   8   8  16   4   4
#     4  10  23  39  65  93 129 172 226 276 332 402
#     4   9  24  37  64  96 140 176 216 276 337 420
#     4  12  26  43  63 102 138 182 223 286 335 419
#     4  11  24  42  67  95 133 183 230 282 340 407
#     4  11  24  34  60  94 135 178 210 270 347 392
#     4  11  24  40  66  98 145 176 220 274 361 414
#
# _framework density 20.862624
#
# number of rings (size 3 to 8) (size 9 to 14) (size 15 to 20)
#    0.857    0.571    1.429    2.571   10.000    1.714 
#    0.000    0.714    0.000    0.000    0.000    0.000 
#    0.000    0.000    0.000    0.000    0.000    0.000 
#
# Total GULP energy -347116.173096 kJ/mol
# GULP energy per Si atom -12397.006182 kJ/mol
# Density = 2.081514 g / cm^3
# Si number density = 20.862624 Si / 1000 Ang^3
#
#
#
# Elastic Constant Matrix: (Units=GPa)
#
#
# Indices 1 2 3 4 5 6 
#
# 1 145.3053 -6.0512 53.7970 0.0000 0.0000 0.0000
# 2 -6.0512 77.5807 26.9179 0.0000 0.0000 0.0000
# 3 53.7970 26.9179 117.8595 0.0000 0.0000 0.0000
# 4 0.0000 0.0000 0.0000 30.5650 0.0000 0.0000
# 5 0.0000 0.0000 0.0000 0.0000 43.9831 0.0000
# 6 0.0000 0.0000 0.0000 0.0000 0.0000 27.5037
#
#
#
# Elastic Compliance Matrix: (Units=1/GPa)
#
#
# Indices 1 2 3 4 5 6 
#
# 1 0.008618 0.002212 -0.004439 0.000000 0.000000 0.000000
# 2 0.002212 0.014567 -0.004337 0.000000 0.000000 0.000000
# 3 -0.004439 -0.004337 0.011501 0.000000 0.000000 0.000000
# 4 0.000000 0.000000 0.000000 0.032717 0.000000 0.000000
# 5 0.000000 0.000000 0.000000 0.000000 0.022736 0.000000
# 6 0.000000 0.000000 0.000000 0.000000 0.000000 0.036359
#
#
# Mechanical properties :
#
#
# Convention : Reuss Voigt Hill
#
# Bulk Modulus (GPa) = 46.38356 54.45253 50.41804
# Shear Modulus (GPa) = 34.05746 38.14915 36.10331
#
# Velocity S-wave (km/s) = 4.04476 4.28084 4.16447
# Velocity P-wave (km/s) = 6.64037 7.11276 6.88062
#
# Compressibility (1/GPa) = 0.02155936
#
# Stress axis : x y z
#
# Youngs Moduli (GPa) = 116.04207 68.64802 86.94733
#
# Poissons Ratio (x) = -0.15187 0.38594
# Poissons Ratio (y) = -0.25672 0.37707
# Poissons Ratio (z) = 0.51508 0.29771
#
# Static dielectric constant tensor:
#      x y z
#    x 3.881480 0.000000 0.000000 
#    y 0.000000 3.557530 0.000000 
#    z 0.000000 0.000000 3.627050 
# 
# 
# High freq. dielectric constant tensor:
#      x y z
#    x 1.832120 0.000000 0.000000 
#    y 0.000000 1.799180 0.000000 
#    z 0.000000 0.000000 1.816240 
# 
# From -- ./inp_files/38926.got.cif
#   From: 2010.03.12/outbox.cif.g09.slc.cpg/sg74_20_cif.got.tgz:38926.got - 2010.04.16 15:46:19.
