data_PCOD8301078
_publ_section_title
;
Structure prediction by ZEFSAII (Michael W. Deem and Ramdas Pophale) SiO2 
 PCOD8301078
Probable space group: I M M A
;
_chemical_formula_sum "Si O2"
_cell_formula_units_Z 72
_cell_length_a 17.412189
_cell_length_b 12.766515
_cell_length_c 15.755786
_cell_angle_alpha 90.000000
_cell_angle_beta 90.000000
_cell_angle_gamma 90.000000
_cell_volume 3502.400497
_symmetry_space_group_name_H-M "I M M A"
_symmetry_group_IT_number 74
_symmetry_cell_setting 'orthorhombic'
loop_
_space_group_symop_operation_xyz
x,y,z
-x,1/2-y,z
x,-y,-z
-x,1/2+y,-z
-x,-y,-z
x,1/2+y,-z
-x,y,z
x,1/2-y,z
1/2+x,1/2+y,1/2+z
1/2-x,-y,1/2+z
1/2+x,1/2-y,1/2-z
1/2-x,y,1/2-z
1/2-x,1/2-y,1/2-z
1/2+x,y,1/2-z
1/2-x,1/2+y,1/2+z
1/2+x,-y,1/2+z
loop_
_atom_site_type_symbol
_atom_site_label
_atom_site_fract_x
_atom_site_fract_y
_atom_site_fract_z
Si Si1 0.188252 0.126726 0.402837
Si Si2 0.588708 0.629528 0.374005
Si Si3 0.687344 0.000000 0.500000
Si Si4 0.915081 0.127213 0.557943
Si Si5 0.167059 0.040118 0.717702
O O1 0.202986 0.250000 0.399511
O O2 0.118861 0.094267 0.466055
O O3 0.264592 0.066302 0.432071
O O4 0.168446 0.083575 0.308221
O O5 0.500000 0.619511 0.397205
O O6 0.612413 0.750000 0.357983
O O7 0.635968 0.584657 0.452065
O O8 0.603978 0.562833 0.288863
O O9 0.924080 0.250000 0.559494
O O10 0.854368 0.099055 0.630788
O O11 0.000000 0.076363 0.570442
O O12 0.250000 0.080015 0.750000
#
# Coordination Sequence:
#
# PCOD8301078 Si02
#       5
#    16  16   8  16  16
#     4  11  23  40  63  93 127 166 211 257 309 371
#     4  11  25  43  66  95 125 161 208 261 314 370
#     4  12  21  46  65  94 118 166 206 266 315 376
#     4  10  21  38  63  94 126 162 204 255 315 372
#     4  12  22  39  60  93 127 166 205 252 311 368
#
# _framework density 20.557327999999998
#
# number of rings (size 3 to 8) (size 9 to 14) (size 15 to 20)
#    0.000    0.889    4.444    2.333    0.000    8.444 
#    0.000    0.000    0.000    2.667    0.000    0.000 
#    0.000    0.000    0.000    0.000    0.000    0.000 
#
# Total GULP energy -446432.106976 kJ/mol
# GULP energy per Si atom -12400.891860 kJ/mol
# Density = 2.051054 g / cm^3
# Si number density = 20.557328 Si / 1000 Ang^3
#
#
#
# Elastic Constant Matrix: (Units=GPa)
#
#
# Indices 1 2 3 4 5 6 
#
# 1 128.9831 58.0929 45.9860 0.0000 0.0000 0.0000
# 2 58.0929 99.6732 53.9365 0.0000 0.0000 0.0000
# 3 45.9860 53.9365 95.9022 0.0000 0.0000 0.0000
# 4 0.0000 0.0000 0.0000 34.9464 0.0000 0.0000
# 5 0.0000 0.0000 0.0000 0.0000 55.6107 0.0000
# 6 0.0000 0.0000 0.0000 0.0000 0.0000 30.1564
#
#
#
# Elastic Compliance Matrix: (Units=1/GPa)
#
#
# Indices 1 2 3 4 5 6 
#
# 1 0.010875 -0.005055 -0.002372 0.000000 0.000000 0.000000
# 2 -0.005055 0.016772 -0.007009 0.000000 0.000000 0.000000
# 3 -0.002372 -0.007009 0.015506 0.000000 0.000000 0.000000
# 4 0.000000 0.000000 0.000000 0.028615 0.000000 0.000000
# 5 0.000000 0.000000 0.000000 0.000000 0.017982 0.000000
# 6 0.000000 0.000000 0.000000 0.000000 0.000000 0.033160
#
#
# Mechanical properties :
#
#
# Convention : Reuss Voigt Hill
#
# Bulk Modulus (GPa) = 70.01653 71.17659 70.59656
# Shear Modulus (GPa) = 31.94014 35.24558 33.59286
#
# Velocity S-wave (km/s) = 3.94599 4.14515 4.04679
# Velocity P-wave (km/s) = 7.40906 7.59001 7.50008
#
# Compressibility (1/GPa) = 0.01428234
#
# Stress axis : x y z
#
# Youngs Moduli (GPa) = 91.95140 59.62443 64.48978
#
# Poissons Ratio (x) = 0.30140 0.15296
# Poissons Ratio (y) = 0.46482 0.45199
# Poissons Ratio (z) = 0.21809 0.41789
#
# Static dielectric constant tensor:
#      x y z
#    x 3.941420 0.000000 0.000000 
#    y 0.000000 3.920350 0.000000 
#    z 0.000000 0.000000 3.821600 
# 
# 
# High freq. dielectric constant tensor:
#      x y z
#    x 1.811020 0.000000 0.000000 
#    y 0.000000 1.811720 0.000000 
#    z 0.000000 0.000000 1.801210 
# 
# From -- ./inp_files/33812.got.cif
#   From: 2010.03.12/outbox.cif.g09.slc.cpg/sg74_17_cif.got.tgz:33812.got - 2010.04.16 15:46:19.
