data_PCOD8301289
_publ_section_title
;
Structure prediction by ZEFSAII (Michael W. Deem and Ramdas Pophale) SiO2 
 PCOD8301289
Probable space group: I M M A
;
_chemical_formula_sum "Si O2"
_cell_formula_units_Z 96
_cell_length_a 28.106084
_cell_length_b 9.038499
_cell_length_c 18.384750
_cell_angle_alpha 90.000000
_cell_angle_beta 90.000000
_cell_angle_gamma 90.000000
_cell_volume 4670.403282
_symmetry_space_group_name_H-M "I M M A"
_symmetry_group_IT_number 74
_symmetry_cell_setting 'orthorhombic'
loop_
_space_group_symop_operation_xyz
x,y,z
-x,1/2-y,z
x,-y,-z
-x,1/2+y,-z
-x,-y,-z
x,1/2+y,-z
-x,y,z
x,1/2-y,z
1/2+x,1/2+y,1/2+z
1/2-x,-y,1/2+z
1/2+x,1/2-y,1/2-z
1/2-x,y,1/2-z
1/2-x,1/2-y,1/2-z
1/2+x,y,1/2-z
1/2-x,1/2+y,1/2+z
1/2+x,-y,1/2+z
loop_
_atom_site_type_symbol
_atom_site_label
_atom_site_fract_x
_atom_site_fract_y
_atom_site_fract_z
Si Si1 0.799845 0.585017 0.683526
Si Si2 0.271377 0.072333 0.577301
Si Si3 0.848967 0.573613 0.834371
Si Si4 0.372464 0.090064 0.061700
Si Si5 0.053453 0.089291 0.632877
Si Si6 0.553750 0.425220 0.702255
O O1 0.776417 0.750000 0.687390
O O2 0.764246 0.473441 0.643044
O O3 0.817097 0.530688 0.762947
O O4 0.847739 0.593416 0.638624
O O5 0.272200 0.250000 0.570204
O O6 0.255888 0.000000 0.500000
O O7 0.323120 0.006838 0.598020
O O8 0.850312 0.750000 0.844678
O O9 0.903326 0.514157 0.836101
O O10 0.380495 0.250000 0.028257
O O11 0.423240 0.016655 0.073977
O O12 0.343230 0.000000 0.000000
O O13 0.078773 0.250000 0.631642
O O14 0.056402 0.025013 0.714120
O O15 0.000000 0.105682 0.607334
O O16 0.500000 0.465272 0.672665
O O17 0.562058 0.250000 0.693107
#
# Coordination Sequence:
#
# PCOD8301289 Si02
#       6
#    16  16  16  16  16  16
#     4  10  22  40  60  87 120 156 199 247 296 348
#     4  12  26  43  64  90 121 160 201 246 302 361
#     4  11  22  39  64  94 126 159 199 248 297 354
#     4  11  22  35  51  75 107 150 196 243 297 349
#     4   9  18  33  52  74 104 144 190 242 296 348
#     4   9  18  34  58  89 123 157 197 246 297 351
#
# _framework density 20.554970000000001
#
# number of rings (size 3 to 8) (size 9 to 14) (size 15 to 20)
#    0.000    1.667    1.667    4.500    0.000    7.000 
#    0.000    1.667    0.000    0.500    0.000    0.000 
#    0.000    0.000    0.000    0.000    0.000    0.000 
#
# Total GULP energy -594716.094785 kJ/mol
# GULP energy per Si atom -12389.918641 kJ/mol
# Density = 2.050819 g / cm^3
# Si number density = 20.554970 Si / 1000 Ang^3
#
#
#
# Elastic Constant Matrix: (Units=GPa)
#
#
# Indices 1 2 3 4 5 6 
#
# 1 105.9254 54.6638 28.4644 0.0000 0.0000 0.0000
# 2 54.6638 128.1482 23.1037 0.0000 0.0000 0.0000
# 3 28.4644 23.1037 43.4081 0.0000 0.0000 0.0000
# 4 0.0000 0.0000 0.0000 24.3704 0.0000 0.0000
# 5 0.0000 0.0000 0.0000 0.0000 7.8830 0.0000
# 6 0.0000 0.0000 0.0000 0.0000 0.0000 29.2114
#
#
#
# Elastic Compliance Matrix: (Units=1/GPa)
#
#
# Indices 1 2 3 4 5 6 
#
# 1 0.013553 -0.004623 -0.006427 0.000000 0.000000 0.000000
# 2 -0.004623 0.010208 -0.002402 0.000000 0.000000 0.000000
# 3 -0.006427 -0.002402 0.028530 0.000000 0.000000 0.000000
# 4 0.000000 0.000000 0.000000 0.041033 0.000000 0.000000
# 5 0.000000 0.000000 0.000000 0.000000 0.126855 0.000000
# 6 0.000000 0.000000 0.000000 0.000000 0.000000 0.034233
#
#
# Mechanical properties :
#
#
# Convention : Reuss Voigt Hill
#
# Bulk Modulus (GPa) = 39.38832 54.43839 46.91335
# Shear Modulus (GPa) = 17.25452 23.70962 20.48207
#
# Velocity S-wave (km/s) = 2.90044 3.39997 3.16009
# Velocity P-wave (km/s) = 5.51550 6.47725 6.01563
#
# Compressibility (1/GPa) = 0.02538824
#
# Stress axis : x y z
#
# Youngs Moduli (GPa) = 73.78312 97.95842 35.05067
#
# Poissons Ratio (x) = 0.45283 0.22527
# Poissons Ratio (y) = 0.34107 0.08420
# Poissons Ratio (z) = 0.47420 0.23531
#
# Static dielectric constant tensor:
#      x y z
#    x 3.761310 0.000000 0.000000 
#    y 0.000000 3.842240 0.000000 
#    z 0.000000 0.000000 3.634620 
# 
# 
# High freq. dielectric constant tensor:
#      x y z
#    x 1.807440 0.000000 0.000000 
#    y 0.000000 1.802610 0.000000 
#    z 0.000000 0.000000 1.784920 
# 
# From -- ./inp_files/55088.got.cif
#   From: 2010.03.12/outbox.cif.g09.slc.cpg/sg74_28_cif.got.tgz:55088.got - 2010.04.16 15:46:19.
