data_PCOD8301852
_publ_section_title
;
Structure prediction by ZEFSAII (Michael W. Deem and Ramdas Pophale) SiO2 
 PCOD8301852
Probable space group: P 41
;
_chemical_formula_sum "Si O2"
_cell_formula_units_Z 24
_cell_length_a 9.681824
_cell_length_b 9.681824
_cell_length_c 13.061161
_cell_angle_alpha 90.000000
_cell_angle_beta 90.000000
_cell_angle_gamma 90.000000
_cell_volume 1224.323400
_symmetry_space_group_name_H-M "P 41"
_symmetry_group_IT_number 76
_symmetry_cell_setting 'tetragonal'
loop_
_space_group_symop_operation_xyz
x,y,z
-y,x,1/4+z
-x,-y,1/2+z
y,-x,3/4+z
loop_
_atom_site_type_symbol
_atom_site_label
_atom_site_fract_x
_atom_site_fract_y
_atom_site_fract_z
Si Si1 0.064405 0.335581 0.400650
Si Si2 0.554377 0.354044 0.994523
Si Si3 0.176852 0.537166 0.563921
Si Si4 0.845565 0.298953 0.569081
Si Si5 0.926569 0.542180 0.687927
Si Si6 0.382272 0.609208 0.935850
O O1 0.156996 0.436934 0.468172
O O2 0.152387 0.204663 0.361529
O O3 0.017126 0.425278 0.301565
O O4 0.938262 0.275674 0.467198
O O5 0.551193 0.242816 0.905614
O O6 0.515184 0.511622 0.958816
O O7 0.712532 0.347143 0.032445
O O8 0.449877 0.307942 0.084475
O O9 0.034215 0.607192 0.604426
O O10 0.926945 0.377654 0.660537
O O11 0.719738 0.400439 0.533913
O O12 0.772099 0.595075 0.672014
#
# Coordination Sequence:
#
# PCOD8301852 Si02
#       6
#     4   4   4   4   4   4
#     4  10  22  36  62  79 115 152 193 237 288 355
#     4  10  20  33  57  91 117 142 190 242 283 337
#     4  10  22  34  56  87 119 146 185 238 294 339
#     4  10  20  36  59  83 111 155 193 232 289 350
#     4  10  20  36  55  85 115 150 187 230 291 347
#     4  10  18  33  59  85 117 149 188 235 287 342
#
# _framework density 19.602664000000001
#
# number of rings (size 3 to 8) (size 9 to 14) (size 15 to 20)
#    0.000    2.000    1.667    2.000    9.333    0.000 
#    0.000    0.000   14.667    0.000    0.000    0.000 
#    0.000    0.000    0.000    0.000    0.000    0.000 
#
# Total GULP energy -297374.475407 kJ/mol
# GULP energy per Si atom -12390.603142 kJ/mol
# Density = 1.955805 g / cm^3
# Si number density = 19.602664 Si / 1000 Ang^3
#
#
#
# Elastic Constant Matrix: (Units=GPa)
#
#
# Indices 1 2 3 4 5 6 
#
# 1 71.3843 11.7886 28.8422 0.0000 0.0000 3.4203
# 2 11.7886 71.3843 28.8422 0.0000 0.0000 -3.4203
# 3 28.8422 28.8422 113.4001 0.0000 0.0000 0.0000
# 4 0.0000 0.0000 0.0000 34.9403 0.0000 0.0000
# 5 0.0000 0.0000 0.0000 0.0000 34.9403 0.0000
# 6 3.4203 -3.4203 0.0000 0.0000 0.0000 18.9570
#
#
#
# Elastic Compliance Matrix: (Units=1/GPa)
#
#
# Indices 1 2 3 4 5 6 
#
# 1 0.015866 -0.001268 -0.003713 0.000000 0.000000 -0.003091
# 2 -0.001268 0.015866 -0.003713 0.000000 0.000000 0.003091
# 3 -0.003713 -0.003713 0.010707 0.000000 0.000000 0.000000
# 4 0.000000 0.000000 0.000000 0.028620 0.000000 0.000000
# 5 0.000000 0.000000 0.000000 0.000000 0.028620 0.000000
# 6 -0.003091 0.003091 0.000000 0.000000 0.000000 0.053866
#
#
# Mechanical properties :
#
#
# Convention : Reuss Voigt Hill
#
# Bulk Modulus (GPa) = 39.91728 43.90166 41.90947
# Shear Modulus (GPa) = 27.88849 30.21389 29.05119
#
# Velocity S-wave (km/s) = 3.77595 3.93022 3.85385
# Velocity P-wave (km/s) = 6.27836 6.56048 6.42097
#
# Compressibility (1/GPa) = 0.02505181
#
# Stress axis : x y z
#
# Youngs Moduli (GPa) = 63.02622 63.02622 93.39661
#
# Poissons Ratio (x) = 0.07993 0.34677
# Poissons Ratio (y) = 0.07993 0.34677
# Poissons Ratio (z) = 0.23401 0.23401
#
# Static dielectric constant tensor:
#      x y z
#    x 3.425230 0.000000 0.000000 
#    y 0.000000 3.425230 0.000000 
#    z 0.000000 0.000000 3.980610 
# 
# 
# High freq. dielectric constant tensor:
#      x y z
#    x 1.742130 0.000000 0.000000 
#    y 0.000000 1.742130 0.000000 
#    z 0.000000 0.000000 1.787460 
# 
# From -- ./inp_files/1099.got.cif
#   From: 2010.03.12/outbox.cif.g09.slc.cpg/sg76_cif.got.tgz:1099.got - 2010.04.16 16:34:25.
