data_PCOD8301071
_publ_section_title
;
Structure prediction by ZEFSAII (Michael W. Deem and Ramdas Pophale) SiO2 
 PCOD8301071
Probable space group: I M M A
;
_chemical_formula_sum "Si O2"
_cell_formula_units_Z 120
_cell_length_a 17.332567
_cell_length_b 22.378536
_cell_length_c 15.335350
_cell_angle_alpha 90.000000
_cell_angle_beta 90.000000
_cell_angle_gamma 90.000000
_cell_volume 5948.236830
_symmetry_space_group_name_H-M "I M M A"
_symmetry_group_IT_number 74
_symmetry_cell_setting 'orthorhombic'
loop_
_space_group_symop_operation_xyz
x,y,z
-x,1/2-y,z
x,-y,-z
-x,1/2+y,-z
-x,-y,-z
x,1/2+y,-z
-x,y,z
x,1/2-y,z
1/2+x,1/2+y,1/2+z
1/2-x,-y,1/2+z
1/2+x,1/2-y,1/2-z
1/2-x,y,1/2-z
1/2-x,1/2-y,1/2-z
1/2+x,y,1/2-z
1/2-x,1/2+y,1/2+z
1/2+x,-y,1/2+z
loop_
_atom_site_type_symbol
_atom_site_label
_atom_site_fract_x
_atom_site_fract_y
_atom_site_fract_z
Si Si1 0.591299 0.105039 0.316654
Si Si2 0.327066 0.362352 0.647127
Si Si3 0.408476 0.316972 0.154459
Si Si4 0.305233 0.500000 0.000000
Si Si5 0.200585 0.495312 0.836682
Si Si6 0.587627 0.681990 0.518721
Si Si7 0.844984 0.820345 0.331507
Si Si8 0.588322 0.887227 0.015372
O O1 0.500000 0.094033 0.310828
O O2 0.621939 0.143230 0.234598
O O3 0.632912 0.041686 0.317193
O O4 0.615694 0.140540 0.402783
O O5 0.340835 0.433140 0.638839
O O6 0.360509 0.328675 0.564666
O O7 0.236505 0.350212 0.648094
O O8 0.369262 0.336329 0.732821
O O9 0.500000 0.312740 0.158165
O O10 0.373327 0.250000 0.159812
O O11 0.380963 0.347741 0.065186
O O12 0.253145 0.517330 0.916961
O O13 0.358934 0.555048 0.026015
O O14 0.250000 0.485728 0.750000
O O15 0.500000 0.666813 0.493456
O O16 0.595933 0.750000 0.550498
O O17 0.840019 0.750000 0.343919
O O18 0.907553 0.847436 0.397391
O O19 0.500000 0.907219 0.000623
#
# Coordination Sequence:
#
# PCOD8301071 Si02
#       8
#    16  16  16   8  16  16  16  16
#     4  10  22  39  63  93 122 160 205 250 301 357
#     4  11  21  41  60  87 117 162 202 246 303 363
#     4   9  18  36  61  88 122 157 193 245 305 360
#     4  12  23  42  61  86 124 168 198 252 307 356
#     4  12  23  41  64  85 123 161 207 251 299 362
#     4  10  21  38  62  92 124 158 200 250 303 359
#     4  11  22  39  63  87 120 159 200 247 305 368
#     4  11  23  39  62  92 121 158 207 251 302 361
#
# _framework density 20.174045
#
# number of rings (size 3 to 8) (size 9 to 14) (size 15 to 20)
#    0.000    1.333    2.667    4.200    0.000    3.467 
#    0.000    5.000    0.000    1.600    0.000    0.000 
#    0.000    0.000    0.000    0.000    0.000    0.000 
#
# Total GULP energy -744293.754955 kJ/mol
# GULP energy per Si atom -12404.895916 kJ/mol
# Density = 2.012813 g / cm^3
# Si number density = 20.174045 Si / 1000 Ang^3
#
#
#
# Elastic Constant Matrix: (Units=GPa)
#
#
# Indices 1 2 3 4 5 6 
#
# 1 39.7995 25.8545 24.1898 0.0000 0.0000 0.0000
# 2 25.8545 134.3628 21.0310 0.0000 0.0000 0.0000
# 3 24.1898 21.0310 112.7455 0.0000 0.0000 0.0000
# 4 0.0000 0.0000 0.0000 36.7029 0.0000 0.0000
# 5 0.0000 0.0000 0.0000 0.0000 28.5452 0.0000
# 6 0.0000 0.0000 0.0000 0.0000 0.0000 26.2143
#
#
#
# Elastic Compliance Matrix: (Units=1/GPa)
#
#
# Indices 1 2 3 4 5 6 
#
# 1 0.032136 -0.005258 -0.005914 0.000000 0.000000 0.000000
# 2 -0.005258 0.008527 -0.000462 0.000000 0.000000 0.000000
# 3 -0.005914 -0.000462 0.010225 0.000000 0.000000 0.000000
# 4 0.000000 0.000000 0.000000 0.027246 0.000000 0.000000
# 5 0.000000 0.000000 0.000000 0.000000 0.035032 0.000000
# 6 0.000000 0.000000 0.000000 0.000000 0.000000 0.038147
#
#
# Mechanical properties :
#
#
# Convention : Reuss Voigt Hill
#
# Bulk Modulus (GPa) = 36.20761 47.67317 41.94039
# Shear Modulus (GPa) = 27.20526 32.68131 29.94329
#
# Velocity S-wave (km/s) = 3.67621 4.02925 3.85677
# Velocity P-wave (km/s) = 6.00050 6.73266 6.37710
#
# Compressibility (1/GPa) = 0.02761850
#
# Stress axis : x y z
#
# Youngs Moduli (GPa) = 31.11751 117.27893 97.80267
#
# Poissons Ratio (x) = 0.61666 0.57841
# Poissons Ratio (y) = 0.16362 0.04522
# Poissons Ratio (z) = 0.18403 0.05423
#
# Static dielectric constant tensor:
#      x y z
#    x 3.382210 0.000000 0.000000 
#    y 0.000000 3.781110 0.000000 
#    z 0.000000 0.000000 3.924970 
# 
# 
# High freq. dielectric constant tensor:
#      x y z
#    x 1.763290 0.000000 0.000000 
#    y 0.000000 1.802930 0.000000 
#    z 0.000000 0.000000 1.805100 
# 
# From -- ./inp_files/35728.got.cif
#   From: 2010.03.12/outbox.cif.g09.slc.cpg/sg74_18_cif.got.tgz:35728.got - 2010.04.16 15:46:19.
