data_PCOD8301273
_publ_section_title
;
Structure prediction by ZEFSAII (Michael W. Deem and Ramdas Pophale) SiO2 
 PCOD8301273
Probable space group: I M M A
;
_chemical_formula_sum "Si O2"
_cell_formula_units_Z 80
_cell_length_a 11.603180
_cell_length_b 12.344158
_cell_length_c 30.104315
_cell_angle_alpha 90.000000
_cell_angle_beta 90.000000
_cell_angle_gamma 90.000000
_cell_volume 4311.885809
_symmetry_space_group_name_H-M "I M M A"
_symmetry_group_IT_number 74
_symmetry_cell_setting 'orthorhombic'
loop_
_space_group_symop_operation_xyz
x,y,z
-x,1/2-y,z
x,-y,-z
-x,1/2+y,-z
-x,-y,-z
x,1/2+y,-z
-x,y,z
x,1/2-y,z
1/2+x,1/2+y,1/2+z
1/2-x,-y,1/2+z
1/2+x,1/2-y,1/2-z
1/2-x,y,1/2-z
1/2-x,1/2-y,1/2-z
1/2+x,y,1/2-z
1/2-x,1/2+y,1/2+z
1/2+x,-y,1/2+z
loop_
_atom_site_type_symbol
_atom_site_label
_atom_site_fract_x
_atom_site_fract_y
_atom_site_fract_z
Si Si1 0.207157 0.626790 0.200582
Si Si2 0.750030 0.525622 0.548702
Si Si3 0.131093 0.374914 0.619643
Si Si4 0.807718 0.250000 0.063942
Si Si5 0.500000 0.250000 0.509322
Si Si6 0.000000 0.750000 0.862520
Si Si7 0.000000 0.537147 0.064731
Si Si8 0.500000 0.492063 0.333525
O O1 0.159560 0.750000 0.194576
O O2 0.250000 0.607965 0.250000
O O3 0.314478 0.606565 0.167879
O O4 0.111215 0.536814 0.191732
O O5 0.800167 0.500000 0.500000
O O6 0.797806 0.439312 0.582961
O O7 0.779904 0.647790 0.563575
O O8 0.610598 0.528759 0.548003
O O9 0.136733 0.250000 0.605490
O O10 0.000000 0.416860 0.621210
O O11 0.885559 0.250000 0.107827
O O12 0.884156 0.250000 0.019307
O O13 0.500000 0.153949 0.544181
O O14 0.000000 0.639754 0.833152
O O15 0.000000 0.543546 0.117719
#
# Coordination Sequence:
#
# PCOD8301273 Si02
#       8
#    16  16  16   8   4   4   8   8
#     4  10  22  39  64  95 120 146 184 242 304 358
#     4  12  23  36  57  84 119 160 198 242 288 342
#     4  10  23  42  60  82 117 157 195 238 292 350
#     4  11  20  34  51  84 120 158 195 240 290 337
#     4  11  22  28  52  86 126 156 184 240 304 349
#     4  11  20  34  54  80 130 158 190 230 286 337
#     4  12  21  34  54  91 125 153 189 239 297 347
#     4  12  22  37  61  92 121 155 193 236 289 353
#
# _framework density 18.553367000000001
#
# number of rings (size 3 to 8) (size 9 to 14) (size 15 to 20)
#    0.000    1.000    6.000    1.200    5.600    0.400 
#    0.000    1.000    0.000    0.000    0.000    0.000 
#    0.000    0.000    0.000    0.000    0.000    0.000 
#
# Total GULP energy -496046.682774 kJ/mol
# GULP energy per Si atom -12401.167069 kJ/mol
# Density = 1.851114 g / cm^3
# Si number density = 18.553367 Si / 1000 Ang^3
#
#
#
# Elastic Constant Matrix: (Units=GPa)
#
#
# Indices 1 2 3 4 5 6 
#
# 1 76.6334 45.1244 31.6889 0.0000 0.0000 0.0000
# 2 45.1244 133.7614 53.0524 0.0000 0.0000 0.0000
# 3 31.6889 53.0524 123.3713 0.0000 0.0000 0.0000
# 4 0.0000 0.0000 0.0000 28.6860 0.0000 0.0000
# 5 0.0000 0.0000 0.0000 0.0000 16.9145 0.0000
# 6 0.0000 0.0000 0.0000 0.0000 0.0000 21.1999
#
#
#
# Elastic Compliance Matrix: (Units=1/GPa)
#
#
# Indices 1 2 3 4 5 6 
#
# 1 0.016792 -0.004767 -0.002263 0.000000 0.000000 0.000000
# 2 -0.004767 0.010367 -0.003233 0.000000 0.000000 0.000000
# 3 -0.002263 -0.003233 0.010077 0.000000 0.000000 0.000000
# 4 0.000000 0.000000 0.000000 0.034860 0.000000 0.000000
# 5 0.000000 0.000000 0.000000 0.000000 0.059121 0.000000
# 6 0.000000 0.000000 0.000000 0.000000 0.000000 0.047170
#
#
# Mechanical properties :
#
#
# Convention : Reuss Voigt Hill
#
# Bulk Modulus (GPa) = 59.84959 65.94417 62.89688
# Shear Modulus (GPa) = 24.45175 26.95343 25.70259
#
# Velocity S-wave (km/s) = 3.63425 3.81563 3.72604
# Velocity P-wave (km/s) = 7.06671 7.41837 7.24468
#
# Compressibility (1/GPa) = 0.01670855
#
# Stress axis : x y z
#
# Youngs Moduli (GPa) = 59.55189 96.46339 99.23233
#
# Poissons Ratio (x) = 0.45986 0.22458
# Poissons Ratio (y) = 0.28389 0.32086
# Poissons Ratio (z) = 0.13478 0.31190
#
# Static dielectric constant tensor:
#      x y z
#    x 3.313920 0.000000 0.000000 
#    y 0.000000 3.664540 0.000000 
#    z 0.000000 0.000000 3.394330 
# 
# 
# High freq. dielectric constant tensor:
#      x y z
#    x 1.696030 0.000000 0.000000 
#    y 0.000000 1.730340 0.000000 
#    z 0.000000 0.000000 1.719590 
# 
# From -- ./inp_files/71601.got.cif
#   From: 2010.03.12/outbox.cif.g09.slc.cpg/sg74_36_cif.got.tgz:71601.got - 2010.04.16 15:46:19.
