data_PCOD8301995
_publ_section_title
;
Structure prediction by ZEFSAII (Michael W. Deem and Ramdas Pophale) SiO2 
 PCOD8301995
Probable space group: P 42
;
_chemical_formula_sum "Si O2"
_cell_formula_units_Z 24
_cell_length_a 9.252442
_cell_length_b 9.252442
_cell_length_c 12.959656
_cell_angle_alpha 90.000000
_cell_angle_beta 90.000000
_cell_angle_gamma 90.000000
_cell_volume 1109.446122
_symmetry_space_group_name_H-M "P 42"
_symmetry_group_IT_number 77
_symmetry_cell_setting 'tetragonal'
loop_
_space_group_symop_operation_xyz
x,y,z
-y,x,1/2+z
-x,-y,z
y,-x,1/2+z
loop_
_atom_site_type_symbol
_atom_site_label
_atom_site_fract_x
_atom_site_fract_y
_atom_site_fract_z
Si Si1 0.163398 0.999283 0.301060
Si Si2 0.715638 0.185945 0.702673
Si Si3 0.638381 0.583154 0.014768
Si Si4 0.294860 0.140329 0.692102
Si Si5 0.620568 0.883624 0.472644
Si Si6 0.501067 0.667021 0.817905
O O1 0.176264 0.110724 0.205540
O O2 0.282564 0.044868 0.384149
O O3 0.197861 0.843749 0.254013
O O4 0.000000 0.000000 0.347596
O O5 0.669816 0.268098 0.597821
O O6 0.662388 0.271096 0.806208
O O7 0.657250 0.023540 0.714242
O O8 0.500000 0.500000 0.064556
O O9 0.734228 0.466502 0.949230
O O10 0.575070 0.696054 0.929065
O O11 0.274025 0.151732 0.568951
O O12 0.423338 0.246776 0.724120
O O13 0.500000 0.000000 0.505271
O O14 0.500000 0.500000 0.790932
#
# Coordination Sequence:
#
# PCOD8301995 Si02
#       6
#     4   4   4   4   4   4
#     4  10  25  42  65  99 137 171 223 282 327 393
#     4  11  22  44  64  97 133 175 218 271 336 398
#     4  11  23  39  70  99 130 176 222 274 333 397
#     4  11  23  42  67  95 129 179 219 272 332 399
#     4  12  22  43  68  96 131 183 224 267 340 402
#     4  11  22  40  68  96 129 169 224 275 325 394
#
# _framework density 21.632415999999999
#
# number of rings (size 3 to 8) (size 9 to 14) (size 15 to 20)
#    0.000    1.000    3.333    4.000    0.000    2.000 
#    3.000    0.000    0.000    0.000    0.000    0.000 
#    0.000    0.000    0.000    0.000    0.000    0.000 
#
# Total GULP energy -297393.437172 kJ/mol
# GULP energy per Si atom -12391.393216 kJ/mol
# Density = 2.158318 g / cm^3
# Si number density = 21.632416 Si / 1000 Ang^3
#
#
#
# Elastic Constant Matrix: (Units=GPa)
#
#
# Indices 1 2 3 4 5 6 
#
# 1 93.1376 35.4308 31.1202 0.0000 0.0000 -7.0880
# 2 35.4308 93.1376 31.1202 0.0000 0.0000 7.0880
# 3 31.1202 31.1202 109.2241 0.0000 0.0000 0.0000
# 4 0.0000 0.0000 0.0000 27.0994 0.0000 0.0000
# 5 0.0000 0.0000 0.0000 0.0000 27.0994 0.0000
# 6 -7.0880 7.0880 0.0000 0.0000 0.0000 31.0816
#
#
#
# Elastic Compliance Matrix: (Units=1/GPa)
#
#
# Indices 1 2 3 4 5 6 
#
# 1 0.013690 -0.004667 -0.002571 0.000000 0.000000 0.004186
# 2 -0.004667 0.013690 -0.002571 0.000000 0.000000 -0.004186
# 3 -0.002571 -0.002571 0.010620 0.000000 0.000000 0.000000
# 4 0.000000 0.000000 0.000000 0.036901 0.000000 0.000000
# 5 0.000000 0.000000 0.000000 0.000000 0.036901 0.000000
# 6 0.004186 -0.004186 0.000000 0.000000 0.000000 0.034083
#
#
# Mechanical properties :
#
#
# Convention : Reuss Voigt Hill
#
# Bulk Modulus (GPa) = 54.39948 54.53796 54.46872
# Shear Modulus (GPa) = 29.13239 30.24463 29.68851
#
# Velocity S-wave (km/s) = 3.67372 3.74320 3.70862
# Velocity P-wave (km/s) = 6.57243 6.62933 6.60094
#
# Compressibility (1/GPa) = 0.01838253
#
# Stress axis : x y z
#
# Youngs Moduli (GPa) = 73.04655 73.04655 94.15866
#
# Poissons Ratio (x) = 0.34094 0.24205
# Poissons Ratio (y) = 0.34094 0.24205
# Poissons Ratio (z) = 0.18778 0.18778
#
# Static dielectric constant tensor:
#      x y z
#    x 4.098830 0.000000 0.000000 
#    y 0.000000 4.098830 0.000000 
#    z 0.000000 0.000000 3.707040 
# 
# 
# High freq. dielectric constant tensor:
#      x y z
#    x 1.859540 0.000000 0.000000 
#    y 0.000000 1.859540 0.000000 
#    z 0.000000 0.000000 1.840280 
# 
# From -- ./inp_files/1111.got.cif
#   From: 2010.03.12/outbox.cif.g09.slc.cpg/sg77_cif.got.tgz:1111.got - 2010.04.16 16:36:19.
