data_PCOD8301509
_publ_section_title
;
Structure prediction by ZEFSAII (Michael W. Deem and Ramdas Pophale) SiO2 
 PCOD8301509
Probable space group: I M M A
;
_chemical_formula_sum "Si O2"
_cell_formula_units_Z 80
_cell_length_a 21.959896
_cell_length_b 10.206187
_cell_length_c 19.837704
_cell_angle_alpha 90.000000
_cell_angle_beta 90.000000
_cell_angle_gamma 90.000000
_cell_volume 4446.161218
_symmetry_space_group_name_H-M "I M M A"
_symmetry_group_IT_number 74
_symmetry_cell_setting 'orthorhombic'
loop_
_space_group_symop_operation_xyz
x,y,z
-x,1/2-y,z
x,-y,-z
-x,1/2+y,-z
-x,-y,-z
x,1/2+y,-z
-x,y,z
x,1/2-y,z
1/2+x,1/2+y,1/2+z
1/2-x,-y,1/2+z
1/2+x,1/2-y,1/2-z
1/2-x,y,1/2-z
1/2-x,1/2-y,1/2-z
1/2+x,y,1/2-z
1/2-x,1/2+y,1/2+z
1/2+x,-y,1/2+z
loop_
_atom_site_type_symbol
_atom_site_label
_atom_site_fract_x
_atom_site_fract_y
_atom_site_fract_z
Si Si1 0.627266 0.007514 0.778662
Si Si2 0.304350 0.250000 0.570801
Si Si3 0.371798 0.001817 0.621067
Si Si4 0.794682 0.750000 0.916308
Si Si5 0.200302 0.250000 0.306987
Si Si6 0.000000 0.103200 0.120612
Si Si7 0.500000 0.600361 0.780663
Si Si8 0.705292 0.250000 0.814144
O O1 0.659756 0.875406 0.797778
O O2 0.557968 0.986226 0.803745
O O3 0.630252 0.038101 0.699542
O O4 0.661052 0.125043 0.816668
O O5 0.346307 0.123301 0.579647
O O6 0.280102 0.250000 0.495005
O O7 0.246185 0.250000 0.619239
O O8 0.331449 0.875623 0.607859
O O9 0.440467 0.974861 0.595820
O O10 0.729189 0.750000 0.880989
O O11 0.250000 0.250000 0.250000
O O12 0.000000 0.114776 0.200687
O O13 0.000000 0.250000 0.089842
O O14 0.500000 0.750000 0.810613
O O15 0.750000 0.250000 0.750000
#
# Coordination Sequence:
#
# PCOD8301509 Si02
#       8
#    16   8  16   8   8   8   8   8
#     4  11  20  35  61  88 112 150 181 238 287 325
#     4  12  26  39  52  81 120 154 185 234 282 329
#     4  11  20  38  57  79 114 149 193 233 279 327
#     4  12  24  37  56  81 112 152 193 236 280 329
#     4  12  20  33  61  87 107 143 201 229 276 334
#     4   9  18  33  58  81 107 147 192 241 271 317
#     4   9  18  33  55  92 120 129 182 246 287 323
#     4  12  22  39  57  81 121 153 189 227 276 348
#
# _framework density 17.99305
#
# number of rings (size 3 to 8) (size 9 to 14) (size 15 to 20)
#    0.000    1.000    6.000    2.400    0.000    0.800 
#    0.000    6.000    0.000    0.000    0.000    4.200 
#    0.000    0.000    0.000    0.000    0.000    0.000 
#
# Total GULP energy -496046.948161 kJ/mol
# GULP energy per Si atom -12401.173704 kJ/mol
# Density = 1.795210 g / cm^3
# Si number density = 17.993050 Si / 1000 Ang^3
#
#
#
# Elastic Constant Matrix: (Units=GPa)
#
#
# Indices 1 2 3 4 5 6 
#
# 1 137.6654 49.9804 30.1177 0.0000 0.0000 0.0000
# 2 49.9804 117.1239 -0.8622 0.0000 0.0000 0.0000
# 3 30.1177 -0.8622 55.8749 0.0000 0.0000 0.0000
# 4 0.0000 0.0000 0.0000 -12.0353 0.0000 0.0000
# 5 0.0000 0.0000 0.0000 0.0000 15.2344 0.0000
# 6 0.0000 0.0000 0.0000 0.0000 0.0000 44.9588
#
#
#
# Elastic Compliance Matrix: (Units=1/GPa)
#
#
# Indices 1 2 3 4 5 6 
#
# 1 0.010030 -0.004320 -0.005473 0.000000 0.000000 0.000000
# 2 -0.004320 0.010400 0.002489 0.000000 0.000000 0.000000
# 3 -0.005473 0.002489 0.020886 0.000000 0.000000 0.000000
# 4 0.000000 0.000000 0.000000 -0.083089 0.000000 0.000000
# 5 0.000000 0.000000 0.000000 0.000000 0.065641 0.000000
# 6 0.000000 0.000000 0.000000 0.000000 0.000000 0.022243
#
#
# Mechanical properties :
#
#
# Convention : Reuss Voigt Hill
#
# Bulk Modulus (GPa) = 37.44310 52.12623 44.78466
# Shear Modulus (GPa) = 71.81760 25.06013 48.43887
#
# Velocity S-wave (km/s) = 6.32461 3.73603 5.19416
# Velocity P-wave (km/s) = 8.61332 6.90244 7.80490
#
# Compressibility (1/GPa) = 0.02670719
#
# Stress axis : x y z
#
# Youngs Moduli (GPa) = 99.70224 96.15467 47.87992
#
# Poissons Ratio (x) = 0.41542 0.26205
# Poissons Ratio (y) = 0.43075 -0.11918
# Poissons Ratio (z) = 0.54567 -0.23935
#
# Static dielectric constant tensor:
#      x y z
#    x 3.542160 0.000000 0.000000 
#    y 0.000000 3.372920 0.000000 
#    z 0.000000 0.000000 3.067940 
# 
# 
# High freq. dielectric constant tensor:
#      x y z
#    x 1.708030 0.000000 0.000000 
#    y 0.000000 1.713440 0.000000 
#    z 0.000000 0.000000 1.655220 
# 
# From -- ./inp_files/54485.got.cif
#   From: 2010.03.12/outbox.cif.g09.slc.cpg/sg74_28_cif.got.tgz:54485.got - 2010.04.16 15:46:19.
