data_PCOD8301492
_publ_section_title
;
Structure prediction by ZEFSAII (Michael W. Deem and Ramdas Pophale) SiO2 
 PCOD8301492
Probable space group: I M M A
;
_chemical_formula_sum "Si O2"
_cell_formula_units_Z 80
_cell_length_a 23.248181
_cell_length_b 7.745294
_cell_length_c 25.355101
_cell_angle_alpha 90.000000
_cell_angle_beta 90.000000
_cell_angle_gamma 90.000000
_cell_volume 4565.540826
_symmetry_space_group_name_H-M "I M M A"
_symmetry_group_IT_number 74
_symmetry_cell_setting 'orthorhombic'
loop_
_space_group_symop_operation_xyz
x,y,z
-x,1/2-y,z
x,-y,-z
-x,1/2+y,-z
-x,-y,-z
x,1/2+y,-z
-x,y,z
x,1/2-y,z
1/2+x,1/2+y,1/2+z
1/2-x,-y,1/2+z
1/2+x,1/2-y,1/2-z
1/2-x,y,1/2-z
1/2-x,1/2-y,1/2-z
1/2+x,y,1/2-z
1/2-x,1/2+y,1/2+z
1/2+x,-y,1/2+z
loop_
_atom_site_type_symbol
_atom_site_label
_atom_site_fract_x
_atom_site_fract_y
_atom_site_fract_z
Si Si1 0.155129 0.954015 0.245220
Si Si2 0.889465 0.559470 0.056097
Si Si3 0.765736 0.054905 0.053542
Si Si4 0.435392 0.250000 0.261907
Si Si5 0.753176 0.450307 0.666211
Si Si6 0.062264 0.250000 0.115639
O O1 0.138194 0.750000 0.242790
O O2 0.193960 0.994148 0.296068
O O3 0.192619 0.008836 0.193419
O O4 0.099204 0.074471 0.252454
O O5 0.913281 0.750000 0.070298
O O6 0.820675 0.570262 0.053729
O O7 0.905332 0.424879 0.101020
O O8 0.915444 0.500000 0.000000
O O9 0.786764 0.250000 0.047670
O O10 0.733157 0.037088 0.109493
O O11 0.729729 0.000000 0.000000
O O12 0.500000 0.250000 0.235448
O O13 0.445167 0.250000 0.323090
O O14 0.748548 0.250000 0.656309
O O15 0.000000 0.250000 0.087808
#
# Coordination Sequence:
#
# PCOD8301492 Si02
#       6
#    16  16  16   8  16   8
#     4   9  20  36  56  79 105 136 174 221 267 308
#     4  11  20  36  52  67  93 130 173 211 256 310
#     4  11  20  30  48  74 106 140 164 198 246 310
#     4  11  24  37  53  75 103 136 181 223 263 316
#     4   9  18  33  53  81 106 135 175 213 260 321
#     4  11  24  38  49  71  93 121 174 230 271 299
#
# _framework density 17.522569000000001
#
# number of rings (size 3 to 8) (size 9 to 14) (size 15 to 20)
#    0.000    1.800    2.000    5.400    2.800    4.400 
#    0.000    2.000    0.000    0.000    0.000    0.000 
#    0.000    0.800    0.400    0.000    0.000    0.000 
#
# Total GULP energy -495615.877316 kJ/mol
# GULP energy per Si atom -12390.396933 kJ/mol
# Density = 1.748269 g / cm^3
# Si number density = 17.522569 Si / 1000 Ang^3
#
#
#
# Elastic Constant Matrix: (Units=GPa)
#
#
# Indices 1 2 3 4 5 6 
#
# 1 75.9188 42.5477 28.0398 0.0000 0.0000 0.0000
# 2 42.5477 122.5051 32.1691 0.0000 0.0000 0.0000
# 3 28.0398 32.1691 115.9959 0.0000 0.0000 0.0000
# 4 0.0000 0.0000 0.0000 21.4171 0.0000 0.0000
# 5 0.0000 0.0000 0.0000 0.0000 14.3776 0.0000
# 6 0.0000 0.0000 0.0000 0.0000 0.0000 9.5757
#
#
#
# Elastic Compliance Matrix: (Units=1/GPa)
#
#
# Indices 1 2 3 4 5 6 
#
# 1 0.017095 -0.005233 -0.002681 0.000000 0.000000 0.000000
# 2 -0.005233 0.010406 -0.001621 0.000000 0.000000 0.000000
# 3 -0.002681 -0.001621 0.009719 0.000000 0.000000 0.000000
# 4 0.000000 0.000000 0.000000 0.046692 0.000000 0.000000
# 5 0.000000 0.000000 0.000000 0.000000 0.069552 0.000000
# 6 0.000000 0.000000 0.000000 0.000000 0.000000 0.104432
#
#
# Mechanical properties :
#
#
# Convention : Reuss Voigt Hill
#
# Bulk Modulus (GPa) = 55.09838 57.77031 56.43434
# Shear Modulus (GPa) = 17.66685 23.18497 20.42591
#
# Velocity S-wave (km/s) = 3.17872 3.64146 3.41793
# Velocity P-wave (km/s) = 6.70707 7.12186 6.91758
#
# Compressibility (1/GPa) = 0.01814935
#
# Stress axis : x y z
#
# Youngs Moduli (GPa) = 58.49616 96.09682 102.89544
#
# Poissons Ratio (x) = 0.50291 0.27587
# Poissons Ratio (y) = 0.30613 0.16678
# Poissons Ratio (z) = 0.15683 0.15576
#
# Static dielectric constant tensor:
#      x y z
#    x 3.065680 0.000000 0.000000 
#    y 0.000000 3.508600 0.000000 
#    z 0.000000 0.000000 3.598980 
# 
# 
# High freq. dielectric constant tensor:
#      x y z
#    x 1.617630 0.000000 0.000000 
#    y 0.000000 1.695960 0.000000 
#    z 0.000000 0.000000 1.676480 
# 
# From -- ./inp_files/61854.got.cif
#   From: 2010.03.12/outbox.cif.g09.slc.cpg/sg74_31_cif.got.tgz:61854.got - 2010.04.16 15:46:19.
