data_PCOD8301179
_publ_section_title
;
Structure prediction by ZEFSAII (Michael W. Deem and Ramdas Pophale) SiO2 
 PCOD8301179
Probable space group: I M M A
;
_chemical_formula_sum "Si O2"
_cell_formula_units_Z 112
_cell_length_a 29.647616
_cell_length_b 16.206356
_cell_length_c 10.281616
_cell_angle_alpha 90.000000
_cell_angle_beta 90.000000
_cell_angle_gamma 90.000000
_cell_volume 4940.108999
_symmetry_space_group_name_H-M "I M M A"
_symmetry_group_IT_number 74
_symmetry_cell_setting 'orthorhombic'
loop_
_space_group_symop_operation_xyz
x,y,z
-x,1/2-y,z
x,-y,-z
-x,1/2+y,-z
-x,-y,-z
x,1/2+y,-z
-x,y,z
x,1/2-y,z
1/2+x,1/2+y,1/2+z
1/2-x,-y,1/2+z
1/2+x,1/2-y,1/2-z
1/2-x,y,1/2-z
1/2-x,1/2-y,1/2-z
1/2+x,y,1/2-z
1/2-x,1/2+y,1/2+z
1/2+x,-y,1/2+z
loop_
_atom_site_type_symbol
_atom_site_label
_atom_site_fract_x
_atom_site_fract_y
_atom_site_fract_z
Si Si1 0.219909 0.845477 0.574082
Si Si2 0.796768 0.900988 0.297822
Si Si3 0.803250 0.053689 0.124744
Si Si4 0.889975 0.343368 0.139803
Si Si5 0.947693 0.412962 0.931840
Si Si6 0.878732 0.155695 0.413587
Si Si7 0.607838 0.344835 0.799955
O O1 0.227636 0.750000 0.537509
O O2 0.207773 0.901429 0.451091
O O3 0.264522 0.877238 0.647044
O O4 0.172079 0.857909 0.649658
O O5 0.750000 0.860026 0.250000
O O6 0.840128 0.848165 0.251111
O O7 0.802724 0.995593 0.251793
O O8 0.851098 0.094811 0.093275
O O9 0.789987 0.000000 0.000000
O O10 0.871480 0.250000 0.145049
O O11 0.908704 0.367409 0.286613
O O12 0.930517 0.346084 0.036301
O O13 0.922357 0.402413 0.793520
O O14 0.000000 0.399301 0.903726
O O15 0.937351 0.500000 0.000000
O O16 0.883067 0.250000 0.456424
O O17 0.893052 0.114321 0.552299
O O18 0.590820 0.250000 0.791331
#
# Coordination Sequence:
#
# PCOD8301179 Si02
#       7
#    16  16  16  16  16  16  16
#     4  10  22  39  57  81 120 172 223 271 317 375
#     4  11  22  37  56  86 125 168 219 274 317 381
#     4  12  24  37  51  86 128 171 219 270 322 387
#     4  11  23  40  65  93 126 169 215 266 329 396
#     4  11  25  46  69  97 132 164 207 272 339 401
#     4   8  19  38  60  88 122 159 207 260 313 368
#     4  10  21  42  68  92 123 168 220 271 324 390
#
# _framework density 22.671565999999999
#
# number of rings (size 3 to 8) (size 9 to 14) (size 15 to 20)
#    0.000    1.571    1.429    4.286    2.000    2.286 
#    0.000    5.000    0.000    4.286    0.000    0.000 
#    0.000    0.000    0.000    0.000    0.000    0.000 
#
# Total GULP energy -693796.251169 kJ/mol
# GULP energy per Si atom -12389.218771 kJ/mol
# Density = 2.261996 g / cm^3
# Si number density = 22.671566 Si / 1000 Ang^3
#
#
#
# Elastic Constant Matrix: (Units=GPa)
#
#
# Indices 1 2 3 4 5 6 
#
# 1 104.1814 15.6680 46.6698 0.0000 0.0000 0.0000
# 2 15.6680 72.6613 23.4412 0.0000 0.0000 0.0000
# 3 46.6698 23.4412 91.1369 0.0000 0.0000 0.0000
# 4 0.0000 0.0000 0.0000 28.4227 0.0000 0.0000
# 5 0.0000 0.0000 0.0000 0.0000 24.2152 0.0000
# 6 0.0000 0.0000 0.0000 0.0000 0.0000 28.1103
#
#
#
# Elastic Compliance Matrix: (Units=1/GPa)
#
#
# Indices 1 2 3 4 5 6 
#
# 1 0.012487 -0.000687 -0.006218 0.000000 0.000000 0.000000
# 2 -0.000687 0.015046 -0.003518 0.000000 0.000000 0.000000
# 3 -0.006218 -0.003518 0.015062 0.000000 0.000000 0.000000
# 4 0.000000 0.000000 0.000000 0.035183 0.000000 0.000000
# 5 0.000000 0.000000 0.000000 0.000000 0.041296 0.000000
# 6 0.000000 0.000000 0.000000 0.000000 0.000000 0.035574
#
#
# Mechanical properties :
#
#
# Convention : Reuss Voigt Hill
#
# Bulk Modulus (GPa) = 45.97964 48.83749 47.40856
# Shear Modulus (GPa) = 27.36078 28.29635 27.82857
#
# Velocity S-wave (km/s) = 3.47772 3.53668 3.50732
# Velocity P-wave (km/s) = 6.03745 6.18591 6.11213
#
# Compressibility (1/GPa) = 0.02174876
#
# Stress axis : x y z
#
# Youngs Moduli (GPa) = 80.08105 66.46482 66.39438
#
# Poissons Ratio (x) = 0.04564 0.41284
# Poissons Ratio (y) = 0.05499 0.23359
# Poissons Ratio (z) = 0.49794 0.23384
#
# Static dielectric constant tensor:
#      x y z
#    x 4.039640 0.000000 0.000000 
#    y 0.000000 3.963590 0.000000 
#    z 0.000000 0.000000 4.322820 
# 
# 
# High freq. dielectric constant tensor:
#      x y z
#    x 1.856590 0.000000 0.000000 
#    y 0.000000 1.886570 0.000000 
#    z 0.000000 0.000000 1.919080 
# 
# From -- ./inp_files/27259.got.cif
#   From: 2010.03.12/outbox.cif.g09.slc.cpg/sg74_14_cif.got.tgz:27259.got - 2010.04.16 15:46:19.
