data_PCOD8301896
_publ_section_title
;
Structure prediction by ZEFSAII (Michael W. Deem and Ramdas Pophale) SiO2 
 PCOD8301896
Probable space group: P 41
;
_chemical_formula_sum "Si O2"
_cell_formula_units_Z 28
_cell_length_a 8.430377
_cell_length_b 8.430377
_cell_length_c 19.450004
_cell_angle_alpha 90.000000
_cell_angle_beta 90.000000
_cell_angle_gamma 90.000000
_cell_volume 1382.336221
_symmetry_space_group_name_H-M "P 41"
_symmetry_group_IT_number 76
_symmetry_cell_setting 'tetragonal'
loop_
_space_group_symop_operation_xyz
x,y,z
-y,x,1/4+z
-x,-y,1/2+z
y,-x,3/4+z
loop_
_atom_site_type_symbol
_atom_site_label
_atom_site_fract_x
_atom_site_fract_y
_atom_site_fract_z
Si Si1 0.182295 0.079781 0.672440
Si Si2 0.739204 0.246872 0.491935
Si Si3 0.026999 0.998224 0.048698
Si Si4 0.508934 0.017352 0.227499
Si Si5 0.327442 0.848414 0.848950
Si Si6 0.567126 0.681310 0.204294
Si Si7 0.541834 0.491509 0.571692
O O1 0.255613 0.255966 0.685399
O O2 0.038429 0.048228 0.724899
O O3 0.325281 0.951472 0.685629
O O4 0.116749 0.064910 0.595702
O O5 0.855620 0.376936 0.455944
O O6 0.655404 0.143317 0.431851
O O7 0.603148 0.330205 0.536126
O O8 0.842048 0.138269 0.542278
O O9 0.112854 0.146897 0.082431
O O10 0.552365 0.032047 0.309565
O O11 0.451875 0.837127 0.210917
O O12 0.371425 0.672548 0.823758
O O13 0.509608 0.553985 0.148641
O O14 0.566985 0.601472 0.279002
#
# Coordination Sequence:
#
# PCOD8301896 Si02
#       7
#     4   4   4   4   4   4   4
#     4   9  22  39  63  91 124 167 205 266 309 386
#     4  11  22  39  66  96 128 169 209 272 323 385
#     4  11  21  40  65  94 128 161 212 262 326 376
#     4   8  22  40  61  92 126 163 211 262 319 380
#     4  10  21  43  61  94 127 167 210 265 317 389
#     4  10  23  43  64  92 127 170 213 270 314 389
#     4  11  23  44  66  91 130 171 222 261 332 383
#
# _framework density 20.255565000000001
#
# number of rings (size 3 to 8) (size 9 to 14) (size 15 to 20)
#    0.857    1.143    2.857    0.000    4.000    1.143 
#    5.143    0.000    0.000    0.000    0.000    0.000 
#    0.000    0.000    0.000    0.000    0.000    0.000 
#
# Total GULP energy -347013.694060 kJ/mol
# GULP energy per Si atom -12393.346216 kJ/mol
# Density = 2.020946 g / cm^3
# Si number density = 20.255565 Si / 1000 Ang^3
#
#
#
# Elastic Constant Matrix: (Units=GPa)
#
#
# Indices 1 2 3 4 5 6 
#
# 1 57.2216 19.1630 11.9838 0.0000 0.0000 -1.6854
# 2 19.1630 57.2216 11.9838 0.0000 0.0000 1.6854
# 3 11.9838 11.9838 77.9614 0.0000 0.0000 0.0000
# 4 0.0000 0.0000 0.0000 26.5808 0.0000 0.0000
# 5 0.0000 0.0000 0.0000 0.0000 26.5808 0.0000
# 6 -1.6854 1.6854 0.0000 0.0000 0.0000 37.1849
#
#
#
# Elastic Compliance Matrix: (Units=1/GPa)
#
#
# Indices 1 2 3 4 5 6 
#
# 1 0.020068 -0.006313 -0.002114 0.000000 0.000000 0.001196
# 2 -0.006313 0.020068 -0.002114 0.000000 0.000000 -0.001196
# 3 -0.002114 -0.002114 0.013477 0.000000 0.000000 0.000000
# 4 0.000000 0.000000 0.000000 0.037621 0.000000 0.000000
# 5 0.000000 0.000000 0.000000 0.000000 0.037621 0.000000
# 6 0.001196 -0.001196 0.000000 0.000000 0.000000 0.027001
#
#
# Mechanical properties :
#
#
# Convention : Reuss Voigt Hill
#
# Bulk Modulus (GPa) = 30.74122 30.96286 30.85204
# Shear Modulus (GPa) = 26.62647 28.02091 27.32369
#
# Velocity S-wave (km/s) = 3.62957 3.72340 3.67679
# Velocity P-wave (km/s) = 5.72492 5.81414 5.76970
#
# Compressibility (1/GPa) = 0.03252962
#
# Stress axis : x y z
#
# Youngs Moduli (GPa) = 49.83030 49.83030 74.20122
#
# Poissons Ratio (x) = 0.31458 0.15689
# Poissons Ratio (y) = 0.31458 0.15689
# Poissons Ratio (z) = 0.10536 0.10536
#
# Static dielectric constant tensor:
#      x y z
#    x 3.521110 0.000000 0.000000 
#    y 0.000000 3.521110 0.000000 
#    z 0.000000 0.000000 3.670010 
# 
# 
# High freq. dielectric constant tensor:
#      x y z
#    x 1.778640 0.000000 0.000000 
#    y 0.000000 1.778640 0.000000 
#    z 0.000000 0.000000 1.792420 
# 
# From -- ./inp_files/1395.got.cif
#   From: 2010.03.12/outbox.cif.g09.slc.cpg/sg76_cif.got.tgz:1395.got - 2010.04.16 16:34:25.
