data_PCOD8301205
_publ_section_title
;
Structure prediction by ZEFSAII (Michael W. Deem and Ramdas Pophale) SiO2 
 PCOD8301205
Probable space group: I M M A
;
_chemical_formula_sum "Si O2"
_cell_formula_units_Z 88
_cell_length_a 8.858808
_cell_length_b 16.722503
_cell_length_c 30.188503
_cell_angle_alpha 90.000000
_cell_angle_beta 90.000000
_cell_angle_gamma 90.000000
_cell_volume 4472.168407
_symmetry_space_group_name_H-M "I M M A"
_symmetry_group_IT_number 74
_symmetry_cell_setting 'orthorhombic'
loop_
_space_group_symop_operation_xyz
x,y,z
-x,1/2-y,z
x,-y,-z
-x,1/2+y,-z
-x,-y,-z
x,1/2+y,-z
-x,y,z
x,1/2-y,z
1/2+x,1/2+y,1/2+z
1/2-x,-y,1/2+z
1/2+x,1/2-y,1/2-z
1/2-x,y,1/2-z
1/2-x,1/2-y,1/2-z
1/2+x,y,1/2-z
1/2-x,1/2+y,1/2+z
1/2+x,-y,1/2+z
loop_
_atom_site_type_symbol
_atom_site_label
_atom_site_fract_x
_atom_site_fract_y
_atom_site_fract_z
Si Si1 0.678030 0.439347 0.624252
Si Si2 0.180539 0.250000 0.299346
Si Si3 0.821724 0.340912 0.547640
Si Si4 0.676441 0.379316 0.362924
Si Si5 0.336085 0.658042 0.950559
Si Si6 0.177522 0.659125 0.206467
O O1 0.500000 0.433282 0.618166
O O2 0.751381 0.407675 0.579435
O O3 0.725969 0.528487 0.638301
O O4 0.740728 0.384821 0.663618
O O5 0.250000 0.250000 0.250000
O O6 0.232385 0.171057 0.326202
O O7 0.000000 0.250000 0.295939
O O8 0.759735 0.250000 0.556785
O O9 0.778245 0.373323 0.498362
O O10 0.000000 0.340909 0.553920
O O11 0.500000 0.366463 0.353414
O O12 0.711963 0.351778 0.412699
O O13 0.500000 0.619253 0.937393
O O14 0.366559 0.750000 0.959074
O O15 0.231568 0.750000 0.202197
O O16 0.250000 0.619360 0.250000
O O17 0.000000 0.650297 0.210243
#
# Coordination Sequence:
#
# PCOD8301205 Si02
#       6
#    16   8  16  16  16  16
#     4  10  22  37  54  82 120 154 188 236 291 350
#     4  12  26  46  70  92 116 150 194 246 305 364
#     4   9  19  35  56  84 117 156 202 245 284 338
#     4  11  23  39  60  88 118 149 192 242 293 352
#     4   9  18  35  58  82 112 153 199 241 288 348
#     4   9  18  34  55  77 104 142 184 224 272 330
#
# _framework density 19.677254999999999
#
# number of rings (size 3 to 8) (size 9 to 14) (size 15 to 20)
#    0.000    2.182    0.909    3.000    0.000    5.455 
#    0.000    9.091    0.000    0.000    0.000    0.000 
#    0.000    0.000    0.000    0.000    0.000    0.000 
#
# Total GULP energy -545365.724013 kJ/mol
# GULP energy per Si atom -12394.675546 kJ/mol
# Density = 1.963247 g / cm^3
# Si number density = 19.677255 Si / 1000 Ang^3
#
#
#
# Elastic Constant Matrix: (Units=GPa)
#
#
# Indices 1 2 3 4 5 6 
#
# 1 62.6972 43.3683 53.0412 0.0000 0.0000 0.0000
# 2 43.3683 92.4167 67.6709 0.0000 0.0000 0.0000
# 3 53.0412 67.6709 171.4149 0.0000 0.0000 0.0000
# 4 0.0000 0.0000 0.0000 5.1352 0.0000 0.0000
# 5 0.0000 0.0000 0.0000 0.0000 32.8957 0.0000
# 6 0.0000 0.0000 0.0000 0.0000 0.0000 26.2055
#
#
#
# Elastic Compliance Matrix: (Units=1/GPa)
#
#
# Indices 1 2 3 4 5 6 
#
# 1 0.025888 -0.008837 -0.004522 0.000000 0.000000 0.000000
# 2 -0.008837 0.018237 -0.004465 0.000000 0.000000 0.000000
# 3 -0.004522 -0.004465 0.008996 0.000000 0.000000 0.000000
# 4 0.000000 0.000000 0.000000 0.194733 0.000000 0.000000
# 5 0.000000 0.000000 0.000000 0.000000 0.030399 0.000000
# 6 0.000000 0.000000 0.000000 0.000000 0.000000 0.038160
#
#
# Mechanical properties :
#
#
# Convention : Reuss Voigt Hill
#
# Bulk Modulus (GPa) = 57.23328 72.74330 64.98829
# Shear Modulus (GPa) = 13.97097 23.67717 18.82407
#
# Velocity S-wave (km/s) = 2.66748 3.47259 3.09632
# Velocity P-wave (km/s) = 6.21582 7.28883 6.77360
#
# Compressibility (1/GPa) = 0.01747235
#
# Stress axis : x y z
#
# Youngs Moduli (GPa) = 38.62794 54.83302 111.16457
#
# Poissons Ratio (x) = 0.48459 0.50266
# Poissons Ratio (y) = 0.34137 0.49636
# Poissons Ratio (z) = 0.17467 0.24483
#
# Static dielectric constant tensor:
#      x y z
#    x 3.424740 0.000000 0.000000 
#    y 0.000000 3.714140 0.000000 
#    z 0.000000 0.000000 3.824970 
# 
# 
# High freq. dielectric constant tensor:
#      x y z
#    x 1.757010 0.000000 0.000000 
#    y 0.000000 1.760310 0.000000 
#    z 0.000000 0.000000 1.778440 
# 
# From -- ./inp_files/70253.got.cif
#   From: 2010.03.12/outbox.cif.g09.slc.cpg/sg74_36_cif.got.tgz:70253.got - 2010.04.16 15:46:19.
