data_PCOD8301624
_publ_section_title
;
Structure prediction by ZEFSAII (Michael W. Deem and Ramdas Pophale) SiO2 
 PCOD8301624
Probable space group: I M M A
;
_chemical_formula_sum "Si O2"
_cell_formula_units_Z 64
_cell_length_a 13.665328
_cell_length_b 10.311523
_cell_length_c 25.086285
_cell_angle_alpha 90.000000
_cell_angle_beta 90.000000
_cell_angle_gamma 90.000000
_cell_volume 3534.917048
_symmetry_space_group_name_H-M "I M M A"
_symmetry_group_IT_number 74
_symmetry_cell_setting 'orthorhombic'
loop_
_space_group_symop_operation_xyz
x,y,z
-x,1/2-y,z
x,-y,-z
-x,1/2+y,-z
-x,-y,-z
x,1/2+y,-z
-x,y,z
x,1/2-y,z
1/2+x,1/2+y,1/2+z
1/2-x,-y,1/2+z
1/2+x,1/2-y,1/2-z
1/2-x,y,1/2-z
1/2-x,1/2-y,1/2-z
1/2+x,y,1/2-z
1/2-x,1/2+y,1/2+z
1/2+x,-y,1/2+z
loop_
_atom_site_type_symbol
_atom_site_label
_atom_site_fract_x
_atom_site_fract_y
_atom_site_fract_z
Si Si1 0.610756 0.097263 0.161194
Si Si2 0.115777 0.894378 0.780847
Si Si3 0.613110 0.250000 0.567536
Si Si4 0.111383 0.750000 0.941301
Si Si5 0.299220 0.994219 0.616045
O O1 0.500000 0.045892 0.153445
O O2 0.615018 0.250000 0.149363
O O3 0.651096 0.070044 0.221165
O O4 0.681380 0.019736 0.120770
O O5 0.152932 0.750000 0.796620
O O6 0.155647 0.993558 0.824571
O O7 0.000000 0.897189 0.780001
O O8 0.500000 0.250000 0.587041
O O9 0.617424 0.250000 0.504435
O O10 0.671514 0.373034 0.588713
O O11 0.161742 0.878265 0.919878
O O12 0.000000 0.750000 0.920981
#
# Coordination Sequence:
#
# PCOD8301624 Si02
#       5
#    16  16   8   8  16
#     4   9  18  33  55  86 115 140 180 230 264 304
#     4   9  16  28  52  85 113 137 177 224 266 319
#     4  11  26  40  52  79 117 141 172 230 284 325
#     4  11  22  38  60  81 101 137 188 232 272 325
#     4  12  20  35  59  81 108 149 182 216 273 329
#
# _framework density 18.105091999999999
#
# number of rings (size 3 to 8) (size 9 to 14) (size 15 to 20)
#    0.000    1.750    2.500    5.250    0.000    4.000 
#    0.000    3.125    0.000    7.500    0.000    0.000 
#    0.000    0.000    0.000    0.000    0.000    0.000 
#
# Total GULP energy -396777.940326 kJ/mol
# GULP energy per Si atom -12399.310635 kJ/mol
# Density = 1.806388 g / cm^3
# Si number density = 18.105092 Si / 1000 Ang^3
#
#
#
# Elastic Constant Matrix: (Units=GPa)
#
#
# Indices 1 2 3 4 5 6 
#
# 1 70.0969 45.5362 51.1414 0.0000 0.0000 0.0000
# 2 45.5362 106.9235 41.6565 0.0000 0.0000 0.0000
# 3 51.1414 41.6565 67.0032 0.0000 0.0000 0.0000
# 4 0.0000 0.0000 0.0000 15.4985 0.0000 0.0000
# 5 0.0000 0.0000 0.0000 0.0000 30.2142 0.0000
# 6 0.0000 0.0000 0.0000 0.0000 0.0000 25.9886
#
#
#
# Elastic Compliance Matrix: (Units=1/GPa)
#
#
# Indices 1 2 3 4 5 6 
#
# 1 0.034805 -0.005902 -0.022896 0.000000 0.000000 0.000000
# 2 -0.005902 0.013343 -0.003790 0.000000 0.000000 0.000000
# 3 -0.022896 -0.003790 0.034757 0.000000 0.000000 0.000000
# 4 0.000000 0.000000 0.000000 0.064522 0.000000 0.000000
# 5 0.000000 0.000000 0.000000 0.000000 0.033097 0.000000
# 6 0.000000 0.000000 0.000000 0.000000 0.000000 0.038478
#
#
# Mechanical properties :
#
#
# Convention : Reuss Voigt Hill
#
# Bulk Modulus (GPa) = 56.40983 57.85464 57.13223
# Shear Modulus (GPa) = 17.23620 21.38622 19.31121
#
# Velocity S-wave (km/s) = 3.08881 3.44063 3.26945
# Velocity P-wave (km/s) = 6.62914 6.91434 6.77324
#
# Compressibility (1/GPa) = 0.01772741
#
# Stress axis : x y z
#
# Youngs Moduli (GPa) = 28.73189 74.94659 28.77158
#
# Poissons Ratio (x) = 0.44237 0.65874
# Poissons Ratio (y) = 0.16959 0.10905
# Poissons Ratio (z) = 0.65783 0.28406
#
# Static dielectric constant tensor:
#      x y z
#    x 3.579370 0.000000 0.000000 
#    y 0.000000 3.250200 0.000000 
#    z 0.000000 0.000000 3.377550 
# 
# 
# High freq. dielectric constant tensor:
#      x y z
#    x 1.717540 0.000000 0.000000 
#    y 0.000000 1.663150 0.000000 
#    z 0.000000 0.000000 1.697890 
# 
# From -- ./inp_files/56431.got.cif
#   From: 2010.03.12/outbox.cif.g09.slc.cpg/sg74_29_cif.got.tgz:56431.got - 2010.04.16 15:46:19.
