data_PCOD8301836
_publ_section_title
;
Structure prediction by ZEFSAII (Michael W. Deem and Ramdas Pophale) SiO2 
 PCOD8301836
Probable space group: P 4
;
_chemical_formula_sum "Si O2"
_cell_formula_units_Z 28
_cell_length_a 8.923358
_cell_length_b 8.923358
_cell_length_c 17.603342
_cell_angle_alpha 90.000000
_cell_angle_beta 90.000000
_cell_angle_gamma 90.000000
_cell_volume 1401.689308
_symmetry_space_group_name_H-M "P 4"
_symmetry_group_IT_number 75
_symmetry_cell_setting 'tetragonal'
loop_
_space_group_symop_operation_xyz
x,y,z
-y,x,z
-x,-y,z
y,-x,z
loop_
_atom_site_type_symbol
_atom_site_label
_atom_site_fract_x
_atom_site_fract_y
_atom_site_fract_z
Si Si1 0.594681 0.726115 0.461270
Si Si2 0.609627 0.723370 0.875478
Si Si3 0.222929 0.099308 0.174760
Si Si4 0.900694 0.222930 0.576196
Si Si5 0.594681 0.726115 0.289687
Si Si6 0.780824 0.889484 0.749785
Si Si7 0.110518 0.780825 0.001171
O O1 0.421580 0.692483 0.475579
O O2 0.644339 0.852348 0.520418
O O3 0.619946 0.784540 0.375478
O O4 0.432681 0.698401 0.875478
O O5 0.651038 0.819677 0.801276
O O6 0.651038 0.819675 0.949681
O O7 0.355660 0.147654 0.230538
O O8 0.271306 0.128677 0.088068
O O9 0.074173 0.194114 0.191299
O O10 0.871325 0.271308 0.662888
O O11 0.074174 0.194113 0.559658
O O12 0.421581 0.692484 0.275378
O O13 0.935230 0.802884 0.767456
O O14 0.935231 0.802884 0.983500
#
# Coordination Sequence:
#
# PCOD8301836 Si02
#       7
#     4   4   4   4   4   4   4
#     4   9  19  35  52  72 102 139 175 210 251 300
#     4  11  24  37  50  76 110 137 166 207 252 298
#     4   9  19  35  54  78 105 131 165 211 258 302
#     4   9  19  35  54  78 105 131 165 211 258 302
#     4   9  19  35  52  72 102 139 175 210 251 300
#     4   9  19  37  58  77 100 133 171 209 252 303
#     4   9  19  37  58  77 100 133 171 209 252 303
#
# _framework density 19.975895999999999
#
# number of rings (size 3 to 8) (size 9 to 14) (size 15 to 20)
#    0.000    2.714    0.000    3.429    0.000    8.000 
#    0.000   12.857    0.000    0.000    0.000    0.000 
#    0.000    0.000    0.000    0.000    0.000    0.000 
#
# Total GULP energy -347230.174112 kJ/mol
# GULP energy per Si atom -12401.077647 kJ/mol
# Density = 1.993043 g / cm^3
# Si number density = 19.975896 Si / 1000 Ang^3
#
#
#
# Elastic Constant Matrix: (Units=GPa)
#
#
# Indices 1 2 3 4 5 6 
#
# 1 19.3748 -9.4519 10.9883 0.0000 0.0000 -5.6599
# 2 -9.4519 19.3748 10.9883 0.0000 0.0000 5.6599
# 3 10.9883 10.9883 82.3738 0.0000 0.0000 0.0000
# 4 0.0000 0.0000 0.0000 5.5506 0.0000 0.0000
# 5 0.0000 0.0000 0.0000 0.0000 5.5506 0.0000
# 6 -5.6599 5.6599 0.0000 0.0000 0.0000 49.4933
#
#
#
# Elastic Compliance Matrix: (Units=1/GPa)
#
#
# Indices 1 2 3 4 5 6 
#
# 1 0.089678 0.053357 -0.019080 0.000000 0.000000 0.004154
# 2 0.053357 0.089678 -0.019080 0.000000 0.000000 -0.004154
# 3 -0.019080 -0.019080 0.017230 0.000000 0.000000 0.000000
# 4 0.000000 0.000000 0.000000 0.180161 0.000000 0.000000
# 5 0.000000 0.000000 0.000000 0.000000 0.180161 0.000000
# 6 0.004154 -0.004154 0.000000 0.000000 0.000000 0.021155
#
#
# Mechanical properties :
#
#
# Convention : Reuss Voigt Hill
#
# Bulk Modulus (GPa) = 4.40569 16.24142 10.32356
# Shear Modulus (GPa) = 8.02143 19.35880 13.69011
#
# Velocity S-wave (km/s) = 2.00606 3.11643 2.62072
# Velocity P-wave (km/s) = 2.75245 4.59322 3.78640
#
# Compressibility (1/GPa) = 0.22697918
#
# Stress axis : x y z
#
# Youngs Moduli (GPa) = 11.15100 11.15100 58.03751
#
# Poissons Ratio (x) = -0.59498 1.10737
# Poissons Ratio (y) = -0.59498 1.10737
# Poissons Ratio (z) = 0.21276 0.21276
#
# Static dielectric constant tensor:
#      x y z
#    x 3.425530 0.000000 0.000000 
#    y 0.000000 3.425530 0.000000 
#    z 0.000000 0.000000 3.590600 
# 
# 
# High freq. dielectric constant tensor:
#      x y z
#    x 1.770640 0.000000 0.000000 
#    y 0.000000 1.770640 0.000000 
#    z 0.000000 0.000000 1.785200 
# 
# From -- ./inp_files/740.got.cif
#   From: 2010.03.12/outbox.cif.g09.slc.cpg/sg75_cif.got.tgz:740.got - 2010.04.16 16:33:55.
