data_PCOD8301668
_publ_section_title
;
Structure prediction by ZEFSAII (Michael W. Deem and Ramdas Pophale) SiO2 
 PCOD8301668
Probable space group: I M M A
;
_chemical_formula_sum "Si O2"
_cell_formula_units_Z 48
_cell_length_a 12.858204
_cell_length_b 8.880325
_cell_length_c 22.395649
_cell_angle_alpha 90.000000
_cell_angle_beta 90.000000
_cell_angle_gamma 90.000000
_cell_volume 2557.247863
_symmetry_space_group_name_H-M "I M M A"
_symmetry_group_IT_number 74
_symmetry_cell_setting 'orthorhombic'
loop_
_space_group_symop_operation_xyz
x,y,z
-x,1/2-y,z
x,-y,-z
-x,1/2+y,-z
-x,-y,-z
x,1/2+y,-z
-x,y,z
x,1/2-y,z
1/2+x,1/2+y,1/2+z
1/2-x,-y,1/2+z
1/2+x,1/2-y,1/2-z
1/2-x,y,1/2-z
1/2-x,1/2-y,1/2-z
1/2+x,y,1/2-z
1/2-x,1/2+y,1/2+z
1/2+x,-y,1/2+z
loop_
_atom_site_type_symbol
_atom_site_label
_atom_site_fract_x
_atom_site_fract_y
_atom_site_fract_z
Si Si1 0.500000 0.074050 0.775616
Si Si2 0.500000 0.429280 0.638285
Si Si3 0.113346 0.920501 0.628092
Si Si4 0.182016 0.929391 0.936204
O O1 0.500000 0.250000 0.782129
O O2 0.500000 0.023631 0.707370
O O3 0.396187 0.011263 0.809212
O O4 0.500000 0.250000 0.628681
O O5 0.601636 0.502885 0.610384
O O6 0.141067 0.750000 0.645351
O O7 0.203298 0.983122 0.585009
O O8 0.000000 0.930874 0.594947
O O9 0.170662 0.750000 0.940197
O O10 0.158015 0.000000 0.000000
#
# Coordination Sequence:
#
# PCOD8301668 Si02
#       4
#     8   8  16  16
#     4   9  19  36  59  86 113 146 186 233 282 329
#     4  11  24  40  57  82 117 152 189 233 280 333
#     4   8  18  38  59  84 115 146 184 228 282 340
#     4  11  23  39  60  84 113 151 191 232 279 333
#
# _framework density 18.770178999999999
#
# number of rings (size 3 to 8) (size 9 to 14) (size 15 to 20)
#    1.000    1.333    0.000    2.000    0.000    7.333 
#    0.000    6.667    0.000    0.000    0.000    0.000 
#    0.000    0.000    0.000    0.000    0.000    0.000 
#
# Total GULP energy -297408.881513 kJ/mol
# GULP energy per Si atom -12392.036730 kJ/mol
# Density = 1.872746 g / cm^3
# Si number density = 18.770179 Si / 1000 Ang^3
#
#
#
# Elastic Constant Matrix: (Units=GPa)
#
#
# Indices 1 2 3 4 5 6 
#
# 1 88.3208 25.0076 11.6746 0.0000 0.0000 0.0000
# 2 25.0076 65.0757 29.9629 0.0000 0.0000 0.0000
# 3 11.6746 29.9629 71.6739 0.0000 0.0000 0.0000
# 4 0.0000 0.0000 0.0000 32.4998 0.0000 0.0000
# 5 0.0000 0.0000 0.0000 0.0000 40.4517 0.0000
# 6 0.0000 0.0000 0.0000 0.0000 0.0000 25.2921
#
#
#
# Elastic Compliance Matrix: (Units=1/GPa)
#
#
# Indices 1 2 3 4 5 6 
#
# 1 0.012705 -0.004866 -0.000035 0.000000 0.000000 0.000000
# 2 -0.004866 0.020893 -0.007942 0.000000 0.000000 0.000000
# 3 -0.000035 -0.007942 0.017278 0.000000 0.000000 0.000000
# 4 0.000000 0.000000 0.000000 0.030769 0.000000 0.000000
# 5 0.000000 0.000000 0.000000 0.000000 0.024721 0.000000
# 6 0.000000 0.000000 0.000000 0.000000 0.000000 0.039538
#
#
# Mechanical properties :
#
#
# Convention : Reuss Voigt Hill
#
# Bulk Modulus (GPa) = 39.69835 39.81784 39.75810
# Shear Modulus (GPa) = 27.77979 30.21039 28.99509
#
# Velocity S-wave (km/s) = 3.85125 4.01620 3.93458
# Velocity P-wave (km/s) = 6.40092 6.53956 6.47061
#
# Compressibility (1/GPa) = 0.02518996
#
# Stress axis : x y z
#
# Youngs Moduli (GPa) = 78.71029 47.86220 57.87764
#
# Poissons Ratio (x) = 0.23290 0.00204
# Poissons Ratio (y) = 0.38301 0.45965
# Poissons Ratio (z) = 0.00277 0.38011
#
# Static dielectric constant tensor:
#      x y z
#    x 3.644710 0.000000 0.000000 
#    y 0.000000 3.457480 0.000000 
#    z 0.000000 0.000000 3.425330 
# 
# 
# High freq. dielectric constant tensor:
#      x y z
#    x 1.729870 0.000000 0.000000 
#    y 0.000000 1.735960 0.000000 
#    z 0.000000 0.000000 1.720790 
# 
# From -- ./inp_files/56162.got.cif
#   From: 2010.03.12/outbox.cif.g09.slc.cpg/sg74_29_cif.got.tgz:56162.got - 2010.04.16 15:46:19.
