data_PCOD8301217
_publ_section_title
;
Structure prediction by ZEFSAII (Michael W. Deem and Ramdas Pophale) SiO2 
 PCOD8301217
Probable space group: I M M A
;
_chemical_formula_sum "Si O2"
_cell_formula_units_Z 88
_cell_length_a 10.003808
_cell_length_b 16.786152
_cell_length_c 29.274525
_cell_angle_alpha 90.000000
_cell_angle_beta 90.000000
_cell_angle_gamma 90.000000
_cell_volume 4915.937540
_symmetry_space_group_name_H-M "I M M A"
_symmetry_group_IT_number 74
_symmetry_cell_setting 'orthorhombic'
loop_
_space_group_symop_operation_xyz
x,y,z
-x,1/2-y,z
x,-y,-z
-x,1/2+y,-z
-x,-y,-z
x,1/2+y,-z
-x,y,z
x,1/2-y,z
1/2+x,1/2+y,1/2+z
1/2-x,-y,1/2+z
1/2+x,1/2-y,1/2-z
1/2-x,y,1/2-z
1/2-x,1/2-y,1/2-z
1/2+x,y,1/2-z
1/2-x,1/2+y,1/2+z
1/2+x,-y,1/2+z
loop_
_atom_site_type_symbol
_atom_site_label
_atom_site_fract_x
_atom_site_fract_y
_atom_site_fract_z
Si Si1 0.157317 0.750000 0.704259
Si Si2 0.349374 0.893820 0.548772
Si Si3 0.148365 0.559796 0.375846
Si Si4 0.655137 0.122897 0.127257
Si Si5 0.149573 0.083291 0.948398
Si Si6 0.147874 0.160158 0.713924
O O1 0.250000 0.750000 0.750000
O O2 0.190987 0.672760 0.672914
O O3 0.000000 0.750000 0.718587
O O4 0.500000 0.866510 0.561627
O O5 0.246371 0.851122 0.583720
O O6 0.315916 0.871717 0.496025
O O7 0.338545 0.988530 0.548808
O O8 0.189345 0.469301 0.363707
O O9 0.244267 0.608070 0.410138
O O10 0.155033 0.606306 0.329603
O O11 0.000000 0.560626 0.397349
O O12 0.500000 0.137529 0.114410
O O13 0.000000 0.107405 0.933155
O O14 0.189440 0.250000 0.700734
O O15 0.250000 0.123192 0.750000
O O16 0.000000 0.158032 0.735499
#
# Coordination Sequence:
#
# PCOD8301217 Si02
#       6
#     8  16  16  16  16  16
#     4  10  22  38  52  68  94 126 160 204 253 290
#     4   8  14  26  45  69  95 122 152 186 226 274
#     4   9  17  29  47  71  95 121 155 192 229 276
#     4   9  18  32  49  69  93 121 156 196 235 277
#     4   8  14  25  43  69  98 123 149 185 227 270
#     4   9  18  32  48  66  90 119 150 185 227 273
#
# _framework density 17.900959
#
# number of rings (size 3 to 8) (size 9 to 14) (size 15 to 20)
#    0.000    3.273    0.000    1.091    0.000    2.909 
#    0.000    3.636    2.000    0.000    0.000    0.000 
#    0.000    0.000    0.000    0.000    0.000    0.000 
#
# Total GULP energy -545161.629047 kJ/mol
# GULP energy per Si atom -12390.037024 kJ/mol
# Density = 1.786022 g / cm^3
# Si number density = 17.900959 Si / 1000 Ang^3
#
#
#
# Elastic Constant Matrix: (Units=GPa)
#
#
# Indices 1 2 3 4 5 6 
#
# 1 116.0964 30.4243 86.7173 0.0000 0.0000 0.0000
# 2 30.4243 35.5286 31.5960 0.0000 0.0000 0.0000
# 3 86.7173 31.5960 110.9273 0.0000 0.0000 0.0000
# 4 0.0000 0.0000 0.0000 18.8954 0.0000 0.0000
# 5 0.0000 0.0000 0.0000 0.0000 43.3387 0.0000
# 6 0.0000 0.0000 0.0000 0.0000 0.0000 14.3015
#
#
#
# Elastic Compliance Matrix: (Units=1/GPa)
#
#
# Indices 1 2 3 4 5 6 
#
# 1 0.021245 -0.004584 -0.015302 0.000000 0.000000 0.000000
# 2 -0.004584 0.038684 -0.007435 0.000000 0.000000 0.000000
# 3 -0.015302 -0.007435 0.023095 0.000000 0.000000 0.000000
# 4 0.000000 0.000000 0.000000 0.052923 0.000000 0.000000
# 5 0.000000 0.000000 0.000000 0.000000 0.023074 0.000000
# 6 0.000000 0.000000 0.000000 0.000000 0.000000 0.069923
#
#
# Mechanical properties :
#
#
# Convention : Reuss Voigt Hill
#
# Bulk Modulus (GPa) = 35.23472 62.22526 48.72999
# Shear Modulus (GPa) = 17.06212 22.89477 19.97845
#
# Velocity S-wave (km/s) = 3.09065 3.58015 3.34436
# Velocity P-wave (km/s) = 5.69754 7.20599 6.49570
#
# Compressibility (1/GPa) = 0.02838110
#
# Stress axis : x y z
#
# Youngs Moduli (GPa) = 47.07019 25.85067 43.29887
#
# Poissons Ratio (x) = 0.11850 0.66258
# Poissons Ratio (y) = 0.21577 0.32192
# Poissons Ratio (z) = 0.72029 0.19220
#
# Static dielectric constant tensor:
#      x y z
#    x 3.726720 0.000000 0.000000 
#    y 0.000000 3.048350 0.000000 
#    z 0.000000 0.000000 3.467160 
# 
# 
# High freq. dielectric constant tensor:
#      x y z
#    x 1.698210 0.000000 0.000000 
#    y 0.000000 1.666090 0.000000 
#    z 0.000000 0.000000 1.684590 
# 
# From -- ./inp_files/70236.got.cif
#   From: 2010.03.12/outbox.cif.g09.slc.cpg/sg74_36_cif.got.tgz:70236.got - 2010.04.16 15:46:19.
