data_PCOD8301495
_publ_section_title
;
Structure prediction by ZEFSAII (Michael W. Deem and Ramdas Pophale) SiO2 
 PCOD8301495
Probable space group: I M M A
;
_chemical_formula_sum "Si O2"
_cell_formula_units_Z 96
_cell_length_a 14.840415
_cell_length_b 13.930810
_cell_length_c 26.160867
_cell_angle_alpha 90.000000
_cell_angle_beta 90.000000
_cell_angle_gamma 90.000000
_cell_volume 5408.471527
_symmetry_space_group_name_H-M "I M M A"
_symmetry_group_IT_number 74
_symmetry_cell_setting 'orthorhombic'
loop_
_space_group_symop_operation_xyz
x,y,z
-x,1/2-y,z
x,-y,-z
-x,1/2+y,-z
-x,-y,-z
x,1/2+y,-z
-x,y,z
x,1/2-y,z
1/2+x,1/2+y,1/2+z
1/2-x,-y,1/2+z
1/2+x,1/2-y,1/2-z
1/2-x,y,1/2-z
1/2-x,1/2-y,1/2-z
1/2+x,y,1/2-z
1/2-x,1/2+y,1/2+z
1/2+x,-y,1/2+z
loop_
_atom_site_type_symbol
_atom_site_label
_atom_site_fract_x
_atom_site_fract_y
_atom_site_fract_z
Si Si1 0.154622 0.854584 0.603307
Si Si2 0.602081 0.513562 0.624129
Si Si3 0.598549 0.035904 0.943969
Si Si4 0.332987 0.357841 0.461292
Si Si5 0.219683 0.637763 0.074389
Si Si6 0.218422 0.140437 0.195098
O O1 0.107230 0.750000 0.596694
O O2 0.233998 0.864724 0.562175
O O3 0.193419 0.864006 0.659991
O O4 0.088060 0.942428 0.592651
O O5 0.500000 0.482262 0.636258
O O6 0.601894 0.573835 0.571226
O O7 0.664659 0.419387 0.617773
O O8 0.638768 0.575633 0.671779
O O9 0.500000 0.087110 0.943534
O O10 0.675167 0.108101 0.924162
O O11 0.624246 0.000000 0.000000
O O12 0.371088 0.250000 0.457067
O O13 0.326428 0.389180 0.520326
O O14 0.213450 0.750000 0.086256
O O15 0.182343 0.250000 0.199030
O O16 0.250000 0.100856 0.250000
#
# Coordination Sequence:
#
# PCOD8301495 Si02
#       6
#    16  16  16  16  16  16
#     4   9  16  30  50  74 105 137 168 207 260 320
#     4  11  21  34  55  80 107 142 181 217 262 316
#     4  11  20  31  50  76 105 140 184 224 263 314
#     4   9  17  30  50  74 108 146 176 210 259 317
#     4  11  21  35  51  72 109 148 185 225 262 304
#     4   9  18  34  58  82 107 136 166 208 265 324
#
# _framework density 17.749931
#
# number of rings (size 3 to 8) (size 9 to 14) (size 15 to 20)
#    0.000    2.000    5.000    2.000    0.000    3.667 
#    0.000    4.167    0.000    3.500    0.000    0.000 
#    0.000    0.000    0.000    0.000    0.000    0.000 
#
# Total GULP energy -594979.372201 kJ/mol
# GULP energy per Si atom -12395.403588 kJ/mol
# Density = 1.770953 g / cm^3
# Si number density = 17.749931 Si / 1000 Ang^3
#
#
#
# Elastic Constant Matrix: (Units=GPa)
#
#
# Indices 1 2 3 4 5 6 
#
# 1 101.4404 45.0325 30.0384 0.0000 0.0000 0.0000
# 2 45.0325 92.1783 38.9262 0.0000 0.0000 0.0000
# 3 30.0384 38.9262 77.8826 0.0000 0.0000 0.0000
# 4 0.0000 0.0000 0.0000 22.2357 0.0000 0.0000
# 5 0.0000 0.0000 0.0000 0.0000 12.4252 0.0000
# 6 0.0000 0.0000 0.0000 0.0000 0.0000 9.2900
#
#
#
# Elastic Compliance Matrix: (Units=1/GPa)
#
#
# Indices 1 2 3 4 5 6 
#
# 1 0.012909 -0.005329 -0.002316 0.000000 0.000000 0.000000
# 2 -0.005329 0.015951 -0.005917 0.000000 0.000000 0.000000
# 3 -0.002316 -0.005917 0.016690 0.000000 0.000000 0.000000
# 4 0.000000 0.000000 0.000000 0.044973 0.000000 0.000000
# 5 0.000000 0.000000 0.000000 0.000000 0.080481 0.000000
# 6 0.000000 0.000000 0.000000 0.000000 0.000000 0.107643
#
#
# Mechanical properties :
#
#
# Convention : Reuss Voigt Hill
#
# Bulk Modulus (GPa) = 54.26687 55.49949 54.88318
# Shear Modulus (GPa) = 16.03017 19.29049 17.66033
#
# Velocity S-wave (km/s) = 3.00844 3.30023 3.15771
# Velocity P-wave (km/s) = 6.53506 6.77180 6.65449
#
# Compressibility (1/GPa) = 0.01842745
#
# Stress axis : x y z
#
# Youngs Moduli (GPa) = 77.46346 62.69390 59.91524
#
# Poissons Ratio (x) = 0.33408 0.13874
# Poissons Ratio (y) = 0.41279 0.35451
# Poissons Ratio (z) = 0.17937 0.37095
#
# Static dielectric constant tensor:
#      x y z
#    x 3.015390 0.000000 0.000000 
#    y 0.000000 3.368570 0.000000 
#    z 0.000000 0.000000 3.130730 
# 
# 
# High freq. dielectric constant tensor:
#      x y z
#    x 1.668670 0.000000 0.000000 
#    y 0.000000 1.683910 0.000000 
#    z 0.000000 0.000000 1.654780 
# 
# From -- ./inp_files/72607.got.cif
#   From: 2010.03.12/outbox.cif.g09.slc.cpg/sg74_37_cif.got.tgz:72607.got - 2010.04.16 15:46:19.
