data_PCOD8301316
_publ_section_title
;
Structure prediction by ZEFSAII (Michael W. Deem and Ramdas Pophale) SiO2 
 PCOD8301316
Probable space group: I M M A
;
_chemical_formula_sum "Si O2"
_cell_formula_units_Z 104
_cell_length_a 8.759351
_cell_length_b 21.037175
_cell_length_c 28.040135
_cell_angle_alpha 90.000000
_cell_angle_beta 90.000000
_cell_angle_gamma 90.000000
_cell_volume 5167.011753
_symmetry_space_group_name_H-M "I M M A"
_symmetry_group_IT_number 74
_symmetry_cell_setting 'orthorhombic'
loop_
_space_group_symop_operation_xyz
x,y,z
-x,1/2-y,z
x,-y,-z
-x,1/2+y,-z
-x,-y,-z
x,1/2+y,-z
-x,y,z
x,1/2-y,z
1/2+x,1/2+y,1/2+z
1/2-x,-y,1/2+z
1/2+x,1/2-y,1/2-z
1/2-x,y,1/2-z
1/2-x,1/2-y,1/2-z
1/2+x,y,1/2-z
1/2-x,1/2+y,1/2+z
1/2+x,-y,1/2+z
loop_
_atom_site_type_symbol
_atom_site_label
_atom_site_fract_x
_atom_site_fract_y
_atom_site_fract_z
Si Si1 0.173192 0.068741 0.700654
Si Si2 0.820007 0.147412 0.120181
Si Si3 0.820830 0.097119 0.945740
Si Si4 0.675718 0.180038 0.025197
Si Si5 0.824701 0.177986 0.634593
Si Si6 0.680943 0.009757 0.111783
Si Si7 0.820406 0.250000 0.197302
O O1 0.250000 0.053538 0.750000
O O2 0.193900 0.142238 0.685180
O O3 0.000000 0.049680 0.707920
O O4 0.243100 0.024812 0.659253
O O5 0.771401 0.186566 0.073760
O O6 0.729653 0.081871 0.116615
O O7 0.770998 0.187117 0.167419
O O8 0.000000 0.134933 0.120142
O O9 0.785491 0.147140 0.904097
O O10 0.000000 0.092083 0.954303
O O11 0.756183 0.026886 0.933308
O O12 0.743162 0.123427 0.993513
O O13 0.500000 0.163428 0.036498
O O14 0.687788 0.250000 0.000116
O O15 0.775335 0.250000 0.643245
O O16 0.000000 0.171730 0.616362
O O17 0.500000 0.003449 0.106328
O O18 0.750000 0.250000 0.250000
O O19 0.000000 0.250000 0.203744
#
# Coordination Sequence:
#
# PCOD8301316 Si02
#       7
#    16  16  16  16  16  16   8
#     4   9  19  34  53  77 108 146 190 241 294 348
#     4  11  23  42  65  93 124 154 193 246 301 348
#     4  11  22  36  57  87 120 157 200 248 298 349
#     4  11  23  39  62  90 122 163 203 241 291 357
#     4   9  18  34  53  75 110 154 198 243 292 350
#     4  10  22  41  61  84 117 157 200 246 297 362
#     4  10  24  44  68  96 130 164 200 250 305 366
#
# _framework density 20.127687000000002
#
# number of rings (size 3 to 8) (size 9 to 14) (size 15 to 20)
#    0.000    1.846    0.769    4.154    0.000    8.923 
#    0.000    6.154    0.000    0.000    0.000    0.000 
#    0.000    0.000    0.000    0.000    0.000    0.000 
#
# Total GULP energy -644710.780896 kJ/mol
# GULP energy per Si atom -12398.284248 kJ/mol
# Density = 2.008188 g / cm^3
# Si number density = 20.127687 Si / 1000 Ang^3
#
#
#
# Elastic Constant Matrix: (Units=GPa)
#
#
# Indices 1 2 3 4 5 6 
#
# 1 57.6830 20.7341 27.8582 0.0000 0.0000 0.0000
# 2 20.7341 130.5333 35.4185 0.0000 0.0000 0.0000
# 3 27.8582 35.4185 112.8630 0.0000 0.0000 0.0000
# 4 0.0000 0.0000 0.0000 24.7707 0.0000 0.0000
# 5 0.0000 0.0000 0.0000 0.0000 37.3855 0.0000
# 6 0.0000 0.0000 0.0000 0.0000 0.0000 30.2204
#
#
#
# Elastic Compliance Matrix: (Units=1/GPa)
#
#
# Indices 1 2 3 4 5 6 
#
# 1 0.020160 -0.002024 -0.004341 0.000000 0.000000 0.000000
# 2 -0.002024 0.008577 -0.002192 0.000000 0.000000 0.000000
# 3 -0.004341 -0.002192 0.010620 0.000000 0.000000 0.000000
# 4 0.000000 0.000000 0.000000 0.040370 0.000000 0.000000
# 5 0.000000 0.000000 0.000000 0.000000 0.026748 0.000000
# 6 0.000000 0.000000 0.000000 0.000000 0.000000 0.033090
#
#
# Mechanical properties :
#
#
# Convention : Reuss Voigt Hill
#
# Bulk Modulus (GPa) = 44.95898 52.12231 48.54065
# Shear Modulus (GPa) = 30.47021 32.94656 31.70839
#
# Velocity S-wave (km/s) = 3.89504 4.05022 3.97339
# Velocity P-wave (km/s) = 6.52792 6.91552 6.72452
#
# Compressibility (1/GPa) = 0.02224250
#
# Stress axis : x y z
#
# Youngs Moduli (GPa) = 49.60251 116.58798 94.16500
#
# Poissons Ratio (x) = 0.23603 0.40876
# Poissons Ratio (y) = 0.10042 0.20641
# Poissons Ratio (z) = 0.21532 0.25556
#
# Static dielectric constant tensor:
#      x y z
#    x 3.585460 0.000000 0.000000 
#    y 0.000000 3.785450 0.000000 
#    z 0.000000 0.000000 3.788430 
# 
# 
# High freq. dielectric constant tensor:
#      x y z
#    x 1.784510 0.000000 0.000000 
#    y 0.000000 1.796150 0.000000 
#    z 0.000000 0.000000 1.778960 
# 
# From -- ./inp_files/64450.got.cif
#   From: 2010.03.12/outbox.cif.g09.slc.cpg/sg74_33_cif.got.tgz:64450.got - 2010.04.16 15:46:19.
