data_PCOD8301481
_publ_section_title
;
Structure prediction by ZEFSAII (Michael W. Deem and Ramdas Pophale) SiO2 
 PCOD8301481
Probable space group: I M M A
;
_chemical_formula_sum "Si O2"
_cell_formula_units_Z 72
_cell_length_a 26.590778
_cell_length_b 14.415154
_cell_length_c 9.530190
_cell_angle_alpha 90.000000
_cell_angle_beta 90.000000
_cell_angle_gamma 90.000000
_cell_volume 3653.018652
_symmetry_space_group_name_H-M "I M M A"
_symmetry_group_IT_number 74
_symmetry_cell_setting 'orthorhombic'
loop_
_space_group_symop_operation_xyz
x,y,z
-x,1/2-y,z
x,-y,-z
-x,1/2+y,-z
-x,-y,-z
x,1/2+y,-z
-x,y,z
x,1/2-y,z
1/2+x,1/2+y,1/2+z
1/2-x,-y,1/2+z
1/2+x,1/2-y,1/2-z
1/2-x,y,1/2-z
1/2-x,1/2-y,1/2-z
1/2+x,y,1/2-z
1/2-x,1/2+y,1/2+z
1/2+x,-y,1/2+z
loop_
_atom_site_type_symbol
_atom_site_label
_atom_site_fract_x
_atom_site_fract_y
_atom_site_fract_z
Si Si1 0.903909 0.354181 0.993404
Si Si2 0.311061 0.354758 0.882711
Si Si3 0.559236 0.496793 0.284347
Si Si4 0.297285 0.098635 0.570750
Si Si5 0.382907 0.500000 0.000000
O O1 0.925803 0.250000 0.987000
O O2 0.927037 0.405895 0.126729
O O3 0.918380 0.409964 0.852943
O O4 0.843241 0.348672 0.004909
O O5 0.330842 0.250000 0.858131
O O6 0.309176 0.410656 0.736464
O O7 0.255297 0.347915 0.950420
O O8 0.348330 0.408740 0.985993
O O9 0.500000 0.507489 0.275458
O O10 0.581373 0.483777 0.131278
O O11 0.291711 0.000000 0.500000
#
# Coordination Sequence:
#
# PCOD8301481 Si02
#       5
#    16  16  16  16   8
#     4  11  21  40  66  92 122 159 204 254 309 368
#     4  11  23  38  61  93 129 165 201 245 304 373
#     4  11  25  42  62  90 120 159 211 264 312 359
#     4  11  19  37  63  94 124 158 198 246 302 370
#     4  12  23  42  64  88 126 168 207 252 310 376
#
# _framework density 19.709724999999999
#
# number of rings (size 3 to 8) (size 9 to 14) (size 15 to 20)
#    0.000    0.889    5.556    4.333    0.000    2.667 
#    0.000    0.000    0.000    8.000    0.000    0.000 
#    0.000    0.000    0.000    0.000    0.000    0.000 
#
# Total GULP energy -446435.448840 kJ/mol
# GULP energy per Si atom -12400.984690 kJ/mol
# Density = 1.966487 g / cm^3
# Si number density = 19.709725 Si / 1000 Ang^3
#
#
#
# Elastic Constant Matrix: (Units=GPa)
#
#
# Indices 1 2 3 4 5 6 
#
# 1 111.7749 25.3118 31.7148 0.0000 0.0000 0.0000
# 2 25.3118 157.6225 56.5385 0.0000 0.0000 0.0000
# 3 31.7148 56.5385 109.9157 0.0000 0.0000 0.0000
# 4 0.0000 0.0000 0.0000 10.6043 0.0000 0.0000
# 5 0.0000 0.0000 0.0000 0.0000 21.8246 0.0000
# 6 0.0000 0.0000 0.0000 0.0000 0.0000 0.7649
#
#
#
# Elastic Compliance Matrix: (Units=1/GPa)
#
#
# Indices 1 2 3 4 5 6 
#
# 1 0.009804 -0.000686 -0.002476 0.000000 0.000000 0.000000
# 2 -0.000686 0.007828 -0.003828 0.000000 0.000000 0.000000
# 3 -0.002476 -0.003828 0.011782 0.000000 0.000000 0.000000
# 4 0.000000 0.000000 0.000000 0.094302 0.000000 0.000000
# 5 0.000000 0.000000 0.000000 0.000000 0.045820 0.000000
# 6 0.000000 0.000000 0.000000 0.000000 0.000000 1.307322
#
#
# Mechanical properties :
#
#
# Convention : Reuss Voigt Hill
#
# Bulk Modulus (GPa) = 64.79868 67.38261 66.09064
# Shear Modulus (GPa) = 3.34229 24.35529 13.84879
#
# Velocity S-wave (km/s) = 1.30362 3.51906 2.65361
# Velocity P-wave (km/s) = 5.93412 7.12555 6.55695
#
# Compressibility (1/GPa) = 0.01543241
#
# Stress axis : x y z
#
# Youngs Moduli (GPa) = 101.99406 127.75119 84.87868
#
# Poissons Ratio (x) = 0.08768 0.21015
# Poissons Ratio (y) = 0.07000 0.32495
# Poissons Ratio (z) = 0.25253 0.48908
#
# Static dielectric constant tensor:
#      x y z
#    x 3.871410 0.000000 0.000000 
#    y 0.000000 3.577440 0.000000 
#    z 0.000000 0.000000 3.480350 
# 
# 
# High freq. dielectric constant tensor:
#      x y z
#    x 1.784530 0.000000 0.000000 
#    y 0.000000 1.764770 0.000000 
#    z 0.000000 0.000000 1.754270 
# 
# From -- ./inp_files/14705.got.cif
#   From: 2010.03.12/outbox.cif.g09.slc.cpg/sg74_8_cif.got.tgz:14705.got - 2010.04.16 15:46:19.
