data_PCOD8301107
_publ_section_title
;
Structure prediction by ZEFSAII (Michael W. Deem and Ramdas Pophale) SiO2 
 PCOD8301107
Probable space group: I M M A
;
_chemical_formula_sum "Si O2"
_cell_formula_units_Z 88
_cell_length_a 8.758457
_cell_length_b 27.264404
_cell_length_c 18.488762
_cell_angle_alpha 90.000000
_cell_angle_beta 90.000000
_cell_angle_gamma 90.000000
_cell_volume 4415.007468
_symmetry_space_group_name_H-M "I M M A"
_symmetry_group_IT_number 74
_symmetry_cell_setting 'orthorhombic'
loop_
_space_group_symop_operation_xyz
x,y,z
-x,1/2-y,z
x,-y,-z
-x,1/2+y,-z
-x,-y,-z
x,1/2+y,-z
-x,y,z
x,1/2-y,z
1/2+x,1/2+y,1/2+z
1/2-x,-y,1/2+z
1/2+x,1/2-y,1/2-z
1/2-x,y,1/2-z
1/2-x,1/2-y,1/2-z
1/2+x,y,1/2-z
1/2-x,1/2+y,1/2+z
1/2+x,-y,1/2+z
loop_
_atom_site_type_symbol
_atom_site_label
_atom_site_fract_x
_atom_site_fract_y
_atom_site_fract_z
Si Si1 0.821558 0.428503 0.937392
Si Si2 0.820086 0.502502 0.673111
Si Si3 0.174274 0.089268 0.105118
Si Si4 0.175759 0.250000 0.825653
Si Si5 0.825016 0.695748 0.933401
Si Si6 0.323593 0.171748 0.920523
O O1 0.759951 0.475751 0.894916
O O2 0.722249 0.384047 0.907213
O O3 0.000000 0.421461 0.920770
O O4 0.794427 0.430135 0.023638
O O5 0.750000 0.485380 0.750000
O O6 0.784509 0.560161 0.659924
O O7 0.000000 0.492678 0.673637
O O8 0.208017 0.147902 0.116303
O O9 0.000000 0.077840 0.126552
O O10 0.250000 0.250000 0.750000
O O11 0.222338 0.201161 0.865605
O O12 0.000000 0.250000 0.813844
O O13 0.801086 0.750000 0.896008
O O14 0.000000 0.691283 0.961553
O O15 0.710591 0.691888 0.999847
O O16 0.500000 0.179578 0.903497
#
# Coordination Sequence:
#
# PCOD8301107 Si02
#       6
#    16  16  16   8  16  16
#     4  10  21  39  62  86 114 150 189 235 286 342
#     4  12  25  40  59  83 114 152 193 240 291 348
#     4   9  19  36  59  88 119 152 190 234 284 340
#     4  12  24  38  52  70 102 146 191 232 281 336
#     4   9  17  32  57  85 115 150 184 224 278 336
#     4  11  21  34  53  81 111 142 183 232 278 326
#
# _framework density 19.932016999999998
#
# number of rings (size 3 to 8) (size 9 to 14) (size 15 to 20)
#    0.000    1.636    0.909    6.273    0.000    6.545 
#    0.000    3.636    0.000    0.545    0.000    0.000 
#    0.000    0.000    0.000    0.000    0.000    0.000 
#
# Total GULP energy -545381.398248 kJ/mol
# GULP energy per Si atom -12395.031778 kJ/mol
# Density = 1.988665 g / cm^3
# Si number density = 19.932017 Si / 1000 Ang^3
#
#
#
# Elastic Constant Matrix: (Units=GPa)
#
#
# Indices 1 2 3 4 5 6 
#
# 1 109.7735 15.1649 15.3329 0.0001 0.0000 0.0000
# 2 15.1649 102.4390 13.2783 0.0001 0.0000 0.0000
# 3 15.3329 13.2783 32.0996 0.0004 0.0000 0.0000
# 4 0.0001 0.0001 0.0004 24.1919 0.0000 0.0000
# 5 0.0000 0.0000 0.0000 0.0000 28.3519 0.0000
# 6 0.0000 0.0000 0.0000 0.0000 0.0000 32.2420
#
#
#
# Elastic Compliance Matrix: (Units=1/GPa)
#
#
# Indices 1 2 3 4 5 6 
#
# 1 0.009838 -0.000895 -0.004329 0.000000 0.000000 0.000000
# 2 -0.000895 0.010396 -0.003873 0.000000 0.000000 0.000000
# 3 -0.004329 -0.003873 0.034823 0.000000 0.000000 0.000000
# 4 0.000000 0.000000 0.000000 0.041336 0.000000 0.000000
# 5 0.000000 0.000000 0.000000 0.000000 0.035271 0.000000
# 6 0.000000 0.000000 0.000000 0.000000 0.000000 0.031015
#
#
# Mechanical properties :
#
#
# Convention : Reuss Voigt Hill
#
# Bulk Modulus (GPa) = 27.12744 36.87382 32.00063
# Shear Modulus (GPa) = 25.88502 30.32624 28.10563
#
# Velocity S-wave (km/s) = 3.60761 3.90485 3.75917
# Velocity P-wave (km/s) = 5.56711 6.23462 5.91029
#
# Compressibility (1/GPa) = 0.03686304
#
# Stress axis : x y z
#
# Youngs Moduli (GPa) = 101.64669 96.18658 28.71672
#
# Poissons Ratio (x) = 0.08611 0.12431
# Poissons Ratio (y) = 0.09100 0.11122
# Poissons Ratio (z) = 0.44002 0.37253
#
# Static dielectric constant tensor:
#      x y z
#    x 3.597290 0.000000 0.000000 
#    y 0.000000 3.945530 0.000000 
#    z 0.000000 0.000000 3.262740 
# 
# 
# High freq. dielectric constant tensor:
#      x y z
#    x 1.782400 0.000000 0.000000 
#    y 0.000000 1.796720 0.000000 
#    z 0.000000 0.000000 1.737260 
# 
# From -- ./inp_files/40121.got.cif
#   From: 2010.03.12/outbox.cif.g09.slc.cpg/sg74_21_cif.got.tgz:40121.got - 2010.04.16 15:46:19.
