data_PCOD8301820
_publ_section_title
;
Structure prediction by ZEFSAII (Michael W. Deem and Ramdas Pophale) SiO2 
 PCOD8301820
Probable space group: I M M A
;
_chemical_formula_sum "Si O2"
_cell_formula_units_Z 40
_cell_length_a 9.000000
_cell_length_b 18.000000
_cell_length_c 27.000000
_cell_angle_alpha 90.000000
_cell_angle_beta 90.000000
_cell_angle_gamma 90.000000
_cell_volume 4374.000000
_symmetry_space_group_name_H-M "I M M A"
_symmetry_group_IT_number 74
_symmetry_cell_setting 'orthorhombic'
loop_
_space_group_symop_operation_xyz
x,y,z
-x,1/2-y,z
x,-y,-z
-x,1/2+y,-z
-x,-y,-z
x,1/2+y,-z
-x,y,z
x,1/2-y,z
1/2+x,1/2+y,1/2+z
1/2-x,-y,1/2+z
1/2+x,1/2-y,1/2-z
1/2-x,y,1/2-z
1/2-x,1/2-y,1/2-z
1/2+x,y,1/2-z
1/2-x,1/2+y,1/2+z
1/2+x,-y,1/2+z
loop_
_atom_site_type_symbol
_atom_site_label
_atom_site_fract_x
_atom_site_fract_y
_atom_site_fract_z
Si Si1 0.674405 0.837073 0.698316
Si Si2 0.676533 0.664976 0.999642
Si Si3 0.824542 0.915884 0.400865
Si Si4 0.174073 0.663557 0.300893
Si Si5 0.176063 0.588157 0.602715
O O1 0.500000 0.855578 0.701335
O O2 0.703764 0.750000 0.690774
O O3 0.750000 0.863890 0.750000
O O4 0.744552 0.878189 0.650979
O O5 0.500000 0.661167 0.000575
O O6 0.733066 0.750000 0.000711
O O7 0.732054 0.627192 0.948265
O O8 0.739512 0.623175 0.048949
O O9 0.762983 0.878712 0.349862
O O10 0.000000 0.905444 0.401303
O O11 0.779035 0.001962 0.401513
O O12 0.210602 0.750000 0.308730
O O13 0.250000 0.634179 0.250000
O O14 0.000000 0.648821 0.294829
O O15 0.000000 0.598715 0.609531
#
# Coordination Sequence:
#
# PCOD8301820 Si02
#       5
#    16  16  16  16  16
#     4  10  21  37  56  76 100 132 169 207 246 293
#     4   9  16  27  47  74 101 131 170 212 249 290
#     4   9  17  29  46  71 102 133 165 204 250 297
#     4   9  17  30  48  68  92 125 165 206 246 291
#     4  10  19  31  50  77 106 132 162 205 255 302
#
# _framework density 9.1449470000000002
#
# number of rings (size 3 to 8) (size 9 to 14) (size 15 to 20)
#    0.000    2.600    0.000    2.400    0.000    7.600 
#    0.000    3.000    0.000    3.600    0.000    2.800 
#    0.000    0.000    0.000    0.000    0.000    0.000 
#
# Total GULP energy -495879.017810 kJ/mol
# GULP energy per Si atom -12396.975445 kJ/mol
# Density = 0.912413 g / cm^3
# Si number density = 9.144947 Si / 1000 Ang^3
#
#
#
# Elastic Constant Matrix: (Units=GPa)
#
#
# Indices 1 2 3 4 5 6 
#
# 1 47.4263 29.7118 44.6298 0.0000 0.0000 0.0000
# 2 29.7118 132.7223 98.9113 0.0000 0.0000 0.0000
# 3 44.6298 98.9113 243.7933 0.0000 0.0000 0.0000
# 4 0.0000 0.0000 0.0000 44.1810 0.0000 0.0000
# 5 0.0000 0.0000 0.0000 0.0000 33.8418 0.0000
# 6 0.0000 0.0000 0.0000 0.0000 0.0000 17.6451
#
#
#
# Elastic Compliance Matrix: (Units=1/GPa)
#
#
# Indices 1 2 3 4 5 6 
#
# 1 0.026454 -0.003315 -0.003498 0.000000 0.000000 0.000000
# 2 -0.003315 0.011216 -0.003943 0.000000 0.000000 0.000000
# 3 -0.003498 -0.003943 0.006342 0.000000 0.000000 0.000000
# 4 0.000000 0.000000 0.000000 0.022634 0.000000 0.000000
# 5 0.000000 0.000000 0.000000 0.000000 0.029549 0.000000
# 6 0.000000 0.000000 0.000000 0.000000 0.000000 0.056673
#
#
# Mechanical properties :
#
#
# Convention : Reuss Voigt Hill
#
# Bulk Modulus (GPa) = 44.44752 85.60530 65.02641
# Shear Modulus (GPa) = 27.49060 35.84618 31.66839
#
# Velocity S-wave (km/s) = 3.88112 4.43187 4.16561
# Velocity P-wave (km/s) = 6.66623 8.54956 7.66595
#
# Compressibility (1/GPa) = 0.02249844
#
# Stress axis : x y z
#
# Youngs Moduli (GPa) = 37.80174 89.16175 157.67805
#
# Poissons Ratio (x) = 0.29561 0.55149
# Poissons Ratio (y) = 0.12533 0.62179
# Poissons Ratio (z) = 0.13222 0.35160
#
# Static dielectric constant tensor:
#      x y z
#    x 2.999910 0.000000 0.000000 
#    y 0.000000 3.515790 0.000000 
#    z 0.000000 0.000000 3.927290 
# 
# 
# High freq. dielectric constant tensor:
#      x y z
#    x 1.664160 0.000000 0.000000 
#    y 0.000000 1.719540 0.000000 
#    z 0.000000 0.000000 1.752560 
# 
# From -- ./inp_files/58511.got.cif
#   From: 2010.03.12/outbox.ucp.g09.slc.cvg/sg74_30_cif.got.tgz:58511.got - 2010.05.04 20:08:06.
