data_PCOD8301772
_publ_section_title
;
Structure prediction by ZEFSAII (Michael W. Deem and Ramdas Pophale) SiO2 
 PCOD8301772
Probable space group: I M M A
;
_chemical_formula_sum "Si O2"
_cell_formula_units_Z 80
_cell_length_a 9.913113
_cell_length_b 22.389384
_cell_length_c 28.477396
_cell_angle_alpha 90.000000
_cell_angle_beta 90.000000
_cell_angle_gamma 90.000000
_cell_volume 6320.515144
_symmetry_space_group_name_H-M "I M M A"
_symmetry_group_IT_number 74
_symmetry_cell_setting 'orthorhombic'
loop_
_space_group_symop_operation_xyz
x,y,z
-x,1/2-y,z
x,-y,-z
-x,1/2+y,-z
-x,-y,-z
x,1/2+y,-z
-x,y,z
x,1/2-y,z
1/2+x,1/2+y,1/2+z
1/2-x,-y,1/2+z
1/2+x,1/2-y,1/2-z
1/2-x,y,1/2-z
1/2-x,1/2-y,1/2-z
1/2+x,y,1/2-z
1/2-x,1/2+y,1/2+z
1/2+x,-y,1/2+z
loop_
_atom_site_type_symbol
_atom_site_label
_atom_site_fract_x
_atom_site_fract_y
_atom_site_fract_z
Si Si1 0.344470 0.318915 0.479376
Si Si2 0.344667 0.889718 0.614624
Si Si3 0.151314 0.593094 0.478462
Si Si4 0.844840 0.680879 0.792176
Si Si5 0.848726 0.979077 0.574483
O O1 0.500000 0.328055 0.492969
O O2 0.303007 0.250000 0.479136
O O3 0.313785 0.344453 0.427785
O O4 0.256072 0.352201 0.519121
O O5 0.500000 0.909521 0.614391
O O6 0.304557 0.856550 0.662221
O O7 0.255782 0.949922 0.611042
O O8 0.158916 0.556434 0.526208
O O9 0.189788 0.548320 0.435698
O O10 0.000000 0.618235 0.471083
O O11 0.818401 0.750000 0.803958
O O12 0.750000 0.658842 0.750000
O O13 0.000000 0.670161 0.777794
O O14 0.000000 0.975204 0.595372
#
# Coordination Sequence:
#
# PCOD8301772 Si02
#       5
#    16  16  16  16  16
#     4   9  16  24  34  49  68  89 113 141 171 201
#     4   9  16  25  37  51  66  85 111 143 176 207
#     4   8  14  24  35  47  65  87 109 135 167 200
#     4   9  17  28  39  50  66  88 113 142 176 211
#     4   8  14  24  36  49  65  84 107 137 170 201
#
# _framework density 12.657196000000001
#
# number of rings (size 3 to 8) (size 9 to 14) (size 15 to 20)
#    0.000    3.400    0.000    1.800    0.000    4.400 
#    0.000    4.000    0.000    3.600    0.000    0.000 
#    0.000    0.000    0.000    0.000    0.000    1.000 
#
# Total GULP energy -495800.809194 kJ/mol
# GULP energy per Si atom -12395.020230 kJ/mol
# Density = 1.262839 g / cm^3
# Si number density = 12.657196 Si / 1000 Ang^3
#
#
#
# Elastic Constant Matrix: (Units=GPa)
#
#
# Indices 1 2 3 4 5 6 
#
# 1 79.7996 59.7361 44.5645 0.0000 0.0000 0.0000
# 2 59.7361 77.7838 42.5804 0.0000 0.0000 0.0000
# 3 44.5645 42.5804 50.2119 0.0000 0.0000 0.0000
# 4 0.0000 0.0000 0.0000 20.6748 0.0000 0.0000
# 5 0.0000 0.0000 0.0000 0.0000 18.8975 0.0000
# 6 0.0000 0.0000 0.0000 0.0000 0.0000 24.2578
#
#
#
# Elastic Compliance Matrix: (Units=1/GPa)
#
#
# Indices 1 2 3 4 5 6 
#
# 1 0.034853 -0.018353 -0.015370 0.000000 0.000000 0.000000
# 2 -0.018353 0.033659 -0.012255 0.000000 0.000000 0.000000
# 3 -0.015370 -0.012255 0.043949 0.000000 0.000000 0.000000
# 4 0.000000 0.000000 0.000000 0.048368 0.000000 0.000000
# 5 0.000000 0.000000 0.000000 0.000000 0.052917 0.000000
# 6 0.000000 0.000000 0.000000 0.000000 0.000000 0.041224
#
#
# Mechanical properties :
#
#
# Convention : Reuss Voigt Hill
#
# Bulk Modulus (GPa) = 48.76486 55.72858 52.24672
# Shear Modulus (GPa) = 14.13384 16.82696 15.48040
#
# Velocity S-wave (km/s) = 3.34528 3.65010 3.50101
# Velocity P-wave (km/s) = 7.31657 7.86696 7.59675
#
# Compressibility (1/GPa) = 0.02050657
#
# Stress axis : x y z
#
# Youngs Moduli (GPa) = 28.69184 29.70963 22.75356
#
# Poissons Ratio (x) = 0.54525 0.34972
# Poissons Ratio (y) = 0.52657 0.27884
# Poissons Ratio (z) = 0.44099 0.36409
#
# Static dielectric constant tensor:
#      x y z
#    x 2.724130 0.000000 0.000000 
#    y 0.000000 2.635500 0.000000 
#    z 0.000000 0.000000 2.330810 
# 
# 
# High freq. dielectric constant tensor:
#      x y z
#    x 1.490080 0.000000 0.000000 
#    y 0.000000 1.465660 0.000000 
#    z 0.000000 0.000000 1.435420 
# 
# From -- ./inp_files/70374.got.cif
#   From: 2010.03.12/outbox.cif.g09.slc.cpg/sg74_36_cif.got.tgz:70374.got - 2010.04.16 15:46:19.
