data_PCOD8301132
_publ_section_title
;
Structure prediction by ZEFSAII (Michael W. Deem and Ramdas Pophale) SiO2 
 PCOD8301132
Probable space group: I M M A
;
_chemical_formula_sum "Si O2"
_cell_formula_units_Z 104
_cell_length_a 21.362223
_cell_length_b 8.443844
_cell_length_c 26.913976
_cell_angle_alpha 90.000000
_cell_angle_beta 90.000000
_cell_angle_gamma 90.000000
_cell_volume 4854.723573
_symmetry_space_group_name_H-M "I M M A"
_symmetry_group_IT_number 74
_symmetry_cell_setting 'orthorhombic'
loop_
_space_group_symop_operation_xyz
x,y,z
-x,1/2-y,z
x,-y,-z
-x,1/2+y,-z
-x,-y,-z
x,1/2+y,-z
-x,y,z
x,1/2-y,z
1/2+x,1/2+y,1/2+z
1/2-x,-y,1/2+z
1/2+x,1/2-y,1/2-z
1/2-x,y,1/2-z
1/2-x,1/2-y,1/2-z
1/2+x,y,1/2-z
1/2-x,1/2+y,1/2+z
1/2+x,-y,1/2+z
loop_
_atom_site_type_symbol
_atom_site_label
_atom_site_fract_x
_atom_site_fract_y
_atom_site_fract_z
Si Si1 0.392441 0.934288 0.379104
Si Si2 0.500000 0.938249 0.554730
Si Si3 0.209564 0.434161 0.053932
Si Si4 0.571795 0.564084 0.946988
Si Si5 0.680635 0.933978 0.108046
Si Si6 0.191085 0.061953 0.284001
Si Si7 0.429788 0.935829 0.725620
O O1 0.398642 0.750000 0.366945
O O2 0.439098 0.988979 0.421251
O O3 0.324632 0.974820 0.400923
O O4 0.407668 0.030796 0.329898
O O5 0.500000 0.750000 0.558526
O O6 0.500000 0.000000 0.500000
O O7 0.192725 0.250000 0.055215
O O8 0.281942 0.466456 0.066132
O O9 0.190654 0.500000 0.000000
O O10 0.500000 0.518043 0.938543
O O11 0.583070 0.750000 0.944179
O O12 0.608539 0.478061 0.902273
O O13 0.595323 0.500000 0.000000
O O14 0.693410 0.750000 0.099980
O O15 0.701010 0.981779 0.163133
O O16 0.189796 0.250000 0.290100
O O17 0.250000 0.010120 0.250000
O O18 0.124725 0.997865 0.261845
O O19 0.500000 0.008289 0.735912
O O20 0.434235 0.750000 0.732762
#
# Coordination Sequence:
#
# PCOD8301132 Si02
#       7
#    16   8  16  16  16  16  16
#     4  12  24  40  62  92 126 163 208 258 313 371
#     4  12  24  40  60  86 122 164 210 256 307 364
#     4  12  25  43  65  91 126 167 211 260 313 377
#     4  10  21  39  64  93 127 167 209 254 308 375
#     4  12  25  41  63  93 128 165 207 259 316 378
#     4  10  22  41  64  90 122 164 212 262 320 383
#     4  10  21  39  64  92 124 166 214 263 318 382
#
# _framework density 21.422436000000001
#
# number of rings (size 3 to 8) (size 9 to 14) (size 15 to 20)
#    0.000    0.923    0.769    7.154    0.000    3.692 
#    0.000    1.538    0.000    0.000    0.000    0.000 
#    0.000    0.000    0.000    0.000    0.000    0.000 
#
# Total GULP energy -644957.458237 kJ/mol
# GULP energy per Si atom -12403.028043 kJ/mol
# Density = 2.137368 g / cm^3
# Si number density = 21.422436 Si / 1000 Ang^3
#
#
#
# Elastic Constant Matrix: (Units=GPa)
#
#
# Indices 1 2 3 4 5 6 
#
# 1 112.5913 25.1757 36.3017 0.0000 0.0000 0.0000
# 2 25.1757 48.9569 17.4872 0.0000 0.0000 0.0000
# 3 36.3017 17.4872 83.8060 0.0000 0.0000 0.0000
# 4 0.0000 0.0000 0.0000 36.9547 0.0000 0.0000
# 5 0.0000 0.0000 0.0000 0.0000 48.3889 0.0000
# 6 0.0000 0.0000 0.0000 0.0000 0.0000 30.8301
#
#
#
# Elastic Compliance Matrix: (Units=1/GPa)
#
#
# Indices 1 2 3 4 5 6 
#
# 1 0.011107 -0.004315 -0.003911 0.000000 0.000000 0.000000
# 2 -0.004315 0.023747 -0.003086 0.000000 0.000000 0.000000
# 3 -0.003911 -0.003086 0.014270 0.000000 0.000000 0.000000
# 4 0.000000 0.000000 0.000000 0.027060 0.000000 0.000000
# 5 0.000000 0.000000 0.000000 0.000000 0.020666 0.000000
# 6 0.000000 0.000000 0.000000 0.000000 0.000000 0.032436
#
#
# Mechanical properties :
#
#
# Convention : Reuss Voigt Hill
#
# Bulk Modulus (GPa) = 37.73421 44.80927 41.27174
# Shear Modulus (GPa) = 31.10517 34.32739 32.71628
#
# Velocity S-wave (km/s) = 3.81463 4.00735 3.91218
# Velocity P-wave (km/s) = 6.08724 6.50954 6.30193
#
# Compressibility (1/GPa) = 0.02650115
#
# Stress axis : x y z
#
# Youngs Moduli (GPa) = 90.02932 42.10986 70.07522
#
# Poissons Ratio (x) = 0.18170 0.27406
# Poissons Ratio (y) = 0.38847 0.21626
# Poissons Ratio (z) = 0.35210 0.12996
#
# Static dielectric constant tensor:
#      x y z
#    x 4.262600 0.000000 0.000000 
#    y 0.000000 3.769370 0.000000 
#    z 0.000000 0.000000 3.893630 
# 
# 
# High freq. dielectric constant tensor:
#      x y z
#    x 1.860720 0.000000 0.000000 
#    y 0.000000 1.837190 0.000000 
#    z 0.000000 0.000000 1.840850 
# 
# From -- ./inp_files/68234.got.cif
#   From: 2010.03.12/outbox.cif.g09.slc.cpg/sg74_35_cif.got.tgz:68234.got - 2010.04.16 15:46:19.
