data_PCOD8301356
_publ_section_title
;
Structure prediction by ZEFSAII (Michael W. Deem and Ramdas Pophale) SiO2 
 PCOD8301356
Probable space group: I M M A
;
_chemical_formula_sum "Si O2"
_cell_formula_units_Z 64
_cell_length_a 24.255639
_cell_length_b 15.380422
_cell_length_c 8.622793
_cell_angle_alpha 90.000000
_cell_angle_beta 90.000000
_cell_angle_gamma 90.000000
_cell_volume 3216.836089
_symmetry_space_group_name_H-M "I M M A"
_symmetry_group_IT_number 74
_symmetry_cell_setting 'orthorhombic'
loop_
_space_group_symop_operation_xyz
x,y,z
-x,1/2-y,z
x,-y,-z
-x,1/2+y,-z
-x,-y,-z
x,1/2+y,-z
-x,y,z
x,1/2-y,z
1/2+x,1/2+y,1/2+z
1/2-x,-y,1/2+z
1/2+x,1/2-y,1/2-z
1/2-x,y,1/2-z
1/2-x,1/2-y,1/2-z
1/2+x,y,1/2-z
1/2-x,1/2+y,1/2+z
1/2+x,-y,1/2+z
loop_
_atom_site_type_symbol
_atom_site_label
_atom_site_fract_x
_atom_site_fract_y
_atom_site_fract_z
Si Si1 0.852731 0.250000 0.936148
Si Si2 0.436938 0.408728 0.082928
Si Si3 0.250000 0.607233 0.750000
Si Si4 0.637361 0.573957 0.621187
Si Si5 0.113847 0.750000 0.395892
Si Si6 0.232731 0.750000 0.502401
O O1 0.894932 0.250000 0.790411
O O2 0.863805 0.333388 0.040190
O O3 0.787349 0.250000 0.895360
O O4 0.500000 0.382594 0.112564
O O5 0.407886 0.418662 0.246747
O O6 0.431300 0.500000 0.000000
O O7 0.410334 0.335506 0.974415
O O8 0.302265 0.549895 0.693221
O O9 0.228721 0.665057 0.608837
O O10 0.620143 0.500000 0.500000
O O11 0.179648 0.750000 0.396298
#
# Coordination Sequence:
#
# PCOD8301356 Si02
#       6
#     8  16   8  16   8   8
#     4  10  23  38  60  97 127 158 200 245 308 373
#     4  11  25  43  64  89 119 163 213 258 306 360
#     4   9  18  36  58  91 122 154 198 245 302 369
#     4  11  22  41  63  90 126 164 205 253 313 368
#     4  12  20  41  65  89 124 160 207 248 303 368
#     4   9  17  35  61  86 123 161 189 246 300 361
#
# _framework density 19.895326000000001
#
# number of rings (size 3 to 8) (size 9 to 14) (size 15 to 20)
#    0.000    1.500    2.500    3.750    0.000    1.500 
#    9.000    2.500    0.000    0.000    0.000    0.000 
#    0.000    0.000    0.000    0.000    0.000    0.000 
#
# Total GULP energy -396752.769177 kJ/mol
# GULP energy per Si atom -12398.524037 kJ/mol
# Density = 1.985004 g / cm^3
# Si number density = 19.895326 Si / 1000 Ang^3
#
#
#
# Elastic Constant Matrix: (Units=GPa)
#
#
# Indices 1 2 3 4 5 6 
#
# 1 134.0794 52.5874 81.1334 0.0000 0.0000 0.0000
# 2 52.5874 98.9661 48.0975 0.0000 0.0000 0.0000
# 3 81.1334 48.0975 132.5824 0.0000 0.0000 0.0000
# 4 0.0000 0.0000 0.0000 26.6215 0.0000 0.0000
# 5 0.0000 0.0000 0.0000 0.0000 24.9605 0.0000
# 6 0.0000 0.0000 0.0000 0.0000 0.0000 27.8394
#
#
#
# Elastic Compliance Matrix: (Units=1/GPa)
#
#
# Indices 1 2 3 4 5 6 
#
# 1 0.012845 -0.003648 -0.006537 0.000000 0.000000 0.000000
# 2 -0.003648 0.013304 -0.002594 0.000000 0.000000 0.000000
# 3 -0.006537 -0.002594 0.012483 0.000000 0.000000 0.000000
# 4 0.000000 0.000000 0.000000 0.037564 0.000000 0.000000
# 5 0.000000 0.000000 0.000000 0.000000 0.040063 0.000000
# 6 0.000000 0.000000 0.000000 0.000000 0.000000 0.035920
#
#
# Mechanical properties :
#
#
# Convention : Reuss Voigt Hill
#
# Bulk Modulus (GPa) = 76.48554 81.02940 78.75747
# Shear Modulus (GPa) = 27.45828 28.13825 27.79826
#
# Velocity S-wave (km/s) = 3.71905 3.76482 3.74200
# Velocity P-wave (km/s) = 7.54779 7.72753 7.63819
#
# Compressibility (1/GPa) = 0.01307437
#
# Stress axis : x y z
#
# Youngs Moduli (GPa) = 77.85340 75.16771 80.10590
#
# Poissons Ratio (x) = 0.27424 0.52363
# Poissons Ratio (y) = 0.28404 0.20776
# Poissons Ratio (z) = 0.50890 0.19495
#
# Static dielectric constant tensor:
#      x y z
#    x 3.775490 0.000000 0.000000 
#    y 0.000000 3.569900 0.000000 
#    z 0.000000 0.000000 3.612990 
# 
# 
# High freq. dielectric constant tensor:
#      x y z
#    x 1.775640 0.000000 0.000000 
#    y 0.000000 1.775140 0.000000 
#    z 0.000000 0.000000 1.786130 
# 
# From -- ./inp_files/8919.got.cif
#   From: 2010.03.12/outbox.cif.g09.slc.cpg/sg74_5_cif.got.tgz:8919.got - 2010.04.16 15:46:19.
