data_PCOD8301089
_publ_section_title
;
Structure prediction by ZEFSAII (Michael W. Deem and Ramdas Pophale) SiO2 
 PCOD8301089
Probable space group: I M M A
;
_chemical_formula_sum "Si O2"
_cell_formula_units_Z 96
_cell_length_a 14.276431
_cell_length_b 30.664178
_cell_length_c 11.655445
_cell_angle_alpha 90.000000
_cell_angle_beta 90.000000
_cell_angle_gamma 90.000000
_cell_volume 5102.462684
_symmetry_space_group_name_H-M "I M M A"
_symmetry_group_IT_number 74
_symmetry_cell_setting 'orthorhombic'
loop_
_space_group_symop_operation_xyz
x,y,z
-x,1/2-y,z
x,-y,-z
-x,1/2+y,-z
-x,-y,-z
x,1/2+y,-z
-x,y,z
x,1/2-y,z
1/2+x,1/2+y,1/2+z
1/2-x,-y,1/2+z
1/2+x,1/2-y,1/2-z
1/2-x,y,1/2-z
1/2-x,1/2-y,1/2-z
1/2+x,y,1/2-z
1/2-x,1/2+y,1/2+z
1/2+x,-y,1/2+z
loop_
_atom_site_type_symbol
_atom_site_label
_atom_site_fract_x
_atom_site_fract_y
_atom_site_fract_z
Si Si1 0.730882 0.954747 0.937847
Si Si2 0.897483 0.750000 0.940777
Si Si3 0.652208 0.750000 0.312826
Si Si4 0.174534 0.165244 0.158833
Si Si5 0.750685 0.871319 0.071136
Si Si6 0.391256 0.928703 0.724285
Si Si7 0.104556 0.343628 0.747453
O O1 0.648653 0.942097 0.848662
O O2 0.831420 0.953999 0.873007
O O3 0.730021 0.921380 0.043460
O O4 0.710763 0.000000 0.000000
O O5 0.890458 0.706976 0.862160
O O6 0.000000 0.750000 0.996914
O O7 0.827627 0.750000 0.049758
O O8 0.750000 0.750000 0.250000
O O9 0.595538 0.792736 0.276962
O O10 0.250000 0.180445 0.250000
O O11 0.117363 0.123356 0.204825
O O12 0.230197 0.154763 0.043787
O O13 0.841468 0.869466 0.152663
O O14 0.659849 0.849701 0.128876
O O15 0.500000 0.942425 0.715383
O O16 0.000000 0.363028 0.736434
#
# Coordination Sequence:
#
# PCOD8301089 Si02
#       7
#    16   8   8  16  16  16  16
#     4  10  22  42  63  87 119 155 194 248 310 364
#     4  12  23  33  58  91 120 157 210 254 285 345
#     4  12  20  37  56  84 121 161 199 248 288 346
#     4  11  20  40  60  86 120 165 201 245 300 352
#     4  10  21  39  59  85 117 156 199 244 299 357
#     4  10  21  39  63  89 120 157 197 244 302 361
#     4  11  22  36  58  87 121 159 200 245 295 349
#
# _framework density 18.814446
#
# number of rings (size 3 to 8) (size 9 to 14) (size 15 to 20)
#    0.000    1.333    6.667    1.500    0.000    6.667 
#    0.000    1.667    0.000    0.000    0.000    0.000 
#    0.000    0.000    0.000    0.000    0.000    0.000 
#
# Total GULP energy -595140.226433 kJ/mol
# GULP energy per Si atom -12398.754717 kJ/mol
# Density = 1.877162 g / cm^3
# Si number density = 18.814446 Si / 1000 Ang^3
#
#
#
# Elastic Constant Matrix: (Units=GPa)
#
#
# Indices 1 2 3 4 5 6 
#
# 1 135.0856 22.8098 51.0228 0.0001 -0.0003 0.0000
# 2 22.8098 132.0101 56.1034 0.0002 -0.0001 -0.0001
# 3 51.0228 56.1034 106.8383 -0.0003 -0.0006 0.0001
# 4 0.0001 0.0002 -0.0003 33.5335 -0.0002 -0.0001
# 5 -0.0003 -0.0001 -0.0006 -0.0002 9.2603 -0.0002
# 6 0.0000 -0.0001 0.0001 -0.0001 -0.0002 17.4880
#
#
#
# Elastic Compliance Matrix: (Units=1/GPa)
#
#
# Indices 1 2 3 4 5 6 
#
# 1 0.009045 0.000351 -0.004504 0.000000 0.000000 0.000000
# 2 0.000351 0.009765 -0.005296 0.000000 0.000000 0.000000
# 3 -0.004504 -0.005296 0.014292 0.000000 0.000001 0.000000
# 4 0.000000 0.000000 0.000000 0.029821 0.000001 0.000000
# 5 0.000000 0.000000 0.000001 0.000001 0.107988 0.000001
# 6 0.000000 0.000000 0.000000 0.000000 0.000001 0.057182
#
#
# Mechanical properties :
#
#
# Convention : Reuss Voigt Hill
#
# Bulk Modulus (GPa) = 70.39816 70.42287 70.41051
# Shear Modulus (GPa) = 19.86308 28.32290 24.09299
#
# Velocity S-wave (km/s) = 3.25273 3.88413 3.58237
# Velocity P-wave (km/s) = 7.18369 7.59123 7.39027
#
# Compressibility (1/GPa) = 0.01420492
#
# Stress axis : x y z
#
# Youngs Moduli (GPa) = 110.56393 102.40552 69.97043
#
# Poissons Ratio (x) = -0.03598 0.31514
# Poissons Ratio (y) = -0.03884 0.37054
# Poissons Ratio (z) = 0.49797 0.54231
#
# Static dielectric constant tensor:
#      x y z
#    x 3.390840 0.000000 0.000010 
#    y 0.000000 3.582200 0.000000 
#    z 0.000010 0.000000 3.350510 
# 
# 
# High freq. dielectric constant tensor:
#      x y z
#    x 1.722740 0.000000 0.000000 
#    y 0.000000 1.727200 0.000000 
#    z 0.000000 0.000000 1.738470 
# 
# From -- ./inp_files/21074.got.cif
#   From: 2010.03.12/outbox.cif.g09.slc.cpg/sg74_11_cif.got.tgz:21074.got - 2010.04.16 15:46:19.
