data_PCOD8301287
_publ_section_title
;
Structure prediction by ZEFSAII (Michael W. Deem and Ramdas Pophale) SiO2 
 PCOD8301287
Probable space group: I M M A
;
_chemical_formula_sum "Si O2"
_cell_formula_units_Z 64
_cell_length_a 24.576006
_cell_length_b 17.746622
_cell_length_c 7.377809
_cell_angle_alpha 90.000000
_cell_angle_beta 90.000000
_cell_angle_gamma 90.000000
_cell_volume 3217.765650
_symmetry_space_group_name_H-M "I M M A"
_symmetry_group_IT_number 74
_symmetry_cell_setting 'orthorhombic'
loop_
_space_group_symop_operation_xyz
x,y,z
-x,1/2-y,z
x,-y,-z
-x,1/2+y,-z
-x,-y,-z
x,1/2+y,-z
-x,y,z
x,1/2-y,z
1/2+x,1/2+y,1/2+z
1/2-x,-y,1/2+z
1/2+x,1/2-y,1/2-z
1/2-x,y,1/2-z
1/2-x,1/2-y,1/2-z
1/2+x,y,1/2-z
1/2-x,1/2+y,1/2+z
1/2+x,-y,1/2+z
loop_
_atom_site_type_symbol
_atom_site_label
_atom_site_fract_x
_atom_site_fract_y
_atom_site_fract_z
Si Si1 0.384174 0.339515 0.102669
Si Si2 0.500000 0.167089 0.494607
Si Si3 0.186792 0.663157 0.263792
Si Si4 0.500000 0.168129 0.065145
Si Si5 0.609828 0.911638 0.512625
O O1 0.389424 0.250000 0.146787
O O2 0.441897 0.370038 0.013602
O O3 0.373185 0.384749 0.286594
O O4 0.335116 0.356200 0.965170
O O5 0.500000 0.250000 0.583613
O O6 0.500000 0.173165 0.280808
O O7 0.553909 0.124417 0.560772
O O8 0.174691 0.750000 0.217397
O O9 0.250000 0.644425 0.250000
O O10 0.158471 0.611244 0.117534
O O11 0.500000 0.250000 0.973256
O O12 0.602064 0.000000 0.500000
#
# Coordination Sequence:
#
# PCOD8301287 Si02
#       5
#    16   8  16   8  16
#     4   9  18  35  59  84 116 154 197 246 294 346
#     4   9  17  34  61  86 117 155 199 242 291 361
#     4  10  22  40  60  84 111 151 213 260 287 347
#     4   7  12  26  51  83 110 139 180 230 288 346
#     4  11  22  37  57  90 123 158 188 244 307 367
#
# _framework density 19.889578
#
# number of rings (size 3 to 8) (size 9 to 14) (size 15 to 20)
#    0.000    2.500    0.000    4.125    0.000    3.000 
#    4.500    6.250    0.000    6.000    0.000    0.000 
#    0.000    0.000    0.000    0.000    0.000    0.000 
#
# Total GULP energy -396585.557463 kJ/mol
# GULP energy per Si atom -12393.298671 kJ/mol
# Density = 1.984431 g / cm^3
# Si number density = 19.889578 Si / 1000 Ang^3
#
#
#
# Elastic Constant Matrix: (Units=GPa)
#
#
# Indices 1 2 3 4 5 6 
#
# 1 140.6524 68.5876 58.8536 0.0000 0.0000 0.0000
# 2 68.5876 121.8913 47.9937 0.0000 0.0000 0.0000
# 3 58.8536 47.9937 92.3794 0.0000 0.0000 0.0000
# 4 0.0000 0.0000 0.0000 14.4621 0.0000 0.0000
# 5 0.0000 0.0000 0.0000 0.0000 24.4005 0.0000
# 6 0.0000 0.0000 0.0000 0.0000 0.0000 22.5168
#
#
#
# Elastic Compliance Matrix: (Units=1/GPa)
#
#
# Indices 1 2 3 4 5 6 
#
# 1 0.011331 -0.004442 -0.004911 0.000000 0.000000 0.000000
# 2 -0.004442 0.012055 -0.003433 0.000000 0.000000 0.000000
# 3 -0.004911 -0.003433 0.015737 0.000000 0.000000 0.000000
# 4 0.000000 0.000000 0.000000 0.069146 0.000000 0.000000
# 5 0.000000 0.000000 0.000000 0.000000 0.040983 0.000000
# 6 0.000000 0.000000 0.000000 0.000000 0.000000 0.044411
#
#
# Mechanical properties :
#
#
# Convention : Reuss Voigt Hill
#
# Bulk Modulus (GPa) = 73.79463 78.42143 76.10803
# Shear Modulus (GPa) = 22.34612 24.24178 23.29395
#
# Velocity S-wave (km/s) = 3.35552 3.49494 3.42594
# Velocity P-wave (km/s) = 7.22463 7.46995 7.34832
#
# Compressibility (1/GPa) = 0.01355112
#
# Stress axis : x y z
#
# Youngs Moduli (GPa) = 88.25545 82.95076 63.54402
#
# Poissons Ratio (x) = 0.36848 0.31205
# Poissons Ratio (y) = 0.39204 0.21815
# Poissons Ratio (z) = 0.43341 0.28478
#
# Static dielectric constant tensor:
#      x y z
#    x 4.016740 0.000000 0.000000 
#    y 0.000000 3.379330 0.000000 
#    z 0.000000 0.000000 3.407010 
# 
# 
# High freq. dielectric constant tensor:
#      x y z
#    x 1.786760 0.000000 0.000000 
#    y 0.000000 1.747680 0.000000 
#    z 0.000000 0.000000 1.768520 
# 
# From -- ./inp_files/13413.got.cif
#   From: 2010.03.12/outbox.cif.g09.slc.cpg/sg74_7_cif.got.tgz:13413.got - 2010.04.16 15:46:19.
