data_PCOD8301757
_publ_section_title
;
Structure prediction by ZEFSAII (Michael W. Deem and Ramdas Pophale) SiO2 
 PCOD8301757
Probable space group: I M M A
;
_chemical_formula_sum "Si O2"
_cell_formula_units_Z 96
_cell_length_a 22.217299
_cell_length_b 9.953596
_cell_length_c 39.577014
_cell_angle_alpha 90.000000
_cell_angle_beta 90.000000
_cell_angle_gamma 90.000000
_cell_volume 8752.140760
_symmetry_space_group_name_H-M "I M M A"
_symmetry_group_IT_number 74
_symmetry_cell_setting 'orthorhombic'
loop_
_space_group_symop_operation_xyz
x,y,z
-x,1/2-y,z
x,-y,-z
-x,1/2+y,-z
-x,-y,-z
x,1/2+y,-z
-x,y,z
x,1/2-y,z
1/2+x,1/2+y,1/2+z
1/2-x,-y,1/2+z
1/2+x,1/2-y,1/2-z
1/2-x,y,1/2-z
1/2-x,1/2-y,1/2-z
1/2+x,y,1/2-z
1/2-x,1/2+y,1/2+z
1/2+x,-y,1/2+z
loop_
_atom_site_type_symbol
_atom_site_label
_atom_site_fract_x
_atom_site_fract_y
_atom_site_fract_z
Si Si1 0.155141 0.900384 0.736548
Si Si2 0.144824 0.594204 0.164771
Si Si3 0.732465 0.400698 0.304056
Si Si4 0.571721 0.899705 0.471948
Si Si5 0.069376 0.403770 0.768249
Si Si6 0.433218 0.590573 0.397279
O O1 0.129105 0.750000 0.731740
O O2 0.198305 0.938124 0.704892
O O3 0.194157 0.907278 0.770175
O O4 0.100404 0.005284 0.739363
O O5 0.163325 0.750000 0.161631
O O6 0.205712 0.507922 0.169494
O O7 0.098468 0.571394 0.195256
O O8 0.112827 0.538101 0.131012
O O9 0.729225 0.250000 0.319341
O O10 0.500000 0.896500 0.473767
O O11 0.597082 0.750000 0.478937
O O12 0.590824 0.950521 0.434534
O O13 0.599008 0.000000 0.500000
O O14 0.077421 0.250000 0.756954
O O15 0.000000 0.444898 0.770998
O O16 0.500000 0.529482 0.390879
O O17 0.438154 0.750000 0.394963
#
# Coordination Sequence:
#
# PCOD8301757 Si02
#       6
#    16  16  16  16  16  16
#     4   8  14  24  35  43  53  73  96 114 136 170
#     4   9  15  22  33  46  58  74  95 115 139 176
#     4   8  14  24  34  43  56  72  91 116 143 167
#     4   8  13  21  32  43  54  70  92 116 140 166
#     4   9  16  23  31  45  62  75  89 115 147 173
#     4   8  13  21  32  44  58  76  95 114 140 176
#
# _framework density 10.968745
#
# number of rings (size 3 to 8) (size 9 to 14) (size 15 to 20)
#    0.000    3.667    0.000    2.500    0.000    3.000 
#    0.000    4.167    0.000    2.500    0.000    0.000 
#    0.000    0.000    0.000    0.000    0.000    0.000 
#
# Total GULP energy -594791.402530 kJ/mol
# GULP energy per Si atom -12391.487553 kJ/mol
# Density = 1.094378 g / cm^3
# Si number density = 10.968745 Si / 1000 Ang^3
#
#
#
# Elastic Constant Matrix: (Units=GPa)
#
#
# Indices 1 2 3 4 5 6 
#
# 1 41.4006 33.9704 30.9530 0.0000 0.0000 0.0000
# 2 33.9704 56.8605 36.8062 0.0000 0.0000 0.0000
# 3 30.9530 36.8062 60.1652 0.0000 0.0000 0.0000
# 4 0.0000 0.0000 0.0000 13.5715 0.0000 0.0000
# 5 0.0000 0.0000 0.0000 0.0000 10.8753 0.0000
# 6 0.0000 0.0000 0.0000 0.0000 0.0000 15.8513
#
#
#
# Elastic Compliance Matrix: (Units=1/GPa)
#
#
# Indices 1 2 3 4 5 6 
#
# 1 0.052925 -0.023169 -0.013055 0.000000 0.000000 0.000000
# 2 -0.023169 0.039260 -0.012098 0.000000 0.000000 0.000000
# 3 -0.013055 -0.012098 0.030738 0.000000 0.000000 0.000000
# 4 0.000000 0.000000 0.000000 0.073684 0.000000 0.000000
# 5 0.000000 0.000000 0.000000 0.000000 0.091951 0.000000
# 6 0.000000 0.000000 0.000000 0.000000 0.000000 0.063086
#
#
# Mechanical properties :
#
#
# Convention : Reuss Voigt Hill
#
# Bulk Modulus (GPa) = 38.05113 40.20950 39.13032
# Shear Modulus (GPa) = 10.93981 11.83941 11.38961
#
# Velocity S-wave (km/s) = 3.16153 3.28895 3.22587
# Velocity P-wave (km/s) = 6.93490 7.15268 7.04463
#
# Compressibility (1/GPa) = 0.02628043
#
# Stress axis : x y z
#
# Youngs Moduli (GPa) = 18.89454 25.47139 32.53326
#
# Poissons Ratio (x) = 0.59015 0.42471
# Poissons Ratio (y) = 0.43777 0.39357
# Poissons Ratio (z) = 0.24666 0.30814
#
# Static dielectric constant tensor:
#      x y z
#    x 2.273900 0.000000 0.000000 
#    y 0.000000 2.432650 0.000000 
#    z 0.000000 0.000000 2.341710 
# 
# 
# High freq. dielectric constant tensor:
#      x y z
#    x 1.380700 0.000000 0.000000 
#    y 0.000000 1.412430 0.000000 
#    z 0.000000 0.000000 1.385330 
# 
# From -- ./inp_files/67696.got.cif
#   From: 2010.03.12/outbox.cif.g09.slc.cpg/sg74_34_cif.got.tgz:67696.got - 2010.04.16 15:46:19.
