data_PCOD8301110
_publ_section_title
;
Structure prediction by ZEFSAII (Michael W. Deem and Ramdas Pophale) SiO2 
 PCOD8301110
Probable space group: I M M A
;
_chemical_formula_sum "Si O2"
_cell_formula_units_Z 112
_cell_length_a 17.765238
_cell_length_b 28.367941
_cell_length_c 11.051012
_cell_angle_alpha 90.000000
_cell_angle_beta 90.000000
_cell_angle_gamma 90.000000
_cell_volume 5569.303630
_symmetry_space_group_name_H-M "I M M A"
_symmetry_group_IT_number 74
_symmetry_cell_setting 'orthorhombic'
loop_
_space_group_symop_operation_xyz
x,y,z
-x,1/2-y,z
x,-y,-z
-x,1/2+y,-z
-x,-y,-z
x,1/2+y,-z
-x,y,z
x,1/2-y,z
1/2+x,1/2+y,1/2+z
1/2-x,-y,1/2+z
1/2+x,1/2-y,1/2-z
1/2-x,y,1/2-z
1/2-x,1/2-y,1/2-z
1/2+x,y,1/2-z
1/2-x,1/2+y,1/2+z
1/2+x,-y,1/2+z
loop_
_atom_site_type_symbol
_atom_site_label
_atom_site_fract_x
_atom_site_fract_y
_atom_site_fract_z
Si Si1 0.799721 0.803894 0.631014
Si Si2 0.209944 0.198303 0.880081
Si Si3 0.916497 0.471205 0.789313
Si Si4 0.583058 0.073553 0.347944
Si Si5 0.086760 0.385498 0.407969
Si Si6 0.685845 0.951774 0.069748
Si Si7 0.839908 0.602181 0.066139
O O1 0.826024 0.750000 0.647032
O O2 0.750000 0.818117 0.750000
O O3 0.760165 0.810430 0.500153
O O4 0.873728 0.835997 0.623377
O O5 0.171091 0.250000 0.892246
O O6 0.250000 0.196423 0.750000
O O7 0.151983 0.155007 0.880747
O O8 0.905903 0.517939 0.869689
O O9 0.850386 0.468970 0.693076
O O10 0.908998 0.426969 0.878667
O O11 0.000000 0.470563 0.729724
O O12 0.500000 0.090558 0.388013
O O13 0.593914 0.081141 0.206772
O O14 0.646295 0.102593 0.421560
O O15 0.127120 0.415469 0.511360
O O16 0.000000 0.375537 0.444427
O O17 0.760666 0.922054 0.097036
O O18 0.705015 0.000000 0.000000
#
# Coordination Sequence:
#
# PCOD8301110 Si02
#       7
#    16  16  16  16  16  16  16
#     4  10  21  40  66  94 122 159 207 260 314 366
#     4  10  21  39  62  87 121 159 197 247 315 376
#     4  11  23  39  58  82 121 163 199 241 298 368
#     4  10  22  40  59  83 121 166 199 239 308 373
#     4  11  23  38  60  88 122 163 200 244 306 369
#     4  12  23  37  58  86 121 156 199 247 295 360
#     4  12  23  37  61  91 115 148 207 259 296 351
#
# _framework density 20.110233000000001
#
# number of rings (size 3 to 8) (size 9 to 14) (size 15 to 20)
#    0.000    1.143    2.857    4.286    0.000    2.000 
#    0.000    0.000    0.000    2.571    0.000    0.000 
#    0.000    0.000    0.000    0.000    0.000    0.000 
#
# Total GULP energy -694042.496000 kJ/mol
# GULP energy per Si atom -12393.616000 kJ/mol
# Density = 2.006446 g / cm^3
# Si number density = 20.110233 Si / 1000 Ang^3
#
#
#
# Elastic Constant Matrix: (Units=GPa)
#
#
# Indices 1 2 3 4 5 6 
#
# 1 70.1275 30.7508 19.4713 0.0014 -0.0002 0.0003
# 2 30.7508 134.4327 13.7072 0.0012 0.0003 0.0006
# 3 19.4713 13.7072 86.7727 0.0037 0.0013 0.0011
# 4 0.0014 0.0012 0.0037 28.8820 0.0005 0.0004
# 5 -0.0002 0.0003 0.0013 0.0005 32.3581 0.0003
# 6 0.0003 0.0006 0.0011 0.0004 0.0003 25.2373
#
#
#
# Elastic Compliance Matrix: (Units=1/GPa)
#
#
# Indices 1 2 3 4 5 6 
#
# 1 0.016676 -0.003489 -0.003191 0.000000 0.000000 0.000000
# 2 -0.003489 0.008290 -0.000527 0.000000 0.000000 0.000000
# 3 -0.003191 -0.000527 0.012324 -0.000001 -0.000001 0.000000
# 4 0.000000 0.000000 -0.000001 0.034624 -0.000001 -0.000001
# 5 0.000000 0.000000 -0.000001 -0.000001 0.030904 0.000000
# 6 0.000000 0.000000 0.000000 -0.000001 0.000000 0.039624
#
#
# Mechanical properties :
#
#
# Convention : Reuss Voigt Hill
#
# Bulk Modulus (GPa) = 43.71287 46.57684 45.14486
# Shear Modulus (GPa) = 30.39884 32.45573 31.42729
#
# Velocity S-wave (km/s) = 3.89216 4.02169 3.95745
# Velocity P-wave (km/s) = 6.47938 6.69151 6.58630
#
# Compressibility (1/GPa) = 0.02287656
#
# Stress axis : x y z
#
# Youngs Moduli (GPa) = 59.96773 120.62015 81.14549
#
# Poissons Ratio (x) = 0.42086 0.25891
# Poissons Ratio (y) = 0.20924 0.04274
# Poissons Ratio (z) = 0.19134 0.06353
#
# Static dielectric constant tensor:
#      x y z
#    x 3.507690 0.000000 0.000000 
#    y 0.000000 3.947050 0.000000 
#    z 0.000000 0.000000 3.922830 
# 
# 
# High freq. dielectric constant tensor:
#      x y z
#    x 1.762700 0.000000 0.000000 
#    y 0.000000 1.794880 0.000000 
#    z 0.000000 0.000000 1.800260 
# 
# From -- ./inp_files/21161.got.cif
#   From: 2010.03.12/outbox.cif.g09.slc.cpg/sg74_11_cif.got.tgz:21161.got - 2010.04.16 15:46:19.
