data_PCOD8301002
_publ_section_title
;
Structure prediction by ZEFSAII (Michael W. Deem and Ramdas Pophale) SiO2 
 PCOD8301002
Probable space group: I M M A
;
_chemical_formula_sum "Si O2"
_cell_formula_units_Z 96
_cell_length_a 8.763632
_cell_length_b 28.074823
_cell_length_c 20.015386
_cell_angle_alpha 90.000000
_cell_angle_beta 90.000000
_cell_angle_gamma 90.000000
_cell_volume 4924.533876
_symmetry_space_group_name_H-M "I M M A"
_symmetry_group_IT_number 74
_symmetry_cell_setting 'orthorhombic'
loop_
_space_group_symop_operation_xyz
x,y,z
-x,1/2-y,z
x,-y,-z
-x,1/2+y,-z
-x,-y,-z
x,1/2+y,-z
-x,y,z
x,1/2-y,z
1/2+x,1/2+y,1/2+z
1/2-x,-y,1/2+z
1/2+x,1/2-y,1/2-z
1/2-x,y,1/2-z
1/2-x,1/2-y,1/2-z
1/2+x,y,1/2-z
1/2-x,1/2+y,1/2+z
1/2+x,-y,1/2+z
loop_
_atom_site_type_symbol
_atom_site_label
_atom_site_fract_x
_atom_site_fract_y
_atom_site_fract_z
Si Si1 0.677438 0.659085 0.439604
Si Si2 0.824385 0.959433 0.595056
Si Si3 0.320344 0.878069 0.677221
Si Si4 0.320114 0.194916 0.075272
Si Si5 0.667639 0.304795 0.813643
Si Si6 0.675755 0.562927 0.058386
O O1 0.500000 0.665348 0.455022
O O2 0.771801 0.673706 0.504463
O O3 0.726818 0.692199 0.378715
O O4 0.715604 0.605198 0.417045
O O5 0.720431 0.928907 0.644527
O O6 0.794085 0.943511 0.519804
O O7 0.000000 0.950866 0.614737
O O8 0.781912 0.015374 0.600018
O O9 0.500000 0.873801 0.682651
O O10 0.250000 0.874514 0.750000
O O11 0.259447 0.834044 0.634131
O O12 0.500000 0.188623 0.082459
O O13 0.270674 0.250000 0.080576
O O14 0.500000 0.328424 0.825081
O O15 0.643060 0.250000 0.796691
O O16 0.750000 0.329660 0.750000
O O17 0.500000 0.576177 0.071012
#
# Coordination Sequence:
#
# PCOD8301002 Si02
#       6
#    16  16  16  16  16  16
#     4  12  23  35  57  91 125 158 196 244 296 353
#     4   9  18  36  61  88 116 151 193 238 288 346
#     4  12  25  41  63  89 121 161 201 250 306 366
#     4  11  24  42  63  87 118 157 204 257 307 357
#     4  10  21  38  59  82 112 153 197 241 292 351
#     4   9  18  34  60  88 118 153 190 237 290 343
#
# _framework density 19.494230999999999
#
# number of rings (size 3 to 8) (size 9 to 14) (size 15 to 20)
#    0.000    1.500    1.667    5.500    0.000    5.333 
#    0.000    2.500    0.000    4.000    0.000    0.000 
#    0.000    0.000    0.000    0.000    0.000    0.000 
#
# Total GULP energy -595256.547566 kJ/mol
# GULP energy per Si atom -12401.178074 kJ/mol
# Density = 1.944986 g / cm^3
# Si number density = 19.494231 Si / 1000 Ang^3
#
#
#
# Elastic Constant Matrix: (Units=GPa)
#
#
# Indices 1 2 3 4 5 6 
#
# 1 108.8917 47.3797 39.6581 -0.0001 0.0000 0.0000
# 2 47.3797 105.5891 51.1001 -0.0006 0.0000 0.0000
# 3 39.6581 51.1001 101.3854 -0.0009 0.0000 0.0000
# 4 -0.0001 -0.0006 -0.0009 169.2241 -0.0001 -0.0001
# 5 0.0000 0.0000 0.0000 -0.0001 34.0450 0.0000
# 6 0.0000 0.0000 0.0000 -0.0001 0.0000 26.8177
#
#
#
# Elastic Compliance Matrix: (Units=1/GPa)
#
#
# Indices 1 2 3 4 5 6 
#
# 1 0.011907 -0.004085 -0.002599 0.000000 0.000000 0.000000
# 2 -0.004085 0.013928 -0.005422 0.000000 0.000000 0.000000
# 3 -0.002599 -0.005422 0.013613 0.000000 0.000000 0.000000
# 4 0.000000 0.000000 0.000000 0.005909 0.000000 0.000000
# 5 0.000000 0.000000 0.000000 0.000000 0.029373 0.000000
# 6 0.000000 0.000000 0.000000 0.000000 0.000000 0.037289
#
#
# Mechanical properties :
#
#
# Convention : Reuss Voigt Hill
#
# Bulk Modulus (GPa) = 65.63383 65.79356 65.71370
# Shear Modulus (GPa) = 35.38341 57.86591 46.62466
#
# Velocity S-wave (km/s) = 4.26499 5.45418 4.89582
# Velocity P-wave (km/s) = 7.61544 8.57249 8.10810
#
# Compressibility (1/GPa) = 0.01523604
#
# Stress axis : x y z
#
# Youngs Moduli (GPa) = 83.98088 71.79890 73.46187
#
# Poissons Ratio (x) = 0.29333 0.19090
# Poissons Ratio (y) = 0.34310 0.39829
# Poissons Ratio (z) = 0.21823 0.38928
#
# Static dielectric constant tensor:
#      x y z
#    x 3.650220 0.000000 0.000000 
#    y 0.000000 3.911680 0.000000 
#    z 0.000000 0.000000 3.388640 
# 
# 
# High freq. dielectric constant tensor:
#      x y z
#    x 1.764550 0.000000 0.000000 
#    y 0.000000 1.762360 0.000000 
#    z 0.000000 0.000000 1.748520 
# 
# From -- ./inp_files/49068.got.cif
#   From: 2010.03.12/outbox.cif.g09.slc.cpg/sg74_25_cif.got.tgz:49068.got - 2010.04.16 15:46:19.
