data_PCOD8301371
_publ_section_title
;
Structure prediction by ZEFSAII (Michael W. Deem and Ramdas Pophale) SiO2 
 PCOD8301371
Probable space group: I M M A
;
_chemical_formula_sum "Si O2"
_cell_formula_units_Z 104
_cell_length_a 8.631549
_cell_length_b 23.597611
_cell_length_c 25.047288
_cell_angle_alpha 90.000000
_cell_angle_beta 90.000000
_cell_angle_gamma 90.000000
_cell_volume 5101.730197
_symmetry_space_group_name_H-M "I M M A"
_symmetry_group_IT_number 74
_symmetry_cell_setting 'orthorhombic'
loop_
_space_group_symop_operation_xyz
x,y,z
-x,1/2-y,z
x,-y,-z
-x,1/2+y,-z
-x,-y,-z
x,1/2+y,-z
-x,y,z
x,1/2-y,z
1/2+x,1/2+y,1/2+z
1/2-x,-y,1/2+z
1/2+x,1/2-y,1/2-z
1/2-x,y,1/2-z
1/2-x,1/2-y,1/2-z
1/2+x,y,1/2-z
1/2-x,1/2+y,1/2+z
1/2+x,-y,1/2+z
loop_
_atom_site_type_symbol
_atom_site_label
_atom_site_fract_x
_atom_site_fract_y
_atom_site_fract_z
Si Si1 0.316537 0.627630 0.308502
Si Si2 0.681146 0.447960 0.595129
Si Si3 0.683219 0.750000 0.980710
Si Si4 0.181160 0.132861 0.003459
Si Si5 0.319293 0.568098 0.899008
Si Si6 0.682204 0.363238 0.307297
Si Si7 0.317861 0.250000 0.692128
Si Si8 0.182268 0.750000 0.643307
O O1 0.500000 0.625830 0.303835
O O2 0.250000 0.614979 0.250000
O O3 0.259249 0.579985 0.349702
O O4 0.263913 0.689592 0.332991
O O5 0.500000 0.462878 0.597287
O O6 0.717758 0.405127 0.547583
O O7 0.776621 0.504570 0.584247
O O8 0.500000 0.750000 0.989526
O O9 0.759914 0.695921 0.009284
O O10 0.729470 0.750000 0.918501
O O11 0.276878 0.110367 0.053558
O O12 0.000000 0.132771 0.017596
O O13 0.500000 0.573805 0.887143
O O14 0.226044 0.585083 0.846107
O O15 0.500000 0.357147 0.303213
O O16 0.750000 0.378503 0.250000
O O17 0.750745 0.304869 0.328462
O O18 0.500000 0.250000 0.695666
O O19 0.250000 0.250000 0.750000
O O20 0.000000 0.750000 0.650980
#
# Coordination Sequence:
#
# PCOD8301371 Si02
#       8
#    16  16   8  16  16  16   8   8
#     4   9  18  34  57  84 117 152 192 240 296 357
#     4  10  23  41  61  88 120 160 207 257 308 368
#     4  11  23  39  65  96 131 165 201 254 316 377
#     4  11  23  41  66  92 121 160 208 254 308 373
#     4  12  25  42  63  88 121 162 206 256 312 368
#     4  12  25  42  66  95 128 166 211 260 310 372
#     4   8  14  27  50  78 106 141 180 222 275 335
#     4  11  22  40  64  94 131 168 206 253 314 377
#
# _framework density 20.38524
#
# number of rings (size 3 to 8) (size 9 to 14) (size 15 to 20)
#    0.000    1.385    1.538    4.385    0.000    5.538 
#    0.000    3.846    0.000    3.692    0.000    0.000 
#    0.000    0.000    0.000    0.000    0.000    0.000 
#
# Total GULP energy -644835.126186 kJ/mol
# GULP energy per Si atom -12400.675504 kJ/mol
# Density = 2.033884 g / cm^3
# Si number density = 20.385240 Si / 1000 Ang^3
#
#
#
# Elastic Constant Matrix: (Units=GPa)
#
#
# Indices 1 2 3 4 5 6 
#
# 1 74.4324 30.7465 34.1995 0.0000 0.0000 0.0000
# 2 30.7465 131.9480 35.7690 0.0000 0.0000 0.0000
# 3 34.1995 35.7690 91.4543 0.0000 0.0000 0.0000
# 4 0.0000 0.0000 0.0000 13.3685 0.0000 0.0000
# 5 0.0000 0.0000 0.0000 0.0000 30.2729 0.0000
# 6 0.0000 0.0000 0.0000 0.0000 0.0000 28.2314
#
#
#
# Elastic Compliance Matrix: (Units=1/GPa)
#
#
# Indices 1 2 3 4 5 6 
#
# 1 0.016925 -0.002492 -0.005354 0.000000 0.000000 0.000000
# 2 -0.002492 0.008845 -0.002527 0.000000 0.000000 0.000000
# 3 -0.005354 -0.002527 0.013925 0.000000 0.000000 0.000000
# 4 0.000000 0.000000 0.000000 0.074803 0.000000 0.000000
# 5 0.000000 0.000000 0.000000 0.000000 0.033033 0.000000
# 6 0.000000 0.000000 0.000000 0.000000 0.000000 0.035421
#
#
# Mechanical properties :
#
#
# Convention : Reuss Voigt Hill
#
# Bulk Modulus (GPa) = 52.77948 55.47386 54.12667
# Shear Modulus (GPa) = 23.80790 27.51589 25.66189
#
# Velocity S-wave (km/s) = 3.42116 3.67794 3.55187
# Velocity P-wave (km/s) = 6.44616 6.73113 6.59019
#
# Compressibility (1/GPa) = 0.01894676
#
# Stress axis : x y z
#
# Youngs Moduli (GPa) = 59.08545 113.06335 71.81292
#
# Poissons Ratio (x) = 0.28179 0.38450
# Poissons Ratio (y) = 0.14726 0.18149
# Poissons Ratio (z) = 0.31636 0.28574
#
# Static dielectric constant tensor:
#      x y z
#    x 3.662190 0.000000 0.000000 
#    y 0.000000 4.170620 0.000000 
#    z 0.000000 0.000000 3.638360 
# 
# 
# High freq. dielectric constant tensor:
#      x y z
#    x 1.797880 0.000000 0.000000 
#    y 0.000000 1.814050 0.000000 
#    z 0.000000 0.000000 1.792730 
# 
# From -- ./inp_files/64577.got.cif
#   From: 2010.03.12/outbox.cif.g09.slc.cpg/sg74_33_cif.got.tgz:64577.got - 2010.04.16 15:46:19.
