data_PCOD8301824
_publ_section_title
;
Structure prediction by ZEFSAII (Michael W. Deem and Ramdas Pophale) SiO2 
 PCOD8301824
Probable space group: I M M A
;
_chemical_formula_sum "Si O2"
_cell_formula_units_Z 36
_cell_length_a 9.000000
_cell_length_b 27.000000
_cell_length_c 15.000000
_cell_angle_alpha 90.000000
_cell_angle_beta 90.000000
_cell_angle_gamma 90.000000
_cell_volume 3645.000000
_symmetry_space_group_name_H-M "I M M A"
_symmetry_group_IT_number 74
_symmetry_cell_setting 'orthorhombic'
loop_
_space_group_symop_operation_xyz
x,y,z
-x,1/2-y,z
x,-y,-z
-x,1/2+y,-z
-x,-y,-z
x,1/2+y,-z
-x,y,z
x,1/2-y,z
1/2+x,1/2+y,1/2+z
1/2-x,-y,1/2+z
1/2+x,1/2-y,1/2-z
1/2-x,y,1/2-z
1/2-x,1/2-y,1/2-z
1/2+x,y,1/2-z
1/2-x,1/2+y,1/2+z
1/2+x,-y,1/2+z
loop_
_atom_site_type_symbol
_atom_site_label
_atom_site_fract_x
_atom_site_fract_y
_atom_site_fract_z
Si Si1 0.174803 0.618699 0.157310
Si Si2 0.673949 0.345140 0.466173
Si Si3 0.675896 0.750000 0.650732
Si Si4 0.668410 0.914546 0.837410
Si Si5 0.669652 0.020084 0.905354
O O1 0.250000 0.637529 0.250000
O O2 0.229341 0.563642 0.133232
O O3 0.000000 0.616248 0.175093
O O4 0.210518 0.655794 0.073291
O O5 0.500000 0.353412 0.453198
O O6 0.725791 0.296635 0.410753
O O7 0.757697 0.392584 0.426348
O O8 0.500000 0.750000 0.666196
O O9 0.750000 0.750000 0.750000
O O10 0.500000 0.895740 0.833475
O O11 0.750000 0.893515 0.750000
O O12 0.677712 0.973966 0.837696
O O13 0.500000 0.039417 0.915524
O O14 0.729506 0.000000 0.000000
#
# Coordination Sequence:
#
# PCOD8301824 Si02
#       5
#    16  16   8  16  16
#     4  11  23  38  59  85 116 156 198 241 288 340
#     4  10  22  40  61  85 114 149 190 237 290 346
#     4  10  22  42  65  90 118 146 183 232 291 352
#     4  11  22  35  55  82 116 152 190 235 283 339
#     4  10  20  36  56  82 116 155 195 238 285 334
#
# _framework density 9.8765429999999999
#
# number of rings (size 3 to 8) (size 9 to 14) (size 15 to 20)
#    0.000    1.556    2.222    2.667    0.000    7.556 
#    0.000    0.556    0.000    0.000    0.000    0.000 
#    0.000    0.000    0.000    0.000    0.000    0.000 
#
# Total GULP energy -446330.008906 kJ/mol
# GULP energy per Si atom -12398.055803 kJ/mol
# Density = 0.985406 g / cm^3
# Si number density = 9.876543 Si / 1000 Ang^3
#
#
#
# Elastic Constant Matrix: (Units=GPa)
#
#
# Indices 1 2 3 4 5 6 
#
# 1 88.1477 32.1906 63.4613 0.0002 0.0000 0.0000
# 2 32.1906 84.0465 44.1675 0.0001 0.0000 0.0000
# 3 63.4613 44.1675 183.2367 0.0010 -0.0001 -0.0001
# 4 0.0002 0.0001 0.0010 37.4980 0.0000 -0.0001
# 5 0.0000 0.0000 -0.0001 0.0000 39.0123 0.0001
# 6 0.0000 0.0000 -0.0001 -0.0001 0.0001 21.7726
#
#
#
# Elastic Compliance Matrix: (Units=1/GPa)
#
#
# Indices 1 2 3 4 5 6 
#
# 1 0.016056 -0.003696 -0.004670 0.000000 0.000000 0.000000
# 2 -0.003696 0.014474 -0.002209 0.000000 0.000000 0.000000
# 3 -0.004670 -0.002209 0.007607 0.000000 0.000000 0.000000
# 4 0.000000 0.000000 0.000000 0.026668 0.000000 0.000000
# 5 0.000000 0.000000 0.000000 0.000000 0.025633 0.000000
# 6 0.000000 0.000000 0.000000 0.000000 0.000000 0.045929
#
#
# Mechanical properties :
#
#
# Convention : Reuss Voigt Hill
#
# Bulk Modulus (GPa) = 58.86237 70.56331 64.71284
# Shear Modulus (GPa) = 30.64085 34.03068 32.33576
#
# Velocity S-wave (km/s) = 3.94279 4.15517 4.05037
# Velocity P-wave (km/s) = 7.11275 7.66947 7.39635
#
# Compressibility (1/GPa) = 0.01698878
#
# Stress axis : x y z
#
# Youngs Moduli (GPa) = 62.28047 69.08709 131.45234
#
# Poissons Ratio (x) = 0.25531 0.61390
# Poissons Ratio (y) = 0.23016 0.29038
# Poissons Ratio (z) = 0.29086 0.15262
#
# Static dielectric constant tensor:
#      x y z
#    x 3.583640 0.000000 0.000000 
#    y 0.000000 3.505310 0.000000 
#    z 0.000000 0.000000 4.025960 
# 
# 
# High freq. dielectric constant tensor:
#      x y z
#    x 1.772000 0.000000 0.000000 
#    y 0.000000 1.750390 0.000000 
#    z 0.000000 0.000000 1.800180 
# 
# From -- ./inp_files/29125.got.cif
#   From: 2010.03.12/outbox.ucp.g09.slc.cvg/sg74_15_cif.got.tgz:29125.got - 2010.05.04 20:08:06.
