data_PCOD8301473
_publ_section_title
;
Structure prediction by ZEFSAII (Michael W. Deem and Ramdas Pophale) SiO2 
 PCOD8301473
Probable space group: I M M A
;
_chemical_formula_sum "Si O2"
_cell_formula_units_Z 72
_cell_length_a 14.389990
_cell_length_b 17.749139
_cell_length_c 14.107755
_cell_angle_alpha 90.000000
_cell_angle_beta 90.000000
_cell_angle_gamma 90.000000
_cell_volume 3603.260755
_symmetry_space_group_name_H-M "I M M A"
_symmetry_group_IT_number 74
_symmetry_cell_setting 'orthorhombic'
loop_
_space_group_symop_operation_xyz
x,y,z
-x,1/2-y,z
x,-y,-z
-x,1/2+y,-z
-x,-y,-z
x,1/2+y,-z
-x,y,z
x,1/2-y,z
1/2+x,1/2+y,1/2+z
1/2-x,-y,1/2+z
1/2+x,1/2-y,1/2-z
1/2-x,y,1/2-z
1/2-x,1/2-y,1/2-z
1/2+x,y,1/2-z
1/2-x,1/2+y,1/2+z
1/2+x,-y,1/2+z
loop_
_atom_site_type_symbol
_atom_site_label
_atom_site_fract_x
_atom_site_fract_y
_atom_site_fract_z
Si Si1 0.398296 0.531843 0.257146
Si Si2 0.815231 0.666874 0.159063
Si Si3 0.395931 0.337382 0.113884
Si Si4 0.175203 0.073585 0.552696
Si Si5 0.250000 0.417472 0.250000
O O1 0.500000 0.495576 0.265893
O O2 0.398738 0.610587 0.314345
O O3 0.376925 0.546049 0.146864
O O4 0.322758 0.474185 0.302759
O O5 0.853063 0.750000 0.131508
O O6 0.750000 0.672454 0.250000
O O7 0.759072 0.631445 0.071766
O O8 0.500000 0.348784 0.158306
O O9 0.376797 0.250000 0.095020
O O10 0.311931 0.367068 0.180058
O O11 0.396182 0.381679 0.014580
O O12 0.214785 0.000000 0.500000
#
# Coordination Sequence:
#
# PCOD8301473 Si02
#       5
#    16  16  16  16   8
#     4  11  21  35  59  88 118 154 193 234 282 343
#     4   9  18  34  53  80 118 156 187 226 283 343
#     4  11  24  39  60  89 117 149 190 237 291 345
#     4  11  19  35  58  89 120 147 180 238 292 343
#     4  12  21  40  55  82 120 156 192 236 283 338
#
# _framework density 19.981901000000001
#
# number of rings (size 3 to 8) (size 9 to 14) (size 15 to 20)
#    0.000    1.333    5.556    2.333    0.000    2.222 
#    0.000    0.000    0.000    7.333    0.000    0.000 
#    0.000    0.000    0.000    0.000    0.000    0.000 
#
# Total GULP energy -446070.902426 kJ/mol
# GULP energy per Si atom -12390.858401 kJ/mol
# Density = 1.993642 g / cm^3
# Si number density = 19.981901 Si / 1000 Ang^3
#
#
#
# Elastic Constant Matrix: (Units=GPa)
#
#
# Indices 1 2 3 4 5 6 
#
# 1 124.8303 46.4952 44.2521 0.0000 0.0000 0.0000
# 2 46.4952 155.6540 42.0257 0.0000 0.0000 0.0000
# 3 44.2521 42.0257 58.2130 0.0000 0.0000 0.0000
# 4 0.0000 0.0000 0.0000 28.6041 0.0000 0.0000
# 5 0.0000 0.0000 0.0000 0.0000 18.9454 0.0000
# 6 0.0000 0.0000 0.0000 0.0000 0.0000 22.0363
#
#
#
# Elastic Compliance Matrix: (Units=1/GPa)
#
#
# Indices 1 2 3 4 5 6 
#
# 1 0.011173 -0.001297 -0.007557 0.000000 0.000000 0.000000
# 2 -0.001297 0.008131 -0.004884 0.000000 0.000000 0.000000
# 3 -0.007557 -0.004884 0.026449 0.000000 0.000000 0.000000
# 4 0.000000 0.000000 0.000000 0.034960 0.000000 0.000000
# 5 0.000000 0.000000 0.000000 0.000000 0.052783 0.000000
# 6 0.000000 0.000000 0.000000 0.000000 0.000000 0.045380
#
#
# Mechanical properties :
#
#
# Convention : Reuss Voigt Hill
#
# Bulk Modulus (GPa) = 54.71479 67.13813 60.92646
# Shear Modulus (GPa) = 23.53577 27.64546 25.59061
#
# Velocity S-wave (km/s) = 3.43571 3.72361 3.58255
# Velocity P-wave (km/s) = 6.57118 7.22215 6.90434
#
# Compressibility (1/GPa) = 0.01827659
#
# Stress axis : x y z
#
# Youngs Moduli (GPa) = 89.50189 122.99346 37.80921
#
# Poissons Ratio (x) = 0.15954 0.28572
# Poissons Ratio (y) = 0.11609 0.18465
# Poissons Ratio (z) = 0.67636 0.60065
#
# Static dielectric constant tensor:
#      x y z
#    x 3.493460 0.000000 0.000000 
#    y 0.000000 4.166130 0.000000 
#    z 0.000000 0.000000 3.444500 
# 
# 
# High freq. dielectric constant tensor:
#      x y z
#    x 1.763230 0.000000 0.000000 
#    y 0.000000 1.803600 0.000000 
#    z 0.000000 0.000000 1.746750 
# 
# From -- ./inp_files/31929.got.cif
#   From: 2010.03.12/outbox.cif.g09.slc.cpg/sg74_16_cif.got.tgz:31929.got - 2010.04.16 15:46:19.
