data_PCOD8301093
_publ_section_title
;
Structure prediction by ZEFSAII (Michael W. Deem and Ramdas Pophale) SiO2 
 PCOD8301093
Probable space group: I M M A
;
_chemical_formula_sum "Si O2"
_cell_formula_units_Z 104
_cell_length_a 26.059024
_cell_length_b 8.934912
_cell_length_c 21.535488
_cell_angle_alpha 90.000000
_cell_angle_beta 90.000000
_cell_angle_gamma 90.000000
_cell_volume 5014.217206
_symmetry_space_group_name_H-M "I M M A"
_symmetry_group_IT_number 74
_symmetry_cell_setting 'orthorhombic'
loop_
_space_group_symop_operation_xyz
x,y,z
-x,1/2-y,z
x,-y,-z
-x,1/2+y,-z
-x,-y,-z
x,1/2+y,-z
-x,y,z
x,1/2-y,z
1/2+x,1/2+y,1/2+z
1/2-x,-y,1/2+z
1/2+x,1/2-y,1/2-z
1/2-x,y,1/2-z
1/2-x,1/2-y,1/2-z
1/2+x,y,1/2-z
1/2-x,1/2+y,1/2+z
1/2+x,-y,1/2+z
loop_
_atom_site_type_symbol
_atom_site_label
_atom_site_fract_x
_atom_site_fract_y
_atom_site_fract_z
Si Si1 0.208627 0.077930 0.563845
Si Si2 0.894033 0.580605 0.374673
Si Si3 0.057467 0.082985 0.158243
Si Si4 0.644352 0.417810 0.244742
Si Si5 0.877892 0.574399 0.064050
Si Si6 0.000000 0.570515 0.432151
Si Si7 0.789878 0.571401 0.859059
O O1 0.226766 0.250000 0.562493
O O2 0.146901 0.066622 0.569310
O O3 0.226152 0.000000 0.500000
O O4 0.234236 0.995812 0.623952
O O5 0.904970 0.750000 0.356140
O O6 0.864758 0.510676 0.316619
O O7 0.948939 0.511277 0.395717
O O8 0.062601 0.250000 0.128762
O O9 0.090857 0.074992 0.219717
O O10 0.000000 0.046887 0.179005
O O11 0.074692 0.957610 0.109612
O O12 0.658606 0.250000 0.224445
O O13 0.690352 0.478012 0.290073
O O14 0.868278 0.750000 0.057433
O O15 0.827173 0.494079 0.088834
O O16 0.893487 0.500000 0.000000
O O17 0.000000 0.500000 0.500000
O O18 0.000000 0.750000 0.438841
O O19 0.789745 0.750000 0.863320
#
# Coordination Sequence:
#
# PCOD8301093 Si02
#       7
#    16  16  16  16  16   8  16
#     4  11  23  39  60  88 119 155 197 244 296 353
#     4  10  23  40  60  88 123 157 194 244 300 353
#     4   9  19  36  55  77 109 147 190 243 293 346
#     4   9  20  37  59  86 115 151 196 239 288 347
#     4  11  21  34  53  78 109 147 192 239 292 352
#     4  10  22  42  64  90 122 160 201 246 299 354
#     4  10  21  39  60  84 116 154 193 240 291 348
#
# _framework density 20.741025
#
# number of rings (size 3 to 8) (size 9 to 14) (size 15 to 20)
#    0.000    2.000    0.000    4.154    1.077    6.154 
#    0.000    3.077    0.000    0.000    0.000    0.000 
#    0.000    0.000    0.000    0.000    0.000    0.000 
#
# Total GULP energy -644599.969721 kJ/mol
# GULP energy per Si atom -12396.153264 kJ/mol
# Density = 2.069382 g / cm^3
# Si number density = 20.741025 Si / 1000 Ang^3
#
#
#
# Elastic Constant Matrix: (Units=GPa)
#
#
# Indices 1 2 3 4 5 6 
#
# 1 117.8529 32.5296 32.3083 0.0000 0.0000 0.0000
# 2 32.5296 97.7119 43.5301 0.0000 0.0000 0.0000
# 3 32.3083 43.5301 100.6104 0.0000 0.0000 0.0000
# 4 0.0000 0.0000 0.0000 35.0777 0.0000 0.0000
# 5 0.0000 0.0000 0.0000 0.0000 20.3233 0.0000
# 6 0.0000 0.0000 0.0000 0.0000 0.0000 26.5807
#
#
#
# Elastic Compliance Matrix: (Units=1/GPa)
#
#
# Indices 1 2 3 4 5 6 
#
# 1 0.009698 -0.002281 -0.002127 0.000000 0.000000 0.000000
# 2 -0.002281 0.013214 -0.004985 0.000000 0.000000 0.000000
# 3 -0.002127 -0.004985 0.012779 0.000000 0.000000 0.000000
# 4 0.000000 0.000000 0.000000 0.028508 0.000000 0.000000
# 5 0.000000 0.000000 0.000000 0.000000 0.049205 0.000000
# 6 0.000000 0.000000 0.000000 0.000000 0.000000 0.037621
#
#
# Mechanical properties :
#
#
# Convention : Reuss Voigt Hill
#
# Bulk Modulus (GPa) = 59.15330 59.21236 59.18283
# Shear Modulus (GPa) = 28.49872 30.25016 29.37444
#
# Velocity S-wave (km/s) = 3.71081 3.82314 3.76739
# Velocity P-wave (km/s) = 6.85142 6.93534 6.89351
#
# Compressibility (1/GPa) = 0.01690523
#
# Stress axis : x y z
#
# Youngs Moduli (GPa) = 103.11499 75.67619 78.25207
#
# Poissons Ratio (x) = 0.17260 0.16647
# Poissons Ratio (y) = 0.23519 0.39007
# Poissons Ratio (z) = 0.21937 0.37723
#
# Static dielectric constant tensor:
#      x y z
#    x 4.033630 0.000000 0.000000 
#    y 0.000000 3.769370 0.000000 
#    z 0.000000 0.000000 3.568250 
# 
# 
# High freq. dielectric constant tensor:
#      x y z
#    x 1.822880 0.000000 0.000000 
#    y 0.000000 1.804290 0.000000 
#    z 0.000000 0.000000 1.806000 
# 
# From -- ./inp_files/55270.got.cif
#   From: 2010.03.12/outbox.cif.g09.slc.cpg/sg74_28_cif.got.tgz:55270.got - 2010.04.16 15:46:19.
