data_PCOD8301536
_publ_section_title
;
Structure prediction by ZEFSAII (Michael W. Deem and Ramdas Pophale) SiO2 
 PCOD8301536
Probable space group: I M M A
;
_chemical_formula_sum "Si O2"
_cell_formula_units_Z 80
_cell_length_a 25.593169
_cell_length_b 8.828591
_cell_length_c 19.783487
_cell_angle_alpha 90.000000
_cell_angle_beta 90.000000
_cell_angle_gamma 90.000000
_cell_volume 4470.110966
_symmetry_space_group_name_H-M "I M M A"
_symmetry_group_IT_number 74
_symmetry_cell_setting 'orthorhombic'
loop_
_space_group_symop_operation_xyz
x,y,z
-x,1/2-y,z
x,-y,-z
-x,1/2+y,-z
-x,-y,-z
x,1/2+y,-z
-x,y,z
x,1/2-y,z
1/2+x,1/2+y,1/2+z
1/2-x,-y,1/2+z
1/2+x,1/2-y,1/2-z
1/2-x,y,1/2-z
1/2-x,1/2-y,1/2-z
1/2+x,y,1/2-z
1/2-x,1/2+y,1/2+z
1/2+x,-y,1/2+z
loop_
_atom_site_type_symbol
_atom_site_label
_atom_site_fract_x
_atom_site_fract_y
_atom_site_fract_z
Si Si1 0.141966 0.927421 0.572975
Si Si2 0.859036 0.928168 0.073764
Si Si3 0.742966 0.072919 0.427060
Si Si4 0.057896 0.569783 0.677859
Si Si5 0.060949 0.076449 0.170182
O O1 0.133115 0.750000 0.563246
O O2 0.199772 0.958051 0.605112
O O3 0.099891 0.997403 0.625080
O O4 0.133930 0.000000 0.500000
O O5 0.854755 0.750000 0.065904
O O6 0.805929 0.992170 0.110294
O O7 0.908301 0.969105 0.119374
O O8 0.866499 0.000000 0.000000
O O9 0.731006 0.250000 0.431842
O O10 0.745319 0.000000 0.500000
O O11 0.058082 0.750000 0.676106
O O12 0.072366 0.518474 0.753711
O O13 0.000000 0.509924 0.658192
O O14 0.079285 0.250000 0.161026
O O15 0.000000 0.061433 0.153418
#
# Coordination Sequence:
#
# PCOD8301536 Si02
#       5
#    16  16  16  16  16
#     4   9  17  29  48  74 100 128 162 199 238 279
#     4  11  21  33  51  73  97 124 156 196 239 285
#     4   9  16  28  46  68  96 127 159 195 235 280
#     4   8  15  30  51  72  96 128 164 199 236 281
#     4   9  18  34  54  72  93 125 162 198 237 281
#
# _framework density 17.896647999999999
#
# number of rings (size 3 to 8) (size 9 to 14) (size 15 to 20)
#    0.000    2.800    0.000    4.800    0.000    2.000 
#    0.000    2.000    0.000    7.200    0.000    0.000 
#    0.000    0.000    0.000    0.000    0.000    0.000 
#
# Total GULP energy -495682.199947 kJ/mol
# GULP energy per Si atom -12392.054999 kJ/mol
# Density = 1.785591 g / cm^3
# Si number density = 17.896648 Si / 1000 Ang^3
#
#
#
# Elastic Constant Matrix: (Units=GPa)
#
#
# Indices 1 2 3 4 5 6 
#
# 1 132.4380 49.7759 73.2512 0.0000 0.0000 0.0000
# 2 49.7759 83.4843 35.2907 0.0000 0.0000 0.0000
# 3 73.2512 35.2907 84.8639 0.0000 0.0000 0.0000
# 4 0.0000 0.0000 0.0000 19.3256 0.0000 0.0000
# 5 0.0000 0.0000 0.0000 0.0000 12.2645 0.0000
# 6 0.0000 0.0000 0.0000 0.0000 0.0000 21.7582
#
#
#
# Elastic Compliance Matrix: (Units=1/GPa)
#
#
# Indices 1 2 3 4 5 6 
#
# 1 0.015677 -0.004400 -0.011702 0.000000 0.000000 0.000000
# 2 -0.004400 0.015768 -0.002759 0.000000 0.000000 0.000000
# 3 -0.011702 -0.002759 0.023031 0.000000 0.000000 0.000000
# 4 0.000000 0.000000 0.000000 0.051745 0.000000 0.000000
# 5 0.000000 0.000000 0.000000 0.000000 0.081536 0.000000
# 6 0.000000 0.000000 0.000000 0.000000 0.000000 0.045960
#
#
# Mechanical properties :
#
#
# Convention : Reuss Voigt Hill
#
# Bulk Modulus (GPa) = 59.68639 68.60242 64.14441
# Shear Modulus (GPa) = 18.04902 20.16757 19.10829
#
# Velocity S-wave (km/s) = 3.17916 3.36056 3.27112
# Velocity P-wave (km/s) = 6.84829 7.31256 7.08423
#
# Compressibility (1/GPa) = 0.01675424
#
# Stress axis : x y z
#
# Youngs Moduli (GPa) = 63.78898 63.41868 43.41926
#
# Poissons Ratio (x) = 0.27907 0.50807
# Poissons Ratio (y) = 0.28070 0.11979
# Poissons Ratio (z) = 0.74643 0.17497
#
# Static dielectric constant tensor:
#      x y z
#    x 4.107620 0.000000 0.000000 
#    y 0.000000 3.133060 0.000000 
#    z 0.000000 0.000000 3.135960 
# 
# 
# High freq. dielectric constant tensor:
#      x y z
#    x 1.711720 0.000000 0.000000 
#    y 0.000000 1.675960 0.000000 
#    z 0.000000 0.000000 1.662210 
# 
# From -- ./inp_files/39728.got.cif
#   From: 2010.03.12/outbox.cif.g09.slc.cpg/sg74_20_cif.got.tgz:39728.got - 2010.04.16 15:46:19.
