data_PCOD8301284
_publ_section_title
;
Structure prediction by ZEFSAII (Michael W. Deem and Ramdas Pophale) SiO2 
 PCOD8301284
Probable space group: I M M A
;
_chemical_formula_sum "Si O2"
_cell_formula_units_Z 96
_cell_length_a 20.319521
_cell_length_b 23.048536
_cell_length_c 11.860608
_cell_angle_alpha 90.000000
_cell_angle_beta 90.000000
_cell_angle_gamma 90.000000
_cell_volume 5554.740353
_symmetry_space_group_name_H-M "I M M A"
_symmetry_group_IT_number 74
_symmetry_cell_setting 'orthorhombic'
loop_
_space_group_symop_operation_xyz
x,y,z
-x,1/2-y,z
x,-y,-z
-x,1/2+y,-z
-x,-y,-z
x,1/2+y,-z
-x,y,z
x,1/2-y,z
1/2+x,1/2+y,1/2+z
1/2-x,-y,1/2+z
1/2+x,1/2-y,1/2-z
1/2-x,y,1/2-z
1/2-x,1/2-y,1/2-z
1/2+x,y,1/2-z
1/2-x,1/2+y,1/2+z
1/2+x,-y,1/2+z
loop_
_atom_site_type_symbol
_atom_site_label
_atom_site_fract_x
_atom_site_fract_y
_atom_site_fract_z
Si Si1 0.424600 0.627329 0.484252
Si Si2 0.175058 0.750000 0.714403
Si Si3 0.192887 0.628609 0.613328
Si Si4 0.805700 0.944906 0.416351
Si Si5 0.835156 0.550754 0.169579
Si Si6 0.664617 0.418852 0.339210
Si Si7 0.076022 0.250000 0.071117
O O1 0.500000 0.611185 0.469658
O O2 0.388363 0.593520 0.384060
O O3 0.400945 0.606825 0.606982
O O4 0.411669 0.696285 0.486328
O O5 0.250000 0.750000 0.750000
O O6 0.166527 0.693202 0.636924
O O7 0.125098 0.750000 0.820601
O O8 0.167628 0.609365 0.490072
O O9 0.272207 0.618971 0.619149
O O10 0.160392 0.585300 0.704591
O O11 0.849722 0.952512 0.304239
O O12 0.735158 0.925412 0.368075
O O13 0.804134 0.000000 0.500000
O O14 0.833595 0.485298 0.121605
O O15 0.000000 0.250000 0.115971
#
# Coordination Sequence:
#
# PCOD8301284 Si02
#       7
#    16   8  16  16  16  16   8
#     4  11  22  37  56  81 113 147 192 240 284 339
#     4  12  20  32  57  85 114 143 185 245 291 340
#     4  11  19  31  53  83 112 141 180 227 289 337
#     4  11  18  33  53  79 112 148 181 224 280 343
#     4  11  21  32  54  82 114 151 187 225 280 349
#     4  11  18  31  53  81 113 144 179 225 286 343
#     4  10  22  40  59  81 113 155 197 242 293 349
#
# _framework density 17.282536
#
# number of rings (size 3 to 8) (size 9 to 14) (size 15 to 20)
#    0.000    1.000    8.333    1.500    0.000    1.333 
#    0.000    0.833    0.000    4.500    0.000    0.000 
#    0.000    0.000    0.000    0.000    0.000    0.000 
#
# Total GULP energy -594671.921878 kJ/mol
# GULP energy per Si atom -12388.998372 kJ/mol
# Density = 1.724320 g / cm^3
# Si number density = 17.282536 Si / 1000 Ang^3
#
#
#
# Elastic Constant Matrix: (Units=GPa)
#
#
# Indices 1 2 3 4 5 6 
#
# 1 75.8933 43.9653 38.4327 0.0000 0.0000 0.0000
# 2 43.9653 116.0181 45.8347 0.0000 0.0000 0.0000
# 3 38.4327 45.8347 99.9548 0.0000 0.0000 0.0000
# 4 0.0000 0.0000 0.0000 32.2448 0.0000 0.0000
# 5 0.0000 0.0000 0.0000 0.0000 22.8151 0.0000
# 6 0.0000 0.0000 0.0000 0.0000 0.0000 21.8369
#
#
#
# Elastic Compliance Matrix: (Units=1/GPa)
#
#
# Indices 1 2 3 4 5 6 
#
# 1 0.018583 -0.005153 -0.004782 0.000000 0.000000 0.000000
# 2 -0.005153 0.011955 -0.003501 0.000000 0.000000 0.000000
# 3 -0.004782 -0.003501 0.013449 0.000000 0.000000 0.000000
# 4 0.000000 0.000000 0.000000 0.031013 0.000000 0.000000
# 5 0.000000 0.000000 0.000000 0.000000 0.043831 0.000000
# 6 0.000000 0.000000 0.000000 0.000000 0.000000 0.045794
#
#
# Mechanical properties :
#
#
# Convention : Reuss Voigt Hill
#
# Bulk Modulus (GPa) = 58.42846 60.92574 59.67710
# Shear Modulus (GPa) = 25.35480 26.28827 25.82153
#
# Velocity S-wave (km/s) = 3.83440 3.90435 3.86953
# Velocity P-wave (km/s) = 7.31332 7.46020 7.38712
#
# Compressibility (1/GPa) = 0.01711495
#
# Stress axis : x y z
#
# Youngs Moduli (GPa) = 53.81184 83.64666 74.35683
#
# Poissons Ratio (x) = 0.43101 0.35561
# Poissons Ratio (y) = 0.27728 0.26031
# Poissons Ratio (z) = 0.25735 0.29283
#
# Static dielectric constant tensor:
#      x y z
#    x 2.969670 0.000000 0.000000 
#    y 0.000000 3.711860 0.000000 
#    z 0.000000 0.000000 3.542020 
# 
# 
# High freq. dielectric constant tensor:
#      x y z
#    x 1.627570 0.000000 0.000000 
#    y 0.000000 1.675000 0.000000 
#    z 0.000000 0.000000 1.666120 
# 
# From -- ./inp_files/22502.got.cif
#   From: 2010.03.12/outbox.cif.g09.slc.cpg/sg74_12_cif.got.tgz:22502.got - 2010.04.16 15:46:19.
