data_PCOD8301278
_publ_section_title
;
Structure prediction by ZEFSAII (Michael W. Deem and Ramdas Pophale) SiO2 
 PCOD8301278
Probable space group: I M M A
;
_chemical_formula_sum "Si O2"
_cell_formula_units_Z 96
_cell_length_a 10.133675
_cell_length_b 23.556375
_cell_length_c 21.286872
_cell_angle_alpha 90.000000
_cell_angle_beta 90.000000
_cell_angle_gamma 90.000000
_cell_volume 5081.445592
_symmetry_space_group_name_H-M "I M M A"
_symmetry_group_IT_number 74
_symmetry_cell_setting 'orthorhombic'
loop_
_space_group_symop_operation_xyz
x,y,z
-x,1/2-y,z
x,-y,-z
-x,1/2+y,-z
-x,-y,-z
x,1/2+y,-z
-x,y,z
x,1/2-y,z
1/2+x,1/2+y,1/2+z
1/2-x,-y,1/2+z
1/2+x,1/2-y,1/2-z
1/2-x,y,1/2-z
1/2-x,1/2-y,1/2-z
1/2+x,y,1/2-z
1/2-x,1/2+y,1/2+z
1/2+x,-y,1/2+z
loop_
_atom_site_type_symbol
_atom_site_label
_atom_site_fract_x
_atom_site_fract_y
_atom_site_fract_z
Si Si1 0.344589 0.514574 0.378761
Si Si2 0.000000 0.315985 0.871196
Si Si3 0.750000 0.947660 0.250000
Si Si4 0.345787 0.890865 0.575769
Si Si5 0.739030 0.371360 0.559881
Si Si6 0.848609 0.316001 0.194802
Si Si7 0.000000 0.127160 0.736327
Si Si8 0.500000 0.815798 0.110036
O O1 0.500000 0.526152 0.381966
O O2 0.299384 0.512637 0.306399
O O3 0.304501 0.455231 0.409424
O O4 0.272814 0.564058 0.416871
O O5 0.127999 0.331484 0.910656
O O6 0.000000 0.349880 0.806480
O O7 0.000000 0.250000 0.855475
O O8 0.868860 0.909161 0.275420
O O9 0.500000 0.887356 0.560624
O O10 0.267229 0.869452 0.515341
O O11 0.306951 0.850835 0.633540
O O12 0.876824 0.346240 0.579482
O O13 0.831362 0.250000 0.178713
O O14 0.750000 0.334766 0.250000
O O15 0.000000 0.329661 0.214504
O O16 0.000000 0.177621 0.685583
O O17 0.500000 0.750000 0.092953
#
# Coordination Sequence:
#
# PCOD8301278 Si02
#       8
#    16   8   8  16  16  16   8   8
#     4  11  21  38  64  93 123 157 207 258 310 362
#     4  12  23  38  66  93 116 160 224 262 290 362
#     4  12  20  36  63  88 121 168 198 256 306 370
#     4  10  22  39  66  95 119 159 205 255 309 370
#     4  12  22  43  61  90 124 162 205 255 314 362
#     4   9  19  38  61  87 120 155 195 247 303 361
#     4  12  21  42  60  86 126 160 215 250 312 356
#     4  12  27  42  60  87 132 174 204 256 316 370
#
# _framework density 18.892261999999999
#
# number of rings (size 3 to 8) (size 9 to 14) (size 15 to 20)
#    0.000    1.000    5.833    1.250    1.167    2.667 
#    1.500    5.000    0.000    0.000    0.000    0.000 
#    0.000    0.000    0.000    0.000    0.000    0.000 
#
# Total GULP energy -595445.524635 kJ/mol
# GULP energy per Si atom -12405.115097 kJ/mol
# Density = 1.884926 g / cm^3
# Si number density = 18.892262 Si / 1000 Ang^3
#
#
#
# Elastic Constant Matrix: (Units=GPa)
#
#
# Indices 1 2 3 4 5 6 
#
# 1 119.8734 48.7506 55.1498 0.0000 0.0000 0.0000
# 2 48.7506 85.6643 51.0511 0.0000 0.0000 0.0000
# 3 55.1498 51.0511 146.6947 0.0000 0.0000 0.0000
# 4 0.0000 0.0000 0.0000 21.3701 0.0000 0.0000
# 5 0.0000 0.0000 0.0000 0.0000 9.9441 0.0000
# 6 0.0000 0.0000 0.0000 0.0000 0.0000 18.2247
#
#
#
# Elastic Compliance Matrix: (Units=1/GPa)
#
#
# Indices 1 2 3 4 5 6 
#
# 1 0.011591 -0.005046 -0.002602 0.000000 0.000000 0.000000
# 2 -0.005046 0.016925 -0.003993 0.000000 0.000000 0.000000
# 3 -0.002602 -0.003993 0.009185 0.000000 0.000000 0.000000
# 4 0.000000 0.000000 0.000000 0.046794 0.000000 0.000000
# 5 0.000000 0.000000 0.000000 0.000000 0.100563 0.000000
# 6 0.000000 0.000000 0.000000 0.000000 0.000000 0.054870
#
#
# Mechanical properties :
#
#
# Convention : Reuss Voigt Hill
#
# Bulk Modulus (GPa) = 69.35151 73.57061 71.46106
# Shear Modulus (GPa) = 18.65565 23.05983 20.85774
#
# Velocity S-wave (km/s) = 3.14582 3.49749 3.32631
# Velocity P-wave (km/s) = 7.06991 7.43886 7.25673
#
# Compressibility (1/GPa) = 0.01441930
#
# Stress axis : x y z
#
# Youngs Moduli (GPa) = 86.27247 59.08549 108.87872
#
# Poissons Ratio (x) = 0.29814 0.28326
# Poissons Ratio (y) = 0.43533 0.43474
# Poissons Ratio (z) = 0.22445 0.23592
#
# Static dielectric constant tensor:
#      x y z
#    x 3.508620 0.000000 0.000000 
#    y 0.000000 3.545230 0.000000 
#    z 0.000000 0.000000 3.558060 
# 
# 
# High freq. dielectric constant tensor:
#      x y z
#    x 1.729300 0.000000 0.000000 
#    y 0.000000 1.737630 0.000000 
#    z 0.000000 0.000000 1.744880 
# 
# From -- ./inp_files/57375.got.cif
#   From: 2010.03.12/outbox.cif.g09.slc.cpg/sg74_29_cif.got.tgz:57375.got - 2010.04.16 15:46:19.
