data_PCOD8301971
_publ_section_title
;
Structure prediction by ZEFSAII (Michael W. Deem and Ramdas Pophale) SiO2 
 PCOD8301971
Probable space group: P 41
;
_chemical_formula_sum "Si O2"
_cell_formula_units_Z 20
_cell_length_a 12.068954
_cell_length_b 12.068954
_cell_length_c 6.042401
_cell_angle_alpha 90.000000
_cell_angle_beta 90.000000
_cell_angle_gamma 90.000000
_cell_volume 880.134019
_symmetry_space_group_name_H-M "P 41"
_symmetry_group_IT_number 76
_symmetry_cell_setting 'tetragonal'
loop_
_space_group_symop_operation_xyz
x,y,z
-y,x,1/4+z
-x,-y,1/2+z
y,-x,3/4+z
loop_
_atom_site_type_symbol
_atom_site_label
_atom_site_fract_x
_atom_site_fract_y
_atom_site_fract_z
Si Si1 0.679848 0.000000 0.562850
Si Si2 0.228350 0.771651 0.937849
Si Si3 0.416382 0.698126 0.627114
Si Si4 0.416383 0.301874 0.498584
Si Si5 0.879498 0.500000 0.062849
O O1 0.756611 0.901690 0.650619
O O2 0.604462 0.957450 0.360555
O O3 0.756612 0.098310 0.475081
O O4 0.604462 0.042551 0.765145
O O5 0.296542 0.729500 0.724637
O O6 0.270502 0.703458 0.151059
O O7 0.394166 0.605833 0.437850
O O8 0.477818 0.805414 0.529295
O O9 0.499999 0.649414 0.812850
O O10 0.477816 0.194584 0.596402
#
# Coordination Sequence:
#
# PCOD8301971 Si02
#       5
#     4   4   4   4   4
#     4  12  24  46  74 110 148 204 262 324 396 470
#     4  12  26  46  74 110 154 196 264 322 390 466
#     4  12  23  47  79 112 157 201 259 324 384 473
#     4  12  23  47  79 112 157 201 259 324 384 473
#     4  12  24  46  80 102 148 206 266 318 388 482
#
# _framework density 22.723811999999999
#
# number of rings (size 3 to 8) (size 9 to 14) (size 15 to 20)
#    0.000    0.000    8.000    2.400    0.000    0.000 
#    0.000    4.000   61.600    0.000    0.000    0.000 
#    0.000    0.000    0.000    0.000    0.000    0.000 
#
# Total GULP energy -248123.456639 kJ/mol
# GULP energy per Si atom -12406.172832 kJ/mol
# Density = 2.267209 g / cm^3
# Si number density = 22.723812 Si / 1000 Ang^3
#
#
#
# Elastic Constant Matrix: (Units=GPa)
#
#
# Indices 1 2 3 4 5 6 
#
# 1 148.2967 81.6861 65.4883 0.0000 0.0000 0.0000
# 2 81.6861 148.2967 65.4883 0.0000 0.0000 0.0000
# 3 65.4883 65.4883 134.6755 0.0000 0.0000 0.0000
# 4 0.0000 0.0000 0.0000 30.2491 0.0000 0.0000
# 5 0.0000 0.0000 0.0000 0.0000 30.2491 0.0000
# 6 0.0000 0.0000 0.0000 0.0000 0.0000 47.1376
#
#
#
# Elastic Compliance Matrix: (Units=1/GPa)
#
#
# Indices 1 2 3 4 5 6 
#
# 1 0.010513 -0.004500 -0.002924 0.000000 0.000000 0.000000
# 2 -0.004500 0.010513 -0.002924 0.000000 0.000000 0.000000
# 3 -0.002924 -0.002924 0.010269 0.000000 0.000000 0.000000
# 4 0.000000 0.000000 0.000000 0.033059 0.000000 0.000000
# 5 0.000000 0.000000 0.000000 0.000000 0.033059 0.000000
# 6 0.000000 0.000000 0.000000 0.000000 0.000000 0.021214
#
#
# Mechanical properties :
#
#
# Convention : Reuss Voigt Hill
#
# Bulk Modulus (GPa) = 94.34473 95.17712 94.76093
# Shear Modulus (GPa) = 35.00023 36.10092 35.55057
#
# Velocity S-wave (km/s) = 3.92885 3.99015 3.95962
# Velocity P-wave (km/s) = 7.88602 7.95007 7.91811
#
# Compressibility (1/GPa) = 0.01059943
#
# Stress axis : x y z
#
# Youngs Moduli (GPa) = 95.11984 95.11984 97.37957
#
# Poissons Ratio (x) = 0.42800 0.28475
# Poissons Ratio (y) = 0.42800 0.28475
# Poissons Ratio (z) = 0.27815 0.27815
#
# Static dielectric constant tensor:
#      x y z
#    x 4.126390 0.000000 0.000000 
#    y 0.000000 4.126390 0.000000 
#    z 0.000000 0.000000 4.315740 
# 
# 
# High freq. dielectric constant tensor:
#      x y z
#    x 1.896560 0.000000 0.000000 
#    y 0.000000 1.896560 0.000000 
#    z 0.000000 0.000000 1.905620 
# 
# From -- ./inp_files/108.got.cif
#   From: 2010.03.12/outbox.cif.g09.slc.cpg/sg76_cif.got.tgz:108.got - 2010.04.16 16:34:25.
