data_PCOD8301203
_publ_section_title
;
Structure prediction by ZEFSAII (Michael W. Deem and Ramdas Pophale) SiO2 
 PCOD8301203
Probable space group: I M M A
;
_chemical_formula_sum "Si O2"
_cell_formula_units_Z 88
_cell_length_a 16.695404
_cell_length_b 10.126579
_cell_length_c 29.778487
_cell_angle_alpha 90.000000
_cell_angle_beta 90.000000
_cell_angle_gamma 90.000000
_cell_volume 5034.569215
_symmetry_space_group_name_H-M "I M M A"
_symmetry_group_IT_number 74
_symmetry_cell_setting 'orthorhombic'
loop_
_space_group_symop_operation_xyz
x,y,z
-x,1/2-y,z
x,-y,-z
-x,1/2+y,-z
-x,-y,-z
x,1/2+y,-z
-x,y,z
x,1/2-y,z
1/2+x,1/2+y,1/2+z
1/2-x,-y,1/2+z
1/2+x,1/2-y,1/2-z
1/2-x,y,1/2-z
1/2-x,1/2-y,1/2-z
1/2+x,y,1/2-z
1/2-x,1/2+y,1/2+z
1/2+x,-y,1/2+z
loop_
_atom_site_type_symbol
_atom_site_label
_atom_site_fract_x
_atom_site_fract_y
_atom_site_fract_z
Si Si1 0.824371 0.598683 0.542051
Si Si2 0.093847 0.250000 0.650922
Si Si3 0.909616 0.750000 0.779590
Si Si4 0.408637 0.750000 0.827134
Si Si5 0.312498 0.004773 0.134217
Si Si6 0.593950 0.750000 0.256249
Si Si7 0.310575 0.497841 0.709872
Si Si8 0.500000 0.392535 0.036767
O O1 0.811308 0.500000 0.500000
O O2 0.801450 0.750000 0.528420
O O3 0.775889 0.548754 0.585611
O O4 0.915785 0.593900 0.562843
O O5 0.130914 0.121564 0.627699
O O6 0.113559 0.250000 0.703674
O O7 0.000000 0.250000 0.641356
O O8 0.909010 0.750000 0.726143
O O9 0.865363 0.623525 0.799500
O O10 0.000000 0.750000 0.797793
O O11 0.500000 0.750000 0.845947
O O12 0.362699 0.620823 0.842934
O O13 0.237305 0.964643 0.164662
O O14 0.500000 0.750000 0.265667
O O15 0.632182 0.877390 0.278467
O O16 0.250000 0.529204 0.750000
O O17 0.500000 0.250000 0.012383
O O18 0.500000 0.500000 0.000000
#
# Coordination Sequence:
#
# PCOD8301203 Si02
#       8
#    16   8   8   8  16   8  16   8
#     4  10  22  37  53  75 104 142 187 230 277 326
#     4  11  23  35  50  80 111 147 194 233 272 321
#     4  11  22  36  54  82 113 149 186 225 268 328
#     4  11  21  33  52  76 109 149 190 223 268 323
#     4  12  23  35  54  78 108 149 184 236 280 323
#     4  11  22  40  58  76 113 155 192 231 270 322
#     4  12  21  36  56  81 114 146 185 229 278 328
#     4   8  16  32  50  66  92 132 176 220 260 300
#
# _framework density 17.479153
#
# number of rings (size 3 to 8) (size 9 to 14) (size 15 to 20)
#    0.000    1.091    4.545    2.727    3.818    2.909 
#    0.000    0.000    0.000    0.000    0.000    0.000 
#    0.000    4.364    0.000    0.000    0.000    0.000 
#
# Total GULP energy -545468.415095 kJ/mol
# GULP energy per Si atom -12397.009434 kJ/mol
# Density = 1.743937 g / cm^3
# Si number density = 17.479153 Si / 1000 Ang^3
#
#
#
# Elastic Constant Matrix: (Units=GPa)
#
#
# Indices 1 2 3 4 5 6 
#
# 1 68.1988 34.0450 23.1971 0.0000 0.0000 0.0000
# 2 34.0450 135.2139 20.9789 0.0000 0.0000 0.0000
# 3 23.1971 20.9789 78.2335 0.0000 0.0000 0.0000
# 4 0.0000 0.0000 0.0000 8.8984 0.0000 0.0000
# 5 0.0000 0.0000 0.0000 0.0000 13.9543 0.0000
# 6 0.0000 0.0000 0.0000 0.0000 0.0000 36.5326
#
#
#
# Elastic Compliance Matrix: (Units=1/GPa)
#
#
# Indices 1 2 3 4 5 6 
#
# 1 0.018068 -0.003879 -0.004317 0.000000 0.000000 0.000000
# 2 -0.003879 0.008550 -0.001142 0.000000 0.000000 0.000000
# 3 -0.004317 -0.001142 0.014369 0.000000 0.000000 0.000000
# 4 0.000000 0.000000 0.000000 0.112380 0.000000 0.000000
# 5 0.000000 0.000000 0.000000 0.000000 0.071663 0.000000
# 6 0.000000 0.000000 0.000000 0.000000 0.000000 0.027373
#
#
# Mechanical properties :
#
#
# Convention : Reuss Voigt Hill
#
# Bulk Modulus (GPa) = 44.82573 48.67645 46.75109
# Shear Modulus (GPa) = 17.95229 25.43873 21.69551
#
# Velocity S-wave (km/s) = 3.20827 3.81908 3.52692
# Velocity P-wave (km/s) = 6.27893 6.88156 6.58714
#
# Compressibility (1/GPa) = 0.02230862
#
# Stress axis : x y z
#
# Youngs Moduli (GPa) = 55.34622 116.96273 69.59600
#
# Poissons Ratio (x) = 0.45376 0.30045
# Poissons Ratio (y) = 0.21472 0.07950
# Poissons Ratio (z) = 0.23893 0.13361
#
# Static dielectric constant tensor:
#      x y z
#    x -21.065400 0.000000 0.000000 
#    y 0.000000 3.243530 0.000000 
#    z 0.000000 0.000000 3.161160 
# 
# 
# High freq. dielectric constant tensor:
#      x y z
#    x 1.645970 0.000000 0.000000 
#    y 0.000000 1.703120 0.000000 
#    z 0.000000 0.000000 1.653510 
# 
# From -- ./inp_files/73048.got.cif
#   From: 2010.03.12/outbox.cif.g09.slc.cpg/sg74_37_cif.got.tgz:73048.got - 2010.04.16 15:46:19.
