data_PCOD8301814
_publ_section_title
;
Structure prediction by ZEFSAII (Michael W. Deem and Ramdas Pophale) SiO2 
 PCOD8301814
Probable space group: I M M A
;
_chemical_formula_sum "Si O2"
_cell_formula_units_Z 96
_cell_length_a 16.855773
_cell_length_b 17.604394
_cell_length_c 19.443033
_cell_angle_alpha 90.000000
_cell_angle_beta 90.000000
_cell_angle_gamma 90.000000
_cell_volume 5769.441406
_symmetry_space_group_name_H-M "I M M A"
_symmetry_group_IT_number 74
_symmetry_cell_setting 'orthorhombic'
loop_
_space_group_symop_operation_xyz
x,y,z
-x,1/2-y,z
x,-y,-z
-x,1/2+y,-z
-x,-y,-z
x,1/2+y,-z
-x,y,z
x,1/2-y,z
1/2+x,1/2+y,1/2+z
1/2-x,-y,1/2+z
1/2+x,1/2-y,1/2-z
1/2-x,y,1/2-z
1/2-x,1/2-y,1/2-z
1/2+x,y,1/2-z
1/2-x,1/2+y,1/2+z
1/2+x,-y,1/2+z
loop_
_atom_site_type_symbol
_atom_site_label
_atom_site_fract_x
_atom_site_fract_y
_atom_site_fract_z
Si Si1 0.146541 0.971630 0.185102
Si Si2 0.500000 0.529010 0.611664
Si Si3 0.678322 0.337938 0.940144
Si Si4 0.146400 0.166909 0.907893
Si Si5 0.173047 0.024202 0.657107
Si Si6 0.500000 0.617910 0.483239
Si Si7 0.410372 0.071895 0.049173
O O1 0.128589 0.888033 0.155835
O O2 0.138971 0.968579 0.266706
O O3 0.233514 0.995577 0.158791
O O4 0.079701 0.029485 0.157669
O O5 0.500000 0.604365 0.565123
O O6 0.500000 0.459037 0.559912
O O7 0.657488 0.250000 0.921651
O O8 0.772358 0.350880 0.948525
O O9 0.651213 0.395488 0.879465
O O10 0.636493 0.359455 0.012191
O O11 0.150569 0.250000 0.874120
O O12 0.078313 0.164909 0.965128
O O13 0.131931 0.952578 0.619956
O O14 0.500000 0.098784 0.064708
O O15 0.409482 0.000000 0.000000
#
# Coordination Sequence:
#
# PCOD8301814 Si02
#       7
#    16   8  16  16  16   8  16
#     4   9  18  30  45  70  98 124 155 189 228 279
#     4   9  18  28  44  68  93 120 158 197 224 262
#     4   9  18  31  48  71  95 123 159 196 234 278
#     4   9  17  29  46  69  98 128 154 183 227 282
#     4   9  18  31  48  69  97 127 156 191 234 280
#     4   9  17  28  44  66  95 127 156 189 225 263
#     4   9  18  31  48  67  90 121 159 201 237 271
#
# _framework density 16.639392000000001
#
# number of rings (size 3 to 8) (size 9 to 14) (size 15 to 20)
#    0.000    3.000    0.000    0.250    3.500    1.000 
#    0.000    3.333    0.000    0.000    0.000    4.667 
#    0.000    0.000    0.000    0.000    0.000    0.000 
#
# Total GULP energy -594960.236828 kJ/mol
# GULP energy per Si atom -12395.004934 kJ/mol
# Density = 1.660152 g / cm^3
# Si number density = 16.639392 Si / 1000 Ang^3
#
#
#
# Elastic Constant Matrix: (Units=GPa)
#
#
# Indices 1 2 3 4 5 6 
#
# 1 100.0481 22.3494 64.2076 0.0000 0.0000 0.0000
# 2 22.3494 31.2312 44.2287 0.0000 0.0000 0.0000
# 3 64.2076 44.2287 119.6665 0.0000 0.0000 0.0000
# 4 0.0000 0.0000 0.0000 18.7559 0.0000 0.0000
# 5 0.0000 0.0000 0.0000 0.0000 26.1642 0.0000
# 6 0.0000 0.0000 0.0000 0.0000 0.0000 19.1027
#
#
#
# Elastic Compliance Matrix: (Units=1/GPa)
#
#
# Indices 1 2 3 4 5 6 
#
# 1 0.015274 0.001418 -0.008720 0.000000 0.000000 0.000000
# 2 0.001418 0.067316 -0.025641 0.000000 0.000000 0.000000
# 3 -0.008720 -0.025641 0.022512 0.000000 0.000000 0.000000
# 4 0.000000 0.000000 0.000000 0.053317 0.000000 0.000000
# 5 0.000000 0.000000 0.000000 0.000000 0.038220 0.000000
# 6 0.000000 0.000000 0.000000 0.000000 0.000000 0.052349
#
#
# Mechanical properties :
#
#
# Convention : Reuss Voigt Hill
#
# Bulk Modulus (GPa) = 25.49877 56.94636 41.22257
# Shear Modulus (GPa) = 15.24642 20.81524 18.03083
#
# Velocity S-wave (km/s) = 3.03030 3.54073 3.29541
# Velocity P-wave (km/s) = 5.25369 7.14240 6.26957
#
# Compressibility (1/GPa) = 0.03921757
#
# Stress axis : x y z
#
# Youngs Moduli (GPa) = 65.46893 14.85523 44.42076
#
# Poissons Ratio (x) = -0.02106 0.38733
# Poissons Ratio (y) = -0.09283 1.13899
# Poissons Ratio (z) = 0.57087 0.38090
#
# Static dielectric constant tensor:
#      x y z
#    x 3.326760 0.000000 0.000000 
#    y 0.000000 2.958640 0.000000 
#    z 0.000000 0.000000 3.043800 
# 
# 
# High freq. dielectric constant tensor:
#      x y z
#    x 1.654230 0.000000 0.000000 
#    y 0.000000 1.609410 0.000000 
#    z 0.000000 0.000000 1.623490 
# 
# From -- ./inp_files/44147.got.cif
#   From: 2010.03.12/outbox.cif.g09.slc.cpg/sg74_23_cif.got.tgz:44147.got - 2010.04.16 15:46:19.
