data_PCOD8301710
_publ_section_title
;
Structure prediction by ZEFSAII (Michael W. Deem and Ramdas Pophale) SiO2 
 PCOD8301710
Probable space group: I M M A
;
_chemical_formula_sum "Si O2"
_cell_formula_units_Z 48
_cell_length_a 21.832612
_cell_length_b 21.305015
_cell_length_c 5.008293
_cell_angle_alpha 90.000000
_cell_angle_beta 90.000000
_cell_angle_gamma 90.000000
_cell_volume 2329.578071
_symmetry_space_group_name_H-M "I M M A"
_symmetry_group_IT_number 74
_symmetry_cell_setting 'orthorhombic'
loop_
_space_group_symop_operation_xyz
x,y,z
-x,1/2-y,z
x,-y,-z
-x,1/2+y,-z
-x,-y,-z
x,1/2+y,-z
-x,y,z
x,1/2-y,z
1/2+x,1/2+y,1/2+z
1/2-x,-y,1/2+z
1/2+x,1/2-y,1/2-z
1/2-x,y,1/2-z
1/2-x,1/2-y,1/2-z
1/2+x,y,1/2-z
1/2-x,1/2+y,1/2+z
1/2+x,-y,1/2+z
loop_
_atom_site_type_symbol
_atom_site_label
_atom_site_fract_x
_atom_site_fract_y
_atom_site_fract_z
Si Si1 0.361875 0.378814 0.944330
Si Si2 0.794755 0.250000 0.502127
Si Si3 0.930055 0.926383 0.956348
Si Si4 0.750000 0.039675 0.750000
O O1 0.341031 0.308069 0.993549
O O2 0.413782 0.385642 0.718379
O O3 0.304040 0.418165 0.855600
O O4 0.386313 0.406032 0.219139
O O5 0.750000 0.250000 0.750000
O O6 0.750000 0.250000 0.250000
O O7 0.000000 0.911512 0.880627
O O8 0.920411 0.000000 0.000000
O O9 0.724667 0.000000 0.500000
#
# Coordination Sequence:
#
# PCOD8301710 Si02
#       4
#    16   8  16   8
#     4  12  24  43  66  96 130 175 220 262 328 388
#     4  12  26  46  65  92 135 180 212 263 325 390
#     4  11  24  44  68  97 133 172 215 270 330 384
#     4  12  24  37  64  99 132 162 212 278 328 390
#
# _framework density 20.604590999999999
#
# number of rings (size 3 to 8) (size 9 to 14) (size 15 to 20)
#    0.000    0.333    1.667    9.000    2.333    2.667 
#    0.000    5.000    0.000    0.000    0.000    0.000 
#    0.000    0.000    0.000    0.000    0.000    0.000 
#
# Total GULP energy -297721.672127 kJ/mol
# GULP energy per Si atom -12405.069672 kJ/mol
# Density = 2.055769 g / cm^3
# Si number density = 20.604591 Si / 1000 Ang^3
#
#
#
# Elastic Constant Matrix: (Units=GPa)
#
#
# Indices 1 2 3 4 5 6 
#
# 1 100.2685 84.1461 30.9277 0.0000 0.0000 0.0000
# 2 84.1461 158.9017 68.8696 0.0000 0.0000 0.0000
# 3 30.9277 68.8696 138.1604 0.0000 0.0000 0.0000
# 4 0.0000 0.0000 0.0000 29.1724 0.0000 0.0000
# 5 0.0000 0.0000 0.0000 0.0000 32.5302 0.0000
# 6 0.0000 0.0000 0.0000 0.0000 0.0000 10.0660
#
#
#
# Elastic Compliance Matrix: (Units=1/GPa)
#
#
# Indices 1 2 3 4 5 6 
#
# 1 0.018042 -0.009954 0.000923 0.000000 0.000000 0.000000
# 2 -0.009954 0.013520 -0.004511 0.000000 0.000000 0.000000
# 3 0.000923 -0.004511 0.009280 0.000000 0.000000 0.000000
# 4 0.000000 0.000000 0.000000 0.034279 0.000000 0.000000
# 5 0.000000 0.000000 0.000000 0.000000 0.030741 0.000000
# 6 0.000000 0.000000 0.000000 0.000000 0.000000 0.099344
#
#
# Mechanical properties :
#
#
# Convention : Reuss Voigt Hill
#
# Bulk Modulus (GPa) = 72.68701 85.02415 78.85558
# Shear Modulus (GPa) = 21.10812 28.57952 24.84382
#
# Velocity S-wave (km/s) = 3.20416 3.72835 3.47615
# Velocity P-wave (km/s) = 7.00304 7.73876 7.38007
#
# Compressibility (1/GPa) = 0.01375762
#
# Stress axis : x y z
#
# Youngs Moduli (GPa) = 55.42544 73.96684 107.76023
#
# Poissons Ratio (x) = 0.73629 -0.09948
# Poissons Ratio (y) = 0.55173 0.48609
# Poissons Ratio (z) = -0.05117 0.33365
#
# Static dielectric constant tensor:
#      x y z
#    x 3.906040 0.000000 0.000000 
#    y 0.000000 3.840520 0.000000 
#    z 0.000000 0.000000 4.350730 
# 
# 
# High freq. dielectric constant tensor:
#      x y z
#    x 1.821720 0.000000 0.000000 
#    y 0.000000 1.803180 0.000000 
#    z 0.000000 0.000000 1.830610 
# 
# From -- ./inp_files/2698.got.cif
#   From: 2010.03.12/outbox.cif.g09.slc.cpg/sg74_2_cif.got.tgz:2698.got - 2010.04.16 15:46:19.
