data_PCOD8301166
_publ_section_title
;
Structure prediction by ZEFSAII (Michael W. Deem and Ramdas Pophale) SiO2 
 PCOD8301166
Probable space group: I M M A
;
_chemical_formula_sum "Si O2"
_cell_formula_units_Z 92
_cell_length_a 20.291803
_cell_length_b 11.938338
_cell_length_c 18.798630
_cell_angle_alpha 90.000000
_cell_angle_beta 90.000000
_cell_angle_gamma 90.000000
_cell_volume 4553.975690
_symmetry_space_group_name_H-M "I M M A"
_symmetry_group_IT_number 74
_symmetry_cell_setting 'orthorhombic'
loop_
_space_group_symop_operation_xyz
x,y,z
-x,1/2-y,z
x,-y,-z
-x,1/2+y,-z
-x,-y,-z
x,1/2+y,-z
-x,y,z
x,1/2-y,z
1/2+x,1/2+y,1/2+z
1/2-x,-y,1/2+z
1/2+x,1/2-y,1/2-z
1/2-x,y,1/2-z
1/2-x,1/2-y,1/2-z
1/2+x,y,1/2-z
1/2-x,1/2+y,1/2+z
1/2+x,-y,1/2+z
loop_
_atom_site_type_symbol
_atom_site_label
_atom_site_fract_x
_atom_site_fract_y
_atom_site_fract_z
Si Si1 0.864658 0.250000 0.718159
Si Si2 0.420646 0.250000 0.626270
Si Si3 0.500000 0.507100 0.082346
Si Si4 0.346982 0.960142 0.420016
Si Si5 0.000000 0.750000 0.358812
Si Si6 0.613541 0.118429 0.161260
Si Si7 0.776799 0.958922 0.325527
Si Si8 0.074043 0.119283 0.178094
O O1 0.874880 0.250000 0.803083
O O2 0.825604 0.143528 0.689559
O O3 0.937599 0.250000 0.690780
O O4 0.500000 0.250000 0.639654
O O5 0.399688 0.141111 0.580906
O O6 0.500000 0.639049 0.094992
O O7 0.436704 0.444168 0.111054
O O8 0.500000 0.500000 0.000000
O O9 0.278633 0.923453 0.382507
O O10 0.333247 0.000000 0.500000
O O11 0.376390 0.063394 0.376474
O O12 0.613304 0.250000 0.145073
O O13 0.594771 0.090087 0.242073
O O14 0.684700 0.066414 0.143305
O O15 0.750000 0.999237 0.250000
O O16 0.077382 0.250000 0.163752
O O17 0.000000 0.073553 0.166225
#
# Coordination Sequence:
#
# PCOD8301166 Si02
#       8
#     8   8   8  16   4  16  16  16
#     4  12  22  44  75 110 130 171 237 298 351 422
#     4  12  25  43  76 104 136 177 229 298 368 415
#     4  12  27  46  69 104 146 177 223 292 355 412
#     4  12  28  45  63  97 143 184 226 283 344 423
#     4  12  26  44  78 104 136 176 232 298 348 424
#     4  11  23  42  71 102 132 178 231 283 340 406
#     4  12  23  42  70  98 138 178 233 282 343 416
#     4  10  21  40  70  98 127 171 226 282 338 400
#
# _framework density 20.202127999999998
#
# number of rings (size 3 to 8) (size 9 to 14) (size 15 to 20)
#    0.000    0.522    6.522    1.565    2.435    3.130 
#    0.000    0.000    0.000    0.000    0.000    0.000 
#    0.000    0.000    0.000    0.000    0.000    0.000 
#
# Total GULP energy -570457.523378 kJ/mol
# GULP energy per Si atom -12401.250508 kJ/mol
# Density = 2.015615 g / cm^3
# Si number density = 20.202128 Si / 1000 Ang^3
#
#
#
# Elastic Constant Matrix: (Units=GPa)
#
#
# Indices 1 2 3 4 5 6 
#
# 1 142.2856 57.7434 47.3665 0.0000 0.0000 0.0000
# 2 57.7434 117.3888 54.1318 0.0000 0.0000 0.0000
# 3 47.3665 54.1318 117.8227 0.0000 0.0000 0.0000
# 4 0.0000 0.0000 0.0000 60.1435 0.0000 0.0000
# 5 0.0000 0.0000 0.0000 0.0000 30.2156 0.0000
# 6 0.0000 0.0000 0.0000 0.0000 0.0000 66.7608
#
#
#
# Elastic Compliance Matrix: (Units=1/GPa)
#
#
# Indices 1 2 3 4 5 6 
#
# 1 0.009153 -0.003560 -0.002044 0.000000 0.000000 0.000000
# 2 -0.003560 0.012193 -0.004171 0.000000 0.000000 0.000000
# 3 -0.002044 -0.004171 0.011225 0.000000 0.000000 0.000000
# 4 0.000000 0.000000 0.000000 0.016627 0.000000 0.000000
# 5 0.000000 0.000000 0.000000 0.000000 0.033096 0.000000
# 6 0.000000 0.000000 0.000000 0.000000 0.000000 0.014979
#
#
# Mechanical properties :
#
#
# Convention : Reuss Voigt Hill
#
# Bulk Modulus (GPa) = 76.79340 77.33116 77.06228
# Shear Modulus (GPa) = 41.26655 45.97434 43.62044
#
# Velocity S-wave (km/s) = 4.52451 4.77562 4.65176
# Velocity P-wave (km/s) = 8.08641 8.29280 8.19025
#
# Compressibility (1/GPa) = 0.01302195
#
# Stress axis : x y z
#
# Youngs Moduli (GPa) = 109.24987 82.01384 89.08393
#
# Poissons Ratio (x) = 0.29196 0.18211
# Poissons Ratio (y) = 0.38891 0.37155
# Poissons Ratio (z) = 0.22334 0.34206
#
# Static dielectric constant tensor:
#      x y z
#    x 3.921090 0.000000 0.000000 
#    y 0.000000 3.741150 0.000000 
#    z 0.000000 0.000000 3.520230 
# 
# 
# High freq. dielectric constant tensor:
#      x y z
#    x 1.806460 0.000000 0.000000 
#    y 0.000000 1.804120 0.000000 
#    z 0.000000 0.000000 1.773790 
# 
# From -- ./inp_files/45188.got.cif
#   From: 2010.03.12/outbox.cif.g09.slc.cpg/sg74_23_cif.got.tgz:45188.got - 2010.04.16 15:46:19.
