data_PCOD8301363
_publ_section_title
;
Structure prediction by ZEFSAII (Michael W. Deem and Ramdas Pophale) SiO2 
 PCOD8301363
Probable space group: I M M A
;
_chemical_formula_sum "Si O2"
_cell_formula_units_Z 88
_cell_length_a 14.334863
_cell_length_b 14.837537
_cell_length_c 22.071747
_cell_angle_alpha 90.000000
_cell_angle_beta 90.000000
_cell_angle_gamma 90.000000
_cell_volume 4694.529484
_symmetry_space_group_name_H-M "I M M A"
_symmetry_group_IT_number 74
_symmetry_cell_setting 'orthorhombic'
loop_
_space_group_symop_operation_xyz
x,y,z
-x,1/2-y,z
x,-y,-z
-x,1/2+y,-z
-x,-y,-z
x,1/2+y,-z
-x,y,z
x,1/2-y,z
1/2+x,1/2+y,1/2+z
1/2-x,-y,1/2+z
1/2+x,1/2-y,1/2-z
1/2-x,y,1/2-z
1/2-x,1/2-y,1/2-z
1/2+x,y,1/2-z
1/2-x,1/2+y,1/2+z
1/2+x,-y,1/2+z
loop_
_atom_site_type_symbol
_atom_site_label
_atom_site_fract_x
_atom_site_fract_y
_atom_site_fract_z
Si Si1 0.500000 0.850690 0.851151
Si Si2 0.700873 0.146368 0.120786
Si Si3 0.500000 0.912587 0.719766
Si Si4 0.188106 0.001905 0.805597
Si Si5 0.000000 0.147500 0.087973
Si Si6 0.824506 0.900396 0.982741
Si Si7 0.892612 0.149016 0.890101
O O1 0.500000 0.750000 0.875955
O O2 0.595601 0.894806 0.876822
O O3 0.500000 0.849724 0.778413
O O4 0.703640 0.250000 0.145009
O O5 0.765942 0.085381 0.163212
O O6 0.737433 0.145587 0.051514
O O7 0.410930 0.976749 0.722283
O O8 0.500000 0.850304 0.660415
O O9 0.250000 0.037602 0.750000
O O10 0.174930 0.083294 0.852887
O O11 0.910059 0.093913 0.064645
O O12 0.000000 0.250000 0.063662
O O13 0.855297 0.844780 0.041255
O O14 0.793600 0.000000 0.000000
O O15 0.887285 0.250000 0.862989
O O16 0.000000 0.113974 0.889506
#
# Coordination Sequence:
#
# PCOD8301363 Si02
#       7
#     8  16   8  16   8  16  16
#     4  10  23  40  58  81 119 167 207 243 286 358
#     4  11  23  39  59  88 122 158 200 245 300 360
#     4  12  21  35  56  89 126 161 191 245 293 358
#     4  12  24  39  62  89 122 159 201 248 295 355
#     4  12  22  31  52  92 129 156 190 239 299 362
#     4  12  22  36  59  88 124 158 192 243 303 366
#     4  11  23  40  63  91 122 158 199 250 307 357
#
# _framework density 18.745221999999998
#
# number of rings (size 3 to 8) (size 9 to 14) (size 15 to 20)
#    0.000    0.545    7.273    2.182    0.000    1.455 
#    0.000    0.455    0.000    0.000    0.000    1.273 
#    0.000    0.000    0.000    0.000    0.000    0.000 
#
# Total GULP energy -545649.794646 kJ/mol
# GULP energy per Si atom -12401.131697 kJ/mol
# Density = 1.870256 g / cm^3
# Si number density = 18.745222 Si / 1000 Ang^3
#
#
#
# Elastic Constant Matrix: (Units=GPa)
#
#
# Indices 1 2 3 4 5 6 
#
# 1 146.9332 36.8830 63.0348 0.0000 0.0000 0.0000
# 2 36.8830 76.2154 28.9535 0.0000 0.0000 0.0000
# 3 63.0348 28.9535 106.1750 0.0000 0.0000 0.0000
# 4 0.0000 0.0000 0.0000 24.6590 0.0000 0.0000
# 5 0.0000 0.0000 0.0000 0.0000 36.0691 0.0000
# 6 0.0000 0.0000 0.0000 0.0000 0.0000 15.7968
#
#
#
# Elastic Compliance Matrix: (Units=1/GPa)
#
#
# Indices 1 2 3 4 5 6 
#
# 1 0.009631 -0.002776 -0.004961 0.000000 0.000000 0.000000
# 2 -0.002776 0.015437 -0.002562 0.000000 0.000000 0.000000
# 3 -0.004961 -0.002562 0.013062 0.000000 0.000000 0.000000
# 4 0.000000 0.000000 0.000000 0.040553 0.000000 0.000000
# 5 0.000000 0.000000 0.000000 0.000000 0.027725 0.000000
# 6 0.000000 0.000000 0.000000 0.000000 0.000000 0.063304
#
#
# Mechanical properties :
#
#
# Convention : Reuss Voigt Hill
#
# Bulk Modulus (GPa) = 57.03383 65.22958 61.13170
# Shear Modulus (GPa) = 25.49031 28.66845 27.07938
#
# Velocity S-wave (km/s) = 3.69159 3.91496 3.80491
# Velocity P-wave (km/s) = 6.97583 7.43703 7.21012
#
# Compressibility (1/GPa) = 0.01753345
#
# Stress axis : x y z
#
# Youngs Moduli (GPa) = 103.83341 64.77830 76.55788
#
# Poissons Ratio (x) = 0.17983 0.37978
# Poissons Ratio (y) = 0.28826 0.19611
# Poissons Ratio (z) = 0.51508 0.16593
#
# Static dielectric constant tensor:
#      x y z
#    x 3.735280 0.000000 0.000000 
#    y 0.000000 3.241480 0.000000 
#    z 0.000000 0.000000 3.468690 
# 
# 
# High freq. dielectric constant tensor:
#      x y z
#    x 1.727560 0.000000 0.000000 
#    y 0.000000 1.718100 0.000000 
#    z 0.000000 0.000000 1.721150 
# 
# From -- ./inp_files/58686.got.cif
#   From: 2010.03.12/outbox.cif.g09.slc.cpg/sg74_30_cif.got.tgz:58686.got - 2010.04.16 15:46:19.
