data_PCOD8301788
_publ_section_title
;
Structure prediction by ZEFSAII (Michael W. Deem and Ramdas Pophale) SiO2 
 PCOD8301788
Probable space group: I M M A
;
_chemical_formula_sum "Si O2"
_cell_formula_units_Z 120
_cell_length_a 9.729618
_cell_length_b 27.696783
_cell_length_c 25.126895
_cell_angle_alpha 90.000000
_cell_angle_beta 90.000000
_cell_angle_gamma 90.000000
_cell_volume 6771.173513
_symmetry_space_group_name_H-M "I M M A"
_symmetry_group_IT_number 74
_symmetry_cell_setting 'orthorhombic'
loop_
_space_group_symop_operation_xyz
x,y,z
-x,1/2-y,z
x,-y,-z
-x,1/2+y,-z
-x,-y,-z
x,1/2+y,-z
-x,y,z
x,1/2-y,z
1/2+x,1/2+y,1/2+z
1/2-x,-y,1/2+z
1/2+x,1/2-y,1/2-z
1/2-x,y,1/2-z
1/2-x,1/2-y,1/2-z
1/2+x,y,1/2-z
1/2-x,1/2+y,1/2+z
1/2+x,-y,1/2+z
loop_
_atom_site_type_symbol
_atom_site_label
_atom_site_fract_x
_atom_site_fract_y
_atom_site_fract_z
Si Si1 0.163353 0.474113 0.907088
Si Si2 0.347722 0.437834 0.705099
Si Si3 0.339118 0.644337 0.696161
Si Si4 0.163424 0.417556 0.096770
Si Si5 0.837252 0.803423 0.087105
Si Si6 0.336175 0.890680 0.482617
Si Si7 0.153260 0.824000 0.204171
Si Si8 0.846590 0.250000 0.200908
O O1 0.214136 0.450823 0.852101
O O2 0.223100 0.528293 0.909363
O O3 0.218630 0.440116 0.954880
O O4 0.000000 0.475662 0.910109
O O5 0.500000 0.460394 0.712089
O O6 0.250000 0.460831 0.750000
O O7 0.355051 0.380937 0.710686
O O8 0.500000 0.634375 0.709344
O O9 0.250000 0.637249 0.750000
O O10 0.282270 0.608180 0.650562
O O11 0.321712 0.698826 0.670765
O O12 0.000000 0.418608 0.099300
O O13 0.212635 0.388879 0.043983
O O14 0.796404 0.750000 0.066342
O O15 0.774449 0.843663 0.047424
O O16 0.781231 0.810625 0.147009
O O17 0.000000 0.810229 0.089271
O O18 0.500000 0.890020 0.479040
O O19 0.250000 0.801597 0.250000
O O20 0.000000 0.801855 0.209895
O O21 0.750000 0.250000 0.250000
O O22 0.000000 0.250000 0.223763
#
# Coordination Sequence:
#
# PCOD8301788 Si02
#       8
#    16  16  16  16  16  16  16   8
#     4   9  15  25  41  59  83 115 145 177 218 260
#     4   9  16  26  41  61  86 114 144 177 214 257
#     4   9  17  30  46  67  93 118 145 178 218 261
#     4   9  17  26  40  64  88 111 144 182 216 255
#     4   9  16  26  40  59  85 116 145 177 221 267
#     4   9  15  26  40  58  85 115 145 177 217 263
#     4   9  16  27  42  61  86 114 146 181 216 257
#     4   8  14  26  44  62  86 118 144 168 205 254
#
# _framework density 17.722187000000002
#
# number of rings (size 3 to 8) (size 9 to 14) (size 15 to 20)
#    0.000    3.067    1.333    0.400    0.000    2.400 
#    1.200    0.000    0.000    0.000    0.000    1.867 
#    0.000    2.133    0.000    0.000    0.000    0.000 
#
# Total GULP energy -743319.098280 kJ/mol
# GULP energy per Si atom -12388.651638 kJ/mol
# Density = 1.768185 g / cm^3
# Si number density = 17.722187 Si / 1000 Ang^3
#
#
#
# Elastic Constant Matrix: (Units=GPa)
#
#
# Indices 1 2 3 4 5 6 
#
# 1 25.3227 15.3649 27.1043 0.0000 0.0000 0.0000
# 2 15.3649 111.3818 63.9090 0.0000 0.0000 0.0000
# 3 27.1043 63.9090 138.9268 0.0000 0.0000 0.0000
# 4 0.0000 0.0000 0.0000 12.0690 0.0000 0.0000
# 5 0.0000 0.0000 0.0000 0.0000 17.6840 0.0000
# 6 0.0000 0.0000 0.0000 0.0000 0.0000 -9.1289
#
#
#
# Elastic Compliance Matrix: (Units=1/GPa)
#
#
# Indices 1 2 3 4 5 6 
#
# 1 0.050170 -0.001772 -0.008973 0.000000 0.000000 0.000000
# 2 -0.001772 0.012260 -0.005294 0.000000 0.000000 0.000000
# 3 -0.008973 -0.005294 0.011384 0.000000 0.000000 0.000000
# 4 0.000000 0.000000 0.000000 0.082857 0.000000 0.000000
# 5 0.000000 0.000000 0.000000 0.000000 0.056548 0.000000
# 6 0.000000 0.000000 0.000000 0.000000 0.000000 -0.109542
#
#
# Mechanical properties :
#
#
# Convention : Reuss Voigt Hill
#
# Bulk Modulus (GPa) = 23.96045 54.26530 39.11287
# Shear Modulus (GPa) = 33.40734 15.40835 24.40785
#
# Velocity S-wave (km/s) = 4.34644 2.95182 3.71516
# Velocity P-wave (km/s) = 6.22399 6.50416 6.36562
#
# Compressibility (1/GPa) = 0.04173544
#
# Stress axis : x y z
#
# Youngs Moduli (GPa) = 19.93238 81.56376 87.84262
#
# Poissons Ratio (x) = 0.14457 0.78818
# Poissons Ratio (y) = 0.03533 0.46506
# Poissons Ratio (z) = 0.17885 0.43181
#
# Static dielectric constant tensor:
#      x y z
#    x 2.898460 0.000000 0.000000 
#    y 0.000000 3.710330 0.000000 
#    z 0.000000 0.000000 3.641270 
# 
# 
# High freq. dielectric constant tensor:
#      x y z
#    x 1.612360 0.000000 0.000000 
#    y 0.000000 1.694890 0.000000 
#    z 0.000000 0.000000 1.682120 
# 
# From -- ./inp_files/51207.got.cif
#   From: 2010.03.12/outbox.cif.g09.slc.cpg/sg74_26_cif.got.tgz:51207.got - 2010.04.16 15:46:19.
