data_PCOD8301979
_publ_section_title
;
Structure prediction by ZEFSAII (Michael W. Deem and Ramdas Pophale) SiO2 
 PCOD8301979
Probable space group: P 41
;
_chemical_formula_sum "Si O2"
_cell_formula_units_Z 20
_cell_length_a 9.833829
_cell_length_b 9.833829
_cell_length_c 8.455960
_cell_angle_alpha 90.000000
_cell_angle_beta 90.000000
_cell_angle_gamma 90.000000
_cell_volume 817.726786
_symmetry_space_group_name_H-M "P 41"
_symmetry_group_IT_number 76
_symmetry_cell_setting 'tetragonal'
loop_
_space_group_symop_operation_xyz
x,y,z
-y,x,1/4+z
-x,-y,1/2+z
y,-x,3/4+z
loop_
_atom_site_type_symbol
_atom_site_label
_atom_site_fract_x
_atom_site_fract_y
_atom_site_fract_z
Si Si1 0.688679 0.686613 0.020440
Si Si2 0.971426 0.380257 0.304096
Si Si3 0.820037 0.530617 0.558120
Si Si4 0.052864 0.146904 0.470732
Si Si5 0.716359 0.385541 0.101757
O O1 0.648901 0.531548 0.062472
O O2 0.673178 0.767939 0.184902
O O3 0.595513 0.733621 0.875314
O O4 0.843533 0.724966 0.978837
O O5 0.949266 0.478833 0.455697
O O6 0.849959 0.423108 0.193556
O O7 0.116033 0.395972 0.212597
O O8 0.946175 0.220412 0.352673
O O9 0.715905 0.620757 0.453480
O O10 0.989835 0.112544 0.641939
#
# Coordination Sequence:
#
# PCOD8301979 Si02
#       5
#     4   4   4   4   4
#     4  12  28  49  76 115 161 211 270 343 411 496
#     4  12  26  51  74 114 158 211 263 341 410 490
#     4  12  27  49  81 116 164 212 279 333 426 502
#     4  12  28  50  78 111 153 212 277 338 410 497
#     4  12  29  45  81 116 158 212 269 341 411 499
#
# _framework density 24.458046
#
# number of rings (size 3 to 8) (size 9 to 14) (size 15 to 20)
#    0.000    0.000    4.000    4.800    8.400    1.600 
#    0.000    0.000    0.000    0.000    0.000    0.000 
#    0.000    0.000    0.000    0.000    0.000    0.000 
#
# Total GULP energy -247789.806646 kJ/mol
# GULP energy per Si atom -12389.490332 kJ/mol
# Density = 2.440238 g / cm^3
# Si number density = 24.458046 Si / 1000 Ang^3
#
#
#
# Elastic Constant Matrix: (Units=GPa)
#
#
# Indices 1 2 3 4 5 6 
#
# 1 93.4208 46.7287 37.2165 0.0000 0.0000 2.7661
# 2 46.7287 93.4208 37.2165 0.0000 0.0000 -2.7661
# 3 37.2165 37.2165 122.9700 0.0000 0.0000 0.0000
# 4 0.0000 0.0000 0.0000 46.1210 0.0000 0.0000
# 5 0.0000 0.0000 0.0000 0.0000 46.1210 0.0000
# 6 2.7661 -2.7661 0.0000 0.0000 0.0000 32.9472
#
#
#
# Elastic Compliance Matrix: (Units=1/GPa)
#
#
# Indices 1 2 3 4 5 6 
#
# 1 0.015067 -0.006565 -0.002573 0.000000 0.000000 -0.001816
# 2 -0.006565 0.015067 -0.002573 0.000000 0.000000 0.001816
# 3 -0.002573 -0.002573 0.009690 0.000000 0.000000 0.000000
# 4 0.000000 0.000000 0.000000 0.021682 0.000000 0.000000
# 5 0.000000 0.000000 0.000000 0.000000 0.021682 0.000000
# 6 -0.001816 0.001816 0.000000 0.000000 0.000000 0.030657
#
#
# Mechanical properties :
#
#
# Convention : Reuss Voigt Hill
#
# Bulk Modulus (GPa) = 60.97226 61.34835 61.16031
# Shear Modulus (GPa) = 35.03031 37.61450 36.32241
#
# Velocity S-wave (km/s) = 3.78863 3.92589 3.85787
# Velocity P-wave (km/s) = 6.64242 6.75926 6.70110
#
# Compressibility (1/GPa) = 0.01640090
#
# Stress axis : x y z
#
# Youngs Moduli (GPa) = 66.37055 66.37055 103.20440
#
# Poissons Ratio (x) = 0.43573 0.26555
# Poissons Ratio (y) = 0.43573 0.26555
# Poissons Ratio (z) = 0.17077 0.17077
#
# Static dielectric constant tensor:
#      x y z
#    x 4.272440 0.000000 0.000000 
#    y 0.000000 4.272440 0.000000 
#    z 0.000000 0.000000 5.205980 
# 
# 
# High freq. dielectric constant tensor:
#      x y z
#    x 1.969330 0.000000 0.000000 
#    y 0.000000 1.969330 0.000000 
#    z 0.000000 0.000000 2.002660 
# 
# From -- ./inp_files/430.got.cif
#   From: 2010.03.12/outbox.cif.g09.slc.cpg/sg76_cif.got.tgz:430.got - 2010.04.16 16:34:25.
