data_PCOD8301773
_publ_section_title
;
Structure prediction by ZEFSAII (Michael W. Deem and Ramdas Pophale) SiO2 
 PCOD8301773
Probable space group: I M M A
;
_chemical_formula_sum "Si O2"
_cell_formula_units_Z 112
_cell_length_a 16.779558
_cell_length_b 18.746704
_cell_length_c 24.830941
_cell_angle_alpha 90.000000
_cell_angle_beta 90.000000
_cell_angle_gamma 90.000000
_cell_volume 7810.855740
_symmetry_space_group_name_H-M "I M M A"
_symmetry_group_IT_number 74
_symmetry_cell_setting 'orthorhombic'
loop_
_space_group_symop_operation_xyz
x,y,z
-x,1/2-y,z
x,-y,-z
-x,1/2+y,-z
-x,-y,-z
x,1/2+y,-z
-x,y,z
x,1/2-y,z
1/2+x,1/2+y,1/2+z
1/2-x,-y,1/2+z
1/2+x,1/2-y,1/2-z
1/2-x,y,1/2-z
1/2-x,1/2-y,1/2-z
1/2+x,y,1/2-z
1/2-x,1/2+y,1/2+z
1/2+x,-y,1/2+z
loop_
_atom_site_type_symbol
_atom_site_label
_atom_site_fract_x
_atom_site_fract_y
_atom_site_fract_z
Si Si1 0.182220 0.951388 0.715407
Si Si2 0.825748 0.956098 0.448190
Si Si3 0.408764 0.060620 0.719784
Si Si4 0.906360 0.331979 0.490673
Si Si5 0.674353 0.328502 0.788590
Si Si6 0.407677 0.079077 0.112419
Si Si7 0.766882 0.572173 0.148609
O O1 0.250000 0.907306 0.750000
O O2 0.142415 0.905649 0.667185
O O3 0.114132 0.983853 0.754465
O O4 0.232182 0.016125 0.690925
O O5 0.862663 0.879877 0.464469
O O6 0.744055 0.948405 0.413885
O O7 0.799734 0.000000 0.500000
O O8 0.889297 0.000984 0.412637
O O9 0.500000 0.058465 0.702169
O O10 0.395370 0.122370 0.764220
O O11 0.359446 0.079941 0.665063
O O12 0.878136 0.250000 0.495769
O O13 0.885287 0.359817 0.430657
O O14 0.000000 0.339718 0.500883
O O15 0.638339 0.250000 0.797866
O O16 0.750000 0.327869 0.750000
O O17 0.710644 0.357895 0.844624
O O18 0.500000 0.081310 0.127819
#
# Coordination Sequence:
#
# PCOD8301773 Si02
#       7
#    16  16  16  16  16  16  16
#     4   8  14  24  37  54  74  95 119 145 175 213
#     4   9  16  26  40  55  72  98 130 157 180 214
#     4   9  15  23  36  53  73  95 120 151 182 213
#     4   9  17  27  38  55  78  99 120 151 189 221
#     4   8  14  24  35  47  67  95 122 146 176 215
#     4   9  15  24  40  58  75  98 126 152 178 213
#     4   8  15  25  36  51  70  94 122 151 183 214
#
# _framework density 14.339017999999999
#
# number of rings (size 3 to 8) (size 9 to 14) (size 15 to 20)
#    0.000    3.429    0.000    2.571    0.000    2.571 
#    0.000    0.714    0.000    0.857    0.000    0.000 
#    0.000    0.000    0.000    3.286    0.000    0.000 
#
# Total GULP energy -693779.087019 kJ/mol
# GULP energy per Si atom -12388.912268 kJ/mol
# Density = 1.430638 g / cm^3
# Si number density = 14.339018 Si / 1000 Ang^3
#
#
#
# Elastic Constant Matrix: (Units=GPa)
#
#
# Indices 1 2 3 4 5 6 
#
# 1 83.9446 18.2995 42.9480 0.0000 0.0000 0.0000
# 2 18.2995 52.7194 23.6203 0.0000 0.0000 0.0000
# 3 42.9480 23.6203 84.8717 0.0000 0.0000 0.0000
# 4 0.0000 0.0000 0.0000 12.5347 0.0000 0.0000
# 5 0.0000 0.0000 0.0000 0.0000 23.2193 0.0000
# 6 0.0000 0.0000 0.0000 0.0000 0.0000 10.7915
#
#
#
# Elastic Compliance Matrix: (Units=1/GPa)
#
#
# Indices 1 2 3 4 5 6 
#
# 1 0.016303 -0.002242 -0.007626 0.000000 0.000000 0.000000
# 2 -0.002242 0.021979 -0.004982 0.000000 0.000000 0.000000
# 3 -0.007626 -0.004982 0.017028 0.000000 0.000000 0.000000
# 4 0.000000 0.000000 0.000000 0.079778 0.000000 0.000000
# 5 0.000000 0.000000 0.000000 0.000000 0.043068 0.000000
# 6 0.000000 0.000000 0.000000 0.000000 0.000000 0.092666
#
#
# Mechanical properties :
#
#
# Convention : Reuss Voigt Hill
#
# Bulk Modulus (GPa) = 39.04836 43.47460 41.26148
# Shear Modulus (GPa) = 16.17815 18.42028 17.29922
#
# Velocity S-wave (km/s) = 3.36260 3.58806 3.47716
# Velocity P-wave (km/s) = 6.50903 6.89568 6.70515
#
# Compressibility (1/GPa) = 0.02560927
#
# Stress axis : x y z
#
# Youngs Moduli (GPa) = 61.33846 45.49817 58.72675
#
# Poissons Ratio (x) = 0.10202 0.44784
# Poissons Ratio (y) = 0.13754 0.29259
# Poissons Ratio (z) = 0.46776 0.22668
#
# Static dielectric constant tensor:
#      x y z
#    x 2.613020 0.000000 0.000000 
#    y 0.000000 2.748530 0.000000 
#    z 0.000000 0.000000 2.822640 
# 
# 
# High freq. dielectric constant tensor:
#      x y z
#    x 1.524180 0.000000 0.000000 
#    y 0.000000 1.520790 0.000000 
#    z 0.000000 0.000000 1.540020 
# 
# From -- ./inp_files/61078.got.cif
#   From: 2010.03.12/outbox.cif.g09.slc.cpg/sg74_31_cif.got.tgz:61078.got - 2010.04.16 15:46:19.
