data_PCOD8301019
_publ_section_title
;
Structure prediction by ZEFSAII (Michael W. Deem and Ramdas Pophale) SiO2 
 PCOD8301019
Probable space group: I M M A
;
_chemical_formula_sum "Si O2"
_cell_formula_units_Z 96
_cell_length_a 8.803746
_cell_length_b 20.121427
_cell_length_c 27.665474
_cell_angle_alpha 90.000000
_cell_angle_beta 90.000000
_cell_angle_gamma 90.000000
_cell_volume 4900.770858
_symmetry_space_group_name_H-M "I M M A"
_symmetry_group_IT_number 74
_symmetry_cell_setting 'orthorhombic'
loop_
_space_group_symop_operation_xyz
x,y,z
-x,1/2-y,z
x,-y,-z
-x,1/2+y,-z
-x,-y,-z
x,1/2+y,-z
-x,y,z
x,1/2-y,z
1/2+x,1/2+y,1/2+z
1/2-x,-y,1/2+z
1/2+x,1/2-y,1/2-z
1/2-x,y,1/2-z
1/2-x,1/2-y,1/2-z
1/2+x,y,1/2-z
1/2-x,1/2+y,1/2+z
1/2+x,-y,1/2+z
loop_
_atom_site_type_symbol
_atom_site_label
_atom_site_fract_x
_atom_site_fract_y
_atom_site_fract_z
Si Si1 0.820350 0.942665 0.645098
Si Si2 0.680869 0.064738 0.698394
Si Si3 0.677433 0.826743 0.698810
Si Si4 0.823391 0.173947 0.982821
Si Si5 0.319439 0.323520 0.625378
Si Si6 0.321191 0.056243 0.035423
O O1 0.759913 0.869310 0.657510
O O2 0.772413 0.959624 0.590245
O O3 0.000000 0.946066 0.652617
O O4 0.739479 0.993818 0.680816
O O5 0.500000 0.063791 0.701332
O O6 0.750000 0.081941 0.750000
O O7 0.743242 0.121633 0.662278
O O8 0.500000 0.843810 0.700659
O O9 0.706474 0.750000 0.685990
O O10 0.750000 0.845664 0.750000
O O11 0.791817 0.250000 0.997223
O O12 0.761250 0.159715 0.928646
O O13 0.000000 0.157169 0.985676
O O14 0.737669 0.128514 0.021021
O O15 0.500000 0.323301 0.624849
O O16 0.260992 0.250000 0.640844
O O17 0.500000 0.057468 0.030479
O O18 0.250990 0.000000 0.000000
#
# Coordination Sequence:
#
# PCOD8301019 Si02
#       6
#    16  16  16  16  16  16
#     4  11  23  38  56  78 108 144 181 222 266 317
#     4  11  22  36  56  80 108 142 180 223 269 318
#     4  10  21  38  60  84 110 140 176 219 266 318
#     4   9  18  34  57  83 109 139 178 221 263 313
#     4   8  16  33  56  81 109 142 179 219 264 314
#     4  10  22  38  55  78 109 143 179 222 270 317
#
# _framework density 19.588756
#
# number of rings (size 3 to 8) (size 9 to 14) (size 15 to 20)
#    0.000    2.167    0.000    4.000    0.000    4.000 
#    0.000    4.167    0.000    3.500    0.000    0.000 
#    0.000    0.000    0.000    0.000    0.000    0.000 
#
# Total GULP energy -595310.807353 kJ/mol
# GULP energy per Si atom -12402.308487 kJ/mol
# Density = 1.954417 g / cm^3
# Si number density = 19.588756 Si / 1000 Ang^3
#
#
#
# Elastic Constant Matrix: (Units=GPa)
#
#
# Indices 1 2 3 4 5 6 
#
# 1 46.1600 21.6999 36.2954 0.0000 0.0000 0.0000
# 2 21.6999 83.0015 31.3683 0.0000 0.0000 0.0000
# 3 36.2954 31.3683 67.9984 0.0000 0.0000 0.0000
# 4 0.0000 0.0000 0.0000 45.7272 0.0000 0.0000
# 5 0.0000 0.0000 0.0000 0.0000 29.3504 0.0000
# 6 0.0000 0.0000 0.0000 0.0000 0.0000 25.2888
#
#
#
# Elastic Compliance Matrix: (Units=1/GPa)
#
#
# Indices 1 2 3 4 5 6 
#
# 1 0.037838 -0.002737 -0.018935 0.000000 0.000000 0.000000
# 2 -0.002737 0.014790 -0.005362 0.000000 0.000000 0.000000
# 3 -0.018935 -0.005362 0.027286 0.000000 0.000000 0.000000
# 4 0.000000 0.000000 0.000000 0.021869 0.000000 0.000000
# 5 0.000000 0.000000 0.000000 0.000000 0.034071 0.000000
# 6 0.000000 0.000000 0.000000 0.000000 0.000000 0.039543
#
#
# Mechanical properties :
#
#
# Convention : Reuss Voigt Hill
#
# Bulk Modulus (GPa) = 38.68711 41.76525 40.22618
# Shear Modulus (GPa) = 21.00130 27.25969 24.13050
#
# Velocity S-wave (km/s) = 3.27786 3.73446 3.51359
# Velocity P-wave (km/s) = 5.84109 6.32157 6.08607
#
# Compressibility (1/GPa) = 0.02584840
#
# Stress axis : x y z
#
# Youngs Moduli (GPa) = 26.42812 67.61387 36.64821
#
# Poissons Ratio (x) = 0.18504 0.69392
# Poissons Ratio (y) = 0.07232 0.19651
# Poissons Ratio (z) = 0.50041 0.36254
#
# Static dielectric constant tensor:
#      x y z
#    x 3.358540 0.000000 0.000000 
#    y 0.000000 3.734330 0.000000 
#    z 0.000000 0.000000 3.678340 
# 
# 
# High freq. dielectric constant tensor:
#      x y z
#    x 1.748000 0.000000 0.000000 
#    y 0.000000 1.774220 0.000000 
#    z 0.000000 0.000000 1.766140 
# 
# From -- ./inp_files/64254.got.cif
#   From: 2010.03.12/outbox.cif.g09.slc.cpg/sg74_33_cif.got.tgz:64254.got - 2010.04.16 15:46:19.
