data_PCOD8301573
_publ_section_title
;
Structure prediction by ZEFSAII (Michael W. Deem and Ramdas Pophale) SiO2 
 PCOD8301573
Probable space group: I M M A
;
_chemical_formula_sum "Si O2"
_cell_formula_units_Z 72
_cell_length_a 14.116684
_cell_length_b 18.273207
_cell_length_c 14.534618
_cell_angle_alpha 90.000000
_cell_angle_beta 90.000000
_cell_angle_gamma 90.000000
_cell_volume 3749.307747
_symmetry_space_group_name_H-M "I M M A"
_symmetry_group_IT_number 74
_symmetry_cell_setting 'orthorhombic'
loop_
_space_group_symop_operation_xyz
x,y,z
-x,1/2-y,z
x,-y,-z
-x,1/2+y,-z
-x,-y,-z
x,1/2+y,-z
-x,y,z
x,1/2-y,z
1/2+x,1/2+y,1/2+z
1/2-x,-y,1/2+z
1/2+x,1/2-y,1/2-z
1/2-x,y,1/2-z
1/2-x,1/2-y,1/2-z
1/2+x,y,1/2-z
1/2-x,1/2+y,1/2+z
1/2+x,-y,1/2+z
loop_
_atom_site_type_symbol
_atom_site_label
_atom_site_fract_x
_atom_site_fract_y
_atom_site_fract_z
Si Si1 0.203196 0.413495 0.845607
Si Si2 0.500000 0.977759 0.891845
Si Si3 0.317051 0.834908 0.522638
Si Si4 0.208112 0.933975 0.648402
Si Si5 0.000000 0.070984 0.064223
Si Si6 0.500000 0.041841 0.708217
O O1 0.250000 0.390328 0.750000
O O2 0.219793 0.349474 0.919168
O O3 0.247918 0.488740 0.886704
O O4 0.091204 0.418089 0.831285
O O5 0.405565 0.933955 0.862536
O O6 0.500000 0.046145 0.820092
O O7 0.500000 0.000000 0.000000
O O8 0.335509 0.750000 0.538674
O O9 0.236564 0.863417 0.590656
O O10 0.410224 0.879902 0.544788
O O11 0.250000 0.923718 0.750000
O O12 0.000000 0.042421 0.170147
O O13 0.000000 0.000000 0.000000
#
# Coordination Sequence:
#
# PCOD8301573 Si02
#       6
#    16   8  16  16   8   8
#     4  11  21  37  63  88 123 159 213 265 313 365
#     4  12  22  36  63  97 124 156 212 274 320 363
#     4  12  24  38  59  93 131 169 202 253 331 394
#     4  11  22  40  64  92 122 164 221 270 315 365
#     4  12  19  38  67  90 123 156 212 266 310 362
#     4  12  20  36  62  99 115 152 202 276 314 361
#
# _framework density 19.203544999999998
#
# number of rings (size 3 to 8) (size 9 to 14) (size 15 to 20)
#    0.000    0.444    8.889    2.333    0.000    0.889 
#    0.000    0.556    0.000    0.000    0.000    0.000 
#    0.000    0.000    0.000    0.000    0.000    0.000 
#
# Total GULP energy -446187.528984 kJ/mol
# GULP energy per Si atom -12394.098027 kJ/mol
# Density = 1.915984 g / cm^3
# Si number density = 19.203545 Si / 1000 Ang^3
#
#
#
# Elastic Constant Matrix: (Units=GPa)
#
#
# Indices 1 2 3 4 5 6 
#
# 1 160.6872 48.1176 47.9467 0.0000 0.0000 0.0000
# 2 48.1176 82.3132 40.8485 0.0000 -0.0001 0.0000
# 3 47.9467 40.8485 127.8668 0.0000 -0.0001 0.0000
# 4 0.0000 0.0000 0.0000 14.1153 -0.0001 0.0000
# 5 0.0000 -0.0001 -0.0001 -0.0001 -21.1731 0.0000
# 6 0.0000 0.0000 0.0000 0.0000 0.0000 13.8150
#
#
#
# Elastic Compliance Matrix: (Units=1/GPa)
#
#
# Indices 1 2 3 4 5 6 
#
# 1 0.007863 -0.003724 -0.001759 0.000000 0.000000 0.000000
# 2 -0.003724 0.016201 -0.003779 0.000000 0.000000 0.000000
# 3 -0.001759 -0.003779 0.009688 0.000000 0.000000 0.000000
# 4 0.000000 0.000000 0.000000 0.070845 0.000000 0.000000
# 5 0.000000 0.000000 0.000000 0.000000 -0.047230 0.000000
# 6 0.000000 0.000000 0.000000 0.000000 0.000000 0.072385
#
#
# Mechanical properties :
#
#
# Convention : Reuss Voigt Hill
#
# Bulk Modulus (GPa) = 65.66906 71.63256 68.65081
# Shear Modulus (GPa) = 32.60472 16.94839 24.77655
#
# Velocity S-wave (km/s) = 4.12497 2.97402 3.59584
# Velocity P-wave (km/s) = 7.54703 7.01255 7.28469
#
# Compressibility (1/GPa) = 0.01522787
#
# Stress axis : x y z
#
# Youngs Moduli (GPa) = 127.17543 61.72472 103.22556
#
# Poissons Ratio (x) = 0.22984 0.18156
# Poissons Ratio (y) = 0.47356 0.39012
# Poissons Ratio (z) = 0.22369 0.23328
#
# Static dielectric constant tensor:
#      x y z
#    x 3.793990 0.000000 0.000000 
#    y 0.000000 3.203800 0.000000 
#    z 0.000000 0.000000 4.002980 
# 
# 
# High freq. dielectric constant tensor:
#      x y z
#    x 1.767560 0.000000 0.000000 
#    y 0.000000 1.693450 0.000000 
#    z 0.000000 0.000000 1.768700 
# 
# From -- ./inp_files/31976.got.cif
#   From: 2010.03.12/outbox.cif.g09.slc.cpg/sg74_16_cif.got.tgz:31976.got - 2010.04.16 15:46:19.
