data_PCOD8301520
_publ_section_title
;
Structure prediction by ZEFSAII (Michael W. Deem and Ramdas Pophale) SiO2 
 PCOD8301520
Probable space group: I M M A
;
_chemical_formula_sum "Si O2"
_cell_formula_units_Z 80
_cell_length_a 19.341957
_cell_length_b 21.588358
_cell_length_c 9.774928
_cell_angle_alpha 90.000000
_cell_angle_beta 90.000000
_cell_angle_gamma 90.000000
_cell_volume 4081.629611
_symmetry_space_group_name_H-M "I M M A"
_symmetry_group_IT_number 74
_symmetry_cell_setting 'orthorhombic'
loop_
_space_group_symop_operation_xyz
x,y,z
-x,1/2-y,z
x,-y,-z
-x,1/2+y,-z
-x,-y,-z
x,1/2+y,-z
-x,y,z
x,1/2-y,z
1/2+x,1/2+y,1/2+z
1/2-x,-y,1/2+z
1/2+x,1/2-y,1/2-z
1/2-x,y,1/2-z
1/2-x,1/2-y,1/2-z
1/2+x,y,1/2-z
1/2-x,1/2+y,1/2+z
1/2+x,-y,1/2+z
loop_
_atom_site_type_symbol
_atom_site_label
_atom_site_fract_x
_atom_site_fract_y
_atom_site_fract_z
Si Si1 0.810525 0.881345 0.555615
Si Si2 0.148125 0.250000 0.872721
Si Si3 0.675144 0.438554 0.779528
Si Si4 0.335944 0.423988 0.334318
Si Si5 0.809387 0.250000 0.574890
Si Si6 0.581349 0.124369 0.570839
O O1 0.836184 0.931847 0.442848
O O2 0.730502 0.895879 0.588815
O O3 0.854313 0.887543 0.695227
O O4 0.825525 0.811728 0.509329
O O5 0.140601 0.250000 0.707839
O O6 0.228933 0.250000 0.895918
O O7 0.111453 0.307228 0.947240
O O8 0.750000 0.406090 0.750000
O O9 0.678428 0.506359 0.714325
O O10 0.613069 0.402398 0.709511
O O11 0.399308 0.418113 0.439515
O O12 0.500000 0.125518 0.587201
#
# Coordination Sequence:
#
# PCOD8301520 Si02
#       6
#    16   8  16  16   8  16
#     4  11  22  38  63 101 128 162 211 272 328 367
#     4  11  21  41  65  95 124 168 217 271 319 380
#     4  12  21  39  65  96 130 168 220 265 310 382
#     4  11  24  36  63  99 135 165 205 268 324 385
#     4  11  20  38  70 100 125 154 220 290 314 368
#     4  12  26  43  64  94 132 174 214 262 327 392
#
# _framework density 19.600014000000002
#
# number of rings (size 3 to 8) (size 9 to 14) (size 15 to 20)
#    0.000    0.600    8.000    1.500    0.000    4.000 
#    0.000    1.000    0.000    2.400    0.000    0.000 
#    0.000    0.000    0.000    0.000    0.000    0.000 
#
# Total GULP energy -495845.365131 kJ/mol
# GULP energy per Si atom -12396.134128 kJ/mol
# Density = 1.955540 g / cm^3
# Si number density = 19.600014 Si / 1000 Ang^3
#
#
#
# Elastic Constant Matrix: (Units=GPa)
#
#
# Indices 1 2 3 4 5 6 
#
# 1 87.7984 16.0803 39.3824 0.0000 0.0000 0.0000
# 2 16.0803 91.5940 32.7243 0.0000 0.0000 0.0000
# 3 39.3824 32.7243 145.1588 0.0000 0.0000 0.0000
# 4 0.0000 0.0000 0.0000 28.3470 0.0000 0.0000
# 5 0.0000 0.0000 0.0000 0.0000 24.2690 0.0000
# 6 0.0000 0.0000 0.0000 0.0000 0.0000 1613.6930
#
#
#
# Elastic Compliance Matrix: (Units=1/GPa)
#
#
# Indices 1 2 3 4 5 6 
#
# 1 0.013072 -0.001118 -0.003295 0.000000 0.000000 0.000000
# 2 -0.001118 0.011970 -0.002395 0.000000 0.000000 0.000000
# 3 -0.003295 -0.002395 0.008323 0.000000 0.000000 0.000000
# 4 0.000000 0.000000 0.000000 0.035277 0.000000 0.000000
# 5 0.000000 0.000000 0.000000 0.000000 0.041205 0.000000
# 6 0.000000 0.000000 0.000000 0.000000 0.000000 0.000620
#
#
# Mechanical properties :
#
#
# Convention : Reuss Voigt Hill
#
# Bulk Modulus (GPa) = 50.63400 55.65836 53.14618
# Shear Modulus (GPa) = 38.26584 349.01942 193.64263
#
# Velocity S-wave (km/s) = 4.42332 13.35880 9.95046
# Velocity P-wave (km/s) = 7.20954 16.32183 12.61704
#
# Compressibility (1/GPa) = 0.01974957
#
# Stress axis : x y z
#
# Youngs Moduli (GPa) = 76.49781 83.54406 120.15193
#
# Poissons Ratio (x) = 0.09340 0.39585
# Poissons Ratio (y) = 0.08552 0.28778
# Poissons Ratio (z) = 0.25203 0.20010
#
# Static dielectric constant tensor:
#      x y z
#    x 3.194460 0.000000 0.000000 
#    y 0.000000 3.974810 0.000000 
#    z 0.000000 0.000000 4.012210 
# 
# 
# High freq. dielectric constant tensor:
#      x y z
#    x 1.715410 0.000000 0.000000 
#    y 0.000000 1.776940 0.000000 
#    z 0.000000 0.000000 1.781200 
# 
# From -- ./inp_files/12329.got.cif
#   From: 2010.03.12/outbox.cif.g09.slc.cpg/sg74_7_cif.got.tgz:12329.got - 2010.04.16 15:46:19.
