data_PCOD8301507
_publ_section_title
;
Structure prediction by ZEFSAII (Michael W. Deem and Ramdas Pophale) SiO2 
 PCOD8301507
Probable space group: I M M A
;
_chemical_formula_sum "Si O2"
_cell_formula_units_Z 64
_cell_length_a 13.760440
_cell_length_b 11.995631
_cell_length_c 19.521553
_cell_angle_alpha 90.000000
_cell_angle_beta 90.000000
_cell_angle_gamma 90.000000
_cell_volume 3222.328282
_symmetry_space_group_name_H-M "I M M A"
_symmetry_group_IT_number 74
_symmetry_cell_setting 'orthorhombic'
loop_
_space_group_symop_operation_xyz
x,y,z
-x,1/2-y,z
x,-y,-z
-x,1/2+y,-z
-x,-y,-z
x,1/2+y,-z
-x,y,z
x,1/2-y,z
1/2+x,1/2+y,1/2+z
1/2-x,-y,1/2+z
1/2+x,1/2-y,1/2-z
1/2-x,y,1/2-z
1/2-x,1/2-y,1/2-z
1/2+x,y,1/2-z
1/2-x,1/2+y,1/2+z
1/2+x,-y,1/2+z
loop_
_atom_site_type_symbol
_atom_site_label
_atom_site_fract_x
_atom_site_fract_y
_atom_site_fract_z
Si Si1 0.210713 0.479457 0.923202
Si Si2 0.663104 0.250000 0.602548
Si Si3 0.000000 0.250000 0.010529
Si Si4 0.000000 0.001819 0.737463
Si Si5 0.317752 0.123072 0.184715
Si Si6 0.000000 0.040355 0.105836
Si Si7 0.000000 0.250000 0.784850
O O1 0.237779 0.355140 0.897692
O O2 0.255408 0.578150 0.878752
O O3 0.093597 0.470760 0.916891
O O4 0.245938 0.500000 0.000000
O O5 0.598107 0.250000 0.533460
O O6 0.597050 0.250000 0.670048
O O7 0.000000 0.152873 0.065267
O O8 0.000000 0.136816 0.739716
O O9 0.907631 0.959038 0.695327
O O10 0.000000 0.943931 0.812081
O O11 0.351564 0.250000 0.169247
O O12 0.250000 0.120509 0.250000
#
# Coordination Sequence:
#
# PCOD8301507 Si02
#       7
#    16   8   4   8  16   8   4
#     4  12  24  39  61  98 132 170 212 256 319 383
#     4  11  20  35  57  93 135 165 197 257 316 385
#     4  11  22  28  58  96 136 169 200 248 330 393
#     4  12  24  43  64  92 128 167 211 268 316 373
#     4  11  25  43  65  93 127 169 216 262 315 379
#     4  12  21  36  62  98 133 167 199 260 328 382
#     4  11  20  36  64  90 122 165 208 246 324 395
#
# _framework density 19.861415999999998
#
# number of rings (size 3 to 8) (size 9 to 14) (size 15 to 20)
#    0.000    0.500    7.500    1.500    5.250    1.000 
#    0.000    3.125    0.000    0.000    0.000    0.000 
#    0.000    0.000    0.000    0.000    0.000    0.000 
#
# Total GULP energy -396789.086710 kJ/mol
# GULP energy per Si atom -12399.658960 kJ/mol
# Density = 1.981621 g / cm^3
# Si number density = 19.861416 Si / 1000 Ang^3
#
#
#
# Elastic Constant Matrix: (Units=GPa)
#
#
# Indices 1 2 3 4 5 6 
#
# 1 60.7241 45.8572 25.4721 0.0000 0.0000 0.0000
# 2 45.8572 181.2543 49.1649 0.0000 0.0000 0.0000
# 3 25.4721 49.1649 100.8451 0.0000 0.0000 0.0000
# 4 0.0000 0.0000 0.0000 38.3078 0.0000 0.0000
# 5 0.0000 0.0000 0.0000 0.0000 11.6093 0.0000
# 6 0.0000 0.0000 0.0000 0.0000 0.0000 24.1031
#
#
#
# Elastic Compliance Matrix: (Units=1/GPa)
#
#
# Indices 1 2 3 4 5 6 
#
# 1 0.021195 -0.004506 -0.003157 0.000000 0.000000 0.000000
# 2 -0.004506 0.007316 -0.002429 0.000000 0.000000 0.000000
# 3 -0.003157 -0.002429 0.011898 0.000000 0.000000 0.000000
# 4 0.000000 0.000000 0.000000 0.026104 0.000000 0.000000
# 5 0.000000 0.000000 0.000000 0.000000 0.086138 0.000000
# 6 0.000000 0.000000 0.000000 0.000000 0.000000 0.041488
#
#
# Mechanical properties :
#
#
# Convention : Reuss Voigt Hill
#
# Bulk Modulus (GPa) = 49.44199 64.86800 57.15499
# Shear Modulus (GPa) = 22.61791 29.62598 26.12194
#
# Velocity S-wave (km/s) = 3.37825 3.86636 3.63052
# Velocity P-wave (km/s) = 6.33753 7.25692 6.81275
#
# Compressibility (1/GPa) = 0.02022572
#
# Stress axis : x y z
#
# Youngs Moduli (GPa) = 47.18103 136.68900 84.05111
#
# Poissons Ratio (x) = 0.61593 0.26533
# Poissons Ratio (y) = 0.21260 0.20412
# Poissons Ratio (z) = 0.14894 0.33195
#
# Static dielectric constant tensor:
#      x y z
#    x 4.036060 0.000000 0.000000 
#    y 0.000000 4.185440 0.000000 
#    z 0.000000 0.000000 3.512480 
# 
# 
# High freq. dielectric constant tensor:
#      x y z
#    x 1.734950 0.000000 0.000000 
#    y 0.000000 1.804910 0.000000 
#    z 0.000000 0.000000 1.765030 
# 
# From -- ./inp_files/42318.got.cif
#   From: 2010.03.12/outbox.cif.g09.slc.cpg/sg74_22_cif.got.tgz:42318.got - 2010.04.16 15:46:19.
