data_PCOD8301058
_publ_section_title
;
Structure prediction by ZEFSAII (Michael W. Deem and Ramdas Pophale) SiO2 
 PCOD8301058
Probable space group: I M M A
;
_chemical_formula_sum "Si O2"
_cell_formula_units_Z 80
_cell_length_a 25.526732
_cell_length_b 16.588109
_cell_length_c 8.860411
_cell_angle_alpha 90.000000
_cell_angle_beta 90.000000
_cell_angle_gamma 90.000000
_cell_volume 3751.854320
_symmetry_space_group_name_H-M "I M M A"
_symmetry_group_IT_number 74
_symmetry_cell_setting 'orthorhombic'
loop_
_space_group_symop_operation_xyz
x,y,z
-x,1/2-y,z
x,-y,-z
-x,1/2+y,-z
-x,-y,-z
x,1/2+y,-z
-x,y,z
x,1/2-y,z
1/2+x,1/2+y,1/2+z
1/2-x,-y,1/2+z
1/2+x,1/2-y,1/2-z
1/2-x,y,1/2-z
1/2-x,1/2-y,1/2-z
1/2+x,y,1/2-z
1/2-x,1/2+y,1/2+z
1/2+x,-y,1/2+z
loop_
_atom_site_type_symbol
_atom_site_label
_atom_site_fract_x
_atom_site_fract_y
_atom_site_fract_z
Si Si1 0.749300 0.344028 0.923797
Si Si2 0.853876 0.912534 0.558878
Si Si3 0.559974 0.589340 0.448747
Si Si4 0.941517 0.158666 0.631354
Si Si5 0.650943 0.658065 0.621889
O O1 0.737413 0.250000 0.941024
O O2 0.750000 0.370034 0.750000
O O3 0.703110 0.393185 0.998153
O O4 0.803234 0.367849 0.006243
O O5 0.899101 0.852967 0.499741
O O6 0.850318 0.903907 0.739002
O O7 0.870513 0.000000 0.500000
O O8 0.575956 0.500000 0.500000
O O9 0.500000 0.608813 0.490849
O O10 0.569514 0.598238 0.269901
O O11 0.596015 0.653143 0.535227
O O12 0.936886 0.250000 0.692056
O O13 0.000000 0.142881 0.565908
O O14 0.659599 0.750000 0.678222
#
# Coordination Sequence:
#
# PCOD8301058 Si02
#       5
#    16  16  16  16  16
#     4  10  22  41  64  88 117 156 201 248 301 364
#     4  12  25  39  59  88 122 159 198 250 309 359
#     4  10  21  38  61  90 123 157 196 247 305 363
#     4  10  21  39  62  85 115 159 205 246 295 361
#     4  11  23  39  62  90 122 160 203 252 301 359
#
# _framework density 21.322790999999999
#
# number of rings (size 3 to 8) (size 9 to 14) (size 15 to 20)
#    0.000    1.400    0.000    5.400    0.000    8.000 
#    0.000    0.000    0.000    0.000    0.000    0.000 
#    0.000    0.000    0.000    0.000    0.000    0.000 
#
# Total GULP energy -496162.616729 kJ/mol
# GULP energy per Si atom -12404.065418 kJ/mol
# Density = 2.127426 g / cm^3
# Si number density = 21.322791 Si / 1000 Ang^3
#
#
#
# Elastic Constant Matrix: (Units=GPa)
#
#
# Indices 1 2 3 4 5 6 
#
# 1 130.0275 37.9323 60.0731 0.0000 0.0000 0.0000
# 2 37.9323 59.8627 35.8697 0.0000 0.0000 0.0000
# 3 60.0731 35.8697 133.7642 0.0000 0.0000 0.0000
# 4 0.0000 0.0000 0.0000 -125.8258 0.0000 0.0000
# 5 0.0000 0.0000 0.0000 0.0000 33.8539 0.0000
# 6 0.0000 0.0000 0.0000 0.0000 0.0000 -3.0160
#
#
#
# Elastic Compliance Matrix: (Units=1/GPa)
#
#
# Indices 1 2 3 4 5 6 
#
# 1 0.010687 -0.004642 -0.003555 0.000000 0.000000 0.000000
# 2 -0.004642 0.021919 -0.003793 0.000000 0.000000 0.000000
# 3 -0.003555 -0.003793 0.010089 0.000000 0.000000 0.000000
# 4 0.000000 0.000000 0.000000 -0.007947 0.000000 0.000000
# 5 0.000000 0.000000 0.000000 0.000000 0.029539 0.000000
# 6 0.000000 0.000000 0.000000 0.000000 0.000000 -0.331570
#
#
# Mechanical properties :
#
#
# Convention : Reuss Voigt Hill
#
# Bulk Modulus (GPa) = 53.43005 65.71164 59.57085
# Shear Modulus (GPa) = -21.09124 -6.34562 -13.71843
#
# Velocity S-wave (km/s) = -3.14847 -1.72697 -2.53922
# Velocity P-wave (km/s) = 3.44890 5.18728 4.40470
#
# Compressibility (1/GPa) = 0.01871606
#
# Stress axis : x y z
#
# Youngs Moduli (GPa) = 93.56995 45.62234 99.11357
#
# Poissons Ratio (x) = 0.21178 0.35233
# Poissons Ratio (y) = 0.43435 0.37594
# Poissons Ratio (z) = 0.33262 0.17305
#
# Static dielectric constant tensor:
#      x y z
#    x 3.939180 0.000000 0.000000 
#    y 0.000000 3.717370 0.000000 
#    z 0.000000 0.000000 3.981460 
# 
# 
# High freq. dielectric constant tensor:
#      x y z
#    x 1.852940 0.000000 0.000000 
#    y 0.000000 1.830240 0.000000 
#    z 0.000000 0.000000 1.834780 
# 
# From -- ./inp_files/14946.got.cif
#   From: 2010.03.12/outbox.cif.g09.slc.cpg/sg74_8_cif.got.tgz:14946.got - 2010.04.16 15:46:19.
