data_PCOD8301909
_publ_section_title
;
Structure prediction by ZEFSAII (Michael W. Deem and Ramdas Pophale) SiO2 
 PCOD8301909
Probable space group: P 41
;
_chemical_formula_sum "Si O2"
_cell_formula_units_Z 24
_cell_length_a 12.221928
_cell_length_b 12.221928
_cell_length_c 7.085988
_cell_angle_alpha 90.000000
_cell_angle_beta 90.000000
_cell_angle_gamma 90.000000
_cell_volume 1058.473171
_symmetry_space_group_name_H-M "P 41"
_symmetry_group_IT_number 76
_symmetry_cell_setting 'tetragonal'
loop_
_space_group_symop_operation_xyz
x,y,z
-y,x,1/4+z
-x,-y,1/2+z
y,-x,3/4+z
loop_
_atom_site_type_symbol
_atom_site_label
_atom_site_fract_x
_atom_site_fract_y
_atom_site_fract_z
Si Si1 0.739306 0.637348 0.398430
Si Si2 0.707384 0.210393 0.735410
Si Si3 0.996430 0.586951 0.037482
Si Si4 0.610217 0.759870 0.681420
Si Si5 0.347444 0.980596 0.715109
Si Si6 0.073781 0.867204 0.404813
O O1 0.742039 0.651940 0.174014
O O2 0.646391 0.717307 0.476714
O O3 0.715879 0.512563 0.460808
O O4 0.852612 0.674479 0.495967
O O5 0.707853 0.308963 0.586878
O O6 0.828336 0.162251 0.764175
O O7 0.634158 0.106223 0.666079
O O8 0.000924 0.642420 0.240503
O O9 0.108519 0.611442 0.927561
O O10 0.978394 0.456826 0.069313
O O11 0.240625 0.048028 0.782949
O O12 0.966318 0.895584 0.287668
#
# Coordination Sequence:
#
# PCOD8301909 Si02
#       6
#     4   4   4   4   4   4
#     4  10  25  46  66 104 135 181 238 282 342 413
#     4  11  23  46  71 100 145 174 229 292 343 410
#     4  10  22  42  68 100 130 174 233 275 339 416
#     4  11  24  45  71 102 135 183 234 281 354 412
#     4  10  22  43  65  97 133 174 229 280 335 415
#     4  12  24  44  63  99 144 180 221 282 355 416
#
# _framework density 22.674168999999999
#
# number of rings (size 3 to 8) (size 9 to 14) (size 15 to 20)
#    0.000    1.333    5.000    0.000    4.667    8.000 
#    3.000    0.000    0.000    0.000    0.000    0.000 
#    0.000    0.000    0.000    0.000    0.000    0.000 
#
# Total GULP energy -297610.337030 kJ/mol
# GULP energy per Si atom -12400.430710 kJ/mol
# Density = 2.262256 g / cm^3
# Si number density = 22.674169 Si / 1000 Ang^3
#
#
#
# Elastic Constant Matrix: (Units=GPa)
#
#
# Indices 1 2 3 4 5 6 
#
# 1 140.6442 61.5089 35.9124 0.0000 0.0000 -10.9304
# 2 61.5089 140.6442 35.9124 0.0000 0.0000 10.9304
# 3 35.9124 35.9124 45.2944 0.0000 0.0000 0.0000
# 4 0.0000 0.0000 0.0000 34.7734 0.0000 0.0000
# 5 0.0000 0.0000 0.0000 0.0000 34.7734 0.0000
# 6 -10.9304 10.9304 0.0000 0.0000 0.0000 34.4377
#
#
#
# Elastic Compliance Matrix: (Units=1/GPa)
#
#
# Indices 1 2 3 4 5 6 
#
# 1 0.010369 -0.003482 -0.005460 0.000000 0.000000 0.004396
# 2 -0.003482 0.010369 -0.005460 0.000000 0.000000 -0.004396
# 3 -0.005460 -0.005460 0.030736 0.000000 0.000000 0.000000
# 4 0.000000 0.000000 0.000000 0.028758 0.000000 0.000000
# 5 0.000000 0.000000 0.000000 0.000000 0.028758 0.000000
# 6 0.004396 -0.004396 0.000000 0.000000 0.000000 0.031829
#
#
# Mechanical properties :
#
#
# Convention : Reuss Voigt Hill
#
# Bulk Modulus (GPa) = 44.11363 65.91670 55.01517
# Shear Modulus (GPa) = 28.21991 33.68017 30.95004
#
# Velocity S-wave (km/s) = 3.53169 3.85827 3.69859
# Velocity P-wave (km/s) = 6.01067 6.99876 6.52345
#
# Compressibility (1/GPa) = 0.02266873
#
# Stress axis : x y z
#
# Youngs Moduli (GPa) = 96.44216 96.44216 32.53474
#
# Poissons Ratio (x) = 0.33582 0.17765
# Poissons Ratio (y) = 0.33582 0.17765
# Poissons Ratio (z) = 0.52660 0.52660
#
# Static dielectric constant tensor:
#      x y z
#    x 4.349890 0.000000 0.000000 
#    y 0.000000 4.349890 0.000000 
#    z 0.000000 0.000000 3.786570 
# 
# 
# High freq. dielectric constant tensor:
#      x y z
#    x 1.903610 0.000000 0.000000 
#    y 0.000000 1.903610 0.000000 
#    z 0.000000 0.000000 1.877390 
# 
# From -- ./inp_files/536.got.cif
#   From: 2010.03.12/outbox.cif.g09.slc.cpg/sg76_cif.got.tgz:536.got - 2010.04.16 16:34:25.
