data_PCOD8301085
_publ_section_title
;
Structure prediction by ZEFSAII (Michael W. Deem and Ramdas Pophale) SiO2 
 PCOD8301085
Probable space group: I M M A
;
_chemical_formula_sum "Si O2"
_cell_formula_units_Z 112
_cell_length_a 22.326420
_cell_length_b 14.762008
_cell_length_c 14.708867
_cell_angle_alpha 90.000000
_cell_angle_beta 90.000000
_cell_angle_gamma 90.000000
_cell_volume 4847.789433
_symmetry_space_group_name_H-M "I M M A"
_symmetry_group_IT_number 74
_symmetry_cell_setting 'orthorhombic'
loop_
_space_group_symop_operation_xyz
x,y,z
-x,1/2-y,z
x,-y,-z
-x,1/2+y,-z
-x,-y,-z
x,1/2+y,-z
-x,y,z
x,1/2-y,z
1/2+x,1/2+y,1/2+z
1/2-x,-y,1/2+z
1/2+x,1/2-y,1/2-z
1/2-x,y,1/2-z
1/2-x,1/2-y,1/2-z
1/2+x,y,1/2-z
1/2-x,1/2+y,1/2+z
1/2+x,-y,1/2+z
loop_
_atom_site_type_symbol
_atom_site_label
_atom_site_fract_x
_atom_site_fract_y
_atom_site_fract_z
Si Si1 0.932733 0.644567 0.031802
Si Si2 0.670402 0.851394 0.143220
Si Si3 0.642498 0.351699 0.057724
Si Si4 0.065922 0.889642 0.714370
Si Si5 0.243538 0.982477 0.603869
Si Si6 0.932617 0.594270 0.230733
Si Si7 0.347129 0.648845 0.631697
O O1 0.927427 0.750000 0.055459
O O2 0.917023 0.589858 0.123613
O O3 0.000000 0.620418 0.998368
O O4 0.886751 0.615634 0.953718
O O5 0.698603 0.750000 0.140101
O O6 0.619451 0.849167 0.220172
O O7 0.725322 0.923548 0.155866
O O8 0.637415 0.877731 0.048407
O O9 0.666844 0.250000 0.066367
O O10 0.579430 0.364158 0.109213
O O11 0.687174 0.416990 0.110892
O O12 0.112007 0.839511 0.780057
O O13 0.000000 0.853078 0.737197
O O14 0.069673 0.996163 0.726552
O O15 0.297854 0.928755 0.652020
O O16 0.262276 0.000000 0.500000
O O17 0.000000 0.636309 0.243676
O O18 0.319916 0.750000 0.612315
#
# Coordination Sequence:
#
# PCOD8301085 Si02
#       7
#    16  16  16  16  16  16  16
#     4   9  19  37  62  93 128 165 210 265 320 378
#     4  10  21  41  68  96 129 168 211 265 326 380
#     4  10  21  40  65  92 128 170 212 259 315 377
#     4  11  24  40  63  96 134 171 210 261 319 382
#     4  10  22  41  65  92 126 165 213 266 314 371
#     4  10  21  38  64  97 132 171 215 262 319 386
#     4  11  24  41  65  94 128 172 216 260 317 379
#
# _framework density 23.103314000000001
#
# number of rings (size 3 to 8) (size 9 to 14) (size 15 to 20)
#    0.000    1.857    1.429    1.714    2.000    4.286 
#    0.000    6.429    0.000    0.857    0.000    0.000 
#    0.000    1.714    0.000    0.000    0.000    0.000 
#
# Total GULP energy -694273.496638 kJ/mol
# GULP energy per Si atom -12397.741011 kJ/mol
# Density = 2.305073 g / cm^3
# Si number density = 23.103314 Si / 1000 Ang^3
#
#
#
# Elastic Constant Matrix: (Units=GPa)
#
#
# Indices 1 2 3 4 5 6 
#
# 1 118.7005 51.8883 44.7472 0.0000 0.0000 0.0000
# 2 51.8883 121.6524 21.6173 0.0000 0.0000 0.0000
# 3 44.7472 21.6173 84.5557 0.0000 0.0000 0.0000
# 4 0.0000 0.0000 0.0000 28.5002 0.0000 0.0000
# 5 0.0000 0.0000 0.0000 0.0000 31.6912 0.0000
# 6 0.0000 0.0000 0.0000 0.0000 0.0000 20.1938
#
#
#
# Elastic Compliance Matrix: (Units=1/GPa)
#
#
# Indices 1 2 3 4 5 6 
#
# 1 0.012356 -0.004304 -0.005439 0.000000 0.000000 0.000000
# 2 -0.004304 0.010110 -0.000307 0.000000 0.000000 0.000000
# 3 -0.005439 -0.000307 0.014783 0.000000 0.000000 0.000000
# 4 0.000000 0.000000 0.000000 0.035087 0.000000 0.000000
# 5 0.000000 0.000000 0.000000 0.000000 0.031554 0.000000
# 6 0.000000 0.000000 0.000000 0.000000 0.000000 0.049520
#
#
# Mechanical properties :
#
#
# Convention : Reuss Voigt Hill
#
# Bulk Modulus (GPa) = 58.30741 62.37937 60.34339
# Shear Modulus (GPa) = 27.89744 29.85411 28.87577
#
# Velocity S-wave (km/s) = 3.47869 3.59862 3.53916
# Velocity P-wave (km/s) = 6.43642 6.65774 6.54802
#
# Compressibility (1/GPa) = 0.01715048
#
# Stress axis : x y z
#
# Youngs Moduli (GPa) = 80.93136 98.90767 67.64438
#
# Poissons Ratio (x) = 0.42568 0.36789
# Poissons Ratio (y) = 0.34831 0.02078
# Poissons Ratio (z) = 0.44015 0.03039
#
# Static dielectric constant tensor:
#      x y z
#    x 4.109280 0.000000 0.000000 
#    y 0.000000 4.246940 0.000000 
#    z 0.000000 0.000000 4.022790 
# 
# 
# High freq. dielectric constant tensor:
#      x y z
#    x 1.895060 0.000000 0.000000 
#    y 0.000000 1.925110 0.000000 
#    z 0.000000 0.000000 1.908170 
# 
# From -- ./inp_files/36548.got.cif
#   From: 2010.03.12/outbox.cif.g09.slc.cpg/sg74_19_cif.got.tgz:36548.got - 2010.04.16 15:46:19.
