data_PCOD8301275
_publ_section_title
;
Structure prediction by ZEFSAII (Michael W. Deem and Ramdas Pophale) SiO2 
 PCOD8301275
Probable space group: I M M A
;
_chemical_formula_sum "Si O2"
_cell_formula_units_Z 64
_cell_length_a 15.410006
_cell_length_b 15.765777
_cell_length_c 11.659095
_cell_angle_alpha 90.000000
_cell_angle_beta 90.000000
_cell_angle_gamma 90.000000
_cell_volume 2832.585503
_symmetry_space_group_name_H-M "I M M A"
_symmetry_group_IT_number 74
_symmetry_cell_setting 'orthorhombic'
loop_
_space_group_symop_operation_xyz
x,y,z
-x,1/2-y,z
x,-y,-z
-x,1/2+y,-z
-x,-y,-z
x,1/2+y,-z
-x,y,z
x,1/2-y,z
1/2+x,1/2+y,1/2+z
1/2-x,-y,1/2+z
1/2+x,1/2-y,1/2-z
1/2-x,y,1/2-z
1/2-x,1/2-y,1/2-z
1/2+x,y,1/2-z
1/2-x,1/2+y,1/2+z
1/2+x,-y,1/2+z
loop_
_atom_site_type_symbol
_atom_site_label
_atom_site_fract_x
_atom_site_fract_y
_atom_site_fract_z
Si Si1 0.500000 0.345524 0.659661
Si Si2 0.661355 0.346273 0.784270
Si Si3 0.648918 0.150766 0.258877
Si Si4 0.500000 0.586772 0.575979
Si Si5 0.400786 0.905084 0.988466
O O1 0.500000 0.250000 0.708159
O O2 0.583816 0.392974 0.714387
O O3 0.500000 0.341889 0.522318
O O4 0.666857 0.250000 0.739989
O O5 0.750000 0.394192 0.750000
O O6 0.650646 0.347811 0.920941
O O7 0.643458 0.250000 0.291685
O O8 0.750000 0.120874 0.250000
O O9 0.588670 0.098056 0.349077
O O10 0.608057 0.135550 0.135330
O O11 0.500000 0.500000 0.500000
O O12 0.500000 0.904589 0.026961
O O13 0.363068 0.000000 0.000000
#
# Coordination Sequence:
#
# PCOD8301275 Si02
#       5
#     8  16  16   8  16
#     4  10  22  41  63  89 130 174 220 282 347 421
#     4  10  22  39  64  95 129 171 221 276 341 413
#     4  11  26  47  72 102 140 192 247 296 360 443
#     4  12  28  45  71 100 143 188 234 303 369 433
#     4  11  24  41  68  97 136 176 228 288 345 418
#
# _framework density 22.594199
#
# number of rings (size 3 to 8) (size 9 to 14) (size 15 to 20)
#    0.000    1.250    2.500    1.875    7.000    3.000 
#    0.000    0.000    0.000    0.000    0.000    0.000 
#    0.000    0.000    0.000    0.000    0.000    0.000 
#
# Total GULP energy -396576.881247 kJ/mol
# GULP energy per Si atom -12393.027539 kJ/mol
# Density = 2.254277 g / cm^3
# Si number density = 22.594199 Si / 1000 Ang^3
#
#
#
# Elastic Constant Matrix: (Units=GPa)
#
#
# Indices 1 2 3 4 5 6 
#
# 1 199.2592 37.6811 82.1908 0.0000 0.0000 0.0000
# 2 37.6811 60.2419 13.4860 0.0000 0.0000 0.0000
# 3 82.1908 13.4860 171.2064 0.0000 0.0000 0.0000
# 4 0.0000 0.0000 0.0000 34.3630 0.0000 0.0000
# 5 0.0000 0.0000 0.0000 0.0000 32.7215 0.0000
# 6 0.0000 0.0000 0.0000 0.0000 0.0000 16.5140
#
#
#
# Elastic Compliance Matrix: (Units=1/GPa)
#
#
# Indices 1 2 3 4 5 6 
#
# 1 0.006976 -0.003679 -0.003059 0.000000 0.000000 0.000000
# 2 -0.003679 0.018838 0.000282 0.000000 0.000000 0.000000
# 3 -0.003059 0.000282 0.007287 0.000000 0.000000 0.000000
# 4 0.000000 0.000000 0.000000 0.029101 0.000000 0.000000
# 5 0.000000 0.000000 0.000000 0.000000 0.030561 0.000000
# 6 0.000000 0.000000 0.000000 0.000000 0.000000 0.060555
#
#
# Mechanical properties :
#
#
# Convention : Reuss Voigt Hill
#
# Bulk Modulus (GPa) = 49.53068 77.49149 63.51109
# Shear Modulus (GPa) = 28.90860 36.54301 32.72581
#
# Velocity S-wave (km/s) = 3.58085 4.02601 3.80994
# Velocity P-wave (km/s) = 6.25029 7.48219 6.89381
#
# Compressibility (1/GPa) = 0.02018951
#
# Stress axis : x y z
#
# Youngs Moduli (GPa) = 143.34580 53.08540 137.22456
#
# Poissons Ratio (x) = 0.19528 0.41980
# Poissons Ratio (y) = 0.52732 -0.03872
# Poissons Ratio (z) = 0.43853 -0.01498
#
# Static dielectric constant tensor:
#      x y z
#    x 4.764350 0.000000 0.000000 
#    y 0.000000 3.855880 0.000000 
#    z 0.000000 0.000000 3.989310 
# 
# 
# High freq. dielectric constant tensor:
#      x y z
#    x 1.905520 0.000000 0.000000 
#    y 0.000000 1.872470 0.000000 
#    z 0.000000 0.000000 1.897070 
# 
# From -- ./inp_files/19952.got.cif
#   From: 2010.03.12/outbox.cif.g09.slc.cpg/sg74_10_cif.got.tgz:19952.got - 2010.04.16 15:46:19.
