data_PCOD8301844
_publ_section_title
;
Structure prediction by ZEFSAII (Michael W. Deem and Ramdas Pophale) SiO2 
 PCOD8301844
Probable space group: P 4
;
_chemical_formula_sum "Si O2"
_cell_formula_units_Z 26
_cell_length_a 8.281553
_cell_length_b 8.281553
_cell_length_c 16.934308
_cell_angle_alpha 90.000000
_cell_angle_beta 90.000000
_cell_angle_gamma 90.000000
_cell_volume 1161.424614
_symmetry_space_group_name_H-M "P 4"
_symmetry_group_IT_number 75
_symmetry_cell_setting 'tetragonal'
loop_
_space_group_symop_operation_xyz
x,y,z
-y,x,z
-x,-y,z
y,-x,z
loop_
_atom_site_type_symbol
_atom_site_label
_atom_site_fract_x
_atom_site_fract_y
_atom_site_fract_z
Si Si1 0.567168 0.245172 0.745150
Si Si2 0.257141 0.930373 0.441335
Si Si3 0.757141 0.569626 0.923836
Si Si4 0.500000 0.000000 0.182585
Si Si5 0.463833 0.762250 0.321243
Si Si6 0.737750 0.036166 0.043927
Si Si7 0.745172 0.067169 0.620021
O O1 0.693526 0.388122 0.730437
O O2 0.587914 0.179918 0.834196
O O3 0.603734 0.103735 0.682585
O O4 0.411431 0.898219 0.384937
O O5 0.320082 0.912084 0.530975
O O6 0.110939 0.805675 0.424991
O O7 0.610940 0.694325 0.940180
O O8 0.911432 0.601780 0.980234
O O9 0.484100 0.839798 0.235098
O O10 0.339798 0.984101 0.130072
O O11 0.321147 0.634318 0.333634
O O12 0.865682 0.178853 0.031536
O O13 0.888123 0.193527 0.634734
#
# Coordination Sequence:
#
# PCOD8301844 Si02
#       7
#     4   4   4   2   4   4   4
#     4   9  19  35  55  83 121 165 212 257 302 355
#     4   9  19  38  62  87 121 167 211 254 313 378
#     4   9  19  38  62  87 121 167 211 254 313 378
#     4  12  24  44  64  84 118 156 188 236 308 388
#     4  11  24  40  61  90 119 151 197 252 307 370
#     4  11  24  40  61  90 119 151 197 252 307 370
#     4   9  19  35  55  83 121 165 212 257 302 355
#
# _framework density 22.386299999999999
#
# number of rings (size 3 to 8) (size 9 to 14) (size 15 to 20)
#    0.000    2.154    0.000    4.615    0.000    3.077 
#    0.000   12.308    0.000    0.000    0.000    0.000 
#    0.000    0.000    0.000    0.000    0.000    0.000 
#
# Total GULP energy -322215.760151 kJ/mol
# GULP energy per Si atom -12392.913852 kJ/mol
# Density = 2.233535 g / cm^3
# Si number density = 22.386300 Si / 1000 Ang^3
#
#
#
# Elastic Constant Matrix: (Units=GPa)
#
#
# Indices 1 2 3 4 5 6 
#
# 1 62.9592 54.3470 52.1278 0.0000 0.0000 -0.0020
# 2 54.3470 62.9592 52.1278 0.0000 0.0000 0.0020
# 3 52.1278 52.1278 150.5955 0.0000 0.0000 0.0000
# 4 0.0000 0.0000 0.0000 30.1573 0.0000 0.0000
# 5 0.0000 0.0000 0.0000 0.0000 30.1573 0.0000
# 6 -0.0020 0.0020 0.0000 0.0000 0.0000 50.6063
#
#
#
# Elastic Compliance Matrix: (Units=1/GPa)
#
#
# Indices 1 2 3 4 5 6 
#
# 1 0.064213 -0.051901 -0.004262 0.000000 0.000000 0.000005
# 2 -0.051901 0.064213 -0.004262 0.000000 0.000000 -0.000005
# 3 -0.004262 -0.004262 0.009591 0.000000 0.000000 0.000000
# 4 0.000000 0.000000 0.000000 0.033159 0.000000 0.000000
# 5 0.000000 0.000000 0.000000 0.000000 0.033159 0.000000
# 6 0.000005 -0.000005 0.000000 0.000000 0.000000 0.019760
#
#
# Mechanical properties :
#
#
# Convention : Reuss Voigt Hill
#
# Bulk Modulus (GPa) = 58.24757 65.96881 62.10819
# Shear Modulus (GPa) = 14.25849 30.04496 22.15172
#
# Velocity S-wave (km/s) = 2.52648 3.66746 3.14908
# Velocity P-wave (km/s) = 5.88104 6.88956 6.40518
#
# Compressibility (1/GPa) = 0.01716810
#
# Stress axis : x y z
#
# Youngs Moduli (GPa) = 15.57312 15.57312 104.26706
#
# Poissons Ratio (x) = 0.80826 0.44437
# Poissons Ratio (y) = 0.80826 0.44437
# Poissons Ratio (z) = 0.06637 0.06637
#
# Static dielectric constant tensor:
#      x y z
#    x 3.960640 0.000000 0.000000 
#    y 0.000000 3.960640 0.000000 
#    z 0.000000 0.000000 3.910090 
# 
# 
# High freq. dielectric constant tensor:
#      x y z
#    x 1.892260 0.000000 0.000000 
#    y 0.000000 1.892260 0.000000 
#    z 0.000000 0.000000 1.876140 
# 
# From -- ./inp_files/731.got.cif
#   From: 2010.03.12/outbox.cif.g09.slc.cpg/sg75_cif.got.tgz:731.got - 2010.04.16 16:33:55.
