data_PCOD8301942
_publ_section_title
;
Structure prediction by ZEFSAII (Michael W. Deem and Ramdas Pophale) SiO2 
 PCOD8301942
Probable space group: P 41
;
_chemical_formula_sum "Si O2"
_cell_formula_units_Z 24
_cell_length_a 10.890665
_cell_length_b 10.890665
_cell_length_c 9.037405
_cell_angle_alpha 90.000000
_cell_angle_beta 90.000000
_cell_angle_gamma 90.000000
_cell_volume 1071.895737
_symmetry_space_group_name_H-M "P 41"
_symmetry_group_IT_number 76
_symmetry_cell_setting 'tetragonal'
loop_
_space_group_symop_operation_xyz
x,y,z
-y,x,1/4+z
-x,-y,1/2+z
y,-x,3/4+z
loop_
_atom_site_type_symbol
_atom_site_label
_atom_site_fract_x
_atom_site_fract_y
_atom_site_fract_z
Si Si1 0.495225 0.049456 0.140940
Si Si2 0.898672 0.914247 0.933128
Si Si3 0.737041 0.966185 0.461804
Si Si4 0.368131 0.465674 0.120406
Si Si5 0.866157 0.389148 0.694254
Si Si6 0.816795 0.708284 0.484592
O O1 0.444912 0.053197 0.308914
O O2 0.601293 0.153339 0.116454
O O3 0.390207 0.082002 0.026291
O O4 0.555161 0.917984 0.098286
O O5 0.757481 0.875348 0.944369
O O6 0.972753 0.811066 0.844941
O O7 0.920475 0.043368 0.847644
O O8 0.798963 0.839153 0.405431
O O9 0.719623 0.059657 0.330635
O O10 0.477406 0.434672 0.229762
O O11 0.274673 0.567947 0.184562
O O12 0.297279 0.337714 0.084251
#
# Coordination Sequence:
#
# PCOD8301942 Si02
#       6
#     4   4   4   4   4   4
#     4  11  22  44  68  99 137 191 226 283 351 420
#     4  12  26  42  70 107 144 184 232 297 360 425
#     4  12  21  43  70  97 142 187 226 285 362 415
#     4  11  24  49  73 101 138 187 239 292 340 413
#     4  11  25  44  71 101 144 185 237 284 353 419
#     4  11  24  42  72 101 141 182 230 287 352 428
#
# _framework density 22.390236000000002
#
# number of rings (size 3 to 8) (size 9 to 14) (size 15 to 20)
#    0.000    0.667    6.667    3.000    2.333    0.000 
#    3.000    3.333    0.000    0.000    0.000    0.000 
#    0.000    0.000    0.000    0.000    0.000    0.000 
#
# Total GULP energy -297514.205890 kJ/mol
# GULP energy per Si atom -12396.425245 kJ/mol
# Density = 2.233928 g / cm^3
# Si number density = 22.390236 Si / 1000 Ang^3
#
#
#
# Elastic Constant Matrix: (Units=GPa)
#
#
# Indices 1 2 3 4 5 6 
#
# 1 152.1448 51.6889 37.1103 0.0000 0.0000 11.9587
# 2 51.6889 152.1448 37.1103 0.0000 0.0000 -11.9587
# 3 37.1103 37.1103 42.7081 0.0000 0.0000 0.0000
# 4 0.0000 0.0000 0.0000 28.4439 0.0000 0.0000
# 5 0.0000 0.0000 0.0000 0.0000 28.4439 0.0000
# 6 11.9587 -11.9587 0.0000 0.0000 0.0000 32.5835
#
#
#
# Elastic Compliance Matrix: (Units=1/GPa)
#
#
# Indices 1 2 3 4 5 6 
#
# 1 0.009042 -0.001866 -0.006236 0.000000 0.000000 -0.004003
# 2 -0.001866 0.009042 -0.006236 0.000000 0.000000 0.004003
# 3 -0.006236 -0.006236 0.034252 0.000000 0.000000 0.000000
# 4 0.000000 0.000000 0.000000 0.035157 0.000000 0.000000
# 5 0.000000 0.000000 0.000000 0.000000 0.035157 0.000000
# 6 -0.004003 0.004003 0.000000 0.000000 0.000000 0.033629
#
#
# Mechanical properties :
#
#
# Convention : Reuss Voigt Hill
#
# Bulk Modulus (GPa) = 42.26299 66.53520 54.39910
# Shear Modulus (GPa) = 25.92804 32.63347 29.28075
#
# Velocity S-wave (km/s) = 3.40664 3.82185 3.62020
# Velocity P-wave (km/s) = 5.86432 7.01826 6.46708
#
# Compressibility (1/GPa) = 0.02366136
#
# Stress axis : x y z
#
# Youngs Moduli (GPa) = 110.59263 110.59263 29.19533
#
# Poissons Ratio (x) = 0.20632 0.18206
# Poissons Ratio (y) = 0.20632 0.18206
# Poissons Ratio (z) = 0.68965 0.68965
#
# Static dielectric constant tensor:
#      x y z
#    x 4.410710 0.000000 0.000000 
#    y 0.000000 4.410710 0.000000 
#    z 0.000000 0.000000 3.889960 
# 
# 
# High freq. dielectric constant tensor:
#      x y z
#    x 1.895900 0.000000 0.000000 
#    y 0.000000 1.895900 0.000000 
#    z 0.000000 0.000000 1.858050 
# 
# From -- ./inp_files/524.got.cif
#   From: 2010.03.12/outbox.cif.g09.slc.cpg/sg76_cif.got.tgz:524.got - 2010.04.16 16:34:25.
