data_PCOD8301433
_publ_section_title
;
Structure prediction by ZEFSAII (Michael W. Deem and Ramdas Pophale) SiO2 
 PCOD8301433
Probable space group: I M M A
;
_chemical_formula_sum "Si O2"
_cell_formula_units_Z 112
_cell_length_a 15.655504
_cell_length_b 22.979467
_cell_length_c 14.196437
_cell_angle_alpha 90.000000
_cell_angle_beta 90.000000
_cell_angle_gamma 90.000000
_cell_volume 5107.241145
_symmetry_space_group_name_H-M "I M M A"
_symmetry_group_IT_number 74
_symmetry_cell_setting 'orthorhombic'
loop_
_space_group_symop_operation_xyz
x,y,z
-x,1/2-y,z
x,-y,-z
-x,1/2+y,-z
-x,-y,-z
x,1/2+y,-z
-x,y,z
x,1/2-y,z
1/2+x,1/2+y,1/2+z
1/2-x,-y,1/2+z
1/2+x,1/2-y,1/2-z
1/2-x,y,1/2-z
1/2-x,1/2-y,1/2-z
1/2+x,y,1/2-z
1/2-x,1/2+y,1/2+z
1/2+x,-y,1/2+z
loop_
_atom_site_type_symbol
_atom_site_label
_atom_site_fract_x
_atom_site_fract_y
_atom_site_fract_z
Si Si1 0.905687 0.147076 0.151579
Si Si2 0.093242 0.922843 0.252615
Si Si3 0.631168 0.018071 0.394700
Si Si4 0.247902 0.683796 0.530245
Si Si5 0.328285 0.504870 0.891113
Si Si6 0.597207 0.123418 0.138045
Si Si7 0.681679 0.314426 0.669515
O O1 0.830460 0.179668 0.097203
O O2 0.888171 0.155560 0.262767
O O3 0.000000 0.173298 0.127022
O O4 0.910626 0.079677 0.125320
O O5 0.090001 0.969845 0.170525
O O6 0.156675 0.943762 0.336202
O O7 0.113962 0.860814 0.206368
O O8 0.000000 0.917059 0.298489
O O9 0.731585 0.023797 0.375627
O O10 0.610442 0.000000 0.500000
O O11 0.216441 0.750000 0.526782
O O12 0.167085 0.645799 0.563128
O O13 0.274938 0.661800 0.426561
O O14 0.388523 0.554433 0.846099
O O15 0.352336 0.500000 0.000000
O O16 0.500000 0.134218 0.101920
O O17 0.640323 0.250000 0.651090
O O18 0.750000 0.307392 0.750000
#
# Coordination Sequence:
#
# PCOD8301433 Si02
#       7
#    16  16  16  16  16  16  16
#     4  11  23  40  64  98 136 172 219 278 339 408
#     4  12  25  39  63 100 134 171 216 269 337 404
#     4  11  22  37  61  91 127 174 220 266 328 396
#     4  11  25  45  70  97 128 178 231 276 338 404
#     4  11  24  41  65  95 132 175 220 270 329 397
#     4  11  24  42  65  97 137 174 218 281 341 400
#     4  10  24  47  70  93 127 173 230 283 327 393
#
# _framework density 21.929646999999999
#
# number of rings (size 3 to 8) (size 9 to 14) (size 15 to 20)
#    0.000    1.000    2.857    3.429    4.000    6.000 
#    0.000    2.857    0.000    2.571    0.000    0.000 
#    0.000    0.000    0.000    0.000    0.000    0.000 
#
# Total GULP energy -694442.479242 kJ/mol
# GULP energy per Si atom -12400.758558 kJ/mol
# Density = 2.187973 g / cm^3
# Si number density = 21.929647 Si / 1000 Ang^3
#
#
#
# Elastic Constant Matrix: (Units=GPa)
#
#
# Indices 1 2 3 4 5 6 
#
# 1 118.3921 17.1642 51.3592 0.0000 0.0000 0.0000
# 2 17.1642 80.8398 19.3365 -0.0001 0.0000 0.0000
# 3 51.3592 19.3365 111.8571 -0.0003 0.0001 -0.0003
# 4 0.0000 -0.0001 -0.0003 31.7003 0.0000 -0.0002
# 5 0.0000 0.0000 0.0001 0.0000 19.0615 -0.0001
# 6 0.0000 0.0000 -0.0003 -0.0002 -0.0001 -4.7729
#
#
#
# Elastic Compliance Matrix: (Units=1/GPa)
#
#
# Indices 1 2 3 4 5 6 
#
# 1 0.010647 -0.001138 -0.004692 0.000000 0.000000 0.000000
# 2 -0.001138 0.013025 -0.001729 0.000000 0.000000 0.000000
# 3 -0.004692 -0.001729 0.011393 0.000000 0.000000 -0.000001
# 4 0.000000 0.000000 0.000000 0.031545 0.000000 -0.000001
# 5 0.000000 0.000000 0.000000 0.000000 0.052462 -0.000001
# 6 0.000000 0.000000 -0.000001 -0.000001 -0.000001 -0.209518
#
#
# Mechanical properties :
#
#
# Convention : Reuss Voigt Hill
#
# Bulk Modulus (GPa) = 50.13235 54.08986 52.11111
# Shear Modulus (GPa) = -72.80335 24.07973 -24.36181
#
# Velocity S-wave (km/s) = -5.76807 3.31727 -3.33664
# Velocity P-wave (km/s) = 4.63149 6.27623 2.99503
#
# Compressibility (1/GPa) = 0.01994720
#
# Stress axis : x y z
#
# Youngs Moduli (GPa) = 93.92458 76.77301 87.77272
#
# Poissons Ratio (x) = 0.08739 0.41180
# Poissons Ratio (y) = 0.10692 0.15176
# Poissons Ratio (z) = 0.44067 0.13274
#
# Static dielectric constant tensor:
#      x y z
#    x 3.977860 0.000000 0.000000 
#    y 0.000000 4.374350 0.000000 
#    z 0.000000 0.000000 4.046840 
# 
# 
# High freq. dielectric constant tensor:
#      x y z
#    x 1.860980 0.000000 0.000000 
#    y 0.000000 1.858670 0.000000 
#    z 0.000000 0.000000 1.871510 
# 
# From -- ./inp_files/32749.got.cif
#   From: 2010.03.12/outbox.cif.g09.slc.cpg/sg74_17_cif.got.tgz:32749.got - 2010.04.16 15:46:19.
