data_PCOD8301862
_publ_section_title
;
Structure prediction by ZEFSAII (Michael W. Deem and Ramdas Pophale) SiO2 
 PCOD8301862
Probable space group: P 41
;
_chemical_formula_sum "Si O2"
_cell_formula_units_Z 24
_cell_length_a 11.153817
_cell_length_b 11.153817
_cell_length_c 9.324559
_cell_angle_alpha 90.000000
_cell_angle_beta 90.000000
_cell_angle_gamma 90.000000
_cell_volume 1160.046320
_symmetry_space_group_name_H-M "P 41"
_symmetry_group_IT_number 76
_symmetry_cell_setting 'tetragonal'
loop_
_space_group_symop_operation_xyz
x,y,z
-y,x,1/4+z
-x,-y,1/2+z
y,-x,3/4+z
loop_
_atom_site_type_symbol
_atom_site_label
_atom_site_fract_x
_atom_site_fract_y
_atom_site_fract_z
Si Si1 0.694334 0.928344 0.474270
Si Si2 0.572498 0.604567 0.597509
Si Si3 0.186573 0.603904 0.431836
Si Si4 0.590503 0.251993 0.877523
Si Si5 0.060702 0.439498 0.827022
Si Si6 0.715433 0.170452 0.331486
O O1 0.665288 0.866103 0.322900
O O2 0.582826 0.916252 0.583867
O O3 0.807720 0.853289 0.533020
O O4 0.724031 0.069672 0.455640
O O5 0.516497 0.578200 0.753039
O O6 0.485998 0.694103 0.510210
O O7 0.703130 0.659391 0.630057
O O8 0.283612 0.684590 0.351260
O O9 0.253965 0.481305 0.478459
O O10 0.081964 0.580658 0.318049
O O11 0.613108 0.114520 0.928199
O O12 0.119738 0.371907 0.959669
#
# Coordination Sequence:
#
# PCOD8301862 Si02
#       6
#     4   4   4   4   4   4
#     4  10  20  35  61  82 110 156 193 248 301 363
#     4  12  21  36  60  91 124 156 198 254 312 375
#     4  10  20  32  60  84 115 154 189 244 294 366
#     4  11  17  36  58  84 115 156 197 239 302 367
#     4  10  19  36  58  85 111 150 203 240 298 361
#     4  11  19  37  61  82 115 158 206 239 305 374
#
# _framework density 20.688829999999999
#
# number of rings (size 3 to 8) (size 9 to 14) (size 15 to 20)
#    0.000    1.333    8.333    0.000    0.000    1.333 
#    0.000    0.000   14.667    0.000    0.000    0.000 
#    0.000    0.000    0.000    0.000    0.000    0.000 
#
# Total GULP energy -297454.756141 kJ/mol
# GULP energy per Si atom -12393.948173 kJ/mol
# Density = 2.064174 g / cm^3
# Si number density = 20.688830 Si / 1000 Ang^3
#
#
#
# Elastic Constant Matrix: (Units=GPa)
#
#
# Indices 1 2 3 4 5 6 
#
# 1 137.4405 67.8272 34.3179 0.0000 0.0000 9.4089
# 2 67.8272 137.4405 34.3179 0.0000 0.0000 -9.4089
# 3 34.3179 34.3179 32.2634 0.0000 0.0000 0.0000
# 4 0.0000 0.0000 0.0000 20.0443 0.0000 0.0000
# 5 0.0000 0.0000 0.0000 0.0000 20.0443 0.0000
# 6 9.4089 -9.4089 0.0000 0.0000 0.0000 34.1113
#
#
#
# Elastic Compliance Matrix: (Units=1/GPa)
#
#
# Indices 1 2 3 4 5 6 
#
# 1 0.011542 -0.003981 -0.008042 0.000000 0.000000 -0.004282
# 2 -0.003981 0.011542 -0.008042 0.000000 0.000000 0.004282
# 3 -0.008042 -0.008042 0.048104 0.000000 0.000000 0.000000
# 4 0.000000 0.000000 0.000000 0.049890 0.000000 0.000000
# 5 0.000000 0.000000 0.000000 0.000000 0.049890 0.000000
# 6 -0.004282 0.004282 0.000000 0.000000 0.000000 0.031678
#
#
# Mechanical properties :
#
#
# Convention : Reuss Voigt Hill
#
# Bulk Modulus (GPa) = 32.19975 64.45228 48.32601
# Shear Modulus (GPa) = 19.75297 26.21872 22.98585
#
# Velocity S-wave (km/s) = 3.09328 3.56376 3.33682
# Velocity P-wave (km/s) = 5.32498 6.93936 6.18507
#
# Compressibility (1/GPa) = 0.03105614
#
# Stress axis : x y z
#
# Youngs Moduli (GPa) = 86.64287 86.64287 20.78848
#
# Poissons Ratio (x) = 0.34491 0.16719
# Poissons Ratio (y) = 0.34491 0.16719
# Poissons Ratio (z) = 0.69680 0.69680
#
# Static dielectric constant tensor:
#      x y z
#    x 4.045040 0.000000 0.000000 
#    y 0.000000 4.045040 0.000000 
#    z 0.000000 0.000000 3.385090 
# 
# 
# High freq. dielectric constant tensor:
#      x y z
#    x 1.812640 0.000000 0.000000 
#    y 0.000000 1.812640 0.000000 
#    z 0.000000 0.000000 1.770120 
# 
# From -- ./inp_files/561.got.cif
#   From: 2010.03.12/outbox.cif.g09.slc.cpg/sg76_cif.got.tgz:561.got - 2010.04.16 16:34:25.
