data_PCOD8301432
_publ_section_title
;
Structure prediction by ZEFSAII (Michael W. Deem and Ramdas Pophale) SiO2 
 PCOD8301432
Probable space group: I M M A
;
_chemical_formula_sum "Si O2"
_cell_formula_units_Z 88
_cell_length_a 11.481181
_cell_length_b 16.624691
_cell_length_c 22.605935
_cell_angle_alpha 90.000000
_cell_angle_beta 90.000000
_cell_angle_gamma 90.000000
_cell_volume 4314.819373
_symmetry_space_group_name_H-M "I M M A"
_symmetry_group_IT_number 74
_symmetry_cell_setting 'orthorhombic'
loop_
_space_group_symop_operation_xyz
x,y,z
-x,1/2-y,z
x,-y,-z
-x,1/2+y,-z
-x,-y,-z
x,1/2+y,-z
-x,y,z
x,1/2-y,z
1/2+x,1/2+y,1/2+z
1/2-x,-y,1/2+z
1/2+x,1/2-y,1/2-z
1/2-x,y,1/2-z
1/2-x,1/2-y,1/2-z
1/2+x,y,1/2-z
1/2-x,1/2+y,1/2+z
1/2+x,-y,1/2+z
loop_
_atom_site_type_symbol
_atom_site_label
_atom_site_fract_x
_atom_site_fract_y
_atom_site_fract_z
Si Si1 0.365103 0.750000 0.209146
Si Si2 0.636539 0.840874 0.604986
Si Si3 0.000000 0.837856 0.688436
Si Si4 0.791505 0.551634 0.687897
Si Si5 0.368173 0.604986 0.121030
Si Si6 0.000000 0.160236 0.450343
Si Si7 0.268267 0.406788 0.000528
O O1 0.500000 0.750000 0.237001
O O2 0.250000 0.750000 0.250000
O O3 0.350155 0.670904 0.170610
O O4 0.500000 0.849143 0.612255
O O5 0.678953 0.750000 0.619255
O O6 0.692483 0.903765 0.650276
O O7 0.668719 0.859811 0.536519
O O8 0.886392 0.884454 0.709361
O O9 0.000000 0.827979 0.618807
O O10 0.000000 0.750000 0.719046
O O11 0.750000 0.513139 0.750000
O O12 0.845627 0.482461 0.647684
O O13 0.500000 0.607375 0.095882
O O14 0.279784 0.623913 0.067123
O O15 0.888868 0.107554 0.466024
O O16 0.000000 0.250000 0.480224
O O17 0.236810 0.500000 0.000000
#
# Coordination Sequence:
#
# PCOD8301432 Si02
#       7
#     8  16   8  16  16   8  16
#     4  10  24  46  70 100 138 180 227 284 341 396
#     4  11  26  45  63  91 134 177 214 261 321 394
#     4  11  22  39  63  96 126 162 212 264 319 375
#     4  12  25  43  65  93 128 171 219 268 319 380
#     4  11  23  41  68 102 131 163 218 279 332 387
#     4  11  21  33  63  99 128 154 193 258 333 381
#     4  12  22  38  65  96 128 162 206 262 328 387
#
# _framework density 20.394826999999999
#
# number of rings (size 3 to 8) (size 9 to 14) (size 15 to 20)
#    0.000    0.727    5.455    1.909    3.818    1.818 
#    0.000    1.818    0.000    0.000    0.000    0.000 
#    0.000    0.000    0.000    0.000    0.000    0.000 
#
# Total GULP energy -545532.904683 kJ/mol
# GULP energy per Si atom -12398.475106 kJ/mol
# Density = 2.034841 g / cm^3
# Si number density = 20.394827 Si / 1000 Ang^3
#
#
#
# Elastic Constant Matrix: (Units=GPa)
#
#
# Indices 1 2 3 4 5 6 
#
# 1 78.1758 28.6232 27.0326 0.0000 0.0000 0.0000
# 2 28.6232 96.3846 14.3905 0.0000 0.0000 0.0000
# 3 27.0326 14.3905 92.6555 0.0000 0.0000 0.0000
# 4 0.0000 0.0000 0.0000 21.9181 0.0000 0.0000
# 5 0.0000 0.0000 0.0000 0.0000 26.6691 0.0000
# 6 0.0000 0.0000 0.0000 0.0000 0.0000 31.7340
#
#
#
# Elastic Compliance Matrix: (Units=1/GPa)
#
#
# Indices 1 2 3 4 5 6 
#
# 1 0.015637 -0.004057 -0.003932 0.000000 0.000000 0.000000
# 2 -0.004057 0.011674 -0.000630 0.000000 0.000000 0.000000
# 3 -0.003932 -0.000630 0.012038 0.000000 0.000000 0.000000
# 4 0.000000 0.000000 0.000000 0.045624 0.000000 0.000000
# 5 0.000000 0.000000 0.000000 0.000000 0.037497 0.000000
# 6 0.000000 0.000000 0.000000 0.000000 0.000000 0.031512
#
#
# Mechanical properties :
#
#
# Convention : Reuss Voigt Hill
#
# Bulk Modulus (GPa) = 45.22474 45.25648 45.24061
# Shear Modulus (GPa) = 27.99748 29.20890 28.60319
#
# Velocity S-wave (km/s) = 3.70912 3.78851 3.74902
# Velocity P-wave (km/s) = 6.36915 6.43237 6.40084
#
# Compressibility (1/GPa) = 0.02211179
#
# Stress axis : x y z
#
# Youngs Moduli (GPa) = 63.95257 85.66220 83.07292
#
# Poissons Ratio (x) = 0.34749 0.32664
# Poissons Ratio (y) = 0.25942 0.05230
# Poissons Ratio (z) = 0.25146 0.05393
#
# Static dielectric constant tensor:
#      x y z
#    x 3.709090 0.000000 0.000000 
#    y 0.000000 4.423460 0.000000 
#    z 0.000000 0.000000 3.775140 
# 
# 
# High freq. dielectric constant tensor:
#      x y z
#    x 1.787450 0.000000 0.000000 
#    y 0.000000 1.811260 0.000000 
#    z 0.000000 0.000000 1.797790 
# 
# From -- ./inp_files/58691.got.cif
#   From: 2010.03.12/outbox.cif.g09.slc.cpg/sg74_30_cif.got.tgz:58691.got - 2010.04.16 15:46:19.
