data_PCOD8301615
_publ_section_title
;
Structure prediction by ZEFSAII (Michael W. Deem and Ramdas Pophale) SiO2 
 PCOD8301615
Probable space group: I M M A
;
_chemical_formula_sum "Si O2"
_cell_formula_units_Z 32
_cell_length_a 21.220794
_cell_length_b 5.175033
_cell_length_c 12.112717
_cell_angle_alpha 90.000000
_cell_angle_beta 90.000000
_cell_angle_gamma 90.000000
_cell_volume 1330.198101
_symmetry_space_group_name_H-M "I M M A"
_symmetry_group_IT_number 74
_symmetry_cell_setting 'orthorhombic'
loop_
_space_group_symop_operation_xyz
x,y,z
-x,1/2-y,z
x,-y,-z
-x,1/2+y,-z
-x,-y,-z
x,1/2+y,-z
-x,y,z
x,1/2-y,z
1/2+x,1/2+y,1/2+z
1/2-x,-y,1/2+z
1/2+x,1/2-y,1/2-z
1/2-x,y,1/2-z
1/2-x,1/2-y,1/2-z
1/2+x,y,1/2-z
1/2-x,1/2+y,1/2+z
1/2+x,-y,1/2+z
loop_
_atom_site_type_symbol
_atom_site_label
_atom_site_fract_x
_atom_site_fract_y
_atom_site_fract_z
Si Si1 0.349752 0.250000 0.193683
Si Si2 0.430100 0.250000 0.549231
Si Si3 0.282964 0.250000 0.424524
Si Si4 0.428547 0.750000 0.191495
O O1 0.334143 0.250000 0.324331
O O2 0.286258 0.250000 0.125500
O O3 0.390629 0.496543 0.155315
O O4 0.500000 0.250000 0.495965
O O5 0.393741 0.500000 0.500000
O O6 0.432670 0.250000 0.678017
O O7 0.291830 0.500000 0.500000
O O8 0.500000 0.750000 0.142734
#
# Coordination Sequence:
#
# PCOD8301615 Si02
#       4
#     8   8   8   8
#     4  11  24  41  65  97 125 163 218 258 312 387
#     4   9  17  28  43  69 108 154 196 228 275 351
#     4  11  24  44  69  93 123 164 213 275 323 358
#     4  11  22  37  59  89 131 171 200 250 316 379
#
# _framework density 24.056567000000001
#
# number of rings (size 3 to 8) (size 9 to 14) (size 15 to 20)
#    0.000    1.500    0.000    5.250    0.000   14.000 
#    0.000    0.000    0.000   16.500    0.000    0.000 
#    0.000    0.000    0.000    0.000    0.000    0.000 
#
# Total GULP energy -198329.290162 kJ/mol
# GULP energy per Si atom -12395.580635 kJ/mol
# Density = 2.400181 g / cm^3
# Si number density = 24.056567 Si / 1000 Ang^3
#
#
#
# Elastic Constant Matrix: (Units=GPa)
#
#
# Indices 1 2 3 4 5 6 
#
# 1 187.1260 48.4423 25.3095 0.0000 0.0000 0.0000
# 2 48.4423 226.5693 12.1758 0.0000 0.0000 0.0000
# 3 25.3095 12.1758 43.3433 0.0000 0.0000 0.0000
# 4 0.0000 0.0000 0.0000 0.4715 0.0000 0.0000
# 5 0.0000 0.0000 0.0000 0.0000 32.7456 0.0000
# 6 0.0000 0.0000 0.0000 0.0000 0.0000 28.5280
#
#
#
# Elastic Compliance Matrix: (Units=1/GPa)
#
#
# Indices 1 2 3 4 5 6 
#
# 1 0.006072 -0.001125 -0.003230 0.000000 0.000000 0.000000
# 2 -0.001125 0.004690 -0.000661 0.000000 0.000000 0.000000
# 3 -0.003230 -0.000661 0.025143 0.000000 0.000000 0.000000
# 4 0.000000 0.000000 0.000000 2.121057 0.000000 0.000000
# 5 0.000000 0.000000 0.000000 0.000000 0.030538 0.000000
# 6 0.000000 0.000000 0.000000 0.000000 0.000000 0.035053
#
#
# Mechanical properties :
#
#
# Convention : Reuss Voigt Hill
#
# Bulk Modulus (GPa) = 38.64780 69.87709 54.26244
# Shear Modulus (GPa) = 2.23094 37.08974 19.66034
#
# Velocity S-wave (km/s) = 0.96405 3.93080 2.86187
# Velocity P-wave (km/s) = 4.16407 7.05065 5.79012
#
# Compressibility (1/GPa) = 0.02587470
#
# Stress axis : x y z
#
# Youngs Moduli (GPa) = 164.69126 213.23652 39.77236
#
# Poissons Ratio (x) = 0.23982 0.12845
# Poissons Ratio (y) = 0.18522 0.02628
# Poissons Ratio (z) = 0.53190 0.14088
#
# Static dielectric constant tensor:
#      x y z
#    x 5.033440 0.000000 0.000000 
#    y 0.000000 4.746430 0.000000 
#    z 0.000000 0.000000 4.011560 
# 
# 
# High freq. dielectric constant tensor:
#      x y z
#    x 1.996060 0.000000 0.000000 
#    y 0.000000 1.972960 0.000000 
#    z 0.000000 0.000000 1.924280 
# 
# From -- ./inp_files/27568.got.cif
#   From: 2010.03.12/outbox.cif.g09.slc.cpg/sg74_14_cif.got.tgz:27568.got - 2010.04.16 15:46:19.
