data_PCOD8301439
_publ_section_title
;
Structure prediction by ZEFSAII (Michael W. Deem and Ramdas Pophale) SiO2 
 PCOD8301439
Probable space group: I M M A
;
_chemical_formula_sum "Si O2"
_cell_formula_units_Z 80
_cell_length_a 10.263545
_cell_length_b 19.504572
_cell_length_c 29.293573
_cell_angle_alpha 90.000000
_cell_angle_beta 90.000000
_cell_angle_gamma 90.000000
_cell_volume 5864.164740
_symmetry_space_group_name_H-M "I M M A"
_symmetry_group_IT_number 74
_symmetry_cell_setting 'orthorhombic'
loop_
_space_group_symop_operation_xyz
x,y,z
-x,1/2-y,z
x,-y,-z
-x,1/2+y,-z
-x,-y,-z
x,1/2+y,-z
-x,y,z
x,1/2-y,z
1/2+x,1/2+y,1/2+z
1/2-x,-y,1/2+z
1/2+x,1/2-y,1/2-z
1/2-x,y,1/2-z
1/2-x,1/2-y,1/2-z
1/2+x,y,1/2-z
1/2-x,1/2+y,1/2+z
1/2+x,-y,1/2+z
loop_
_atom_site_type_symbol
_atom_site_label
_atom_site_fract_x
_atom_site_fract_y
_atom_site_fract_z
Si Si1 0.736521 0.873726 0.855303
Si Si2 0.645334 0.250000 0.981181
Si Si3 0.500000 0.330650 0.204125
Si Si4 0.345823 0.468535 0.070482
Si Si5 0.845285 0.897544 0.478284
Si Si6 0.646472 0.750000 0.911032
Si Si7 0.500000 0.669120 0.688878
O O1 0.628190 0.865908 0.816275
O O2 0.723215 0.945708 0.882429
O O3 0.721712 0.816345 0.893862
O O4 0.876090 0.868502 0.832209
O O5 0.500000 0.250000 0.960683
O O6 0.714613 0.178177 0.965992
O O7 0.641728 0.250000 0.035334
O O8 0.500000 0.250000 0.193540
O O9 0.500000 0.344219 0.257606
O O10 0.500000 0.458141 0.076022
O O11 0.309737 0.548359 0.061474
O O12 0.294067 0.424377 0.027281
O O13 0.000000 0.890509 0.482946
O O14 0.500000 0.750000 0.890712
O O15 0.500000 0.750000 0.677636
#
# Coordination Sequence:
#
# PCOD8301439 Si02
#       7
#    16   8   8  16  16   8   8
#     4  12  18  30  44  57  79 109 140 171 200 238
#     4   9  14  20  35  60  91 105 129 176 208 225
#     4  11  20  32  46  57  74 105 141 174 205 239
#     4   9  15  24  39  59  80 105 138 169 197 235
#     4   8  14  21  34  60  86 104 131 171 204 228
#     4  11  16  23  40  65  75 104 146 165 192 240
#     4  11  24  32  38  59  84 103 133 178 215 235
#
# _framework density 13.642182
#
# number of rings (size 3 to 8) (size 9 to 14) (size 15 to 20)
#    0.000    2.000    6.000    1.800    0.000    1.600 
#    0.000    0.000    0.000    2.400    0.000    0.000 
#    0.000    0.000    0.000    5.400    0.000    0.100 
#
# Total GULP energy -495670.309739 kJ/mol
# GULP energy per Si atom -12391.757743 kJ/mol
# Density = 1.361113 g / cm^3
# Si number density = 13.642182 Si / 1000 Ang^3
#
#
#
# Elastic Constant Matrix: (Units=GPa)
#
#
# Indices 1 2 3 4 5 6 
#
# 1 66.7680 24.9436 34.5113 0.0000 0.0000 0.0000
# 2 24.9436 117.6637 47.3680 0.0000 0.0000 0.0000
# 3 34.5113 47.3680 73.7862 0.0000 0.0000 0.0000
# 4 0.0000 0.0000 0.0000 24.3420 0.0000 0.0000
# 5 0.0000 0.0000 0.0000 0.0000 10.7341 0.0000
# 6 0.0000 0.0000 0.0000 0.0000 0.0000 8.3952
#
#
#
# Elastic Compliance Matrix: (Units=1/GPa)
#
#
# Indices 1 2 3 4 5 6 
#
# 1 0.019787 -0.000632 -0.008849 0.000000 0.000000 0.000000
# 2 -0.000632 0.011481 -0.007075 0.000000 0.000000 0.000000
# 3 -0.008849 -0.007075 0.022233 0.000000 0.000000 0.000000
# 4 0.000000 0.000000 0.000000 0.041081 0.000000 0.000000
# 5 0.000000 0.000000 0.000000 0.000000 0.093161 0.000000
# 6 0.000000 0.000000 0.000000 0.000000 0.000000 0.119116
#
#
# Mechanical properties :
#
#
# Convention : Reuss Voigt Hill
#
# Bulk Modulus (GPa) = 49.04470 52.42931 50.73700
# Shear Modulus (GPa) = 14.41886 18.78725 16.60305
#
# Velocity S-wave (km/s) = 3.25458 3.71501 3.49239
# Velocity P-wave (km/s) = 7.08180 7.54433 7.31672
#
# Compressibility (1/GPa) = 0.02038956
#
# Stress axis : x y z
#
# Youngs Moduli (GPa) = 50.53719 87.10159 44.97795
#
# Poissons Ratio (x) = 0.05508 0.39801
# Poissons Ratio (y) = 0.03196 0.31820
# Poissons Ratio (z) = 0.44720 0.61620
#
# Static dielectric constant tensor:
#      x y z
#    x 2.391830 0.000000 0.000000 
#    y 0.000000 2.990850 0.000000 
#    z 0.000000 0.000000 2.592580 
# 
# 
# High freq. dielectric constant tensor:
#      x y z
#    x 1.480510 0.000000 0.000000 
#    y 0.000000 1.510230 0.000000 
#    z 0.000000 0.000000 1.501150 
# 
# From -- ./inp_files/68326.got.cif
#   From: 2010.03.12/outbox.cif.g09.slc.cpg/sg74_35_cif.got.tgz:68326.got - 2010.04.16 15:46:19.
