data_PCOD8301082
_publ_section_title
;
Structure prediction by ZEFSAII (Michael W. Deem and Ramdas Pophale) SiO2 
 PCOD8301082
Probable space group: I M M A
;
_chemical_formula_sum "Si O2"
_cell_formula_units_Z 64
_cell_length_a 26.851881
_cell_length_b 17.831206
_cell_length_c 6.493337
_cell_angle_alpha 90.000000
_cell_angle_beta 90.000000
_cell_angle_gamma 90.000000
_cell_volume 3109.018987
_symmetry_space_group_name_H-M "I M M A"
_symmetry_group_IT_number 74
_symmetry_cell_setting 'orthorhombic'
loop_
_space_group_symop_operation_xyz
x,y,z
-x,1/2-y,z
x,-y,-z
-x,1/2+y,-z
-x,-y,-z
x,1/2+y,-z
-x,y,z
x,1/2-y,z
1/2+x,1/2+y,1/2+z
1/2-x,-y,1/2+z
1/2+x,1/2-y,1/2-z
1/2-x,y,1/2-z
1/2-x,1/2-y,1/2-z
1/2+x,y,1/2-z
1/2-x,1/2+y,1/2+z
1/2+x,-y,1/2+z
loop_
_atom_site_type_symbol
_atom_site_label
_atom_site_fract_x
_atom_site_fract_y
_atom_site_fract_z
Si Si1 0.443369 0.088375 0.036447
Si Si2 0.291378 0.424358 0.098519
Si Si3 0.120466 0.575312 0.896705
Si Si4 0.357192 0.338462 0.790232
O O1 0.500000 0.114633 0.006899
O O2 0.425700 0.110177 0.268523
O O3 0.410070 0.133486 0.874696
O O4 0.437052 0.000000 0.000000
O O5 0.250000 0.387224 0.250000
O O6 0.338630 0.449940 0.230769
O O7 0.268190 0.500000 0.000000
O O8 0.309496 0.367350 0.920748
O O9 0.100154 0.500000 0.000000
O O10 0.145234 0.634021 0.054064
O O11 0.354813 0.250000 0.794847
#
# Coordination Sequence:
#
# PCOD8301082 Si02
#       4
#    16  16  16  16
#     4  10  21  38  64  93 120 159 211 257 300 361
#     4  11  23  39  67  94 118 158 208 253 300 365
#     4  11  19  38  62  90 121 161 208 250 299 363
#     4  11  24  41  60  90 130 164 198 253 313 361
#
# _framework density 20.585270000000001
#
# number of rings (size 3 to 8) (size 9 to 14) (size 15 to 20)
#    0.000    1.250    5.000    2.250    0.000    6.500 
#    0.000    1.250    0.000    0.000    0.000    0.000 
#    0.000    0.000    0.000    0.000    0.000    0.000 
#
# Total GULP energy -396803.872813 kJ/mol
# GULP energy per Si atom -12400.121025 kJ/mol
# Density = 2.053842 g / cm^3
# Si number density = 20.585270 Si / 1000 Ang^3
#
#
#
# Elastic Constant Matrix: (Units=GPa)
#
#
# Indices 1 2 3 4 5 6 
#
# 1 80.0126 13.4610 24.8964 0.0000 0.0000 0.0000
# 2 13.4610 109.2383 27.5801 0.0000 0.0000 0.0000
# 3 24.8964 27.5801 109.1601 0.0000 0.0000 0.0000
# 4 0.0000 0.0000 0.0000 22.7736 0.0000 0.0000
# 5 0.0000 0.0000 0.0000 0.0000 25.2561 0.0000
# 6 0.0000 0.0000 0.0000 0.0000 0.0000 12.4612
#
#
#
# Elastic Compliance Matrix: (Units=1/GPa)
#
#
# Indices 1 2 3 4 5 6 
#
# 1 0.013544 -0.000950 -0.002849 0.000000 0.000000 0.000000
# 2 -0.000950 0.009845 -0.002271 0.000000 0.000000 0.000000
# 3 -0.002849 -0.002271 0.010384 0.000000 0.000000 0.000000
# 4 0.000000 0.000000 0.000000 0.043910 0.000000 0.000000
# 5 0.000000 0.000000 0.000000 0.000000 0.039594 0.000000
# 6 0.000000 0.000000 0.000000 0.000000 0.000000 0.080249
#
#
# Mechanical properties :
#
#
# Convention : Reuss Voigt Hill
#
# Bulk Modulus (GPa) = 46.22298 47.80954 47.01626
# Shear Modulus (GPa) = 23.05449 27.59643 25.32546
#
# Velocity S-wave (km/s) = 3.35020 3.66538 3.51133
# Velocity P-wave (km/s) = 6.12113 6.41786 6.27125
#
# Compressibility (1/GPa) = 0.02163426
#
# Stress axis : x y z
#
# Youngs Moduli (GPa) = 73.83168 101.57825 96.29849
#
# Poissons Ratio (x) = 0.09647 0.27437
# Poissons Ratio (y) = 0.07012 0.21867
# Poissons Ratio (z) = 0.21036 0.23066
#
# Static dielectric constant tensor:
#      x y z
#    x 3.772450 0.000000 0.000000 
#    y 0.000000 3.345720 0.000000 
#    z 0.000000 0.000000 4.245320 
# 
# 
# High freq. dielectric constant tensor:
#      x y z
#    x 1.801260 0.000000 0.000000 
#    y 0.000000 1.770310 0.000000 
#    z 0.000000 0.000000 1.825500 
# 
# From -- ./inp_files/2339.got.cif
#   From: 2010.03.12/outbox.cif.g09.slc.cpg/sg74_2_cif.got.tgz:2339.got - 2010.04.16 15:46:19.
