data_PCOD8301413
_publ_section_title
;
Structure prediction by ZEFSAII (Michael W. Deem and Ramdas Pophale) SiO2 
 PCOD8301413
Probable space group: I M M A
;
_chemical_formula_sum "Si O2"
_cell_formula_units_Z 80
_cell_length_a 26.037501
_cell_length_b 13.423511
_cell_length_c 10.097843
_cell_angle_alpha 90.000000
_cell_angle_beta 90.000000
_cell_angle_gamma 90.000000
_cell_volume 3529.344376
_symmetry_space_group_name_H-M "I M M A"
_symmetry_group_IT_number 74
_symmetry_cell_setting 'orthorhombic'
loop_
_space_group_symop_operation_xyz
x,y,z
-x,1/2-y,z
x,-y,-z
-x,1/2+y,-z
-x,-y,-z
x,1/2+y,-z
-x,y,z
x,1/2-y,z
1/2+x,1/2+y,1/2+z
1/2-x,-y,1/2+z
1/2+x,1/2-y,1/2-z
1/2-x,y,1/2-z
1/2-x,1/2-y,1/2-z
1/2+x,y,1/2-z
1/2-x,1/2+y,1/2+z
1/2+x,-y,1/2+z
loop_
_atom_site_type_symbol
_atom_site_label
_atom_site_fract_x
_atom_site_fract_y
_atom_site_fract_z
Si Si1 0.714688 0.138424 0.622445
Si Si2 0.284261 0.136915 0.120854
Si Si3 0.056759 0.367668 0.571797
Si Si4 0.635854 0.009147 0.762952
Si Si5 0.557318 0.862816 0.767620
O O1 0.693668 0.250000 0.594855
O O2 0.750000 0.136994 0.750000
O O3 0.748803 0.100773 0.500259
O O4 0.667635 0.063643 0.647805
O O5 0.305181 0.250000 0.095389
O O6 0.250000 0.134359 0.250000
O O7 0.330280 0.058641 0.137120
O O8 0.062111 0.250000 0.574540
O O9 0.104216 0.409697 0.654391
O O10 0.059501 0.403319 0.419099
O O11 0.000000 0.398316 0.628396
O O12 0.596289 0.934125 0.687654
O O13 0.500000 0.871891 0.710054
O O14 0.576847 0.750000 0.756572
#
# Coordination Sequence:
#
# PCOD8301413 Si02
#       5
#    16  16  16  16  16
#     4  10  24  41  57  86 125 160 202 260 317 367
#     4  10  24  45  63  83 121 169 215 260 309 371
#     4   9  19  34  52  82 125 168 209 256 312 379
#     4  12  21  32  60  89 117 161 216 257 316 379
#     4   9  19  34  52  82 124 166 211 259 310 375
#
# _framework density 22.667100000000001
#
# number of rings (size 3 to 8) (size 9 to 14) (size 15 to 20)
#    0.000    2.000    0.000    4.200    5.600    4.000 
#    0.000    0.000    0.000    2.400    0.000   11.200 
#    0.000   32.000    0.000    0.000    0.000    0.000 
#
# Total GULP energy -495895.942158 kJ/mol
# GULP energy per Si atom -12397.398554 kJ/mol
# Density = 2.261551 g / cm^3
# Si number density = 22.667100 Si / 1000 Ang^3
#
#
#
# Elastic Constant Matrix: (Units=GPa)
#
#
# Indices 1 2 3 4 5 6 
#
# 1 136.8747 60.8154 37.4626 0.0000 0.0000 0.0000
# 2 60.8154 63.4761 23.3382 0.0000 0.0000 0.0000
# 3 37.4626 23.3382 74.3927 0.0000 0.0000 0.0000
# 4 0.0000 0.0000 0.0000 25.2056 0.0000 0.0000
# 5 0.0000 0.0000 0.0000 0.0000 22.6576 0.0000
# 6 0.0000 0.0000 0.0000 0.0000 0.0000 63.5151
#
#
#
# Elastic Compliance Matrix: (Units=1/GPa)
#
#
# Indices 1 2 3 4 5 6 
#
# 1 0.013308 -0.011627 -0.003054 0.000000 0.000000 0.000000
# 2 -0.011627 0.027967 -0.002918 0.000000 0.000000 0.000000
# 3 -0.003054 -0.002918 0.015896 0.000000 0.000000 0.000000
# 4 0.000000 0.000000 0.000000 0.039674 0.000000 0.000000
# 5 0.000000 0.000000 0.000000 0.000000 0.044135 0.000000
# 6 0.000000 0.000000 0.000000 0.000000 0.000000 0.015744
#
#
# Mechanical properties :
#
#
# Convention : Reuss Voigt Hill
#
# Bulk Modulus (GPa) = 45.51409 57.55288 51.53349
# Shear Modulus (GPa) = 25.09446 32.48414 28.78930
#
# Velocity S-wave (km/s) = 3.33090 3.78973 3.56770
# Velocity P-wave (km/s) = 5.90899 6.67795 6.30520
#
# Compressibility (1/GPa) = 0.02197122
#
# Stress axis : x y z
#
# Youngs Moduli (GPa) = 75.14258 35.75647 62.91036
#
# Poissons Ratio (x) = 0.41575 0.19213
# Poissons Ratio (y) = 0.87371 0.18360
# Poissons Ratio (z) = 0.22948 0.10435
#
# Static dielectric constant tensor:
#      x y z
#    x 4.289510 0.000000 0.000000 
#    y 0.000000 4.682920 0.000000 
#    z 0.000000 0.000000 3.417560 
# 
# 
# High freq. dielectric constant tensor:
#      x y z
#    x 1.904110 0.000000 0.000000 
#    y 0.000000 1.930290 0.000000 
#    z 0.000000 0.000000 1.832690 
# 
# From -- ./inp_files/20516.got.cif
#   From: 2010.03.12/outbox.cif.g09.slc.cpg/sg74_11_cif.got.tgz:20516.got - 2010.04.16 15:46:19.
