data_PCOD8301676
_publ_section_title
;
Structure prediction by ZEFSAII (Michael W. Deem and Ramdas Pophale) SiO2 
 PCOD8301676
Probable space group: I M M A
;
_chemical_formula_sum "Si O2"
_cell_formula_units_Z 88
_cell_length_a 19.241923
_cell_length_b 24.265804
_cell_length_c 9.470684
_cell_angle_alpha 90.000000
_cell_angle_beta 90.000000
_cell_angle_gamma 90.000000
_cell_volume 4422.058707
_symmetry_space_group_name_H-M "I M M A"
_symmetry_group_IT_number 74
_symmetry_cell_setting 'orthorhombic'
loop_
_space_group_symop_operation_xyz
x,y,z
-x,1/2-y,z
x,-y,-z
-x,1/2+y,-z
-x,-y,-z
x,1/2+y,-z
-x,y,z
x,1/2-y,z
1/2+x,1/2+y,1/2+z
1/2-x,-y,1/2+z
1/2+x,1/2-y,1/2-z
1/2-x,y,1/2-z
1/2-x,1/2-y,1/2-z
1/2+x,y,1/2-z
1/2-x,1/2+y,1/2+z
1/2+x,-y,1/2+z
loop_
_atom_site_type_symbol
_atom_site_label
_atom_site_fract_x
_atom_site_fract_y
_atom_site_fract_z
Si Si1 0.422732 0.128156 0.538931
Si Si2 0.078697 0.079747 0.263199
Si Si3 0.375894 0.958074 0.264559
Si Si4 0.314800 0.403334 0.012968
Si Si5 0.718380 0.312568 0.594961
Si Si6 0.224845 0.000000 0.000000
O O1 0.500000 0.155906 0.525171
O O2 0.399516 0.099299 0.392499
O O3 0.431259 0.080581 0.656272
O O4 0.363231 0.170964 0.587106
O O5 0.124164 0.112043 0.378541
O O6 0.000000 0.095804 0.295794
O O7 0.087289 0.014102 0.282879
O O8 0.344649 0.923246 0.136522
O O9 0.315850 0.968751 0.378138
O O10 0.265456 0.350268 0.005194
O O11 0.271867 0.454359 0.078998
O O12 0.724324 0.250000 0.541724
O O13 0.750000 0.319026 0.750000
#
# Coordination Sequence:
#
# PCOD8301676 Si02
#       6
#    16  16  16  16  16   8
#     4  11  23  40  63  91 126 164 208 254 304 369
#     4  11  24  39  58  92 133 171 202 246 313 380
#     4  12  20  36  59  90 128 167 206 245 300 369
#     4  12  23  37  61  94 126 164 206 258 311 365
#     4  11  23  44  69  92 119 156 214 267 309 363
#     4  12  20  32  62  88 122 162 204 256 306 366
#
# _framework density 19.900233
#
# number of rings (size 3 to 8) (size 9 to 14) (size 15 to 20)
#    0.000    0.545    7.273    1.091    0.000    6.182 
#    0.000    1.818    0.000    1.636    0.000    0.000 
#    0.000    0.000    0.000    0.000    0.000    0.000 
#
# Total GULP energy -545559.519043 kJ/mol
# GULP energy per Si atom -12399.079978 kJ/mol
# Density = 1.985494 g / cm^3
# Si number density = 19.900233 Si / 1000 Ang^3
#
#
#
# Elastic Constant Matrix: (Units=GPa)
#
#
# Indices 1 2 3 4 5 6 
#
# 1 129.1573 52.6691 51.2875 0.0000 0.0000 0.0000
# 2 52.6691 112.6645 22.4684 0.0000 0.0000 0.0000
# 3 51.2875 22.4684 86.1210 0.0000 0.0000 0.0000
# 4 0.0000 0.0000 0.0000 20.4321 0.0000 0.0000
# 5 0.0000 0.0000 0.0000 0.0000 30.1170 0.0000
# 6 0.0000 0.0000 0.0000 0.0000 0.0000 17.5498
#
#
#
# Elastic Compliance Matrix: (Units=1/GPa)
#
#
# Indices 1 2 3 4 5 6 
#
# 1 0.011882 -0.004371 -0.005936 0.000000 0.000000 0.000000
# 2 -0.004371 0.010971 -0.000259 0.000000 0.000000 0.000000
# 3 -0.005936 -0.000259 0.015214 0.000000 0.000000 0.000000
# 4 0.000000 0.000000 0.000000 0.048943 0.000000 0.000000
# 5 0.000000 0.000000 0.000000 0.000000 0.033204 0.000000
# 6 0.000000 0.000000 0.000000 0.000000 0.000000 0.056981
#
#
# Mechanical properties :
#
#
# Convention : Reuss Voigt Hill
#
# Bulk Modulus (GPa) = 59.04837 64.53254 61.79046
# Shear Modulus (GPa) = 24.51329 27.05429 25.78379
#
# Velocity S-wave (km/s) = 3.51352 3.69113 3.60342
# Velocity P-wave (km/s) = 6.79679 7.11789 6.95920
#
# Compressibility (1/GPa) = 0.01693527
#
# Stress axis : x y z
#
# Youngs Moduli (GPa) = 84.16148 91.14983 65.72865
#
# Poissons Ratio (x) = 0.39841 0.39014
# Poissons Ratio (y) = 0.36786 0.01704
# Poissons Ratio (z) = 0.49956 0.02363
#
# Static dielectric constant tensor:
#      x y z
#    x 3.758060 0.000000 0.000000 
#    y 0.000000 3.481920 0.000000 
#    z 0.000000 0.000000 3.601070 
# 
# 
# High freq. dielectric constant tensor:
#      x y z
#    x 1.790530 0.000000 0.000000 
#    y 0.000000 1.745160 0.000000 
#    z 0.000000 0.000000 1.776040 
# 
# From -- ./inp_files/12439.got.cif
#   From: 2010.03.12/outbox.cif.g09.slc.cpg/sg74_7_cif.got.tgz:12439.got - 2010.04.16 15:46:19.
