data_PCOD8301035
_publ_section_title
;
Structure prediction by ZEFSAII (Michael W. Deem and Ramdas Pophale) SiO2 
 PCOD8301035
Probable space group: I M M A
;
_chemical_formula_sum "Si O2"
_cell_formula_units_Z 104
_cell_length_a 8.549087
_cell_length_b 21.515101
_cell_length_c 27.072379
_cell_angle_alpha 90.000000
_cell_angle_beta 90.000000
_cell_angle_gamma 90.000000
_cell_volume 4979.543690
_symmetry_space_group_name_H-M "I M M A"
_symmetry_group_IT_number 74
_symmetry_cell_setting 'orthorhombic'
loop_
_space_group_symop_operation_xyz
x,y,z
-x,1/2-y,z
x,-y,-z
-x,1/2+y,-z
-x,-y,-z
x,1/2+y,-z
-x,y,z
x,1/2-y,z
1/2+x,1/2+y,1/2+z
1/2-x,-y,1/2+z
1/2+x,1/2-y,1/2-z
1/2-x,y,1/2-z
1/2-x,1/2-y,1/2-z
1/2+x,y,1/2-z
1/2-x,1/2+y,1/2+z
1/2+x,-y,1/2+z
loop_
_atom_site_type_symbol
_atom_site_label
_atom_site_fract_x
_atom_site_fract_y
_atom_site_fract_z
Si Si1 0.816367 0.643791 0.130095
Si Si2 0.182237 0.681922 0.800776
Si Si3 0.315718 0.820928 0.025084
Si Si4 0.182427 0.065223 0.141861
Si Si5 0.182436 0.457416 0.696187
Si Si6 0.184559 0.560709 0.970662
Si Si7 0.185996 0.250000 0.695898
O O1 0.729101 0.657879 0.079654
O O2 0.773712 0.576747 0.151636
O O3 0.755524 0.689767 0.171218
O O4 0.000000 0.649784 0.120630
O O5 0.255053 0.750000 0.812394
O O6 0.250000 0.654216 0.750000
O O7 0.219289 0.637289 0.846923
O O8 0.000000 0.687732 0.792655
O O9 0.500000 0.820519 0.020248
O O10 0.252645 0.750000 0.014606
O O11 0.249875 0.872714 0.987968
O O12 0.233832 0.050872 0.086002
O O13 0.000000 0.049409 0.150315
O O14 0.286767 0.028621 0.181932
O O15 0.250000 0.440601 0.750000
O O16 0.000000 0.440497 0.696081
O O17 0.000000 0.564455 0.977574
O O18 0.250331 0.500000 0.000000
O O19 0.250000 0.250000 0.750000
O O20 0.000000 0.250000 0.693638
#
# Coordination Sequence:
#
# PCOD8301035 Si02
#       7
#    16  16  16  16  16  16   8
#     4  12  24  41  64  90 121 162 209 255 308 366
#     4   9  18  33  54  81 114 152 193 239 296 360
#     4  11  24  42  65  94 129 167 211 265 321 382
#     4  10  21  38  60  88 121 157 202 256 310 371
#     4  12  25  41  62  90 126 166 208 257 311 372
#     4  10  22  40  63  91 123 161 209 264 319 379
#     4  12  24  40  60  88 124 160 202 250 301 358
#
# _framework density 20.885446999999999
#
# number of rings (size 3 to 8) (size 9 to 14) (size 15 to 20)
#    0.000    1.231    0.769    5.769    0.000    5.538 
#    0.000    1.538    0.000    1.846    0.000    0.000 
#    0.000    0.000    0.000    0.000    0.000    0.000 
#
# Total GULP energy -644749.098392 kJ/mol
# GULP energy per Si atom -12399.021123 kJ/mol
# Density = 2.083791 g / cm^3
# Si number density = 20.885447 Si / 1000 Ang^3
#
#
#
# Elastic Constant Matrix: (Units=GPa)
#
#
# Indices 1 2 3 4 5 6 
#
# 1 22.2996 30.4462 16.8650 0.0000 0.0000 0.0000
# 2 30.4462 116.2995 39.6668 0.0000 0.0000 0.0000
# 3 16.8650 39.6668 86.7575 0.0000 0.0000 0.0000
# 4 0.0000 0.0000 0.0000 38.2426 0.0000 0.0000
# 5 0.0000 0.0000 0.0000 0.0000 32.5070 0.0000
# 6 0.0000 0.0000 0.0000 0.0000 0.0000 35.1972
#
#
#
# Elastic Compliance Matrix: (Units=1/GPa)
#
#
# Indices 1 2 3 4 5 6 
#
# 1 0.072698 -0.016837 -0.006434 0.000000 0.000000 0.000000
# 2 -0.016837 0.014087 -0.003168 0.000000 0.000000 0.000000
# 3 -0.006434 -0.003168 0.014225 0.000000 0.000000 0.000000
# 4 0.000000 0.000000 0.000000 0.026149 0.000000 0.000000
# 5 0.000000 0.000000 0.000000 0.000000 0.030763 0.000000
# 6 0.000000 0.000000 0.000000 0.000000 0.000000 0.028411
#
#
# Mechanical properties :
#
#
# Convention : Reuss Voigt Hill
#
# Bulk Modulus (GPa) = 20.77584 44.36808 32.57196
# Shear Modulus (GPa) = 19.58829 30.41460 25.00145
#
# Velocity S-wave (km/s) = 3.06582 3.82023 3.46363
# Velocity P-wave (km/s) = 4.74357 6.38346 5.62361
#
# Compressibility (1/GPa) = 0.04813282
#
# Stress axis : x y z
#
# Youngs Moduli (GPa) = 13.75553 70.98864 70.29722
#
# Poissons Ratio (x) = 1.19526 0.45227
# Poissons Ratio (y) = 0.23161 0.22267
# Poissons Ratio (z) = 0.08850 0.22486
#
# Static dielectric constant tensor:
#      x y z
#    x 3.149500 0.000000 0.000000 
#    y 0.000000 4.259640 0.000000 
#    z 0.000000 0.000000 3.883940 
# 
# 
# High freq. dielectric constant tensor:
#      x y z
#    x 1.812100 0.000000 0.000000 
#    y 0.000000 1.837180 0.000000 
#    z 0.000000 0.000000 1.819200 
# 
# From -- ./inp_files/64482.got.cif
#   From: 2010.03.12/outbox.cif.g09.slc.cpg/sg74_33_cif.got.tgz:64482.got - 2010.04.16 15:46:19.
