data_PCOD8301916
_publ_section_title
;
Structure prediction by ZEFSAII (Michael W. Deem and Ramdas Pophale) SiO2 
 PCOD8301916
Probable space group: P 41
;
_chemical_formula_sum "Si O2"
_cell_formula_units_Z 28
_cell_length_a 12.283582
_cell_length_b 12.283582
_cell_length_c 7.964594
_cell_angle_alpha 90.000000
_cell_angle_beta 90.000000
_cell_angle_gamma 90.000000
_cell_volume 1201.748811
_symmetry_space_group_name_H-M "P 41"
_symmetry_group_IT_number 76
_symmetry_cell_setting 'tetragonal'
loop_
_space_group_symop_operation_xyz
x,y,z
-y,x,1/4+z
-x,-y,1/2+z
y,-x,3/4+z
loop_
_atom_site_type_symbol
_atom_site_label
_atom_site_fract_x
_atom_site_fract_y
_atom_site_fract_z
Si Si1 0.762630 0.378954 0.649720
Si Si2 0.843264 0.812660 0.725635
Si Si3 0.501781 0.170604 0.099254
Si Si4 0.122318 0.006904 0.485782
Si Si5 0.713195 0.930585 0.454490
Si Si6 0.622931 0.562224 0.150873
Si Si7 0.970707 0.345773 0.849580
O O1 0.757452 0.260194 0.564296
O O2 0.753687 0.473406 0.509446
O O3 0.662302 0.389935 0.774287
O O4 0.878603 0.403309 0.737957
O O5 0.896744 0.902657 0.844424
O O6 0.812948 0.864719 0.542401
O O7 0.938076 0.723753 0.708775
O O8 0.582045 0.073382 0.149861
O O9 0.394765 0.106090 0.047302
O O10 0.550393 0.250750 0.957581
O O11 0.248600 0.975794 0.490609
O O12 0.093166 0.048131 0.674274
O O13 0.699709 0.902331 0.258735
O O14 0.548638 0.584540 0.312785
#
# Coordination Sequence:
#
# PCOD8301916 Si02
#       7
#     4   4   4   4   4   4   4
#     4  10  25  46  70 106 144 190 237 301 363 428
#     4  10  23  41  66  98 146 191 245 289 352 423
#     4  11  26  48  74 107 145 185 242 296 370 432
#     4  11  25  40  64  98 143 192 241 287 349 416
#     4  11  24  43  68 102 142 197 235 302 353 429
#     4  12  27  48  79 105 141 185 243 304 368 436
#     4  11  26  42  71 104 143 188 239 295 357 428
#
# _framework density 23.299375999999999
#
# number of rings (size 3 to 8) (size 9 to 14) (size 15 to 20)
#    0.000    1.143    1.429    2.571    8.000    5.714 
#    0.000    0.000    0.000    0.000    0.000    0.000 
#    0.000    0.000    0.000    0.000    0.000    0.000 
#
# Total GULP energy -347148.749769 kJ/mol
# GULP energy per Si atom -12398.169635 kJ/mol
# Density = 2.324635 g / cm^3
# Si number density = 23.299376 Si / 1000 Ang^3
#
#
#
# Elastic Constant Matrix: (Units=GPa)
#
#
# Indices 1 2 3 4 5 6 
#
# 1 96.8060 57.3025 37.0416 0.0000 0.0000 -2.4303
# 2 57.3025 96.8060 37.0416 0.0000 0.0000 2.4303
# 3 37.0416 37.0416 105.8750 0.0000 0.0000 0.0000
# 4 0.0000 0.0000 0.0000 40.9727 0.0000 0.0000
# 5 0.0000 0.0000 0.0000 0.0000 40.9727 0.0000
# 6 -2.4303 2.4303 0.0000 0.0000 0.0000 32.5790
#
#
#
# Elastic Compliance Matrix: (Units=1/GPa)
#
#
# Indices 1 2 3 4 5 6 
#
# 1 0.016675 -0.008874 -0.002729 0.000000 0.000000 0.001906
# 2 -0.008874 0.016675 -0.002729 0.000000 0.000000 -0.001906
# 3 -0.002729 -0.002729 0.011355 0.000000 0.000000 0.000000
# 4 0.000000 0.000000 0.000000 0.024407 0.000000 0.000000
# 5 0.000000 0.000000 0.000000 0.000000 0.024407 0.000000
# 6 0.001906 -0.001906 0.000000 0.000000 0.000000 0.030979
#
#
# Mechanical properties :
#
#
# Convention : Reuss Voigt Hill
#
# Bulk Modulus (GPa) = 62.34532 62.47319 62.40925
# Shear Modulus (GPa) = 31.54418 34.11162 32.82790
#
# Velocity S-wave (km/s) = 3.68348 3.83045 3.75768
# Velocity P-wave (km/s) = 6.70128 6.81429 6.75802
#
# Compressibility (1/GPa) = 0.01603970
#
# Stress axis : x y z
#
# Youngs Moduli (GPa) = 59.97061 59.97061 88.06832
#
# Poissons Ratio (x) = 0.53217 0.24036
# Poissons Ratio (y) = 0.53217 0.24036
# Poissons Ratio (z) = 0.16367 0.16367
#
# Static dielectric constant tensor:
#      x y z
#    x 4.143390 0.000000 0.000000 
#    y 0.000000 4.143390 0.000000 
#    z 0.000000 0.000000 4.452390 
# 
# 
# High freq. dielectric constant tensor:
#      x y z
#    x 1.919750 0.000000 0.000000 
#    y 0.000000 1.919750 0.000000 
#    z 0.000000 0.000000 1.936110 
# 
# From -- ./inp_files/588.got.cif
#   From: 2010.03.12/outbox.cif.g09.slc.cpg/sg76_cif.got.tgz:588.got - 2010.04.16 16:34:25.
