data_PCOD8301243
_publ_section_title
;
Structure prediction by ZEFSAII (Michael W. Deem and Ramdas Pophale) SiO2 
 PCOD8301243
Probable space group: I M M A
;
_chemical_formula_sum "Si O2"
_cell_formula_units_Z 88
_cell_length_a 20.934562
_cell_length_b 9.643955
_cell_length_c 20.579849
_cell_angle_alpha 90.000000
_cell_angle_beta 90.000000
_cell_angle_gamma 90.000000
_cell_volume 4154.906337
_symmetry_space_group_name_H-M "I M M A"
_symmetry_group_IT_number 74
_symmetry_cell_setting 'orthorhombic'
loop_
_space_group_symop_operation_xyz
x,y,z
-x,1/2-y,z
x,-y,-z
-x,1/2+y,-z
-x,-y,-z
x,1/2+y,-z
-x,y,z
x,1/2-y,z
1/2+x,1/2+y,1/2+z
1/2-x,-y,1/2+z
1/2+x,1/2-y,1/2-z
1/2-x,y,1/2-z
1/2-x,1/2-y,1/2-z
1/2+x,y,1/2-z
1/2-x,1/2+y,1/2+z
1/2+x,-y,1/2+z
loop_
_atom_site_type_symbol
_atom_site_label
_atom_site_fract_x
_atom_site_fract_y
_atom_site_fract_z
Si Si1 0.606953 0.250000 0.030192
Si Si2 0.822151 0.590304 0.839066
Si Si3 0.137873 0.092154 0.723549
Si Si4 0.314287 0.403348 0.115354
Si Si5 0.500000 0.956939 0.193648
Si Si6 0.500000 0.250000 0.136813
Si Si7 0.000000 0.250000 0.577974
Si Si8 0.572841 0.090652 0.439788
O O1 0.653459 0.114171 0.042448
O O2 0.561511 0.250000 0.092423
O O3 0.565646 0.250000 0.964583
O O4 0.824660 0.750000 0.816528
O O5 0.820860 0.493090 0.775815
O O6 0.760999 0.558908 0.885001
O O7 0.885115 0.548942 0.878346
O O8 0.162561 0.250000 0.723518
O O9 0.061603 0.089018 0.735477
O O10 0.148295 0.023033 0.653251
O O11 0.320760 0.250000 0.149485
O O12 0.500000 0.886012 0.122134
O O13 0.500000 0.120753 0.185187
O O14 0.500000 0.058249 0.420960
O O15 0.583120 0.250000 0.459322
O O16 0.595896 0.000000 0.500000
#
# Coordination Sequence:
#
# PCOD8301243 Si02
#       8
#     8  16  16  16   8   4   4  16
#     4   9  20  38  68  89 113 171 223 255 326 387
#     4  10  22  38  65  93 123 165 212 263 321 385
#     4  12  24  39  59  90 134 168 209 266 330 383
#     4   9  19  41  62  89 122 162 216 265 310 388
#     4  12  24  43  60  96 133 176 217 280 326 386
#     4  11  20  40  66  88 118 162 229 262 316 387
#     4  11  24  44  68  88 138 182 221 284 332 389
#     4   9  19  38  61  87 119 155 198 251 308 380
#
# _framework density 21.179779
#
# number of rings (size 3 to 8) (size 9 to 14) (size 15 to 20)
#    0.545    1.273    2.727    1.091    2.545    5.091 
#    0.000    1.818    0.000    0.000    0.000    0.000 
#    0.000    0.000    0.000    0.000    0.000    0.000 
#
# Total GULP energy -545227.083803 kJ/mol
# GULP energy per Si atom -12391.524632 kJ/mol
# Density = 2.113157 g / cm^3
# Si number density = 21.179779 Si / 1000 Ang^3
#
#
#
# Elastic Constant Matrix: (Units=GPa)
#
#
# Indices 1 2 3 4 5 6 
#
# 1 105.8053 27.5900 30.3944 0.0000 0.0000 0.0000
# 2 27.5900 110.6223 30.3276 0.0000 0.0000 0.0000
# 3 30.3944 30.3276 58.4866 0.0000 0.0000 0.0000
# 4 0.0000 0.0000 0.0000 29.9750 0.0000 0.0000
# 5 0.0000 0.0000 0.0000 0.0000 23.0995 0.0000
# 6 0.0000 0.0000 0.0000 0.0000 0.0000 -27.3982
#
#
#
# Elastic Compliance Matrix: (Units=1/GPa)
#
#
# Indices 1 2 3 4 5 6 
#
# 1 0.011295 -0.001408 -0.005140 0.000000 0.000000 0.000000
# 2 -0.001408 0.010713 -0.004824 0.000000 0.000000 0.000000
# 3 -0.005140 -0.004824 0.022270 0.000000 0.000000 0.000000
# 4 0.000000 0.000000 0.000000 0.033361 0.000000 0.000000
# 5 0.000000 0.000000 0.000000 0.000000 0.043291 0.000000
# 6 0.000000 0.000000 0.000000 0.000000 0.000000 -0.036499
#
#
# Mechanical properties :
#
#
# Convention : Reuss Voigt Hill
#
# Bulk Modulus (GPa) = 46.43402 50.17092 48.30247
# Shear Modulus (GPa) = 43.72432 17.57542 30.64987
#
# Velocity S-wave (km/s) = 4.54854 2.88379 3.80824
# Velocity P-wave (km/s) = 7.03967 5.90151 6.49557
#
# Compressibility (1/GPa) = 0.02153593
#
# Stress axis : x y z
#
# Youngs Moduli (GPa) = 88.53530 93.34167 44.90316
#
# Poissons Ratio (x) = 0.13142 0.23079
# Poissons Ratio (y) = 0.12465 0.21659
# Poissons Ratio (z) = 0.45504 0.45024
#
# Static dielectric constant tensor:
#      x y z
#    x 4.233560 0.000000 0.000000 
#    y 0.000000 3.760390 0.000000 
#    z 0.000000 0.000000 3.409690 
# 
# 
# High freq. dielectric constant tensor:
#      x y z
#    x 1.851350 0.000000 0.000000 
#    y 0.000000 1.826770 0.000000 
#    z 0.000000 0.000000 1.789250 
# 
# From -- ./inp_files/61518.got.cif
#   From: 2010.03.12/outbox.cif.g09.slc.cpg/sg74_31_cif.got.tgz:61518.got - 2010.04.16 15:46:19.
