data_PCOD8301003
_publ_section_title
;
Structure prediction by ZEFSAII (Michael W. Deem and Ramdas Pophale) SiO2 
 PCOD8301003
Probable space group: I M M A
;
_chemical_formula_sum "Si O2"
_cell_formula_units_Z 96
_cell_length_a 22.417316
_cell_length_b 17.097106
_cell_length_c 12.764914
_cell_angle_alpha 90.000000
_cell_angle_beta 90.000000
_cell_angle_gamma 90.000000
_cell_volume 4892.424263
_symmetry_space_group_name_H-M "I M M A"
_symmetry_group_IT_number 74
_symmetry_cell_setting 'orthorhombic'
loop_
_space_group_symop_operation_xyz
x,y,z
-x,1/2-y,z
x,-y,-z
-x,1/2+y,-z
-x,-y,-z
x,1/2+y,-z
-x,y,z
x,1/2-y,z
1/2+x,1/2+y,1/2+z
1/2-x,-y,1/2+z
1/2+x,1/2-y,1/2-z
1/2-x,y,1/2-z
1/2-x,1/2-y,1/2-z
1/2+x,y,1/2-z
1/2-x,1/2+y,1/2+z
1/2+x,-y,1/2+z
loop_
_atom_site_type_symbol
_atom_site_label
_atom_site_fract_x
_atom_site_fract_y
_atom_site_fract_z
Si Si1 0.429148 0.415270 0.553578
Si Si2 0.155508 0.954395 0.224693
Si Si3 0.935017 0.250000 0.037544
Si Si4 0.153919 0.621503 0.735193
Si Si5 0.565771 0.750000 0.783760
Si Si6 0.766966 0.061457 0.586493
Si Si7 0.258294 0.661850 0.596229
O O1 0.410366 0.500000 0.500000
O O2 0.500000 0.415801 0.569330
O O3 0.395809 0.405922 0.665812
O O4 0.406558 0.335120 0.494861
O O5 0.180020 0.914084 0.332224
O O6 0.211294 0.974443 0.149081
O O7 0.124783 0.037022 0.250760
O O8 0.000000 0.250000 0.984519
O O9 0.940958 0.250000 0.160437
O O10 0.102816 0.673945 0.682171
O O11 0.209484 0.610015 0.656898
O O12 0.177328 0.655990 0.846748
O O13 0.500000 0.750000 0.836571
O O14 0.740865 0.137125 0.525547
O O15 0.790219 0.000000 0.500000
O O16 0.235729 0.750000 0.603461
#
# Coordination Sequence:
#
# PCOD8301003 Si02
#       7
#    16  16   8  16   8  16  16
#     4  10  21  38  59  83 112 151 192 232 285 348
#     4  11  22  34  56  84 111 146 188 228 279 335
#     4   9  20  36  53  76 112 150 182 225 282 335
#     4  11  19  33  57  81 109 149 182 225 287 340
#     4  11  22  33  51  87 119 139 180 238 288 332
#     4  11  20  36  54  81 114 145 181 231 278 329
#     4  11  20  35  56  81 110 146 188 226 279 349
#
# _framework density 19.622174000000001
#
# number of rings (size 3 to 8) (size 9 to 14) (size 15 to 20)
#    0.000    1.333    5.000    3.000    2.333    2.000 
#    1.500    0.833    0.000    1.500    0.000    0.000 
#    0.000    0.000    0.000    0.000    0.000    0.000 
#
# Total GULP energy -594627.588701 kJ/mol
# GULP energy per Si atom -12388.074765 kJ/mol
# Density = 1.957751 g / cm^3
# Si number density = 19.622174 Si / 1000 Ang^3
#
#
#
# Elastic Constant Matrix: (Units=GPa)
#
#
# Indices 1 2 3 4 5 6 
#
# 1 68.0680 0.4604 14.1187 0.0000 0.0000 0.0000
# 2 0.4604 82.6144 5.6000 0.0000 0.0000 0.0000
# 3 14.1187 5.6000 74.1763 0.0000 0.0000 0.0000
# 4 0.0000 0.0000 0.0000 21.0317 0.0000 0.0000
# 5 0.0000 0.0000 0.0000 0.0000 29.2205 0.0000
# 6 0.0000 0.0000 0.0000 0.0000 0.0000 15.2807
#
#
#
# Elastic Compliance Matrix: (Units=1/GPa)
#
#
# Indices 1 2 3 4 5 6 
#
# 1 0.015296 0.000113 -0.002920 0.000000 0.000000 0.000000
# 2 0.000113 0.012168 -0.000940 0.000000 0.000000 0.000000
# 3 -0.002920 -0.000940 0.014108 0.000000 0.000000 0.000000
# 4 0.000000 0.000000 0.000000 0.047547 0.000000 0.000000
# 5 0.000000 0.000000 0.000000 0.000000 0.034222 0.000000
# 6 0.000000 0.000000 0.000000 0.000000 0.000000 0.065442
#
#
# Mechanical properties :
#
#
# Convention : Reuss Voigt Hill
#
# Bulk Modulus (GPa) = 29.34522 29.46856 29.40689
# Shear Modulus (GPa) = 24.08049 26.75192 25.41620
#
# Velocity S-wave (km/s) = 3.50695 3.69636 3.60290
# Velocity P-wave (km/s) = 5.60231 5.76785 5.68568
#
# Compressibility (1/GPa) = 0.03407710
#
# Stress axis : x y z
#
# Youngs Moduli (GPa) = 65.37625 82.18604 70.88108
#
# Poissons Ratio (x) = -0.00926 0.20697
# Poissons Ratio (y) = -0.00737 0.06663
# Poissons Ratio (z) = 0.19090 0.07726
#
# Static dielectric constant tensor:
#      x y z
#    x 3.520920 0.000000 0.000000 
#    y 0.000000 3.674990 0.000000 
#    z 0.000000 0.000000 3.660920 
# 
# 
# High freq. dielectric constant tensor:
#      x y z
#    x 1.744980 0.000000 0.000000 
#    y 0.000000 1.764460 0.000000 
#    z 0.000000 0.000000 1.740220 
# 
# From -- ./inp_files/25203.got.cif
#   From: 2010.03.12/outbox.cif.g09.slc.cpg/sg74_13_cif.got.tgz:25203.got - 2010.04.16 15:46:19.
