data_PCOD8301677
_publ_section_title
;
Structure prediction by ZEFSAII (Michael W. Deem and Ramdas Pophale) SiO2 
 PCOD8301677
Probable space group: I M M A
;
_chemical_formula_sum "Si O2"
_cell_formula_units_Z 112
_cell_length_a 17.038762
_cell_length_b 28.500008
_cell_length_c 11.985761
_cell_angle_alpha 90.000000
_cell_angle_beta 90.000000
_cell_angle_gamma 90.000000
_cell_volume 5820.343712
_symmetry_space_group_name_H-M "I M M A"
_symmetry_group_IT_number 74
_symmetry_cell_setting 'orthorhombic'
loop_
_space_group_symop_operation_xyz
x,y,z
-x,1/2-y,z
x,-y,-z
-x,1/2+y,-z
-x,-y,-z
x,1/2+y,-z
-x,y,z
x,1/2-y,z
1/2+x,1/2+y,1/2+z
1/2-x,-y,1/2+z
1/2+x,1/2-y,1/2-z
1/2-x,y,1/2-z
1/2-x,1/2-y,1/2-z
1/2+x,y,1/2-z
1/2-x,1/2+y,1/2+z
1/2+x,-y,1/2+z
loop_
_atom_site_type_symbol
_atom_site_label
_atom_site_fract_x
_atom_site_fract_y
_atom_site_fract_z
Si Si1 0.838006 0.891503 0.388471
Si Si2 0.910234 0.046338 0.440454
Si Si3 0.589890 0.197077 0.795873
Si Si4 0.833363 0.961460 0.787370
Si Si5 0.828474 0.393633 0.006393
Si Si6 0.409282 0.443067 0.682584
Si Si7 0.090334 0.303041 0.965909
O O1 0.899303 0.908807 0.481141
O O2 0.852975 0.836732 0.364904
O O3 0.750666 0.898348 0.434553
O O4 0.852904 0.921365 0.276895
O O5 0.872624 0.059559 0.322809
O O6 0.000000 0.035208 0.417550
O O7 0.871919 0.000000 0.500000
O O8 0.500000 0.187027 0.828954
O O9 0.613731 0.250000 0.826990
O O10 0.600841 0.187885 0.665298
O O11 0.750000 0.982420 0.750000
O O12 0.886401 0.002872 0.837494
O O13 0.820996 0.920034 0.876426
O O14 0.898274 0.416376 0.933961
O O15 0.852987 0.339568 0.030269
O O16 0.500000 0.438786 0.719842
O O17 0.116090 0.250000 0.996572
O O18 0.000000 0.310833 0.000852
#
# Coordination Sequence:
#
# PCOD8301677 Si02
#       7
#    16  16  16  16  16  16  16
#     4  12  22  38  60  91 126 162 196 250 308 369
#     4  11  23  40  64  86 112 162 212 250 299 364
#     4   9  18  34  59  90 124 159 196 247 306 365
#     4  12  25  43  59  84 126 163 207 256 300 356
#     4  12  25  38  61  91 127 163 201 252 313 364
#     4  12  25  39  60  90 123 162 208 251 300 363
#     4   9  19  37  61  90 125 161 200 249 308 374
#
# _framework density 19.242850000000001
#
# number of rings (size 3 to 8) (size 9 to 14) (size 15 to 20)
#    0.000    1.000    4.286    4.714    0.000    3.429 
#    0.000    1.429    0.000    1.286    0.000    2.000 
#    0.000    0.000    0.000    0.000    0.000    0.000 
#
# Total GULP energy -694473.763729 kJ/mol
# GULP energy per Si atom -12401.317209 kJ/mol
# Density = 1.919905 g / cm^3
# Si number density = 19.242850 Si / 1000 Ang^3
#
#
#
# Elastic Constant Matrix: (Units=GPa)
#
#
# Indices 1 2 3 4 5 6 
#
# 1 84.8236 40.1634 38.2379 0.0002 0.0000 0.0000
# 2 40.1634 126.5731 45.7331 0.0001 -0.0001 0.0000
# 3 38.2379 45.7331 83.4786 -0.0015 0.0001 0.0005
# 4 0.0002 0.0001 -0.0015 24.5604 0.0002 0.0001
# 5 0.0000 -0.0001 0.0001 0.0002 25.6776 -0.0002
# 6 0.0000 0.0000 0.0005 0.0001 -0.0002 23.6528
#
#
#
# Elastic Compliance Matrix: (Units=1/GPa)
#
#
# Indices 1 2 3 4 5 6 
#
# 1 0.015706 -0.002973 -0.005565 0.000000 0.000000 0.000000
# 2 -0.002973 0.010413 -0.004343 0.000000 0.000000 0.000000
# 3 -0.005565 -0.004343 0.016908 0.000001 0.000000 0.000000
# 4 0.000000 0.000000 0.000001 0.040716 0.000000 0.000000
# 5 0.000000 0.000000 0.000000 0.000000 0.038944 0.000000
# 6 0.000000 0.000000 0.000000 0.000000 0.000000 0.042278
#
#
# Mechanical properties :
#
#
# Convention : Reuss Voigt Hill
#
# Bulk Modulus (GPa) = 57.92419 60.34932 59.13675
# Shear Modulus (GPa) = 25.44762 26.16091 25.80426
#
# Velocity S-wave (km/s) = 3.64049 3.69116 3.66591
# Velocity P-wave (km/s) = 6.91649 7.04246 6.97976
#
# Compressibility (1/GPa) = 0.01726394
#
# Stress axis : x y z
#
# Youngs Moduli (GPa) = 63.67151 96.03311 59.14454
#
# Poissons Ratio (x) = 0.28548 0.32917
# Poissons Ratio (y) = 0.18928 0.25687
# Poissons Ratio (z) = 0.35436 0.41708
#
# Static dielectric constant tensor:
#      x y z
#    x 3.497150 0.000000 0.000000 
#    y 0.000000 3.595510 0.000000 
#    z 0.000000 0.000000 3.328600 
# 
# 
# High freq. dielectric constant tensor:
#      x y z
#    x 1.752900 0.000000 0.000000 
#    y 0.000000 1.748870 0.000000 
#    z 0.000000 0.000000 1.723660 
# 
# From -- ./inp_files/21106.got.cif
#   From: 2010.03.12/outbox.cif.g09.slc.cpg/sg74_11_cif.got.tgz:21106.got - 2010.04.16 15:46:19.
