data_PCOD8301064
_publ_section_title
;
Structure prediction by ZEFSAII (Michael W. Deem and Ramdas Pophale) SiO2 
 PCOD8301064
Probable space group: I M M A
;
_chemical_formula_sum "Si O2"
_cell_formula_units_Z 68
_cell_length_a 22.136534
_cell_length_b 7.564088
_cell_length_c 19.190932
_cell_angle_alpha 90.000000
_cell_angle_beta 90.000000
_cell_angle_gamma 90.000000
_cell_volume 3213.381301
_symmetry_space_group_name_H-M "I M M A"
_symmetry_group_IT_number 74
_symmetry_cell_setting 'orthorhombic'
loop_
_space_group_symop_operation_xyz
x,y,z
-x,1/2-y,z
x,-y,-z
-x,1/2+y,-z
-x,-y,-z
x,1/2+y,-z
-x,y,z
x,1/2-y,z
1/2+x,1/2+y,1/2+z
1/2-x,-y,1/2+z
1/2+x,1/2-y,1/2-z
1/2-x,y,1/2-z
1/2-x,1/2-y,1/2-z
1/2+x,y,1/2-z
1/2-x,1/2+y,1/2+z
1/2+x,-y,1/2+z
loop_
_atom_site_type_symbol
_atom_site_label
_atom_site_fract_x
_atom_site_fract_y
_atom_site_fract_z
Si Si1 0.734772 0.958520 0.673908
Si Si2 0.066141 0.750000 0.380717
Si Si3 0.500000 0.750000 0.252144
Si Si4 0.344876 0.545367 0.923272
Si Si5 0.000000 0.040018 0.134301
Si Si6 0.371924 0.543843 0.578644
O O1 0.726402 0.750000 0.681259
O O2 0.750000 0.041065 0.750000
O O3 0.791041 0.009950 0.626825
O O4 0.674630 0.039213 0.635923
O O5 0.097521 0.571137 0.405164
O O6 0.000000 0.750000 0.416171
O O7 0.059930 0.750000 0.296467
O O8 0.500000 0.567823 0.294427
O O9 0.363032 0.750000 0.915473
O O10 0.321617 0.500000 0.000000
O O11 0.059442 0.978378 0.091555
O O12 0.000000 0.250000 0.150391
O O13 0.351878 0.500000 0.500000
O O14 0.369010 0.750000 0.589320
#
# Coordination Sequence:
#
# PCOD8301064 Si02
#       6
#    16   8   4  16   8  16
#     4   9  20  37  62  92 127 168 215 262 320 380
#     4  10  26  44  62  99 126 155 221 261 316 391
#     4  10  26  44  62  96 132 152 214 268 308 386
#     4  11  22  42  67  90 128 171 207 268 321 377
#     4  10  23  41  68  92 131 175 208 256 326 379
#     4  10  21  38  61  94 127 168 217 261 317 382
#
# _framework density 21.161508999999999
#
# number of rings (size 3 to 8) (size 9 to 14) (size 15 to 20)
#    0.353    1.647    1.176    1.059    4.941    1.882 
#    2.118    0.588    0.000    0.000    0.000    0.000 
#    0.000    0.000    0.000    0.000    0.000    0.000 
#
# Total GULP energy -421429.349965 kJ/mol
# GULP energy per Si atom -12394.980881 kJ/mol
# Density = 2.111334 g / cm^3
# Si number density = 21.161509 Si / 1000 Ang^3
#
#
#
# Elastic Constant Matrix: (Units=GPa)
#
#
# Indices 1 2 3 4 5 6 
#
# 1 178.3421 42.4276 90.2329 0.0000 0.0000 0.0000
# 2 42.4276 71.2417 20.4405 0.0000 0.0000 0.0000
# 3 90.2329 20.4405 192.1762 0.0000 0.0000 0.0000
# 4 0.0000 0.0000 0.0000 12.2475 0.0000 0.0000
# 5 0.0000 0.0000 0.0000 0.0000 37.3051 0.0000
# 6 0.0000 0.0000 0.0000 0.0000 0.0000 -4.2280
#
#
#
# Elastic Compliance Matrix: (Units=1/GPa)
#
#
# Indices 1 2 3 4 5 6 
#
# 1 0.008308 -0.003949 -0.003481 0.000000 0.000000 0.000000
# 2 -0.003949 0.016356 0.000115 0.000000 0.000000 0.000000
# 3 -0.003481 0.000115 0.006826 0.000000 0.000000 0.000000
# 4 0.000000 0.000000 0.000000 0.081650 0.000000 0.000000
# 5 0.000000 0.000000 0.000000 0.000000 0.026806 0.000000
# 6 0.000000 0.000000 0.000000 0.000000 0.000000 -0.236518
#
#
# Mechanical properties :
#
#
# Convention : Reuss Voigt Hill
#
# Bulk Modulus (GPa) = 59.31637 83.10688 71.21162
# Shear Modulus (GPa) = -65.51065 28.30885 -18.60090
#
# Velocity S-wave (km/s) = -5.56998 3.66150 -2.96800
# Velocity P-wave (km/s) = 3.64349 7.56527 4.68819
#
# Compressibility (1/GPa) = 0.01685875
#
# Stress axis : x y z
#
# Youngs Moduli (GPa) = 120.36957 61.14101 146.50526
#
# Poissons Ratio (x) = 0.24144 0.50995
# Poissons Ratio (y) = 0.47533 -0.01678
# Poissons Ratio (z) = 0.41897 -0.00700
#
# Static dielectric constant tensor:
#      x y z
#    x 4.109750 0.000000 0.000000 
#    y 0.000000 3.574710 0.000000 
#    z 0.000000 0.000000 3.304080 
# 
# 
# High freq. dielectric constant tensor:
#      x y z
#    x 1.833890 0.000000 0.000000 
#    y 0.000000 1.818790 0.000000 
#    z 0.000000 0.000000 1.837320 
# 
# From -- ./inp_files/44873.got.cif
#   From: 2010.03.12/outbox.cif.g09.slc.cpg/sg74_23_cif.got.tgz:44873.got - 2010.04.16 15:46:19.
