data_PCOD8301418
_publ_section_title
;
Structure prediction by ZEFSAII (Michael W. Deem and Ramdas Pophale) SiO2 
 PCOD8301418
Probable space group: I M M A
;
_chemical_formula_sum "Si O2"
_cell_formula_units_Z 68
_cell_length_a 7.835190
_cell_length_b 21.682017
_cell_length_c 18.990367
_cell_angle_alpha 90.000000
_cell_angle_beta 90.000000
_cell_angle_gamma 90.000000
_cell_volume 3226.135253
_symmetry_space_group_name_H-M "I M M A"
_symmetry_group_IT_number 74
_symmetry_cell_setting 'orthorhombic'
loop_
_space_group_symop_operation_xyz
x,y,z
-x,1/2-y,z
x,-y,-z
-x,1/2+y,-z
-x,-y,-z
x,1/2+y,-z
-x,y,z
x,1/2-y,z
1/2+x,1/2+y,1/2+z
1/2-x,-y,1/2+z
1/2+x,1/2-y,1/2-z
1/2-x,y,1/2-z
1/2-x,1/2-y,1/2-z
1/2+x,y,1/2-z
1/2-x,1/2+y,1/2+z
1/2+x,-y,1/2+z
loop_
_atom_site_type_symbol
_atom_site_label
_atom_site_fract_x
_atom_site_fract_y
_atom_site_fract_z
Si Si1 0.303829 0.518818 0.424097
Si Si2 0.687173 0.250000 0.613363
Si Si3 0.000000 0.817735 0.624683
Si Si4 0.000000 0.250000 0.509281
Si Si5 0.694344 0.873119 0.174229
Si Si6 0.303717 0.598255 0.672733
O O1 0.223599 0.500000 0.500000
O O2 0.500000 0.537216 0.434445
O O3 0.214262 0.577354 0.388415
O O4 0.278074 0.460846 0.374716
O O5 0.500000 0.250000 0.577523
O O6 0.698518 0.188801 0.660927
O O7 0.829281 0.250000 0.553905
O O8 0.824594 0.849315 0.647331
O O9 0.000000 0.750000 0.660515
O O10 0.000000 0.811302 0.539569
O O11 0.500000 0.852555 0.176468
O O12 0.750000 0.901418 0.250000
O O13 0.500000 0.622268 0.670275
O O14 0.250000 0.577164 0.750000
#
# Coordination Sequence:
#
# PCOD8301418 Si02
#       6
#    16   8   8   4  16  16
#     4  10  24  42  66  99 134 175 229 277 342 408
#     4  12  25  45  73  97 143 181 220 278 340 405
#     4  10  26  44  68  99 136 167 233 277 330 421
#     4  10  26  48  62 108 134 168 230 272 340 406
#     4  12  25  43  68 102 137 179 230 281 335 409
#     4  11  23  43  69  96 134 180 222 285 341 403
#
# _framework density 21.077853000000001
#
# number of rings (size 3 to 8) (size 9 to 14) (size 15 to 20)
#    0.353    0.706    2.353    3.176    4.941    4.235 
#    0.000    0.000    0.000    0.000    0.000    0.000 
#    0.000    0.000    0.000    0.000    0.000    0.000 
#
# Total GULP energy -421577.541566 kJ/mol
# GULP energy per Si atom -12399.339458 kJ/mol
# Density = 2.102988 g / cm^3
# Si number density = 21.077853 Si / 1000 Ang^3
#
#
#
# Elastic Constant Matrix: (Units=GPa)
#
#
# Indices 1 2 3 4 5 6 
#
# 1 161.4249 57.8916 52.6944 0.0000 0.0000 0.0000
# 2 57.8916 116.0561 52.7925 0.0000 0.0000 0.0000
# 3 52.6944 52.7925 165.5493 0.0000 0.0000 0.0000
# 4 0.0000 0.0000 0.0000 22.6125 0.0000 0.0000
# 5 0.0000 0.0000 0.0000 0.0000 12.0550 0.0000
# 6 0.0000 0.0000 0.0000 0.0000 0.0000 20.2285
#
#
#
# Elastic Compliance Matrix: (Units=1/GPa)
#
#
# Indices 1 2 3 4 5 6 
#
# 1 0.007835 -0.003244 -0.001459 0.000000 0.000000 0.000000
# 2 -0.003244 0.011422 -0.002610 0.000000 0.000000 0.000000
# 3 -0.001459 -0.002610 0.007337 0.000000 0.000000 0.000000
# 4 0.000000 0.000000 0.000000 0.044223 0.000000 0.000000
# 5 0.000000 0.000000 0.000000 0.000000 0.082953 0.000000
# 6 0.000000 0.000000 0.000000 0.000000 0.000000 0.049435
#
#
# Mechanical properties :
#
#
# Convention : Reuss Voigt Hill
#
# Bulk Modulus (GPa) = 83.56068 85.53193 84.54631
# Shear Modulus (GPa) = 22.54067 29.62265 26.08166
#
# Velocity S-wave (km/s) = 3.27372 3.75292 3.52148
# Velocity P-wave (km/s) = 7.34980 7.71015 7.53213
#
# Compressibility (1/GPa) = 0.01196735
#
# Stress axis : x y z
#
# Youngs Moduli (GPa) = 127.63776 87.55022 136.29222
#
# Poissons Ratio (x) = 0.28404 0.19887
# Poissons Ratio (y) = 0.41410 0.35568
# Poissons Ratio (z) = 0.18625 0.22848
#
# Static dielectric constant tensor:
#      x y z
#    x 3.930210 0.000000 0.000000 
#    y 0.000000 0.044850 0.000000 
#    z 0.000000 0.000000 4.067300 
# 
# 
# High freq. dielectric constant tensor:
#      x y z
#    x 1.838200 0.000000 0.000000 
#    y 0.000000 1.823770 0.000000 
#    z 0.000000 0.000000 1.835610 
# 
# From -- ./inp_files/39228.got.cif
#   From: 2010.03.12/outbox.cif.g09.slc.cpg/sg74_20_cif.got.tgz:39228.got - 2010.04.16 15:46:19.
