data_PCOD8301934
_publ_section_title
;
Structure prediction by ZEFSAII (Michael W. Deem and Ramdas Pophale) SiO2 
 PCOD8301934
Probable space group: P 41
;
_chemical_formula_sum "Si O2"
_cell_formula_units_Z 28
_cell_length_a 12.230940
_cell_length_b 12.230940
_cell_length_c 9.696625
_cell_angle_alpha 90.000000
_cell_angle_beta 90.000000
_cell_angle_gamma 90.000000
_cell_volume 1450.575279
_symmetry_space_group_name_H-M "P 41"
_symmetry_group_IT_number 76
_symmetry_cell_setting 'tetragonal'
loop_
_space_group_symop_operation_xyz
x,y,z
-y,x,1/4+z
-x,-y,1/2+z
y,-x,3/4+z
loop_
_atom_site_type_symbol
_atom_site_label
_atom_site_fract_x
_atom_site_fract_y
_atom_site_fract_z
Si Si1 0.367837 0.163258 0.817010
Si Si2 0.139699 0.396094 0.449479
Si Si3 0.482357 0.606892 0.971662
Si Si4 0.266888 0.703835 0.840480
Si Si5 0.082120 0.386598 0.134609
Si Si6 0.327242 0.234761 0.527168
Si Si7 0.626518 0.912706 0.795000
O O1 0.494716 0.172790 0.779458
O O2 0.298518 0.203448 0.683933
O O3 0.338042 0.039623 0.862164
O O4 0.339869 0.249539 0.936170
O O5 0.102202 0.419608 0.293405
O O6 0.242621 0.316955 0.456487
O O7 0.038328 0.338919 0.526635
O O8 0.470523 0.540235 0.111853
O O9 0.551438 0.714588 0.009041
O O10 0.365248 0.640397 0.913239
O O11 0.293300 0.833071 0.836189
O O12 0.157127 0.680089 0.923658
O O13 0.098334 0.494303 0.040208
O O14 0.324372 0.122853 0.441402
#
# Coordination Sequence:
#
# PCOD8301934 Si02
#       7
#     4   4   4   4   4   4   4
#     4  11  26  38  64  99 125 161 228 264 312 383
#     4  11  23  41  67  91 129 176 216 262 319 389
#     4  12  25  38  60  92 136 170 201 256 327 395
#     4  12  22  40  63  92 125 168 209 264 326 378
#     4  11  21  42  64  90 132 165 212 269 317 383
#     4  12  23  43  62  92 132 169 211 269 318 390
#     4  11  22  40  66  90 121 175 221 250 319 384
#
# _framework density 19.302685
#
# number of rings (size 3 to 8) (size 9 to 14) (size 15 to 20)
#    0.000    0.571    7.143    0.857    4.000    2.286 
#    0.000    0.000    0.000    5.143    0.000    0.000 
#    0.000    0.000    0.000    0.000    0.000    0.000 
#
# Total GULP energy -347288.888889 kJ/mol
# GULP energy per Si atom -12403.174603 kJ/mol
# Density = 1.925875 g / cm^3
# Si number density = 19.302685 Si / 1000 Ang^3
#
#
#
# Elastic Constant Matrix: (Units=GPa)
#
#
# Indices 1 2 3 4 5 6 
#
# 1 68.0372 26.9366 21.4987 0.0000 0.0000 0.5518
# 2 26.9366 68.0372 21.4987 0.0000 0.0000 -0.5518
# 3 21.4987 21.4987 122.2781 0.0000 0.0000 0.0000
# 4 0.0000 0.0000 0.0000 37.3782 0.0000 0.0000
# 5 0.0000 0.0000 0.0000 0.0000 37.3782 0.0000
# 6 0.5518 -0.5518 0.0000 0.0000 0.0000 23.2343
#
#
#
# Elastic Compliance Matrix: (Units=1/GPa)
#
#
# Indices 1 2 3 4 5 6 
#
# 1 0.017893 -0.006453 -0.002011 0.000000 0.000000 -0.000578
# 2 -0.006453 0.017893 -0.002011 0.000000 0.000000 0.000578
# 3 -0.002011 -0.002011 0.008885 0.000000 0.000000 0.000000
# 4 0.000000 0.000000 0.000000 0.026754 0.000000 0.000000
# 5 0.000000 0.000000 0.000000 0.000000 0.026754 0.000000
# 6 -0.000578 0.000578 0.000000 0.000000 0.000000 0.043067
#
#
# Mechanical properties :
#
#
# Convention : Reuss Voigt Hill
#
# Bulk Modulus (GPa) = 42.15912 44.24670 43.20291
# Shear Modulus (GPa) = 29.39382 32.15938 30.77660
#
# Velocity S-wave (km/s) = 3.90652 4.08616 3.99735
# Velocity P-wave (km/s) = 6.49895 6.72567 6.61328
#
# Compressibility (1/GPa) = 0.02371966
#
# Stress axis : x y z
#
# Youngs Moduli (GPa) = 55.88794 55.88794 112.54506
#
# Poissons Ratio (x) = 0.36065 0.22636
# Poissons Ratio (y) = 0.36065 0.22636
# Poissons Ratio (z) = 0.11241 0.11241
#
# Static dielectric constant tensor:
#      x y z
#    x 3.519990 0.000000 0.000000 
#    y 0.000000 3.519990 0.000000 
#    z 0.000000 0.000000 3.747060 
# 
# 
# High freq. dielectric constant tensor:
#      x y z
#    x 1.741010 0.000000 0.000000 
#    y 0.000000 1.741010 0.000000 
#    z 0.000000 0.000000 1.767990 
# 
# From -- ./inp_files/604.got.cif
#   From: 2010.03.12/outbox.cif.g09.slc.cpg/sg76_cif.got.tgz:604.got - 2010.04.16 16:34:25.
