data_PCOD8301235
_publ_section_title
;
Structure prediction by ZEFSAII (Michael W. Deem and Ramdas Pophale) SiO2 
 PCOD8301235
Probable space group: I M M A
;
_chemical_formula_sum "Si O2"
_cell_formula_units_Z 64
_cell_length_a 23.939982
_cell_length_b 18.456654
_cell_length_c 7.235422
_cell_angle_alpha 90.000000
_cell_angle_beta 90.000000
_cell_angle_gamma 90.000000
_cell_volume 3196.985425
_symmetry_space_group_name_H-M "I M M A"
_symmetry_group_IT_number 74
_symmetry_cell_setting 'orthorhombic'
loop_
_space_group_symop_operation_xyz
x,y,z
-x,1/2-y,z
x,-y,-z
-x,1/2+y,-z
-x,-y,-z
x,1/2+y,-z
-x,y,z
x,1/2-y,z
1/2+x,1/2+y,1/2+z
1/2-x,-y,1/2+z
1/2+x,1/2-y,1/2-z
1/2-x,y,1/2-z
1/2-x,1/2-y,1/2-z
1/2+x,y,1/2-z
1/2-x,1/2+y,1/2+z
1/2+x,-y,1/2+z
loop_
_atom_site_type_symbol
_atom_site_label
_atom_site_fract_x
_atom_site_fract_y
_atom_site_fract_z
Si Si1 0.063536 0.667239 0.709144
Si Si2 0.235770 0.580162 0.462183
Si Si3 0.641167 0.084603 0.489234
Si Si4 0.363653 0.832698 0.130046
O O1 0.069797 0.750000 0.776313
O O2 0.081016 0.660698 0.494471
O O3 0.000000 0.640456 0.726434
O O4 0.101891 0.617941 0.835791
O O5 0.211985 0.500000 0.500000
O O6 0.250000 0.586860 0.250000
O O7 0.293588 0.595630 0.573492
O O8 0.187435 0.638737 0.499802
O O9 0.628024 0.120112 0.686912
O O10 0.627887 0.000000 0.500000
O O11 0.351474 0.750000 0.187450
#
# Coordination Sequence:
#
# PCOD8301235 Si02
#       4
#    16  16  16  16
#     4  10  23  41  60  84 116 158 205 247 291 345
#     4   9  20  34  57  86 118 153 189 234 301 359
#     4  10  22  38  60  89 118 154 191 244 298 355
#     4  10  22  38  60  87 119 156 197 244 296 352
#
# _framework density 20.018858000000002
#
# number of rings (size 3 to 8) (size 9 to 14) (size 15 to 20)
#    0.000    2.250    0.000    0.750   10.500    7.000 
#    0.000    6.250    0.000    0.000    0.000    0.000 
#    0.000    0.000    0.000    0.000    0.000    0.000 
#
# Total GULP energy -396748.055095 kJ/mol
# GULP energy per Si atom -12398.376722 kJ/mol
# Density = 1.997329 g / cm^3
# Si number density = 20.018858 Si / 1000 Ang^3
#
#
#
# Elastic Constant Matrix: (Units=GPa)
#
#
# Indices 1 2 3 4 5 6 
#
# 1 95.5002 64.4121 36.1558 0.0000 0.0000 0.0000
# 2 64.4121 138.8241 52.0509 0.0000 0.0000 0.0000
# 3 36.1558 52.0509 54.6408 0.0000 0.0000 0.0000
# 4 0.0000 0.0000 0.0000 35.1759 0.0000 0.0000
# 5 0.0000 0.0000 0.0000 0.0000 31.7584 0.0000
# 6 0.0000 0.0000 0.0000 0.0000 0.0000 -9.9242
#
#
#
# Elastic Compliance Matrix: (Units=1/GPa)
#
#
# Indices 1 2 3 4 5 6 
#
# 1 0.016257 -0.005460 -0.005556 0.000000 0.000000 0.000000
# 2 -0.005460 0.013039 -0.008809 0.000000 0.000000 0.000000
# 3 -0.005556 -0.008809 0.030369 0.000000 0.000000 0.000000
# 4 0.000000 0.000000 0.000000 0.028429 0.000000 0.000000
# 5 0.000000 0.000000 0.000000 0.000000 0.031488 0.000000
# 6 0.000000 0.000000 0.000000 0.000000 0.000000 -0.100763
#
#
# Mechanical properties :
#
#
# Convention : Reuss Voigt Hill
#
# Bulk Modulus (GPa) = 49.95964 66.02250 57.99107
# Shear Modulus (GPa) = 76.75781 20.49178 48.62479
#
# Velocity S-wave (km/s) = 6.19887 3.20288 4.93378
# Velocity P-wave (km/s) = 8.73185 6.83591 7.84139
#
# Compressibility (1/GPa) = 0.02001616
#
# Stress axis : x y z
#
# Youngs Moduli (GPa) = 61.51095 76.69136 32.92824
#
# Poissons Ratio (x) = 0.41872 0.18296
# Poissons Ratio (y) = 0.33583 0.29005
# Poissons Ratio (z) = 0.34178 0.67554
#
# Static dielectric constant tensor:
#      x y z
#    x 4.017340 0.000000 0.000000 
#    y 0.000000 3.644160 0.000000 
#    z 0.000000 0.000000 3.541930 
# 
# 
# High freq. dielectric constant tensor:
#      x y z
#    x 1.777590 0.000000 0.000000 
#    y 0.000000 1.784210 0.000000 
#    z 0.000000 0.000000 1.781640 
# 
# From -- ./inp_files/8780.got.cif
#   From: 2010.03.12/outbox.cif.g09.slc.cpg/sg74_5_cif.got.tgz:8780.got - 2010.04.16 15:46:19.
