data_PCOD8301984
_publ_section_title
;
Structure prediction by ZEFSAII (Michael W. Deem and Ramdas Pophale) SiO2 
 PCOD8301984
Probable space group: P 41
;
_chemical_formula_sum "Si O2"
_cell_formula_units_Z 24
_cell_length_a 9.239524
_cell_length_b 9.239524
_cell_length_c 10.554667
_cell_angle_alpha 90.000000
_cell_angle_beta 90.000000
_cell_angle_gamma 90.000000
_cell_volume 901.039296
_symmetry_space_group_name_H-M "P 41"
_symmetry_group_IT_number 76
_symmetry_cell_setting 'tetragonal'
loop_
_space_group_symop_operation_xyz
x,y,z
-y,x,1/4+z
-x,-y,1/2+z
y,-x,3/4+z
loop_
_atom_site_type_symbol
_atom_site_label
_atom_site_fract_x
_atom_site_fract_y
_atom_site_fract_z
Si Si1 0.264345 0.561085 0.497170
Si Si2 0.237222 0.674837 0.228250
Si Si3 0.268127 0.776863 0.894279
Si Si4 0.971058 0.893084 0.904145
Si Si5 0.010683 0.540011 0.702336
Si Si6 0.760398 0.537630 0.404308
O O1 0.213025 0.659229 0.379134
O O2 0.331620 0.408884 0.449696
O O3 0.126069 0.541951 0.588735
O O4 0.399783 0.640377 0.560345
O O5 0.189938 0.821150 0.162172
O O6 0.131464 0.556351 0.162244
O O7 0.343308 0.788867 0.758606
O O8 0.300832 0.618405 0.956256
O O9 0.096935 0.778014 0.874025
O O10 0.307609 0.923590 0.973266
O O11 0.970345 0.009536 0.790582
O O12 0.088666 0.486506 0.828900
#
# Coordination Sequence:
#
# PCOD8301984 Si02
#       6
#     4   4   4   4   4   4
#     4  12  27  53  82 121 166 229 290 376 459 537
#     4  12  30  50  84 120 173 221 300 364 451 549
#     4  12  30  50  84 120 173 221 300 364 451 549
#     4  12  32  56  86 126 174 236 296 366 456 544
#     4  12  28  48  82 126 166 226 288 372 450 540
#     4  12  27  53  82 121 166 229 290 376 459 537
#
# _framework density 26.635912000000001
#
# number of rings (size 3 to 8) (size 9 to 14) (size 15 to 20)
#    0.000    0.000    3.333    3.000   18.667    0.000 
#    0.000    0.000    0.000    0.000    0.000    0.000 
#    0.000    0.000    0.000    0.000    0.000    0.000 
#
# Total GULP energy -297471.443855 kJ/mol
# GULP energy per Si atom -12394.643494 kJ/mol
# Density = 2.657529 g / cm^3
# Si number density = 26.635912 Si / 1000 Ang^3
#
#
#
# Elastic Constant Matrix: (Units=GPa)
#
#
# Indices 1 2 3 4 5 6 
#
# 1 90.2914 35.4372 -7.6070 0.0000 0.0000 -20.6585
# 2 35.4372 90.2914 -7.6070 0.0000 0.0000 20.6585
# 3 -7.6070 -7.6070 79.3003 0.0000 0.0000 0.0000
# 4 0.0000 0.0000 0.0000 44.3144 0.0000 0.0000
# 5 0.0000 0.0000 0.0000 0.0000 44.3144 0.0000
# 6 -20.6585 20.6585 0.0000 0.0000 0.0000 28.4127
#
#
#
# Elastic Compliance Matrix: (Units=1/GPa)
#
#
# Indices 1 2 3 4 5 6 
#
# 1 0.024174 -0.016127 0.000772 0.000000 0.000000 0.029303
# 2 -0.016127 0.024174 0.000772 0.000000 0.000000 -0.029303
# 3 0.000772 0.000772 0.012758 0.000000 0.000000 0.000000
# 4 0.000000 0.000000 0.000000 0.022566 0.000000 0.000000
# 5 0.000000 0.000000 0.000000 0.000000 0.022566 0.000000
# 6 0.029303 -0.029303 0.000000 0.000000 0.000000 0.077807
#
#
# Mechanical properties :
#
#
# Convention : Reuss Voigt Hill
#
# Bulk Modulus (GPa) = 31.30852 33.36994 32.33923
# Shear Modulus (GPa) = 22.33554 39.38564 30.86059
#
# Velocity S-wave (km/s) = 2.89891 3.84952 3.40753
# Velocity P-wave (km/s) = 4.79424 5.68452 5.25825
#
# Compressibility (1/GPa) = 0.03194019
#
# Stress axis : x y z
#
# Youngs Moduli (GPa) = 41.36649 41.36649 78.37981
#
# Poissons Ratio (x) = 0.66712 -0.06050
# Poissons Ratio (y) = 0.66712 -0.06050
# Poissons Ratio (z) = -0.03193 -0.03193
#
# Static dielectric constant tensor:
#      x y z
#    x 5.216510 0.000000 0.000000 
#    y 0.000000 5.216510 0.000000 
#    z 0.000000 0.000000 5.049080 
# 
# 
# High freq. dielectric constant tensor:
#      x y z
#    x 2.083480 0.000000 0.000000 
#    y 0.000000 2.083480 0.000000 
#    z 0.000000 0.000000 2.091770 
# 
# From -- ./inp_files/853.got.cif
#   From: 2010.03.12/outbox.cif.g09.slc.cpg/sg76_cif.got.tgz:853.got - 2010.04.16 16:34:25.
