data_PCOD8301365
_publ_section_title
;
Structure prediction by ZEFSAII (Michael W. Deem and Ramdas Pophale) SiO2 
 PCOD8301365
Probable space group: I M M A
;
_chemical_formula_sum "Si O2"
_cell_formula_units_Z 104
_cell_length_a 20.703850
_cell_length_b 25.684549
_cell_length_c 9.110424
_cell_angle_alpha 90.000000
_cell_angle_beta 90.000000
_cell_angle_gamma 90.000000
_cell_volume 4844.641514
_symmetry_space_group_name_H-M "I M M A"
_symmetry_group_IT_number 74
_symmetry_cell_setting 'orthorhombic'
loop_
_space_group_symop_operation_xyz
x,y,z
-x,1/2-y,z
x,-y,-z
-x,1/2+y,-z
-x,-y,-z
x,1/2+y,-z
-x,y,z
x,1/2-y,z
1/2+x,1/2+y,1/2+z
1/2-x,-y,1/2+z
1/2+x,1/2-y,1/2-z
1/2-x,y,1/2-z
1/2-x,1/2-y,1/2-z
1/2+x,y,1/2-z
1/2-x,1/2+y,1/2+z
1/2+x,-y,1/2+z
loop_
_atom_site_type_symbol
_atom_site_label
_atom_site_fract_x
_atom_site_fract_y
_atom_site_fract_z
Si Si1 0.304769 0.250000 0.122826
Si Si2 0.616457 0.342559 0.492478
Si Si3 0.573844 0.922585 0.286800
Si Si4 0.569747 0.750000 0.680095
Si Si5 0.636159 0.000000 0.500000
Si Si6 0.674256 0.941284 0.028919
Si Si7 0.323172 0.079621 0.282060
Si Si8 0.255452 0.835951 0.080938
O O1 0.250000 0.250000 0.250000
O O2 0.374231 0.250000 0.199738
O O3 0.304092 0.199012 0.016671
O O4 0.588321 0.365496 0.645387
O O5 0.570186 0.298924 0.429448
O O6 0.626695 0.384051 0.364048
O O7 0.686796 0.319327 0.518747
O O8 0.500000 0.926385 0.234220
O O9 0.587635 0.961434 0.418978
O O10 0.619517 0.936436 0.150898
O O11 0.500000 0.750000 0.760778
O O12 0.682868 0.972950 0.620584
O O13 0.730809 0.898567 0.065149
O O14 0.641554 0.927926 0.873468
O O15 0.702068 0.000000 0.000000
O O16 0.250000 0.100834 0.250000
O O17 0.250000 0.820030 0.250000
#
# Coordination Sequence:
#
# PCOD8301365 Si02
#       8
#     8  16  16   8   8  16  16  16
#     4  12  25  46  81 106 137 180 241 302 345 421
#     4  11  23  44  71 100 135 179 228 291 347 434
#     4  11  24  44  63  91 135 186 237 283 342 422
#     4  12  26  46  76 110 142 184 234 294 362 430
#     4  10  23  40  62  88 128 182 235 280 338 402
#     4  12  25  40  63 103 144 181 230 292 357 413
#     4  11  23  37  64  99 136 171 225 287 354 413
#     4  12  24  45  72 110 142 178 234 297 372 416
#
# _framework density 21.467016999999998
#
# number of rings (size 3 to 8) (size 9 to 14) (size 15 to 20)
#    0.000    0.615    6.154    1.846    1.077    0.923 
#    0.000    3.846    0.000    0.000    0.000    0.000 
#    0.000    0.000    0.000    0.000    0.000    0.000 
#
# Total GULP energy -644307.632498 kJ/mol
# GULP energy per Si atom -12390.531394 kJ/mol
# Density = 2.141816 g / cm^3
# Si number density = 21.467017 Si / 1000 Ang^3
#
#
#
# Elastic Constant Matrix: (Units=GPa)
#
#
# Indices 1 2 3 4 5 6 
#
# 1 114.3736 34.1684 38.6335 0.0000 0.0000 0.0000
# 2 34.1684 112.5975 44.6760 0.0000 0.0000 0.0000
# 3 38.6335 44.6760 154.9541 0.0000 0.0000 0.0000
# 4 0.0000 0.0000 0.0000 44.5459 0.0000 0.0000
# 5 0.0000 0.0000 0.0000 0.0000 28.6837 0.0000
# 6 0.0000 0.0000 0.0000 0.0000 0.0000 32.0675
#
#
#
# Elastic Compliance Matrix: (Units=1/GPa)
#
#
# Indices 1 2 3 4 5 6 
#
# 1 0.010058 -0.002323 -0.001838 0.000000 0.000000 0.000000
# 2 -0.002323 0.010565 -0.002467 0.000000 0.000000 0.000000
# 3 -0.001838 -0.002467 0.007623 0.000000 0.000000 0.000000
# 4 0.000000 0.000000 0.000000 0.022449 0.000000 0.000000
# 5 0.000000 0.000000 0.000000 0.000000 0.034863 0.000000
# 6 0.000000 0.000000 0.000000 0.000000 0.000000 0.031184
#
#
# Mechanical properties :
#
#
# Convention : Reuss Voigt Hill
#
# Bulk Modulus (GPa) = 66.70918 68.54231 67.62574
# Shear Modulus (GPa) = 37.03858 38.68923 37.86391
#
# Velocity S-wave (km/s) = 4.15827 4.24991 4.20434
# Velocity P-wave (km/s) = 7.36190 7.48871 7.42558
#
# Compressibility (1/GPa) = 0.01499044
#
# Stress axis : x y z
#
# Youngs Moduli (GPa) = 99.42266 94.65302 131.18166
#
# Poissons Ratio (x) = 0.21987 0.24111
# Poissons Ratio (y) = 0.23095 0.32361
# Poissons Ratio (z) = 0.18273 0.23350
#
# Static dielectric constant tensor:
#      x y z
#    x 3.499670 0.000000 0.000000 
#    y 0.000000 4.158980 0.000000 
#    z 0.000000 0.000000 4.325380 
# 
# 
# High freq. dielectric constant tensor:
#      x y z
#    x 1.809860 0.000000 0.000000 
#    y 0.000000 1.846890 0.000000 
#    z 0.000000 0.000000 1.863670 
# 
# From -- ./inp_files/12840.got.cif
#   From: 2010.03.12/outbox.cif.g09.slc.cpg/sg74_7_cif.got.tgz:12840.got - 2010.04.16 15:46:19.
