data_PCOD8301768
_publ_section_title
;
Structure prediction by ZEFSAII (Michael W. Deem and Ramdas Pophale) SiO2 
 PCOD8301768
Probable space group: I M M A
;
_chemical_formula_sum "Si O2"
_cell_formula_units_Z 80
_cell_length_a 15.182032
_cell_length_b 9.324354
_cell_length_c 29.784045
_cell_angle_alpha 90.000000
_cell_angle_beta 90.000000
_cell_angle_gamma 90.000000
_cell_volume 4216.308064
_symmetry_space_group_name_H-M "I M M A"
_symmetry_group_IT_number 74
_symmetry_cell_setting 'orthorhombic'
loop_
_space_group_symop_operation_xyz
x,y,z
-x,1/2-y,z
x,-y,-z
-x,1/2+y,-z
-x,-y,-z
x,1/2+y,-z
-x,y,z
x,1/2-y,z
1/2+x,1/2+y,1/2+z
1/2-x,-y,1/2+z
1/2+x,1/2-y,1/2-z
1/2-x,y,1/2-z
1/2-x,1/2-y,1/2-z
1/2+x,y,1/2-z
1/2-x,1/2+y,1/2+z
1/2+x,-y,1/2+z
loop_
_atom_site_type_symbol
_atom_site_label
_atom_site_fract_x
_atom_site_fract_y
_atom_site_fract_z
Si Si1 0.395704 0.907430 0.960044
Si Si2 0.752103 0.580047 0.800047
Si Si3 0.097660 0.921510 0.638321
Si Si4 0.398519 0.582799 0.630655
Si Si5 0.895229 0.587154 0.042742
O O1 0.500000 0.896506 0.966127
O O2 0.353139 0.750000 0.963479
O O3 0.375092 0.977191 0.911370
O O4 0.352784 0.000000 0.000000
O O5 0.743807 0.750000 0.797258
O O6 0.750000 0.513615 0.750000
O O7 0.667534 0.516983 0.826228
O O8 0.841603 0.537035 0.825882
O O9 0.097758 0.750000 0.636730
O O10 0.000000 0.976672 0.651685
O O11 0.500000 0.549242 0.642247
O O12 0.384992 0.750000 0.618992
O O13 0.364467 0.492493 0.588105
O O14 0.858948 0.750000 0.042282
O O15 0.000000 0.587648 0.040629
O O16 0.857324 0.500000 0.000000
#
# Coordination Sequence:
#
# PCOD8301768 Si02
#       5
#    16  16  16  16  16
#     4   8  13  22  38  60  84 110 138 168 206 252
#     4   9  17  28  43  64  89 118 154 196 238 277
#     4   8  14  25  41  61  86 115 146 182 225 270
#     4   9  17  29  45  67  96 126 155 191 235 281
#     4   9  16  27  46  71  97 126 159 192 228 274
#
# _framework density 18.973945000000001
#
# number of rings (size 3 to 8) (size 9 to 14) (size 15 to 20)
#    0.000    3.400    0.000    1.800    0.000    3.200 
#    0.000    5.000    0.000    4.200    0.000    0.000 
#    0.000    6.400    0.000    0.000    0.000    0.000 
#
# Total GULP energy -495750.688908 kJ/mol
# GULP energy per Si atom -12393.767223 kJ/mol
# Density = 1.893076 g / cm^3
# Si number density = 18.973945 Si / 1000 Ang^3
#
#
#
# Elastic Constant Matrix: (Units=GPa)
#
#
# Indices 1 2 3 4 5 6 
#
# 1 81.2972 21.7845 73.7760 0.0000 0.0000 0.0000
# 2 21.7845 59.6924 50.7446 0.0000 0.0000 0.0000
# 3 73.7760 50.7446 197.2241 0.0000 0.0000 0.0000
# 4 0.0000 0.0000 0.0000 22.1602 0.0000 0.0000
# 5 0.0000 0.0000 0.0000 0.0000 19.8136 0.0000
# 6 0.0000 0.0000 0.0000 0.0000 0.0000 7.3339
#
#
#
# Elastic Compliance Matrix: (Units=1/GPa)
#
#
# Indices 1 2 3 4 5 6 
#
# 1 0.018681 -0.001123 -0.006699 0.000000 0.000000 0.000000
# 2 -0.001123 0.021510 -0.005115 0.000000 0.000000 0.000000
# 3 -0.006699 -0.005115 0.008892 0.000000 0.000000 0.000000
# 4 0.000000 0.000000 0.000000 0.045126 0.000000 0.000000
# 5 0.000000 0.000000 0.000000 0.000000 0.050470 0.000000
# 6 0.000000 0.000000 0.000000 0.000000 0.000000 0.136354
#
#
# Mechanical properties :
#
#
# Convention : Reuss Voigt Hill
#
# Bulk Modulus (GPa) = 43.08354 70.09156 56.58755
# Shear Modulus (GPa) = 15.89106 22.65543 19.27324
#
# Velocity S-wave (km/s) = 2.89713 3.45922 3.19058
# Velocity P-wave (km/s) = 5.82642 7.27847 6.59254
#
# Compressibility (1/GPa) = 0.02321072
#
# Stress axis : x y z
#
# Youngs Moduli (GPa) = 53.53121 46.48988 112.45746
#
# Poissons Ratio (x) = 0.05219 0.75336
# Poissons Ratio (y) = 0.06009 0.57516
# Poissons Ratio (z) = 0.35861 0.23777
#
# Static dielectric constant tensor:
#      x y z
#    x 3.330070 0.000000 0.000000 
#    y 0.000000 3.222180 0.000000 
#    z 0.000000 0.000000 3.752870 
# 
# 
# High freq. dielectric constant tensor:
#      x y z
#    x 1.721900 0.000000 0.000000 
#    y 0.000000 1.682760 0.000000 
#    z 0.000000 0.000000 1.741350 
# 
# From -- ./inp_files/66886.got.cif
#   From: 2010.03.12/outbox.cif.g09.slc.cpg/sg74_34_cif.got.tgz:66886.got - 2010.04.16 15:46:19.
