data_PCOD8301649
_publ_section_title
;
Structure prediction by ZEFSAII (Michael W. Deem and Ramdas Pophale) SiO2 
 PCOD8301649
Probable space group: I M M A
;
_chemical_formula_sum "Si O2"
_cell_formula_units_Z 64
_cell_length_a 17.773779
_cell_length_b 21.938015
_cell_length_c 7.563515
_cell_angle_alpha 90.000000
_cell_angle_beta 90.000000
_cell_angle_gamma 90.000000
_cell_volume 2949.176587
_symmetry_space_group_name_H-M "I M M A"
_symmetry_group_IT_number 74
_symmetry_cell_setting 'orthorhombic'
loop_
_space_group_symop_operation_xyz
x,y,z
-x,1/2-y,z
x,-y,-z
-x,1/2+y,-z
-x,-y,-z
x,1/2+y,-z
-x,y,z
x,1/2-y,z
1/2+x,1/2+y,1/2+z
1/2-x,-y,1/2+z
1/2+x,1/2-y,1/2-z
1/2-x,y,1/2-z
1/2-x,1/2-y,1/2-z
1/2+x,y,1/2-z
1/2-x,1/2+y,1/2+z
1/2+x,-y,1/2+z
loop_
_atom_site_type_symbol
_atom_site_label
_atom_site_fract_x
_atom_site_fract_y
_atom_site_fract_z
Si Si1 0.414148 0.621979 0.775389
Si Si2 0.312469 0.680542 0.477704
Si Si3 0.343555 0.129762 0.873045
Si Si4 0.834254 0.001874 0.207627
O O1 0.500000 0.630415 0.716672
O O2 0.362762 0.659212 0.640019
O O3 0.391614 0.551343 0.784478
O O4 0.403157 0.646858 0.975008
O O5 0.287524 0.750000 0.509730
O O6 0.357408 0.675287 0.291778
O O7 0.239827 0.637047 0.458106
O O8 0.353139 0.061261 0.802718
O O9 0.750000 0.023293 0.250000
O O10 0.848262 0.000000 0.000000
#
# Coordination Sequence:
#
# PCOD8301649 Si02
#       4
#    16  16  16  16
#     4  12  27  42  63  99 142 184 219 268 342 416
#     4  11  24  46  72 100 130 172 235 291 332 392
#     4  11  22  43  71 102 127 171 227 287 341 399
#     4  12  21  40  69 100 136 171 222 285 343 401
#
# _framework density 21.700972
#
# number of rings (size 3 to 8) (size 9 to 14) (size 15 to 20)
#    0.000    0.500    5.000    6.000    0.000    7.000 
#    0.000    0.000    0.000    0.000    0.000    0.000 
#    0.000    0.000    0.000    0.000    0.000    0.000 
#
# Total GULP energy -396865.711279 kJ/mol
# GULP energy per Si atom -12402.053477 kJ/mol
# Density = 2.165158 g / cm^3
# Si number density = 21.700972 Si / 1000 Ang^3
#
#
#
# Elastic Constant Matrix: (Units=GPa)
#
#
# Indices 1 2 3 4 5 6 
#
# 1 47.0778 20.4774 36.8771 0.0000 0.0000 0.0000
# 2 20.4774 104.1189 30.1045 0.0000 0.0000 0.0000
# 3 36.8771 30.1045 144.7878 0.0000 0.0000 0.0000
# 4 0.0000 0.0000 0.0000 14.8895 0.0000 0.0000
# 5 0.0000 0.0000 0.0000 0.0000 20.3014 0.0000
# 6 0.0000 0.0000 0.0000 0.0000 0.0000 109.7585
#
#
#
# Elastic Compliance Matrix: (Units=1/GPa)
#
#
# Indices 1 2 3 4 5 6 
#
# 1 0.027771 -0.003635 -0.006317 0.000000 0.000000 0.000000
# 2 -0.003635 0.010695 -0.001298 0.000000 0.000000 0.000000
# 3 -0.006317 -0.001298 0.008786 0.000000 0.000000 0.000000
# 4 0.000000 0.000000 0.000000 0.067162 0.000000 0.000000
# 5 0.000000 0.000000 0.000000 0.000000 0.049258 0.000000
# 6 0.000000 0.000000 0.000000 0.000000 0.000000 0.009111
#
#
# Mechanical properties :
#
#
# Convention : Reuss Voigt Hill
#
# Bulk Modulus (GPa) = 40.40324 52.32249 46.36286
# Shear Modulus (GPa) = 24.56610 42.89157 33.72883
#
# Velocity S-wave (km/s) = 3.36821 4.45059 3.94668
# Velocity P-wave (km/s) = 5.81249 7.11149 6.49455
#
# Compressibility (1/GPa) = 0.02475049
#
# Stress axis : x y z
#
# Youngs Moduli (GPa) = 36.00852 93.50529 113.82371
#
# Poissons Ratio (x) = 0.33992 0.71907
# Poissons Ratio (y) = 0.13090 0.14771
# Poissons Ratio (z) = 0.22748 0.12135
#
# Static dielectric constant tensor:
#      x y z
#    x 3.632320 0.000000 0.000000 
#    y 0.000000 3.938140 0.000000 
#    z 0.000000 0.000000 4.462150 
# 
# 
# High freq. dielectric constant tensor:
#      x y z
#    x 1.811630 0.000000 0.000000 
#    y 0.000000 1.851730 0.000000 
#    z 0.000000 0.000000 1.883580 
# 
# From -- ./inp_files/8789.got.cif
#   From: 2010.03.12/outbox.cif.g09.slc.cpg/sg74_5_cif.got.tgz:8789.got - 2010.04.16 15:46:19.
