data_PCOD8301308
_publ_section_title
;
Structure prediction by ZEFSAII (Michael W. Deem and Ramdas Pophale) SiO2 
 PCOD8301308
Probable space group: I M M A
;
_chemical_formula_sum "Si O2"
_cell_formula_units_Z 64
_cell_length_a 12.506589
_cell_length_b 26.412730
_cell_length_c 10.208027
_cell_angle_alpha 90.000000
_cell_angle_beta 90.000000
_cell_angle_gamma 90.000000
_cell_volume 3372.049801
_symmetry_space_group_name_H-M "I M M A"
_symmetry_group_IT_number 74
_symmetry_cell_setting 'orthorhombic'
loop_
_space_group_symop_operation_xyz
x,y,z
-x,1/2-y,z
x,-y,-z
-x,1/2+y,-z
-x,-y,-z
x,1/2+y,-z
-x,y,z
x,1/2-y,z
1/2+x,1/2+y,1/2+z
1/2-x,-y,1/2+z
1/2+x,1/2-y,1/2-z
1/2-x,y,1/2-z
1/2-x,1/2-y,1/2-z
1/2+x,y,1/2-z
1/2-x,1/2+y,1/2+z
1/2+x,-y,1/2+z
loop_
_atom_site_type_symbol
_atom_site_label
_atom_site_fract_x
_atom_site_fract_y
_atom_site_fract_z
Si Si1 0.000000 0.968291 0.129595
Si Si2 0.818377 0.379106 0.381428
Si Si3 0.500000 0.309828 0.725554
Si Si4 0.500000 0.038053 0.119981
Si Si5 0.328130 0.616712 0.368479
Si Si6 0.000000 0.309499 0.468665
O O1 0.103520 0.933813 0.132477
O O2 0.000000 0.006904 0.248057
O O3 0.000000 0.000000 0.000000
O O4 0.750000 0.375526 0.250000
O O5 0.732831 0.379335 0.496168
O O6 0.894266 0.330325 0.397322
O O7 0.892543 0.428706 0.385529
O O8 0.500000 0.250000 0.707508
O O9 0.396513 0.332382 0.653555
O O10 0.500000 0.325952 0.878483
O O11 0.500000 0.000000 0.000000
O O12 0.250000 0.610167 0.250000
O O13 0.000000 0.250000 0.452683
#
# Coordination Sequence:
#
# PCOD8301308 Si02
#       6
#     8  16   8   8  16   8
#     4  11  24  38  57  89 123 157 205 253 295 352
#     4  11  24  41  62  91 126 162 200 248 309 366
#     4  10  22  40  65  95 121 152 204 260 304 354
#     4  11  24  40  61  87 125 165 204 249 301 361
#     4  11  22  39  64  90 119 159 206 251 296 356
#     4  10  22  42  65  90 123 159 199 252 308 366
#
# _framework density 18.979554
#
# number of rings (size 3 to 8) (size 9 to 14) (size 15 to 20)
#    0.000    1.250    2.500    3.000    3.500   11.000 
#    0.000    1.250    0.000    0.000    0.000    0.000 
#    0.000    0.000    0.000    0.000    0.000    0.000 
#
# Total GULP energy -396890.872790 kJ/mol
# GULP energy per Si atom -12402.839775 kJ/mol
# Density = 1.893636 g / cm^3
# Si number density = 18.979554 Si / 1000 Ang^3
#
#
#
# Elastic Constant Matrix: (Units=GPa)
#
#
# Indices 1 2 3 4 5 6 
#
# 1 166.7155 79.7616 97.0511 -0.0001 0.0001 0.0001
# 2 79.7616 144.5068 75.5637 -0.0005 -0.0001 0.0000
# 3 97.0511 75.5637 188.8287 -0.0028 -0.0015 0.0000
# 4 -0.0001 -0.0005 -0.0028 9.9143 0.0007 -0.0006
# 5 0.0001 -0.0001 -0.0015 0.0007 53.5666 -0.0004
# 6 0.0001 0.0000 0.0000 -0.0006 -0.0004 16.8785
#
#
#
# Elastic Compliance Matrix: (Units=1/GPa)
#
#
# Indices 1 2 3 4 5 6 
#
# 1 0.009787 -0.003505 -0.003627 -0.000001 0.000000 0.000000
# 2 -0.003505 0.010007 -0.002203 0.000000 0.000000 0.000000
# 3 -0.003627 -0.002203 0.008042 0.000002 0.000000 0.000000
# 4 -0.000001 0.000000 0.000002 0.100864 -0.000001 0.000003
# 5 0.000000 0.000000 0.000000 -0.000001 0.018668 0.000000
# 6 0.000000 0.000000 0.000000 0.000003 0.000000 0.059247
#
#
# Mechanical properties :
#
#
# Convention : Reuss Voigt Hill
#
# Bulk Modulus (GPa) = 109.11834 111.64490 110.38162
# Shear Modulus (GPa) = 21.89712 32.58351 27.24032
#
# Velocity S-wave (km/s) = 3.40033 4.14789 3.79257
# Velocity P-wave (km/s) = 8.54598 9.04939 8.80128
#
# Compressibility (1/GPa) = 0.00916436
#
# Stress axis : x y z
#
# Youngs Moduli (GPa) = 102.17782 99.93345 124.35171
#
# Poissons Ratio (x) = 0.35028 0.45108
# Poissons Ratio (y) = 0.35814 0.27393
# Poissons Ratio (z) = 0.37064 0.22014
#
# Static dielectric constant tensor:
#      x y z
#    x 3.817990 0.000000 0.000000 
#    y 0.000000 3.545810 0.000000 
#    z 0.000000 0.000000 3.547170 
# 
# 
# High freq. dielectric constant tensor:
#      x y z
#    x 1.758320 0.000000 0.000000 
#    y 0.000000 1.745570 0.000000 
#    z 0.000000 0.000000 1.750910 
# 
# From -- ./inp_files/7401.got.cif
#   From: 2010.03.12/outbox.cif.g09.slc.cpg/sg74_4_cif.got.tgz:7401.got - 2010.04.16 15:46:19.
