data_PCOD8301596
_publ_section_title
;
Structure prediction by ZEFSAII (Michael W. Deem and Ramdas Pophale) SiO2 
 PCOD8301596
Probable space group: I M M A
;
_chemical_formula_sum "Si O2"
_cell_formula_units_Z 112
_cell_length_a 14.830828
_cell_length_b 13.773754
_cell_length_c 25.637628
_cell_angle_alpha 90.000000
_cell_angle_beta 90.000000
_cell_angle_gamma 90.000000
_cell_volume 5237.156622
_symmetry_space_group_name_H-M "I M M A"
_symmetry_group_IT_number 74
_symmetry_cell_setting 'orthorhombic'
loop_
_space_group_symop_operation_xyz
x,y,z
-x,1/2-y,z
x,-y,-z
-x,1/2+y,-z
-x,-y,-z
x,1/2+y,-z
-x,y,z
x,1/2-y,z
1/2+x,1/2+y,1/2+z
1/2-x,-y,1/2+z
1/2+x,1/2-y,1/2-z
1/2-x,y,1/2-z
1/2-x,1/2-y,1/2-z
1/2+x,y,1/2-z
1/2-x,1/2+y,1/2+z
1/2+x,-y,1/2+z
loop_
_atom_site_type_symbol
_atom_site_label
_atom_site_fract_x
_atom_site_fract_y
_atom_site_fract_z
Si Si1 0.896170 0.454466 0.394649
Si Si2 0.602341 0.861611 0.471338
Si Si3 0.399636 0.644326 0.161010
Si Si4 0.223989 0.865180 0.931188
Si Si5 0.897139 0.143231 0.285492
Si Si6 0.347588 0.451976 0.738713
Si Si7 0.103437 0.503895 0.125619
O O1 0.857775 0.560566 0.376194
O O2 0.825153 0.410761 0.436379
O O3 0.892079 0.381861 0.346264
O O4 0.000000 0.459011 0.416299
O O5 0.500000 0.881423 0.490681
O O6 0.616847 0.750000 0.457195
O O7 0.669301 0.894615 0.517072
O O8 0.625126 0.920259 0.419691
O O9 0.500000 0.659178 0.140478
O O10 0.349528 0.750000 0.157013
O O11 0.409916 0.605978 0.220603
O O12 0.228907 0.750000 0.923382
O O13 0.170110 0.911665 0.881862
O O14 0.855243 0.250000 0.277093
O O15 0.000000 0.140484 0.266440
O O16 0.844106 0.067034 0.250125
O O17 0.250000 0.406804 0.750000
O O18 0.377613 0.438082 0.679242
O O19 0.000000 0.467946 0.124678
#
# Coordination Sequence:
#
# PCOD8301596 Si02
#       7
#    16  16  16  16  16  16  16
#     4   9  18  34  57  87 119 152 193 234 281 349
#     4   9  20  40  64  88 114 149 196 248 300 350
#     4   9  18  35  57  78 108 150 189 229 279 336
#     4  11  22  36  57  86 119 154 194 243 299 351
#     4   9  17  31  50  72 106 150 189 226 269 322
#     4  11  22  34  50  79 117 150 186 231 281 341
#     4  11  22  37  59  85 116 155 199 246 292 342
#
# _framework density 21.385650999999999
#
# number of rings (size 3 to 8) (size 9 to 14) (size 15 to 20)
#    0.000    2.143    0.000    5.143    0.000    4.571 
#    0.000    3.571    0.000    2.571    0.000    0.000 
#    0.000    0.000    0.000    0.143    0.000    0.143 
#
# Total GULP energy -694061.548779 kJ/mol
# GULP energy per Si atom -12393.956228 kJ/mol
# Density = 2.133698 g / cm^3
# Si number density = 21.385651 Si / 1000 Ang^3
#
#
#
# Elastic Constant Matrix: (Units=GPa)
#
#
# Indices 1 2 3 4 5 6 
#
# 1 111.6078 36.3514 44.9609 0.0000 0.0000 0.0000
# 2 36.3514 122.5890 34.7219 0.0000 0.0000 0.0000
# 3 44.9609 34.7219 80.3197 0.0000 0.0000 0.0000
# 4 0.0000 0.0000 0.0000 18.6480 0.0000 0.0000
# 5 0.0000 0.0000 0.0000 0.0000 28.2071 0.0000
# 6 0.0000 0.0000 0.0000 0.0000 0.0000 26.2918
#
#
#
# Elastic Compliance Matrix: (Units=1/GPa)
#
#
# Indices 1 2 3 4 5 6 
#
# 1 0.011936 -0.001877 -0.005870 0.000000 0.000000 0.000000
# 2 -0.001877 0.009591 -0.003095 0.000000 0.000000 0.000000
# 3 -0.005870 -0.003095 0.017074 0.000000 0.000000 0.000000
# 4 0.000000 0.000000 0.000000 0.053625 0.000000 0.000000
# 5 0.000000 0.000000 0.000000 0.000000 0.035452 0.000000
# 6 0.000000 0.000000 0.000000 0.000000 0.000000 0.038035
#
#
# Mechanical properties :
#
#
# Convention : Reuss Voigt Hill
#
# Bulk Modulus (GPa) = 59.11459 60.73164 59.92312
# Shear Modulus (GPa) = 25.90186 27.86151 26.88168
#
# Velocity S-wave (km/s) = 3.48398 3.61337 3.54926
# Velocity P-wave (km/s) = 6.62467 6.77263 6.69906
#
# Compressibility (1/GPa) = 0.01691630
#
# Stress axis : x y z
#
# Youngs Moduli (GPa) = 83.78020 104.26883 58.56733
#
# Poissons Ratio (x) = 0.19568 0.34380
# Poissons Ratio (y) = 0.15723 0.18129
# Poissons Ratio (z) = 0.49180 0.32276
#
# Static dielectric constant tensor:
#      x y z
#    x 3.946760 0.000000 0.000000 
#    y 0.000000 4.166080 0.000000 
#    z 0.000000 0.000000 3.534720 
# 
# 
# High freq. dielectric constant tensor:
#      x y z
#    x 1.837950 0.000000 0.000000 
#    y 0.000000 1.845480 0.000000 
#    z 0.000000 0.000000 1.807490 
# 
# From -- ./inp_files/67234.got.cif
#   From: 2010.03.12/outbox.cif.g09.slc.cpg/sg74_34_cif.got.tgz:67234.got - 2010.04.16 15:46:19.
