data_PCOD8301595
_publ_section_title
;
Structure prediction by ZEFSAII (Michael W. Deem and Ramdas Pophale) SiO2 
 PCOD8301595
Probable space group: I M M A
;
_chemical_formula_sum "Si O2"
_cell_formula_units_Z 96
_cell_length_a 9.330267
_cell_length_b 23.178053
_cell_length_c 23.877005
_cell_angle_alpha 90.000000
_cell_angle_beta 90.000000
_cell_angle_gamma 90.000000
_cell_volume 5163.579571
_symmetry_space_group_name_H-M "I M M A"
_symmetry_group_IT_number 74
_symmetry_cell_setting 'orthorhombic'
loop_
_space_group_symop_operation_xyz
x,y,z
-x,1/2-y,z
x,-y,-z
-x,1/2+y,-z
-x,-y,-z
x,1/2+y,-z
-x,y,z
x,1/2-y,z
1/2+x,1/2+y,1/2+z
1/2-x,-y,1/2+z
1/2+x,1/2-y,1/2-z
1/2-x,y,1/2-z
1/2-x,1/2-y,1/2-z
1/2+x,y,1/2-z
1/2-x,1/2+y,1/2+z
1/2+x,-y,1/2+z
loop_
_atom_site_type_symbol
_atom_site_label
_atom_site_fract_x
_atom_site_fract_y
_atom_site_fract_z
Si Si1 0.330200 0.607977 0.087555
Si Si2 0.838767 0.918074 0.801716
Si Si3 0.660886 0.492149 0.412091
Si Si4 0.671000 0.813936 0.629241
Si Si5 0.667251 0.316439 0.805803
Si Si6 0.667341 0.879252 0.520917
O O1 0.500000 0.608732 0.080334
O O2 0.276547 0.542438 0.089627
O O3 0.282913 0.643352 0.142712
O O4 0.257335 0.637628 0.033837
O O5 0.750000 0.942924 0.750000
O O6 0.830663 0.962043 0.852379
O O7 0.774234 0.856249 0.821646
O O8 0.000000 0.910413 0.780631
O O9 0.500000 0.517201 0.421476
O O10 0.695015 0.445969 0.461127
O O11 0.500000 0.815857 0.628533
O O12 0.731713 0.750000 0.640153
O O13 0.724680 0.836757 0.569224
O O14 0.500000 0.324528 0.793714
O O15 0.703627 0.250000 0.820711
O O16 0.750000 0.336384 0.750000
O O17 0.500000 0.869275 0.509022
#
# Coordination Sequence:
#
# PCOD8301595 Si02
#       6
#    16  16  16  16  16  16
#     4  11  22  33  51  79 103 125 157 199 247 295
#     4   9  18  32  50  72  99 132 167 205 249 290
#     4   9  19  35  51  69  99 136 169 202 240 285
#     4   8  15  30  51  73  98 130 169 209 243 280
#     4   9  20  39  57  73  98 129 159 196 243 292
#     4   9  18  33  52  73  99 133 169 202 239 286
#
# _framework density 18.591754000000002
#
# number of rings (size 3 to 8) (size 9 to 14) (size 15 to 20)
#    0.000    2.833    0.000    3.000    0.000    6.333 
#    0.000    5.833    0.000    1.000    0.000    0.000 
#    0.000    0.000    0.000    0.000    0.000    0.000 
#
# Total GULP energy -595071.905754 kJ/mol
# GULP energy per Si atom -12397.331370 kJ/mol
# Density = 1.854944 g / cm^3
# Si number density = 18.591754 Si / 1000 Ang^3
#
#
#
# Elastic Constant Matrix: (Units=GPa)
#
#
# Indices 1 2 3 4 5 6 
#
# 1 58.8477 13.3026 45.8101 0.0000 0.0000 0.0000
# 2 13.3026 34.2236 5.1475 0.0000 0.0000 0.0000
# 3 45.8101 5.1475 104.8254 0.0000 0.0000 0.0000
# 4 0.0000 0.0000 0.0000 16.8252 0.0000 0.0000
# 5 0.0000 0.0000 0.0000 0.0000 34.1755 0.0000
# 6 0.0000 0.0000 0.0000 0.0000 0.0000 17.5913
#
#
#
# Elastic Compliance Matrix: (Units=1/GPa)
#
#
# Indices 1 2 3 4 5 6 
#
# 1 0.028383 -0.009235 -0.011950 0.000000 0.000000 0.000000
# 2 -0.009235 0.032442 0.002443 0.000000 0.000000 0.000000
# 3 -0.011950 0.002443 0.014642 0.000000 0.000000 0.000000
# 4 0.000000 0.000000 0.000000 0.059435 0.000000 0.000000
# 5 0.000000 0.000000 0.000000 0.000000 0.029261 0.000000
# 6 0.000000 0.000000 0.000000 0.000000 0.000000 0.056846
#
#
# Mechanical properties :
#
#
# Convention : Reuss Voigt Hill
#
# Bulk Modulus (GPa) = 26.32826 36.26856 31.29841
# Shear Modulus (GPa) = 18.43960 22.62750 20.53355
#
# Velocity S-wave (km/s) = 3.15273 3.49244 3.32692
# Velocity P-wave (km/s) = 5.23879 5.98440 5.62397
#
# Compressibility (1/GPa) = 0.03798200
#
# Stress axis : x y z
#
# Youngs Moduli (GPa) = 35.23177 30.82437 68.29557
#
# Poissons Ratio (x) = 0.28467 0.81616
# Poissons Ratio (y) = 0.32537 -0.16683
# Poissons Ratio (z) = 0.42104 -0.07530
#
# Static dielectric constant tensor:
#      x y z
#    x 3.167340 0.000000 0.000000 
#    y 0.000000 3.486060 0.000000 
#    z 0.000000 0.000000 3.469240 
# 
# 
# High freq. dielectric constant tensor:
#      x y z
#    x 1.695860 0.000000 0.000000 
#    y 0.000000 1.716640 0.000000 
#    z 0.000000 0.000000 1.731760 
# 
# From -- ./inp_files/50790.got.cif
#   From: 2010.03.12/outbox.cif.g09.slc.cpg/sg74_26_cif.got.tgz:50790.got - 2010.04.16 15:46:19.
