data_PCOD8301346
_publ_section_title
;
Structure prediction by ZEFSAII (Michael W. Deem and Ramdas Pophale) SiO2 
 PCOD8301346
Probable space group: I M M A
;
_chemical_formula_sum "Si O2"
_cell_formula_units_Z 56
_cell_length_a 13.498211
_cell_length_b 18.981587
_cell_length_c 9.731390
_cell_angle_alpha 90.000000
_cell_angle_beta 90.000000
_cell_angle_gamma 90.000000
_cell_volume 2493.352091
_symmetry_space_group_name_H-M "I M M A"
_symmetry_group_IT_number 74
_symmetry_cell_setting 'orthorhombic'
loop_
_space_group_symop_operation_xyz
x,y,z
-x,1/2-y,z
x,-y,-z
-x,1/2+y,-z
-x,-y,-z
x,1/2+y,-z
-x,y,z
x,1/2-y,z
1/2+x,1/2+y,1/2+z
1/2-x,-y,1/2+z
1/2+x,1/2-y,1/2-z
1/2-x,y,1/2-z
1/2-x,1/2-y,1/2-z
1/2+x,y,1/2-z
1/2-x,1/2+y,1/2+z
1/2+x,-y,1/2+z
loop_
_atom_site_type_symbol
_atom_site_label
_atom_site_fract_x
_atom_site_fract_y
_atom_site_fract_z
Si Si1 0.609443 0.600932 0.740163
Si Si2 0.383606 0.750000 0.625313
Si Si3 0.612424 0.394683 0.941816
Si Si4 0.716737 0.750000 0.095041
Si Si5 0.250000 0.012024 0.750000
O O1 0.500000 0.592429 0.679362
O O2 0.645440 0.681014 0.714360
O O3 0.678035 0.542423 0.665554
O O4 0.613205 0.580533 0.900817
O O5 0.500000 0.750000 0.586438
O O6 0.319543 0.750000 0.487947
O O7 0.500000 0.401455 0.883473
O O8 0.646814 0.314850 0.938800
O O9 0.688033 0.440303 0.853039
O O10 0.750000 0.750000 0.250000
#
# Coordination Sequence:
#
# PCOD8301346 Si02
#       5
#    16   8  16   8   8
#     4  10  22  42  69  99 132 171 221 276 328 388
#     4  10  23  44  71 102 129 163 217 281 332 377
#     4  11  24  43  67  95 131 177 224 269 327 395
#     4  12  24  44  67  98 131 175 214 269 326 393
#     4  12  22  38  62  98 136 176 220 264 326 392
#
# _framework density 22.459724999999999
#
# number of rings (size 3 to 8) (size 9 to 14) (size 15 to 20)
#    0.000    1.143    1.429    4.714    0.000    7.429 
#    0.000    0.000    0.000   10.286    0.000    0.000 
#    0.000    0.000    0.000    0.000    0.000    0.000 
#
# Total GULP energy -347111.435727 kJ/mol
# GULP energy per Si atom -12396.836990 kJ/mol
# Density = 2.240861 g / cm^3
# Si number density = 22.459725 Si / 1000 Ang^3
#
#
#
# Elastic Constant Matrix: (Units=GPa)
#
#
# Indices 1 2 3 4 5 6 
#
# 1 170.2374 86.2236 55.8515 0.0000 0.0000 0.0000
# 2 86.2236 181.4200 28.5404 0.0000 0.0000 0.0000
# 3 55.8515 28.5404 78.2189 0.0000 0.0000 0.0000
# 4 0.0000 0.0000 0.0000 24.9940 0.0000 0.0000
# 5 0.0000 0.0000 0.0000 0.0000 39.7566 0.0000
# 6 0.0000 0.0000 0.0000 0.0000 0.0000 17.6157
#
#
#
# Elastic Compliance Matrix: (Units=1/GPa)
#
#
# Indices 1 2 3 4 5 6 
#
# 1 0.009523 -0.003667 -0.005462 0.000000 0.000000 0.000000
# 2 -0.003667 0.007260 -0.000031 0.000000 0.000000 0.000000
# 3 -0.005462 -0.000031 0.016696 0.000000 0.000000 0.000000
# 4 0.000000 0.000000 0.000000 0.040010 0.000000 0.000000
# 5 0.000000 0.000000 0.000000 0.000000 0.025153 0.000000
# 6 0.000000 0.000000 0.000000 0.000000 0.000000 0.056768
#
#
# Mechanical properties :
#
#
# Convention : Reuss Voigt Hill
#
# Bulk Modulus (GPa) = 65.96384 85.67859 75.82122
# Shear Modulus (GPa) = 27.96706 33.75731 30.86218
#
# Velocity S-wave (km/s) = 3.53258 3.88108 3.71092
# Velocity P-wave (km/s) = 6.78767 7.63637 7.22449
#
# Compressibility (1/GPa) = 0.01515982
#
# Stress axis : x y z
#
# Youngs Moduli (GPa) = 105.00427 137.74744 59.89472
#
# Poissons Ratio (x) = 0.50511 0.32715
# Poissons Ratio (y) = 0.38504 0.00183
# Poissons Ratio (z) = 0.57355 0.00421
#
# Static dielectric constant tensor:
#      x y z
#    x 4.495730 0.000000 0.000000 
#    y 0.000000 4.364470 0.000000 
#    z 0.000000 0.000000 3.675790 
# 
# 
# High freq. dielectric constant tensor:
#      x y z
#    x 1.914650 0.000000 0.000000 
#    y 0.000000 1.913060 0.000000 
#    z 0.000000 0.000000 1.847490 
# 
# From -- ./inp_files/8482.got.cif
#   From: 2010.03.12/outbox.cif.g09.slc.cpg/sg74_5_cif.got.tgz:8482.got - 2010.04.16 15:46:19.
