data_PCOD8301406
_publ_section_title
;
Structure prediction by ZEFSAII (Michael W. Deem and Ramdas Pophale) SiO2 
 PCOD8301406
Probable space group: I M M A
;
_chemical_formula_sum "Si O2"
_cell_formula_units_Z 80
_cell_length_a 14.887885
_cell_length_b 23.561292
_cell_length_c 11.286282
_cell_angle_alpha 90.000000
_cell_angle_beta 90.000000
_cell_angle_gamma 90.000000
_cell_volume 3958.977235
_symmetry_space_group_name_H-M "I M M A"
_symmetry_group_IT_number 74
_symmetry_cell_setting 'orthorhombic'
loop_
_space_group_symop_operation_xyz
x,y,z
-x,1/2-y,z
x,-y,-z
-x,1/2+y,-z
-x,-y,-z
x,1/2+y,-z
-x,y,z
x,1/2-y,z
1/2+x,1/2+y,1/2+z
1/2-x,-y,1/2+z
1/2+x,1/2-y,1/2-z
1/2-x,y,1/2-z
1/2-x,1/2-y,1/2-z
1/2+x,y,1/2-z
1/2-x,1/2+y,1/2+z
1/2+x,-y,1/2+z
loop_
_atom_site_type_symbol
_atom_site_label
_atom_site_fract_x
_atom_site_fract_y
_atom_site_fract_z
Si Si1 0.345338 0.750000 0.685514
Si Si2 0.351610 0.856967 0.265489
Si Si3 0.000000 0.430651 0.880200
Si Si4 0.891837 0.750000 0.079584
Si Si5 0.897499 0.686657 0.489157
Si Si6 0.500000 0.564038 0.653071
Si Si7 0.352299 0.633274 0.780141
O O1 0.250000 0.750000 0.750000
O O2 0.341654 0.750000 0.544943
O O3 0.393232 0.692009 0.726420
O O4 0.250000 0.878744 0.250000
O O5 0.410402 0.907511 0.318529
O O6 0.354989 0.804723 0.354731
O O7 0.391557 0.837162 0.141963
O O8 0.000000 0.497024 0.858456
O O9 0.000000 0.411777 0.018704
O O10 0.000000 0.750000 0.069551
O O11 0.853184 0.750000 0.498461
O O12 0.853186 0.640693 0.577560
O O13 0.000000 0.692028 0.525892
O O14 0.412560 0.582898 0.727547
O O15 0.250000 0.619622 0.750000
#
# Coordination Sequence:
#
# PCOD8301406 Si02
#       7
#     8  16   8   8  16   8  16
#     4  10  24  36  60 100 142 167 216 266 323 392
#     4  12  26  41  69  98 134 173 216 270 335 396
#     4  11  26  50  67  92 126 172 236 277 324 389
#     4  12  23  40  66 102 139 177 224 269 325 412
#     4  11  22  40  61  98 140 173 203 258 334 396
#     4  11  26  48  71  88 126 178 224 285 326 379
#     4  11  24  40  66  99 134 170 218 265 332 399
#
# _framework density 20.207238
#
# number of rings (size 3 to 8) (size 9 to 14) (size 15 to 20)
#    0.000    0.800    5.000    1.500    9.800    0.800 
#    0.000    2.000    0.000    0.000    0.000    0.000 
#    0.000    0.000    0.000    0.000    0.000    0.000 
#
# Total GULP energy -495982.320576 kJ/mol
# GULP energy per Si atom -12399.558014 kJ/mol
# Density = 2.016125 g / cm^3
# Si number density = 20.207238 Si / 1000 Ang^3
#
#
#
# Elastic Constant Matrix: (Units=GPa)
#
#
# Indices 1 2 3 4 5 6 
#
# 1 128.1118 32.1619 36.2946 -0.0001 0.0001 0.0000
# 2 32.1619 79.7126 36.9724 -0.0001 0.0000 0.0000
# 3 36.2946 36.9724 156.3133 0.0002 0.0001 -0.0001
# 4 -0.0001 -0.0001 0.0002 34.0395 0.0000 0.0000
# 5 0.0001 0.0000 0.0001 0.0000 30.4823 0.0000
# 6 0.0000 0.0000 -0.0001 0.0000 0.0000 18.4690
#
#
#
# Elastic Compliance Matrix: (Units=1/GPa)
#
#
# Indices 1 2 3 4 5 6 
#
# 1 0.008940 -0.002970 -0.001373 0.000000 0.000000 0.000000
# 2 -0.002970 0.015078 -0.002877 0.000000 0.000000 0.000000
# 3 -0.001373 -0.002877 0.007397 0.000000 0.000000 0.000000
# 4 0.000000 0.000000 0.000000 0.029378 0.000000 0.000000
# 5 0.000000 0.000000 0.000000 0.000000 0.032806 0.000000
# 6 0.000000 0.000000 0.000000 0.000000 0.000000 0.054145
#
#
# Mechanical properties :
#
#
# Convention : Reuss Voigt Hill
#
# Bulk Modulus (GPa) = 58.91223 63.88839 61.40031
# Shear Modulus (GPa) = 29.78998 33.84542 31.81770
#
# Velocity S-wave (km/s) = 3.84373 4.09701 3.97239
# Velocity P-wave (km/s) = 6.99402 7.35295 7.17573
#
# Compressibility (1/GPa) = 0.01697441
#
# Stress axis : x y z
#
# Youngs Moduli (GPa) = 111.85153 66.32307 135.19565
#
# Poissons Ratio (x) = 0.19699 0.18567
# Poissons Ratio (y) = 0.33222 0.38891
# Poissons Ratio (z) = 0.15361 0.19079
#
# Static dielectric constant tensor:
#      x y z
#    x 3.681050 0.000000 0.000000 
#    y 0.000000 3.568480 0.000000 
#    z 0.000000 0.000000 3.911290 
# 
# 
# High freq. dielectric constant tensor:
#      x y z
#    x 1.797780 0.000000 0.000000 
#    y 0.000000 1.761220 0.000000 
#    z 0.000000 0.000000 1.812350 
# 
# From -- ./inp_files/20585.got.cif
#   From: 2010.03.12/outbox.cif.g09.slc.cpg/sg74_11_cif.got.tgz:20585.got - 2010.04.16 15:46:19.
