data_PCOD8301253
_publ_section_title
;
Structure prediction by ZEFSAII (Michael W. Deem and Ramdas Pophale) SiO2 
 PCOD8301253
Probable space group: I M M A
;
_chemical_formula_sum "Si O2"
_cell_formula_units_Z 72
_cell_length_a 8.868994
_cell_length_b 22.520618
_cell_length_c 19.075391
_cell_angle_alpha 90.000000
_cell_angle_beta 90.000000
_cell_angle_gamma 90.000000
_cell_volume 3810.027531
_symmetry_space_group_name_H-M "I M M A"
_symmetry_group_IT_number 74
_symmetry_cell_setting 'orthorhombic'
loop_
_space_group_symop_operation_xyz
x,y,z
-x,1/2-y,z
x,-y,-z
-x,1/2+y,-z
-x,-y,-z
x,1/2+y,-z
-x,y,z
x,1/2-y,z
1/2+x,1/2+y,1/2+z
1/2-x,-y,1/2+z
1/2+x,1/2-y,1/2-z
1/2-x,y,1/2-z
1/2-x,1/2-y,1/2-z
1/2+x,y,1/2-z
1/2-x,1/2+y,1/2+z
1/2+x,-y,1/2+z
loop_
_atom_site_type_symbol
_atom_site_label
_atom_site_fract_x
_atom_site_fract_y
_atom_site_fract_z
Si Si1 0.000000 0.320917 0.163299
Si Si2 0.500000 0.819590 0.502993
Si Si3 0.000000 0.972586 0.704552
Si Si4 0.750000 0.612391 0.750000
Si Si5 0.500000 0.084021 0.698676
Si Si6 0.746775 0.128430 0.596402
Si Si7 0.000000 0.816294 0.317104
Si Si8 0.000000 0.543767 0.437265
O O1 0.849495 0.346239 0.199384
O O2 0.000000 0.250000 0.170056
O O3 0.000000 0.343219 0.082726
O O4 0.500000 0.750000 0.504808
O O5 0.648120 0.840099 0.462374
O O6 0.854683 0.930350 0.703678
O O7 0.000000 0.017511 0.770791
O O8 0.000000 0.011854 0.636451
O O9 0.648661 0.091893 0.652318
O O10 0.500000 0.134543 0.757413
O O11 0.849734 0.176666 0.636271
O O12 0.850902 0.082694 0.555177
O O13 0.000000 0.750000 0.284514
O O14 0.000000 0.500000 0.500000
#
# Coordination Sequence:
#
# PCOD8301253 Si02
#       8
#     8   8   8   8   8  16   8   8
#     4  10  22  43  65  92 120 147 189 244 306 354
#     4  10  22  40  62  83 118 158 192 240 292 359
#     4  11  21  38  61  87 121 154 198 237 299 347
#     4  10  23  38  66  92 115 150 192 244 290 370
#     4  11  21  38  60  86 120 162 196 251 298 335
#     4  10  22  39  58  84 120 156 204 240 299 346
#     4  11  22  35  58  88 120 159 209 249 291 342
#     4  11  24  38  59  84 119 160 193 255 292 354
#
# _framework density 18.897501999999999
#
# number of rings (size 3 to 8) (size 9 to 14) (size 15 to 20)
#    0.000    1.556    2.222    3.000    3.111    3.556 
#    0.000    1.111    0.000    6.667    0.000    0.000 
#    0.000    0.000    0.000    0.000    0.000    0.000 
#
# Total GULP energy -446446.632189 kJ/mol
# GULP energy per Si atom -12401.295339 kJ/mol
# Density = 1.885449 g / cm^3
# Si number density = 18.897502 Si / 1000 Ang^3
#
#
#
# Elastic Constant Matrix: (Units=GPa)
#
#
# Indices 1 2 3 4 5 6 
#
# 1 140.5762 40.4905 50.8892 0.0000 0.0000 0.0000
# 2 40.4905 90.4558 30.2529 0.0000 0.0000 0.0000
# 3 50.8892 30.2529 105.0576 -0.0001 0.0001 0.0000
# 4 0.0000 0.0000 -0.0001 37.0769 0.0000 0.0000
# 5 0.0000 0.0000 0.0001 0.0000 -4.8874 0.0000
# 6 0.0000 0.0000 0.0000 0.0000 0.0000 20.1321
#
#
#
# Elastic Compliance Matrix: (Units=1/GPa)
#
#
# Indices 1 2 3 4 5 6 
#
# 1 0.009280 -0.002933 -0.003651 0.000000 0.000000 0.000000
# 2 -0.002933 0.013160 -0.002369 0.000000 0.000000 0.000000
# 3 -0.003651 -0.002369 0.011969 0.000000 0.000000 0.000000
# 4 0.000000 0.000000 0.000000 0.026971 0.000000 0.000000
# 5 0.000000 0.000000 0.000000 0.000000 -0.204606 0.000000
# 6 0.000000 0.000000 0.000000 0.000000 0.000000 0.049672
#
#
# Mechanical properties :
#
#
# Convention : Reuss Voigt Hill
#
# Bulk Modulus (GPa) = 60.59043 64.37275 62.48159
# Shear Modulus (GPa) = -71.27824 24.76146 -23.25839
#
# Velocity S-wave (km/s) = -6.14819 3.62374 -3.51203
# Velocity P-wave (km/s) = 4.27411 7.18657 4.08526
#
# Compressibility (1/GPa) = 0.01650426
#
# Stress axis : x y z
#
# Youngs Moduli (GPa) = 107.75999 75.98598 83.54880
#
# Poissons Ratio (x) = 0.22287 0.30500
# Poissons Ratio (y) = 0.31606 0.19793
# Poissons Ratio (z) = 0.39338 0.18001
#
# Static dielectric constant tensor:
#      x y z
#    x 3.717600 0.000000 0.000000 
#    y 0.000000 3.461930 0.000000 
#    z 0.000000 0.000000 3.301350 
# 
# 
# High freq. dielectric constant tensor:
#      x y z
#    x 1.755590 0.000000 0.000000 
#    y 0.000000 1.742410 0.000000 
#    z 0.000000 0.000000 1.728320 
# 
# From -- ./inp_files/45873.got.cif
#   From: 2010.03.12/outbox.cif.g09.slc.cpg/sg74_23_cif.got.tgz:45873.got - 2010.04.16 15:46:19.
