data_PCOD8301713
_publ_section_title
;
Structure prediction by ZEFSAII (Michael W. Deem and Ramdas Pophale) SiO2 
 PCOD8301713
Probable space group: I M M A
;
_chemical_formula_sum "Si O2"
_cell_formula_units_Z 52
_cell_length_a 7.638989
_cell_length_b 11.657163
_cell_length_c 28.947899
_cell_angle_alpha 90.000000
_cell_angle_beta 90.000000
_cell_angle_gamma 90.000000
_cell_volume 2577.779719
_symmetry_space_group_name_H-M "I M M A"
_symmetry_group_IT_number 74
_symmetry_cell_setting 'orthorhombic'
loop_
_space_group_symop_operation_xyz
x,y,z
-x,1/2-y,z
x,-y,-z
-x,1/2+y,-z
-x,-y,-z
x,1/2+y,-z
-x,y,z
x,1/2-y,z
1/2+x,1/2+y,1/2+z
1/2-x,-y,1/2+z
1/2+x,1/2-y,1/2-z
1/2-x,y,1/2-z
1/2-x,1/2-y,1/2-z
1/2+x,y,1/2-z
1/2-x,1/2+y,1/2+z
1/2+x,-y,1/2+z
loop_
_atom_site_type_symbol
_atom_site_label
_atom_site_fract_x
_atom_site_fract_y
_atom_site_fract_z
Si Si1 0.000000 0.750000 0.096182
Si Si2 0.000000 0.505970 0.054425
Si Si3 0.801638 0.882100 0.609401
Si Si4 0.695946 0.750000 0.168698
Si Si5 0.204349 0.491497 0.800118
O O1 0.000000 0.639719 0.064505
O O2 0.825383 0.750000 0.125978
O O3 0.826013 0.448432 0.074895
O O4 0.000000 0.500000 0.000000
O O5 0.743446 0.750000 0.611494
O O6 0.000000 0.894802 0.590802
O O7 0.796369 0.932812 0.660955
O O8 0.500000 0.750000 0.148541
O O9 0.724427 0.861848 0.199951
O O10 0.250000 0.544517 0.750000
O O11 0.000000 0.492267 0.810873
#
# Coordination Sequence:
#
# PCOD8301713 Si02
#       5
#     4   8  16   8  16
#     4  12  24  44  68 106 132 174 226 274 342 404
#     4  12  27  46  75 100 136 173 226 283 344 404
#     4  11  24  45  69  96 135 179 225 279 335 397
#     4  12  21  39  63  91 136 180 216 282 333 392
#     4  12  23  39  62  96 135 178 228 274 330 397
#
# _framework density 20.1724
#
# number of rings (size 3 to 8) (size 9 to 14) (size 15 to 20)
#    0.000    0.308    6.154    3.692    2.154    1.231 
#    0.000    0.000    0.000    0.000    0.000    0.000 
#    0.000    0.000    0.000    0.000    0.000    0.000 
#
# Total GULP energy -322530.429842 kJ/mol
# GULP energy per Si atom -12405.016532 kJ/mol
# Density = 2.012649 g / cm^3
# Si number density = 20.172400 Si / 1000 Ang^3
#
#
#
# Elastic Constant Matrix: (Units=GPa)
#
#
# Indices 1 2 3 4 5 6 
#
# 1 138.8418 40.8311 40.6160 0.0000 0.0000 0.0000
# 2 40.8311 143.4487 56.3038 0.0000 0.0000 0.0000
# 3 40.6160 56.3038 156.2425 0.0000 0.0000 0.0000
# 4 0.0000 0.0000 0.0000 2.0657 0.0000 0.0001
# 5 0.0000 0.0000 0.0000 0.0000 23.9020 0.0000
# 6 0.0000 0.0000 0.0000 0.0001 0.0000 41.3568
#
#
#
# Elastic Compliance Matrix: (Units=1/GPa)
#
#
# Indices 1 2 3 4 5 6 
#
# 1 0.008149 -0.001733 -0.001494 0.000000 0.000000 0.000000
# 2 -0.001733 0.008488 -0.002608 0.000000 0.000000 0.000000
# 3 -0.001494 -0.002608 0.007729 0.000000 0.000000 0.000000
# 4 0.000000 0.000000 0.000000 0.484098 0.000000 -0.000001
# 5 0.000000 0.000000 0.000000 0.000000 0.041838 0.000000
# 6 0.000000 0.000000 0.000000 -0.000001 0.000000 0.024180
#
#
# Mechanical properties :
#
#
# Convention : Reuss Voigt Hill
#
# Bulk Modulus (GPa) = 78.76942 79.33719 79.05330
# Shear Modulus (GPa) = 8.46906 33.51704 20.99305
#
# Velocity S-wave (km/s) = 2.05121 4.08061 3.22946
# Velocity P-wave (km/s) = 6.68901 7.84964 7.29245
#
# Compressibility (1/GPa) = 0.01269528
#
# Stress axis : x y z
#
# Youngs Moduli (GPa) = 122.71219 117.81014 129.39033
#
# Poissons Ratio (x) = 0.20419 0.19329
# Poissons Ratio (y) = 0.21269 0.33749
# Poissons Ratio (z) = 0.18331 0.30728
#
# Static dielectric constant tensor:
#      x y z
#    x 3.933850 0.000000 0.000000 
#    y 0.000000 4.312290 0.000000 
#    z 0.000000 0.000000 3.475140 
# 
# 
# High freq. dielectric constant tensor:
#      x y z
#    x 1.809710 0.000000 0.000000 
#    y 0.000000 1.797370 0.000000 
#    z 0.000000 0.000000 1.773270 
# 
# From -- ./inp_files/63198.got.cif
#   From: 2010.03.12/outbox.cif.g09.slc.cpg/sg74_32_cif.got.tgz:63198.got - 2010.04.16 15:46:19.
