data_PCOD8301702
_publ_section_title
;
Structure prediction by ZEFSAII (Michael W. Deem and Ramdas Pophale) SiO2 
 PCOD8301702
Probable space group: I M M A
;
_chemical_formula_sum "Si O2"
_cell_formula_units_Z 56
_cell_length_a 17.296210
_cell_length_b 10.472180
_cell_length_c 14.564240
_cell_angle_alpha 90.000000
_cell_angle_beta 90.000000
_cell_angle_gamma 90.000000
_cell_volume 2638.006583
_symmetry_space_group_name_H-M "I M M A"
_symmetry_group_IT_number 74
_symmetry_cell_setting 'orthorhombic'
loop_
_space_group_symop_operation_xyz
x,y,z
-x,1/2-y,z
x,-y,-z
-x,1/2+y,-z
-x,-y,-z
x,1/2+y,-z
-x,y,z
x,1/2-y,z
1/2+x,1/2+y,1/2+z
1/2-x,-y,1/2+z
1/2+x,1/2-y,1/2-z
1/2-x,y,1/2-z
1/2-x,1/2-y,1/2-z
1/2+x,y,1/2-z
1/2-x,1/2+y,1/2+z
1/2+x,-y,1/2+z
loop_
_atom_site_type_symbol
_atom_site_label
_atom_site_fract_x
_atom_site_fract_y
_atom_site_fract_z
Si Si1 0.659963 0.750000 0.718968
Si Si2 0.909457 0.750000 0.578963
Si Si3 0.412658 0.485585 0.390732
Si Si4 0.230275 0.107336 0.847272
Si Si5 0.167422 0.000000 0.500000
O O1 0.750000 0.750000 0.750000
O O2 0.613160 0.750000 0.813983
O O3 0.635738 0.867445 0.652187
O O4 0.882623 0.624112 0.523947
O O5 0.000000 0.750000 0.574543
O O6 0.415791 0.500000 0.500000
O O7 0.500000 0.485898 0.350950
O O8 0.362881 0.608154 0.359891
O O9 0.262347 0.250000 0.855691
O O10 0.250000 0.046212 0.750000
O O11 0.274982 0.018237 0.916423
#
# Coordination Sequence:
#
# PCOD8301702 Si02
#       5
#     8   8  16  16   8
#     4  12  26  46  72 104 137 196 250 299 372 449
#     4  12  26  44  73 102 144 188 245 313 369 439
#     4  11  24  40  67 102 140 178 229 301 363 432
#     4  11  24  42  66  97 135 183 231 286 353 433
#     4  12  23  46  71 104 136 190 248 300 367 442
#
# _framework density 21.228151
#
# number of rings (size 3 to 8) (size 9 to 14) (size 15 to 20)
#    0.000    0.571    2.857    6.000    2.000    0.571 
#    0.000    1.429    0.000    0.000    0.000    0.000 
#    0.000    0.000    0.000    0.000    0.000    0.000 
#
# Total GULP energy -346888.144622 kJ/mol
# GULP energy per Si atom -12388.862308 kJ/mol
# Density = 2.117983 g / cm^3
# Si number density = 21.228151 Si / 1000 Ang^3
#
#
#
# Elastic Constant Matrix: (Units=GPa)
#
#
# Indices 1 2 3 4 5 6 
#
# 1 204.0013 56.5980 73.6787 0.0000 0.0000 0.0000
# 2 56.5980 109.4300 58.8109 0.0000 0.0000 0.0000
# 3 73.6787 58.8109 141.2460 0.0000 0.0000 0.0000
# 4 0.0000 0.0000 0.0000 40.4509 0.0000 0.0000
# 5 0.0000 0.0000 0.0000 0.0000 35.6493 0.0000
# 6 0.0000 0.0000 0.0000 0.0000 0.0000 31.4924
#
#
#
# Elastic Compliance Matrix: (Units=1/GPa)
#
#
# Indices 1 2 3 4 5 6 
#
# 1 0.006343 -0.001936 -0.002503 0.000000 0.000000 0.000000
# 2 -0.001936 0.012363 -0.004138 0.000000 0.000000 0.000000
# 3 -0.002503 -0.004138 0.010108 0.000000 0.000000 0.000000
# 4 0.000000 0.000000 0.000000 0.024721 0.000000 0.000000
# 5 0.000000 0.000000 0.000000 0.000000 0.028051 0.000000
# 6 0.000000 0.000000 0.000000 0.000000 0.000000 0.031754
#
#
# Mechanical properties :
#
#
# Convention : Reuss Voigt Hill
#
# Bulk Modulus (GPa) = 85.75044 92.53918 89.14481
# Shear Modulus (GPa) = 37.20780 39.22449 38.21615
#
# Velocity S-wave (km/s) = 4.19114 4.30322 4.24755
# Velocity P-wave (km/s) = 7.99395 8.26907 8.13267
#
# Compressibility (1/GPa) = 0.01166175
#
# Stress axis : x y z
#
# Youngs Moduli (GPa) = 157.65845 80.88487 98.92811
#
# Poissons Ratio (x) = 0.15655 0.24759
# Poissons Ratio (y) = 0.30515 0.40937
# Poissons Ratio (z) = 0.39458 0.33471
#
# Static dielectric constant tensor:
#      x y z
#    x 4.155620 0.000000 0.000000 
#    y 0.000000 31.767000 0.000000 
#    z 0.000000 0.000000 4.053980 
# 
# 
# High freq. dielectric constant tensor:
#      x y z
#    x 1.844590 0.000000 0.000000 
#    y 0.000000 1.839870 0.000000 
#    z 0.000000 0.000000 1.847530 
# 
# From -- ./inp_files/31538.got.cif
#   From: 2010.03.12/outbox.cif.g09.slc.cpg/sg74_16_cif.got.tgz:31538.got - 2010.04.16 15:46:19.
