data_PCOD8301554
_publ_section_title
;
Structure prediction by ZEFSAII (Michael W. Deem and Ramdas Pophale) SiO2 
 PCOD8301554
Probable space group: I M M A
;
_chemical_formula_sum "Si O2"
_cell_formula_units_Z 64
_cell_length_a 8.643735
_cell_length_b 20.970081
_cell_length_c 18.682501
_cell_angle_alpha 90.000000
_cell_angle_beta 90.000000
_cell_angle_gamma 90.000000
_cell_volume 3386.386826
_symmetry_space_group_name_H-M "I M M A"
_symmetry_group_IT_number 74
_symmetry_cell_setting 'orthorhombic'
loop_
_space_group_symop_operation_xyz
x,y,z
-x,1/2-y,z
x,-y,-z
-x,1/2+y,-z
-x,-y,-z
x,1/2+y,-z
-x,y,z
x,1/2-y,z
1/2+x,1/2+y,1/2+z
1/2-x,-y,1/2+z
1/2+x,1/2-y,1/2-z
1/2-x,y,1/2-z
1/2-x,1/2-y,1/2-z
1/2+x,y,1/2-z
1/2-x,1/2+y,1/2+z
1/2+x,-y,1/2+z
loop_
_atom_site_type_symbol
_atom_site_label
_atom_site_fract_x
_atom_site_fract_y
_atom_site_fract_z
Si Si1 0.318979 0.634564 0.671699
Si Si2 0.816256 0.250000 0.915273
Si Si3 0.817304 0.367351 0.670299
Si Si4 0.181251 0.505221 0.171845
Si Si5 0.315814 0.750000 0.577343
O O1 0.500000 0.644188 0.681314
O O2 0.250000 0.644047 0.750000
O O3 0.285213 0.564295 0.636994
O O4 0.250713 0.687261 0.617648
O O5 0.752036 0.312332 0.877708
O O6 0.000000 0.250000 0.910794
O O7 0.754213 0.250000 0.996491
O O8 0.750000 0.361926 0.750000
O O9 0.767427 0.435193 0.633929
O O10 0.000000 0.360926 0.673501
O O11 0.250000 0.499885 0.250000
O O12 0.000000 0.520684 0.174557
O O13 0.500000 0.750000 0.577131
#
# Coordination Sequence:
#
# PCOD8301554 Si02
#       5
#    16   8  16  16   8
#     4   9  17  31  53  80 106 134 170 210 251 297
#     4  11  22  37  54  72 100 137 174 211 252 298
#     4  11  21  35  55  78 103 130 166 209 254 305
#     4   9  16  28  49  77 105 131 164 206 251 297
#     4   9  19  35  53  74 103 139 176 211 248 296
#
# _framework density 18.899197999999998
#
# number of rings (size 3 to 8) (size 9 to 14) (size 15 to 20)
#    0.000    2.250    0.000    5.625    0.000    1.000 
#    0.000    3.750    0.000    7.500    0.000    0.000 
#    0.000    0.000    0.000    0.000    0.000    0.000 
#
# Total GULP energy -396559.753047 kJ/mol
# GULP energy per Si atom -12392.492283 kJ/mol
# Density = 1.885618 g / cm^3
# Si number density = 18.899198 Si / 1000 Ang^3
#
#
#
# Elastic Constant Matrix: (Units=GPa)
#
#
# Indices 1 2 3 4 5 6 
#
# 1 93.3110 54.8066 35.0193 0.0000 0.0000 0.0000
# 2 54.8066 207.3849 81.9699 0.0000 0.0000 -0.0002
# 3 35.0193 81.9699 96.5475 0.0000 0.0000 -0.0005
# 4 0.0000 0.0000 0.0000 -49.9115 0.0000 -0.0009
# 5 0.0000 0.0000 0.0000 0.0000 18.0913 0.0000
# 6 0.0000 -0.0002 -0.0005 -0.0009 0.0000 -451.1606
#
#
#
# Elastic Compliance Matrix: (Units=1/GPa)
#
#
# Indices 1 2 3 4 5 6 
#
# 1 0.013150 -0.002393 -0.002738 0.000000 0.000000 0.000000
# 2 -0.002393 0.007693 -0.005663 0.000000 0.000000 0.000000
# 3 -0.002738 -0.005663 0.016159 0.000000 0.000000 0.000000
# 4 0.000000 0.000000 0.000000 -0.020035 0.000000 0.000000
# 5 0.000000 0.000000 0.000000 0.000000 0.055275 0.000000
# 6 0.000000 0.000000 0.000000 0.000000 0.000000 -0.002217
#
#
# Mechanical properties :
#
#
# Convention : Reuss Voigt Hill
#
# Bulk Modulus (GPa) = 64.88005 82.31500 73.59752
# Shear Modulus (GPa) = 51.67898 -81.56632 -14.94367
#
# Velocity S-wave (km/s) = 5.23487 -6.57665 -2.81500
# Velocity P-wave (km/s) = 8.42274 3.74439 5.33489
#
# Compressibility (1/GPa) = 0.01541306
#
# Stress axis : x y z
#
# Youngs Moduli (GPa) = 76.04588 129.99154 61.88529
#
# Poissons Ratio (x) = 0.31107 0.16944
# Poissons Ratio (y) = 0.18198 0.35048
# Poissons Ratio (z) = 0.20822 0.73618
#
# Static dielectric constant tensor:
#      x y z
#    x 3.469580 0.000000 0.000000 
#    y 0.000000 4.893260 0.000000 
#    z 0.000000 0.000000 3.243600 
# 
# 
# High freq. dielectric constant tensor:
#      x y z
#    x 1.731910 0.000000 0.000000 
#    y 0.000000 1.767340 0.000000 
#    z 0.000000 0.000000 1.689570 
# 
# From -- ./inp_files/39135.got.cif
#   From: 2010.03.12/outbox.cif.g09.slc.cpg/sg74_20_cif.got.tgz:39135.got - 2010.04.16 15:46:19.
