data_PCOD8301343
_publ_section_title
;
Structure prediction by ZEFSAII (Michael W. Deem and Ramdas Pophale) SiO2 
 PCOD8301343
Probable space group: I M M A
;
_chemical_formula_sum "Si O2"
_cell_formula_units_Z 112
_cell_length_a 14.197305
_cell_length_b 22.407026
_cell_length_c 16.372491
_cell_angle_alpha 90.000000
_cell_angle_beta 90.000000
_cell_angle_gamma 90.000000
_cell_volume 5208.406723
_symmetry_space_group_name_H-M "I M M A"
_symmetry_group_IT_number 74
_symmetry_cell_setting 'orthorhombic'
loop_
_space_group_symop_operation_xyz
x,y,z
-x,1/2-y,z
x,-y,-z
-x,1/2+y,-z
-x,-y,-z
x,1/2+y,-z
-x,y,z
x,1/2-y,z
1/2+x,1/2+y,1/2+z
1/2-x,-y,1/2+z
1/2+x,1/2-y,1/2-z
1/2-x,y,1/2-z
1/2-x,1/2-y,1/2-z
1/2+x,y,1/2-z
1/2-x,1/2+y,1/2+z
1/2+x,-y,1/2+z
loop_
_atom_site_type_symbol
_atom_site_label
_atom_site_fract_x
_atom_site_fract_y
_atom_site_fract_z
Si Si1 0.395303 0.093163 0.612777
Si Si2 0.231832 0.819003 0.658887
Si Si3 0.111292 0.090312 0.426063
Si Si4 0.735036 0.008817 0.840530
Si Si5 0.639337 0.684512 0.247728
Si Si6 0.396636 0.894492 0.111886
Si Si7 0.109296 0.818531 0.969651
O O1 0.500000 0.069700 0.593375
O O2 0.332493 0.033118 0.620399
O O3 0.400872 0.133717 0.693399
O O4 0.358274 0.136599 0.540906
O O5 0.205772 0.750000 0.656275
O O6 0.250000 0.841595 0.750000
O O7 0.138912 0.852271 0.626587
O O8 0.326169 0.833966 0.608128
O O9 0.137990 0.106748 0.518775
O O10 0.000000 0.075214 0.414347
O O11 0.179779 0.036192 0.399932
O O12 0.750000 0.980871 0.750000
O O13 0.669871 0.066486 0.829919
O O14 0.599246 0.750000 0.271300
O O15 0.750000 0.685459 0.250000
O O16 0.605871 0.670415 0.154501
O O17 0.500000 0.922965 0.112885
O O18 0.125982 0.750000 0.998241
O O19 0.000000 0.828134 0.945377
#
# Coordination Sequence:
#
# PCOD8301343 Si02
#       7
#    16  16  16  16  16  16  16
#     4  11  21  37  62  93 131 174 213 259 319 379
#     4  10  22  42  68  95 123 158 202 263 329 386
#     4  11  26  44  66  92 124 169 216 266 327 390
#     4  12  23  41  62  89 123 168 218 274 319 375
#     4  11  22  37  61  97 138 179 216 257 318 386
#     4  11  22  40  63  91 127 172 218 262 314 378
#     4   9  19  36  61  93 127 165 207 253 314 387
#
# _framework density 21.503698
#
# number of rings (size 3 to 8) (size 9 to 14) (size 15 to 20)
#    0.000    1.286    2.857    3.000    0.000    4.857 
#    0.000    3.571    0.000    3.429    0.000    0.000 
#    0.000    0.000    0.000    0.000    0.000    0.000 
#
# Total GULP energy -694223.792531 kJ/mol
# GULP energy per Si atom -12396.853438 kJ/mol
# Density = 2.145475 g / cm^3
# Si number density = 21.503698 Si / 1000 Ang^3
#
#
#
# Elastic Constant Matrix: (Units=GPa)
#
#
# Indices 1 2 3 4 5 6 
#
# 1 118.3799 44.3972 48.4751 0.0000 0.0000 0.0000
# 2 44.3972 83.8631 50.6737 0.0001 0.0001 -0.0001
# 3 48.4751 50.6737 148.4784 0.0001 0.0002 -0.0001
# 4 0.0000 0.0001 0.0001 31.2929 0.0001 -0.0001
# 5 0.0000 0.0001 0.0002 0.0001 29.0435 0.0000
# 6 0.0000 -0.0001 -0.0001 -0.0001 0.0000 14.5386
#
#
#
# Elastic Compliance Matrix: (Units=1/GPa)
#
#
# Indices 1 2 3 4 5 6 
#
# 1 0.011001 -0.004603 -0.002021 0.000000 0.000000 0.000000
# 2 -0.004603 0.016948 -0.004281 0.000000 0.000000 0.000000
# 3 -0.002021 -0.004281 0.008856 0.000000 0.000000 0.000000
# 4 0.000000 0.000000 0.000000 0.031956 0.000000 0.000000
# 5 0.000000 0.000000 0.000000 0.000000 0.034431 0.000000
# 6 0.000000 0.000000 0.000000 0.000000 0.000000 0.068783
#
#
# Mechanical properties :
#
#
# Convention : Reuss Voigt Hill
#
# Bulk Modulus (GPa) = 66.68932 70.86815 68.77873
# Shear Modulus (GPa) = 25.15303 28.78669 26.96986
#
# Velocity S-wave (km/s) = 3.42381 3.66277 3.54531
# Velocity P-wave (km/s) = 6.83449 7.13552 6.98663
#
# Compressibility (1/GPa) = 0.01499491
#
# Stress axis : x y z
#
# Youngs Moduli (GPa) = 90.89959 59.00401 112.91960
#
# Poissons Ratio (x) = 0.27160 0.22818
# Poissons Ratio (y) = 0.41841 0.48345
# Poissons Ratio (z) = 0.18368 0.25262
#
# Static dielectric constant tensor:
#      x y z
#    x 4.004510 0.000000 0.000000 
#    y 0.000000 3.959570 0.000000 
#    z 0.000000 0.000000 3.928320 
# 
# 
# High freq. dielectric constant tensor:
#      x y z
#    x 1.855040 0.000000 0.000000 
#    y 0.000000 1.833300 0.000000 
#    z 0.000000 0.000000 1.845990 
# 
# From -- ./inp_files/32770.got.cif
#   From: 2010.03.12/outbox.cif.g09.slc.cpg/sg74_17_cif.got.tgz:32770.got - 2010.04.16 15:46:19.
