data_PCOD8301680
_publ_section_title
;
Structure prediction by ZEFSAII (Michael W. Deem and Ramdas Pophale) SiO2 
 PCOD8301680
Probable space group: I M M A
;
_chemical_formula_sum "Si O2"
_cell_formula_units_Z 56
_cell_length_a 16.862221
_cell_length_b 8.754639
_cell_length_c 18.323828
_cell_angle_alpha 90.000000
_cell_angle_beta 90.000000
_cell_angle_gamma 90.000000
_cell_volume 2705.012187
_symmetry_space_group_name_H-M "I M M A"
_symmetry_group_IT_number 74
_symmetry_cell_setting 'orthorhombic'
loop_
_space_group_symop_operation_xyz
x,y,z
-x,1/2-y,z
x,-y,-z
-x,1/2+y,-z
-x,-y,-z
x,1/2+y,-z
-x,y,z
x,1/2-y,z
1/2+x,1/2+y,1/2+z
1/2-x,-y,1/2+z
1/2+x,1/2-y,1/2-z
1/2-x,y,1/2-z
1/2-x,1/2-y,1/2-z
1/2+x,y,1/2-z
1/2-x,1/2+y,1/2+z
1/2+x,-y,1/2+z
loop_
_atom_site_type_symbol
_atom_site_label
_atom_site_fract_x
_atom_site_fract_y
_atom_site_fract_z
Si Si1 0.359576 0.426735 0.666032
Si Si2 0.500000 0.428532 0.421263
Si Si3 0.701467 0.927693 0.077461
Si Si4 0.907358 0.929025 0.688200
O O1 0.383746 0.250000 0.661767
O O2 0.422215 0.525213 0.621910
O O3 0.273788 0.456121 0.632350
O O4 0.359318 0.481030 0.749514
O O5 0.500000 0.250000 0.431212
O O6 0.500000 0.500000 0.500000
O O7 0.682799 0.750000 0.067179
O O8 0.624431 0.011576 0.110436
O O9 0.723331 0.000000 0.000000
O O10 0.891472 0.750000 0.696294
O O11 0.000000 0.967594 0.694074
#
# Coordination Sequence:
#
# PCOD8301680 Si02
#       4
#    16   8  16  16
#     4  11  23  41  65  94 128 166 211 262 317 379
#     4  12  24  38  60  92 129 170 211 256 316 378
#     4  11  25  43  65  94 127 168 214 264 322 379
#     4  11  24  42  66  96 128 168 214 261 317 381
#
# _framework density 20.702309
#
# number of rings (size 3 to 8) (size 9 to 14) (size 15 to 20)
#    0.000    0.857    1.429    5.571    0.000   12.571 
#    0.000    0.000    0.000    0.000    0.000    0.000 
#    0.000    0.000    0.000    0.000    0.000    0.000 
#
# Total GULP energy -347431.120407 kJ/mol
# GULP energy per Si atom -12408.254300 kJ/mol
# Density = 2.065519 g / cm^3
# Si number density = 20.702309 Si / 1000 Ang^3
#
#
#
# Elastic Constant Matrix: (Units=GPa)
#
#
# Indices 1 2 3 4 5 6 
#
# 1 76.2390 61.6941 49.1893 0.0000 0.0000 0.0000
# 2 61.6941 140.1913 48.5689 0.0000 0.0000 0.0000
# 3 49.1893 48.5689 96.7123 0.0000 0.0000 0.0000
# 4 0.0000 0.0000 0.0000 43.7512 0.0000 0.0000
# 5 0.0000 0.0000 0.0000 0.0000 56.1593 0.0000
# 6 0.0000 0.0000 0.0000 0.0000 0.0000 17.7542
#
#
#
# Elastic Compliance Matrix: (Units=1/GPa)
#
#
# Indices 1 2 3 4 5 6 
#
# 1 0.025378 -0.008107 -0.008836 0.000000 0.000000 0.000000
# 2 -0.008107 0.011225 -0.001514 0.000000 0.000000 0.000000
# 3 -0.008836 -0.001514 0.015595 0.000000 0.000000 0.000000
# 4 0.000000 0.000000 0.000000 0.022857 0.000000 0.000000
# 5 0.000000 0.000000 0.000000 0.000000 0.017806 0.000000
# 6 0.000000 0.000000 0.000000 0.000000 0.000000 0.056325
#
#
# Mechanical properties :
#
#
# Convention : Reuss Voigt Hill
#
# Bulk Modulus (GPa) = 65.43064 70.22747 67.82905
# Shear Modulus (GPa) = 26.15135 33.77895 29.96515
#
# Velocity S-wave (km/s) = 3.55802 4.04375 3.80864
# Velocity P-wave (km/s) = 6.96803 7.46986 7.22330
#
# Compressibility (1/GPa) = 0.01528336
#
# Stress axis : x y z
#
# Youngs Moduli (GPa) = 39.40410 89.08511 64.12458
#
# Poissons Ratio (x) = 0.72219 0.56663
# Poissons Ratio (y) = 0.31944 0.09709
# Poissons Ratio (z) = 0.34819 0.13488
#
# Static dielectric constant tensor:
#      x y z
#    x 3.738770 0.000000 0.000000 
#    y 0.000000 3.883070 0.000000 
#    z 0.000000 0.000000 3.825760 
# 
# 
# High freq. dielectric constant tensor:
#      x y z
#    x 1.815530 0.000000 0.000000 
#    y 0.000000 1.826820 0.000000 
#    z 0.000000 0.000000 1.822610 
# 
# From -- ./inp_files/38846.got.cif
#   From: 2010.03.12/outbox.cif.g09.slc.cpg/sg74_20_cif.got.tgz:38846.got - 2010.04.16 15:46:19.
