data_PCOD8301461
_publ_section_title
;
Structure prediction by ZEFSAII (Michael W. Deem and Ramdas Pophale) SiO2 
 PCOD8301461
Probable space group: I M M A
;
_chemical_formula_sum "Si O2"
_cell_formula_units_Z 80
_cell_length_a 14.270034
_cell_length_b 17.727752
_cell_length_c 15.882510
_cell_angle_alpha 90.000000
_cell_angle_beta 90.000000
_cell_angle_gamma 90.000000
_cell_volume 4017.887874
_symmetry_space_group_name_H-M "I M M A"
_symmetry_group_IT_number 74
_symmetry_cell_setting 'orthorhombic'
loop_
_space_group_symop_operation_xyz
x,y,z
-x,1/2-y,z
x,-y,-z
-x,1/2+y,-z
-x,-y,-z
x,1/2+y,-z
-x,y,z
x,1/2-y,z
1/2+x,1/2+y,1/2+z
1/2-x,-y,1/2+z
1/2+x,1/2-y,1/2-z
1/2-x,y,1/2-z
1/2-x,1/2-y,1/2-z
1/2+x,y,1/2-z
1/2-x,1/2+y,1/2+z
1/2+x,-y,1/2+z
loop_
_atom_site_type_symbol
_atom_site_label
_atom_site_fract_x
_atom_site_fract_y
_atom_site_fract_z
Si Si1 0.896205 0.416029 0.083394
Si Si2 0.896042 0.411585 0.414455
Si Si3 0.251056 0.971152 0.149285
Si Si4 0.750469 0.661039 0.034082
Si Si5 0.644644 0.661895 0.747913
O O1 0.839959 0.492794 0.103699
O O2 0.842366 0.362426 0.018119
O O3 0.910461 0.371148 0.169634
O O4 0.000000 0.435791 0.048572
O O5 0.842394 0.488774 0.390761
O O6 0.842033 0.361847 0.482840
O O7 0.908012 0.359795 0.332515
O O8 0.000000 0.431915 0.447780
O O9 0.250000 0.977576 0.250000
O O10 0.251798 0.883271 0.123062
O O11 0.751612 0.750000 0.052127
O O12 0.649408 0.750000 0.736762
O O13 0.750000 0.627052 0.750000
#
# Coordination Sequence:
#
# PCOD8301461 Si02
#       5
#    16  16  16  16  16
#     4  11  21  38  62  88 120 154 192 239 294 355
#     4  11  21  38  62  88 120 154 192 239 294 355
#     4  11  23  42  62  86 118 154 203 248 288 346
#     4  11  25  41  59  87 121 156 199 248 291 342
#     4  11  19  31  55  88 127 158 182 228 294 361
#
# _framework density 19.910959999999999
#
# number of rings (size 3 to 8) (size 9 to 14) (size 15 to 20)
#    0.000    1.000    6.000    4.200    0.000    7.600 
#    0.000    0.000    0.000    0.000    0.000    5.600 
#    0.000    0.000    0.000    0.000    0.000    0.000 
#
# Total GULP energy -495974.771096 kJ/mol
# GULP energy per Si atom -12399.369277 kJ/mol
# Density = 1.986564 g / cm^3
# Si number density = 19.910960 Si / 1000 Ang^3
#
#
#
# Elastic Constant Matrix: (Units=GPa)
#
#
# Indices 1 2 3 4 5 6 
#
# 1 169.9171 44.1308 18.0361 0.0000 0.0000 0.0000
# 2 44.1308 148.1029 46.1637 0.0001 0.0000 0.0000
# 3 18.0361 46.1637 39.7694 0.0001 0.0000 0.0000
# 4 0.0000 0.0001 0.0001 20.3533 0.0000 0.0000
# 5 0.0000 0.0000 0.0000 0.0000 -0.5854 0.0000
# 6 0.0000 0.0000 0.0000 0.0000 0.0000 -0.4664
#
#
#
# Elastic Compliance Matrix: (Units=1/GPa)
#
#
# Indices 1 2 3 4 5 6 
#
# 1 0.006408 -0.001573 -0.001081 0.000000 0.000000 0.000000
# 2 -0.001573 0.010966 -0.012016 0.000000 0.000000 0.000000
# 3 -0.001081 -0.012016 0.039583 0.000000 0.000000 0.000000
# 4 0.000000 0.000000 0.000000 0.049132 -0.000001 -0.000001
# 5 0.000000 0.000000 0.000000 -0.000001 -1.708206 0.000015
# 6 0.000000 0.000000 0.000000 -0.000001 0.000015 -2.144199
#
#
# Mechanical properties :
#
#
# Convention : Reuss Voigt Hill
#
# Bulk Modulus (GPa) = 36.20739 63.82785 50.01762
# Shear Modulus (GPa) = -1.34852 20.49087 9.57118
#
# Velocity S-wave (km/s) = -0.82386 3.21148 2.19486
# Velocity P-wave (km/s) = 4.16163 6.77331 5.62125
#
# Compressibility (1/GPa) = 0.02761867
#
# Stress axis : x y z
#
# Youngs Moduli (GPa) = 156.04530 91.19033 25.26325
#
# Poissons Ratio (x) = 0.14341 0.02730
# Poissons Ratio (y) = 0.24540 0.30356
# Poissons Ratio (z) = 0.16866 1.09575
#
# Static dielectric constant tensor:
#      x y z
#    x 3.710960 0.000000 0.000000 
#    y 0.000000 3.524000 0.000000 
#    z 0.000000 0.000000 3.578650 
# 
# 
# High freq. dielectric constant tensor:
#      x y z
#    x 1.780660 0.000000 0.000000 
#    y 0.000000 1.769830 0.000000 
#    z 0.000000 0.000000 1.768020 
# 
# From -- ./inp_files/32123.got.cif
#   From: 2010.03.12/outbox.cif.g09.slc.cpg/sg74_17_cif.got.tgz:32123.got - 2010.04.16 15:46:19.
