data_PCOD8301915
_publ_section_title
;
Structure prediction by ZEFSAII (Michael W. Deem and Ramdas Pophale) SiO2 
 PCOD8301915
Probable space group: P 41
;
_chemical_formula_sum "Si O2"
_cell_formula_units_Z 28
_cell_length_a 12.604177
_cell_length_b 12.604177
_cell_length_c 7.742953
_cell_angle_alpha 90.000000
_cell_angle_beta 90.000000
_cell_angle_gamma 90.000000
_cell_volume 1230.086380
_symmetry_space_group_name_H-M "P 41"
_symmetry_group_IT_number 76
_symmetry_cell_setting 'tetragonal'
loop_
_space_group_symop_operation_xyz
x,y,z
-y,x,1/4+z
-x,-y,1/2+z
y,-x,3/4+z
loop_
_atom_site_type_symbol
_atom_site_label
_atom_site_fract_x
_atom_site_fract_y
_atom_site_fract_z
Si Si1 0.259622 0.679729 0.830040
Si Si2 0.041715 0.126414 0.225887
Si Si3 0.993633 0.409005 0.637978
Si Si4 0.637651 0.982152 0.508074
Si Si5 0.627819 0.512405 0.199997
Si Si6 0.240735 0.180602 0.422131
Si Si7 0.797646 0.676393 0.241506
O O1 0.144006 0.635343 0.783025
O O2 0.341419 0.581514 0.833795
O O3 0.292216 0.762254 0.682504
O O4 0.264900 0.737230 0.016541
O O5 0.138912 0.111643 0.361293
O O6 0.934465 0.074501 0.301453
O O7 0.021484 0.250324 0.179296
O O8 0.033039 0.375683 0.447537
O O9 0.886699 0.348605 0.692777
O O10 0.979977 0.536927 0.644342
O O11 0.083665 0.366355 0.766708
O O12 0.536119 0.587337 0.272405
O O13 0.729784 0.582069 0.157429
O O14 0.212780 0.226554 0.608511
#
# Coordination Sequence:
#
# PCOD8301915 Si02
#       7
#     4   4   4   4   4   4   4
#     4  10  23  45  65 100 141 177 233 295 351 423
#     4  12  25  49  72 106 151 188 241 309 364 447
#     4  11  24  45  71 102 140 185 239 296 356 431
#     4  11  24  45  67 102 144 183 243 298 356 438
#     4  10  23  41  64  99 136 178 235 292 353 425
#     4  11  24  47  70 105 142 182 238 292 360 432
#     4  11  23  44  71  98 140 181 235 290 354 434
#
# _framework density 22.762627999999999
#
# number of rings (size 3 to 8) (size 9 to 14) (size 15 to 20)
#    0.000    1.143    5.714    0.000    4.000    3.429 
#    2.571    0.000    0.000    0.000    0.000    0.000 
#    0.000    0.000    0.000    0.000    0.000    0.000 
#
# Total GULP energy -347208.699800 kJ/mol
# GULP energy per Si atom -12400.310707 kJ/mol
# Density = 2.271082 g / cm^3
# Si number density = 22.762628 Si / 1000 Ang^3
#
#
#
# Elastic Constant Matrix: (Units=GPa)
#
#
# Indices 1 2 3 4 5 6 
#
# 1 108.5070 31.6528 25.9345 0.0000 0.0000 -2.8781
# 2 31.6528 108.5070 25.9345 0.0000 0.0000 2.8781
# 3 25.9345 25.9345 51.7708 0.0000 0.0000 0.0000
# 4 0.0000 0.0000 0.0000 31.2201 0.0000 0.0000
# 5 0.0000 0.0000 0.0000 0.0000 31.2201 0.0000
# 6 -2.8781 2.8781 0.0000 0.0000 0.0000 31.2819
#
#
#
# Elastic Compliance Matrix: (Units=1/GPa)
#
#
# Indices 1 2 3 4 5 6 
#
# 1 0.010930 -0.002172 -0.004388 0.000000 0.000000 0.001205
# 2 -0.002172 0.010930 -0.004388 0.000000 0.000000 -0.001205
# 3 -0.004388 -0.004388 0.023712 0.000000 0.000000 0.000000
# 4 0.000000 0.000000 0.000000 0.032031 0.000000 0.000000
# 5 0.000000 0.000000 0.000000 0.000000 0.032031 0.000000
# 6 0.001205 -0.001205 0.000000 0.000000 0.000000 0.032189
#
#
# Mechanical properties :
#
#
# Convention : Reuss Voigt Hill
#
# Bulk Modulus (GPa) = 42.23239 48.42538 45.32888
# Shear Modulus (GPa) = 29.13602 31.09529 30.11566
#
# Velocity S-wave (km/s) = 3.58158 3.70005 3.64130
# Velocity P-wave (km/s) = 5.97472 6.29079 6.13479
#
# Compressibility (1/GPa) = 0.02367851
#
# Stress axis : x y z
#
# Youngs Moduli (GPa) = 91.48992 91.48992 42.17323
#
# Poissons Ratio (x) = 0.19870 0.18504
# Poissons Ratio (y) = 0.19870 0.18504
# Poissons Ratio (z) = 0.40141 0.40141
#
# Static dielectric constant tensor:
#      x y z
#    x 4.220120 0.000000 0.000000 
#    y 0.000000 4.220120 0.000000 
#    z 0.000000 0.000000 3.812180 
# 
# 
# High freq. dielectric constant tensor:
#      x y z
#    x 1.905360 0.000000 0.000000 
#    y 0.000000 1.905360 0.000000 
#    z 0.000000 0.000000 1.878610 
# 
# From -- ./inp_files/593.got.cif
#   From: 2010.03.12/outbox.cif.g09.slc.cpg/sg76_cif.got.tgz:593.got - 2010.04.16 16:34:25.
