data_PCOD8301722
_publ_section_title
;
Structure prediction by ZEFSAII (Michael W. Deem and Ramdas Pophale) SiO2 
 PCOD8301722
Probable space group: I M M A
;
_chemical_formula_sum "Si O2"
_cell_formula_units_Z 64
_cell_length_a 20.915130
_cell_length_b 9.839798
_cell_length_c 14.913222
_cell_angle_alpha 90.000000
_cell_angle_beta 90.000000
_cell_angle_gamma 90.000000
_cell_volume 3069.150846
_symmetry_space_group_name_H-M "I M M A"
_symmetry_group_IT_number 74
_symmetry_cell_setting 'orthorhombic'
loop_
_space_group_symop_operation_xyz
x,y,z
-x,1/2-y,z
x,-y,-z
-x,1/2+y,-z
-x,-y,-z
x,1/2+y,-z
-x,y,z
x,1/2-y,z
1/2+x,1/2+y,1/2+z
1/2-x,-y,1/2+z
1/2+x,1/2-y,1/2-z
1/2-x,y,1/2-z
1/2-x,1/2-y,1/2-z
1/2+x,y,1/2-z
1/2-x,1/2+y,1/2+z
1/2+x,-y,1/2+z
loop_
_atom_site_type_symbol
_atom_site_label
_atom_site_fract_x
_atom_site_fract_y
_atom_site_fract_z
Si Si1 0.500000 0.917652 0.320651
Si Si2 0.283865 0.250000 0.344492
Si Si3 0.808331 0.750000 0.490739
Si Si4 0.896111 0.500000 0.500000
Si Si5 0.867026 0.501486 0.105708
Si Si6 0.208535 0.750000 0.162349
Si Si7 0.500000 0.589089 0.859910
O O1 0.500000 0.750000 0.317586
O O2 0.441833 0.983190 0.375684
O O3 0.500000 0.983869 0.222100
O O4 0.250000 0.250000 0.250000
O O5 0.223218 0.250000 0.411232
O O6 0.333020 0.372332 0.352881
O O7 0.850967 0.620353 0.467456
O O8 0.749349 0.750000 0.426018
O O9 0.937511 0.443630 0.417882
O O10 0.836570 0.621846 0.161620
O O11 0.853753 0.500000 0.000000
O O12 0.250000 0.750000 0.250000
O O13 0.500000 0.750000 0.832498
#
# Coordination Sequence:
#
# PCOD8301722 Si02
#       7
#     8   8   8   8  16   8   8
#     4  12  30  46  77 102 140 193 252 303 362 427
#     4  12  28  45  76 110 148 185 238 296 362 433
#     4  12  24  45  72 109 144 196 238 292 368 440
#     4  11  26  42  76  98 150 189 238 296 372 427
#     4  12  25  51  71 105 146 189 240 301 362 430
#     4  12  26  45  74 104 148 191 236 296 360 435
#     4  11  27  50  67 109 143 189 245 310 355 436
#
# _framework density 20.852674
#
# number of rings (size 3 to 8) (size 9 to 14) (size 15 to 20)
#    0.000    0.250    5.000    2.625   10.500    0.000 
#    0.000    0.000    0.000    0.000    0.000    0.000 
#    0.000    0.000    0.000    0.000    0.000    0.000 
#
# Total GULP energy -396722.648129 kJ/mol
# GULP energy per Si atom -12397.582754 kJ/mol
# Density = 2.080521 g / cm^3
# Si number density = 20.852674 Si / 1000 Ang^3
#
#
#
# Elastic Constant Matrix: (Units=GPa)
#
#
# Indices 1 2 3 4 5 6 
#
# 1 139.0265 61.8217 34.5996 0.0000 0.0000 0.0000
# 2 61.8217 172.9731 29.4443 0.0000 0.0000 0.0000
# 3 34.5996 29.4443 116.0236 0.0000 0.0000 0.0000
# 4 0.0000 0.0000 0.0000 34.3861 0.0000 0.0000
# 5 0.0000 0.0000 0.0000 0.0000 -15.9707 0.0000
# 6 0.0000 0.0000 0.0000 0.0000 0.0000 -42.0280
#
#
#
# Elastic Compliance Matrix: (Units=1/GPa)
#
#
# Indices 1 2 3 4 5 6 
#
# 1 0.008952 -0.002869 -0.001941 0.000000 0.000000 0.000000
# 2 -0.002869 0.006962 -0.000911 0.000000 0.000000 0.000000
# 3 -0.001941 -0.000911 0.009429 0.000000 0.000000 0.000000
# 4 0.000000 0.000000 0.000000 0.029081 0.000000 0.000000
# 5 0.000000 0.000000 0.000000 0.000000 -0.062615 0.000000
# 6 0.000000 0.000000 0.000000 0.000000 0.000000 -0.023794
#
#
# Mechanical properties :
#
#
# Convention : Reuss Voigt Hill
#
# Bulk Modulus (GPa) = 71.94504 75.52827 73.73665
# Shear Modulus (GPa) = -314.31118 15.42133 -149.44493
#
# Velocity S-wave (km/s) = -12.29051 2.72239 -8.47482
# Velocity P-wave (km/s) = 12.91636 6.79562 7.76698
#
# Compressibility (1/GPa) = 0.01389950
#
# Stress axis : x y z
#
# Youngs Moduli (GPa) = 111.70946 143.64243 106.05417
#
# Poissons Ratio (x) = 0.41210 0.20590
# Poissons Ratio (y) = 0.32049 0.09664
# Poissons Ratio (z) = 0.21688 0.13089
#
# Static dielectric constant tensor:
#      x y z
#    x 4.110480 0.000000 0.000000 
#    y 0.000000 4.000370 0.000000 
#    z 0.000000 0.000000 3.283250 
# 
# 
# High freq. dielectric constant tensor:
#      x y z
#    x 1.843990 0.000000 0.000000 
#    y 0.000000 1.837560 0.000000 
#    z 0.000000 0.000000 1.819220 
# 
# From -- ./inp_files/36032.got.cif
#   From: 2010.03.12/outbox.cif.g09.slc.cpg/sg74_19_cif.got.tgz:36032.got - 2010.04.16 15:46:19.
