data_PCOD8301859
_publ_section_title
;
Structure prediction by ZEFSAII (Michael W. Deem and Ramdas Pophale) SiO2 
 PCOD8301859
Probable space group: P 41
;
_chemical_formula_sum "Si O2"
_cell_formula_units_Z 20
_cell_length_a 10.903436
_cell_length_b 10.903436
_cell_length_c 8.259874
_cell_angle_alpha 90.000000
_cell_angle_beta 90.000000
_cell_angle_gamma 90.000000
_cell_volume 981.974432
_symmetry_space_group_name_H-M "P 41"
_symmetry_group_IT_number 76
_symmetry_cell_setting 'tetragonal'
loop_
_space_group_symop_operation_xyz
x,y,z
-y,x,1/4+z
-x,-y,1/2+z
y,-x,3/4+z
loop_
_atom_site_type_symbol
_atom_site_label
_atom_site_fract_x
_atom_site_fract_y
_atom_site_fract_z
Si Si1 0.484205 0.157727 0.524740
Si Si2 0.004905 0.651391 0.544208
Si Si3 0.693852 0.343521 0.530663
Si Si4 0.778513 0.228914 0.207610
Si Si5 0.424952 0.608389 0.582436
O O1 0.557866 0.064993 0.410885
O O2 0.573844 0.267140 0.586095
O O3 0.367820 0.215960 0.430838
O O4 0.432206 0.086970 0.678475
O O5 0.912003 0.736201 0.440894
O O6 0.083404 0.747943 0.649864
O O7 0.766941 0.269026 0.393888
O O8 0.659402 0.477030 0.461845
O O9 0.693933 0.307771 0.086938
O O10 0.393212 0.471857 0.648352
#
# Coordination Sequence:
#
# PCOD8301859 Si02
#       5
#     4   4   4   4   4
#     4  11  23  39  64  93 128 161 198 255 309 377
#     4  11  24  41  62  88 124 166 212 247 305 353
#     4  10  19  38  57  93 125 154 192 247 319 369
#     4  10  23  40  60  85 122 166 205 255 293 360
#     4  10  19  32  57  87 127 151 189 246 316 367
#
# _framework density 20.367127
#
# number of rings (size 3 to 8) (size 9 to 14) (size 15 to 20)
#    0.000    1.600    6.000    1.200    5.600    1.600 
#    0.000    4.000    0.000    0.000    0.000    0.000 
#    0.000    0.000    0.000    0.000    0.000    0.000 
#
# Total GULP energy -248010.172852 kJ/mol
# GULP energy per Si atom -12400.508643 kJ/mol
# Density = 2.032077 g / cm^3
# Si number density = 20.367127 Si / 1000 Ang^3
#
#
#
# Elastic Constant Matrix: (Units=GPa)
#
#
# Indices 1 2 3 4 5 6 
#
# 1 106.2898 48.6408 37.2504 0.0000 0.0000 1.9493
# 2 48.6408 106.2898 37.2504 0.0000 0.0000 -1.9493
# 3 37.2504 37.2504 51.0288 0.0000 0.0000 0.0000
# 4 0.0000 0.0000 0.0000 25.6559 0.0000 0.0000
# 5 0.0000 0.0000 0.0000 0.0000 25.6559 0.0000
# 6 1.9493 -1.9493 0.0000 0.0000 0.0000 33.3215
#
#
#
# Elastic Compliance Matrix: (Units=1/GPa)
#
#
# Indices 1 2 3 4 5 6 
#
# 1 0.013680 -0.003735 -0.007260 0.000000 0.000000 -0.001019
# 2 -0.003735 0.013680 -0.007260 0.000000 0.000000 0.001019
# 3 -0.007260 -0.007260 0.030197 0.000000 0.000000 0.000000
# 4 0.000000 0.000000 0.000000 0.038977 0.000000 0.000000
# 5 0.000000 0.000000 0.000000 0.000000 0.038977 0.000000
# 6 -0.001019 0.001019 0.000000 0.000000 0.000000 0.030130
#
#
# Mechanical properties :
#
#
# Convention : Reuss Voigt Hill
#
# Bulk Modulus (GPa) = 47.51274 56.65461 52.08368
# Shear Modulus (GPa) = 23.90420 26.29111 25.09766
#
# Velocity S-wave (km/s) = 3.42960 3.59675 3.51417
# Velocity P-wave (km/s) = 6.24993 6.71758 6.48797
#
# Compressibility (1/GPa) = 0.02104699
#
# Stress axis : x y z
#
# Youngs Moduli (GPa) = 73.09687 73.09687 33.11641
#
# Poissons Ratio (x) = 0.27300 0.24043
# Poissons Ratio (y) = 0.27300 0.24043
# Poissons Ratio (z) = 0.53070 0.53070
#
# Static dielectric constant tensor:
#      x y z
#    x 3.789650 0.000000 0.000000 
#    y 0.000000 3.789650 0.000000 
#    z 0.000000 0.000000 3.555070 
# 
# 
# High freq. dielectric constant tensor:
#      x y z
#    x 1.790760 0.000000 0.000000 
#    y 0.000000 1.790760 0.000000 
#    z 0.000000 0.000000 1.793250 
# 
# From -- ./inp_files/485.got.cif
#   From: 2010.03.12/outbox.cif.g09.slc.cpg/sg76_cif.got.tgz:485.got - 2010.04.16 16:34:25.
