data_PCOD8301784
_publ_section_title
;
Structure prediction by ZEFSAII (Michael W. Deem and Ramdas Pophale) SiO2 
 PCOD8301784
Probable space group: I M M A
;
_chemical_formula_sum "Si O2"
_cell_formula_units_Z 72
_cell_length_a 9.412183
_cell_length_b 16.309466
_cell_length_c 28.300546
_cell_angle_alpha 90.000000
_cell_angle_beta 90.000000
_cell_angle_gamma 90.000000
_cell_volume 4344.351120
_symmetry_space_group_name_H-M "I M M A"
_symmetry_group_IT_number 74
_symmetry_cell_setting 'orthorhombic'
loop_
_space_group_symop_operation_xyz
x,y,z
-x,1/2-y,z
x,-y,-z
-x,1/2+y,-z
-x,-y,-z
x,1/2+y,-z
-x,y,z
x,1/2-y,z
1/2+x,1/2+y,1/2+z
1/2-x,-y,1/2+z
1/2+x,1/2-y,1/2-z
1/2-x,y,1/2-z
1/2-x,1/2-y,1/2-z
1/2+x,y,1/2-z
1/2-x,1/2+y,1/2+z
1/2+x,-y,1/2+z
loop_
_atom_site_type_symbol
_atom_site_label
_atom_site_fract_x
_atom_site_fract_y
_atom_site_fract_z
Si Si1 0.164091 0.428304 0.297919
Si Si2 0.160849 0.250000 0.296112
Si Si3 0.659672 0.582754 0.529339
Si Si4 0.834031 0.001118 0.606033
Si Si5 0.162757 0.658523 0.451374
O O1 0.250000 0.445442 0.250000
O O2 0.193563 0.337277 0.321477
O O3 0.206512 0.493340 0.338574
O O4 0.000000 0.438024 0.284034
O O5 0.250000 0.250000 0.250000
O O6 0.000000 0.250000 0.279313
O O7 0.655633 0.500000 0.500000
O O8 0.500000 0.613480 0.540769
O O9 0.744566 0.566689 0.577569
O O10 0.740979 0.650137 0.498037
O O11 0.000000 0.981667 0.598067
O O12 0.794870 0.093212 0.589218
O O13 0.184748 0.750000 0.430626
O O14 0.000000 0.643864 0.466887
#
# Coordination Sequence:
#
# PCOD8301784 Si02
#       5
#    16   8  16  16  16
#     4   9  17  29  46  66  89 117 148 184 223 266
#     4   8  14  26  42  60  82 108 138 172 214 258
#     4   9  17  29  45  65  90 118 146 182 228 272
#     4   9  17  30  47  67  91 119 153 189 225 268
#     4   9  17  30  48  67  88 119 156 190 224 265
#
# _framework density 16.573246000000001
#
# number of rings (size 3 to 8) (size 9 to 14) (size 15 to 20)
#    0.000    3.111    0.000    0.667    0.000    4.000 
#    2.000    0.000    0.000    0.667    0.000    0.000 
#    0.000    0.000    0.000    0.000    0.000    0.000 
#
# Total GULP energy -445997.778983 kJ/mol
# GULP energy per Si atom -12388.827194 kJ/mol
# Density = 1.653552 g / cm^3
# Si number density = 16.573246 Si / 1000 Ang^3
#
#
#
# Elastic Constant Matrix: (Units=GPa)
#
#
# Indices 1 2 3 4 5 6 
#
# 1 70.9564 36.4318 51.3010 0.0000 0.0000 0.0000
# 2 36.4318 86.9995 54.0871 0.0000 0.0000 0.0000
# 3 51.3010 54.0871 113.7308 0.0000 0.0000 0.0000
# 4 0.0000 0.0000 0.0000 20.0044 0.0000 0.0000
# 5 0.0000 0.0000 0.0000 0.0000 23.8725 0.0000
# 6 0.0000 0.0000 0.0000 0.0000 0.0000 14.5262
#
#
#
# Elastic Compliance Matrix: (Units=1/GPa)
#
#
# Indices 1 2 3 4 5 6 
#
# 1 0.022001 -0.004321 -0.007869 0.000000 0.000000 0.000000
# 2 -0.004321 0.017168 -0.006216 0.000000 0.000000 0.000000
# 3 -0.007869 -0.006216 0.015298 0.000000 0.000000 0.000000
# 4 0.000000 0.000000 0.000000 0.049989 0.000000 0.000000
# 5 0.000000 0.000000 0.000000 0.000000 0.041889 0.000000
# 6 0.000000 0.000000 0.000000 0.000000 0.000000 0.068841
#
#
# Mechanical properties :
#
#
# Convention : Reuss Voigt Hill
#
# Bulk Modulus (GPa) = 56.63821 61.70295 59.17058
# Shear Modulus (GPa) = 19.38863 20.33841 19.86352
#
# Velocity S-wave (km/s) = 3.42405 3.50692 3.46573
# Velocity P-wave (km/s) = 7.06264 7.32866 7.19688
#
# Compressibility (1/GPa) = 0.01765593
#
# Stress axis : x y z
#
# Youngs Moduli (GPa) = 45.45236 58.24829 65.36707
#
# Poissons Ratio (x) = 0.25168 0.51439
# Poissons Ratio (y) = 0.19639 0.40629
# Poissons Ratio (z) = 0.35768 0.36204
#
# Static dielectric constant tensor:
#      x y z
#    x 3.278870 0.000000 0.000000 
#    y 0.000000 1.993460 0.000000 
#    z 0.000000 0.000000 2.871110 
# 
# 
# High freq. dielectric constant tensor:
#      x y z
#    x 1.642020 0.000000 0.000000 
#    y 0.000000 1.625310 0.000000 
#    z 0.000000 0.000000 1.611210 
# 
# From -- ./inp_files/60599.got.cif
#   From: 2010.03.12/outbox.cif.g09.slc.cpg/sg74_31_cif.got.tgz:60599.got - 2010.04.16 15:46:19.
