data_PCOD8301696
_publ_section_title
;
Structure prediction by ZEFSAII (Michael W. Deem and Ramdas Pophale) SiO2 
 PCOD8301696
Probable space group: I M M A
;
_chemical_formula_sum "Si O2"
_cell_formula_units_Z 88
_cell_length_a 9.251377
_cell_length_b 18.786565
_cell_length_c 26.938098
_cell_angle_alpha 90.000000
_cell_angle_beta 90.000000
_cell_angle_gamma 90.000000
_cell_volume 4681.884408
_symmetry_space_group_name_H-M "I M M A"
_symmetry_group_IT_number 74
_symmetry_cell_setting 'orthorhombic'
loop_
_space_group_symop_operation_xyz
x,y,z
-x,1/2-y,z
x,-y,-z
-x,1/2+y,-z
-x,-y,-z
x,1/2+y,-z
-x,y,z
x,1/2-y,z
1/2+x,1/2+y,1/2+z
1/2-x,-y,1/2+z
1/2+x,1/2-y,1/2-z
1/2-x,y,1/2-z
1/2-x,1/2-y,1/2-z
1/2+x,y,1/2-z
1/2-x,1/2+y,1/2+z
1/2+x,-y,1/2+z
loop_
_atom_site_type_symbol
_atom_site_label
_atom_site_fract_x
_atom_site_fract_y
_atom_site_fract_z
Si Si1 0.830618 0.250000 0.198488
Si Si2 0.160390 0.928894 0.552114
Si Si3 0.832614 0.528553 0.298285
Si Si4 0.658802 0.377203 0.163612
Si Si5 0.170032 0.577703 0.405529
Si Si6 0.669630 0.831984 0.478405
O O1 0.750000 0.250000 0.250000
O O2 0.784438 0.319631 0.168433
O O3 0.000000 0.250000 0.206322
O O4 0.154463 0.902376 0.607792
O O5 0.274875 0.881726 0.522783
O O6 0.000000 0.920678 0.527952
O O7 0.203776 0.012481 0.555880
O O8 0.750000 0.559020 0.250000
O O9 0.807049 0.443844 0.300952
O O10 0.773620 0.563469 0.349492
O O11 0.000000 0.547053 0.291708
O O12 0.500000 0.345771 0.177791
O O13 0.253949 0.645975 0.426784
O O14 0.000000 0.592216 0.403921
O O15 0.500000 0.843374 0.472632
O O16 0.707813 0.750000 0.490196
#
# Coordination Sequence:
#
# PCOD8301696 Si02
#       6
#     8  16  16  16  16  16
#     4  12  24  34  46  66  98 140 182 224 267 310
#     4   9  19  36  58  80 104 139 180 221 263 314
#     4   9  18  33  55  81 106 131 168 218 265 316
#     4   9  19  35  52  73 102 135 175 219 262 313
#     4   9  19  37  58  81 107 138 180 222 260 314
#     4  11  24  37  51  78 114 144 176 221 268 317
#
# _framework density 18.795850999999999
#
# number of rings (size 3 to 8) (size 9 to 14) (size 15 to 20)
#    0.000    2.364    0.000    4.636    1.273    8.000 
#    0.000    3.636    0.000    0.545    0.000    0.000 
#    0.000    0.000    0.000    0.000    0.000    0.000 
#
# Total GULP energy -545499.125681 kJ/mol
# GULP energy per Si atom -12397.707402 kJ/mol
# Density = 1.875307 g / cm^3
# Si number density = 18.795851 Si / 1000 Ang^3
#
#
#
# Elastic Constant Matrix: (Units=GPa)
#
#
# Indices 1 2 3 4 5 6 
#
# 1 88.1870 42.3748 33.8107 0.0000 0.0000 0.0000
# 2 42.3748 67.2015 25.5052 0.0000 0.0000 0.0000
# 3 33.8107 25.5052 61.8318 0.0000 0.0000 0.0000
# 4 0.0000 0.0000 0.0000 8.5120 0.0000 0.0000
# 5 0.0000 0.0000 0.0000 0.0000 33.7660 0.0000
# 6 0.0000 0.0000 0.0000 0.0000 0.0000 22.2174
#
#
#
# Elastic Compliance Matrix: (Units=1/GPa)
#
#
# Indices 1 2 3 4 5 6 
#
# 1 0.018037 -0.009047 -0.006131 0.000000 0.000000 0.000000
# 2 -0.009047 0.022180 -0.004202 0.000000 0.000000 0.000000
# 3 -0.006131 -0.004202 0.021259 0.000000 0.000000 0.000000
# 4 0.000000 0.000000 0.000000 0.117481 0.000000 0.000000
# 5 0.000000 0.000000 0.000000 0.000000 0.029616 0.000000
# 6 0.000000 0.000000 0.000000 0.000000 0.000000 0.045010
#
#
# Mechanical properties :
#
#
# Convention : Reuss Voigt Hill
#
# Bulk Modulus (GPa) = 44.02224 46.73351 45.37787
# Shear Modulus (GPa) = 16.67140 20.60108 18.63624
#
# Velocity S-wave (km/s) = 2.98144 3.31425 3.15224
# Velocity P-wave (km/s) = 5.94341 6.28994 6.11913
#
# Compressibility (1/GPa) = 0.02271579
#
# Stress axis : x y z
#
# Youngs Moduli (GPa) = 55.44070 45.08577 47.03869
#
# Poissons Ratio (x) = 0.40787 0.28842
# Poissons Ratio (y) = 0.50155 0.19767
# Poissons Ratio (z) = 0.33993 0.18946
#
# Static dielectric constant tensor:
#      x y z
#    x 3.072470 0.000000 0.000000 
#    y 0.000000 3.251350 0.000000 
#    z 0.000000 0.000000 3.489740 
# 
# 
# High freq. dielectric constant tensor:
#      x y z
#    x 1.721710 0.000000 0.000000 
#    y 0.000000 1.708810 0.000000 
#    z 0.000000 0.000000 1.740470 
# 
# From -- ./inp_files/70277.got.cif
#   From: 2010.03.12/outbox.cif.g09.slc.cpg/sg74_36_cif.got.tgz:70277.got - 2010.04.16 15:46:19.
