data_PCOD8301830
_publ_section_title
;
Structure prediction by ZEFSAII (Michael W. Deem and Ramdas Pophale) SiO2 
 PCOD8301830
Probable space group: I M M A
;
_chemical_formula_sum "Si O2"
_cell_formula_units_Z 56
_cell_length_a 24.000000
_cell_length_b 15.000000
_cell_length_c 15.000000
_cell_angle_alpha 90.000000
_cell_angle_beta 90.000000
_cell_angle_gamma 90.000000
_cell_volume 5400.000000
_symmetry_space_group_name_H-M "I M M A"
_symmetry_group_IT_number 74
_symmetry_cell_setting 'orthorhombic'
loop_
_space_group_symop_operation_xyz
x,y,z
-x,1/2-y,z
x,-y,-z
-x,1/2+y,-z
-x,-y,-z
x,1/2+y,-z
-x,y,z
x,1/2-y,z
1/2+x,1/2+y,1/2+z
1/2-x,-y,1/2+z
1/2+x,1/2-y,1/2-z
1/2-x,y,1/2-z
1/2-x,1/2-y,1/2-z
1/2+x,y,1/2-z
1/2-x,1/2+y,1/2+z
1/2+x,-y,1/2+z
loop_
_atom_site_type_symbol
_atom_site_label
_atom_site_fract_x
_atom_site_fract_y
_atom_site_fract_z
Si Si1 0.061344 0.599710 0.966107
Si Si2 0.199122 0.846663 0.813447
Si Si3 0.744498 0.396921 0.003665
Si Si4 0.563934 0.500670 0.116219
Si Si5 0.381838 0.353428 0.999064
Si Si6 0.349762 0.151571 0.600409
Si Si7 0.391281 0.479585 0.299331
O O1 0.077794 0.589974 0.863624
O O2 0.000000 0.644517 0.977204
O O3 0.059827 0.500000 0.000000
O O4 0.109398 0.655549 0.014603
O O5 0.168373 0.750000 0.820759
O O6 0.250000 0.833364 0.750000
O O7 0.162562 0.924310 0.768172
O O8 0.220171 0.875428 0.909688
O O9 0.685462 0.346711 0.999100
O O10 0.785353 0.368872 0.923022
O O11 0.730083 0.500000 0.000000
O O12 0.500000 0.502474 0.083486
O O13 0.595514 0.591289 0.086054
O O14 0.565507 0.499782 0.221833
O O15 0.594464 0.410438 0.082321
O O16 0.403472 0.250000 0.000076
O O17 0.352100 0.250000 0.645345
O O18 0.372832 0.075552 0.664514
#
# Coordination Sequence:
#
# PCOD8301830 Si02
#       7
#    16  16  16  16  16  16  16
#     4   9  18  35  56  81 117 163 208 248 290 344
#     4  11  23  37  59  90 124 161 203 254 313 372
#     4  12  20  40  64  93 129 167 210 258 316 376
#     4  11  25  44  67  95 125 162 210 265 321 386
#     4  11  24  44  69  95 123 161 208 263 327 394
#     4  11  22  37  59  91 130 174 214 250 301 368
#     4  11  22  38  60  89 125 163 208 258 311 366
#
# _framework density 10.370369999999999
#
# number of rings (size 3 to 8) (size 9 to 14) (size 15 to 20)
#    0.000    1.143    4.286    3.857    0.000    4.286 
#    0.000    0.000    0.000    4.714    0.000    0.000 
#    0.000    0.000    0.000    0.000    0.000    0.000 
#
# Total GULP energy -693919.281739 kJ/mol
# GULP energy per Si atom -12391.415745 kJ/mol
# Density = 1.034677 g / cm^3
# Si number density = 10.370370 Si / 1000 Ang^3
#
#
#
# Elastic Constant Matrix: (Units=GPa)
#
#
# Indices 1 2 3 4 5 6 
#
# 1 122.7951 27.6043 10.4995 0.0000 0.0000 0.0000
# 2 27.6043 157.8102 23.0600 0.0000 0.0000 0.0000
# 3 10.4995 23.0600 70.8777 0.0000 0.0000 0.0000
# 4 0.0000 0.0000 0.0000 11.2308 0.0000 0.0000
# 5 0.0000 0.0000 0.0000 0.0000 50.5039 0.0000
# 6 0.0000 0.0000 0.0000 0.0000 0.0000 16.2752
#
#
#
# Elastic Compliance Matrix: (Units=1/GPa)
#
#
# Indices 1 2 3 4 5 6 
#
# 1 0.008522 -0.001371 -0.000816 0.000000 0.000000 0.000000
# 2 -0.001371 0.006874 -0.002033 0.000000 0.000000 0.000000
# 3 -0.000816 -0.002033 0.014891 0.000000 0.000000 0.000000
# 4 0.000000 0.000000 0.000000 0.089041 0.000000 0.000000
# 5 0.000000 0.000000 0.000000 0.000000 0.019800 0.000000
# 6 0.000000 0.000000 0.000000 0.000000 0.000000 0.061443
#
#
# Mechanical properties :
#
#
# Convention : Reuss Voigt Hill
#
# Bulk Modulus (GPa) = 45.77683 52.64563 49.21123
# Shear Modulus (GPa) = 23.11665 34.95659 29.03662
#
# Velocity S-wave (km/s) = 3.34211 4.10982 3.74569
# Velocity P-wave (km/s) = 6.08374 6.92522 6.51807
#
# Compressibility (1/GPa) = 0.02184511
#
# Stress axis : x y z
#
# Youngs Moduli (GPa) = 117.34728 145.48190 67.15368
#
# Poissons Ratio (x) = 0.19951 0.05481
# Poissons Ratio (y) = 0.16093 0.13654
# Poissons Ratio (z) = 0.09578 0.29579
#
# Static dielectric constant tensor:
#      x y z
#    x 3.949030 0.000000 0.000000 
#    y 0.000000 4.065910 0.000000 
#    z 0.000000 0.000000 3.261460 
# 
# 
# High freq. dielectric constant tensor:
#      x y z
#    x 1.821240 0.000000 0.000000 
#    y 0.000000 1.820990 0.000000 
#    z 0.000000 0.000000 1.785950 
# 
# From -- ./inp_files/36544.got.cif
#   From: 2010.03.12/outbox.ucp.g09.slc.cvg/sg74_19_cif.got.tgz:36544.got - 2010.05.04 20:08:06.
