data_PCOD8301856
_publ_section_title
;
Structure prediction by ZEFSAII (Michael W. Deem and Ramdas Pophale) SiO2 
 PCOD8301856
Probable space group: P 41
;
_chemical_formula_sum "Si O2"
_cell_formula_units_Z 28
_cell_length_a 9.007437
_cell_length_b 9.007437
_cell_length_c 18.037314
_cell_angle_alpha 90.000000
_cell_angle_beta 90.000000
_cell_angle_gamma 90.000000
_cell_volume 1463.438015
_symmetry_space_group_name_H-M "P 41"
_symmetry_group_IT_number 76
_symmetry_cell_setting 'tetragonal'
loop_
_space_group_symop_operation_xyz
x,y,z
-y,x,1/4+z
-x,-y,1/2+z
y,-x,3/4+z
loop_
_atom_site_type_symbol
_atom_site_label
_atom_site_fract_x
_atom_site_fract_y
_atom_site_fract_z
Si Si1 0.698681 0.733170 0.054470
Si Si2 0.504970 0.865254 0.382265
Si Si3 0.718429 0.877171 0.902578
Si Si4 0.550334 0.373580 0.995790
Si Si5 0.597664 0.573508 0.854799
Si Si6 0.934548 0.125172 0.901323
Si Si7 0.845121 0.215378 0.055580
O O1 0.772647 0.570484 0.064144
O O2 0.520625 0.718237 0.057521
O O3 0.747628 0.820175 0.127595
O O4 0.759427 0.814440 0.982763
O O5 0.540677 0.749085 0.448567
O O6 0.653608 0.934621 0.347080
O O7 0.408916 0.000968 0.412472
O O8 0.657734 0.743022 0.851501
O O9 0.868548 0.962375 0.875468
O O10 0.446176 0.439353 0.061973
O O11 0.687207 0.282162 0.030797
O O12 0.592888 0.511143 0.939665
O O13 0.091296 0.168255 0.868390
O O14 0.939836 0.140290 0.990113
#
# Coordination Sequence:
#
# PCOD8301856 Si02
#       7
#     4   4   4   4   4   4   4
#     4  10  18  37  62  85 107 162 207 244 308 364
#     4  10  22  37  62  87 124 159 206 257 304 382
#     4  11  21  39  59  90 125 153 208 262 310 368
#     4  11  19  38  66  92 117 166 208 261 307 377
#     4  11  20  34  68  93 118 153 210 265 312 356
#     4  11  23  38  65  85 121 171 204 252 304 388
#     4  12  21  41  62  90 124 170 217 245 319 381
#
# _framework density 19.133026999999998
#
# number of rings (size 3 to 8) (size 9 to 14) (size 15 to 20)
#    0.000    1.143   10.000    0.000    0.000    1.143 
#    2.571    0.000    3.143    0.000    0.000    0.000 
#    0.000    0.000    0.000    0.000    0.000    0.000 
#
# Total GULP energy -346896.521625 kJ/mol
# GULP energy per Si atom -12389.161487 kJ/mol
# Density = 1.908948 g / cm^3
# Si number density = 19.133027 Si / 1000 Ang^3
#
#
#
# Elastic Constant Matrix: (Units=GPa)
#
#
# Indices 1 2 3 4 5 6 
#
# 1 103.1881 42.3959 39.4616 0.0000 0.0000 1.8306
# 2 42.3959 103.1881 39.4616 0.0000 0.0000 -1.8306
# 3 39.4616 39.4616 84.3569 0.0000 0.0000 0.0000
# 4 0.0000 0.0000 0.0000 23.2035 0.0000 0.0000
# 5 0.0000 0.0000 0.0000 0.0000 23.2035 0.0000
# 6 1.8306 -1.8306 0.0000 0.0000 0.0000 19.9178
#
#
#
# Elastic Compliance Matrix: (Units=1/GPa)
#
#
# Indices 1 2 3 4 5 6 
#
# 1 0.012872 -0.003669 -0.004305 0.000000 0.000000 -0.001520
# 2 -0.003669 0.012872 -0.004305 0.000000 0.000000 0.001520
# 3 -0.004305 -0.004305 0.015882 0.000000 0.000000 0.000000
# 4 0.000000 0.000000 0.000000 0.043097 0.000000 0.000000
# 5 0.000000 0.000000 0.000000 0.000000 0.043097 0.000000
# 6 -0.001520 0.001520 0.000000 0.000000 0.000000 0.050486
#
#
# Mechanical properties :
#
#
# Convention : Reuss Voigt Hill
#
# Bulk Modulus (GPa) = 58.59056 59.26346 58.92701
# Shear Modulus (GPa) = 23.97473 24.55921 24.26697
#
# Velocity S-wave (km/s) = 3.54369 3.58663 3.56522
# Velocity P-wave (km/s) = 6.88715 6.94216 6.91471
#
# Compressibility (1/GPa) = 0.01706759
#
# Stress axis : x y z
#
# Youngs Moduli (GPa) = 77.68894 77.68894 62.96415
#
# Poissons Ratio (x) = 0.28505 0.27106
# Poissons Ratio (y) = 0.28505 0.27106
# Poissons Ratio (z) = 0.33445 0.33445
#
# Static dielectric constant tensor:
#      x y z
#    x 3.549590 0.000000 0.000000 
#    y 0.000000 3.549590 0.000000 
#    z 0.000000 0.000000 3.591660 
# 
# 
# High freq. dielectric constant tensor:
#      x y z
#    x 1.729950 0.000000 0.000000 
#    y 0.000000 1.729950 0.000000 
#    z 0.000000 0.000000 1.748140 
# 
# From -- ./inp_files/1242.got.cif
#   From: 2010.03.12/outbox.cif.g09.slc.cpg/sg76_cif.got.tgz:1242.got - 2010.04.16 16:34:25.
