data_PCOD8301617
_publ_section_title
;
Structure prediction by ZEFSAII (Michael W. Deem and Ramdas Pophale) SiO2 
 PCOD8301617
Probable space group: I M M A
;
_chemical_formula_sum "Si O2"
_cell_formula_units_Z 88
_cell_length_a 22.111633
_cell_length_b 8.423798
_cell_length_c 22.876911
_cell_angle_alpha 90.000000
_cell_angle_beta 90.000000
_cell_angle_gamma 90.000000
_cell_volume 4261.143346
_symmetry_space_group_name_H-M "I M M A"
_symmetry_group_IT_number 74
_symmetry_cell_setting 'orthorhombic'
loop_
_space_group_symop_operation_xyz
x,y,z
-x,1/2-y,z
x,-y,-z
-x,1/2+y,-z
-x,-y,-z
x,1/2+y,-z
-x,y,z
x,1/2-y,z
1/2+x,1/2+y,1/2+z
1/2-x,-y,1/2+z
1/2+x,1/2-y,1/2-z
1/2-x,y,1/2-z
1/2-x,1/2-y,1/2-z
1/2+x,y,1/2-z
1/2-x,1/2+y,1/2+z
1/2+x,-y,1/2+z
loop_
_atom_site_type_symbol
_atom_site_label
_atom_site_fract_x
_atom_site_fract_y
_atom_site_fract_z
Si Si1 0.433246 0.562949 0.559832
Si Si2 0.000000 0.938359 0.433377
Si Si3 0.259930 0.563854 0.062073
Si Si4 0.835805 0.437345 0.149609
Si Si5 0.683305 0.934775 0.232057
Si Si6 0.125145 0.937025 0.615138
O O1 0.404658 0.500000 0.500000
O O2 0.500000 0.490312 0.569323
O O3 0.435479 0.750000 0.558135
O O4 0.390586 0.502030 0.610431
O O5 0.000000 0.750000 0.435094
O O6 0.000000 0.000000 0.500000
O O7 0.941805 0.997283 0.396976
O O8 0.250186 0.750000 0.064453
O O9 0.226592 0.486572 0.117939
O O10 0.330280 0.517966 0.068082
O O11 0.235050 0.500000 0.000000
O O12 0.834714 0.250000 0.160981
O O13 0.852418 0.531448 0.208475
O O14 0.686224 0.750000 0.215078
O O15 0.750000 0.001475 0.250000
O O16 0.649187 0.025741 0.180294
O O17 0.125068 0.750000 0.605142
#
# Coordination Sequence:
#
# PCOD8301617 Si02
#       6
#    16   8  16  16  16  16
#     4   9  19  36  57  83 117 156 198 247 302 363
#     4  12  26  48  74 102 138 176 221 272 331 396
#     4  12  24  39  60  91 127 163 205 259 320 383
#     4  11  22  37  60  89 121 161 208 260 316 380
#     4  11  23  41  65  92 126 166 208 259 318 379
#     4  12  25  44  69  97 129 169 217 266 325 387
#
# _framework density 20.651733
#
# number of rings (size 3 to 8) (size 9 to 14) (size 15 to 20)
#    0.000    0.909    1.818    6.273    0.000    3.636 
#    1.636    0.000    0.000    0.000    0.000    0.000 
#    0.000    0.000    0.000    0.000    0.000    0.000 
#
# Total GULP energy -545597.912412 kJ/mol
# GULP energy per Si atom -12399.952555 kJ/mol
# Density = 2.060473 g / cm^3
# Si number density = 20.651733 Si / 1000 Ang^3
#
#
#
# Elastic Constant Matrix: (Units=GPa)
#
#
# Indices 1 2 3 4 5 6 
#
# 1 100.0853 17.4630 40.5149 0.0000 0.0000 0.0000
# 2 17.4630 63.6147 20.0979 0.0000 0.0000 0.0000
# 3 40.5149 20.0979 127.4388 0.0000 0.0000 0.0000
# 4 0.0000 0.0000 0.0000 38.3444 0.0000 0.0000
# 5 0.0000 0.0000 0.0000 0.0000 20.9769 0.0000
# 6 0.0000 0.0000 0.0000 0.0000 0.0000 19.3942
#
#
#
# Elastic Compliance Matrix: (Units=1/GPa)
#
#
# Indices 1 2 3 4 5 6 
#
# 1 0.011740 -0.002151 -0.003393 0.000000 0.000000 0.000000
# 2 -0.002151 0.016938 -0.001987 0.000000 0.000000 0.000000
# 3 -0.003393 -0.001987 0.009239 0.000000 0.000000 0.000000
# 4 0.000000 0.000000 0.000000 0.026079 0.000000 0.000000
# 5 0.000000 0.000000 0.000000 0.000000 0.047671 0.000000
# 6 0.000000 0.000000 0.000000 0.000000 0.000000 0.051562
#
#
# Mechanical properties :
#
#
# Convention : Reuss Voigt Hill
#
# Bulk Modulus (GPa) = 43.75527 49.69893 46.72710
# Shear Modulus (GPa) = 26.89455 29.94730 28.42093
#
# Velocity S-wave (km/s) = 3.61264 3.81216 3.71374
# Velocity P-wave (km/s) = 6.21569 6.59502 6.40816
#
# Compressibility (1/GPa) = 0.02285439
#
# Stress axis : x y z
#
# Youngs Moduli (GPa) = 85.17623 59.03895 108.23558
#
# Poissons Ratio (x) = 0.12698 0.36727
# Poissons Ratio (y) = 0.18320 0.21511
# Poissons Ratio (z) = 0.28902 0.11734
#
# Static dielectric constant tensor:
#      x y z
#    x 4.111770 0.000000 0.000000 
#    y 0.000000 3.677810 0.000000 
#    z 0.000000 0.000000 3.969120 
# 
# 
# High freq. dielectric constant tensor:
#      x y z
#    x 1.807150 0.000000 0.000000 
#    y 0.000000 1.814400 0.000000 
#    z 0.000000 0.000000 1.821260 
# 
# From -- ./inp_files/54499.got.cif
#   From: 2010.03.12/outbox.cif.g09.slc.cpg/sg74_28_cif.got.tgz:54499.got - 2010.04.16 15:46:19.
