data_PCOD8301337
_publ_section_title
;
Structure prediction by ZEFSAII (Michael W. Deem and Ramdas Pophale) SiO2 
 PCOD8301337
Probable space group: I M M A
;
_chemical_formula_sum "Si O2"
_cell_formula_units_Z 96
_cell_length_a 13.313119
_cell_length_b 20.822123
_cell_length_c 16.265610
_cell_angle_alpha 90.000000
_cell_angle_beta 90.000000
_cell_angle_gamma 90.000000
_cell_volume 4508.947479
_symmetry_space_group_name_H-M "I M M A"
_symmetry_group_IT_number 74
_symmetry_cell_setting 'orthorhombic'
loop_
_space_group_symop_operation_xyz
x,y,z
-x,1/2-y,z
x,-y,-z
-x,1/2+y,-z
-x,-y,-z
x,1/2+y,-z
-x,y,z
x,1/2-y,z
1/2+x,1/2+y,1/2+z
1/2-x,-y,1/2+z
1/2+x,1/2-y,1/2-z
1/2-x,y,1/2-z
1/2-x,1/2-y,1/2-z
1/2+x,y,1/2-z
1/2-x,1/2+y,1/2+z
1/2+x,-y,1/2+z
loop_
_atom_site_type_symbol
_atom_site_label
_atom_site_fract_x
_atom_site_fract_y
_atom_site_fract_z
Si Si1 0.383790 0.674884 0.038543
Si Si2 0.879458 0.250000 0.096185
Si Si3 0.880891 0.678495 0.644344
Si Si4 0.380811 0.001904 0.594523
Si Si5 0.777856 0.628080 0.156005
Si Si6 0.117556 0.250000 0.911368
Si Si7 0.880140 0.876064 0.811169
O O1 0.500000 0.660947 0.055056
O O2 0.359590 0.750000 0.053029
O O3 0.322691 0.631469 0.101876
O O4 0.352691 0.653290 0.946340
O O5 0.836943 0.185814 0.139959
O O6 0.000000 0.250000 0.099546
O O7 0.836861 0.250000 0.003504
O O8 0.835704 0.750000 0.657784
O O9 0.841819 0.629684 0.715829
O O10 0.000000 0.684331 0.651387
O O11 0.500000 0.006492 0.599157
O O12 0.335335 0.062825 0.639075
O O13 0.344932 0.000000 0.500000
O O14 0.340136 0.939749 0.643935
O O15 0.750000 0.631564 0.250000
O O16 0.850446 0.686992 0.136753
O O17 0.000000 0.250000 0.919109
O O18 0.000000 0.875166 0.814431
#
# Coordination Sequence:
#
# PCOD8301337 Si02
#       7
#    16   8  16  16  16   8  16
#     4   9  19  37  63  93 126 161 199 253 324 384
#     4   9  16  29  58  98 126 151 198 250 302 367
#     4   8  13  26  53  91 126 153 187 240 307 375
#     4  10  22  42  65  89 126 175 212 251 315 381
#     4  12  25  43  62  92 124 159 214 270 315 372
#     4  11  23  39  63  92 125 163 207 263 321 375
#     4   9  15  28  57  93 125 158 199 247 302 371
#
# _framework density 21.291
#
# number of rings (size 3 to 8) (size 9 to 14) (size 15 to 20)
#    0.000    2.333    1.667    2.750    0.000    4.000 
#    3.000    0.000    0.000    1.500    0.000    0.000 
#    0.000    0.000    0.000    0.000    0.000    0.000 
#
# Total GULP energy -595256.609252 kJ/mol
# GULP energy per Si atom -12401.179359 kJ/mol
# Density = 2.124254 g / cm^3
# Si number density = 21.291000 Si / 1000 Ang^3
#
#
#
# Elastic Constant Matrix: (Units=GPa)
#
#
# Indices 1 2 3 4 5 6 
#
# 1 31.7178 25.6477 32.2791 -0.0001 0.0000 0.0000
# 2 25.6477 156.8304 85.8448 -0.0001 0.0000 0.0000
# 3 32.2791 85.8448 203.9654 0.0000 0.0000 0.0000
# 4 -0.0001 -0.0001 0.0000 79.0656 0.0001 -0.0001
# 5 0.0000 0.0000 0.0000 0.0001 23.3510 0.0000
# 6 0.0000 0.0000 0.0000 -0.0001 0.0000 -8.3275
#
#
#
# Elastic Compliance Matrix: (Units=1/GPa)
#
#
# Indices 1 2 3 4 5 6 
#
# 1 0.039364 -0.003934 -0.004574 0.000000 0.000000 0.000000
# 2 -0.003934 0.008678 -0.003030 0.000000 0.000000 0.000000
# 3 -0.004574 -0.003030 0.006902 0.000000 0.000000 0.000000
# 4 0.000000 0.000000 0.000000 0.012648 0.000000 0.000000
# 5 0.000000 0.000000 0.000000 0.000000 0.042825 0.000000
# 6 0.000000 0.000000 0.000000 0.000000 0.000000 -0.120085
#
#
# Mechanical properties :
#
#
# Convention : Reuss Voigt Hill
#
# Bulk Modulus (GPa) = 31.37887 75.56187 53.47037
# Shear Modulus (GPa) = 208.07124 35.40061 121.73593
#
# Velocity S-wave (km/s) = 9.89644 4.08205 7.56976
# Velocity P-wave (km/s) = 12.05637 7.60162 10.07821
#
# Compressibility (1/GPa) = 0.03186858
#
# Stress axis : x y z
#
# Youngs Moduli (GPa) = 25.40394 115.23232 144.88815
#
# Poissons Ratio (x) = 0.45330 0.66272
# Poissons Ratio (y) = 0.09993 0.43899
# Poissons Ratio (z) = 0.11620 0.34914
#
# Static dielectric constant tensor:
#      x y z
#    x 3.789520 0.000000 0.000000 
#    y 0.000000 3.750230 0.000000 
#    z 0.000000 0.000000 4.108240 
# 
# 
# High freq. dielectric constant tensor:
#      x y z
#    x 1.849460 0.000000 0.000000 
#    y 0.000000 1.811540 0.000000 
#    z 0.000000 0.000000 1.845150 
# 
# From -- ./inp_files/32456.got.cif
#   From: 2010.03.12/outbox.cif.g09.slc.cpg/sg74_17_cif.got.tgz:32456.got - 2010.04.16 15:46:19.
