data_PCOD8301508
_publ_section_title
;
Structure prediction by ZEFSAII (Michael W. Deem and Ramdas Pophale) SiO2 
 PCOD8301508
Probable space group: I M M A
;
_chemical_formula_sum "Si O2"
_cell_formula_units_Z 96
_cell_length_a 16.832655
_cell_length_b 20.102831
_cell_length_c 14.865591
_cell_angle_alpha 90.000000
_cell_angle_beta 90.000000
_cell_angle_gamma 90.000000
_cell_volume 5030.278424
_symmetry_space_group_name_H-M "I M M A"
_symmetry_group_IT_number 74
_symmetry_cell_setting 'orthorhombic'
loop_
_space_group_symop_operation_xyz
x,y,z
-x,1/2-y,z
x,-y,-z
-x,1/2+y,-z
-x,-y,-z
x,1/2+y,-z
-x,y,z
x,1/2-y,z
1/2+x,1/2+y,1/2+z
1/2-x,-y,1/2+z
1/2+x,1/2-y,1/2-z
1/2-x,y,1/2-z
1/2-x,1/2-y,1/2-z
1/2+x,y,1/2-z
1/2-x,1/2+y,1/2+z
1/2+x,-y,1/2+z
loop_
_atom_site_type_symbol
_atom_site_label
_atom_site_fract_x
_atom_site_fract_y
_atom_site_fract_z
Si Si1 0.736360 0.579379 0.009494
Si Si2 0.094767 0.250000 0.086437
Si Si3 0.091454 0.510191 0.767161
Si Si4 0.583585 0.954461 0.083156
Si Si5 0.823348 0.619525 0.179376
Si Si6 0.195608 0.631718 0.833378
Si Si7 0.405999 0.250000 0.625993
O O1 0.744081 0.615722 0.914404
O O2 0.743252 0.500000 0.000000
O O3 0.652176 0.598010 0.057646
O O4 0.801422 0.607672 0.076011
O O5 0.132212 0.313490 0.136410
O O6 0.000000 0.250000 0.101687
O O7 0.115819 0.250000 0.980386
O O8 0.108537 0.506695 0.660784
O O9 0.112571 0.436955 0.801028
O O10 0.147968 0.564992 0.810311
O O11 0.000000 0.526858 0.790666
O O12 0.500000 0.917638 0.109274
O O13 0.566378 0.000000 0.000000
O O14 0.750000 0.617672 0.250000
O O15 0.868740 0.688923 0.180809
O O16 0.250000 0.656190 0.750000
O O17 0.500000 0.250000 0.637888
#
# Coordination Sequence:
#
# PCOD8301508 Si02
#       7
#    16   8  16  16  16  16   8
#     4  11  20  35  60  91 123 152 197 244 293 351
#     4  11  25  44  62  85 120 160 200 246 303 357
#     4  11  22  37  61  93 123 155 196 245 301 352
#     4   9  18  33  54  85 124 159 190 239 299 352
#     4  12  22  40  62  91 120 156 200 245 295 351
#     4  12  23  40  63  90 119 158 202 246 295 354
#     4  11  25  44  62  85 120 162 200 242 303 359
#
# _framework density 19.084430999999999
#
# number of rings (size 3 to 8) (size 9 to 14) (size 15 to 20)
#    0.000    1.000    5.000    4.000    0.000    0.000 
#    0.000    1.667    0.000    0.000    0.000    2.333 
#    0.000    0.000    0.000    0.000    0.000    0.000 
#
# Total GULP energy -594826.538642 kJ/mol
# GULP energy per Si atom -12392.219555 kJ/mol
# Density = 1.904099 g / cm^3
# Si number density = 19.084431 Si / 1000 Ang^3
#
#
#
# Elastic Constant Matrix: (Units=GPa)
#
#
# Indices 1 2 3 4 5 6 
#
# 1 95.6505 35.3499 22.0384 0.0000 0.0000 0.0000
# 2 35.3499 97.4448 24.2476 0.0000 0.0000 0.0000
# 3 22.0384 24.2476 91.5028 0.0000 0.0000 0.0000
# 4 0.0000 0.0000 0.0000 25.5486 0.0000 0.0000
# 5 0.0000 0.0000 0.0000 0.0000 26.6593 0.0000
# 6 0.0000 0.0000 0.0000 0.0000 0.0000 24.6379
#
#
#
# Elastic Compliance Matrix: (Units=1/GPa)
#
#
# Indices 1 2 3 4 5 6 
#
# 1 0.012380 -0.004014 -0.001918 0.000000 0.000000 0.000000
# 2 -0.004014 0.012288 -0.002290 0.000000 0.000000 0.000000
# 3 -0.001918 -0.002290 0.011997 0.000000 0.000000 0.000000
# 4 0.000000 0.000000 0.000000 0.039141 0.000000 0.000000
# 5 0.000000 0.000000 0.000000 0.000000 0.037510 0.000000
# 6 0.000000 0.000000 0.000000 0.000000 0.000000 0.040588
#
#
# Mechanical properties :
#
#
# Convention : Reuss Voigt Hill
#
# Bulk Modulus (GPa) = 49.44979 49.76334 49.60656
# Shear Modulus (GPa) = 28.23449 28.89997 28.56723
#
# Velocity S-wave (km/s) = 3.85054 3.89565 3.87316
# Velocity P-wave (km/s) = 6.76285 6.80931 6.78612
#
# Compressibility (1/GPa) = 0.02022253
#
# Stress axis : x y z
#
# Youngs Moduli (GPa) = 80.77500 81.38007 83.35198
#
# Poissons Ratio (x) = 0.32664 0.15988
# Poissons Ratio (y) = 0.32422 0.19084
# Poissons Ratio (z) = 0.15493 0.18632
#
# Static dielectric constant tensor:
#      x y z
#    x 4.173190 0.000000 0.000000 
#    y 0.000000 3.215430 0.000000 
#    z 0.000000 0.000000 3.874300 
# 
# 
# High freq. dielectric constant tensor:
#      x y z
#    x 1.759210 0.000000 0.000000 
#    y 0.000000 1.713430 0.000000 
#    z 0.000000 0.000000 1.761770 
# 
# From -- ./inp_files/32457.got.cif
#   From: 2010.03.12/outbox.cif.g09.slc.cpg/sg74_17_cif.got.tgz:32457.got - 2010.04.16 15:46:19.
