data_PCOD8301080
_publ_section_title
;
Structure prediction by ZEFSAII (Michael W. Deem and Ramdas Pophale) SiO2 
 PCOD8301080
Probable space group: I M M A
;
_chemical_formula_sum "Si O2"
_cell_formula_units_Z 104
_cell_length_a 25.159732
_cell_length_b 9.585157
_cell_length_c 19.125495
_cell_angle_alpha 90.000000
_cell_angle_beta 90.000000
_cell_angle_gamma 90.000000
_cell_volume 4612.304017
_symmetry_space_group_name_H-M "I M M A"
_symmetry_group_IT_number 74
_symmetry_cell_setting 'orthorhombic'
loop_
_space_group_symop_operation_xyz
x,y,z
-x,1/2-y,z
x,-y,-z
-x,1/2+y,-z
-x,-y,-z
x,1/2+y,-z
-x,y,z
x,1/2-y,z
1/2+x,1/2+y,1/2+z
1/2-x,-y,1/2+z
1/2+x,1/2-y,1/2-z
1/2-x,y,1/2-z
1/2-x,1/2-y,1/2-z
1/2+x,y,1/2-z
1/2-x,1/2+y,1/2+z
1/2+x,-y,1/2+z
loop_
_atom_site_type_symbol
_atom_site_label
_atom_site_fract_x
_atom_site_fract_y
_atom_site_fract_z
Si Si1 0.940622 0.409821 0.569276
Si Si2 0.780309 0.500000 0.500000
Si Si3 0.302692 0.408229 0.610422
Si Si4 0.083864 0.095743 0.941279
Si Si5 0.661513 0.411175 0.270067
Si Si6 0.646592 0.096871 0.118746
Si Si7 0.558338 0.091809 0.712596
O O1 0.936425 0.500000 0.500000
O O2 0.924956 0.250000 0.553279
O O3 0.898545 0.476614 0.622564
O O4 0.000000 0.418216 0.600999
O O5 0.745193 0.587234 0.445135
O O6 0.817554 0.405217 0.451115
O O7 0.308239 0.250000 0.637973
O O8 0.356182 0.458031 0.572647
O O9 0.297400 0.507587 0.678935
O O10 0.085384 0.250000 0.973059
O O11 0.050392 0.090442 0.870799
O O12 0.056843 0.000000 0.000000
O O13 0.657947 0.250000 0.294623
O O14 0.682024 0.421299 0.189380
O O15 0.602716 0.479327 0.267518
O O16 0.619326 0.250000 0.120384
O O17 0.500000 0.053750 0.744442
O O18 0.574684 0.250000 0.736722
#
# Coordination Sequence:
#
# PCOD8301080 Si02
#       7
#    16   8  16  16  16  16  16
#     4  10  21  38  63  94 129 170 213 257 310 371
#     4  12  24  42  69  96 121 158 210 264 316 376
#     4  10  22  41  64  91 121 161 210 257 312 379
#     4   9  17  31  52  82 116 152 195 245 299 356
#     4  10  23  42  63  89 127 168 208 255 312 375
#     4  11  25  43  64  96 132 166 206 259 315 369
#     4   9  19  37  59  85 120 162 208 256 306 363
#
# _framework density 22.548385
#
# number of rings (size 3 to 8) (size 9 to 14) (size 15 to 20)
#    0.000    2.000    1.538    2.308    0.000    8.308 
#    0.000    5.385    0.000    0.000    0.000    0.000 
#    0.000    0.000    0.000    0.000    0.000    0.000 
#
# Total GULP energy -644347.146197 kJ/mol
# GULP energy per Si atom -12391.291273 kJ/mol
# Density = 2.249706 g / cm^3
# Si number density = 22.548385 Si / 1000 Ang^3
#
#
#
# Elastic Constant Matrix: (Units=GPa)
#
#
# Indices 1 2 3 4 5 6 
#
# 1 88.6867 34.6121 21.7819 0.0000 0.0000 0.0000
# 2 34.6121 143.5504 60.0249 0.0000 0.0000 0.0000
# 3 21.7819 60.0249 123.5157 0.0000 0.0000 0.0000
# 4 0.0000 0.0000 0.0000 31.9777 0.0000 0.0000
# 5 0.0000 0.0000 0.0000 0.0000 7.9660 0.0000
# 6 0.0000 0.0000 0.0000 0.0000 0.0000 12.5570
#
#
#
# Elastic Compliance Matrix: (Units=1/GPa)
#
#
# Indices 1 2 3 4 5 6 
#
# 1 0.012532 -0.002632 -0.000931 0.000000 0.000000 0.000000
# 2 -0.002632 0.009296 -0.004053 0.000000 0.000000 0.000000
# 3 -0.000931 -0.004053 0.010230 0.000000 0.000000 0.000000
# 4 0.000000 0.000000 0.000000 0.031272 0.000000 0.000000
# 5 0.000000 0.000000 0.000000 0.000000 0.125534 0.000000
# 6 0.000000 0.000000 0.000000 0.000000 0.000000 0.079637
#
#
# Mechanical properties :
#
#
# Convention : Reuss Voigt Hill
#
# Bulk Modulus (GPa) = 59.43626 65.39895 62.41761
# Shear Modulus (GPa) = 17.28065 26.45572 21.86818
#
# Velocity S-wave (km/s) = 2.77136 3.42904 3.11759
# Velocity P-wave (km/s) = 6.05452 6.68914 6.37973
#
# Compressibility (1/GPa) = 0.01682475
#
# Stress axis : x y z
#
# Youngs Moduli (GPa) = 79.79836 107.57610 97.75163
#
# Poissons Ratio (x) = 0.28318 0.09097
# Poissons Ratio (y) = 0.21006 0.39621
# Poissons Ratio (z) = 0.07427 0.43603
#
# Static dielectric constant tensor:
#      x y z
#    x 3.960540 0.000000 0.000000 
#    y 0.000000 3.970460 0.000000 
#    z 0.000000 0.000000 4.090620 
# 
# 
# High freq. dielectric constant tensor:
#      x y z
#    x 1.876620 0.000000 0.000000 
#    y 0.000000 1.885400 0.000000 
#    z 0.000000 0.000000 1.892180 
# 
# From -- ./inp_files/55276.got.cif
#   From: 2010.03.12/outbox.cif.g09.slc.cpg/sg74_28_cif.got.tgz:55276.got - 2010.04.16 15:46:19.
