data_PCOD8301485
_publ_section_title
;
Structure prediction by ZEFSAII (Michael W. Deem and Ramdas Pophale) SiO2 
 PCOD8301485
Probable space group: I M M A
;
_chemical_formula_sum "Si O2"
_cell_formula_units_Z 80
_cell_length_a 23.290333
_cell_length_b 8.744755
_cell_length_c 26.350284
_cell_angle_alpha 90.000000
_cell_angle_beta 90.000000
_cell_angle_gamma 90.000000
_cell_volume 5366.716386
_symmetry_space_group_name_H-M "I M M A"
_symmetry_group_IT_number 74
_symmetry_cell_setting 'orthorhombic'
loop_
_space_group_symop_operation_xyz
x,y,z
-x,1/2-y,z
x,-y,-z
-x,1/2+y,-z
-x,-y,-z
x,1/2+y,-z
-x,y,z
x,1/2-y,z
1/2+x,1/2+y,1/2+z
1/2-x,-y,1/2+z
1/2+x,1/2-y,1/2-z
1/2-x,y,1/2-z
1/2-x,1/2-y,1/2-z
1/2+x,y,1/2-z
1/2-x,1/2+y,1/2+z
1/2+x,-y,1/2+z
loop_
_atom_site_type_symbol
_atom_site_label
_atom_site_fract_x
_atom_site_fract_y
_atom_site_fract_z
Si Si1 0.317128 0.072370 0.350627
Si Si2 0.388055 0.571662 0.552774
Si Si3 0.208312 0.419019 0.297927
Si Si4 0.385432 0.927739 0.260676
Si Si5 0.500000 0.931138 0.398437
Si Si6 0.500000 0.570325 0.713057
O O1 0.326192 0.250000 0.334912
O O2 0.335950 0.042700 0.408166
O O3 0.249330 0.028334 0.344842
O O4 0.356056 0.970312 0.313878
O O5 0.367551 0.500000 0.500000
O O6 0.401620 0.750000 0.546492
O O7 0.444851 0.488767 0.571677
O O8 0.182882 0.250000 0.307893
O O9 0.250000 0.416699 0.250000
O O10 0.155428 0.532685 0.287402
O O11 0.399476 0.750000 0.260110
O O12 0.444464 0.020398 0.254938
O O13 0.500000 0.750000 0.397272
O O14 0.500000 0.991263 0.341486
O O15 0.500000 0.750000 0.704196
#
# Coordination Sequence:
#
# PCOD8301485 Si02
#       6
#    16  16  16  16   8   8
#     4   9  18  32  48  62  83 115 147 178 219 267
#     4  11  22  35  49  64  85 116 151 191 230 266
#     4   8  15  29  46  63  83 111 143 173 211 264
#     4  11  20  29  44  67  89 110 141 181 221 259
#     4  12  23  35  48  64  83 110 150 195 233 269
#     4  12  22  33  47  62  86 120 150 181 220 265
#
# _framework density 14.906694
#
# number of rings (size 3 to 8) (size 9 to 14) (size 15 to 20)
#    0.000    1.800    2.000    5.700    0.000    4.400 
#    0.000    0.000    0.000    0.000    0.000    0.000 
#    0.000    0.000    0.000    0.900    0.000   10.800 
#
# Total GULP energy -495927.347507 kJ/mol
# GULP energy per Si atom -12398.183688 kJ/mol
# Density = 1.487277 g / cm^3
# Si number density = 14.906694 Si / 1000 Ang^3
#
#
#
# Elastic Constant Matrix: (Units=GPa)
#
#
# Indices 1 2 3 4 5 6 
#
# 1 89.7084 38.6273 55.9903 0.0000 0.0000 0.0000
# 2 38.6273 98.9222 35.4089 0.0000 0.0000 0.0000
# 3 55.9903 35.4089 67.7944 0.0000 0.0000 0.0000
# 4 0.0000 0.0000 0.0000 19.2779 0.0000 0.0000
# 5 0.0000 0.0000 0.0000 0.0000 8.5060 0.0000
# 6 0.0000 0.0000 0.0000 0.0000 0.0000 12.5318
#
#
#
# Elastic Compliance Matrix: (Units=1/GPa)
#
#
# Indices 1 2 3 4 5 6 
#
# 1 0.023600 -0.002753 -0.018053 0.000000 0.000000 0.000000
# 2 -0.002753 0.012755 -0.004388 0.000000 0.000000 0.000000
# 3 -0.018053 -0.004388 0.031952 0.000000 0.000000 0.000000
# 4 0.000000 0.000000 0.000000 0.051873 0.000000 0.000000
# 5 0.000000 0.000000 0.000000 0.000000 0.117563 0.000000
# 6 0.000000 0.000000 0.000000 0.000000 0.000000 0.079797
#
#
# Mechanical properties :
#
#
# Convention : Reuss Voigt Hill
#
# Bulk Modulus (GPa) = 55.80816 57.38645 56.59730
# Shear Modulus (GPa) = 13.37249 16.48971 14.93110
#
# Velocity S-wave (km/s) = 2.99838 3.32956 3.16830
# Velocity P-wave (km/s) = 7.03609 7.30493 7.17177
#
# Compressibility (1/GPa) = 0.01791853
#
# Stress axis : x y z
#
# Youngs Moduli (GPa) = 42.37199 78.40241 31.29696
#
# Poissons Ratio (x) = 0.21588 0.56501
# Poissons Ratio (y) = 0.11667 0.13732
# Poissons Ratio (z) = 0.76495 0.34401
#
# Static dielectric constant tensor:
#      x y z
#    x 3.150550 0.000000 0.000000 
#    y 0.000000 2.955170 0.000000 
#    z 0.000000 0.000000 2.836700 
# 
# 
# High freq. dielectric constant tensor:
#      x y z
#    x 1.562610 0.000000 0.000000 
#    y 0.000000 1.582700 0.000000 
#    z 0.000000 0.000000 1.529050 
# 
# From -- ./inp_files/68539.got.cif
#   From: 2010.03.12/outbox.cif.g09.slc.cpg/sg74_35_cif.got.tgz:68539.got - 2010.04.16 15:46:19.
