data_PCOD8301051
_publ_section_title
;
Structure prediction by ZEFSAII (Michael W. Deem and Ramdas Pophale) SiO2 
 PCOD8301051
Probable space group: I M M A
;
_chemical_formula_sum "Si O2"
_cell_formula_units_Z 104
_cell_length_a 9.042108
_cell_length_b 21.190493
_cell_length_c 26.739510
_cell_angle_alpha 90.000000
_cell_angle_beta 90.000000
_cell_angle_gamma 90.000000
_cell_volume 5123.469973
_symmetry_space_group_name_H-M "I M M A"
_symmetry_group_IT_number 74
_symmetry_cell_setting 'orthorhombic'
loop_
_space_group_symop_operation_xyz
x,y,z
-x,1/2-y,z
x,-y,-z
-x,1/2+y,-z
-x,-y,-z
x,1/2+y,-z
-x,y,z
x,1/2-y,z
1/2+x,1/2+y,1/2+z
1/2-x,-y,1/2+z
1/2+x,1/2-y,1/2-z
1/2-x,y,1/2-z
1/2-x,1/2-y,1/2-z
1/2+x,y,1/2-z
1/2-x,1/2+y,1/2+z
1/2+x,-y,1/2+z
loop_
_atom_site_type_symbol
_atom_site_label
_atom_site_fract_x
_atom_site_fract_y
_atom_site_fract_z
Si Si1 0.167200 0.649577 0.135600
Si Si2 0.169763 0.676352 0.801008
Si Si3 0.173367 0.822553 0.022455
Si Si4 0.327104 0.076390 0.143025
Si Si5 0.330236 0.469255 0.700595
Si Si6 0.327500 0.562068 0.971154
Si Si7 0.827866 0.250000 0.697586
O O1 0.213385 0.655089 0.078168
O O2 0.180233 0.578231 0.154032
O O3 0.283415 0.688521 0.167295
O O4 0.000000 0.675636 0.143242
O O5 0.183977 0.750000 0.810810
O O6 0.250000 0.656010 0.750000
O O7 0.251229 0.644190 0.848192
O O8 0.000000 0.654650 0.797935
O O9 0.227945 0.750000 0.013805
O O10 0.000000 0.826710 0.012269
O O11 0.252353 0.872000 0.986190
O O12 0.500000 0.081295 0.153528
O O13 0.295267 0.051681 0.087297
O O14 0.253506 0.031788 0.184178
O O15 0.500000 0.484096 0.713758
O O16 0.250000 0.441420 0.750000
O O17 0.500000 0.569360 0.982930
O O18 0.264238 0.500000 0.000000
O O19 0.750000 0.250000 0.750000
O O20 0.000000 0.250000 0.707473
#
# Coordination Sequence:
#
# PCOD8301051 Si02
#       7
#    16  16  16  16  16  16   8
#     4  10  21  40  61  84 119 157 198 246 295 348
#     4  10  21  38  61  88 119 154 193 238 288 354
#     4  10  21  39  64  91 122 158 199 252 306 359
#     4  11  23  39  60  85 118 156 194 246 299 354
#     4  11  23  38  60  87 118 158 199 245 296 354
#     4  10  23  42  62  87 120 157 201 254 305 358
#     4  12  24  36  56  84 116 156 198 244 293 346
#
# _framework density 20.298742000000001
#
# number of rings (size 3 to 8) (size 9 to 14) (size 15 to 20)
#    0.000    1.538    0.769    3.923    0.000    6.462 
#    0.000    3.077    0.000    0.000    0.000    0.000 
#    0.000    0.000    0.000    0.000    0.000    0.000 
#
# Total GULP energy -644937.648966 kJ/mol
# GULP energy per Si atom -12402.647096 kJ/mol
# Density = 2.025254 g / cm^3
# Si number density = 20.298742 Si / 1000 Ang^3
#
#
#
# Elastic Constant Matrix: (Units=GPa)
#
#
# Indices 1 2 3 4 5 6 
#
# 1 119.7113 45.1425 44.9817 0.0000 0.0000 0.0000
# 2 45.1425 103.2429 35.6728 0.0000 0.0000 0.0000
# 3 44.9817 35.6728 69.7806 0.0000 0.0000 0.0000
# 4 0.0000 0.0000 0.0000 38.7835 0.0000 0.0000
# 5 0.0000 0.0000 0.0000 0.0000 34.3221 0.0000
# 6 0.0000 0.0000 0.0000 0.0000 0.0000 35.7377
#
#
#
# Elastic Compliance Matrix: (Units=1/GPa)
#
#
# Indices 1 2 3 4 5 6 
#
# 1 0.011772 -0.003067 -0.006021 0.000000 0.000000 0.000000
# 2 -0.003067 0.012563 -0.004445 0.000000 0.000000 0.000000
# 3 -0.006021 -0.004445 0.020484 0.000000 0.000000 0.000000
# 4 0.000000 0.000000 0.000000 0.025784 0.000000 0.000000
# 5 0.000000 0.000000 0.000000 0.000000 0.029136 0.000000
# 6 0.000000 0.000000 0.000000 0.000000 0.000000 0.027982
#
#
# Mechanical properties :
#
#
# Convention : Reuss Voigt Hill
#
# Bulk Modulus (GPa) = 56.32748 60.48096 58.40422
# Shear Modulus (GPa) = 31.11299 32.89785 32.00542
#
# Velocity S-wave (km/s) = 3.91929 4.03014 3.97510
# Velocity P-wave (km/s) = 6.94914 7.17747 7.06423
#
# Compressibility (1/GPa) = 0.01775332
#
# Stress axis : x y z
#
# Youngs Moduli (GPa) = 84.94529 79.59948 48.81833
#
# Poissons Ratio (x) = 0.24414 0.29392
# Poissons Ratio (y) = 0.26054 0.21701
# Poissons Ratio (z) = 0.51143 0.35384
#
# Static dielectric constant tensor:
#      x y z
#    x 3.712270 0.000000 0.000000 
#    y 0.000000 3.715180 0.000000 
#    z 0.000000 0.000000 3.930960 
# 
# 
# High freq. dielectric constant tensor:
#      x y z
#    x 1.794520 0.000000 0.000000 
#    y 0.000000 1.801860 0.000000 
#    z 0.000000 0.000000 1.794480 
# 
# From -- ./inp_files/64486.got.cif
#   From: 2010.03.12/outbox.cif.g09.slc.cpg/sg74_33_cif.got.tgz:64486.got - 2010.04.16 15:46:19.
