data_PCOD8301922
_publ_section_title
;
Structure prediction by ZEFSAII (Michael W. Deem and Ramdas Pophale) SiO2 
 PCOD8301922
Probable space group: P 41
;
_chemical_formula_sum "Si O2"
_cell_formula_units_Z 24
_cell_length_a 11.034442
_cell_length_b 11.034442
_cell_length_c 7.843432
_cell_angle_alpha 90.000000
_cell_angle_beta 90.000000
_cell_angle_gamma 90.000000
_cell_volume 955.007733
_symmetry_space_group_name_H-M "P 41"
_symmetry_group_IT_number 76
_symmetry_cell_setting 'tetragonal'
loop_
_space_group_symop_operation_xyz
x,y,z
-y,x,1/4+z
-x,-y,1/2+z
y,-x,3/4+z
loop_
_atom_site_type_symbol
_atom_site_label
_atom_site_fract_x
_atom_site_fract_y
_atom_site_fract_z
Si Si1 0.240815 0.815115 0.158540
Si Si2 0.954540 0.141447 0.228193
Si Si3 0.124828 0.471612 0.612465
Si Si4 0.108911 0.616788 0.293679
Si Si5 0.680287 0.761425 0.550237
Si Si6 0.512589 0.345143 0.400537
O O1 0.371506 0.802143 0.251137
O O2 0.140949 0.760550 0.288939
O O3 0.210776 0.953354 0.108023
O O4 0.227337 0.723503 0.997093
O O5 0.842830 0.230676 0.184358
O O6 0.020927 0.102146 0.058222
O O7 0.081972 0.578632 0.486682
O O8 0.198684 0.539945 0.764342
O O9 0.009662 0.403651 0.683933
O O10 0.221218 0.541096 0.220193
O O11 0.687330 0.618027 0.510777
O O12 0.570926 0.414435 0.560649
#
# Coordination Sequence:
#
# PCOD8301922 Si02
#       6
#     4   4   4   4   4   4
#     4  11  23  47  71 106 155 198 256 322 386 463
#     4  10  23  45  72 103 151 200 245 311 380 451
#     4  12  26  45  78 107 153 208 256 322 392 466
#     4  12  25  48  72 110 150 202 258 316 385 468
#     4  11  25  45  74 105 151 201 254 315 383 459
#     4  12  28  46  75 107 152 195 249 316 384 461
#
# _framework density 25.130686000000001
#
# number of rings (size 3 to 8) (size 9 to 14) (size 15 to 20)
#    0.000    0.667    3.333    4.000    7.000    1.333 
#    0.000    0.000    0.000    0.000    0.000    0.000 
#    0.000    0.000    0.000    0.000    0.000    0.000 
#
# Total GULP energy -297387.832569 kJ/mol
# GULP energy per Si atom -12391.159690 kJ/mol
# Density = 2.507349 g / cm^3
# Si number density = 25.130686 Si / 1000 Ang^3
#
#
#
# Elastic Constant Matrix: (Units=GPa)
#
#
# Indices 1 2 3 4 5 6 
#
# 1 61.7174 6.5198 18.9571 0.0000 0.0000 -8.8815
# 2 6.5198 61.7174 18.9571 0.0000 0.0000 8.8815
# 3 18.9571 18.9571 61.6433 0.0000 0.0000 0.0000
# 4 0.0000 0.0000 0.0000 40.6361 0.0000 0.0000
# 5 0.0000 0.0000 0.0000 0.0000 40.6361 0.0000
# 6 -8.8815 8.8815 0.0000 0.0000 0.0000 40.1072
#
#
#
# Elastic Compliance Matrix: (Units=1/GPa)
#
#
# Indices 1 2 3 4 5 6 
#
# 1 0.018591 -0.000916 -0.005436 0.000000 0.000000 0.004320
# 2 -0.000916 0.018591 -0.005436 0.000000 0.000000 -0.004320
# 3 -0.005436 -0.005436 0.019566 0.000000 0.000000 0.000000
# 4 0.000000 0.000000 0.000000 0.024609 0.000000 0.000000
# 5 0.000000 0.000000 0.000000 0.000000 0.024609 0.000000
# 6 0.004320 -0.004320 0.000000 0.000000 0.000000 0.026846
#
#
# Mechanical properties :
#
#
# Convention : Reuss Voigt Hill
#
# Bulk Modulus (GPa) = 30.14488 30.43846 30.29167
# Shear Modulus (GPa) = 29.86099 33.65215 31.75657
#
# Velocity S-wave (km/s) = 3.45081 3.66332 3.55865
# Velocity P-wave (km/s) = 5.28192 5.48011 5.38193
#
# Compressibility (1/GPa) = 0.03317313
#
# Stress axis : x y z
#
# Youngs Moduli (GPa) = 53.78997 53.78997 51.11036
#
# Poissons Ratio (x) = 0.04927 0.27781
# Poissons Ratio (y) = 0.04927 0.27781
# Poissons Ratio (z) = 0.29238 0.29238
#
# Static dielectric constant tensor:
#      x y z
#    x 4.909140 0.000000 0.000000 
#    y 0.000000 4.909140 0.000000 
#    z 0.000000 0.000000 4.454110 
# 
# 
# High freq. dielectric constant tensor:
#      x y z
#    x 2.013480 0.000000 0.000000 
#    y 0.000000 2.013480 0.000000 
#    z 0.000000 0.000000 1.991670 
# 
# From -- ./inp_files/555.got.cif
#   From: 2010.03.12/outbox.cif.g09.slc.cpg/sg76_cif.got.tgz:555.got - 2010.04.16 16:34:25.
