data_PCOD8301493
_publ_section_title
;
Structure prediction by ZEFSAII (Michael W. Deem and Ramdas Pophale) SiO2 
 PCOD8301493
Probable space group: I M M A
;
_chemical_formula_sum "Si O2"
_cell_formula_units_Z 80
_cell_length_a 8.104859
_cell_length_b 28.691869
_cell_length_c 21.034665
_cell_angle_alpha 90.000000
_cell_angle_beta 90.000000
_cell_angle_gamma 90.000000
_cell_volume 4891.475729
_symmetry_space_group_name_H-M "I M M A"
_symmetry_group_IT_number 74
_symmetry_cell_setting 'orthorhombic'
loop_
_space_group_symop_operation_xyz
x,y,z
-x,1/2-y,z
x,-y,-z
-x,1/2+y,-z
-x,-y,-z
x,1/2+y,-z
-x,y,z
x,1/2-y,z
1/2+x,1/2+y,1/2+z
1/2-x,-y,1/2+z
1/2+x,1/2-y,1/2-z
1/2-x,y,1/2-z
1/2-x,1/2-y,1/2-z
1/2+x,y,1/2-z
1/2-x,1/2+y,1/2+z
1/2+x,-y,1/2+z
loop_
_atom_site_type_symbol
_atom_site_label
_atom_site_fract_x
_atom_site_fract_y
_atom_site_fract_z
Si Si1 0.693401 0.464998 0.053079
Si Si2 0.690616 0.548182 0.686012
Si Si3 0.315787 0.141833 0.031699
Si Si4 0.500000 0.803127 0.680782
Si Si5 0.177156 0.351003 0.323647
Si Si6 0.000000 0.804029 0.971202
O O1 0.500000 0.471595 0.061362
O O2 0.776119 0.479409 0.120470
O O3 0.737002 0.412425 0.031983
O O4 0.764638 0.500000 0.000000
O O5 0.500000 0.561712 0.689621
O O6 0.750000 0.520210 0.750000
O O7 0.804612 0.593916 0.685055
O O8 0.500000 0.148308 0.999632
O O9 0.329317 0.161545 0.102538
O O10 0.166096 0.171356 0.999404
O O11 0.500000 0.750000 0.701350
O O12 0.666272 0.826270 0.709502
O O13 0.500000 0.810263 0.604733
O O14 0.000000 0.334763 0.294238
O O15 0.000000 0.750000 0.991519
#
# Coordination Sequence:
#
# PCOD8301493 Si02
#       6
#    16  16  16   8  16   8
#     4   9  18  32  48  68  94 120 149 190 232 272
#     4  11  20  31  47  68  87 112 151 188 224 267
#     4   8  15  26  40  58  83 110 141 180 222 268
#     4   9  16  26  40  59  79 103 136 179 230 279
#     4   9  16  28  42  59  79 104 139 181 228 266
#     4   9  16  24  37  57  81 109 144 185 221 261
#
# _framework density 16.354982
#
# number of rings (size 3 to 8) (size 9 to 14) (size 15 to 20)
#    0.000    2.800    1.000    3.000    4.200    1.200 
#    0.000    4.000    0.000    0.600    0.000    0.000 
#    0.000    0.000    0.000    0.000    0.000    1.000 
#
# Total GULP energy -495637.990401 kJ/mol
# GULP energy per Si atom -12390.949760 kJ/mol
# Density = 1.631776 g / cm^3
# Si number density = 16.354982 Si / 1000 Ang^3
#
#
#
# Elastic Constant Matrix: (Units=GPa)
#
#
# Indices 1 2 3 4 5 6 
#
# 1 129.4579 51.8859 32.6585 0.0000 0.0000 0.0000
# 2 51.8859 66.0817 34.2970 0.0000 0.0000 0.0000
# 3 32.6585 34.2970 61.3019 -0.0001 0.0000 0.0000
# 4 0.0000 0.0000 -0.0001 -1.3470 0.0000 0.0000
# 5 0.0000 0.0000 0.0000 0.0000 11.9673 0.0000
# 6 0.0000 0.0000 0.0000 0.0000 0.0000 20.0361
#
#
#
# Elastic Compliance Matrix: (Units=1/GPa)
#
#
# Indices 1 2 3 4 5 6 
#
# 1 0.011368 -0.008149 -0.001497 0.000000 0.000000 0.000000
# 2 -0.008149 0.027167 -0.010858 0.000000 0.000000 0.000000
# 3 -0.001497 -0.010858 0.023185 -0.000001 0.000000 0.000000
# 4 0.000000 0.000000 -0.000001 -0.742391 0.000000 0.000000
# 5 0.000000 0.000000 0.000000 0.000000 0.083561 0.000000
# 6 0.000000 0.000000 0.000000 0.000000 0.000000 0.049910
#
#
# Mechanical properties :
#
#
# Convention : Reuss Voigt Hill
#
# Bulk Modulus (GPa) = 48.28144 54.94714 51.61429
# Shear Modulus (GPa) = -10.01425 15.33127 2.65851
#
# Velocity S-wave (km/s) = -2.47717 3.06503 1.27634
# Velocity P-wave (km/s) = 4.62636 6.79672 5.81372
#
# Compressibility (1/GPa) = 0.02071189
#
# Stress axis : x y z
#
# Youngs Moduli (GPa) = 87.96361 36.81002 43.13138
#
# Poissons Ratio (x) = 0.29997 0.06458
# Poissons Ratio (y) = 0.71682 0.46830
# Poissons Ratio (z) = 0.13170 0.39967
#
# Static dielectric constant tensor:
#      x y z
#    x 3.545940 0.000000 0.000000 
#    y 0.000000 2.839740 0.000000 
#    z 0.000000 0.000000 3.017690 
# 
# 
# High freq. dielectric constant tensor:
#      x y z
#    x 1.663330 0.000000 0.000000 
#    y 0.000000 1.581750 0.000000 
#    z 0.000000 0.000000 1.577260 
# 
# From -- ./inp_files/49414.got.cif
#   From: 2010.03.12/outbox.cif.g09.slc.cpg/sg74_25_cif.got.tgz:49414.got - 2010.04.16 15:46:19.
