data_PCOD8301474
_publ_section_title
;
Structure prediction by ZEFSAII (Michael W. Deem and Ramdas Pophale) SiO2 
 PCOD8301474
Probable space group: I M M A
;
_chemical_formula_sum "Si O2"
_cell_formula_units_Z 72
_cell_length_a 19.997732
_cell_length_b 20.294023
_cell_length_c 8.210495
_cell_angle_alpha 90.000000
_cell_angle_beta 90.000000
_cell_angle_gamma 90.000000
_cell_volume 3332.101584
_symmetry_space_group_name_H-M "I M M A"
_symmetry_group_IT_number 74
_symmetry_cell_setting 'orthorhombic'
loop_
_space_group_symop_operation_xyz
x,y,z
-x,1/2-y,z
x,-y,-z
-x,1/2+y,-z
-x,-y,-z
x,1/2+y,-z
-x,y,z
x,1/2-y,z
1/2+x,1/2+y,1/2+z
1/2-x,-y,1/2+z
1/2+x,1/2-y,1/2-z
1/2-x,y,1/2-z
1/2-x,1/2-y,1/2-z
1/2+x,y,1/2-z
1/2-x,1/2+y,1/2+z
1/2+x,-y,1/2+z
loop_
_atom_site_type_symbol
_atom_site_label
_atom_site_fract_x
_atom_site_fract_y
_atom_site_fract_z
Si Si1 0.750000 0.948398 0.250000
Si Si2 0.851128 0.000000 0.000000
Si Si3 0.598272 0.750000 0.541477
Si Si4 0.928193 0.750000 0.319018
Si Si5 0.922639 0.110355 0.204566
Si Si6 0.252284 0.250000 0.436965
Si Si7 0.842873 0.137880 0.527076
O O1 0.699385 0.990893 0.353131
O O2 0.805638 0.912794 0.358695
O O3 0.896497 0.062009 0.059493
O O4 0.558374 0.750000 0.374113
O O5 0.581451 0.813897 0.648397
O O6 0.674898 0.750000 0.484964
O O7 0.894220 0.817902 0.371403
O O8 0.000000 0.750000 0.405963
O O9 0.879339 0.103690 0.371583
O O10 0.000000 0.092081 0.241051
O O11 0.250000 0.250000 0.250000
O O12 0.218350 0.316894 0.482742
#
# Coordination Sequence:
#
# PCOD8301474 Si02
#       7
#     8   8   8   8  16   8  16
#     4  12  26  45  70  93 128 174 230 284 336 396
#     4  12  27  46  68  98 133 174 224 284 336 394
#     4  12  23  40  70 100 132 176 218 274 333 397
#     4  11  22  38  60  99 142 176 217 269 331 401
#     4  12  25  44  68  99 136 178 221 269 334 406
#     4  11  19  35  62 100 134 162 209 276 329 382
#     4  11  23  40  66  96 134 175 221 274 332 394
#
# _framework density 21.607983999999998
#
# number of rings (size 3 to 8) (size 9 to 14) (size 15 to 20)
#    0.000    0.444    2.222    8.000    0.000    1.778 
#    0.000    4.444    0.000    0.000    0.000    0.000 
#    0.000    0.000    0.000    0.000    0.000    0.000 
#
# Total GULP energy -445994.015080 kJ/mol
# GULP energy per Si atom -12388.722641 kJ/mol
# Density = 2.155880 g / cm^3
# Si number density = 21.607984 Si / 1000 Ang^3
#
#
#
# Elastic Constant Matrix: (Units=GPa)
#
#
# Indices 1 2 3 4 5 6 
#
# 1 164.5595 36.3927 33.1205 0.0000 0.0000 0.0000
# 2 36.3927 101.4882 37.8916 0.0000 0.0000 0.0000
# 3 33.1205 37.8916 110.7299 0.0000 0.0000 0.0000
# 4 0.0000 0.0000 0.0000 44.3686 0.0000 0.0000
# 5 0.0000 0.0000 0.0000 0.0000 15.8705 0.0000
# 6 0.0000 0.0000 0.0000 0.0000 0.0000 -9.1207
#
#
#
# Elastic Compliance Matrix: (Units=1/GPa)
#
#
# Indices 1 2 3 4 5 6 
#
# 1 0.006777 -0.001918 -0.001371 0.000000 0.000000 0.000000
# 2 -0.001918 0.011840 -0.003478 0.000000 0.000000 0.000000
# 3 -0.001371 -0.003478 0.010631 0.000000 0.000000 0.000000
# 4 0.000000 0.000000 0.000000 0.022538 0.000000 0.000000
# 5 0.000000 0.000000 0.000000 0.000000 0.063010 0.000000
# 6 0.000000 0.000000 0.000000 0.000000 0.000000 -0.109640
#
#
# Mechanical properties :
#
#
# Convention : Reuss Voigt Hill
#
# Bulk Modulus (GPa) = 63.63652 65.73191 64.68421
# Shear Modulus (GPa) = 208.96553 28.18186 118.57369
#
# Velocity S-wave (km/s) = 9.84467 3.61534 7.41580
# Velocity P-wave (km/s) = 12.59912 6.92198 10.16493
#
# Compressibility (1/GPa) = 0.01571425
#
# Stress axis : x y z
#
# Youngs Moduli (GPa) = 147.55910 84.46142 94.06443
#
# Poissons Ratio (x) = 0.16203 0.12892
# Poissons Ratio (y) = 0.28308 0.32713
# Poissons Ratio (z) = 0.20224 0.29373
#
# Static dielectric constant tensor:
#      x y z
#    x 4.216870 0.000000 0.000000 
#    y 0.000000 3.801040 0.000000 
#    z 0.000000 0.000000 4.207970 
# 
# 
# High freq. dielectric constant tensor:
#      x y z
#    x 1.874810 0.000000 0.000000 
#    y 0.000000 1.844590 0.000000 
#    z 0.000000 0.000000 1.863230 
# 
# From -- ./inp_files/12225.got.cif
#   From: 2010.03.12/outbox.cif.g09.slc.cpg/sg74_7_cif.got.tgz:12225.got - 2010.04.16 15:46:19.
