data_PCOD8301900
_publ_section_title
;
Structure prediction by ZEFSAII (Michael W. Deem and Ramdas Pophale) SiO2 
 PCOD8301900
Probable space group: P 41
;
_chemical_formula_sum "Si O2"
_cell_formula_units_Z 24
_cell_length_a 7.699231
_cell_length_b 7.699231
_cell_length_c 16.388729
_cell_angle_alpha 90.000000
_cell_angle_beta 90.000000
_cell_angle_gamma 90.000000
_cell_volume 971.493667
_symmetry_space_group_name_H-M "P 41"
_symmetry_group_IT_number 76
_symmetry_cell_setting 'tetragonal'
loop_
_space_group_symop_operation_xyz
x,y,z
-y,x,1/4+z
-x,-y,1/2+z
y,-x,3/4+z
loop_
_atom_site_type_symbol
_atom_site_label
_atom_site_fract_x
_atom_site_fract_y
_atom_site_fract_z
Si Si1 0.579955 0.379819 0.745330
Si Si2 0.472995 0.682424 0.837335
Si Si3 0.953474 0.583908 0.091518
Si Si4 0.905892 0.255174 0.370371
Si Si5 0.976526 0.425126 0.771523
Si Si6 0.957318 0.936466 0.028732
O O1 0.445649 0.535907 0.768284
O O2 0.597537 0.380502 0.647417
O O3 0.770131 0.422334 0.778488
O O4 0.508075 0.201038 0.784618
O O5 0.541492 0.861699 0.797690
O O6 0.298725 0.728288 0.887688
O O7 0.954465 0.505409 0.183274
O O8 0.942184 0.792922 0.100640
O O9 0.011765 0.182336 0.447725
O O10 0.963614 0.447488 0.343244
O O11 0.934283 0.117398 0.295908
O O12 0.042697 0.224456 0.780085
#
# Coordination Sequence:
#
# PCOD8301900 Si02
#       6
#     4   4   4   4   4   4
#     4  10  24  42  70  99 140 183 245 301 356 441
#     4  11  24  44  66 108 142 190 242 300 371 439
#     4  10  21  45  72  95 142 189 238 303 369 435
#     4  12  25  45  75 104 152 192 245 312 372 457
#     4  10  23  43  73 105 138 195 246 298 377 442
#     4  11  23  47  72 105 144 191 250 308 377 448
#
# _framework density 24.704225000000001
#
# number of rings (size 3 to 8) (size 9 to 14) (size 15 to 20)
#    0.000    1.333    1.667    4.000    7.000    1.333 
#    6.000    0.000    0.000    0.000    0.000    0.000 
#    0.000    0.000    0.000    0.000    0.000    0.000 
#
# Total GULP energy -297394.978384 kJ/mol
# GULP energy per Si atom -12391.457433 kJ/mol
# Density = 2.464800 g / cm^3
# Si number density = 24.704225 Si / 1000 Ang^3
#
#
#
# Elastic Constant Matrix: (Units=GPa)
#
#
# Indices 1 2 3 4 5 6 
#
# 1 113.0077 21.2426 39.6109 0.0000 0.0000 -4.9734
# 2 21.2426 113.0077 39.6109 0.0000 0.0000 4.9734
# 3 39.6109 39.6109 86.1324 0.0000 0.0000 0.0000
# 4 0.0000 0.0000 0.0000 38.9037 0.0000 0.0000
# 5 0.0000 0.0000 0.0000 0.0000 38.9037 0.0000
# 6 -4.9734 4.9734 0.0000 0.0000 0.0000 32.3656
#
#
#
# Elastic Compliance Matrix: (Units=1/GPa)
#
#
# Indices 1 2 3 4 5 6 
#
# 1 0.010653 -0.000429 -0.004701 0.000000 0.000000 0.001703
# 2 -0.000429 0.010653 -0.004701 0.000000 0.000000 -0.001703
# 3 -0.004701 -0.004701 0.015934 0.000000 0.000000 0.000000
# 4 0.000000 0.000000 0.000000 0.025705 0.000000 0.000000
# 5 0.000000 0.000000 0.000000 0.000000 0.025705 0.000000
# 6 0.001703 -0.001703 0.000000 0.000000 0.000000 0.031420
#
#
# Mechanical properties :
#
#
# Convention : Reuss Voigt Hill
#
# Bulk Modulus (GPa) = 56.89989 57.00850 56.95419
# Shear Modulus (GPa) = 34.34264 36.14681 35.24473
#
# Velocity S-wave (km/s) = 3.73252 3.82931 3.78122
# Velocity P-wave (km/s) = 6.45431 6.53284 6.49369
#
# Compressibility (1/GPa) = 0.01757473
#
# Stress axis : x y z
#
# Youngs Moduli (GPa) = 93.87423 93.87423 62.75779
#
# Poissons Ratio (x) = 0.04031 0.29505
# Poissons Ratio (y) = 0.04031 0.29505
# Poissons Ratio (z) = 0.44135 0.44135
#
# Static dielectric constant tensor:
#      x y z
#    x 4.424480 0.000000 0.000000 
#    y 0.000000 4.424480 0.000000 
#    z 0.000000 0.000000 4.297980 
# 
# 
# High freq. dielectric constant tensor:
#      x y z
#    x 1.975800 0.000000 0.000000 
#    y 0.000000 1.975800 0.000000 
#    z 0.000000 0.000000 1.971940 
# 
# From -- ./inp_files/1213.got.cif
#   From: 2010.03.12/outbox.cif.g09.slc.cpg/sg76_cif.got.tgz:1213.got - 2010.04.16 16:34:25.
