data_PCOD8301525
_publ_section_title
;
Structure prediction by ZEFSAII (Michael W. Deem and Ramdas Pophale) SiO2 
 PCOD8301525
Probable space group: I M M A
;
_chemical_formula_sum "Si O2"
_cell_formula_units_Z 96
_cell_length_a 13.811074
_cell_length_b 13.719275
_cell_length_c 30.281806
_cell_angle_alpha 90.000000
_cell_angle_beta 90.000000
_cell_angle_gamma 90.000000
_cell_volume 5737.733683
_symmetry_space_group_name_H-M "I M M A"
_symmetry_group_IT_number 74
_symmetry_cell_setting 'orthorhombic'
loop_
_space_group_symop_operation_xyz
x,y,z
-x,1/2-y,z
x,-y,-z
-x,1/2+y,-z
-x,-y,-z
x,1/2+y,-z
-x,y,z
x,1/2-y,z
1/2+x,1/2+y,1/2+z
1/2-x,-y,1/2+z
1/2+x,1/2-y,1/2-z
1/2-x,y,1/2-z
1/2-x,1/2-y,1/2-z
1/2+x,y,1/2-z
1/2-x,1/2+y,1/2+z
1/2+x,-y,1/2+z
loop_
_atom_site_type_symbol
_atom_site_label
_atom_site_fract_x
_atom_site_fract_y
_atom_site_fract_z
Si Si1 0.234224 0.863195 0.351728
Si Si2 0.110958 0.004907 0.816694
Si Si3 0.614751 0.450542 0.931730
Si Si4 0.264921 0.643256 0.801427
Si Si5 0.114477 0.643072 0.522842
Si Si6 0.890447 0.532968 0.286700
O O1 0.248010 0.750000 0.361295
O O2 0.340442 0.911689 0.346992
O O3 0.174296 0.913352 0.390447
O O4 0.174471 0.880074 0.306448
O O5 0.000000 0.990880 0.831125
O O6 0.168145 0.903075 0.823246
O O7 0.120729 0.036658 0.765777
O O8 0.500000 0.439931 0.922710
O O9 0.645162 0.563367 0.940596
O O10 0.648389 0.388038 0.974012
O O11 0.285349 0.750000 0.822921
O O12 0.250000 0.657950 0.750000
O O13 0.354942 0.569761 0.807949
O O14 0.157911 0.750000 0.534560
O O15 0.000000 0.646986 0.521707
O O16 0.000000 0.547987 0.301796
#
# Coordination Sequence:
#
# PCOD8301525 Si02
#       6
#    16  16  16  16  16  16
#     4  11  21  31  45  65  89 118 155 198 238 273
#     4   9  19  34  47  61  86 120 159 200 235 269
#     4   9  17  28  44  70  99 121 146 181 220 271
#     4   8  14  26  45  66  84 106 142 185 226 269
#     4   8  14  27  47  68  93 125 151 171 209 272
#     4   9  18  31  45  64  92 123 153 187 229 276
#
# _framework density 16.731344
#
# number of rings (size 3 to 8) (size 9 to 14) (size 15 to 20)
#    0.000    3.000    0.000    3.500    0.000    4.333 
#    0.000    8.333    0.000    4.000    0.000    2.333 
#    0.000    1.333    0.000    0.000    0.000    0.000 
#
# Total GULP energy -594843.924462 kJ/mol
# GULP energy per Si atom -12392.581760 kJ/mol
# Density = 1.669326 g / cm^3
# Si number density = 16.731344 Si / 1000 Ang^3
#
#
#
# Elastic Constant Matrix: (Units=GPa)
#
#
# Indices 1 2 3 4 5 6 
#
# 1 79.8106 27.6692 15.5585 0.0000 0.0000 0.0000
# 2 27.6692 131.2141 28.3745 0.0000 0.0000 0.0000
# 3 15.5585 28.3745 38.0328 0.0000 0.0000 0.0000
# 4 0.0000 0.0000 0.0000 15.6626 0.0000 0.0000
# 5 0.0000 0.0000 0.0000 0.0000 18.1591 0.0000
# 6 0.0000 0.0000 0.0000 0.0000 0.0000 13.7362
#
#
#
# Elastic Compliance Matrix: (Units=1/GPa)
#
#
# Indices 1 2 3 4 5 6 
#
# 1 0.014064 -0.002053 -0.004222 0.000000 0.000000 0.000000
# 2 -0.002053 0.009387 -0.006163 0.000000 0.000000 0.000000
# 3 -0.004222 -0.006163 0.032618 0.000000 0.000000 0.000000
# 4 0.000000 0.000000 0.000000 0.063846 0.000000 0.000000
# 5 0.000000 0.000000 0.000000 0.000000 0.055069 0.000000
# 6 0.000000 0.000000 0.000000 0.000000 0.000000 0.072800
#
#
# Mechanical properties :
#
#
# Convention : Reuss Voigt Hill
#
# Bulk Modulus (GPa) = 32.05804 43.58467 37.82136
# Shear Modulus (GPa) = 17.66415 21.34192 19.50303
#
# Velocity S-wave (km/s) = 3.25276 3.57538 3.41788
# Velocity P-wave (km/s) = 5.77142 6.56892 6.18304
#
# Compressibility (1/GPa) = 0.03119342
#
# Stress axis : x y z
#
# Youngs Moduli (GPa) = 71.10160 106.53264 30.65755
#
# Poissons Ratio (x) = 0.21869 0.12944
# Poissons Ratio (y) = 0.14596 0.18895
# Poissons Ratio (z) = 0.30019 0.65659
#
# Static dielectric constant tensor:
#      x y z
#    x 3.014800 0.000000 0.000000 
#    y 0.000000 3.643620 0.000000 
#    z 0.000000 0.000000 2.919590 
# 
# 
# High freq. dielectric constant tensor:
#      x y z
#    x 1.615140 0.000000 0.000000 
#    y 0.000000 1.652280 0.000000 
#    z 0.000000 0.000000 1.617090 
# 
# From -- ./inp_files/72563.got.cif
#   From: 2010.03.12/outbox.cif.g09.slc.cpg/sg74_37_cif.got.tgz:72563.got - 2010.04.16 15:46:19.
