data_PCOD8301012
_publ_section_title
;
Structure prediction by ZEFSAII (Michael W. Deem and Ramdas Pophale) SiO2 
 PCOD8301012
Probable space group: I M M A
;
_chemical_formula_sum "Si O2"
_cell_formula_units_Z 64
_cell_length_a 8.614242
_cell_length_b 12.003195
_cell_length_c 31.052616
_cell_angle_alpha 90.000000
_cell_angle_beta 90.000000
_cell_angle_gamma 90.000000
_cell_volume 3210.791633
_symmetry_space_group_name_H-M "I M M A"
_symmetry_group_IT_number 74
_symmetry_cell_setting 'orthorhombic'
loop_
_space_group_symop_operation_xyz
x,y,z
-x,1/2-y,z
x,-y,-z
-x,1/2+y,-z
-x,-y,-z
x,1/2+y,-z
-x,y,z
x,1/2-y,z
1/2+x,1/2+y,1/2+z
1/2-x,-y,1/2+z
1/2+x,1/2-y,1/2-z
1/2-x,y,1/2-z
1/2-x,1/2-y,1/2-z
1/2+x,y,1/2-z
1/2-x,1/2+y,1/2+z
1/2+x,-y,1/2+z
loop_
_atom_site_type_symbol
_atom_site_label
_atom_site_fract_x
_atom_site_fract_y
_atom_site_fract_z
Si Si1 0.683218 0.016066 0.293715
Si Si2 0.316962 0.378517 0.872498
Si Si3 0.815553 0.250000 0.317016
Si Si4 0.184674 0.250000 0.414495
Si Si5 0.815364 0.477819 0.452672
O O1 0.500000 0.019417 0.291711
O O2 0.750000 0.959901 0.250000
O O3 0.749336 0.140693 0.294673
O O4 0.734014 0.943970 0.334454
O O5 0.500000 0.394418 0.866477
O O6 0.267060 0.250000 0.871131
O O7 0.262941 0.427949 0.918585
O O8 0.756011 0.250000 0.365903
O O9 0.000000 0.250000 0.313454
O O10 0.251612 0.141082 0.437856
O O11 0.000000 0.250000 0.415550
O O12 0.745049 0.500000 0.500000
O O13 0.000000 0.474362 0.455023
#
# Coordination Sequence:
#
# PCOD8301012 Si02
#       5
#    16  16   8   8  16
#     4  12  25  41  62  88 118 155 198 244 299 360
#     4  10  21  38  59  86 120 158 200 250 301 351
#     4  11  20  38  63  91 126 156 192 243 297 351
#     4   9  16  28  52  83 119 156 189 237 294 341
#     4   9  17  29  51  86 122 155 195 245 297 345
#
# _framework density 19.932777999999999
#
# number of rings (size 3 to 8) (size 9 to 14) (size 15 to 20)
#    0.000    1.750    2.500    3.000    1.750    1.000 
#    0.000    0.000    0.000    0.750    0.000    0.000 
#    0.000    0.000    0.000    0.000    0.000    0.000 
#
# Total GULP energy -396815.817306 kJ/mol
# GULP energy per Si atom -12400.494291 kJ/mol
# Density = 1.988741 g / cm^3
# Si number density = 19.932778 Si / 1000 Ang^3
#
#
#
# Elastic Constant Matrix: (Units=GPa)
#
#
# Indices 1 2 3 4 5 6 
#
# 1 69.6583 41.8472 48.4961 0.0000 0.0000 0.0000
# 2 41.8472 139.1296 64.5708 0.0000 0.0000 0.0000
# 3 48.4961 64.5708 182.5188 0.0000 0.0000 0.0000
# 4 0.0000 0.0000 0.0000 20.2398 0.0000 0.0000
# 5 0.0000 0.0000 0.0000 0.0000 21.3552 0.0000
# 6 0.0000 0.0000 0.0000 0.0000 0.0000 18.9810
#
#
#
# Elastic Compliance Matrix: (Units=1/GPa)
#
#
# Indices 1 2 3 4 5 6 
#
# 1 0.019406 -0.004120 -0.003699 0.000000 0.000000 0.000000
# 2 -0.004120 0.009474 -0.002257 0.000000 0.000000 0.000000
# 3 -0.003699 -0.002257 0.007260 0.000000 0.000000 0.000000
# 4 0.000000 0.000000 0.000000 0.049408 0.000000 0.000000
# 5 0.000000 0.000000 0.000000 0.000000 0.046827 0.000000
# 6 0.000000 0.000000 0.000000 0.000000 0.000000 0.052684
#
#
# Mechanical properties :
#
#
# Convention : Reuss Voigt Hill
#
# Bulk Modulus (GPa) = 62.54469 77.90387 70.22428
# Shear Modulus (GPa) = 23.74839 27.87473 25.81156
#
# Velocity S-wave (km/s) = 3.45545 3.74362 3.60242
# Velocity P-wave (km/s) = 6.88230 7.60621 7.25329
#
# Compressibility (1/GPa) = 0.01598857
#
# Stress axis : x y z
#
# Youngs Moduli (GPa) = 51.53028 105.54816 137.73938
#
# Poissons Ratio (x) = 0.43490 0.50944
# Poissons Ratio (y) = 0.21232 0.31088
# Poissons Ratio (z) = 0.19059 0.23822
#
# Static dielectric constant tensor:
#      x y z
#    x 3.203810 0.000000 0.000000 
#    y 0.000000 3.840540 0.000000 
#    z 0.000000 0.000000 3.973750 
# 
# 
# High freq. dielectric constant tensor:
#      x y z
#    x 1.735040 0.000000 0.000000 
#    y 0.000000 1.782720 0.000000 
#    z 0.000000 0.000000 1.799950 
# 
# From -- ./inp_files/69770.got.cif
#   From: 2010.03.12/outbox.cif.g09.slc.cpg/sg74_35_cif.got.tgz:69770.got - 2010.04.16 15:46:19.
