data_PCOD8301282
_publ_section_title
;
Structure prediction by ZEFSAII (Michael W. Deem and Ramdas Pophale) SiO2 
 PCOD8301282
Probable space group: I M M A
;
_chemical_formula_sum "Si O2"
_cell_formula_units_Z 80
_cell_length_a 20.151475
_cell_length_b 9.025207
_cell_length_c 26.161198
_cell_angle_alpha 90.000000
_cell_angle_beta 90.000000
_cell_angle_gamma 90.000000
_cell_volume 4757.969343
_symmetry_space_group_name_H-M "I M M A"
_symmetry_group_IT_number 74
_symmetry_cell_setting 'orthorhombic'
loop_
_space_group_symop_operation_xyz
x,y,z
-x,1/2-y,z
x,-y,-z
-x,1/2+y,-z
-x,-y,-z
x,1/2+y,-z
-x,y,z
x,1/2-y,z
1/2+x,1/2+y,1/2+z
1/2-x,-y,1/2+z
1/2+x,1/2-y,1/2-z
1/2-x,y,1/2-z
1/2-x,1/2-y,1/2-z
1/2+x,y,1/2-z
1/2-x,1/2+y,1/2+z
1/2+x,-y,1/2+z
loop_
_atom_site_type_symbol
_atom_site_label
_atom_site_fract_x
_atom_site_fract_y
_atom_site_fract_z
Si Si1 0.697268 0.919646 0.336455
Si Si2 0.341749 0.079128 0.860466
Si Si3 0.423421 0.923368 0.947823
Si Si4 0.155227 0.582867 0.744342
Si Si5 0.926552 0.083342 0.161373
O O1 0.684095 0.750000 0.321992
O O2 0.762738 0.937191 0.371150
O O3 0.710072 0.010673 0.283319
O O4 0.631544 0.984220 0.365396
O O5 0.364056 0.250000 0.863275
O O6 0.380068 0.984894 0.901974
O O7 0.358762 0.017005 0.804732
O O8 0.500000 0.959996 0.936247
O O9 0.410828 0.750000 0.953376
O O10 0.400078 0.000000 0.000000
O O11 0.176597 0.750000 0.728930
O O12 0.086682 0.584456 0.777286
O O13 0.921695 0.250000 0.139509
O O14 0.000000 0.017595 0.150711
#
# Coordination Sequence:
#
# PCOD8301282 Si02
#       5
#    16  16  16  16  16
#     4   9  18  30  44  67  97 127 161 200 240 284
#     4  11  21  32  49  72  97 124 159 200 243 293
#     4  10  22  40  59  76  96 123 158 203 253 300
#     4   9  18  29  44  65  93 127 164 202 240 284
#     4   8  16  29  42  59  89 127 163 197 231 272
#
# _framework density 16.813896
#
# number of rings (size 3 to 8) (size 9 to 14) (size 15 to 20)
#    1.200    1.400    0.000    2.400    0.000    8.000 
#    0.000    2.000    0.000    0.000    0.000    0.000 
#    0.000    0.800    0.000    2.600    0.000    3.800 
#
# Total GULP energy -495585.301675 kJ/mol
# GULP energy per Si atom -12389.632542 kJ/mol
# Density = 1.677563 g / cm^3
# Si number density = 16.813896 Si / 1000 Ang^3
#
#
#
# Elastic Constant Matrix: (Units=GPa)
#
#
# Indices 1 2 3 4 5 6 
#
# 1 77.8352 39.9494 23.6077 0.0000 0.0000 0.0000
# 2 39.9494 91.8169 22.6402 0.0000 0.0000 0.0000
# 3 23.6077 22.6402 57.5670 0.0000 0.0000 0.0000
# 4 0.0000 0.0000 0.0000 24.5387 0.0000 0.0000
# 5 0.0000 0.0000 0.0000 0.0000 20.1857 0.0000
# 6 0.0000 0.0000 0.0000 0.0000 0.0000 29.3132
#
#
#
# Elastic Compliance Matrix: (Units=1/GPa)
#
#
# Indices 1 2 3 4 5 6 
#
# 1 0.017602 -0.006510 -0.004658 0.000000 0.000000 0.000000
# 2 -0.006510 0.014468 -0.003021 0.000000 0.000000 0.000000
# 3 -0.004658 -0.003021 0.020469 0.000000 0.000000 0.000000
# 4 0.000000 0.000000 0.000000 0.040752 0.000000 0.000000
# 5 0.000000 0.000000 0.000000 0.000000 0.049540 0.000000
# 6 0.000000 0.000000 0.000000 0.000000 0.000000 0.034114
#
#
# Mechanical properties :
#
#
# Convention : Reuss Voigt Hill
#
# Bulk Modulus (GPa) = 41.38667 44.40151 42.89409
# Shear Modulus (GPa) = 23.43271 24.20897 23.82084
#
# Velocity S-wave (km/s) = 3.73721 3.79861 3.76804
# Velocity P-wave (km/s) = 6.57954 6.76049 6.67063
#
# Compressibility (1/GPa) = 0.02416237
#
# Stress axis : x y z
#
# Youngs Moduli (GPa) = 56.81272 69.11572 48.85385
#
# Poissons Ratio (x) = 0.44994 0.22756
# Poissons Ratio (y) = 0.36984 0.14757
# Poissons Ratio (z) = 0.26464 0.20877
#
# Static dielectric constant tensor:
#      x y z
#    x 3.176000 0.000000 0.000000 
#    y 0.000000 3.281480 0.000000 
#    z 0.000000 0.000000 2.675840 
# 
# 
# High freq. dielectric constant tensor:
#      x y z
#    x 1.650060 0.000000 0.000000 
#    y 0.000000 1.665590 0.000000 
#    z 0.000000 0.000000 1.588930 
# 
# From -- ./inp_files/73236.got.cif
#   From: 2010.03.12/outbox.cif.g09.slc.cpg/sg74_37_cif.got.tgz:73236.got - 2010.04.16 15:46:19.
