data_PCOD8301888
_publ_section_title
;
Structure prediction by ZEFSAII (Michael W. Deem and Ramdas Pophale) SiO2 
 PCOD8301888
Probable space group: P 41
;
_chemical_formula_sum "Si O2"
_cell_formula_units_Z 32
_cell_length_a 8.862238
_cell_length_b 8.862238
_cell_length_c 19.812125
_cell_angle_alpha 90.000000
_cell_angle_beta 90.000000
_cell_angle_gamma 90.000000
_cell_volume 1556.029683
_symmetry_space_group_name_H-M "P 41"
_symmetry_group_IT_number 76
_symmetry_cell_setting 'tetragonal'
loop_
_space_group_symop_operation_xyz
x,y,z
-y,x,1/4+z
-x,-y,1/2+z
y,-x,3/4+z
loop_
_atom_site_type_symbol
_atom_site_label
_atom_site_fract_x
_atom_site_fract_y
_atom_site_fract_z
Si Si1 0.096142 0.185993 0.761640
Si Si2 0.888572 0.428422 0.051355
Si Si3 0.081804 0.331360 0.173278
Si Si4 0.938915 0.477883 0.800349
Si Si5 0.043322 0.087462 0.901343
Si Si6 0.401426 0.588409 0.299693
Si Si7 0.581332 0.418257 0.413177
Si Si8 0.107969 0.429199 0.931856
O O1 0.274406 0.192978 0.777412
O O2 0.015606 0.088147 0.820904
O O3 0.025425 0.350511 0.757696
O O4 0.061132 0.113452 0.689328
O O5 0.763789 0.557832 0.056419
O O6 0.962196 0.414148 0.125007
O O7 0.018072 0.476010 0.998807
O O8 0.064481 0.378359 0.251459
O O9 0.249308 0.364347 0.146492
O O10 0.049182 0.153326 0.171335
O O11 0.771766 0.427527 0.822486
O O12 0.029936 0.513047 0.868440
O O13 0.113014 0.248974 0.922797
O O14 0.508189 0.486031 0.346066
O O15 0.420218 0.542095 0.222039
O O16 0.721153 0.517484 0.438282
#
# Coordination Sequence:
#
# PCOD8301888 Si02
#       8
#     4   4   4   4   4   4   4   4
#     4   9  19  36  56  81 109 142 186 232 278 335
#     4  10  21  38  61  85 112 149 194 237 286 345
#     4  10  22  37  55  83 114 147 187 233 285 339
#     4  10  22  37  55  83 114 147 187 233 285 339
#     4   9  19  36  56  81 109 142 186 232 278 335
#     4  11  23  39  59  85 118 152 192 240 289 343
#     4  11  23  39  59  85 118 152 192 240 289 343
#     4  10  21  38  61  85 112 149 194 237 286 345
#
# _framework density 20.565159999999999
#
# number of rings (size 3 to 8) (size 9 to 14) (size 15 to 20)
#    0.000    2.000    0.000    3.750    0.000   11.000 
#    0.000    5.000    0.000    0.000    0.000    0.000 
#    0.000    0.000    0.000    0.000    0.000    0.000 
#
# Total GULP energy -396891.878327 kJ/mol
# GULP energy per Si atom -12402.871198 kJ/mol
# Density = 2.051835 g / cm^3
# Si number density = 20.565160 Si / 1000 Ang^3
#
#
#
# Elastic Constant Matrix: (Units=GPa)
#
#
# Indices 1 2 3 4 5 6 
#
# 1 53.3050 9.9947 -5.3517 0.0000 0.0000 2.1557
# 2 9.9947 53.3050 -5.3517 0.0000 0.0000 -2.1557
# 3 -5.3517 -5.3517 50.0806 0.0000 0.0000 0.0000
# 4 0.0000 0.0000 0.0000 29.1435 0.0000 0.0000
# 5 0.0000 0.0000 0.0000 0.0000 29.1435 0.0000
# 6 2.1557 -2.1557 0.0000 0.0000 0.0000 23.9623
#
#
#
# Elastic Compliance Matrix: (Units=1/GPa)
#
#
# Indices 1 2 3 4 5 6 
#
# 1 0.019693 -0.003605 0.001719 0.000000 0.000000 -0.002096
# 2 -0.003605 0.019693 0.001719 0.000000 0.000000 0.002096
# 3 0.001719 0.001719 0.020335 0.000000 0.000000 0.000000
# 4 0.000000 0.000000 0.000000 0.034313 0.000000 0.000000
# 5 0.000000 0.000000 0.000000 0.000000 0.034313 0.000000
# 6 -0.002096 0.002096 0.000000 0.000000 0.000000 0.042109
#
#
# Mechanical properties :
#
#
# Convention : Reuss Voigt Hill
#
# Bulk Modulus (GPa) = 16.83800 17.25256 17.04528
# Shear Modulus (GPa) = 26.23494 26.94316 26.58905
#
# Velocity S-wave (km/s) = 3.57557 3.62351 3.59962
# Velocity P-wave (km/s) = 5.02510 5.09056 5.05794
#
# Compressibility (1/GPa) = 0.05938947
#
# Stress axis : x y z
#
# Youngs Moduli (GPa) = 50.77896 50.77896 49.17571
#
# Poissons Ratio (x) = 0.18304 -0.08455
# Poissons Ratio (y) = 0.18304 -0.08455
# Poissons Ratio (z) = -0.08730 -0.08730
#
# Static dielectric constant tensor:
#      x y z
#    x 3.636030 0.000000 0.000000 
#    y 0.000000 3.636030 0.000000 
#    z 0.000000 0.000000 3.797780 
# 
# 
# High freq. dielectric constant tensor:
#      x y z
#    x 1.797420 0.000000 0.000000 
#    y 0.000000 1.797420 0.000000 
#    z 0.000000 0.000000 1.813610 
# 
# From -- ./inp_files/1438.got.cif
#   From: 2010.03.12/outbox.cif.g09.slc.cpg/sg76_cif.got.tgz:1438.got - 2010.04.16 16:34:25.
