data_PCOD8301605
_publ_section_title
;
Structure prediction by ZEFSAII (Michael W. Deem and Ramdas Pophale) SiO2 
 PCOD8301605
Probable space group: I M M A
;
_chemical_formula_sum "Si O2"
_cell_formula_units_Z 96
_cell_length_a 24.312274
_cell_length_b 8.895234
_cell_length_c 24.046222
_cell_angle_alpha 90.000000
_cell_angle_beta 90.000000
_cell_angle_gamma 90.000000
_cell_volume 5200.316917
_symmetry_space_group_name_H-M "I M M A"
_symmetry_group_IT_number 74
_symmetry_cell_setting 'orthorhombic'
loop_
_space_group_symop_operation_xyz
x,y,z
-x,1/2-y,z
x,-y,-z
-x,1/2+y,-z
-x,-y,-z
x,1/2+y,-z
-x,y,z
x,1/2-y,z
1/2+x,1/2+y,1/2+z
1/2-x,-y,1/2+z
1/2+x,1/2-y,1/2-z
1/2-x,y,1/2-z
1/2-x,1/2-y,1/2-z
1/2+x,y,1/2-z
1/2-x,1/2+y,1/2+z
1/2+x,-y,1/2+z
loop_
_atom_site_type_symbol
_atom_site_label
_atom_site_fract_x
_atom_site_fract_y
_atom_site_fract_z
Si Si1 0.153262 0.922187 0.769233
Si Si2 0.062395 0.078248 0.144428
Si Si3 0.849131 0.426649 0.353058
Si Si4 0.274938 0.926729 0.630454
Si Si5 0.437179 0.927403 0.941404
Si Si6 0.363241 0.073480 0.558178
O O1 0.168781 0.750000 0.757948
O O2 0.094099 0.942090 0.797621
O O3 0.149208 0.001622 0.708725
O O4 0.201287 0.986978 0.809939
O O5 0.068194 0.250000 0.123223
O O6 0.000000 0.032676 0.155900
O O7 0.086787 0.966977 0.098820
O O8 0.859735 0.250000 0.348347
O O9 0.789049 0.462503 0.377551
O O10 0.896285 0.493184 0.393736
O O11 0.288227 0.750000 0.625996
O O12 0.305531 0.010210 0.580586
O O13 0.500000 0.969405 0.925206
O O14 0.429861 0.750000 0.947799
O O15 0.420554 0.000000 0.000000
O O16 0.358389 0.250000 0.551358
O O17 0.377576 0.000000 0.500000
#
# Coordination Sequence:
#
# PCOD8301605 Si02
#       6
#    16  16  16  16  16  16
#     4   8  14  26  47  75 103 128 156 196 243 287
#     4   9  18  33  53  77 104 133 166 205 248 294
#     4   9  16  27  49  78 101 127 165 203 240 289
#     4   9  17  31  50  73 102 132 162 199 245 295
#     4   9  18  32  48  67  94 126 160 200 243 285
#     4  11  22  36  53  72  98 132 169 210 254 299
#
# _framework density 18.460412999999999
#
# number of rings (size 3 to 8) (size 9 to 14) (size 15 to 20)
#    0.000    2.833    0.000    3.000    0.000    4.000 
#    0.000    5.833    0.000   12.000    0.000    4.667 
#    0.000    0.000    0.000    0.000    0.000    0.000 
#
# Total GULP energy -594997.556556 kJ/mol
# GULP energy per Si atom -12395.782428 kJ/mol
# Density = 1.841840 g / cm^3
# Si number density = 18.460413 Si / 1000 Ang^3
#
#
#
# Elastic Constant Matrix: (Units=GPa)
#
#
# Indices 1 2 3 4 5 6 
#
# 1 123.4946 22.3255 39.2370 0.0000 0.0000 0.0000
# 2 22.3255 50.1290 19.0002 0.0000 0.0000 0.0000
# 3 39.2370 19.0002 73.8799 0.0000 0.0000 0.0000
# 4 0.0000 0.0000 0.0000 20.8312 0.0000 0.0000
# 5 0.0000 0.0000 0.0000 0.0000 22.3151 0.0000
# 6 0.0000 0.0000 0.0000 0.0000 0.0000 15.9927
#
#
#
# Elastic Compliance Matrix: (Units=1/GPa)
#
#
# Indices 1 2 3 4 5 6 
#
# 1 0.010066 -0.002722 -0.004646 0.000000 0.000000 0.000000
# 2 -0.002722 0.022839 -0.004428 0.000000 0.000000 0.000000
# 3 -0.004646 -0.004428 0.017142 0.000000 0.000000 0.000000
# 4 0.000000 0.000000 0.000000 0.048005 0.000000 0.000000
# 5 0.000000 0.000000 0.000000 0.000000 0.044813 0.000000
# 6 0.000000 0.000000 0.000000 0.000000 0.000000 0.062529
#
#
# Mechanical properties :
#
#
# Convention : Reuss Voigt Hill
#
# Bulk Modulus (GPa) = 37.80036 45.40321 41.60179
# Shear Modulus (GPa) = 21.02585 22.95718 21.99152
#
# Velocity S-wave (km/s) = 3.37852 3.53028 3.45524
# Velocity P-wave (km/s) = 5.97830 6.42382 6.20506
#
# Compressibility (1/GPa) = 0.02645477
#
# Stress axis : x y z
#
# Youngs Moduli (GPa) = 99.34760 43.78443 58.33762
#
# Poissons Ratio (x) = 0.11918 0.27102
# Poissons Ratio (y) = 0.27042 0.25832
# Poissons Ratio (z) = 0.46154 0.19388
#
# Static dielectric constant tensor:
#      x y z
#    x 3.490520 0.000000 0.000000 
#    y 0.000000 2.991380 0.000000 
#    z 0.000000 0.000000 3.578310 
# 
# 
# High freq. dielectric constant tensor:
#      x y z
#    x 1.722840 0.000000 0.000000 
#    y 0.000000 1.668370 0.000000 
#    z 0.000000 0.000000 1.719840 
# 
# From -- ./inp_files/49126.got.cif
#   From: 2010.03.12/outbox.cif.g09.slc.cpg/sg74_25_cif.got.tgz:49126.got - 2010.04.16 15:46:19.
