data_PCOD8301923
_publ_section_title
;
Structure prediction by ZEFSAII (Michael W. Deem and Ramdas Pophale) SiO2 
 PCOD8301923
Probable space group: P 41
;
_chemical_formula_sum "Si O2"
_cell_formula_units_Z 32
_cell_length_a 9.249715
_cell_length_b 9.249715
_cell_length_c 17.856034
_cell_angle_alpha 90.000000
_cell_angle_beta 90.000000
_cell_angle_gamma 90.000000
_cell_volume 1527.712765
_symmetry_space_group_name_H-M "P 41"
_symmetry_group_IT_number 76
_symmetry_cell_setting 'tetragonal'
loop_
_space_group_symop_operation_xyz
x,y,z
-y,x,1/4+z
-x,-y,1/2+z
y,-x,3/4+z
loop_
_atom_site_type_symbol
_atom_site_label
_atom_site_fract_x
_atom_site_fract_y
_atom_site_fract_z
Si Si1 0.679510 0.403250 0.519470
Si Si2 0.953271 0.255982 0.319181
Si Si3 0.731271 0.702228 0.461086
Si Si4 0.215321 0.780754 0.301376
Si Si5 0.192060 0.088296 0.235633
Si Si6 0.269463 0.412351 0.689696
Si Si7 0.402948 0.930025 0.579280
Si Si8 0.395985 0.396549 0.437929
O O1 0.685825 0.575033 0.516954
O O2 0.839383 0.349022 0.497387
O O3 0.558203 0.346671 0.460473
O O4 0.628577 0.359968 0.601703
O O5 0.822759 0.207053 0.266143
O O6 0.940533 0.168045 0.397236
O O7 0.960445 0.426676 0.335893
O O8 0.091516 0.211697 0.270989
O O9 0.582581 0.750894 0.419661
O O10 0.854370 0.656066 0.403702
O O11 0.320731 0.791589 0.371525
O O12 0.302821 0.721141 0.231088
O O13 0.079004 0.681150 0.319160
O O14 0.166058 0.942217 0.281484
O O15 0.176052 0.368407 0.761239
O O16 0.435399 0.372677 0.706797
#
# Coordination Sequence:
#
# PCOD8301923 Si02
#       8
#     4   4   4   4   4   4   4   4
#     4  11  22  41  74 100 134 172 231 282 342 403
#     4  11  26  48  68 100 139 184 227 282 341 415
#     4  10  23  46  72 100 134 177 226 284 344 409
#     4  12  27  42  70 101 139 183 222 285 341 408
#     4  12  27  45  68  98 144 183 228 276 341 416
#     4  10  24  43  71 103 137 174 229 287 343 406
#     4  11  25  47  70 103 140 178 232 283 349 417
#     4  11  22  42  71 105 131 175 229 291 341 400
#
# _framework density 20.946346999999999
#
# number of rings (size 3 to 8) (size 9 to 14) (size 15 to 20)
#    0.000    1.000    2.500    3.000   14.000    0.000 
#    2.250    0.000    0.000    0.000    0.000    0.000 
#    0.000    0.000    0.000    0.000    0.000    0.000 
#
# Total GULP energy -396871.722963 kJ/mol
# GULP energy per Si atom -12402.241343 kJ/mol
# Density = 2.089867 g / cm^3
# Si number density = 20.946347 Si / 1000 Ang^3
#
#
#
# Elastic Constant Matrix: (Units=GPa)
#
#
# Indices 1 2 3 4 5 6 
#
# 1 85.8007 36.3089 51.1296 0.0000 0.0000 -8.2827
# 2 36.3089 85.8007 51.1296 0.0000 0.0000 8.2827
# 3 51.1296 51.1296 129.9102 0.0000 0.0000 0.0000
# 4 0.0000 0.0000 0.0000 29.4248 0.0000 0.0000
# 5 0.0000 0.0000 0.0000 0.0000 29.4248 0.0000
# 6 -8.2827 8.2827 0.0000 0.0000 0.0000 28.1598
#
#
#
# Elastic Compliance Matrix: (Units=1/GPa)
#
#
# Indices 1 2 3 4 5 6 
#
# 1 0.017314 -0.005098 -0.004808 0.000000 0.000000 0.006592
# 2 -0.005098 0.017314 -0.004808 0.000000 0.000000 -0.006592
# 3 -0.004808 -0.004808 0.011482 0.000000 0.000000 0.000000
# 4 0.000000 0.000000 0.000000 0.033985 0.000000 0.000000
# 5 0.000000 0.000000 0.000000 0.000000 0.033985 0.000000
# 6 0.006592 -0.006592 0.000000 0.000000 0.000000 0.039389
#
#
# Mechanical properties :
#
#
# Convention : Reuss Voigt Hill
#
# Bulk Modulus (GPa) = 59.94425 64.29418 62.11922
# Shear Modulus (GPa) = 26.53132 28.26481 27.39806
#
# Velocity S-wave (km/s) = 3.56284 3.67739 3.62057
# Velocity P-wave (km/s) = 6.75316 6.98515 6.87013
#
# Compressibility (1/GPa) = 0.01668217
#
# Stress axis : x y z
#
# Youngs Moduli (GPa) = 57.75782 57.75782 87.09234
#
# Poissons Ratio (x) = 0.29446 0.41872
# Poissons Ratio (y) = 0.29446 0.41872
# Poissons Ratio (z) = 0.27769 0.27769
#
# Static dielectric constant tensor:
#      x y z
#    x 3.834330 0.000000 0.000000 
#    y 0.000000 3.834330 0.000000 
#    z 0.000000 0.000000 3.832470 
# 
# 
# High freq. dielectric constant tensor:
#      x y z
#    x 1.823050 0.000000 0.000000 
#    y 0.000000 1.823050 0.000000 
#    z 0.000000 0.000000 1.830720 
# 
# From -- ./inp_files/1315.got.cif
#   From: 2010.03.12/outbox.cif.g09.slc.cpg/sg76_cif.got.tgz:1315.got - 2010.04.16 16:34:25.
