data_PCOD8301826
_publ_section_title
;
Structure prediction by ZEFSAII (Michael W. Deem and Ramdas Pophale) SiO2 
 PCOD8301826
Probable space group: I M M A
;
_chemical_formula_sum "Si O2"
_cell_formula_units_Z 40
_cell_length_a 18.000000
_cell_length_b 9.000000
_cell_length_c 27.000000
_cell_angle_alpha 90.000000
_cell_angle_beta 90.000000
_cell_angle_gamma 90.000000
_cell_volume 4374.000000
_symmetry_space_group_name_H-M "I M M A"
_symmetry_group_IT_number 74
_symmetry_cell_setting 'orthorhombic'
loop_
_space_group_symop_operation_xyz
x,y,z
-x,1/2-y,z
x,-y,-z
-x,1/2+y,-z
-x,-y,-z
x,1/2+y,-z
-x,y,z
x,1/2-y,z
1/2+x,1/2+y,1/2+z
1/2-x,-y,1/2+z
1/2+x,1/2-y,1/2-z
1/2-x,y,1/2-z
1/2-x,1/2-y,1/2-z
1/2+x,y,1/2-z
1/2-x,1/2+y,1/2+z
1/2+x,-y,1/2+z
loop_
_atom_site_type_symbol
_atom_site_label
_atom_site_fract_x
_atom_site_fract_y
_atom_site_fract_z
Si Si1 0.162210 0.414887 0.451857
Si Si2 0.824249 0.073914 0.343038
Si Si3 0.087033 0.421505 0.243898
Si Si4 0.333753 0.427777 0.652443
Si Si5 0.661017 0.580422 0.549775
O O1 0.129270 0.500000 0.500000
O O2 0.131243 0.250000 0.458506
O O3 0.138610 0.473455 0.396516
O O4 0.250678 0.420504 0.452975
O O5 0.806093 0.250000 0.344981
O O6 0.876687 0.032865 0.296737
O O7 0.748673 0.983769 0.335443
O O8 0.105792 0.250000 0.231972
O O9 0.115274 0.521267 0.198389
O O10 0.000000 0.448277 0.250060
O O11 0.335079 0.250000 0.648272
O O12 0.363924 0.495462 0.600198
O O13 0.629279 0.500000 0.500000
O O14 0.630993 0.750000 0.551394
#
# Coordination Sequence:
#
# PCOD8301826 Si02
#       5
#    16  16  16  16  16
#     4   8  14  24  41  67  97 126 155 193 240 287
#     4   9  18  33  52  74 100 130 168 213 255 299
#     4  10  21  37  55  72  94 130 173 215 261 309
#     4  11  21  32  50  77 106 135 167 205 251 302
#     4   9  16  28  47  73 104 134 165 203 247 294
#
# _framework density 9.1449470000000002
#
# number of rings (size 3 to 8) (size 9 to 14) (size 15 to 20)
#    0.000    2.600    0.000    4.200    0.000    8.400 
#    0.000    0.000    0.000    1.200    0.000    0.000 
#    0.000    0.000    0.000    0.000    0.000    2.200 
#
# Total GULP energy -495710.081868 kJ/mol
# GULP energy per Si atom -12392.752047 kJ/mol
# Density = 0.912413 g / cm^3
# Si number density = 9.144947 Si / 1000 Ang^3
#
#
#
# Elastic Constant Matrix: (Units=GPa)
#
#
# Indices 1 2 3 4 5 6 
#
# 1 48.2743 29.3177 45.5499 0.0000 0.0000 0.0000
# 2 29.3177 119.3506 73.4804 0.0000 0.0000 0.0000
# 3 45.5499 73.4804 213.8608 0.0000 0.0000 0.0000
# 4 0.0000 0.0000 0.0000 42.0036 0.0000 0.0000
# 5 0.0000 0.0000 0.0000 0.0000 12.2152 0.0000
# 6 0.0000 0.0000 0.0000 0.0000 0.0000 12.6462
#
#
#
# Elastic Compliance Matrix: (Units=1/GPa)
#
#
# Indices 1 2 3 4 5 6 
#
# 1 0.027332 -0.003970 -0.004457 0.000000 0.000000 0.000000
# 2 -0.003970 0.011203 -0.003004 0.000000 0.000000 0.000000
# 3 -0.004457 -0.003004 0.006657 0.000000 0.000000 0.000000
# 4 0.000000 0.000000 0.000000 0.023807 0.000000 0.000000
# 5 0.000000 0.000000 0.000000 0.000000 0.081865 0.000000
# 6 0.000000 0.000000 0.000000 0.000000 0.000000 0.079075
#
#
# Mechanical properties :
#
#
# Convention : Reuss Voigt Hill
#
# Bulk Modulus (GPa) = 44.78169 75.35353 60.06761
# Shear Modulus (GPa) = 19.21262 28.91550 24.06406
#
# Velocity S-wave (km/s) = 3.24458 3.98044 3.63120
# Velocity P-wave (km/s) = 6.21079 7.90026 7.10592
#
# Compressibility (1/GPa) = 0.02233056
#
# Stress axis : x y z
#
# Youngs Moduli (GPa) = 36.58771 89.26086 150.20881
#
# Poissons Ratio (x) = 0.35432 0.66954
# Poissons Ratio (y) = 0.14524 0.45120
# Poissons Ratio (z) = 0.16309 0.26812
#
# Static dielectric constant tensor:
#      x y z
#    x 2.878310 0.000000 0.000000 
#    y 0.000000 3.506870 0.000000 
#    z 0.000000 0.000000 4.062610 
# 
# 
# High freq. dielectric constant tensor:
#      x y z
#    x 1.654950 0.000000 0.000000 
#    y 0.000000 1.710440 0.000000 
#    z 0.000000 0.000000 1.755270 
# 
# From -- ./inp_files/63888.got.cif
#   From: 2010.03.12/outbox.ucp.g09.slc.cvg/sg74_32_cif.got.tgz:63888.got - 2010.05.04 20:08:06.
