data_PCOD8301717
_publ_section_title
;
Structure prediction by ZEFSAII (Michael W. Deem and Ramdas Pophale) SiO2 
 PCOD8301717
Probable space group: I M M A
;
_chemical_formula_sum "Si O2"
_cell_formula_units_Z 84
_cell_length_a 14.082207
_cell_length_b 19.877346
_cell_length_c 14.566409
_cell_angle_alpha 90.000000
_cell_angle_beta 90.000000
_cell_angle_gamma 90.000000
_cell_volume 4077.384066
_symmetry_space_group_name_H-M "I M M A"
_symmetry_group_IT_number 74
_symmetry_cell_setting 'orthorhombic'
loop_
_space_group_symop_operation_xyz
x,y,z
-x,1/2-y,z
x,-y,-z
-x,1/2+y,-z
-x,-y,-z
x,1/2+y,-z
-x,y,z
x,1/2-y,z
1/2+x,1/2+y,1/2+z
1/2-x,-y,1/2+z
1/2+x,1/2-y,1/2-z
1/2-x,y,1/2-z
1/2-x,1/2-y,1/2-z
1/2+x,y,1/2-z
1/2-x,1/2+y,1/2+z
1/2+x,-y,1/2+z
loop_
_atom_site_type_symbol
_atom_site_label
_atom_site_fract_x
_atom_site_fract_y
_atom_site_fract_z
Si Si1 0.000000 0.112651 0.369414
Si Si2 0.321639 0.977435 0.901635
Si Si3 0.611649 0.671153 0.363423
Si Si4 0.500000 0.672077 0.673503
Si Si5 0.208054 0.250000 0.350264
Si Si6 0.679410 0.366251 0.435548
Si Si7 0.250000 0.080882 0.750000
Si Si8 0.500000 0.250000 0.106490
O O1 0.094053 0.068569 0.363398
O O2 0.000000 0.175422 0.446101
O O3 0.000000 0.160394 0.280694
O O4 0.223204 0.939674 0.921370
O O5 0.298389 0.036610 0.830134
O O6 0.362145 0.000000 0.000000
O O7 0.500000 0.657383 0.352747
O O8 0.634607 0.750000 0.351641
O O9 0.646315 0.645503 0.461472
O O10 0.666435 0.628524 0.286909
O O11 0.500000 0.750000 0.644618
O O12 0.591685 0.636953 0.632168
O O13 0.250000 0.250000 0.250000
O O14 0.238984 0.185812 0.408713
O O15 0.096564 0.250000 0.333809
#
# Coordination Sequence:
#
# PCOD8301717 Si02
#       8
#     8  16  16   8   8  16   8   4
#     4  12  25  42  66  93 142 189 242 286 346 431
#     4  12  27  47  66  97 140 197 239 292 359 433
#     4  11  24  48  79 109 138 181 244 309 367 426
#     4  12  22  37  69 107 141 175 226 287 366 431
#     4  12  24  38  68 103 145 183 233 291 367 431
#     4  12  23  42  68 104 144 185 227 296 368 430
#     4  12  27  48  74 101 146 188 244 298 364 433
#     4  12  22  40  62 100 134 180 238 296 342 424
#
# _framework density 20.601444000000001
#
# number of rings (size 3 to 8) (size 9 to 14) (size 15 to 20)
#    0.000    0.190    7.143    2.857    2.667    0.000 
#    1.714    1.429    2.095    0.000    0.000    0.000 
#    0.000    0.000    0.000    0.000    0.000    0.000 
#
# Total GULP energy -520596.073480 kJ/mol
# GULP energy per Si atom -12395.144607 kJ/mol
# Density = 2.055455 g / cm^3
# Si number density = 20.601444 Si / 1000 Ang^3
#
#
#
# Elastic Constant Matrix: (Units=GPa)
#
#
# Indices 1 2 3 4 5 6 
#
# 1 157.2511 66.8353 43.7455 0.0000 0.0000 0.0000
# 2 66.8353 125.9459 50.0004 0.0001 0.0000 0.0000
# 3 43.7455 50.0004 108.6476 0.0002 -0.0001 -0.0001
# 4 0.0000 0.0001 0.0002 35.0444 0.0000 -0.0001
# 5 0.0000 0.0000 -0.0001 0.0000 37.9185 0.0000
# 6 0.0000 0.0000 -0.0001 -0.0001 0.0000 44.6093
#
#
#
# Elastic Compliance Matrix: (Units=1/GPa)
#
#
# Indices 1 2 3 4 5 6 
#
# 1 0.008443 -0.003831 -0.001636 0.000000 0.000000 0.000000
# 2 -0.003831 0.011453 -0.003728 0.000000 0.000000 0.000000
# 3 -0.001636 -0.003728 0.011579 0.000000 0.000000 0.000000
# 4 0.000000 0.000000 0.000000 0.028535 0.000000 0.000000
# 5 0.000000 0.000000 0.000000 0.000000 0.026372 0.000000
# 6 0.000000 0.000000 0.000000 0.000000 0.000000 0.022417
#
#
# Mechanical properties :
#
#
# Convention : Reuss Voigt Hill
#
# Bulk Modulus (GPa) = 76.43216 79.22298 77.82757
# Shear Modulus (GPa) = 38.00825 38.93199 38.47012
#
# Velocity S-wave (km/s) = 4.29993 4.35186 4.32597
# Velocity P-wave (km/s) = 7.86342 7.98688 7.92539
#
# Compressibility (1/GPa) = 0.01308350
#
# Stress axis : x y z
#
# Youngs Moduli (GPa) = 118.44753 87.31492 86.36490
#
# Poissons Ratio (x) = 0.33446 0.14133
# Poissons Ratio (y) = 0.45372 0.32200
# Poissons Ratio (z) = 0.19383 0.32554
#
# Static dielectric constant tensor:
#      x y z
#    x 3.939030 0.000000 0.000000 
#    y 0.000000 4.102560 0.000000 
#    z 0.000000 0.000000 3.715340 
# 
# 
# High freq. dielectric constant tensor:
#      x y z
#    x 1.828690 0.000000 0.000000 
#    y 0.000000 1.824110 0.000000 
#    z 0.000000 0.000000 1.792850 
# 
# From -- ./inp_files/32302.got.cif
#   From: 2010.03.12/outbox.cif.g09.slc.cpg/sg74_17_cif.got.tgz:32302.got - 2010.04.16 15:46:19.
