data_PCOD8301196
_publ_section_title
;
Structure prediction by ZEFSAII (Michael W. Deem and Ramdas Pophale) SiO2 
 PCOD8301196
Probable space group: I M M A
;
_chemical_formula_sum "Si O2"
_cell_formula_units_Z 96
_cell_length_a 26.496285
_cell_length_b 14.663786
_cell_length_c 12.399766
_cell_angle_alpha 90.000000
_cell_angle_beta 90.000000
_cell_angle_gamma 90.000000
_cell_volume 4817.753660
_symmetry_space_group_name_H-M "I M M A"
_symmetry_group_IT_number 74
_symmetry_cell_setting 'orthorhombic'
loop_
_space_group_symop_operation_xyz
x,y,z
-x,1/2-y,z
x,-y,-z
-x,1/2+y,-z
-x,-y,-z
x,1/2+y,-z
-x,y,z
x,1/2-y,z
1/2+x,1/2+y,1/2+z
1/2-x,-y,1/2+z
1/2+x,1/2-y,1/2-z
1/2-x,y,1/2-z
1/2-x,1/2-y,1/2-z
1/2+x,y,1/2-z
1/2-x,1/2+y,1/2+z
1/2+x,-y,1/2+z
loop_
_atom_site_type_symbol
_atom_site_label
_atom_site_fract_x
_atom_site_fract_y
_atom_site_fract_z
Si Si1 0.808543 0.750000 0.863090
Si Si2 0.059550 0.853301 0.549416
Si Si3 0.810799 0.600106 0.025355
Si Si4 0.808767 0.096989 0.537868
Si Si5 0.137738 0.146940 0.754696
Si Si6 0.311987 0.250000 0.121739
Si Si7 0.059127 0.465053 0.660114
O O1 0.748144 0.750000 0.865490
O O2 0.833046 0.750000 0.743604
O O3 0.828686 0.660960 0.924698
O O4 0.082271 0.750000 0.570089
O O5 0.078963 0.900267 0.438845
O O6 0.000000 0.843672 0.539183
O O7 0.071716 0.927400 0.643366
O O8 0.751052 0.602066 0.036828
O O9 0.832788 0.639909 0.134437
O O10 0.831398 0.500000 0.000000
O O11 0.824492 0.121104 0.658449
O O12 0.831900 0.163367 0.446167
O O13 0.829463 0.000000 0.500000
O O14 0.117864 0.250000 0.739923
O O15 0.090679 0.075869 0.759814
O O16 0.000000 0.451508 0.679918
#
# Coordination Sequence:
#
# PCOD8301196 Si02
#       7
#     8  16  16  16  16   8  16
#     4   9  18  35  57  77 105 147 190 226 280 336
#     4   8  14  29  52  75 109 157 192 225 291 361
#     4  10  22  39  58  78 109 154 196 237 280 338
#     4  10  22  36  55  84 117 147 184 235 295 345
#     4  12  23  36  58  85 117 153 196 240 288 347
#     4   9  18  35  55  79 109 143 182 230 280 344
#     4   9  19  33  52  82 117 151 192 241 289 345
#
# _framework density 19.926297999999999
#
# number of rings (size 3 to 8) (size 9 to 14) (size 15 to 20)
#    0.000    2.333    1.667    2.000    4.667    1.667 
#    0.000    0.000    1.833    0.500    0.000    0.000 
#    0.000    1.333    0.000    0.000    0.000    0.000 
#
# Total GULP energy -595004.724779 kJ/mol
# GULP energy per Si atom -12395.931766 kJ/mol
# Density = 1.988095 g / cm^3
# Si number density = 19.926298 Si / 1000 Ang^3
#
#
#
# Elastic Constant Matrix: (Units=GPa)
#
#
# Indices 1 2 3 4 5 6 
#
# 1 18.8840 32.7871 21.8320 0.0000 0.0000 0.0000
# 2 32.7871 187.5640 56.6066 0.0000 0.0000 0.0000
# 3 21.8320 56.6066 129.1852 0.0000 0.0000 0.0000
# 4 0.0000 0.0000 0.0000 29.6065 0.0000 0.0000
# 5 0.0000 0.0000 0.0000 0.0000 15.0580 0.0000
# 6 0.0000 0.0000 0.0000 0.0000 0.0000 19.5877
#
#
#
# Elastic Compliance Matrix: (Units=1/GPa)
#
#
# Indices 1 2 3 4 5 6 
#
# 1 0.084164 -0.012008 -0.008962 0.000000 0.000000 0.000000
# 2 -0.012008 0.007857 -0.001414 0.000000 0.000000 0.000000
# 3 -0.008962 -0.001414 0.009875 0.000000 0.000000 0.000000
# 4 0.000000 0.000000 0.000000 0.033776 0.000000 0.000000
# 5 0.000000 0.000000 0.000000 0.000000 0.066410 0.000000
# 6 0.000000 0.000000 0.000000 0.000000 0.000000 0.051052
#
#
# Mechanical properties :
#
#
# Convention : Reuss Voigt Hill
#
# Bulk Modulus (GPa) = 17.50411 62.00940 39.75675
# Shear Modulus (GPa) = 15.77567 27.81095 21.79331
#
# Velocity S-wave (km/s) = 2.81677 3.73995 3.31069
# Velocity P-wave (km/s) = 4.40255 7.05950 5.88298
#
# Compressibility (1/GPa) = 0.05712944
#
# Stress axis : x y z
#
# Youngs Moduli (GPa) = 11.88159 127.27332 101.26787
#
# Poissons Ratio (x) = 1.52823 0.90757
# Poissons Ratio (y) = 0.14267 0.14315
# Poissons Ratio (z) = 0.10648 0.17991
#
# Static dielectric constant tensor:
#      x y z
#    x 3.472730 0.000000 0.000000 
#    y 0.000000 4.206230 0.000000 
#    z 0.000000 0.000000 3.430420 
# 
# 
# High freq. dielectric constant tensor:
#      x y z
#    x 1.769380 0.000000 0.000000 
#    y 0.000000 1.801260 0.000000 
#    z 0.000000 0.000000 1.744010 
# 
# From -- ./inp_files/27158.got.cif
#   From: 2010.03.12/outbox.cif.g09.slc.cpg/sg74_14_cif.got.tgz:27158.got - 2010.04.16 15:46:19.
