data_PCOD8301108
_publ_section_title
;
Structure prediction by ZEFSAII (Michael W. Deem and Ramdas Pophale) SiO2 
 PCOD8301108
Probable space group: I M M A
;
_chemical_formula_sum "Si O2"
_cell_formula_units_Z 88
_cell_length_a 8.644626
_cell_length_b 21.458848
_cell_length_c 24.122499
_cell_angle_alpha 90.000000
_cell_angle_beta 90.000000
_cell_angle_gamma 90.000000
_cell_volume 4474.813188
_symmetry_space_group_name_H-M "I M M A"
_symmetry_group_IT_number 74
_symmetry_cell_setting 'orthorhombic'
loop_
_space_group_symop_operation_xyz
x,y,z
-x,1/2-y,z
x,-y,-z
-x,1/2+y,-z
-x,-y,-z
x,1/2+y,-z
-x,y,z
x,1/2-y,z
1/2+x,1/2+y,1/2+z
1/2-x,-y,1/2+z
1/2+x,1/2-y,1/2-z
1/2-x,y,1/2-z
1/2-x,1/2-y,1/2-z
1/2+x,y,1/2-z
1/2-x,1/2+y,1/2+z
1/2+x,-y,1/2+z
loop_
_atom_site_type_symbol
_atom_site_label
_atom_site_fract_x
_atom_site_fract_y
_atom_site_fract_z
Si Si1 0.822603 0.676578 0.807075
Si Si2 0.819211 0.978982 0.061933
Si Si3 0.818833 0.250000 0.688447
Si Si4 0.824867 0.317965 0.012389
Si Si5 0.821798 0.901763 0.597950
Si Si6 0.817219 0.848309 0.402856
O O1 0.805489 0.750000 0.813419
O O2 0.750000 0.653012 0.750000
O O3 0.722622 0.645475 0.854308
O O4 0.000000 0.655343 0.811180
O O5 0.734027 0.920156 0.089880
O O6 0.000000 0.964129 0.060836
O O7 0.780011 0.035957 0.102866
O O8 0.761563 0.000000 0.000000
O O9 0.750000 0.250000 0.750000
O O10 0.770447 0.186380 0.654955
O O11 0.000000 0.250000 0.696455
O O12 0.817021 0.250000 0.041423
O O13 0.711390 0.367412 0.040085
O O14 0.000000 0.344189 0.016065
O O15 0.771606 0.309331 0.949578
O O16 0.000000 0.920227 0.601318
O O17 0.000000 0.843321 0.411542
#
# Coordination Sequence:
#
# PCOD8301108 Si02
#       6
#    16  16   8  16  16  16
#     4  10  21  39  62  87 119 158 201 249 298 352
#     4  11  23  39  60  88 123 163 205 248 305 373
#     4  10  24  44  68  96 126 162 207 258 311 372
#     4  11  22  35  55  86 122 160 200 246 303 364
#     4  12  24  37  58  87 122 162 204 250 300 359
#     4  11  22  39  62  91 122 155 200 251 308 370
#
# _framework density 19.665626
#
# number of rings (size 3 to 8) (size 9 to 14) (size 15 to 20)
#    0.000    1.091    2.727    4.364    0.000    6.545 
#    0.000    0.909    0.000    2.182    0.000    0.000 
#    0.000    0.000    0.000    0.000    0.000    0.000 
#
# Total GULP energy -545440.094205 kJ/mol
# GULP energy per Si atom -12396.365777 kJ/mol
# Density = 1.962087 g / cm^3
# Si number density = 19.665626 Si / 1000 Ang^3
#
#
#
# Elastic Constant Matrix: (Units=GPa)
#
#
# Indices 1 2 3 4 5 6 
#
# 1 68.7613 31.3334 25.3102 0.0000 0.0000 0.0000
# 2 31.3334 102.1573 38.7537 0.0000 0.0000 0.0000
# 3 25.3102 38.7537 108.3301 0.0000 0.0000 0.0000
# 4 0.0000 0.0000 0.0000 6.4228 0.0000 0.0000
# 5 0.0000 0.0000 0.0000 0.0000 33.9370 0.0000
# 6 0.0000 0.0000 0.0000 0.0000 0.0000 25.4908
#
#
#
# Elastic Compliance Matrix: (Units=1/GPa)
#
#
# Indices 1 2 3 4 5 6 
#
# 1 0.017475 -0.004409 -0.002505 0.000000 0.000000 0.000000
# 2 -0.004409 0.012438 -0.003419 0.000000 0.000000 0.000000
# 3 -0.002505 -0.003419 0.011040 0.000000 0.000000 0.000000
# 4 0.000000 0.000000 0.000000 0.155696 0.000000 0.000000
# 5 0.000000 0.000000 0.000000 0.000000 0.029466 0.000000
# 6 0.000000 0.000000 0.000000 0.000000 0.000000 0.039230
#
#
# Mechanical properties :
#
#
# Convention : Reuss Voigt Hill
#
# Bulk Modulus (GPa) = 49.29927 52.22702 50.76314
# Shear Modulus (GPa) = 17.07797 25.42687 21.25242
#
# Velocity S-wave (km/s) = 2.95009 3.59968 3.29095
# Velocity P-wave (km/s) = 6.06030 6.62511 6.34899
#
# Compressibility (1/GPa) = 0.02028428
#
# Stress axis : x y z
#
# Youngs Moduli (GPa) = 57.22619 80.39595 90.58232
#
# Poissons Ratio (x) = 0.35449 0.22694
# Poissons Ratio (y) = 0.25233 0.30975
# Poissons Ratio (z) = 0.14337 0.27491
#
# Static dielectric constant tensor:
#      x y z
#    x 3.630930 0.000000 0.000000 
#    y 0.000000 3.711200 0.000000 
#    z 0.000000 0.000000 3.497530 
# 
# 
# High freq. dielectric constant tensor:
#      x y z
#    x 1.774550 0.000000 0.000000 
#    y 0.000000 1.777760 0.000000 
#    z 0.000000 0.000000 1.748140 
# 
# From -- ./inp_files/57014.got.cif
#   From: 2010.03.12/outbox.cif.g09.slc.cpg/sg74_29_cif.got.tgz:57014.got - 2010.04.16 15:46:19.
