data_PCOD8301105
_publ_section_title
;
Structure prediction by ZEFSAII (Michael W. Deem and Ramdas Pophale) SiO2 
 PCOD8301105
Probable space group: I M M A
;
_chemical_formula_sum "Si O2"
_cell_formula_units_Z 64
_cell_length_a 21.094656
_cell_length_b 15.803180
_cell_length_c 8.569991
_cell_angle_alpha 90.000000
_cell_angle_beta 90.000000
_cell_angle_gamma 90.000000
_cell_volume 2856.914874
_symmetry_space_group_name_H-M "I M M A"
_symmetry_group_IT_number 74
_symmetry_cell_setting 'orthorhombic'
loop_
_space_group_symop_operation_xyz
x,y,z
-x,1/2-y,z
x,-y,-z
-x,1/2+y,-z
-x,-y,-z
x,1/2+y,-z
-x,y,z
x,1/2-y,z
1/2+x,1/2+y,1/2+z
1/2-x,-y,1/2+z
1/2+x,1/2-y,1/2-z
1/2-x,y,1/2-z
1/2-x,1/2-y,1/2-z
1/2+x,y,1/2-z
1/2-x,1/2+y,1/2+z
1/2+x,-y,1/2+z
loop_
_atom_site_type_symbol
_atom_site_label
_atom_site_fract_x
_atom_site_fract_y
_atom_site_fract_z
Si Si1 0.500000 0.904272 0.940382
Si Si2 0.871874 0.905685 0.432599
Si Si3 0.122856 0.653671 0.095032
Si Si4 0.755875 0.406415 0.065987
Si Si5 0.500000 0.150607 0.403681
O O1 0.500000 0.902716 0.754477
O O2 0.563897 0.859064 0.006716
O O3 0.500000 0.000000 0.000000
O O4 0.870056 0.906481 0.245169
O O5 0.807642 0.861847 0.496108
O O6 0.871331 0.000000 0.500000
O O7 0.114357 0.750000 0.152407
O O8 0.183843 0.648558 0.983936
O O9 0.061595 0.623236 0.000253
O O10 0.750000 0.408960 0.250000
O O11 0.765096 0.500000 0.000000
O O12 0.500000 0.250000 0.363694
#
# Coordination Sequence:
#
# PCOD8301105 Si02
#       5
#     8  16  16  16   8
#     4  10  21  40  64  93 121 155 206 250 295 360
#     4  10  21  39  61  91 125 159 202 251 308 363
#     4  11  24  42  64  90 122 163 208 253 304 365
#     4  11  22  39  62  90 126 163 203 253 309 364
#     4  10  23  42  62  89 127 165 200 250 312 362
#
# _framework density 22.401786999999999
#
# number of rings (size 3 to 8) (size 9 to 14) (size 15 to 20)
#    0.000    1.500    0.000    6.000    0.000    5.500 
#    0.000    5.625    0.000    0.000    0.000    0.000 
#    0.000    0.000    0.000    0.000    0.000    0.000 
#
# Total GULP energy -396818.197478 kJ/mol
# GULP energy per Si atom -12400.568671 kJ/mol
# Density = 2.235080 g / cm^3
# Si number density = 22.401787 Si / 1000 Ang^3
#
#
#
# Elastic Constant Matrix: (Units=GPa)
#
#
# Indices 1 2 3 4 5 6 
#
# 1 241.6082 12.9446 88.7884 0.0000 0.0000 0.0000
# 2 12.9446 47.6690 39.4987 0.0000 0.0000 0.0000
# 3 88.7884 39.4987 226.7925 0.0000 0.0000 0.0000
# 4 0.0000 0.0000 0.0000 24.5216 0.0000 0.0000
# 5 0.0000 0.0000 0.0000 0.0000 48.2968 0.0000
# 6 0.0000 0.0000 0.0000 0.0000 0.0000 6.3081
#
#
#
# Elastic Compliance Matrix: (Units=1/GPa)
#
#
# Indices 1 2 3 4 5 6 
#
# 1 0.004838 0.000299 -0.001946 0.000000 0.000000 0.000000
# 2 0.000299 0.024534 -0.004390 0.000000 0.000000 0.000000
# 3 -0.001946 -0.004390 0.005936 0.000000 0.000000 0.000000
# 4 0.000000 0.000000 0.000000 0.040780 0.000000 0.000000
# 5 0.000000 0.000000 0.000000 0.000000 0.020705 0.000000
# 6 0.000000 0.000000 0.000000 0.000000 0.000000 0.158527
#
#
# Mechanical properties :
#
#
# Convention : Reuss Voigt Hill
#
# Bulk Modulus (GPa) = 43.04096 88.72589 65.88343
# Shear Modulus (GPa) = 18.17258 40.81450 29.49354
#
# Velocity S-wave (km/s) = 2.85127 4.27304 3.63239
# Velocity P-wave (km/s) = 5.48585 8.00236 6.86048
#
# Compressibility (1/GPa) = 0.02323368
#
# Stress axis : x y z
#
# Youngs Moduli (GPa) = 206.69234 40.75915 168.46981
#
# Poissons Ratio (x) = -0.01218 0.32787
# Poissons Ratio (y) = -0.06175 0.73957
# Poissons Ratio (z) = 0.40225 0.17893
#
# Static dielectric constant tensor:
#      x y z
#    x 5.554940 0.000000 0.000000 
#    y 0.000000 3.664630 0.000000 
#    z 0.000000 0.000000 3.945780 
# 
# 
# High freq. dielectric constant tensor:
#      x y z
#    x 1.919590 0.000000 0.000000 
#    y 0.000000 1.842690 0.000000 
#    z 0.000000 0.000000 1.892650 
# 
# From -- ./inp_files/11815.got.cif
#   From: 2010.03.12/outbox.cif.g09.slc.cpg/sg74_6_cif.got.tgz:11815.got - 2010.04.16 15:46:19.
