data_PCOD8301128
_publ_section_title
;
Structure prediction by ZEFSAII (Michael W. Deem and Ramdas Pophale) SiO2 
 PCOD8301128
Probable space group: I M M A
;
_chemical_formula_sum "Si O2"
_cell_formula_units_Z 72
_cell_length_a 19.024693
_cell_length_b 18.078126
_cell_length_c 10.362374
_cell_angle_alpha 90.000000
_cell_angle_beta 90.000000
_cell_angle_gamma 90.000000
_cell_volume 3563.939550
_symmetry_space_group_name_H-M "I M M A"
_symmetry_group_IT_number 74
_symmetry_cell_setting 'orthorhombic'
loop_
_space_group_symop_operation_xyz
x,y,z
-x,1/2-y,z
x,-y,-z
-x,1/2+y,-z
-x,-y,-z
x,1/2+y,-z
-x,y,z
x,1/2-y,z
1/2+x,1/2+y,1/2+z
1/2-x,-y,1/2+z
1/2+x,1/2-y,1/2-z
1/2-x,y,1/2-z
1/2-x,1/2-y,1/2-z
1/2+x,y,1/2-z
1/2-x,1/2+y,1/2+z
1/2+x,-y,1/2+z
loop_
_atom_site_type_symbol
_atom_site_label
_atom_site_fract_x
_atom_site_fract_y
_atom_site_fract_z
Si Si1 0.750000 0.573173 0.250000
Si Si2 0.500000 0.878029 0.466159
Si Si3 0.847597 0.334207 0.944137
Si Si4 0.870094 0.524427 0.640037
Si Si5 0.500000 0.478019 0.316497
Si Si6 0.168996 0.668595 0.767284
O O1 0.798613 0.621603 0.155148
O O2 0.798902 0.520357 0.334110
O O3 0.430978 0.836443 0.412015
O O4 0.500000 0.893396 0.623746
O O5 0.500000 0.961998 0.426357
O O6 0.820989 0.250000 0.939471
O O7 0.841526 0.366409 0.089583
O O8 0.896353 0.500000 0.500000
O O9 0.858181 0.612880 0.656212
O O10 0.931245 0.503063 0.735988
O O11 0.131653 0.750000 0.754851
O O12 0.250000 0.681655 0.750000
#
# Coordination Sequence:
#
# PCOD8301128 Si02
#       6
#     8   8  16  16   8  16
#     4  12  25  38  65  98 128 166 224 266 331 398
#     4  11  21  40  68  92 125 174 213 273 328 396
#     4  11  23  41  65  95 132 170 213 272 333 393
#     4  12  24  40  64  92 128 172 215 267 326 383
#     4  11  23  40  64  92 129 160 221 271 323 380
#     4  10  21  39  63  93 127 166 214 268 324 384
#
# _framework density 20.202362999999998
#
# number of rings (size 3 to 8) (size 9 to 14) (size 15 to 20)
#    0.000    0.889    5.556    2.333    0.000    0.000 
#    0.000    1.667    0.000    0.000    0.000    0.000 
#    0.000    0.000    0.000    0.000    0.000    0.000 
#
# Total GULP energy -446107.944595 kJ/mol
# GULP energy per Si atom -12391.887350 kJ/mol
# Density = 2.015638 g / cm^3
# Si number density = 20.202363 Si / 1000 Ang^3
#
#
#
# Elastic Constant Matrix: (Units=GPa)
#
#
# Indices 1 2 3 4 5 6 
#
# 1 108.8668 19.9029 24.5577 0.0000 0.0000 0.0000
# 2 19.9029 103.8836 50.3142 0.0000 0.0000 0.0000
# 3 24.5577 50.3142 92.6071 0.0000 0.0000 0.0000
# 4 0.0000 0.0000 0.0000 65.6290 0.0000 0.0000
# 5 0.0000 0.0000 0.0000 0.0000 61.5635 0.0000
# 6 0.0000 0.0000 0.0000 0.0000 0.0000 28.3191
#
#
#
# Elastic Compliance Matrix: (Units=1/GPa)
#
#
# Indices 1 2 3 4 5 6 
#
# 1 0.009824 -0.000842 -0.002148 0.000000 0.000000 0.000000
# 2 -0.000842 0.013136 -0.006914 0.000000 0.000000 0.000000
# 3 -0.002148 -0.006914 0.015124 0.000000 0.000000 0.000000
# 4 0.000000 0.000000 0.000000 0.015237 0.000000 0.000000
# 5 0.000000 0.000000 0.000000 0.000000 0.016243 0.000000
# 6 0.000000 0.000000 0.000000 0.000000 0.000000 0.035312
#
#
# Mechanical properties :
#
#
# Convention : Reuss Voigt Hill
#
# Bulk Modulus (GPa) = 54.71224 54.98969 54.85097
# Shear Modulus (GPa) = 38.23351 45.14115 41.68733
#
# Velocity S-wave (km/s) = 4.35504 4.73212 4.54749
# Velocity P-wave (km/s) = 7.24081 7.55883 7.40153
#
# Compressibility (1/GPa) = 0.01827744
#
# Stress axis : x y z
#
# Youngs Moduli (GPa) = 101.79224 76.12700 66.11985
#
# Poissons Ratio (x) = 0.06410 0.14200
# Poissons Ratio (y) = 0.08570 0.45713
# Poissons Ratio (z) = 0.21862 0.52631
#
# Static dielectric constant tensor:
#      x y z
#    x 3.722460 0.000000 0.000000 
#    y 0.000000 3.825210 0.000000 
#    z 0.000000 0.000000 3.783360 
# 
# 
# High freq. dielectric constant tensor:
#      x y z
#    x 1.795710 0.000000 0.000000 
#    y 0.000000 1.792200 0.000000 
#    z 0.000000 0.000000 1.776880 
# 
# From -- ./inp_files/21912.got.cif
#   From: 2010.03.12/outbox.cif.g09.slc.cpg/sg74_11_cif.got.tgz:21912.got - 2010.04.16 15:46:19.
