data_PCOD8301833
_publ_section_title
;
Structure prediction by ZEFSAII (Michael W. Deem and Ramdas Pophale) SiO2 
 PCOD8301833
Probable space group: P 4
;
_chemical_formula_sum "Si O2"
_cell_formula_units_Z 16
_cell_length_a 7.940898
_cell_length_b 7.940898
_cell_length_c 11.559110
_cell_angle_alpha 90.000000
_cell_angle_beta 90.000000
_cell_angle_gamma 90.000000
_cell_volume 728.892752
_symmetry_space_group_name_H-M "P 4"
_symmetry_group_IT_number 75
_symmetry_cell_setting 'tetragonal'
loop_
_space_group_symop_operation_xyz
x,y,z
-y,x,z
-x,-y,z
y,-x,z
loop_
_atom_site_type_symbol
_atom_site_label
_atom_site_fract_x
_atom_site_fract_y
_atom_site_fract_z
Si Si1 0.266200 0.082161 0.610960
Si Si2 0.086026 0.265635 0.996890
Si Si3 0.000000 0.500000 0.414562
Si Si4 0.500000 0.000000 0.804712
Si Si5 0.765314 0.583996 0.219242
O O1 0.372864 0.108923 0.493954
O O2 0.382734 0.116603 0.722799
O O3 0.112293 0.208984 0.614575
O O4 0.115527 0.375613 0.111100
O O5 0.892059 0.209729 0.992980
O O6 0.119531 0.384091 0.885753
O O7 0.126262 0.389602 0.335493
O O8 0.609339 0.709558 0.216192
#
# Coordination Sequence:
#
# PCOD8301833 Si02
#       5
#     4   4   2   2   4
#     4  10  22  39  60  86 117 158 208 262 316 374
#     4  11  23  40  64  92 124 164 211 262 317 382
#     4  11  21  38  62  88 121 161 210 256 310 377
#     4  11  21  36  60  86 117 151 198 258 318 371
#     4  11  23  39  61  92 131 168 205 258 321 378
#
# _framework density 21.951101999999999
#
# number of rings (size 3 to 8) (size 9 to 14) (size 15 to 20)
#    0.000    1.250    0.000    6.750    0.000    2.000 
#    0.000    2.500    0.000   27.750    0.000    0.000 
#    0.000    0.000    0.000    0.000    0.000    0.000 
#
# Total GULP energy -198436.361171 kJ/mol
# GULP energy per Si atom -12402.272573 kJ/mol
# Density = 2.190114 g / cm^3
# Si number density = 21.951102 Si / 1000 Ang^3
#
#
#
# Elastic Constant Matrix: (Units=GPa)
#
#
# Indices 1 2 3 4 5 6 
#
# 1 103.9665 30.5042 57.2917 0.0000 0.0000 -3.4276
# 2 30.5042 103.9665 57.2917 0.0000 0.0000 3.4276
# 3 57.2917 57.2917 191.5886 0.0000 0.0000 0.0000
# 4 0.0000 0.0000 0.0000 28.3403 0.0000 0.0000
# 5 0.0000 0.0000 0.0000 0.0000 28.3403 0.0000
# 6 -3.4276 3.4276 0.0000 0.0000 0.0000 30.2444
#
#
#
# Elastic Compliance Matrix: (Units=1/GPa)
#
#
# Indices 1 2 3 4 5 6 
#
# 1 0.011869 -0.001889 -0.002984 0.000000 0.000000 0.001559
# 2 -0.001889 0.011869 -0.002984 0.000000 0.000000 -0.001559
# 3 -0.002984 -0.002984 0.007004 0.000000 0.000000 0.000000
# 4 0.000000 0.000000 0.000000 0.035285 0.000000 0.000000
# 5 0.000000 0.000000 0.000000 0.000000 0.035285 0.000000
# 6 0.001559 -0.001559 0.000000 0.000000 0.000000 0.033417
#
#
# Mechanical properties :
#
#
# Convention : Reuss Voigt Hill
#
# Bulk Modulus (GPa) = 66.54987 76.63297 71.59142
# Shear Modulus (GPa) = 32.16385 34.34726 33.25555
#
# Velocity S-wave (km/s) = 3.83201 3.95994 3.89650
# Velocity P-wave (km/s) = 7.06840 7.47628 7.27520
#
# Compressibility (1/GPa) = 0.01502633
#
# Stress axis : x y z
#
# Youngs Moduli (GPa) = 84.25552 84.25552 142.77002
#
# Poissons Ratio (x) = 0.15918 0.42605
# Poissons Ratio (y) = 0.15918 0.42605
# Poissons Ratio (z) = 0.25143 0.25143
#
# Static dielectric constant tensor:
#      x y z
#    x 3.881060 0.000000 0.000000 
#    y 0.000000 3.881060 0.000000 
#    z 0.000000 0.000000 4.154130 
# 
# 
# High freq. dielectric constant tensor:
#      x y z
#    x 1.857880 0.000000 0.000000 
#    y 0.000000 1.857880 0.000000 
#    z 0.000000 0.000000 1.883510 
# 
# From -- ./inp_files/485.got.cif
#   From: 2010.03.12/outbox.cif.g09.slc.cpg/sg75_cif.got.tgz:485.got - 2010.04.16 16:33:55.
