data_PCOD8301927
_publ_section_title
;
Structure prediction by ZEFSAII (Michael W. Deem and Ramdas Pophale) SiO2 
 PCOD8301927
Probable space group: P 41
;
_chemical_formula_sum "Si O2"
_cell_formula_units_Z 28
_cell_length_a 12.473229
_cell_length_b 12.473229
_cell_length_c 8.302064
_cell_angle_alpha 90.000000
_cell_angle_beta 90.000000
_cell_angle_gamma 90.000000
_cell_volume 1291.647086
_symmetry_space_group_name_H-M "P 41"
_symmetry_group_IT_number 76
_symmetry_cell_setting 'tetragonal'
loop_
_space_group_symop_operation_xyz
x,y,z
-y,x,1/4+z
-x,-y,1/2+z
y,-x,3/4+z
loop_
_atom_site_type_symbol
_atom_site_label
_atom_site_fract_x
_atom_site_fract_y
_atom_site_fract_z
Si Si1 0.262889 0.201157 0.935750
Si Si2 0.028321 0.641005 0.468621
Si Si3 0.038074 0.122501 0.910130
Si Si4 0.500797 0.884110 0.936336
Si Si5 0.606355 0.306877 0.989623
Si Si6 0.691223 0.541370 0.905888
Si Si7 0.275243 0.592535 0.964318
O O1 0.348610 0.131489 0.834415
O O2 0.157626 0.133107 0.987849
O O3 0.235557 0.297806 0.812682
O O4 0.310069 0.256971 0.092971
O O5 0.042489 0.559508 0.319500
O O6 0.001743 0.755673 0.387056
O O7 0.939672 0.596680 0.591613
O O8 0.054232 0.051889 0.751369
O O9 0.583584 0.839493 0.803672
O O10 0.452386 0.781148 0.021562
O O11 0.634647 0.428157 0.936774
O O12 0.573288 0.250117 0.823355
O O13 0.511938 0.310330 0.117596
O O14 0.606825 0.631380 0.847117
#
# Coordination Sequence:
#
# PCOD8301927 Si02
#       7
#     4   4   4   4   4   4   4
#     4  11  23  44  64  97 135 181 225 294 346 403
#     4  11  23  45  68  96 138 173 230 290 351 419
#     4  10  24  45  72  97 129 171 226 288 351 401
#     4  12  25  43  65 101 130 185 226 278 350 417
#     4  12  24  39  63  95 143 185 225 276 330 399
#     4  12  25  38  61  98 138 185 232 266 330 403
#     4  12  24  38  63  96 137 180 228 274 332 408
#
# _framework density 21.677745999999999
#
# number of rings (size 3 to 8) (size 9 to 14) (size 15 to 20)
#    0.000    0.571    4.286    3.429    2.000    2.286 
#    0.000    5.714    0.000    0.000    0.000    0.000 
#    0.000    0.000    0.000    0.000    0.000    0.000 
#
# Total GULP energy -346995.685110 kJ/mol
# GULP energy per Si atom -12392.703040 kJ/mol
# Density = 2.162841 g / cm^3
# Si number density = 21.677746 Si / 1000 Ang^3
#
#
#
# Elastic Constant Matrix: (Units=GPa)
#
#
# Indices 1 2 3 4 5 6 
#
# 1 84.1649 14.4727 34.3051 0.0000 0.0000 6.8456
# 2 14.4727 84.1649 34.3051 0.0000 0.0000 -6.8456
# 3 34.3051 34.3051 103.2597 0.0000 0.0000 0.0000
# 4 0.0000 0.0000 0.0000 34.7553 0.0000 0.0000
# 5 0.0000 0.0000 0.0000 0.0000 34.7553 0.0000
# 6 6.8456 -6.8456 0.0000 0.0000 0.0000 28.6432
#
#
#
# Elastic Compliance Matrix: (Units=1/GPa)
#
#
# Indices 1 2 3 4 5 6 
#
# 1 0.014120 -0.000935 -0.004380 0.000000 0.000000 -0.003598
# 2 -0.000935 0.014120 -0.004380 0.000000 0.000000 0.003598
# 3 -0.004380 -0.004380 0.012595 0.000000 0.000000 0.000000
# 4 0.000000 0.000000 0.000000 0.028773 0.000000 0.000000
# 5 0.000000 0.000000 0.000000 0.000000 0.028773 0.000000
# 6 -0.003598 0.003598 0.000000 0.000000 0.000000 0.036632
#
#
# Mechanical properties :
#
#
# Convention : Reuss Voigt Hill
#
# Bulk Modulus (GPa) = 46.63433 48.63949 47.63691
# Shear Modulus (GPa) = 30.94962 32.19784 31.57373
#
# Velocity S-wave (km/s) = 3.78261 3.85813 3.82056
# Velocity P-wave (km/s) = 6.37470 6.50639 6.44088
#
# Compressibility (1/GPa) = 0.02144343
#
# Stress axis : x y z
#
# Youngs Moduli (GPa) = 70.81973 70.81973 79.39772
#
# Poissons Ratio (x) = 0.06624 0.34779
# Poissons Ratio (y) = 0.06624 0.34779
# Poissons Ratio (z) = 0.31022 0.31022
#
# Static dielectric constant tensor:
#      x y z
#    x 3.987170 0.000000 0.000000 
#    y 0.000000 3.987170 0.000000 
#    z 0.000000 0.000000 4.170280 
# 
# 
# High freq. dielectric constant tensor:
#      x y z
#    x 1.851820 0.000000 0.000000 
#    y 0.000000 1.851820 0.000000 
#    z 0.000000 0.000000 1.862400 
# 
# From -- ./inp_files/601.got.cif
#   From: 2010.03.12/outbox.cif.g09.slc.cpg/sg76_cif.got.tgz:601.got - 2010.04.16 16:34:25.
