data_PCOD8301514
_publ_section_title
;
Structure prediction by ZEFSAII (Michael W. Deem and Ramdas Pophale) SiO2 
 PCOD8301514
Probable space group: I M M A
;
_chemical_formula_sum "Si O2"
_cell_formula_units_Z 64
_cell_length_a 19.958623
_cell_length_b 15.016508
_cell_length_c 10.363017
_cell_angle_alpha 90.000000
_cell_angle_beta 90.000000
_cell_angle_gamma 90.000000
_cell_volume 3105.887617
_symmetry_space_group_name_H-M "I M M A"
_symmetry_group_IT_number 74
_symmetry_cell_setting 'orthorhombic'
loop_
_space_group_symop_operation_xyz
x,y,z
-x,1/2-y,z
x,-y,-z
-x,1/2+y,-z
-x,-y,-z
x,1/2+y,-z
-x,y,z
x,1/2-y,z
1/2+x,1/2+y,1/2+z
1/2-x,-y,1/2+z
1/2+x,1/2-y,1/2-z
1/2-x,y,1/2-z
1/2-x,1/2-y,1/2-z
1/2+x,y,1/2-z
1/2-x,1/2+y,1/2+z
1/2+x,-y,1/2+z
loop_
_atom_site_type_symbol
_atom_site_label
_atom_site_fract_x
_atom_site_fract_y
_atom_site_fract_z
Si Si1 0.652297 0.148800 0.299023
Si Si2 0.423648 0.487425 0.647734
Si Si3 0.824257 0.850587 0.288088
Si Si4 0.728104 0.099520 0.046557
O O1 0.630766 0.250000 0.273962
O O2 0.692802 0.105845 0.182712
O O3 0.698026 0.143413 0.430274
O O4 0.585986 0.088102 0.301338
O O5 0.402970 0.500000 0.500000
O O6 0.500000 0.456462 0.666684
O O7 0.377965 0.416271 0.723604
O O8 0.840269 0.750000 0.241441
O O9 0.750000 0.882733 0.250000
O O10 0.820972 0.851791 0.444024
O O11 0.739863 0.000000 0.000000
#
# Coordination Sequence:
#
# PCOD8301514 Si02
#       4
#    16  16  16  16
#     4  11  22  38  62  94 127 166 211 260 317 381
#     4  11  25  43  62  89 127 171 215 266 328 389
#     4  11  22  39  64  95 125 161 211 264 317 377
#     4  11  20  36  63  94 130 159 203 262 320 374
#
# _framework density 20.606026
#
# number of rings (size 3 to 8) (size 9 to 14) (size 15 to 20)
#    0.000    1.000    2.500    6.750    0.000    4.000 
#    0.000    5.000    0.000    3.000    0.000    0.000 
#    0.000    0.000    0.000    0.000    0.000    0.000 
#
# Total GULP energy -396444.575548 kJ/mol
# GULP energy per Si atom -12388.892986 kJ/mol
# Density = 2.055913 g / cm^3
# Si number density = 20.606026 Si / 1000 Ang^3
#
#
#
# Elastic Constant Matrix: (Units=GPa)
#
#
# Indices 1 2 3 4 5 6 
#
# 1 94.7032 39.3782 46.5015 0.0000 0.0000 0.0000
# 2 39.3782 123.2192 47.2794 0.0000 0.0000 0.0000
# 3 46.5015 47.2794 100.2887 0.0000 0.0000 0.0000
# 4 0.0000 0.0000 0.0000 29.6852 0.0000 0.0000
# 5 0.0000 0.0000 0.0000 0.0000 22.3294 0.0000
# 6 0.0000 0.0000 0.0000 0.0000 0.0000 17.2928
#
#
#
# Elastic Compliance Matrix: (Units=1/GPa)
#
#
# Indices 1 2 3 4 5 6 
#
# 1 0.014261 -0.002466 -0.005450 0.000000 0.000000 0.000000
# 2 -0.002466 0.010334 -0.003728 0.000000 0.000000 0.000000
# 3 -0.005450 -0.003728 0.014256 0.000000 0.000000 0.000000
# 4 0.000000 0.000000 0.000000 0.033687 0.000000 0.000000
# 5 0.000000 0.000000 0.000000 0.000000 0.044784 0.000000
# 6 0.000000 0.000000 0.000000 0.000000 0.000000 0.057828
#
#
# Mechanical properties :
#
#
# Convention : Reuss Voigt Hill
#
# Bulk Modulus (GPa) = 64.25864 64.94772 64.60318
# Shear Modulus (GPa) = 24.55487 26.19826 25.37656
#
# Velocity S-wave (km/s) = 3.45575 3.56952 3.51310
# Velocity P-wave (km/s) = 6.86841 6.96964 6.91921
#
# Compressibility (1/GPa) = 0.01556211
#
# Stress axis : x y z
#
# Youngs Moduli (GPa) = 70.12248 96.76415 70.14703
#
# Poissons Ratio (x) = 0.23866 0.38228
# Poissons Ratio (y) = 0.17295 0.26153
# Poissons Ratio (z) = 0.38214 0.36077
#
# Static dielectric constant tensor:
#      x y z
#    x 3.494010 0.000000 0.000000 
#    y 0.000000 3.775160 0.000000 
#    z 0.000000 0.000000 4.360550 
# 
# 
# High freq. dielectric constant tensor:
#      x y z
#    x 1.770070 0.000000 0.000000 
#    y 0.000000 1.819740 0.000000 
#    z 0.000000 0.000000 1.820000 
# 
# From -- ./inp_files/20115.got.cif
#   From: 2010.03.12/outbox.cif.g09.slc.cpg/sg74_11_cif.got.tgz:20115.got - 2010.04.16 15:46:19.
