data_PCOD8301997
_publ_section_title
;
Structure prediction by ZEFSAII (Michael W. Deem and Ramdas Pophale) SiO2 
 PCOD8301997
Probable space group: P 42
;
_chemical_formula_sum "Si O2"
_cell_formula_units_Z 24
_cell_length_a 9.149580
_cell_length_b 9.149580
_cell_length_c 12.952067
_cell_angle_alpha 90.000000
_cell_angle_beta 90.000000
_cell_angle_gamma 90.000000
_cell_volume 1084.279882
_symmetry_space_group_name_H-M "P 42"
_symmetry_group_IT_number 77
_symmetry_cell_setting 'tetragonal'
loop_
_space_group_symop_operation_xyz
x,y,z
-y,x,1/2+z
-x,-y,z
y,-x,1/2+z
loop_
_atom_site_type_symbol
_atom_site_label
_atom_site_fract_x
_atom_site_fract_y
_atom_site_fract_z
Si Si1 0.328540 0.995843 0.292090
Si Si2 0.730318 0.189368 0.730269
Si Si3 0.636681 0.587274 0.044446
Si Si4 0.278554 0.153412 0.720688
Si Si5 0.385999 0.118410 0.507008
Si Si6 0.498177 0.670888 0.846314
O O1 0.238328 0.102577 0.218262
O O2 0.305861 0.042779 0.410951
O O3 0.500000 0.000000 0.263015
O O4 0.254549 0.840419 0.275812
O O5 0.657848 0.255052 0.626596
O O6 0.667210 0.268286 0.833998
O O7 0.725491 0.016675 0.749827
O O8 0.500000 0.500000 0.096899
O O9 0.733264 0.473196 0.975947
O O10 0.568172 0.699848 0.959751
O O11 0.269837 0.160805 0.596128
O O12 0.427928 0.227826 0.758113
O O13 0.500000 0.000000 0.554493
O O14 0.500000 0.500000 0.818485
#
# Coordination Sequence:
#
# PCOD8301997 Si02
#       6
#     4   4   4   4   4   4
#     4  11  26  45  70  99 147 188 243 297 359 433
#     4  12  24  45  65 104 145 185 238 297 368 433
#     4  11  23  39  73 104 139 183 241 298 359 421
#     4  12  24  43  72 102 138 194 232 298 365 434
#     4  11  21  44  71 100 134 193 234 290 373 432
#     4  11  22  42  71 105 134 180 245 297 346 424
#
# _framework density 22.134508
#
# number of rings (size 3 to 8) (size 9 to 14) (size 15 to 20)
#    0.000    0.667    3.333    6.500    2.333    0.000 
#    3.000    1.667    0.000    0.000    0.000    0.000 
#    0.000    0.000    0.000    0.000    0.000    0.000 
#
# Total GULP energy -297411.746308 kJ/mol
# GULP energy per Si atom -12392.156096 kJ/mol
# Density = 2.208413 g / cm^3
# Si number density = 22.134508 Si / 1000 Ang^3
#
#
#
# Elastic Constant Matrix: (Units=GPa)
#
#
# Indices 1 2 3 4 5 6 
#
# 1 105.1609 17.0832 23.0770 0.0000 0.0000 -2.9649
# 2 17.0832 105.1609 23.0770 0.0000 0.0000 2.9649
# 3 23.0770 23.0770 99.5127 0.0000 0.0000 0.0000
# 4 0.0000 0.0000 0.0000 25.2674 0.0000 0.0000
# 5 0.0000 0.0000 0.0000 0.0000 25.2674 0.0000
# 6 -2.9649 2.9649 0.0000 0.0000 0.0000 45.0533
#
#
#
# Elastic Compliance Matrix: (Units=1/GPa)
#
#
# Indices 1 2 3 4 5 6 
#
# 1 0.010185 -0.001219 -0.002079 0.000000 0.000000 0.000750
# 2 -0.001219 0.010185 -0.002079 0.000000 0.000000 -0.000750
# 3 -0.002079 -0.002079 0.011013 0.000000 0.000000 0.000000
# 4 0.000000 0.000000 0.000000 0.039577 0.000000 0.000000
# 5 0.000000 0.000000 0.000000 0.000000 0.039577 0.000000
# 6 0.000750 -0.000750 0.000000 0.000000 0.000000 0.022295
#
#
# Mechanical properties :
#
#
# Convention : Reuss Voigt Hill
#
# Bulk Modulus (GPa) = 48.47867 48.47878 48.47873
# Shear Modulus (GPa) = 33.23102 35.55742 34.39422
#
# Velocity S-wave (km/s) = 3.87889 4.01237 3.94620
# Velocity P-wave (km/s) = 6.48155 6.58900 6.53550
#
# Compressibility (1/GPa) = 0.02062763
#
# Stress axis : x y z
#
# Youngs Moduli (GPa) = 98.18626 98.18626 90.79984
#
# Poissons Ratio (x) = 0.11973 0.18878
# Poissons Ratio (y) = 0.11973 0.18878
# Poissons Ratio (z) = 0.20414 0.20414
#
# Static dielectric constant tensor:
#      x y z
#    x 4.115810 0.000000 0.000000 
#    y 0.000000 4.115810 0.000000 
#    z 0.000000 0.000000 3.788830 
# 
# 
# High freq. dielectric constant tensor:
#      x y z
#    x 1.875070 0.000000 0.000000 
#    y 0.000000 1.875070 0.000000 
#    z 0.000000 0.000000 1.867430 
# 
# From -- ./inp_files/1110.got.cif
#   From: 2010.03.12/outbox.cif.g09.slc.cpg/sg77_cif.got.tgz:1110.got - 2010.04.16 16:36:19.
