data_PCOD8301347
_publ_section_title
;
Structure prediction by ZEFSAII (Michael W. Deem and Ramdas Pophale) SiO2 
 PCOD8301347
Probable space group: I M M A
;
_chemical_formula_sum "Si O2"
_cell_formula_units_Z 72
_cell_length_a 14.507989
_cell_length_b 26.984763
_cell_length_c 8.519694
_cell_angle_alpha 90.000000
_cell_angle_beta 90.000000
_cell_angle_gamma 90.000000
_cell_volume 3335.414576
_symmetry_space_group_name_H-M "I M M A"
_symmetry_group_IT_number 74
_symmetry_cell_setting 'orthorhombic'
loop_
_space_group_symop_operation_xyz
x,y,z
-x,1/2-y,z
x,-y,-z
-x,1/2+y,-z
-x,-y,-z
x,1/2+y,-z
-x,y,z
x,1/2-y,z
1/2+x,1/2+y,1/2+z
1/2-x,-y,1/2+z
1/2+x,1/2-y,1/2-z
1/2-x,y,1/2-z
1/2-x,1/2-y,1/2-z
1/2+x,y,1/2-z
1/2-x,1/2+y,1/2+z
1/2+x,-y,1/2+z
loop_
_atom_site_type_symbol
_atom_site_label
_atom_site_fract_x
_atom_site_fract_y
_atom_site_fract_z
Si Si1 0.329521 0.965532 0.141947
Si Si2 0.301481 0.883163 0.903320
Si Si3 0.000000 0.613467 0.725121
Si Si4 0.000000 0.002459 0.815512
Si Si5 0.500000 0.693290 0.500728
Si Si6 0.297723 0.806708 0.406674
O O1 0.250000 0.988517 0.250000
O O2 0.416253 0.963529 0.256675
O O3 0.293548 0.915217 0.062536
O O4 0.359395 0.000000 0.000000
O O5 0.250000 0.907021 0.750000
O O6 0.409179 0.873474 0.873792
O O7 0.245203 0.833335 0.940905
O O8 0.000000 0.554540 0.758263
O O9 0.000000 0.649460 0.873352
O O10 0.000000 0.000000 0.000000
O O11 0.500000 0.750000 0.571712
O O12 0.591618 0.685897 0.395655
O O13 0.270772 0.750000 0.429121
O O14 0.250000 0.827987 0.250000
#
# Coordination Sequence:
#
# PCOD8301347 Si02
#       6
#    16  16   8   8   8  16
#     4  12  25  43  67  96 132 176 231 282 349 412
#     4  12  25  42  68  99 137 180 229 294 347 418
#     4  12  25  43  67  98 139 176 235 283 349 419
#     4  12  28  46  69  97 137 184 230 297 352 416
#     4  10  22  42  71 102 141 184 225 286 356 422
#     4  10  23  44  70 103 140 180 229 286 351 421
#
# _framework density 21.586521999999999
#
# number of rings (size 3 to 8) (size 9 to 14) (size 15 to 20)
#    0.000    0.667    4.444    3.000    3.111    4.000 
#    0.000    1.111    0.000    0.000    0.000    0.000 
#    0.000    0.000    0.000    0.000    0.000    0.000 
#
# Total GULP energy -446205.439860 kJ/mol
# GULP energy per Si atom -12394.595552 kJ/mol
# Density = 2.153739 g / cm^3
# Si number density = 21.586522 Si / 1000 Ang^3
#
#
#
# Elastic Constant Matrix: (Units=GPa)
#
#
# Indices 1 2 3 4 5 6 
#
# 1 183.2796 30.4180 63.7761 -0.0057 -0.0020 0.0010
# 2 30.4180 82.5289 35.2245 0.0078 0.0013 -0.0025
# 3 63.7761 35.2245 128.2642 0.0160 0.0045 -0.0077
# 4 -0.0057 0.0078 0.0160 26.8737 -0.0001 -0.0039
# 5 -0.0020 0.0013 0.0045 -0.0001 46.9635 -0.0012
# 6 0.0010 -0.0025 -0.0077 -0.0039 -0.0012 27.9249
#
#
#
# Elastic Compliance Matrix: (Units=1/GPa)
#
#
# Indices 1 2 3 4 5 6 
#
# 1 0.006699 -0.001186 -0.003005 0.000004 0.000001 -0.000001
# 2 -0.001186 0.013936 -0.003237 -0.000002 0.000000 0.000000
# 3 -0.003005 -0.003237 0.010180 -0.000006 -0.000001 0.000003
# 4 0.000004 -0.000002 -0.000006 0.037211 0.000000 0.000005
# 5 0.000001 0.000000 -0.000001 0.000000 0.021293 0.000001
# 6 -0.000001 0.000000 0.000003 0.000005 0.000001 0.035810
#
#
# Mechanical properties :
#
#
# Convention : Reuss Voigt Hill
#
# Bulk Modulus (GPa) = 62.66832 72.54554 67.60693
# Shear Modulus (GPa) = 34.41042 37.99604 36.20323
#
# Velocity S-wave (km/s) = 3.99691 4.19999 4.09971
# Velocity P-wave (km/s) = 7.09892 7.56305 7.33466
#
# Compressibility (1/GPa) = 0.01595702
#
# Stress axis : x y z
#
# Youngs Moduli (GPa) = 149.28315 71.75690 98.23610
#
# Poissons Ratio (x) = 0.08513 0.29519
# Poissons Ratio (y) = 0.17711 0.31801
# Poissons Ratio (z) = 0.44859 0.23229
#
# Static dielectric constant tensor:
#      x y z
#    x 4.056670 0.000010 0.000040 
#    y 0.000010 4.015700 0.000000 
#    z 0.000040 0.000000 3.987180 
# 
# 
# High freq. dielectric constant tensor:
#      x y z
#    x 1.867080 0.000000 0.000000 
#    y 0.000000 1.844430 0.000000 
#    z 0.000000 0.000000 1.848440 
# 
# From -- ./inp_files/9212.got.cif
#   From: 2010.03.12/outbox.cif.g09.slc.cpg/sg74_5_cif.got.tgz:9212.got - 2010.04.16 15:46:19.
