data_PCOD8301928
_publ_section_title
;
Structure prediction by ZEFSAII (Michael W. Deem and Ramdas Pophale) SiO2 
 PCOD8301928
Probable space group: P 41
;
_chemical_formula_sum "Si O2"
_cell_formula_units_Z 12
_cell_length_a 9.285804
_cell_length_b 9.285804
_cell_length_c 4.924241
_cell_angle_alpha 90.000000
_cell_angle_beta 90.000000
_cell_angle_gamma 90.000000
_cell_volume 424.598372
_symmetry_space_group_name_H-M "P 41"
_symmetry_group_IT_number 76
_symmetry_cell_setting 'tetragonal'
loop_
_space_group_symop_operation_xyz
x,y,z
-y,x,1/4+z
-x,-y,1/2+z
y,-x,3/4+z
loop_
_atom_site_type_symbol
_atom_site_label
_atom_site_fract_x
_atom_site_fract_y
_atom_site_fract_z
Si Si1 0.955694 0.411252 0.054260
Si Si2 0.172669 0.884945 0.058248
Si Si3 0.684677 0.381455 0.417615
O O1 0.793427 0.389692 0.162478
O O2 0.042952 0.520199 0.255457
O O3 0.040676 0.256907 0.050867
O O4 0.259704 0.739251 0.136466
O O5 0.009026 0.831397 0.029896
O O6 0.671965 0.532013 0.563310
#
# Coordination Sequence:
#
# PCOD8301928 Si02
#       3
#     4   4   4
#     4  11  25  50  77 112 154 206 252 322 380 460
#     4  10  24  48  72 112 149 205 260 321 385 459
#     4  11  25  46  75 118 155 207 256 321 387 467
#
# _framework density 28.262001000000001
#
# number of rings (size 3 to 8) (size 9 to 14) (size 15 to 20)
#    0.000    1.333    3.333    0.000    4.667    5.333 
#    6.000    0.000    0.000    0.000    0.000    0.000 
#    0.000    0.000    0.000    0.000    0.000    0.000 
#
# Total GULP energy -148684.511823 kJ/mol
# GULP energy per Si atom -12390.375985 kJ/mol
# Density = 2.819768 g / cm^3
# Si number density = 28.262001 Si / 1000 Ang^3
#
#
#
# Elastic Constant Matrix: (Units=GPa)
#
#
# Indices 1 2 3 4 5 6 
#
# 1 235.2068 63.5576 11.0417 0.0000 0.0000 14.2090
# 2 63.5576 235.2068 11.0417 0.0000 0.0000 -14.2090
# 3 11.0417 11.0417 35.2732 0.0000 0.0000 0.0000
# 4 0.0000 0.0000 0.0000 7.4771 0.0000 0.0000
# 5 0.0000 0.0000 0.0000 0.0000 7.4771 0.0000
# 6 14.2090 -14.2090 0.0000 0.0000 0.0000 63.6107
#
#
#
# Elastic Compliance Matrix: (Units=1/GPa)
#
#
# Indices 1 2 3 4 5 6 
#
# 1 0.004738 -0.001312 -0.001073 0.000000 0.000000 -0.001351
# 2 -0.001312 0.004738 -0.001073 0.000000 0.000000 0.001351
# 3 -0.001073 -0.001073 0.029022 0.000000 0.000000 0.000000
# 4 0.000000 0.000000 0.000000 0.133742 0.000000 0.000000
# 5 0.000000 0.000000 0.000000 0.000000 0.133742 0.000000
# 6 -0.001351 0.001351 0.000000 0.000000 0.000000 0.016324
#
#
# Mechanical properties :
#
#
# Convention : Reuss Voigt Hill
#
# Bulk Modulus (GPa) = 31.66147 75.21873 53.44010
# Shear Modulus (GPa) = 14.71683 43.71603 29.21643
#
# Velocity S-wave (km/s) = 2.28442 3.93722 3.21872
# Velocity P-wave (km/s) = 4.26442 6.88052 5.72393
#
# Compressibility (1/GPa) = 0.03158413
#
# Stress axis : x y z
#
# Youngs Moduli (GPa) = 211.06041 211.06041 34.45707
#
# Poissons Ratio (x) = 0.27682 0.03696
# Poissons Ratio (y) = 0.27682 0.03696
# Poissons Ratio (z) = 0.22638 0.22638
#
# Static dielectric constant tensor:
#      x y z
#    x 6.030370 0.000000 0.000000 
#    y 0.000000 6.030370 0.000000 
#    z 0.000000 0.000000 4.331070 
# 
# 
# High freq. dielectric constant tensor:
#      x y z
#    x 2.179400 0.000000 0.000000 
#    y 0.000000 2.179400 0.000000 
#    z 0.000000 0.000000 2.085160 
# 
# From -- ./inp_files/28.got.cif
#   From: 2010.03.12/outbox.cif.g09.slc.cpg/sg76_cif.got.tgz:28.got - 2010.04.16 16:34:25.
