data_PCOD8301139
_publ_section_title
;
Structure prediction by ZEFSAII (Michael W. Deem and Ramdas Pophale) SiO2 
 PCOD8301139
Probable space group: I M M A
;
_chemical_formula_sum "Si O2"
_cell_formula_units_Z 96
_cell_length_a 22.828786
_cell_length_b 17.138488
_cell_length_c 12.050116
_cell_angle_alpha 90.000000
_cell_angle_beta 90.000000
_cell_angle_gamma 90.000000
_cell_volume 4714.618428
_symmetry_space_group_name_H-M "I M M A"
_symmetry_group_IT_number 74
_symmetry_cell_setting 'orthorhombic'
loop_
_space_group_symop_operation_xyz
x,y,z
-x,1/2-y,z
x,-y,-z
-x,1/2+y,-z
-x,-y,-z
x,1/2+y,-z
-x,y,z
x,1/2-y,z
1/2+x,1/2+y,1/2+z
1/2-x,-y,1/2+z
1/2+x,1/2-y,1/2-z
1/2-x,y,1/2-z
1/2-x,1/2-y,1/2-z
1/2+x,y,1/2-z
1/2-x,1/2+y,1/2+z
1/2+x,-y,1/2+z
loop_
_atom_site_type_symbol
_atom_site_label
_atom_site_fract_x
_atom_site_fract_y
_atom_site_fract_z
Si Si1 0.123587 0.838648 0.635418
Si Si2 0.693724 0.067939 0.314968
Si Si3 0.500000 0.160251 0.233565
Si Si4 0.795119 0.338422 0.966211
Si Si5 0.378707 0.920673 0.315949
Si Si6 0.000000 0.502028 0.132207
Si Si7 0.667453 0.340913 0.898306
O O1 0.144684 0.750000 0.641325
O O2 0.153184 0.880993 0.737254
O O3 0.054375 0.848606 0.650926
O O4 0.143242 0.872009 0.516403
O O5 0.750000 0.038470 0.250000
O O6 0.713419 0.113839 0.422564
O O7 0.659078 0.993472 0.355669
O O8 0.500000 0.250000 0.286930
O O9 0.500000 0.088409 0.323272
O O10 0.796852 0.250000 0.005361
O O11 0.856059 0.354337 0.901134
O O12 0.737680 0.353702 0.889700
O O13 0.365960 0.893628 0.191105
O O14 0.445917 0.945647 0.325941
O O15 0.000000 0.500000 0.000000
O O16 0.651494 0.250000 0.878913
#
# Coordination Sequence:
#
# PCOD8301139 Si02
#       7
#    16  16   8  16  16   8  16
#     4  10  21  39  65  97 129 167 215 264 314 381
#     4  12  22  37  63  98 131 161 209 272 331 383
#     4  10  22  45  71  95 127 171 217 263 321 382
#     4  11  23  41  66  93 129 175 217 265 325 390
#     4  12  26  42  63  93 129 172 216 265 329 390
#     4  12  26  49  65  91 133 171 216 277 323 380
#     4  10  22  43  67  94 133 172 214 266 323 398
#
# _framework density 20.362200000000001
#
# number of rings (size 3 to 8) (size 9 to 14) (size 15 to 20)
#    0.000    1.000    3.333    4.000    0.000    3.333 
#    0.000    4.167    0.000    0.000    0.000    0.000 
#    0.000    0.000    0.000    0.000    0.000    0.000 
#
# Total GULP energy -595139.865204 kJ/mol
# GULP energy per Si atom -12398.747192 kJ/mol
# Density = 2.031585 g / cm^3
# Si number density = 20.362200 Si / 1000 Ang^3
#
#
#
# Elastic Constant Matrix: (Units=GPa)
#
#
# Indices 1 2 3 4 5 6 
#
# 1 134.2663 42.1396 26.9602 0.0000 0.0000 0.0000
# 2 42.1396 83.0137 41.9711 0.0000 0.0000 0.0000
# 3 26.9602 41.9711 96.4317 0.0000 0.0000 0.0000
# 4 0.0000 0.0000 0.0000 40.3083 0.0000 0.0000
# 5 0.0000 0.0000 0.0000 0.0000 30.0591 0.0000
# 6 0.0000 0.0000 0.0000 0.0000 0.0000 33.6951
#
#
#
# Elastic Compliance Matrix: (Units=1/GPa)
#
#
# Indices 1 2 3 4 5 6 
#
# 1 0.008893 -0.004176 -0.000669 0.000000 0.000000 0.000000
# 2 -0.004176 0.017406 -0.006408 0.000000 0.000000 0.000000
# 3 -0.000669 -0.006408 0.013346 0.000000 0.000000 0.000000
# 4 0.000000 0.000000 0.000000 0.024809 0.000000 0.000000
# 5 0.000000 0.000000 0.000000 0.000000 0.033268 0.000000
# 6 0.000000 0.000000 0.000000 0.000000 0.000000 0.029678
#
#
# Mechanical properties :
#
#
# Convention : Reuss Voigt Hill
#
# Bulk Modulus (GPa) = 58.34671 59.53929 58.94300
# Shear Modulus (GPa) = 32.12984 34.32189 33.22586
#
# Velocity S-wave (km/s) = 3.97661 4.11002 4.04387
# Velocity P-wave (km/s) = 7.05700 7.19907 7.12839
#
# Compressibility (1/GPa) = 0.01713893
#
# Stress axis : x y z
#
# Youngs Moduli (GPa) = 112.45016 57.45115 74.92809
#
# Poissons Ratio (x) = 0.23992 0.05010
# Poissons Ratio (y) = 0.46961 0.48016
# Poissons Ratio (z) = 0.07518 0.36816
#
# Static dielectric constant tensor:
#      x y z
#    x 4.087110 0.000000 0.000000 
#    y 0.000000 3.995330 0.000000 
#    z 0.000000 0.000000 3.677440 
# 
# 
# High freq. dielectric constant tensor:
#      x y z
#    x 1.799900 0.000000 0.000000 
#    y 0.000000 1.803100 0.000000 
#    z 0.000000 0.000000 1.798990 
# 
# From -- ./inp_files/25228.got.cif
#   From: 2010.03.12/outbox.cif.g09.slc.cpg/sg74_13_cif.got.tgz:25228.got - 2010.04.16 15:46:19.
