data_PCOD8301707
_publ_section_title
;
Structure prediction by ZEFSAII (Michael W. Deem and Ramdas Pophale) SiO2 
 PCOD8301707
Probable space group: I M M A
;
_chemical_formula_sum "Si O2"
_cell_formula_units_Z 72
_cell_length_a 14.259943
_cell_length_b 25.340207
_cell_length_c 9.366969
_cell_angle_alpha 90.000000
_cell_angle_beta 90.000000
_cell_angle_gamma 90.000000
_cell_volume 3384.753381
_symmetry_space_group_name_H-M "I M M A"
_symmetry_group_IT_number 74
_symmetry_cell_setting 'orthorhombic'
loop_
_space_group_symop_operation_xyz
x,y,z
-x,1/2-y,z
x,-y,-z
-x,1/2+y,-z
-x,-y,-z
x,1/2+y,-z
-x,y,z
x,1/2-y,z
1/2+x,1/2+y,1/2+z
1/2-x,-y,1/2+z
1/2+x,1/2-y,1/2-z
1/2-x,y,1/2-z
1/2-x,1/2-y,1/2-z
1/2+x,y,1/2-z
1/2-x,1/2+y,1/2+z
1/2+x,-y,1/2+z
loop_
_atom_site_type_symbol
_atom_site_label
_atom_site_fract_x
_atom_site_fract_y
_atom_site_fract_z
Si Si1 0.158097 0.521906 0.342393
Si Si2 0.000000 0.027886 0.152649
Si Si3 0.296885 0.691651 0.598451
Si Si4 0.325091 0.359509 0.870246
Si Si5 0.500000 0.809796 0.247923
Si Si6 0.500000 0.352255 0.444512
O O1 0.173952 0.500000 0.500000
O O2 0.250000 0.519322 0.250000
O O3 0.128019 0.582652 0.362711
O O4 0.086724 0.487550 0.251173
O O5 0.000000 0.089230 0.117579
O O6 0.000000 0.000000 0.000000
O O7 0.293759 0.750000 0.526513
O O8 0.250000 0.694548 0.750000
O O9 0.232976 0.649662 0.514633
O O10 0.405562 0.675098 0.612213
O O11 0.250000 0.349345 0.750000
O O12 0.409386 0.318336 0.851185
O O13 0.500000 0.750000 0.305656
O O14 0.500000 0.850073 0.382426
#
# Coordination Sequence:
#
# PCOD8301707 Si02
#       6
#    16   8  16  16   8   8
#     4  11  26  44  71 100 140 182 233 290 352 422
#     4  12  27  44  68 100 142 182 236 290 346 419
#     4  11  26  46  70 103 143 182 231 289 355 426
#     4  11  24  42  71 101 136 180 232 287 348 419
#     4  12  24  42  71 104 141 181 236 294 351 421
#     4  12  26  42  74 100 137 185 231 285 354 415
#
# _framework density 21.27186
#
# number of rings (size 3 to 8) (size 9 to 14) (size 15 to 20)
#    0.000    0.667    2.222    4.667    9.333    1.778 
#    0.000    1.111    0.000    0.000    0.000    0.000 
#    0.000    0.000    0.000    0.000    0.000    0.000 
#
# Total GULP energy -446346.687386 kJ/mol
# GULP energy per Si atom -12398.519094 kJ/mol
# Density = 2.122344 g / cm^3
# Si number density = 21.271860 Si / 1000 Ang^3
#
#
#
# Elastic Constant Matrix: (Units=GPa)
#
#
# Indices 1 2 3 4 5 6 
#
# 1 104.6029 66.7261 31.4567 -0.0021 0.0003 -0.0004
# 2 66.7261 138.4133 55.0945 -0.0001 0.0001 0.0005
# 3 31.4567 55.0945 115.4886 -0.0022 0.0054 0.0025
# 4 -0.0021 -0.0001 -0.0022 38.8090 0.0016 0.0015
# 5 0.0003 0.0001 0.0054 0.0016 51.2118 0.0007
# 6 -0.0004 0.0005 0.0025 0.0015 0.0007 41.2223
#
#
#
# Elastic Compliance Matrix: (Units=1/GPa)
#
#
# Indices 1 2 3 4 5 6 
#
# 1 0.013854 -0.006390 -0.000725 0.000001 0.000000 0.000000
# 2 -0.006390 0.011866 -0.003920 -0.000001 0.000000 0.000000
# 3 -0.000725 -0.003920 0.010726 0.000001 -0.000001 -0.000001
# 4 0.000001 -0.000001 0.000001 0.025767 -0.000001 -0.000001
# 5 0.000000 0.000000 -0.000001 -0.000001 0.019527 0.000000
# 6 0.000000 0.000000 -0.000001 -0.000001 0.000000 0.024259
#
#
# Mechanical properties :
#
#
# Convention : Reuss Voigt Hill
#
# Bulk Modulus (GPa) = 69.56195 73.89548 71.72872
# Shear Modulus (GPa) = 37.63306 39.93046 38.78176
#
# Velocity S-wave (km/s) = 4.21069 4.33731 4.27447
# Velocity P-wave (km/s) = 7.51081 7.73932 7.62592
#
# Compressibility (1/GPa) = 0.01437568
#
# Stress axis : x y z
#
# Youngs Moduli (GPa) = 72.17940 84.27664 93.22755
#
# Poissons Ratio (x) = 0.53855 0.06760
# Poissons Ratio (y) = 0.46125 0.36545
# Poissons Ratio (z) = 0.05234 0.33037
#
# Static dielectric constant tensor:
#      x y z
#    x 3.348270 0.000010 0.000000 
#    y 0.000010 4.227600 0.000000 
#    z 0.000000 0.000000 3.734650 
# 
# 
# High freq. dielectric constant tensor:
#      x y z
#    x 1.852440 0.000000 0.000000 
#    y 0.000000 1.845810 0.000000 
#    z 0.000000 0.000000 1.837080 
# 
# From -- ./inp_files/9188.got.cif
#   From: 2010.03.12/outbox.cif.g09.slc.cpg/sg74_5_cif.got.tgz:9188.got - 2010.04.16 15:46:19.
