data_PCOD8301298
_publ_section_title
;
Structure prediction by ZEFSAII (Michael W. Deem and Ramdas Pophale) SiO2 
 PCOD8301298
Probable space group: I M M A
;
_chemical_formula_sum "Si O2"
_cell_formula_units_Z 56
_cell_length_a 11.334495
_cell_length_b 23.702669
_cell_length_c 8.978107
_cell_angle_alpha 90.000000
_cell_angle_beta 90.000000
_cell_angle_gamma 90.000000
_cell_volume 2412.038325
_symmetry_space_group_name_H-M "I M M A"
_symmetry_group_IT_number 74
_symmetry_cell_setting 'orthorhombic'
loop_
_space_group_symop_operation_xyz
x,y,z
-x,1/2-y,z
x,-y,-z
-x,1/2+y,-z
-x,-y,-z
x,1/2+y,-z
-x,y,z
x,1/2-y,z
1/2+x,1/2+y,1/2+z
1/2-x,-y,1/2+z
1/2+x,1/2-y,1/2-z
1/2-x,y,1/2-z
1/2-x,1/2-y,1/2-z
1/2+x,y,1/2-z
1/2-x,1/2+y,1/2+z
1/2+x,-y,1/2+z
loop_
_atom_site_type_symbol
_atom_site_label
_atom_site_fract_x
_atom_site_fract_y
_atom_site_fract_z
Si Si1 0.183193 0.000000 0.000000
Si Si2 0.759227 0.880571 0.577131
Si Si3 0.500000 0.594652 0.987334
Si Si4 0.866425 0.183749 0.842391
Si Si5 0.500000 0.005151 0.756225
O O1 0.111731 0.988662 0.149781
O O2 0.264461 0.053241 0.034753
O O3 0.750000 0.868551 0.750000
O O4 0.650951 0.847739 0.500184
O O5 0.888676 0.862241 0.518344
O O6 0.500000 0.555057 0.838747
O O7 0.500000 0.558076 0.135857
O O8 0.860704 0.250000 0.869947
O O9 0.750000 0.164076 0.750000
O O10 0.000000 0.167714 0.781148
#
# Coordination Sequence:
#
# PCOD8301298 Si02
#       5
#     8  16   8  16   8
#     4  11  24  39  60  98 136 185 229 282 344 402
#     4  12  27  41  66  98 141 182 231 283 340 411
#     4  11  24  40  59 100 134 182 234 280 339 409
#     4  10  26  51  77 103 133 176 231 289 351 416
#     4  10  22  40  62  86 142 186 231 281 335 409
#
# _framework density 23.216878000000001
#
# number of rings (size 3 to 8) (size 9 to 14) (size 15 to 20)
#    0.000    1.143    2.857    1.714   12.000    0.571 
#    0.000    0.000    0.000    0.000    0.000    0.000 
#    0.000    0.000    0.000    0.000    0.000    0.000 
#
# Total GULP energy -347021.206073 kJ/mol
# GULP energy per Si atom -12393.614503 kJ/mol
# Density = 2.316403 g / cm^3
# Si number density = 23.216878 Si / 1000 Ang^3
#
#
#
# Elastic Constant Matrix: (Units=GPa)
#
#
# Indices 1 2 3 4 5 6 
#
# 1 193.7616 23.6969 56.1294 -0.0001 0.0004 0.0000
# 2 23.6969 25.2027 12.1516 0.0001 -0.0005 0.0000
# 3 56.1294 12.1516 121.6555 -0.0004 0.0043 0.0001
# 4 -0.0001 0.0001 -0.0004 5.2455 -0.0002 0.0000
# 5 0.0004 -0.0005 0.0043 -0.0002 222.1429 -0.0006
# 6 0.0000 0.0000 0.0001 0.0000 -0.0006 33.3250
#
#
#
# Elastic Compliance Matrix: (Units=1/GPa)
#
#
# Indices 1 2 3 4 5 6 
#
# 1 0.006484 -0.004890 -0.002503 0.000000 0.000000 0.000000
# 2 -0.004890 0.045373 -0.002276 -0.000001 0.000000 0.000000
# 3 -0.002503 -0.002276 0.009602 0.000001 0.000000 0.000000
# 4 0.000000 -0.000001 0.000001 0.190638 0.000000 0.000000
# 5 0.000000 0.000000 0.000000 0.000000 0.004502 0.000000
# 6 0.000000 0.000000 0.000000 0.000000 0.000000 0.030007
#
#
# Mechanical properties :
#
#
# Convention : Reuss Voigt Hill
#
# Bulk Modulus (GPa) = 23.74085 58.28618 41.01352
# Shear Modulus (GPa) = 15.62570 68.71881 42.17226
#
# Velocity S-wave (km/s) = 2.59710 5.44637 4.26660
# Velocity P-wave (km/s) = 4.38647 8.04426 6.47886
#
# Compressibility (1/GPa) = 0.04212149
#
# Stress axis : x y z
#
# Youngs Moduli (GPa) = 154.22244 22.03937 104.14252
#
# Poissons Ratio (x) = 0.10777 0.26069
# Poissons Ratio (y) = 0.75411 0.23704
# Poissons Ratio (z) = 0.38605 0.05016
#
# Static dielectric constant tensor:
#      x y z
#    x 4.977270 0.000000 0.000000 
#    y 0.000000 3.811570 0.000000 
#    z 0.000000 0.000000 4.239910 
# 
# 
# High freq. dielectric constant tensor:
#      x y z
#    x 1.949390 0.000000 0.000000 
#    y 0.000000 1.881470 0.000000 
#    z 0.000000 0.000000 1.927320 
# 
# From -- ./inp_files/7137.got.cif
#   From: 2010.03.12/outbox.cif.g09.slc.cpg/sg74_4_cif.got.tgz:7137.got - 2010.04.16 15:46:19.
