data_PCOD8301212
_publ_section_title
;
Structure prediction by ZEFSAII (Michael W. Deem and Ramdas Pophale) SiO2 
 PCOD8301212
Probable space group: I M M A
;
_chemical_formula_sum "Si O2"
_cell_formula_units_Z 104
_cell_length_a 18.587413
_cell_length_b 26.706146
_cell_length_c 9.931927
_cell_angle_alpha 90.000000
_cell_angle_beta 90.000000
_cell_angle_gamma 90.000000
_cell_volume 4930.190341
_symmetry_space_group_name_H-M "I M M A"
_symmetry_group_IT_number 74
_symmetry_cell_setting 'orthorhombic'
loop_
_space_group_symop_operation_xyz
x,y,z
-x,1/2-y,z
x,-y,-z
-x,1/2+y,-z
-x,-y,-z
x,1/2+y,-z
-x,y,z
x,1/2-y,z
1/2+x,1/2+y,1/2+z
1/2-x,-y,1/2+z
1/2+x,1/2-y,1/2-z
1/2-x,y,1/2-z
1/2-x,1/2-y,1/2-z
1/2+x,y,1/2-z
1/2-x,1/2+y,1/2+z
1/2+x,-y,1/2+z
loop_
_atom_site_type_symbol
_atom_site_label
_atom_site_fract_x
_atom_site_fract_y
_atom_site_fract_z
Si Si1 0.914642 0.250000 0.906639
Si Si2 0.418570 0.492126 0.146154
Si Si3 0.414949 0.883543 0.810256
Si Si4 0.805694 0.853240 0.466931
Si Si5 0.641429 0.647614 0.535573
Si Si6 0.750000 0.080174 0.750000
Si Si7 0.373726 0.454776 0.600862
Si Si8 0.679053 0.750000 0.160697
O O1 0.892992 0.250000 0.750508
O O2 0.000000 0.250000 0.924258
O O3 0.880925 0.300144 0.969726
O O4 0.500000 0.483557 0.106830
O O5 0.392570 0.441173 0.218976
O O6 0.411799 0.536970 0.254048
O O7 0.378469 0.500000 0.000000
O O8 0.500000 0.874972 0.832446
O O9 0.387445 0.850106 0.687085
O O10 0.372363 0.869799 0.944018
O O11 0.727523 0.859312 0.536756
O O12 0.807260 0.884388 0.326977
O O13 0.821043 0.796132 0.438347
O O14 0.604697 0.599493 0.460098
O O15 0.710998 0.045351 0.639286
O O16 0.392640 0.500000 0.500000
O O17 0.750000 0.750000 0.250000
#
# Coordination Sequence:
#
# PCOD8301212 Si02
#       8
#     8  16  16  16  16   8  16   8
#     4  12  26  43  71 103 135 175 224 291 349 400
#     4  10  22  40  61  89 132 182 224 277 349 414
#     4  11  24  41  63  96 139 177 224 288 345 416
#     4  11  22  41  69  94 129 181 229 276 344 413
#     4  11  23  44  67  98 136 182 230 285 348 413
#     4  10  22  37  60  94 130 165 216 288 338 396
#     4  11  22  39  64  96 127 178 229 279 337 409
#     4  12  20  45  71  94 129 174 233 283 335 413
#
# _framework density 21.094519999999999
#
# number of rings (size 3 to 8) (size 9 to 14) (size 15 to 20)
#    0.000    1.077    3.846    2.769    0.000    5.846 
#    0.000    3.846    0.000    0.000    0.000    0.000 
#    0.000    0.000    0.000    0.000    0.000    0.000 
#
# Total GULP energy -644467.628220 kJ/mol
# GULP energy per Si atom -12393.608235 kJ/mol
# Density = 2.104651 g / cm^3
# Si number density = 21.094520 Si / 1000 Ang^3
#
#
#
# Elastic Constant Matrix: (Units=GPa)
#
#
# Indices 1 2 3 4 5 6 
#
# 1 90.9041 26.4986 32.3898 0.0000 0.0000 0.0000
# 2 26.4986 125.7197 46.9192 0.0000 0.0000 0.0000
# 3 32.3898 46.9192 126.4438 0.0000 0.0000 0.0000
# 4 0.0000 0.0000 0.0000 25.7973 0.0000 0.0000
# 5 0.0000 0.0000 0.0000 0.0000 35.5686 0.0000
# 6 0.0000 0.0000 0.0000 0.0000 0.0000 19.1934
#
#
#
# Elastic Compliance Matrix: (Units=1/GPa)
#
#
# Indices 1 2 3 4 5 6 
#
# 1 0.012396 -0.001657 -0.002560 0.000000 0.000000 0.000000
# 2 -0.001657 0.009454 -0.003084 0.000000 0.000000 0.000000
# 3 -0.002560 -0.003084 0.009709 0.000000 0.000000 0.000000
# 4 0.000000 0.000000 0.000000 0.038764 0.000000 0.000000
# 5 0.000000 0.000000 0.000000 0.000000 0.028115 0.000000
# 6 0.000000 0.000000 0.000000 0.000000 0.000000 0.052101
#
#
# Mechanical properties :
#
#
# Convention : Reuss Voigt Hill
#
# Bulk Modulus (GPa) = 58.97449 61.63142 60.30295
# Shear Modulus (GPa) = 29.27507 31.92917 30.60212
#
# Velocity S-wave (km/s) = 3.72937 3.89475 3.81296
# Velocity P-wave (km/s) = 6.82365 7.03603 6.93065
#
# Compressibility (1/GPa) = 0.01695649
#
# Stress axis : x y z
#
# Youngs Moduli (GPa) = 80.67138 105.77137 102.99946
#
# Poissons Ratio (x) = 0.17528 0.26372
# Poissons Ratio (y) = 0.13369 0.31762
# Poissons Ratio (z) = 0.20655 0.32617
#
# Static dielectric constant tensor:
#      x y z
#    x 3.710170 0.000000 0.000000 
#    y 0.000000 3.858500 0.000000 
#    z 0.000000 0.000000 3.819600 
# 
# 
# High freq. dielectric constant tensor:
#      x y z
#    x 1.812260 0.000000 0.000000 
#    y 0.000000 1.833690 0.000000 
#    z 0.000000 0.000000 1.835800 
# 
# From -- ./inp_files/12946.got.cif
#   From: 2010.03.12/outbox.cif.g09.slc.cpg/sg74_7_cif.got.tgz:12946.got - 2010.04.16 15:46:19.
