data_PCOD8301849
_publ_section_title
;
Structure prediction by ZEFSAII (Michael W. Deem and Ramdas Pophale) SiO2 
 PCOD8301849
Probable space group: P 41
;
_chemical_formula_sum "Si O2"
_cell_formula_units_Z 32
_cell_length_a 13.415581
_cell_length_b 13.415581
_cell_length_c 9.444321
_cell_angle_alpha 90.000000
_cell_angle_beta 90.000000
_cell_angle_gamma 90.000000
_cell_volume 1699.768244
_symmetry_space_group_name_H-M "P 41"
_symmetry_group_IT_number 76
_symmetry_cell_setting 'tetragonal'
loop_
_space_group_symop_operation_xyz
x,y,z
-y,x,1/4+z
-x,-y,1/2+z
y,-x,3/4+z
loop_
_atom_site_type_symbol
_atom_site_label
_atom_site_fract_x
_atom_site_fract_y
_atom_site_fract_z
Si Si1 0.265415 0.634750 0.597530
Si Si2 0.486812 0.176887 0.090835
Si Si3 0.731778 0.010158 0.392581
Si Si4 0.673140 0.057455 0.978088
Si Si5 0.096021 0.600705 0.418915
Si Si6 0.480654 0.603986 0.668050
Si Si7 0.978950 0.614063 0.919172
Si Si8 0.839764 0.808450 0.423822
O O1 0.201892 0.556306 0.687564
O O2 0.210509 0.635366 0.444315
O O3 0.378488 0.600388 0.577891
O O4 0.259816 0.740916 0.675043
O O5 0.594275 0.129825 0.058033
O O6 0.488044 0.279497 0.183136
O O7 0.417542 0.095910 0.171266
O O8 0.786558 0.102992 0.319598
O O9 0.638244 0.972442 0.300107
O O10 0.689486 0.045491 0.542792
O O11 0.813924 0.924376 0.413558
O O12 0.780464 0.093472 0.035682
O O13 0.652489 0.943693 0.026400
O O14 0.671046 0.056347 0.809826
O O15 0.090308 0.482293 0.403018
O O16 0.461348 0.559487 0.825825
#
# Coordination Sequence:
#
# PCOD8301849 Si02
#       8
#     4   4   4   4   4   4   4   4
#     4  10  17  36  61  78 115 160 193 222 295 351
#     4  10  18  34  59  82 113 154 184 236 306 338
#     4  10  21  38  62  81 119 153 198 236 291 363
#     4  10  19  31  56  90 117 141 191 245 293 345
#     4   9  17  32  54  87 116 148 185 238 301 340
#     4  10  22  39  60  81 118 168 205 229 279 362
#     4  11  18  33  57  93 114 139 194 260 288 328
#     4  10  20  39  59  84 110 165 192 226 297 359
#
# _framework density 18.826094999999999
#
# number of rings (size 3 to 8) (size 9 to 14) (size 15 to 20)
#    0.000    2.000    5.000    0.750    0.000    0.000 
#    2.250    6.250    0.000    0.000    0.000    0.000 
#    0.000    0.000    0.000    0.000    0.000    0.000 
#
# Total GULP energy -396638.293798 kJ/mol
# GULP energy per Si atom -12394.946681 kJ/mol
# Density = 1.878325 g / cm^3
# Si number density = 18.826095 Si / 1000 Ang^3
#
#
#
# Elastic Constant Matrix: (Units=GPa)
#
#
# Indices 1 2 3 4 5 6 
#
# 1 78.3013 37.9557 35.0121 0.0000 0.0000 -1.9532
# 2 37.9557 78.3013 35.0121 0.0000 0.0000 1.9532
# 3 35.0121 35.0121 84.8635 0.0000 0.0000 0.0000
# 4 0.0000 0.0000 0.0000 26.4609 0.0000 0.0000
# 5 0.0000 0.0000 0.0000 0.0000 26.4609 0.0000
# 6 -1.9532 1.9532 0.0000 0.0000 0.0000 26.6722
#
#
#
# Elastic Compliance Matrix: (Units=1/GPa)
#
#
# Indices 1 2 3 4 5 6 
#
# 1 0.018204 -0.006758 -0.004722 0.000000 0.000000 0.001828
# 2 -0.006758 0.018204 -0.004722 0.000000 0.000000 -0.001828
# 3 -0.004722 -0.004722 0.015680 0.000000 0.000000 0.000000
# 4 0.000000 0.000000 0.000000 0.037792 0.000000 0.000000
# 5 0.000000 0.000000 0.000000 0.000000 0.037792 0.000000
# 6 0.001828 -0.001828 0.000000 0.000000 0.000000 0.037760
#
#
# Mechanical properties :
#
#
# Convention : Reuss Voigt Hill
#
# Bulk Modulus (GPa) = 50.80515 50.82509 50.81512
# Shear Modulus (GPa) = 24.46195 24.81788 24.63992
#
# Velocity S-wave (km/s) = 3.60858 3.63474 3.62168
# Velocity P-wave (km/s) = 6.66390 6.68363 6.67377
#
# Compressibility (1/GPa) = 0.01968304
#
# Stress axis : x y z
#
# Youngs Moduli (GPa) = 54.93174 54.93174 63.77496
#
# Poissons Ratio (x) = 0.37125 0.30116
# Poissons Ratio (y) = 0.37125 0.30116
# Poissons Ratio (z) = 0.25940 0.25940
#
# Static dielectric constant tensor:
#      x y z
#    x 3.502570 0.000000 0.000000 
#    y 0.000000 3.502570 0.000000 
#    z 0.000000 0.000000 3.327610 
# 
# 
# High freq. dielectric constant tensor:
#      x y z
#    x 1.724780 0.000000 0.000000 
#    y 0.000000 1.724780 0.000000 
#    z 0.000000 0.000000 1.708290 
# 
# From -- ./inp_files/697.got.cif
#   From: 2010.03.12/outbox.cif.g09.slc.cpg/sg76_cif.got.tgz:697.got - 2010.04.16 16:34:25.
