data_PCOD8301815
_publ_section_title
;
Structure prediction by ZEFSAII (Michael W. Deem and Ramdas Pophale) SiO2 
 PCOD8301815
Probable space group: I M M A
;
_chemical_formula_sum "Si O2"
_cell_formula_units_Z 64
_cell_length_a 9.602191
_cell_length_b 13.123986
_cell_length_c 29.239106
_cell_angle_alpha 90.000000
_cell_angle_beta 90.000000
_cell_angle_gamma 90.000000
_cell_volume 3684.683491
_symmetry_space_group_name_H-M "I M M A"
_symmetry_group_IT_number 74
_symmetry_cell_setting 'orthorhombic'
loop_
_space_group_symop_operation_xyz
x,y,z
-x,1/2-y,z
x,-y,-z
-x,1/2+y,-z
-x,-y,-z
x,1/2+y,-z
-x,y,z
x,1/2-y,z
1/2+x,1/2+y,1/2+z
1/2-x,-y,1/2+z
1/2+x,1/2-y,1/2-z
1/2-x,y,1/2-z
1/2-x,1/2-y,1/2-z
1/2+x,y,1/2-z
1/2-x,1/2+y,1/2+z
1/2+x,-y,1/2+z
loop_
_atom_site_type_symbol
_atom_site_label
_atom_site_fract_x
_atom_site_fract_y
_atom_site_fract_z
Si Si1 0.150426 0.921029 0.539838
Si Si2 0.652326 0.250000 0.461126
Si Si3 0.661945 0.445733 0.143077
Si Si4 0.159300 0.750000 0.852676
Si Si5 0.838511 0.865247 0.294737
O O1 0.268050 0.847615 0.520623
O O2 0.191586 0.966495 0.589368
O O3 0.000000 0.865590 0.545926
O O4 0.135028 0.000000 0.500000
O O5 0.500000 0.250000 0.482770
O O6 0.651883 0.250000 0.406841
O O7 0.500000 0.418728 0.152280
O O8 0.756320 0.351946 0.162410
O O9 0.704625 0.551397 0.167409
O O10 0.000000 0.750000 0.832713
O O11 0.807575 0.750000 0.312884
O O12 0.750000 0.889146 0.250000
O O13 0.000000 0.876246 0.281681
#
# Coordination Sequence:
#
# PCOD8301815 Si02
#       5
#    16   8  16   8  16
#     4   9  17  30  47  70  95 124 160 198 238 282
#     4   9  17  29  45  64  90 127 160 191 234 282
#     4   9  17  31  50  72  98 127 160 199 244 290
#     4   9  17  29  48  72  95 125 160 195 235 284
#     4   9  18  33  52  73  97 128 162 198 243 291
#
# _framework density 17.369198999999998
#
# number of rings (size 3 to 8) (size 9 to 14) (size 15 to 20)
#    0.000    3.000    0.000    0.750    0.000    4.500 
#    2.250    0.625    0.000    0.000    0.000    0.000 
#    0.000    0.000    0.000    0.000    0.000    0.000 
#
# Total GULP energy -396469.804448 kJ/mol
# GULP energy per Si atom -12389.681389 kJ/mol
# Density = 1.732967 g / cm^3
# Si number density = 17.369199 Si / 1000 Ang^3
#
#
#
# Elastic Constant Matrix: (Units=GPa)
#
#
# Indices 1 2 3 4 5 6 
#
# 1 106.2852 67.1124 35.9434 0.0000 0.0000 0.0000
# 2 67.1124 131.4448 56.7226 0.0000 0.0000 0.0000
# 3 35.9434 56.7226 65.0078 0.0000 0.0000 0.0000
# 4 0.0000 0.0000 0.0000 21.0743 0.0000 0.0000
# 5 0.0000 0.0000 0.0000 0.0000 19.4193 0.0000
# 6 0.0000 0.0000 0.0000 0.0000 0.0000 26.0849
#
#
#
# Elastic Compliance Matrix: (Units=1/GPa)
#
#
# Indices 1 2 3 4 5 6 
#
# 1 0.014121 -0.006160 -0.002433 0.000000 0.000000 0.000000
# 2 -0.006160 0.014890 -0.009586 0.000000 0.000000 0.000000
# 3 -0.002433 -0.009586 0.025092 0.000000 0.000000 0.000000
# 4 0.000000 0.000000 0.000000 0.047451 0.000000 0.000000
# 5 0.000000 0.000000 0.000000 0.000000 0.051495 0.000000
# 6 0.000000 0.000000 0.000000 0.000000 0.000000 0.038336
#
#
# Mechanical properties :
#
#
# Convention : Reuss Voigt Hill
#
# Bulk Modulus (GPa) = 56.35309 69.14383 62.74846
# Shear Modulus (GPa) = 21.39883 22.84633 22.12258
#
# Velocity S-wave (km/s) = 3.51379 3.63069 3.57272
# Velocity P-wave (km/s) = 6.99836 7.58094 7.29546
#
# Compressibility (1/GPa) = 0.01774526
#
# Stress axis : x y z
#
# Youngs Moduli (GPa) = 70.81648 67.16126 39.85334
#
# Poissons Ratio (x) = 0.41372 0.09695
# Poissons Ratio (y) = 0.43623 0.38203
# Poissons Ratio (z) = 0.17227 0.64380
#
# Static dielectric constant tensor:
#      x y z
#    x 3.640660 0.000000 0.000000 
#    y 0.000000 3.291250 0.000000 
#    z 0.000000 0.000000 2.927650 
# 
# 
# High freq. dielectric constant tensor:
#      x y z
#    x 1.679010 0.000000 0.000000 
#    y 0.000000 1.669770 0.000000 
#    z 0.000000 0.000000 1.639650 
# 
# From -- ./inp_files/56468.got.cif
#   From: 2010.03.12/outbox.cif.g09.slc.cpg/sg74_29_cif.got.tgz:56468.got - 2010.04.16 15:46:19.
