data_PCOD8301193
_publ_section_title
;
Structure prediction by ZEFSAII (Michael W. Deem and Ramdas Pophale) SiO2 
 PCOD8301193
Probable space group: I M M A
;
_chemical_formula_sum "Si O2"
_cell_formula_units_Z 112
_cell_length_a 18.973385
_cell_length_b 27.818632
_cell_length_c 12.442556
_cell_angle_alpha 90.000000
_cell_angle_beta 90.000000
_cell_angle_gamma 90.000000
_cell_volume 6567.350464
_symmetry_space_group_name_H-M "I M M A"
_symmetry_group_IT_number 74
_symmetry_cell_setting 'orthorhombic'
loop_
_space_group_symop_operation_xyz
x,y,z
-x,1/2-y,z
x,-y,-z
-x,1/2+y,-z
-x,-y,-z
x,1/2+y,-z
-x,y,z
x,1/2-y,z
1/2+x,1/2+y,1/2+z
1/2-x,-y,1/2+z
1/2+x,1/2-y,1/2-z
1/2-x,y,1/2-z
1/2-x,1/2-y,1/2-z
1/2+x,y,1/2-z
1/2-x,1/2+y,1/2+z
1/2+x,-y,1/2+z
loop_
_atom_site_type_symbol
_atom_site_label
_atom_site_fract_x
_atom_site_fract_y
_atom_site_fract_z
Si Si1 0.578945 0.603220 0.358586
Si Si2 0.175640 0.401999 0.476056
Si Si3 0.669581 0.544700 0.768444
Si Si4 0.703530 0.195760 0.915662
Si Si5 0.645779 0.303027 0.682071
Si Si6 0.672829 0.944918 0.529209
Si Si7 0.584627 0.546419 0.151330
O O1 0.500000 0.586634 0.375059
O O2 0.584986 0.660644 0.352690
O O3 0.618963 0.584993 0.460980
O O4 0.607956 0.581152 0.248012
O O5 0.163615 0.409519 0.348402
O O6 0.176461 0.344768 0.500816
O O7 0.250242 0.426114 0.501872
O O8 0.115558 0.430119 0.542952
O O9 0.750000 0.525736 0.750000
O O10 0.645425 0.562196 0.651280
O O11 0.620540 0.504344 0.822050
O O12 0.697158 0.250000 0.965271
O O13 0.656754 0.192999 0.809268
O O14 0.783527 0.184412 0.883048
O O15 0.619537 0.250000 0.651661
O O16 0.668982 0.000000 0.500000
O O17 0.500000 0.540546 0.138851
#
# Coordination Sequence:
#
# PCOD8301193 Si02
#       7
#    16  16  16  16  16  16  16
#     4  11  22  33  52  80 111 145 175 215 267 314
#     4  11  20  34  58  78 105 139 174 227 266 316
#     4  10  22  36  53  79 104 142 190 217 256 313
#     4   9  17  30  54  82 104 132 169 215 275 321
#     4   9  17  32  53  79 107 136 173 214 263 327
#     4  11  21  36  54  74 106 147 183 219 256 311
#     4  11  23  36  53  81 113 143 177 218 270 319
#
# _framework density 17.054061000000001
#
# number of rings (size 3 to 8) (size 9 to 14) (size 15 to 20)
#    0.000    1.714    4.286    3.000    0.000    2.286 
#    0.000    0.000    0.000    5.143    0.000    0.000 
#    0.000    0.000    0.000    0.000    0.000    0.000 
#
# Total GULP energy -694128.176532 kJ/mol
# GULP energy per Si atom -12395.146010 kJ/mol
# Density = 1.701525 g / cm^3
# Si number density = 17.054061 Si / 1000 Ang^3
#
#
#
# Elastic Constant Matrix: (Units=GPa)
#
#
# Indices 1 2 3 4 5 6 
#
# 1 51.2647 35.3020 37.4682 0.0000 0.0000 0.0000
# 2 35.3020 122.8507 47.1531 0.0000 0.0000 0.0000
# 3 37.4682 47.1531 120.4500 0.0001 0.0002 0.0000
# 4 0.0000 0.0000 0.0001 23.8000 0.0000 0.0000
# 5 0.0000 0.0000 0.0002 0.0000 -9.5988 0.0000
# 6 0.0000 0.0000 0.0000 0.0000 0.0000 19.7451
#
#
#
# Elastic Compliance Matrix: (Units=1/GPa)
#
#
# Indices 1 2 3 4 5 6 
#
# 1 0.028144 -0.005563 -0.006577 0.000000 0.000000 0.000000
# 2 -0.005563 0.010679 -0.002450 0.000000 0.000000 0.000000
# 3 -0.006577 -0.002450 0.011307 0.000000 0.000000 0.000000
# 4 0.000000 0.000000 0.000000 0.042017 0.000000 0.000000
# 5 0.000000 0.000000 0.000000 0.000000 -0.104179 0.000000
# 6 0.000000 0.000000 0.000000 0.000000 0.000000 0.050645
#
#
# Mechanical properties :
#
#
# Convention : Reuss Voigt Hill
#
# Bulk Modulus (GPa) = 47.73199 59.37912 53.55556
# Shear Modulus (GPa) = 66.86524 18.43206 42.64865
#
# Velocity S-wave (km/s) = 6.26841 3.29112 5.00622
# Velocity P-wave (km/s) = 8.96883 7.02394 8.05530
#
# Compressibility (1/GPa) = 0.02095031
#
# Stress axis : x y z
#
# Youngs Moduli (GPa) = 35.53101 93.64241 88.43892
#
# Poissons Ratio (x) = 0.52094 0.58167
# Poissons Ratio (y) = 0.19766 0.21668
# Poissons Ratio (z) = 0.23369 0.22943
#
# Static dielectric constant tensor:
#      x y z
#    x 3.096360 0.000000 0.000000 
#    y 0.000000 3.421030 0.000000 
#    z 0.000000 0.000000 4.277240 
# 
# 
# High freq. dielectric constant tensor:
#      x y z
#    x 1.646340 0.000000 0.000000 
#    y 0.000000 1.656810 0.000000 
#    z 0.000000 0.000000 1.649830 
# 
# From -- ./inp_files/24323.got.cif
#   From: 2010.03.12/outbox.cif.g09.slc.cpg/sg74_13_cif.got.tgz:24323.got - 2010.04.16 15:46:19.
