data_PCOD8301811
_publ_section_title
;
Structure prediction by ZEFSAII (Michael W. Deem and Ramdas Pophale) SiO2 
 PCOD8301811
Probable space group: I M M A
;
_chemical_formula_sum "Si O2"
_cell_formula_units_Z 80
_cell_length_a 14.708369
_cell_length_b 17.745743
_cell_length_c 16.112494
_cell_angle_alpha 90.000000
_cell_angle_beta 90.000000
_cell_angle_gamma 90.000000
_cell_volume 4205.537144
_symmetry_space_group_name_H-M "I M M A"
_symmetry_group_IT_number 74
_symmetry_cell_setting 'orthorhombic'
loop_
_space_group_symop_operation_xyz
x,y,z
-x,1/2-y,z
x,-y,-z
-x,1/2+y,-z
-x,-y,-z
x,1/2+y,-z
-x,y,z
x,1/2-y,z
1/2+x,1/2+y,1/2+z
1/2-x,-y,1/2+z
1/2+x,1/2-y,1/2-z
1/2-x,y,1/2-z
1/2-x,1/2-y,1/2-z
1/2+x,y,1/2-z
1/2-x,1/2+y,1/2+z
1/2+x,-y,1/2+z
loop_
_atom_site_type_symbol
_atom_site_label
_atom_site_fract_x
_atom_site_fract_y
_atom_site_fract_z
Si Si1 0.893685 0.600138 0.348758
Si Si2 0.106980 0.667602 0.178194
Si Si3 0.895489 0.163549 0.474195
Si Si4 0.286164 0.465648 0.091934
Si Si5 0.599291 0.484644 0.595677
O O1 0.855444 0.644901 0.269182
O O2 0.869750 0.648752 0.430030
O O3 0.846176 0.518695 0.349474
O O4 0.000000 0.584589 0.341334
O O5 0.147731 0.750000 0.152339
O O6 0.131189 0.602394 0.111389
O O7 0.000000 0.675885 0.184773
O O8 0.878814 0.250000 0.452767
O O9 0.831326 0.116638 0.411770
O O10 0.000000 0.139743 0.459021
O O11 0.182017 0.461981 0.127506
O O12 0.283680 0.500000 0.000000
O O13 0.584532 0.500000 0.500000
O O14 0.500000 0.499896 0.639659
#
# Coordination Sequence:
#
# PCOD8301811 Si02
#       5
#    16  16  16  16  16
#     4   9  16  27  45  72 105 131 148 177 229 292
#     4   9  17  30  49  73  99 125 154 192 239 286
#     4   9  16  27  46  72 101 130 156 186 228 279
#     4   9  17  29  44  65  93 127 164 194 226 274
#     4   9  18  33  48  61  84 122 167 207 237 270
#
# _framework density 19.022541
#
# number of rings (size 3 to 8) (size 9 to 14) (size 15 to 20)
#    0.000    3.000    0.000    1.200    0.000    5.600 
#    0.000   11.000    0.000    1.800    0.000    4.200 
#    0.000   12.800    0.000    0.000    0.000    0.000 
#
# Total GULP energy -495565.964907 kJ/mol
# GULP energy per Si atom -12389.149123 kJ/mol
# Density = 1.897925 g / cm^3
# Si number density = 19.022541 Si / 1000 Ang^3
#
#
#
# Elastic Constant Matrix: (Units=GPa)
#
#
# Indices 1 2 3 4 5 6 
#
# 1 96.5747 60.8157 16.7767 0.0000 0.0000 0.0000
# 2 60.8157 134.1686 46.7835 0.0000 0.0000 0.0000
# 3 16.7767 46.7835 42.6266 0.0000 0.0000 0.0000
# 4 0.0000 0.0000 0.0000 30.0783 0.0000 0.0000
# 5 0.0000 0.0000 0.0000 0.0000 -10.3516 0.0000
# 6 0.0000 0.0000 0.0000 0.0000 0.0000 21.2670
#
#
#
# Elastic Compliance Matrix: (Units=1/GPa)
#
#
# Indices 1 2 3 4 5 6 
#
# 1 0.014649 -0.007500 0.002466 0.000000 0.000000 0.000000
# 2 -0.007500 0.015914 -0.014514 0.000000 0.000000 0.000000
# 3 0.002466 -0.014514 0.038418 0.000000 0.000000 0.000000
# 4 0.000000 0.000000 0.000000 0.033247 0.000000 0.000000
# 5 0.000000 0.000000 0.000000 0.000000 -0.096603 0.000000
# 6 0.000000 0.000000 0.000000 0.000000 0.000000 0.047021
#
#
# Mechanical properties :
#
#
# Convention : Reuss Voigt Hill
#
# Bulk Modulus (GPa) = 33.46126 58.01350 45.73738
# Shear Modulus (GPa) = 49.16243 18.13167 33.64705
#
# Velocity S-wave (km/s) = 5.08924 3.09069 4.21027
# Velocity P-wave (km/s) = 7.22235 6.58027 6.90877
#
# Compressibility (1/GPa) = 0.02988530
#
# Stress axis : x y z
#
# Youngs Moduli (GPa) = 68.26262 62.83861 26.02926
#
# Poissons Ratio (x) = 0.47129 -0.06418
# Poissons Ratio (y) = 0.51197 0.37779
# Poissons Ratio (z) = -0.16833 0.91203
#
# Static dielectric constant tensor:
#      x y z
#    x 3.910480 0.000000 0.000000 
#    y 0.000000 3.578780 0.000000 
#    z 0.000000 0.000000 3.209800 
# 
# 
# High freq. dielectric constant tensor:
#      x y z
#    x 1.751770 0.000000 0.000000 
#    y 0.000000 1.721190 0.000000 
#    z 0.000000 0.000000 1.697360 
# 
# From -- ./inp_files/33982.got.cif
#   From: 2010.03.12/outbox.cif.g09.slc.cpg/sg74_17_cif.got.tgz:33982.got - 2010.04.16 15:46:19.
