data_PCOD8301739
_publ_section_title
;
Structure prediction by ZEFSAII (Michael W. Deem and Ramdas Pophale) SiO2 
 PCOD8301739
Probable space group: I M M A
;
_chemical_formula_sum "Si O2"
_cell_formula_units_Z 48
_cell_length_a 9.465599
_cell_length_b 17.391423
_cell_length_c 13.221153
_cell_angle_alpha 90.000000
_cell_angle_beta 90.000000
_cell_angle_gamma 90.000000
_cell_volume 2176.469329
_symmetry_space_group_name_H-M "I M M A"
_symmetry_group_IT_number 74
_symmetry_cell_setting 'orthorhombic'
loop_
_space_group_symop_operation_xyz
x,y,z
-x,1/2-y,z
x,-y,-z
-x,1/2+y,-z
-x,-y,-z
x,1/2+y,-z
-x,y,z
x,1/2-y,z
1/2+x,1/2+y,1/2+z
1/2-x,-y,1/2+z
1/2+x,1/2-y,1/2-z
1/2-x,y,1/2-z
1/2-x,1/2-y,1/2-z
1/2+x,y,1/2-z
1/2-x,1/2+y,1/2+z
1/2+x,-y,1/2+z
loop_
_atom_site_type_symbol
_atom_site_label
_atom_site_fract_x
_atom_site_fract_y
_atom_site_fract_z
Si Si1 0.000000 0.660238 0.684828
Si Si2 0.750000 0.583604 0.250000
Si Si3 0.000000 0.661467 0.129873
Si Si4 0.500000 0.400078 0.406024
Si Si5 0.801867 0.536270 0.601780
O O1 0.135380 0.619159 0.633536
O O2 0.000000 0.750000 0.654586
O O3 0.000000 0.654301 0.806682
O O4 0.645106 0.631918 0.320385
O O5 0.847328 0.527271 0.316814
O O6 0.000000 0.750000 0.152881
O O7 0.000000 0.648768 0.009120
O O8 0.633277 0.456561 0.404307
O O9 0.864688 0.500000 0.500000
#
# Coordination Sequence:
#
# PCOD8301739 Si02
#       5
#     8   8   8   8  16
#     4  12  27  45  68 105 145 178 223 289 353 400
#     4  12  23  46  75  98 138 182 230 284 335 410
#     4  12  27  45  70 105 140 179 228 283 346 406
#     4  12  23  45  76  99 136 175 235 282 340 398
#     4  12  24  45  73 102 135 182 237 280 335 412
#
# _framework density 22.054065999999999
#
# number of rings (size 3 to 8) (size 9 to 14) (size 15 to 20)
#    0.000    0.000    6.667    4.000    0.000    4.000 
#    0.000    1.667    0.000    0.000    0.000    0.000 
#    0.000    0.000    0.000    0.000    0.000    0.000 
#
# Total GULP energy -297503.897440 kJ/mol
# GULP energy per Si atom -12395.995727 kJ/mol
# Density = 2.200387 g / cm^3
# Si number density = 22.054066 Si / 1000 Ang^3
#
#
#
# Elastic Constant Matrix: (Units=GPa)
#
#
# Indices 1 2 3 4 5 6 
#
# 1 131.4940 42.8547 37.3831 0.0000 0.0000 0.0000
# 2 42.8547 177.0581 79.3045 -0.0002 0.0001 0.0001
# 3 37.3831 79.3045 183.5820 -0.0003 0.0002 0.0001
# 4 0.0000 -0.0002 -0.0003 34.2710 0.0001 0.0001
# 5 0.0000 0.0001 0.0002 0.0001 21.3123 -0.0001
# 6 0.0000 0.0001 0.0001 0.0001 -0.0001 39.8686
#
#
#
# Elastic Compliance Matrix: (Units=1/GPa)
#
#
# Indices 1 2 3 4 5 6 
#
# 1 0.008411 -0.001573 -0.001033 0.000000 0.000000 0.000000
# 2 -0.001573 0.007297 -0.002832 0.000000 0.000000 0.000000
# 3 -0.001033 -0.002832 0.006881 0.000000 0.000000 0.000000
# 4 0.000000 0.000000 0.000000 0.029179 0.000000 0.000000
# 5 0.000000 0.000000 0.000000 0.000000 0.046921 0.000000
# 6 0.000000 0.000000 0.000000 0.000000 0.000000 0.025082
#
#
# Mechanical properties :
#
#
# Convention : Reuss Voigt Hill
#
# Bulk Modulus (GPa) = 85.37650 90.13542 87.75596
# Shear Modulus (GPa) = 36.08735 41.26317 38.67526
#
# Velocity S-wave (km/s) = 4.04952 4.33020 4.19221
# Velocity P-wave (km/s) = 7.78853 8.12156 7.95679
#
# Compressibility (1/GPa) = 0.01171283
#
# Stress axis : x y z
#
# Youngs Moduli (GPa) = 118.88718 137.04264 145.33012
#
# Poissons Ratio (x) = 0.21558 0.15017
# Poissons Ratio (y) = 0.18702 0.41156
# Poissons Ratio (z) = 0.12284 0.38809
#
# Static dielectric constant tensor:
#      x y z
#    x 3.792730 0.000000 0.000000 
#    y 0.000000 3.771600 0.000000 
#    z 0.000000 0.000000 4.452570 
# 
# 
# High freq. dielectric constant tensor:
#      x y z
#    x 1.876550 0.000000 0.000000 
#    y 0.000000 1.857670 0.000000 
#    z 0.000000 0.000000 1.892270 
# 
# From -- ./inp_files/28288.got.cif
#   From: 2010.03.12/outbox.cif.g09.slc.cpg/sg74_15_cif.got.tgz:28288.got - 2010.04.16 15:46:19.
