data_PCOD8301475
_publ_section_title
;
Structure prediction by ZEFSAII (Michael W. Deem and Ramdas Pophale) SiO2 
 PCOD8301475
Probable space group: I M M A
;
_chemical_formula_sum "Si O2"
_cell_formula_units_Z 64
_cell_length_a 17.189884
_cell_length_b 20.514469
_cell_length_c 10.541693
_cell_angle_alpha 90.000000
_cell_angle_beta 90.000000
_cell_angle_gamma 90.000000
_cell_volume 3717.436771
_symmetry_space_group_name_H-M "I M M A"
_symmetry_group_IT_number 74
_symmetry_cell_setting 'orthorhombic'
loop_
_space_group_symop_operation_xyz
x,y,z
-x,1/2-y,z
x,-y,-z
-x,1/2+y,-z
-x,-y,-z
x,1/2+y,-z
-x,y,z
x,1/2-y,z
1/2+x,1/2+y,1/2+z
1/2-x,-y,1/2+z
1/2+x,1/2-y,1/2-z
1/2-x,y,1/2-z
1/2-x,1/2-y,1/2-z
1/2+x,y,1/2-z
1/2-x,1/2+y,1/2+z
1/2+x,-y,1/2+z
loop_
_atom_site_type_symbol
_atom_site_label
_atom_site_fract_x
_atom_site_fract_y
_atom_site_fract_z
Si Si1 0.913337 0.065934 0.940252
Si Si2 0.500000 0.535339 0.205721
Si Si3 0.000000 0.095313 0.431539
Si Si4 0.145547 0.174866 0.355530
Si Si5 0.182813 0.674164 0.930390
O O1 0.923209 0.055281 0.787979
O O2 0.000000 0.077377 0.000718
O O3 0.858765 0.128130 0.966315
O O4 0.876488 0.000000 0.000000
O O5 0.500000 0.458428 0.178742
O O6 0.500000 0.570213 0.073159
O O7 0.922471 0.136486 0.421760
O O8 0.126295 0.250000 0.370382
O O9 0.148931 0.157148 0.207348
O O10 0.225611 0.158453 0.428045
O O11 0.167742 0.750000 0.965415
#
# Coordination Sequence:
#
# PCOD8301475 Si02
#       5
#    16   8   8  16  16
#     4   9  18  34  55  78 105 132 172 227 266 313
#     4   9  21  34  51  76 105 135 184 220 254 326
#     4  11  19  36  55  70 109 147 172 220 266 318
#     4   9  19  33  54  81 106 137 177 217 263 321
#     4   9  18  34  54  82 110 133 177 227 266 315
#
# _framework density 17.216163999999999
#
# number of rings (size 3 to 8) (size 9 to 14) (size 15 to 20)
#    0.750    2.000    0.000    3.375    1.750    0.500 
#    4.500    3.750    0.000    3.000    0.000    0.000 
#    0.000    0.000    0.000    0.000    0.000    0.000 
#
# Total GULP energy -396580.469065 kJ/mol
# GULP energy per Si atom -12393.139658 kJ/mol
# Density = 1.717698 g / cm^3
# Si number density = 17.216164 Si / 1000 Ang^3
#
#
#
# Elastic Constant Matrix: (Units=GPa)
#
#
# Indices 1 2 3 4 5 6 
#
# 1 77.2581 51.7692 30.2468 0.0000 0.0000 0.0000
# 2 51.7692 85.3315 42.5793 0.0000 0.0000 0.0000
# 3 30.2468 42.5793 79.0921 0.0000 0.0000 0.0000
# 4 0.0000 0.0000 0.0000 26.2342 0.0000 0.0000
# 5 0.0000 0.0000 0.0000 0.0000 0.9463 0.0000
# 6 0.0000 0.0000 0.0000 0.0000 0.0000 26.2756
#
#
#
# Elastic Compliance Matrix: (Units=1/GPa)
#
#
# Indices 1 2 3 4 5 6 
#
# 1 0.021971 -0.012493 -0.001677 0.000000 0.000000 0.000000
# 2 -0.012493 0.023127 -0.007673 0.000000 0.000000 0.000000
# 3 -0.001677 -0.007673 0.017415 0.000000 0.000000 0.000000
# 4 0.000000 0.000000 0.000000 0.038118 0.000000 0.000000
# 5 0.000000 0.000000 0.000000 0.000000 1.056742 0.000000
# 6 0.000000 0.000000 0.000000 0.000000 0.000000 0.038058
#
#
# Mechanical properties :
#
#
# Convention : Reuss Voigt Hill
#
# Bulk Modulus (GPa) = 53.11073 54.54137 53.82605
# Shear Modulus (GPa) = 4.01480 18.49697 11.25589
#
# Velocity S-wave (km/s) = 1.52874 3.28135 2.55972
# Velocity P-wave (km/s) = 5.83373 6.79010 6.33000
#
# Compressibility (1/GPa) = 0.01882859
#
# Stress axis : x y z
#
# Youngs Moduli (GPa) = 45.51368 43.23973 57.42053
#
# Poissons Ratio (x) = 0.54019 0.09628
# Poissons Ratio (y) = 0.56860 0.44057
# Poissons Ratio (z) = 0.07632 0.33177
#
# Static dielectric constant tensor:
#      x y z
#    x 3.065050 0.000000 0.000000 
#    y 0.000000 3.173830 0.000000 
#    z 0.000000 0.000000 2.981430 
# 
# 
# High freq. dielectric constant tensor:
#      x y z
#    x 1.653220 0.000000 0.000000 
#    y 0.000000 1.668910 0.000000 
#    z 0.000000 0.000000 1.647240 
# 
# From -- ./inp_files/10298.got.cif
#   From: 2010.03.12/outbox.cif.g09.slc.cpg/sg74_6_cif.got.tgz:10298.got - 2010.04.16 15:46:19.
