data_PCOD8301555
_publ_section_title
;
Structure prediction by ZEFSAII (Michael W. Deem and Ramdas Pophale) SiO2 
 PCOD8301555
Probable space group: I M M A
;
_chemical_formula_sum "Si O2"
_cell_formula_units_Z 64
_cell_length_a 20.599537
_cell_length_b 8.440582
_cell_length_c 19.583130
_cell_angle_alpha 90.000000
_cell_angle_beta 90.000000
_cell_angle_gamma 90.000000
_cell_volume 3404.959570
_symmetry_space_group_name_H-M "I M M A"
_symmetry_group_IT_number 74
_symmetry_cell_setting 'orthorhombic'
loop_
_space_group_symop_operation_xyz
x,y,z
-x,1/2-y,z
x,-y,-z
-x,1/2+y,-z
-x,-y,-z
x,1/2+y,-z
-x,y,z
x,1/2-y,z
1/2+x,1/2+y,1/2+z
1/2-x,-y,1/2+z
1/2+x,1/2-y,1/2-z
1/2-x,y,1/2-z
1/2-x,1/2-y,1/2-z
1/2+x,y,1/2-z
1/2-x,1/2+y,1/2+z
1/2+x,-y,1/2+z
loop_
_atom_site_type_symbol
_atom_site_label
_atom_site_fract_x
_atom_site_fract_y
_atom_site_fract_z
Si Si1 0.572845 0.068263 0.299945
Si Si2 0.314783 0.064528 0.788655
Si Si3 0.630031 0.934372 0.430319
Si Si4 0.228283 0.435676 0.427139
O O1 0.500000 0.038385 0.272576
O O2 0.583526 0.250000 0.320606
O O3 0.622483 0.022378 0.240801
O O4 0.582101 0.962285 0.367510
O O5 0.323335 0.250000 0.776648
O O6 0.250000 0.003447 0.750000
O O7 0.311868 0.024433 0.868485
O O8 0.646736 0.750000 0.437863
O O9 0.597535 0.000000 0.500000
O O10 0.696065 0.028979 0.416420
O O11 0.203646 0.500000 0.500000
O O12 0.215404 0.250000 0.421956
#
# Coordination Sequence:
#
# PCOD8301555 Si02
#       4
#    16  16  16  16
#     4  11  24  40  58  83 115 153 195 238 287 342
#     4  11  22  37  60  88 116 150 193 238 285 340
#     4  11  21  35  55  81 114 153 194 235 283 338
#     4  11  21  35  58  86 118 150 188 237 288 338
#
# _framework density 18.796111
#
# number of rings (size 3 to 8) (size 9 to 14) (size 15 to 20)
#    0.000    1.000    2.500    7.500    0.000    3.500 
#    0.000    0.000    0.000    0.750    0.000    0.000 
#    0.000    0.000    0.000    0.000    0.000    0.000 
#
# Total GULP energy -396969.370060 kJ/mol
# GULP energy per Si atom -12405.292814 kJ/mol
# Density = 1.875333 g / cm^3
# Si number density = 18.796111 Si / 1000 Ang^3
#
#
#
# Elastic Constant Matrix: (Units=GPa)
#
#
# Indices 1 2 3 4 5 6 
#
# 1 93.6526 16.7047 54.8691 0.0000 0.0000 0.0000
# 2 16.7047 61.3056 14.9861 0.0000 0.0000 0.0000
# 3 54.8691 14.9861 128.6789 0.0000 0.0000 0.0000
# 4 0.0000 0.0000 0.0000 35.6342 0.0000 0.0000
# 5 0.0000 0.0000 0.0000 0.0000 23.9186 0.0000
# 6 0.0000 0.0000 0.0000 0.0000 0.0000 23.1283
#
#
#
# Elastic Compliance Matrix: (Units=1/GPa)
#
#
# Indices 1 2 3 4 5 6 
#
# 1 0.014605 -0.002529 -0.005933 0.000000 0.000000 0.000000
# 2 -0.002529 0.017228 -0.000928 0.000000 0.000000 0.000000
# 3 -0.005933 -0.000928 0.010409 0.000000 0.000000 0.000000
# 4 0.000000 0.000000 0.000000 0.028063 0.000000 0.000000
# 5 0.000000 0.000000 0.000000 0.000000 0.041809 0.000000
# 6 0.000000 0.000000 0.000000 0.000000 0.000000 0.043237
#
#
# Mechanical properties :
#
#
# Convention : Reuss Voigt Hill
#
# Bulk Modulus (GPa) = 42.62296 50.75075 46.68685
# Shear Modulus (GPa) = 27.47987 29.67468 28.57727
#
# Velocity S-wave (km/s) = 3.82776 3.97768 3.90344
# Velocity P-wave (km/s) = 6.50087 6.93940 6.72371
#
# Compressibility (1/GPa) = 0.02346153
#
# Stress axis : x y z
#
# Youngs Moduli (GPa) = 68.46994 58.04600 96.06881
#
# Poissons Ratio (x) = 0.14681 0.56998
# Poissons Ratio (y) = 0.17318 0.08914
# Poissons Ratio (z) = 0.40623 0.05386
#
# Static dielectric constant tensor:
#      x y z
#    x 3.186820 0.000000 0.000000 
#    y 0.000000 3.529420 0.000000 
#    z 0.000000 0.000000 3.645880 
# 
# 
# High freq. dielectric constant tensor:
#      x y z
#    x 1.695650 0.000000 0.000000 
#    y 0.000000 1.749290 0.000000 
#    z 0.000000 0.000000 1.736800 
# 
# From -- ./inp_files/39047.got.cif
#   From: 2010.03.12/outbox.cif.g09.slc.cpg/sg74_20_cif.got.tgz:39047.got - 2010.04.16 15:46:19.
