data_PCOD8301721
_publ_section_title
;
Structure prediction by ZEFSAII (Michael W. Deem and Ramdas Pophale) SiO2 
 PCOD8301721
Probable space group: I M M A
;
_chemical_formula_sum "Si O2"
_cell_formula_units_Z 28
_cell_length_a 12.934497
_cell_length_b 10.734631
_cell_length_c 7.089201
_cell_angle_alpha 90.000000
_cell_angle_beta 90.000000
_cell_angle_gamma 90.000000
_cell_volume 984.314663
_symmetry_space_group_name_H-M "I M M A"
_symmetry_group_IT_number 74
_symmetry_cell_setting 'orthorhombic'
loop_
_space_group_symop_operation_xyz
x,y,z
-x,1/2-y,z
x,-y,-z
-x,1/2+y,-z
-x,-y,-z
x,1/2+y,-z
-x,y,z
x,1/2-y,z
1/2+x,1/2+y,1/2+z
1/2-x,-y,1/2+z
1/2+x,1/2-y,1/2-z
1/2-x,y,1/2-z
1/2-x,1/2-y,1/2-z
1/2+x,y,1/2-z
1/2-x,1/2+y,1/2+z
1/2+x,-y,1/2+z
loop_
_atom_site_type_symbol
_atom_site_label
_atom_site_fract_x
_atom_site_fract_y
_atom_site_fract_z
Si Si1 0.673697 0.000000 0.500000
Si Si2 0.218561 0.250000 0.463849
Si Si3 0.000000 0.005132 0.272970
Si Si4 0.500000 0.250000 0.867003
O O1 0.740880 0.121046 0.561946
O O2 0.605007 0.945486 0.675924
O O3 0.250000 0.250000 0.250000
O O4 0.094730 0.250000 0.484705
O O5 0.000000 0.859995 0.216170
O O6 0.000000 0.000000 0.500000
#
# Coordination Sequence:
#
# PCOD8301721 Si02
#       4
#     8   8   8   4
#     4  11  28  51  80 120 166 215 276 343 418 486
#     4  12  29  50  83 120 166 220 281 347 414 505
#     4  11  25  49  81 117 161 211 276 342 412 499
#     4  12  28  46  80 108 162 218 274 320 420 488
#
# _framework density 28.446189
#
# number of rings (size 3 to 8) (size 9 to 14) (size 15 to 20)
#    0.000    0.571    0.000    5.143   12.000    8.000 
#    0.000    0.000    0.000    0.000    0.000    0.000 
#    0.000    0.000    0.000    0.000    0.000    0.000 
#
# Total GULP energy -173444.747524 kJ/mol
# GULP energy per Si atom -12388.910537 kJ/mol
# Density = 2.838144 g / cm^3
# Si number density = 28.446189 Si / 1000 Ang^3
#
#
#
# Elastic Constant Matrix: (Units=GPa)
#
#
# Indices 1 2 3 4 5 6 
#
# 1 217.6040 49.4964 45.6416 0.0000 0.0000 0.0000
# 2 49.4964 171.2176 -27.2508 0.0000 0.0000 0.0000
# 3 45.6416 -27.2508 138.7219 0.0000 0.0000 0.0000
# 4 0.0000 0.0000 0.0000 30.4955 0.0000 0.0000
# 5 0.0000 0.0000 0.0000 0.0000 17.6973 0.0000
# 6 0.0000 0.0000 0.0000 0.0000 0.0000 63.0417
#
#
#
# Elastic Compliance Matrix: (Units=1/GPa)
#
#
# Indices 1 2 3 4 5 6 
#
# 1 0.005495 -0.001937 -0.002188 0.000000 0.000000 0.000000
# 2 -0.001937 0.006712 0.001956 0.000000 0.000000 0.000000
# 3 -0.002188 0.001956 0.008313 0.000000 0.000000 0.000000
# 4 0.000000 0.000000 0.000000 0.032792 0.000000 0.000000
# 5 0.000000 0.000000 0.000000 0.000000 0.056506 0.000000
# 6 0.000000 0.000000 0.000000 0.000000 0.000000 0.015863
#
#
# Mechanical properties :
#
#
# Convention : Reuss Voigt Hill
#
# Bulk Modulus (GPa) = 61.80279 73.70198 67.75239
# Shear Modulus (GPa) = 36.92421 52.89064 44.90743
#
# Velocity S-wave (km/s) = 3.60674 4.31666 3.97757
# Velocity P-wave (km/s) = 6.25445 7.12813 6.70554
#
# Compressibility (1/GPa) = 0.01618050
#
# Stress axis : x y z
#
# Youngs Moduli (GPa) = 181.98105 148.99346 120.29529
#
# Poissons Ratio (x) = 0.28858 0.26326
# Poissons Ratio (y) = 0.35247 -0.23526
# Poissons Ratio (z) = 0.39825 -0.29139
#
# Static dielectric constant tensor:
#      x y z
#    x 5.443380 0.000000 0.000000 
#    y 0.000000 7.361900 0.000000 
#    z 0.000000 0.000000 4.577030 
# 
# 
# High freq. dielectric constant tensor:
#      x y z
#    x 2.166250 0.000000 0.000000 
#    y 0.000000 2.171480 0.000000 
#    z 0.000000 0.000000 2.149420 
# 
# From -- ./inp_files/6285.got.cif
#   From: 2010.03.12/outbox.cif.g09.slc.cpg/sg74_4_cif.got.tgz:6285.got - 2010.04.16 15:46:19.
