data_PCOD8301650
_publ_section_title
;
Structure prediction by ZEFSAII (Michael W. Deem and Ramdas Pophale) SiO2 
 PCOD8301650
Probable space group: I M M A
;
_chemical_formula_sum "Si O2"
_cell_formula_units_Z 80
_cell_length_a 18.896983
_cell_length_b 24.364974
_cell_length_c 8.705280
_cell_angle_alpha 90.000000
_cell_angle_beta 90.000000
_cell_angle_gamma 90.000000
_cell_volume 4008.124187
_symmetry_space_group_name_H-M "I M M A"
_symmetry_group_IT_number 74
_symmetry_cell_setting 'orthorhombic'
loop_
_space_group_symop_operation_xyz
x,y,z
-x,1/2-y,z
x,-y,-z
-x,1/2+y,-z
-x,-y,-z
x,1/2+y,-z
-x,y,z
x,1/2-y,z
1/2+x,1/2+y,1/2+z
1/2-x,-y,1/2+z
1/2+x,1/2-y,1/2-z
1/2-x,y,1/2-z
1/2-x,1/2-y,1/2-z
1/2+x,y,1/2-z
1/2-x,1/2+y,1/2+z
1/2+x,-y,1/2+z
loop_
_atom_site_type_symbol
_atom_site_label
_atom_site_fract_x
_atom_site_fract_y
_atom_site_fract_z
Si Si1 0.812719 0.462793 0.134794
Si Si2 0.917425 0.250000 0.480426
Si Si3 0.079814 0.469992 0.660260
Si Si4 0.305925 0.147409 0.520853
Si Si5 0.826857 0.750000 0.819465
Si Si6 0.348343 0.146315 0.868572
O O1 0.750000 0.448747 0.250000
O O2 0.876469 0.495520 0.214404
O O3 0.779663 0.500000 0.000000
O O4 0.839938 0.406741 0.056461
O O5 0.884942 0.250000 0.311736
O O6 0.896336 0.304150 0.573552
O O7 0.000000 0.250000 0.456875
O O8 0.080565 0.500000 0.500000
O O9 0.111106 0.410676 0.624128
O O10 0.000000 0.464311 0.724204
O O11 0.336722 0.196951 0.423630
O O12 0.329752 0.157500 0.693336
O O13 0.220508 0.143382 0.521253
O O14 0.750000 0.750000 0.750000
#
# Coordination Sequence:
#
# PCOD8301650 Si02
#       6
#    16   8  16  16   8  16
#     4  12  23  40  65  99 131 170 220 272 326 381
#     4  12  27  45  69  97 135 174 216 272 337 405
#     4  11  25  43  64  94 136 179 218 264 329 402
#     4  11  23  40  70  99 127 167 221 282 319 380
#     4  12  23  43  66 101 126 165 217 276 329 383
#     4  11  22  45  67  98 129 172 224 269 328 388
#
# _framework density 19.959461999999998
#
# number of rings (size 3 to 8) (size 9 to 14) (size 15 to 20)
#    0.000    0.600    4.000    4.800    2.800    2.000 
#    0.000    3.000    0.000    0.000    0.000    0.000 
#    0.000    0.000    0.000    0.000    0.000    0.000 
#
# Total GULP energy -496122.313631 kJ/mol
# GULP energy per Si atom -12403.057841 kJ/mol
# Density = 1.991403 g / cm^3
# Si number density = 19.959462 Si / 1000 Ang^3
#
#
#
# Elastic Constant Matrix: (Units=GPa)
#
#
# Indices 1 2 3 4 5 6 
#
# 1 129.9064 57.0844 48.2930 0.0000 0.0000 0.0000
# 2 57.0844 182.2673 64.6325 0.0000 0.0000 0.0000
# 3 48.2930 64.6325 107.0026 0.0000 0.0000 0.0000
# 4 0.0000 0.0000 0.0000 45.1339 0.0000 0.0000
# 5 0.0000 0.0000 0.0000 0.0000 18.5352 0.0000
# 6 0.0000 0.0000 0.0000 0.0000 0.0000 -283.9545
#
#
#
# Elastic Compliance Matrix: (Units=1/GPa)
#
#
# Indices 1 2 3 4 5 6 
#
# 1 0.009740 -0.001898 -0.003249 0.000000 0.000000 0.000000
# 2 -0.001898 0.007352 -0.003584 0.000000 0.000000 0.000000
# 3 -0.003249 -0.003584 0.012977 0.000000 0.000000 0.000000
# 4 0.000000 0.000000 0.000000 0.022156 0.000000 0.000000
# 5 0.000000 0.000000 0.000000 0.000000 0.053952 0.000000
# 6 0.000000 0.000000 0.000000 0.000000 0.000000 -0.003522
#
#
# Mechanical properties :
#
#
# Convention : Reuss Voigt Hill
#
# Bulk Modulus (GPa) = 79.32976 84.35513 81.84245
# Shear Modulus (GPa) = 40.21887 -27.44601 6.38643
#
# Velocity S-wave (km/s) = 4.49378 -3.71224 1.79071
# Velocity P-wave (km/s) = 8.17050 4.89701 6.73564
#
# Compressibility (1/GPa) = 0.01260561
#
# Stress axis : x y z
#
# Youngs Moduli (GPa) = 102.67027 136.01999 77.06006
#
# Poissons Ratio (x) = 0.25820 0.25039
# Poissons Ratio (y) = 0.19489 0.27618
# Poissons Ratio (z) = 0.33360 0.48750
#
# Static dielectric constant tensor:
#      x y z
#    x 3.760670 0.000000 0.000000 
#    y 0.000000 4.069850 0.000000 
#    z 0.000000 0.000000 3.781230 
# 
# 
# High freq. dielectric constant tensor:
#      x y z
#    x 1.761330 0.000000 0.000000 
#    y 0.000000 1.800960 0.000000 
#    z 0.000000 0.000000 1.798660 
# 
# From -- ./inp_files/11034.got.cif
#   From: 2010.03.12/outbox.cif.g09.slc.cpg/sg74_6_cif.got.tgz:11034.got - 2010.04.16 15:46:19.
