data_PCOD8301180
_publ_section_title
;
Structure prediction by ZEFSAII (Michael W. Deem and Ramdas Pophale) SiO2 
 PCOD8301180
Probable space group: I M M A
;
_chemical_formula_sum "Si O2"
_cell_formula_units_Z 104
_cell_length_a 19.391457
_cell_length_b 26.826997
_cell_length_c 9.828607
_cell_angle_alpha 90.000000
_cell_angle_beta 90.000000
_cell_angle_gamma 90.000000
_cell_volume 5112.984454
_symmetry_space_group_name_H-M "I M M A"
_symmetry_group_IT_number 74
_symmetry_cell_setting 'orthorhombic'
loop_
_space_group_symop_operation_xyz
x,y,z
-x,1/2-y,z
x,-y,-z
-x,1/2+y,-z
-x,-y,-z
x,1/2+y,-z
-x,y,z
x,1/2-y,z
1/2+x,1/2+y,1/2+z
1/2-x,-y,1/2+z
1/2+x,1/2-y,1/2-z
1/2-x,y,1/2-z
1/2-x,1/2-y,1/2-z
1/2+x,y,1/2-z
1/2-x,1/2+y,1/2+z
1/2+x,-y,1/2+z
loop_
_atom_site_type_symbol
_atom_site_label
_atom_site_fract_x
_atom_site_fract_y
_atom_site_fract_z
Si Si1 0.887715 0.750000 0.070985
Si Si2 0.420510 0.001826 0.840122
Si Si3 0.747894 0.250000 0.088950
Si Si4 0.645049 0.666031 0.980823
Si Si5 0.922911 0.750000 0.363779
Si Si6 0.576524 0.141302 0.553201
Si Si7 0.080237 0.892971 0.756792
Si Si8 0.669499 0.094329 0.777195
O O1 0.871313 0.750000 0.233975
O O2 0.930093 0.799370 0.033226
O O3 0.821141 0.750000 0.978728
O O4 0.500000 0.015222 0.806148
O O5 0.398624 0.949247 0.776968
O O6 0.370494 0.042113 0.772397
O O7 0.408608 0.000000 0.000000
O O8 0.750000 0.250000 0.250000
O O9 0.711980 0.300082 0.036603
O O10 0.621689 0.646018 0.834931
O O11 0.585780 0.700375 0.046432
O O12 0.661399 0.619165 0.075823
O O13 0.000000 0.750000 0.304198
O O14 0.500000 0.121710 0.595580
O O15 0.600067 0.116128 0.412738
O O16 0.634673 0.129589 0.664385
O O17 0.000000 0.884103 0.727525
O O18 0.750000 0.085464 0.750000
#
# Coordination Sequence:
#
# PCOD8301180 Si02
#       8
#     8  16   8  16   8  16  16  16
#     4  12  22  39  62  90 128 166 213 257 315 376
#     4  10  21  42  70  95 122 165 219 272 323 382
#     4  11  25  42  60  89 131 177 216 256 322 386
#     4  11  23  39  65  88 126 168 209 259 311 388
#     4  11  23  36  60  95 122 155 210 262 309 365
#     4  11  24  42  67  96 130 169 214 272 328 384
#     4  10  22  42  67  96 124 163 217 268 324 381
#     4  12  25  42  62  96 130 167 213 263 327 391
#
# _framework density 20.34037
#
# number of rings (size 3 to 8) (size 9 to 14) (size 15 to 20)
#    0.000    1.077    3.077    3.462    0.000    3.077 
#    2.769    4.615    0.000    0.000    0.000    0.000 
#    0.000    0.000    0.000    0.000    0.000    0.000 
#
# Total GULP energy -644962.879757 kJ/mol
# GULP energy per Si atom -12403.132303 kJ/mol
# Density = 2.029407 g / cm^3
# Si number density = 20.340370 Si / 1000 Ang^3
#
#
#
# Elastic Constant Matrix: (Units=GPa)
#
#
# Indices 1 2 3 4 5 6 
#
# 1 102.4170 27.7456 38.2015 0.0000 0.0000 0.0000
# 2 27.7456 110.4011 31.0281 0.0000 0.0000 0.0000
# 3 38.2015 31.0281 98.9756 0.0000 0.0000 0.0000
# 4 0.0000 0.0000 0.0000 33.3161 0.0000 0.0000
# 5 0.0000 0.0000 0.0000 0.0000 31.9874 0.0000
# 6 0.0000 0.0000 0.0000 0.0000 0.0000 -29.4313
#
#
#
# Elastic Compliance Matrix: (Units=1/GPa)
#
#
# Indices 1 2 3 4 5 6 
#
# 1 0.011737 -0.001838 -0.003954 0.000000 0.000000 0.000000
# 2 -0.001838 0.010221 -0.002495 0.000000 0.000000 0.000000
# 3 -0.003954 -0.002495 0.012412 0.000000 0.000000 0.000000
# 4 0.000000 0.000000 0.000000 0.030015 0.000000 0.000000
# 5 0.000000 0.000000 0.000000 0.000000 0.031262 0.000000
# 6 0.000000 0.000000 0.000000 0.000000 0.000000 -0.033977
#
#
# Mechanical properties :
#
#
# Convention : Reuss Voigt Hill
#
# Bulk Modulus (GPa) = 56.19302 56.19378 56.19340
# Shear Modulus (GPa) = 59.39989 21.49568 40.44778
#
# Velocity S-wave (km/s) = 5.40984 3.25437 4.46415
# Velocity P-wave (km/s) = 8.16750 6.46591 7.36601
#
# Compressibility (1/GPa) = 0.01779580
#
# Stress axis : x y z
#
# Youngs Moduli (GPa) = 85.20223 97.83753 80.57012
#
# Poissons Ratio (x) = 0.17987 0.31855
# Poissons Ratio (y) = 0.15664 0.20099
# Poissons Ratio (z) = 0.33686 0.24407
#
# Static dielectric constant tensor:
#      x y z
#    x 3.598270 0.000000 0.000000 
#    y 0.000000 3.843370 0.000000 
#    z 0.000000 0.000000 3.706570 
# 
# 
# High freq. dielectric constant tensor:
#      x y z
#    x 1.787330 0.000000 0.000000 
#    y 0.000000 1.805770 0.000000 
#    z 0.000000 0.000000 1.801930 
# 
# From -- ./inp_files/12808.got.cif
#   From: 2010.03.12/outbox.cif.g09.slc.cpg/sg74_7_cif.got.tgz:12808.got - 2010.04.16 15:46:19.
