data_PCOD8301808
_publ_section_title
;
Structure prediction by ZEFSAII (Michael W. Deem and Ramdas Pophale) SiO2 
 PCOD8301808
Probable space group: I M M A
;
_chemical_formula_sum "Si O2"
_cell_formula_units_Z 80
_cell_length_a 18.581733
_cell_length_b 9.432825
_cell_length_c 24.973804
_cell_angle_alpha 90.000000
_cell_angle_beta 90.000000
_cell_angle_gamma 90.000000
_cell_volume 4377.364301
_symmetry_space_group_name_H-M "I M M A"
_symmetry_group_IT_number 74
_symmetry_cell_setting 'orthorhombic'
loop_
_space_group_symop_operation_xyz
x,y,z
-x,1/2-y,z
x,-y,-z
-x,1/2+y,-z
-x,-y,-z
x,1/2+y,-z
-x,y,z
x,1/2-y,z
1/2+x,1/2+y,1/2+z
1/2-x,-y,1/2+z
1/2+x,1/2-y,1/2-z
1/2-x,y,1/2-z
1/2-x,1/2-y,1/2-z
1/2+x,y,1/2-z
1/2-x,1/2+y,1/2+z
1/2+x,-y,1/2+z
loop_
_atom_site_type_symbol
_atom_site_label
_atom_site_fract_x
_atom_site_fract_y
_atom_site_fract_z
Si Si1 0.418681 0.416940 0.054364
Si Si2 0.000000 0.410837 0.862433
Si Si3 0.206559 0.414778 0.369288
Si Si4 0.000000 0.091697 0.734973
Si Si5 0.862226 0.583982 0.858745
Si Si6 0.368629 0.411443 0.234938
O O1 0.500000 0.447319 0.075743
O O2 0.408684 0.250000 0.043892
O O3 0.359303 0.479127 0.096170
O O4 0.404592 0.500000 0.000000
O O5 0.071611 0.492997 0.882692
O O6 0.000000 0.250000 0.884977
O O7 0.000000 0.412099 0.798966
O O8 0.206058 0.250000 0.380950
O O9 0.286919 0.468778 0.385760
O O10 0.197376 0.441395 0.305379
O O11 0.000000 0.250000 0.712401
O O12 0.069049 0.011928 0.712778
O O13 0.878236 0.750000 0.869176
O O14 0.849545 0.554504 0.795887
O O15 0.395635 0.250000 0.229539
#
# Coordination Sequence:
#
# PCOD8301808 Si02
#       6
#    16   8  16   8  16  16
#     4   9  18  33  51  69  92 123 156 193 235 276
#     4   9  17  29  43  59  88 127 158 181 216 265
#     4   9  17  28  47  71  92 116 152 194 236 278
#     4   9  17  27  37  55  86 123 158 189 218 259
#     4   9  16  28  45  68  93 120 155 192 226 268
#     4   9  16  26  43  64  89 121 154 190 227 270
#
# _framework density 18.275838
#
# number of rings (size 3 to 8) (size 9 to 14) (size 15 to 20)
#    0.000    3.000    0.000    1.200    1.400    4.800 
#    0.000    3.000    0.000    4.800    0.000    0.700 
#    0.000    0.000    0.000    0.000    0.000    0.000 
#
# Total GULP energy -495546.472197 kJ/mol
# GULP energy per Si atom -12388.661805 kJ/mol
# Density = 1.823424 g / cm^3
# Si number density = 18.275838 Si / 1000 Ang^3
#
#
#
# Elastic Constant Matrix: (Units=GPa)
#
#
# Indices 1 2 3 4 5 6 
#
# 1 170.5898 52.4762 31.3674 0.0000 0.0000 0.0000
# 2 52.4762 62.2263 11.8311 0.0000 0.0000 0.0000
# 3 31.3674 11.8311 32.5622 0.0000 0.0000 0.0000
# 4 0.0000 0.0000 0.0000 14.1168 0.0000 0.0000
# 5 0.0000 0.0000 0.0000 0.0000 19.4012 0.0000
# 6 0.0000 0.0000 0.0000 0.0000 0.0000 9.2749
#
#
#
# Elastic Compliance Matrix: (Units=1/GPa)
#
#
# Indices 1 2 3 4 5 6 
#
# 1 0.008989 -0.006375 -0.006343 0.000000 0.000000 0.000000
# 2 -0.006375 0.021784 -0.001774 0.000000 0.000000 0.000000
# 3 -0.006343 -0.001774 0.037466 0.000000 0.000000 0.000000
# 4 0.000000 0.000000 0.000000 0.070838 0.000000 0.000000
# 5 0.000000 0.000000 0.000000 0.000000 0.051543 0.000000
# 6 0.000000 0.000000 0.000000 0.000000 0.000000 0.107818
#
#
# Mechanical properties :
#
#
# Convention : Reuss Voigt Hill
#
# Bulk Modulus (GPa) = 25.47481 50.74751 38.11116
# Shear Modulus (GPa) = 14.68401 19.87215 17.27808
#
# Velocity S-wave (km/s) = 2.83762 3.30107 3.07808
# Velocity P-wave (km/s) = 4.97046 6.50824 5.79063
#
# Compressibility (1/GPa) = 0.03925447
#
# Stress axis : x y z
#
# Youngs Moduli (GPa) = 111.24217 45.90610 26.69116
#
# Poissons Ratio (x) = 0.29264 0.16931
# Poissons Ratio (y) = 0.70915 0.04735
# Poissons Ratio (z) = 0.70565 0.08143
#
# Static dielectric constant tensor:
#      x y z
#    x 3.903510 0.000000 0.000000 
#    y 0.000000 3.229940 0.000000 
#    z 0.000000 0.000000 2.949450 
# 
# 
# High freq. dielectric constant tensor:
#      x y z
#    x 1.725680 0.000000 0.000000 
#    y 0.000000 1.680840 0.000000 
#    z 0.000000 0.000000 1.654040 
# 
# From -- ./inp_files/64027.got.cif
#   From: 2010.03.12/outbox.cif.g09.slc.cpg/sg74_33_cif.got.tgz:64027.got - 2010.04.16 15:46:19.
