data_PCOD8301667
_publ_section_title
;
Structure prediction by ZEFSAII (Michael W. Deem and Ramdas Pophale) SiO2 
 PCOD8301667
Probable space group: I M M A
;
_chemical_formula_sum "Si O2"
_cell_formula_units_Z 96
_cell_length_a 20.007284
_cell_length_b 8.835381
_cell_length_c 27.425666
_cell_angle_alpha 90.000000
_cell_angle_beta 90.000000
_cell_angle_gamma 90.000000
_cell_volume 4848.089197
_symmetry_space_group_name_H-M "I M M A"
_symmetry_group_IT_number 74
_symmetry_cell_setting 'orthorhombic'
loop_
_space_group_symop_operation_xyz
x,y,z
-x,1/2-y,z
x,-y,-z
-x,1/2+y,-z
-x,-y,-z
x,1/2+y,-z
-x,y,z
x,1/2-y,z
1/2+x,1/2+y,1/2+z
1/2-x,-y,1/2+z
1/2+x,1/2-y,1/2-z
1/2-x,y,1/2-z
1/2-x,1/2-y,1/2-z
1/2+x,y,1/2-z
1/2-x,1/2+y,1/2+z
1/2+x,-y,1/2+z
loop_
_atom_site_type_symbol
_atom_site_label
_atom_site_fract_x
_atom_site_fract_y
_atom_site_fract_z
Si Si1 0.925290 0.572346 0.450158
Si Si2 0.576618 0.574386 0.399419
Si Si3 0.922515 0.423799 0.787246
Si Si4 0.802761 0.428098 0.051317
Si Si5 0.806730 0.927395 0.382079
Si Si6 0.183019 0.576337 0.720334
O O1 0.898723 0.500000 0.500000
O O2 0.925098 0.750000 0.457778
O O3 0.876088 0.522904 0.407138
O O4 0.000000 0.513723 0.437416
O O5 0.500000 0.537034 0.411961
O O6 0.592216 0.750000 0.409037
O O7 0.591878 0.533724 0.343301
O O8 0.621831 0.473856 0.434866
O O9 0.902303 0.250000 0.777471
O O10 0.880152 0.533522 0.753250
O O11 0.000000 0.449005 0.774780
O O12 0.797416 0.250000 0.046232
O O13 0.754417 0.484182 0.093989
O O14 0.781186 0.500000 0.000000
O O15 0.792796 0.750000 0.387761
O O16 0.813621 0.968421 0.325974
O O17 0.175806 0.750000 0.703829
O O18 0.250000 0.548375 0.750000
#
# Coordination Sequence:
#
# PCOD8301667 Si02
#       6
#    16  16  16  16  16  16
#     4   9  19  36  58  84 112 143 180 223 273 329
#     4   9  19  38  63  89 117 150 190 235 285 343
#     4   9  19  37  61  87 115 150 191 234 283 341
#     4  12  25  40  59  84 116 152 192 238 287 343
#     4  11  23  39  60  84 113 150 191 238 288 339
#     4  11  24  39  56  83 117 151 190 237 287 342
#
# _framework density 19.801615999999999
#
# number of rings (size 3 to 8) (size 9 to 14) (size 15 to 20)
#    0.000    1.833    0.000    5.000    0.000    9.000 
#    0.000    3.333    0.000    0.000    0.000    0.000 
#    0.000    0.000    0.000    0.000    0.000    0.000 
#
# Total GULP energy -595436.845195 kJ/mol
# GULP energy per Si atom -12404.934275 kJ/mol
# Density = 1.975655 g / cm^3
# Si number density = 19.801616 Si / 1000 Ang^3
#
#
#
# Elastic Constant Matrix: (Units=GPa)
#
#
# Indices 1 2 3 4 5 6 
#
# 1 88.6960 40.6099 34.8030 0.0000 0.0000 0.0000
# 2 40.6099 82.1951 34.6159 0.0000 0.0000 0.0000
# 3 34.8030 34.6159 78.7421 0.0000 0.0000 0.0000
# 4 0.0000 0.0000 0.0000 35.4885 0.0000 0.0000
# 5 0.0000 0.0000 0.0000 0.0000 78.6857 0.0000
# 6 0.0000 0.0000 0.0000 0.0000 0.0000 9.4772
#
#
#
# Elastic Compliance Matrix: (Units=1/GPa)
#
#
# Indices 1 2 3 4 5 6 
#
# 1 0.015686 -0.005928 -0.004327 0.000000 0.000000 0.000000
# 2 -0.005928 0.017170 -0.004928 0.000000 0.000000 0.000000
# 3 -0.004327 -0.004928 0.016779 0.000000 0.000000 0.000000
# 4 0.000000 0.000000 0.000000 0.028178 0.000000 0.000000
# 5 0.000000 0.000000 0.000000 0.000000 0.012709 0.000000
# 6 0.000000 0.000000 0.000000 0.000000 0.000000 0.105516
#
#
# Mechanical properties :
#
#
# Convention : Reuss Voigt Hill
#
# Bulk Modulus (GPa) = 51.89689 52.18785 52.04237
# Shear Modulus (GPa) = 21.47500 34.03723 27.75611
#
# Velocity S-wave (km/s) = 3.29676 4.15047 3.74800
# Velocity P-wave (km/s) = 6.38410 7.02717 6.71334
#
# Compressibility (1/GPa) = 0.01926898
#
# Stress axis : x y z
#
# Youngs Moduli (GPa) = 63.74916 58.23971 59.59879
#
# Poissons Ratio (x) = 0.34523 0.25790
# Poissons Ratio (y) = 0.37789 0.29372
# Poissons Ratio (z) = 0.27586 0.28702
#
# Static dielectric constant tensor:
#      x y z
#    x 3.807140 0.000000 0.000000 
#    y 0.000000 3.527500 0.000000 
#    z 0.000000 0.000000 3.435440 
# 
# 
# High freq. dielectric constant tensor:
#      x y z
#    x 1.785350 0.000000 0.000000 
#    y 0.000000 1.769560 0.000000 
#    z 0.000000 0.000000 1.773020 
# 
# From -- ./inp_files/68116.got.cif
#   From: 2010.03.12/outbox.cif.g09.slc.cpg/sg74_35_cif.got.tgz:68116.got - 2010.04.16 15:46:19.
