data_PCOD8301355
_publ_section_title
;
Structure prediction by ZEFSAII (Michael W. Deem and Ramdas Pophale) SiO2 
 PCOD8301355
Probable space group: I M M A
;
_chemical_formula_sum "Si O2"
_cell_formula_units_Z 80
_cell_length_a 13.558662
_cell_length_b 12.935276
_cell_length_c 23.986644
_cell_angle_alpha 90.000000
_cell_angle_beta 90.000000
_cell_angle_gamma 90.000000
_cell_volume 4206.898401
_symmetry_space_group_name_H-M "I M M A"
_symmetry_group_IT_number 74
_symmetry_cell_setting 'orthorhombic'
loop_
_space_group_symop_operation_xyz
x,y,z
-x,1/2-y,z
x,-y,-z
-x,1/2+y,-z
-x,-y,-z
x,1/2+y,-z
-x,y,z
x,1/2-y,z
1/2+x,1/2+y,1/2+z
1/2-x,-y,1/2+z
1/2+x,1/2-y,1/2-z
1/2-x,y,1/2-z
1/2-x,1/2-y,1/2-z
1/2+x,y,1/2-z
1/2-x,1/2+y,1/2+z
1/2+x,-y,1/2+z
loop_
_atom_site_type_symbol
_atom_site_label
_atom_site_fract_x
_atom_site_fract_y
_atom_site_fract_z
Si Si1 0.216987 0.460502 0.338525
Si Si2 0.383047 0.750000 0.411195
Si Si3 0.385853 0.250000 0.996783
Si Si4 0.392432 0.524712 0.266595
Si Si5 0.616795 0.750000 0.871689
Si Si6 0.656213 0.750000 0.289402
Si Si7 0.752548 0.078634 0.951908
O O1 0.325567 0.460721 0.310416
O O2 0.147217 0.522344 0.296323
O O3 0.172768 0.346835 0.345029
O O4 0.219502 0.517938 0.397086
O O5 0.500000 0.750000 0.400564
O O6 0.317235 0.750000 0.354933
O O7 0.350839 0.647414 0.444288
O O8 0.500000 0.250000 0.981687
O O9 0.339933 0.352398 0.970180
O O10 0.367322 0.250000 0.062520
O O11 0.500000 0.473060 0.270221
O O12 0.404875 0.645804 0.280204
O O13 0.500000 0.750000 0.856710
O O14 0.750000 0.750000 0.250000
O O15 0.781786 0.000000 0.000000
#
# Coordination Sequence:
#
# PCOD8301355 Si02
#       7
#    16   8   8  16   8   8  16
#     4  11  23  41  63  89 124 158 208 252 307 363
#     4  11  23  39  63  92 126 167 203 243 302 367
#     4  10  23  38  60  92 122 159 202 248 306 364
#     4  11  23  39  63  92 124 164 203 250 306 363
#     4  11  23  42  64  87 119 162 205 253 311 366
#     4  12  19  38  60  93 126 158 199 251 303 363
#     4  11  22  40  64  91 126 160 201 255 302 358
#
# _framework density 19.016385
#
# number of rings (size 3 to 8) (size 9 to 14) (size 15 to 20)
#    0.000    1.000    6.000    1.500    0.000    4.800 
#    0.000    1.500    0.000    0.000    0.000    0.000 
#    0.000    0.000    0.000    0.000    0.000    0.000 
#
# Total GULP energy -495931.713912 kJ/mol
# GULP energy per Si atom -12398.292848 kJ/mol
# Density = 1.897310 g / cm^3
# Si number density = 19.016385 Si / 1000 Ang^3
#
#
#
# Elastic Constant Matrix: (Units=GPa)
#
#
# Indices 1 2 3 4 5 6 
#
# 1 143.9933 42.5123 56.4934 0.0000 0.0000 0.0000
# 2 42.5123 127.6307 61.4972 0.0000 0.0000 0.0000
# 3 56.4934 61.4972 142.1970 0.0000 0.0000 0.0000
# 4 0.0000 0.0000 0.0000 -14.2475 0.0000 0.0000
# 5 0.0000 0.0000 0.0000 0.0000 18.6130 0.0000
# 6 0.0000 0.0000 0.0000 0.0000 0.0000 118.2916
#
#
#
# Elastic Compliance Matrix: (Units=1/GPa)
#
#
# Indices 1 2 3 4 5 6 
#
# 1 0.008452 -0.001513 -0.002704 0.000000 0.000000 0.000000
# 2 -0.001513 0.010168 -0.003797 0.000000 0.000000 0.000000
# 3 -0.002704 -0.003797 0.009749 0.000000 0.000000 0.000000
# 4 0.000000 0.000000 0.000000 -0.070188 0.000000 0.000000
# 5 0.000000 0.000000 0.000000 0.000000 0.053726 0.000000
# 6 0.000000 0.000000 0.000000 0.000000 0.000000 0.008454
#
#
# Mechanical properties :
#
#
# Convention : Reuss Voigt Hill
#
# Bulk Modulus (GPa) = 81.01689 81.64741 81.33215
# Shear Modulus (GPa) = 123.45286 41.41930 82.43608
#
# Velocity S-wave (km/s) = 8.06599 4.67206 6.59122
# Velocity P-wave (km/s) = 11.37730 8.49310 10.03932
#
# Compressibility (1/GPa) = 0.01234310
#
# Stress axis : x y z
#
# Youngs Moduli (GPa) = 118.31361 98.34516 102.57810
#
# Poissons Ratio (x) = 0.14875 0.27735
# Poissons Ratio (y) = 0.17895 0.38945
# Poissons Ratio (z) = 0.31990 0.37338
#
# Static dielectric constant tensor:
#      x y z
#    x 3.413660 0.000000 0.000000 
#    y 0.000000 3.655780 0.000000 
#    z 0.000000 0.000000 3.662620 
# 
# 
# High freq. dielectric constant tensor:
#      x y z
#    x 1.735720 0.000000 0.000000 
#    y 0.000000 1.743460 0.000000 
#    z 0.000000 0.000000 1.752970 
# 
# From -- ./inp_files/59774.got.cif
#   From: 2010.03.12/outbox.cif.g09.slc.cpg/sg74_30_cif.got.tgz:59774.got - 2010.04.16 15:46:19.
