data_PCOD8301199
_publ_section_title
;
Structure prediction by ZEFSAII (Michael W. Deem and Ramdas Pophale) SiO2 
 PCOD8301199
Probable space group: I M M A
;
_chemical_formula_sum "Si O2"
_cell_formula_units_Z 64
_cell_length_a 10.470568
_cell_length_b 19.729166
_cell_length_c 15.263611
_cell_angle_alpha 90.000000
_cell_angle_beta 90.000000
_cell_angle_gamma 90.000000
_cell_volume 3153.089206
_symmetry_space_group_name_H-M "I M M A"
_symmetry_group_IT_number 74
_symmetry_cell_setting 'orthorhombic'
loop_
_space_group_symop_operation_xyz
x,y,z
-x,1/2-y,z
x,-y,-z
-x,1/2+y,-z
-x,-y,-z
x,1/2+y,-z
-x,y,z
x,1/2-y,z
1/2+x,1/2+y,1/2+z
1/2-x,-y,1/2+z
1/2+x,1/2-y,1/2-z
1/2-x,y,1/2-z
1/2-x,1/2-y,1/2-z
1/2+x,y,1/2-z
1/2-x,1/2+y,1/2+z
1/2+x,-y,1/2+z
loop_
_atom_site_type_symbol
_atom_site_label
_atom_site_fract_x
_atom_site_fract_y
_atom_site_fract_z
Si Si1 0.855214 0.549417 0.576097
Si Si2 0.642143 0.750000 0.178067
Si Si3 0.500000 0.172413 0.288940
Si Si4 0.000000 0.826598 0.995596
Si Si5 0.250000 0.909978 0.750000
Si Si6 0.773678 0.825717 0.477655
O O1 0.801267 0.500000 0.500000
O O2 0.765538 0.543526 0.662622
O O3 0.856548 0.626434 0.539784
O O4 0.000000 0.528764 0.600422
O O5 0.500000 0.750000 0.219540
O O6 0.750000 0.750000 0.250000
O O7 0.660283 0.817307 0.117670
O O8 0.500000 0.250000 0.257582
O O9 0.500000 0.165743 0.392222
O O10 0.374957 0.136458 0.251293
O O11 0.000000 0.750000 0.029067
O O12 0.131376 0.858934 0.032745
O O13 0.762940 0.750000 0.521925
#
# Coordination Sequence:
#
# PCOD8301199 Si02
#       6
#    16   8   8   8   8  16
#     4  11  24  43  65  88 128 174 213 265 327 393
#     4  10  22  36  60  89 124 155 210 263 308 370
#     4  11  22  36  61 103 135 163 208 258 329 393
#     4   9  16  32  58  87 121 161 187 249 316 380
#     4  12  23  42  62  96 135 170 218 268 322 400
#     4   9  20  37  62  88 123 155 211 253 316 378
#
# _framework density 20.297554000000002
#
# number of rings (size 3 to 8) (size 9 to 14) (size 15 to 20)
#    0.750    1.000    3.750    1.125    1.750    1.000 
#    2.250    2.500    0.000    0.000    0.000    0.000 
#    0.000    0.000    0.000    0.000    0.000    0.000 
#
# Total GULP energy -396520.862176 kJ/mol
# GULP energy per Si atom -12391.276943 kJ/mol
# Density = 2.025136 g / cm^3
# Si number density = 20.297554 Si / 1000 Ang^3
#
#
#
# Elastic Constant Matrix: (Units=GPa)
#
#
# Indices 1 2 3 4 5 6 
#
# 1 134.6124 23.1669 42.8831 0.0001 0.0000 0.0000
# 2 23.1669 67.9200 41.8537 -0.0003 0.0000 0.0000
# 3 42.8831 41.8537 132.3298 -0.0006 0.0000 0.0000
# 4 0.0001 -0.0003 -0.0006 28.8891 0.0000 0.0000
# 5 0.0000 0.0000 0.0000 0.0000 33.7194 0.0000
# 6 0.0000 0.0000 0.0000 0.0000 0.0000 12.1043
#
#
#
# Elastic Compliance Matrix: (Units=1/GPa)
#
#
# Indices 1 2 3 4 5 6 
#
# 1 0.008401 -0.001475 -0.002256 0.000000 0.000000 0.000000
# 2 -0.001475 0.018547 -0.005388 0.000000 0.000000 0.000000
# 3 -0.002256 -0.005388 0.009992 0.000000 0.000000 0.000000
# 4 0.000000 0.000000 0.000000 0.034615 0.000000 0.000000
# 5 0.000000 0.000000 0.000000 0.000000 0.029657 0.000000
# 6 0.000000 0.000000 0.000000 0.000000 0.000000 0.082616
#
#
# Mechanical properties :
#
#
# Convention : Reuss Voigt Hill
#
# Bulk Modulus (GPa) = 53.47163 61.18549 57.32856
# Shear Modulus (GPa) = 24.00393 30.07312 27.03853
#
# Velocity S-wave (km/s) = 3.44263 3.85335 3.65376
# Velocity P-wave (km/s) = 6.49641 7.07159 6.79009
#
# Compressibility (1/GPa) = 0.01870151
#
# Stress axis : x y z
#
# Youngs Moduli (GPa) = 119.02892 53.91840 100.08017
#
# Poissons Ratio (x) = 0.07956 0.22577
# Poissons Ratio (y) = 0.17563 0.53921
# Poissons Ratio (z) = 0.26851 0.29050
#
# Static dielectric constant tensor:
#      x y z
#    x 3.925840 0.000000 0.000000 
#    y 0.000000 3.357670 0.000000 
#    z 0.000000 0.000000 3.598540 
# 
# 
# High freq. dielectric constant tensor:
#      x y z
#    x 1.808420 0.000000 0.000000 
#    y 0.000000 1.747780 0.000000 
#    z 0.000000 0.000000 1.781660 
# 
# From -- ./inp_files/28912.got.cif
#   From: 2010.03.12/outbox.cif.g09.slc.cpg/sg74_15_cif.got.tgz:28912.got - 2010.04.16 15:46:19.
