data_PCOD8301103
_publ_section_title
;
Structure prediction by ZEFSAII (Michael W. Deem and Ramdas Pophale) SiO2 
 PCOD8301103
Probable space group: I M M A
;
_chemical_formula_sum "Si O2"
_cell_formula_units_Z 64
_cell_length_a 7.541639
_cell_length_b 12.028901
_cell_length_c 34.572156
_cell_angle_alpha 90.000000
_cell_angle_beta 90.000000
_cell_angle_gamma 90.000000
_cell_volume 3136.304019
_symmetry_space_group_name_H-M "I M M A"
_symmetry_group_IT_number 74
_symmetry_cell_setting 'orthorhombic'
loop_
_space_group_symop_operation_xyz
x,y,z
-x,1/2-y,z
x,-y,-z
-x,1/2+y,-z
-x,-y,-z
x,1/2+y,-z
-x,y,z
x,1/2-y,z
1/2+x,1/2+y,1/2+z
1/2-x,-y,1/2+z
1/2+x,1/2-y,1/2-z
1/2-x,y,1/2-z
1/2-x,1/2-y,1/2-z
1/2+x,y,1/2-z
1/2-x,1/2+y,1/2+z
1/2+x,-y,1/2+z
loop_
_atom_site_type_symbol
_atom_site_label
_atom_site_fract_x
_atom_site_fract_y
_atom_site_fract_z
Si Si1 0.500000 0.932548 0.039418
Si Si2 0.000000 0.879564 0.603806
Si Si3 0.800000 0.874062 0.835780
Si Si4 0.721233 0.750000 0.439382
Si Si5 0.307883 0.250000 0.646008
Si Si6 0.297147 0.923995 0.207289
O O1 0.317947 0.858906 0.042190
O O2 0.500000 0.032191 0.070096
O O3 0.500000 0.000000 0.000000
O O4 0.173702 0.906011 0.628979
O O5 0.000000 0.750000 0.589533
O O6 0.761104 0.750000 0.821281
O O7 0.000000 0.888458 0.850812
O O8 0.763055 0.949029 0.797956
O O9 0.500000 0.750000 0.445713
O O10 0.796315 0.750000 0.394594
O O11 0.500000 0.250000 0.627884
O O12 0.291995 0.142960 0.672868
O O13 0.500000 0.904264 0.200470
O O14 0.250000 0.880950 0.250000
#
# Coordination Sequence:
#
# PCOD8301103 Si02
#       6
#     8   8  16   8   8  16
#     4  11  25  42  72 103 135 172 220 268 331 405
#     4  10  21  39  66  95 129 171 218 275 333 395
#     4  10  21  39  61  88 121 162 217 268 320 390
#     4  10  25  46  71 101 137 181 217 266 333 396
#     4  11  23  41  64  89 122 166 220 261 311 392
#     4  12  24  37  57  86 125 167 214 274 330 373
#
# _framework density 20.406185000000001
#
# number of rings (size 3 to 8) (size 9 to 14) (size 15 to 20)
#    0.000    1.250    1.250    4.500    5.250    4.000 
#    0.000    0.000    0.000    0.000    0.000    0.000 
#    0.000    0.000    0.000    0.000    0.000    0.000 
#
# Total GULP energy -396463.747549 kJ/mol
# GULP energy per Si atom -12389.492111 kJ/mol
# Density = 2.035974 g / cm^3
# Si number density = 20.406185 Si / 1000 Ang^3
#
#
#
# Elastic Constant Matrix: (Units=GPa)
#
#
# Indices 1 2 3 4 5 6 
#
# 1 114.5307 28.9141 30.2979 0.0000 0.0000 0.0000
# 2 28.9141 114.4509 59.8973 0.0000 0.0000 0.0000
# 3 30.2979 59.8973 117.1963 0.0000 0.0000 0.0000
# 4 0.0000 0.0000 0.0000 41.7871 0.0000 0.0000
# 5 0.0000 0.0000 0.0000 0.0000 19.7296 0.0000
# 6 0.0000 0.0000 0.0000 0.0000 0.0000 31.7551
#
#
#
# Elastic Compliance Matrix: (Units=1/GPa)
#
#
# Indices 1 2 3 4 5 6 
#
# 1 0.009565 -0.001532 -0.001690 0.000000 0.000000 0.000000
# 2 -0.001532 0.012173 -0.005825 0.000000 0.000000 0.000000
# 3 -0.001690 -0.005825 0.011947 0.000000 0.000000 0.000000
# 4 0.000000 0.000000 0.000000 0.023931 0.000000 0.000000
# 5 0.000000 0.000000 0.000000 0.000000 0.050685 0.000000
# 6 0.000000 0.000000 0.000000 0.000000 0.000000 0.031491
#
#
# Mechanical properties :
#
#
# Convention : Reuss Voigt Hill
#
# Bulk Modulus (GPa) = 64.14185 64.93294 64.53740
# Shear Modulus (GPa) = 30.65912 33.79225 32.22568
#
# Velocity S-wave (km/s) = 3.88034 4.07379 3.97824
# Velocity P-wave (km/s) = 7.18170 7.34962 7.26615
#
# Compressibility (1/GPa) = 0.01559045
#
# Stress axis : x y z
#
# Youngs Moduli (GPa) = 104.54684 82.14799 83.70425
#
# Poissons Ratio (x) = 0.12586 0.14144
# Poissons Ratio (y) = 0.16018 0.48761
# Poissons Ratio (z) = 0.17666 0.47855
#
# Static dielectric constant tensor:
#      x y z
#    x 4.062130 0.000000 0.000000 
#    y 0.000000 3.937070 0.000000 
#    z 0.000000 0.000000 3.432880 
# 
# 
# High freq. dielectric constant tensor:
#      x y z
#    x 1.814080 0.000000 0.000000 
#    y 0.000000 1.814920 0.000000 
#    z 0.000000 0.000000 1.777970 
# 
# From -- ./inp_files/69826.got.cif
#   From: 2010.03.12/outbox.cif.g09.slc.cpg/sg74_35_cif.got.tgz:69826.got - 2010.04.16 15:46:19.
