data_PCOD8301633
_publ_section_title
;
Structure prediction by ZEFSAII (Michael W. Deem and Ramdas Pophale) SiO2 
 PCOD8301633
Probable space group: I M M A
;
_chemical_formula_sum "Si O2"
_cell_formula_units_Z 72
_cell_length_a 8.782069
_cell_length_b 17.773137
_cell_length_c 23.435706
_cell_angle_alpha 90.000000
_cell_angle_beta 90.000000
_cell_angle_gamma 90.000000
_cell_volume 3657.960190
_symmetry_space_group_name_H-M "I M M A"
_symmetry_group_IT_number 74
_symmetry_cell_setting 'orthorhombic'
loop_
_space_group_symop_operation_xyz
x,y,z
-x,1/2-y,z
x,-y,-z
-x,1/2+y,-z
-x,-y,-z
x,1/2+y,-z
-x,y,z
x,1/2-y,z
1/2+x,1/2+y,1/2+z
1/2-x,-y,1/2+z
1/2+x,1/2-y,1/2-z
1/2-x,y,1/2-z
1/2-x,1/2-y,1/2-z
1/2+x,y,1/2-z
1/2-x,1/2+y,1/2+z
1/2+x,-y,1/2+z
loop_
_atom_site_type_symbol
_atom_site_label
_atom_site_fract_x
_atom_site_fract_y
_atom_site_fract_z
Si Si1 0.176286 0.835524 0.502100
Si Si2 0.680592 0.471702 0.688039
Si Si3 0.678873 0.333779 0.613746
Si Si4 0.320298 0.390717 0.124011
Si Si5 0.319264 0.750000 0.687752
O O1 0.226008 0.750000 0.516014
O O2 0.263031 0.866320 0.446575
O O3 0.216248 0.886449 0.556647
O O4 0.000000 0.839790 0.487332
O O5 0.500000 0.483706 0.690285
O O6 0.750000 0.483000 0.750000
O O7 0.726829 0.389149 0.664946
O O8 0.755228 0.530831 0.645380
O O9 0.500000 0.329245 0.609464
O O10 0.747079 0.250000 0.625595
O O11 0.500000 0.384089 0.135837
O O12 0.235982 0.323815 0.155739
O O13 0.500000 0.750000 0.691616
O O14 0.250000 0.750000 0.750000
#
# Coordination Sequence:
#
# PCOD8301633 Si02
#       5
#    16  16  16  16   8
#     4   9  18  35  59  87 118 151 192 237 284 344
#     4  11  24  41  59  84 117 153 198 246 296 351
#     4   9  20  39  62  87 116 151 192 242 297 354
#     4  11  22  39  60  85 120 157 196 240 289 344
#     4  12  24  38  58  84 116 158 203 242 287 340
#
# _framework density 19.683101000000001
#
# number of rings (size 3 to 8) (size 9 to 14) (size 15 to 20)
#    0.000    1.778    1.111    3.000    0.000    4.889 
#    0.000    4.444    0.000    0.000    0.000    0.000 
#    0.000    0.000    0.000    0.000    0.000    0.000 
#
# Total GULP energy -446453.625556 kJ/mol
# GULP energy per Si atom -12401.489599 kJ/mol
# Density = 1.963830 g / cm^3
# Si number density = 19.683101 Si / 1000 Ang^3
#
#
#
# Elastic Constant Matrix: (Units=GPa)
#
#
# Indices 1 2 3 4 5 6 
#
# 1 72.4829 36.6260 20.2277 0.0000 0.0000 0.0000
# 2 36.6260 85.2458 34.7735 0.0000 0.0000 0.0000
# 3 20.2277 34.7735 66.2225 0.0000 0.0000 0.0000
# 4 0.0000 0.0000 0.0000 35.5739 0.0000 0.0000
# 5 0.0000 0.0000 0.0000 0.0000 35.3113 0.0000
# 6 0.0000 0.0000 0.0000 0.0000 0.0000 -32.6032
#
#
#
# Elastic Compliance Matrix: (Units=1/GPa)
#
#
# Indices 1 2 3 4 5 6 
#
# 1 0.017791 -0.006906 -0.001808 0.000000 0.000000 0.000000
# 2 -0.006906 0.017610 -0.007137 0.000000 0.000000 0.000000
# 3 -0.001808 -0.007137 0.019400 0.000000 0.000000 0.000000
# 4 0.000000 0.000000 0.000000 0.028111 0.000000 0.000000
# 5 0.000000 0.000000 0.000000 0.000000 0.028320 0.000000
# 6 0.000000 0.000000 0.000000 0.000000 0.000000 -0.030672
#
#
# Mechanical properties :
#
#
# Convention : Reuss Voigt Hill
#
# Bulk Modulus (GPa) = 43.29337 45.24506 44.26921
# Shear Modulus (GPa) = 41.68030 16.47801 29.07915
#
# Velocity S-wave (km/s) = 4.60670 2.89652 3.84782
# Velocity P-wave (km/s) = 7.09496 5.85005 6.50237
#
# Compressibility (1/GPa) = 0.02309823
#
# Stress axis : x y z
#
# Youngs Moduli (GPa) = 56.20928 56.78739 51.54510
#
# Poissons Ratio (x) = 0.39220 0.09317
# Poissons Ratio (y) = 0.38820 0.36789
# Poissons Ratio (z) = 0.10160 0.40530
#
# Static dielectric constant tensor:
#      x y z
#    x 3.633010 0.000000 0.000000 
#    y 0.000000 4.245050 0.000000 
#    z 0.000000 0.000000 3.692590 
# 
# 
# High freq. dielectric constant tensor:
#      x y z
#    x 1.770090 0.000000 0.000000 
#    y 0.000000 1.766900 0.000000 
#    z 0.000000 0.000000 1.775460 
# 
# From -- ./inp_files/56669.got.cif
#   From: 2010.03.12/outbox.cif.g09.slc.cpg/sg74_29_cif.got.tgz:56669.got - 2010.04.16 15:46:19.
