data_PCOD8301569
_publ_section_title
;
Structure prediction by ZEFSAII (Michael W. Deem and Ramdas Pophale) SiO2 
 PCOD8301569
Probable space group: I M M A
;
_chemical_formula_sum "Si O2"
_cell_formula_units_Z 88
_cell_length_a 8.585853
_cell_length_b 17.663334
_cell_length_c 28.908855
_cell_angle_alpha 90.000000
_cell_angle_beta 90.000000
_cell_angle_gamma 90.000000
_cell_volume 4384.166311
_symmetry_space_group_name_H-M "I M M A"
_symmetry_group_IT_number 74
_symmetry_cell_setting 'orthorhombic'
loop_
_space_group_symop_operation_xyz
x,y,z
-x,1/2-y,z
x,-y,-z
-x,1/2+y,-z
-x,-y,-z
x,1/2+y,-z
-x,y,z
x,1/2-y,z
1/2+x,1/2+y,1/2+z
1/2-x,-y,1/2+z
1/2+x,1/2-y,1/2-z
1/2-x,y,1/2-z
1/2-x,1/2-y,1/2-z
1/2+x,y,1/2-z
1/2-x,1/2+y,1/2+z
1/2+x,-y,1/2+z
loop_
_atom_site_type_symbol
_atom_site_label
_atom_site_fract_x
_atom_site_fract_y
_atom_site_fract_z
Si Si1 0.314527 0.834666 0.547750
Si Si2 0.816665 0.026028 0.700450
Si Si3 0.829342 0.839821 0.050506
Si Si4 0.183672 0.750000 0.698918
Si Si5 0.314451 0.663370 0.349141
Si Si6 0.184191 0.608240 0.855529
O O1 0.500000 0.832719 0.542758
O O2 0.252389 0.750000 0.558173
O O3 0.245628 0.865337 0.497962
O O4 0.263697 0.887208 0.590555
O O5 0.750000 0.002618 0.750000
O O6 0.770128 0.112087 0.688836
O O7 0.000000 0.015651 0.701150
O O8 0.741255 0.972482 0.662009
O O9 0.847565 0.750000 0.047940
O O10 0.747166 0.859785 0.099518
O O11 0.000000 0.877665 0.052362
O O12 0.250000 0.750000 0.750000
O O13 0.238578 0.675138 0.673066
O O14 0.000000 0.750000 0.701742
O O15 0.500000 0.651665 0.347255
O O16 0.271553 0.750000 0.337610
O O17 0.000000 0.616139 0.850334
#
# Coordination Sequence:
#
# PCOD8301569 Si02
#       6
#    16  16  16   8  16  16
#     4   8  13  25  50  85 117 147 186 231 273 316
#     4  12  26  43  60  80 110 149 189 237 293 348
#     4   7  11  23  49  85 118 144 178 226 272 318
#     4  12  24  38  56  80 112 150 196 242 287 340
#     4   9  18  36  63  92 117 144 183 232 281 336
#     4  11  21  37  59  85 115 150 193 240 285 331
#
# _framework density 20.072232
#
# number of rings (size 3 to 8) (size 9 to 14) (size 15 to 20)
#    0.000    2.364    0.909    5.727    0.000    0.727 
#    0.000    0.909    0.000    7.636    0.000    0.000 
#    0.000    0.000    0.000    0.000    0.000    0.000 
#
# Total GULP energy -545172.192047 kJ/mol
# GULP energy per Si atom -12390.277092 kJ/mol
# Density = 2.002655 g / cm^3
# Si number density = 20.072232 Si / 1000 Ang^3
#
#
#
# Elastic Constant Matrix: (Units=GPa)
#
#
# Indices 1 2 3 4 5 6 
#
# 1 71.3790 13.4531 15.9867 0.0000 0.0000 0.0000
# 2 13.4531 63.2091 16.2003 0.0000 0.0000 0.0000
# 3 15.9867 16.2003 76.6828 0.0000 0.0000 0.0000
# 4 0.0000 0.0000 0.0000 29.2217 0.0000 0.0000
# 5 0.0000 0.0000 0.0000 0.0000 17.5051 0.0000
# 6 0.0000 0.0000 0.0000 0.0000 0.0000 25.6251
#
#
#
# Elastic Compliance Matrix: (Units=1/GPa)
#
#
# Indices 1 2 3 4 5 6 
#
# 1 0.015072 -0.002540 -0.002606 0.000000 0.000000 0.000000
# 2 -0.002540 0.017154 -0.003095 0.000000 0.000000 0.000000
# 3 -0.002606 -0.003095 0.014238 0.000000 0.000000 0.000000
# 4 0.000000 0.000000 0.000000 0.034221 0.000000 0.000000
# 5 0.000000 0.000000 0.000000 0.000000 0.057126 0.000000
# 6 0.000000 0.000000 0.000000 0.000000 0.000000 0.039024
#
#
# Mechanical properties :
#
#
# Convention : Reuss Voigt Hill
#
# Bulk Modulus (GPa) = 33.35150 33.61680 33.48415
# Shear Modulus (GPa) = 24.59295 25.51244 25.05269
#
# Velocity S-wave (km/s) = 3.50412 3.56902 3.53672
# Velocity P-wave (km/s) = 5.74661 5.81104 5.77892
#
# Compressibility (1/GPa) = 0.02998366
#
# Stress axis : x y z
#
# Youngs Moduli (GPa) = 66.34807 58.29465 70.23605
#
# Poissons Ratio (x) = 0.14807 0.18301
# Poissons Ratio (y) = 0.16853 0.21735
# Poissons Ratio (z) = 0.17287 0.18039
#
# Static dielectric constant tensor:
#      x y z
#    x 3.247960 0.000000 0.000000 
#    y 0.000000 3.445500 0.000000 
#    z 0.000000 0.000000 4.236200 
# 
# 
# High freq. dielectric constant tensor:
#      x y z
#    x 1.739190 0.000000 0.000000 
#    y 0.000000 1.759230 0.000000 
#    z 0.000000 0.000000 1.811120 
# 
# From -- ./inp_files/70238.got.cif
#   From: 2010.03.12/outbox.cif.g09.slc.cpg/sg74_36_cif.got.tgz:70238.got - 2010.04.16 15:46:19.
