data_PCOD8301846
_publ_section_title
;
Structure prediction by ZEFSAII (Michael W. Deem and Ramdas Pophale) SiO2 
 PCOD8301846
Probable space group: P 4
;
_chemical_formula_sum "Si O2"
_cell_formula_units_Z 24
_cell_length_a 10.624108
_cell_length_b 10.624108
_cell_length_c 10.173844
_cell_angle_alpha 90.000000
_cell_angle_beta 90.000000
_cell_angle_gamma 90.000000
_cell_volume 1148.338771
_symmetry_space_group_name_H-M "P 4"
_symmetry_group_IT_number 75
_symmetry_cell_setting 'tetragonal'
loop_
_space_group_symop_operation_xyz
x,y,z
-y,x,z
-x,-y,z
y,-x,z
loop_
_atom_site_type_symbol
_atom_site_label
_atom_site_fract_x
_atom_site_fract_y
_atom_site_fract_z
Si Si1 0.005730 0.207255 0.664510
Si Si2 0.638104 0.950756 0.910421
Si Si3 0.314343 0.584261 0.512377
Si Si4 0.991902 0.206768 0.165505
Si Si5 0.361658 0.050138 0.415893
Si Si6 0.314224 0.584049 0.817981
O O1 0.010887 0.316518 0.773203
O O2 0.012301 0.267347 0.520417
O O3 0.127715 0.121212 0.682755
O O4 0.636353 0.799196 0.905149
O O5 0.500000 0.000000 0.942946
O O6 0.734833 0.993481 0.021166
O O7 0.336111 0.438107 0.477754
O O8 0.201346 0.639111 0.426539
O O9 0.279307 0.598047 0.665143
O O10 0.988444 0.318177 0.271246
O O11 0.118883 0.128752 0.185129
O O12 0.500000 0.000000 0.444537
O O13 0.336205 0.437796 0.852347
#
# Coordination Sequence:
#
# PCOD8301846 Si02
#       6
#     4   4   4   4   4   4
#     4  11  25  42  66 101 136 174 216 269 319 376
#     4  12  25  40  69  99 128 165 222 270 322 379
#     4   9  20  38  62  96 137 174 203 255 329 384
#     4  11  27  50  68  87 128 180 214 265 333 394
#     4  12  25  40  69  99 128 165 222 270 322 379
#     4   9  20  38  62  96 137 174 203 255 329 384
#
# _framework density 20.899757000000001
#
# number of rings (size 3 to 8) (size 9 to 14) (size 15 to 20)
#    0.000    1.333    1.667    4.000    9.333    2.667 
#    0.000    0.000    0.000    2.000    0.000    0.000 
#    0.000    0.000    0.000    0.000    0.000    0.000 
#
# Total GULP energy -297777.125731 kJ/mol
# GULP energy per Si atom -12407.380239 kJ/mol
# Density = 2.085219 g / cm^3
# Si number density = 20.899757 Si / 1000 Ang^3
#
#
#
# Elastic Constant Matrix: (Units=GPa)
#
#
# Indices 1 2 3 4 5 6 
#
# 1 71.6258 17.4055 17.0297 0.0000 0.0000 -0.8534
# 2 17.4055 71.6258 17.0297 0.0000 0.0000 0.8534
# 3 17.0297 17.0297 75.8158 0.0000 0.0000 0.0000
# 4 0.0000 0.0000 0.0000 31.0910 0.0000 0.0000
# 5 0.0000 0.0000 0.0000 0.0000 31.0910 0.0000
# 6 -0.8534 0.8534 0.0000 0.0000 0.0000 20.4910
#
#
#
# Elastic Compliance Matrix: (Units=1/GPa)
#
#
# Indices 1 2 3 4 5 6 
#
# 1 0.015378 -0.003090 -0.002760 0.000000 0.000000 0.000769
# 2 -0.003090 0.015378 -0.002760 0.000000 0.000000 -0.000769
# 3 -0.002760 -0.002760 0.014430 0.000000 0.000000 0.000000
# 4 0.000000 0.000000 0.000000 0.032164 0.000000 0.000000
# 5 0.000000 0.000000 0.000000 0.000000 0.032164 0.000000
# 6 0.000769 -0.000769 0.000000 0.000000 0.000000 0.048866
#
#
# Mechanical properties :
#
#
# Convention : Reuss Voigt Hill
#
# Bulk Modulus (GPa) = 35.75874 35.77748 35.76811
# Shear Modulus (GPa) = 27.03868 27.70807 27.37337
#
# Velocity S-wave (km/s) = 3.60075 3.64505 3.62297
# Velocity P-wave (km/s) = 5.86805 5.90516 5.88664
#
# Compressibility (1/GPa) = 0.02796519
#
# Stress axis : x y z
#
# Youngs Moduli (GPa) = 65.02921 65.02921 69.30094
#
# Poissons Ratio (x) = 0.20093 0.19128
# Poissons Ratio (y) = 0.20093 0.19128
# Poissons Ratio (z) = 0.17949 0.17949
#
# Static dielectric constant tensor:
#      x y z
#    x 3.854410 0.000000 0.000000 
#    y 0.000000 3.854410 0.000000 
#    z 0.000000 0.000000 3.460560 
# 
# 
# High freq. dielectric constant tensor:
#      x y z
#    x 1.832350 0.000000 0.000000 
#    y 0.000000 1.832350 0.000000 
#    z 0.000000 0.000000 1.794950 
# 
# From -- ./inp_files/345.got.cif
#   From: 2010.03.12/outbox.cif.g09.slc.cpg/sg75_cif.got.tgz:345.got - 2010.04.16 16:33:55.
