data_PCOD8301208
_publ_section_title
;
Structure prediction by ZEFSAII (Michael W. Deem and Ramdas Pophale) SiO2 
 PCOD8301208
Probable space group: I M M A
;
_chemical_formula_sum "Si O2"
_cell_formula_units_Z 104
_cell_length_a 26.585163
_cell_length_b 21.156186
_cell_length_c 9.488345
_cell_angle_alpha 90.000000
_cell_angle_beta 90.000000
_cell_angle_gamma 90.000000
_cell_volume 5336.630960
_symmetry_space_group_name_H-M "I M M A"
_symmetry_group_IT_number 74
_symmetry_cell_setting 'orthorhombic'
loop_
_space_group_symop_operation_xyz
x,y,z
-x,1/2-y,z
x,-y,-z
-x,1/2+y,-z
-x,-y,-z
x,1/2+y,-z
-x,y,z
x,1/2-y,z
1/2+x,1/2+y,1/2+z
1/2-x,-y,1/2+z
1/2+x,1/2-y,1/2-z
1/2-x,y,1/2-z
1/2-x,1/2-y,1/2-z
1/2+x,y,1/2-z
1/2-x,1/2+y,1/2+z
1/2+x,-y,1/2+z
loop_
_atom_site_type_symbol
_atom_site_label
_atom_site_fract_x
_atom_site_fract_y
_atom_site_fract_z
Si Si1 0.000000 0.678324 0.359511
Si Si2 0.392270 0.584631 0.816722
Si Si3 0.841437 0.820082 0.488848
Si Si4 0.246045 0.894989 0.410607
Si Si5 0.143250 0.075270 0.009220
Si Si6 0.396879 0.821596 0.297917
Si Si7 0.674310 0.000000 0.000000
Si Si8 0.500000 0.065934 0.082583
O O1 0.047716 0.668180 0.260878
O O2 0.000000 0.750000 0.423633
O O3 0.000000 0.626388 0.481103
O O4 0.372934 0.599595 0.661555
O O5 0.360888 0.526669 0.878201
O O6 0.451378 0.568698 0.816716
O O7 0.381635 0.644176 0.915539
O O8 0.844744 0.750000 0.545040
O O9 0.783320 0.842356 0.503224
O O10 0.856396 0.827960 0.326110
O O11 0.250000 0.871708 0.250000
O O12 0.297939 0.911904 0.485614
O O13 0.209153 0.954374 0.410043
O O14 0.112297 0.120393 0.904130
O O15 0.130813 0.000000 0.000000
O O16 0.391933 0.750000 0.364100
O O17 0.500000 0.000000 0.000000
#
# Coordination Sequence:
#
# PCOD8301208 Si02
#       8
#     8  16  16  16  16  16   8   8
#     4  10  22  43  73  97 125 177 232 270 320 401
#     4  11  25  41  63  93 134 165 216 276 335 386
#     4  10  22  40  66  94 123 168 227 273 320 394
#     4  11  21  37  62  88 126 173 219 260 319 397
#     4  12  26  41  63  99 139 176 214 271 338 394
#     4  10  22  43  68  96 129 175 225 276 326 394
#     4  10  22  37  58  86 124 171 212 264 316 392
#     4  12  24  39  69 100 129 174 221 277 342 396
#
# _framework density 19.487950000000001
#
# number of rings (size 3 to 8) (size 9 to 14) (size 15 to 20)
#    0.000    1.231    4.615    0.923    4.308    4.000 
#    0.000    1.538    0.000    0.000    0.000    0.000 
#    0.000    0.000    0.000    0.000    0.000    0.000 
#
# Total GULP energy -644586.988846 kJ/mol
# GULP energy per Si atom -12395.903632 kJ/mol
# Density = 1.944359 g / cm^3
# Si number density = 19.487950 Si / 1000 Ang^3
#
#
#
# Elastic Constant Matrix: (Units=GPa)
#
#
# Indices 1 2 3 4 5 6 
#
# 1 141.6584 42.2507 39.8703 0.0000 0.0000 0.0000
# 2 42.2507 114.9997 38.9733 0.0000 0.0000 0.0000
# 3 39.8703 38.9733 82.9229 0.0000 0.0000 0.0000
# 4 0.0000 0.0000 0.0000 30.4897 0.0000 0.0000
# 5 0.0000 0.0000 0.0000 0.0000 29.4912 0.0000
# 6 0.0000 0.0000 0.0000 0.0000 0.0000 45.6459
#
#
#
# Elastic Compliance Matrix: (Units=1/GPa)
#
#
# Indices 1 2 3 4 5 6 
#
# 1 0.008564 -0.002083 -0.003139 0.000000 0.000000 0.000000
# 2 -0.002083 0.010850 -0.004098 0.000000 0.000000 0.000000
# 3 -0.003139 -0.004098 0.015495 0.000000 0.000000 0.000000
# 4 0.000000 0.000000 0.000000 0.032798 0.000000 0.000000
# 5 0.000000 0.000000 0.000000 0.000000 0.033908 0.000000
# 6 0.000000 0.000000 0.000000 0.000000 0.000000 0.021908
#
#
# Mechanical properties :
#
#
# Convention : Reuss Voigt Hill
#
# Bulk Modulus (GPa) = 61.46511 64.64107 63.05309
# Shear Modulus (GPa) = 33.87905 35.69113 34.78509
#
# Velocity S-wave (km/s) = 4.17401 4.28418 4.22945
# Velocity P-wave (km/s) = 7.40529 7.59698 7.50175
#
# Compressibility (1/GPa) = 0.01626939
#
# Stress axis : x y z
#
# Youngs Moduli (GPa) = 116.77050 92.16922 64.53878
#
# Poissons Ratio (x) = 0.19195 0.20257
# Poissons Ratio (y) = 0.24319 0.26447
# Poissons Ratio (z) = 0.36651 0.37770
#
# Static dielectric constant tensor:
#      x y z
#    x 3.836300 0.000000 0.000000 
#    y 0.000000 5.280540 0.000000 
#    z 0.000000 0.000000 3.211790 
# 
# 
# High freq. dielectric constant tensor:
#      x y z
#    x 1.776240 0.000000 0.000000 
#    y 0.000000 1.770660 0.000000 
#    z 0.000000 0.000000 1.736790 
# 
# From -- ./inp_files/15259.got.cif
#   From: 2010.03.12/outbox.cif.g09.slc.cpg/sg74_8_cif.got.tgz:15259.got - 2010.04.16 15:46:19.
