data_PCOD8301684
_publ_section_title
;
Structure prediction by ZEFSAII (Michael W. Deem and Ramdas Pophale) SiO2 
 PCOD8301684
Probable space group: I M M A
;
_chemical_formula_sum "Si O2"
_cell_formula_units_Z 48
_cell_length_a 19.367710
_cell_length_b 12.317689
_cell_length_c 10.108194
_cell_angle_alpha 90.000000
_cell_angle_beta 90.000000
_cell_angle_gamma 90.000000
_cell_volume 2411.465632
_symmetry_space_group_name_H-M "I M M A"
_symmetry_group_IT_number 74
_symmetry_cell_setting 'orthorhombic'
loop_
_space_group_symop_operation_xyz
x,y,z
-x,1/2-y,z
x,-y,-z
-x,1/2+y,-z
-x,-y,-z
x,1/2+y,-z
-x,y,z
x,1/2-y,z
1/2+x,1/2+y,1/2+z
1/2-x,-y,1/2+z
1/2+x,1/2-y,1/2-z
1/2-x,y,1/2-z
1/2-x,1/2-y,1/2-z
1/2+x,y,1/2-z
1/2-x,1/2+y,1/2+z
1/2+x,-y,1/2+z
loop_
_atom_site_type_symbol
_atom_site_label
_atom_site_fract_x
_atom_site_fract_y
_atom_site_fract_z
Si Si1 0.679155 0.128604 0.198304
Si Si2 0.419676 0.023095 0.647678
Si Si3 0.144989 0.750000 0.176625
Si Si4 0.214379 0.750000 0.457078
O O1 0.669804 0.250000 0.262087
O O2 0.750000 0.074506 0.250000
O O3 0.616793 0.051864 0.241792
O O4 0.687879 0.143153 0.038685
O O5 0.500000 0.996931 0.661230
O O6 0.392419 0.000000 0.500000
O O7 0.405359 0.148204 0.672891
O O8 0.182422 0.750000 0.315230
O O9 0.202036 0.750000 0.059111
#
# Coordination Sequence:
#
# PCOD8301684 Si02
#       4
#    16  16   8   8
#     4   9  20  41  65  93 121 163 218 259 316 379
#     4  11  25  41  65  93 130 173 212 270 328 394
#     4  11  23  42  61  98 130 162 215 268 329 375
#     4   9  21  40  65  94 121 169 211 269 313 379
#
# _framework density 19.904909
#
# number of rings (size 3 to 8) (size 9 to 14) (size 15 to 20)
#    1.000    1.000    0.000    2.500    7.000    2.000 
#    0.000    5.000    0.000    0.000    0.000    0.000 
#    0.000    0.000    0.000    0.000    0.000    0.000 
#
# Total GULP energy -297425.441632 kJ/mol
# GULP energy per Si atom -12392.726735 kJ/mol
# Density = 1.985960 g / cm^3
# Si number density = 19.904909 Si / 1000 Ang^3
#
#
#
# Elastic Constant Matrix: (Units=GPa)
#
#
# Indices 1 2 3 4 5 6 
#
# 1 89.8496 37.4190 37.9312 0.0000 0.0000 0.0000
# 2 37.4190 95.8308 26.0354 0.0000 0.0000 0.0000
# 3 37.9312 26.0354 105.1862 0.0000 0.0000 0.0000
# 4 0.0000 0.0000 0.0000 32.3999 0.0000 0.0000
# 5 0.0000 0.0000 0.0000 0.0000 26.9430 0.0000
# 6 0.0000 0.0000 0.0000 0.0000 0.0000 59.5251
#
#
#
# Elastic Compliance Matrix: (Units=1/GPa)
#
#
# Indices 1 2 3 4 5 6 
#
# 1 0.014841 -0.004654 -0.004200 0.000000 0.000000 0.000000
# 2 -0.004654 0.012647 -0.001452 0.000000 0.000000 0.000000
# 3 -0.004200 -0.001452 0.011381 0.000000 0.000000 0.000000
# 4 0.000000 0.000000 0.000000 0.030864 0.000000 0.000000
# 5 0.000000 0.000000 0.000000 0.000000 0.037115 0.000000
# 6 0.000000 0.000000 0.000000 0.000000 0.000000 0.016800
#
#
# Mechanical properties :
#
#
# Convention : Reuss Voigt Hill
#
# Bulk Modulus (GPa) = 54.77376 54.84865 54.81121
# Shear Modulus (GPa) = 33.25681 36.40566 34.83123
#
# Velocity S-wave (km/s) = 4.09196 4.28130 4.18770
# Velocity P-wave (km/s) = 7.06420 7.21488 7.13994
#
# Compressibility (1/GPa) = 0.01825692
#
# Stress axis : x y z
#
# Youngs Moduli (GPa) = 67.38132 79.07165 87.86675
#
# Poissons Ratio (x) = 0.36799 0.36903
# Poissons Ratio (y) = 0.31359 0.12759
# Poissons Ratio (z) = 0.28299 0.11482
#
# Static dielectric constant tensor:
#      x y z
#    x 3.482100 0.000000 0.000000 
#    y 0.000000 3.516730 0.000000 
#    z 0.000000 0.000000 3.604100 
# 
# 
# High freq. dielectric constant tensor:
#      x y z
#    x 1.766990 0.000000 0.000000 
#    y 0.000000 1.769780 0.000000 
#    z 0.000000 0.000000 1.780030 
# 
# From -- ./inp_files/21385.got.cif
#   From: 2010.03.12/outbox.cif.g09.slc.cpg/sg74_11_cif.got.tgz:21385.got - 2010.04.16 15:46:19.
