data_PCOD8301661
_publ_section_title
;
Structure prediction by ZEFSAII (Michael W. Deem and Ramdas Pophale) SiO2 
 PCOD8301661
Probable space group: I M M A
;
_chemical_formula_sum "Si O2"
_cell_formula_units_Z 72
_cell_length_a 8.957587
_cell_length_b 17.588010
_cell_length_c 23.012933
_cell_angle_alpha 90.000000
_cell_angle_beta 90.000000
_cell_angle_gamma 90.000000
_cell_volume 3625.598528
_symmetry_space_group_name_H-M "I M M A"
_symmetry_group_IT_number 74
_symmetry_cell_setting 'orthorhombic'
loop_
_space_group_symop_operation_xyz
x,y,z
-x,1/2-y,z
x,-y,-z
-x,1/2+y,-z
-x,-y,-z
x,1/2+y,-z
-x,y,z
x,1/2-y,z
1/2+x,1/2+y,1/2+z
1/2-x,-y,1/2+z
1/2+x,1/2-y,1/2-z
1/2-x,y,1/2-z
1/2-x,1/2-y,1/2-z
1/2+x,y,1/2-z
1/2-x,1/2+y,1/2+z
1/2+x,-y,1/2+z
loop_
_atom_site_type_symbol
_atom_site_label
_atom_site_fract_x
_atom_site_fract_y
_atom_site_fract_z
Si Si1 0.827437 0.967918 0.190567
Si Si2 0.329509 0.161092 0.008206
Si Si3 0.672905 0.884090 0.618470
Si Si4 0.822820 0.750000 0.687224
Si Si5 0.174203 0.837157 0.376452
O O1 0.750000 0.993068 0.250000
O O2 0.765421 0.888180 0.167968
O O3 0.000000 0.957352 0.203953
O O4 0.796872 0.032321 0.142936
O O5 0.500000 0.134940 0.017686
O O6 0.314428 0.250000 0.022175
O O7 0.222063 0.114571 0.051150
O O8 0.278095 0.143996 0.942536
O O9 0.500000 0.860644 0.623962
O O10 0.773506 0.824832 0.653214
O O11 0.750000 0.750000 0.750000
O O12 0.000000 0.750000 0.693579
O O13 0.211926 0.750000 0.361913
O O14 0.000000 0.853272 0.368289
#
# Coordination Sequence:
#
# PCOD8301661 Si02
#       5
#    16  16  16   8  16
#     4  11  25  42  60  85 118 156 200 248 299 354
#     4   9  18  35  60  90 121 156 198 240 288 349
#     4  11  23  38  58  87 121 158 199 244 294 348
#     4  12  24  38  58  84 116 158 205 246 291 350
#     4   9  20  40  65  91 119 153 196 243 295 357
#
# _framework density 19.858789999999999
#
# number of rings (size 3 to 8) (size 9 to 14) (size 15 to 20)
#    0.000    1.778    1.111    4.333    0.000    8.000 
#    0.000    6.667    0.000    0.000    0.000    0.000 
#    0.000    0.000    0.000    0.000    0.000    0.000 
#
# Total GULP energy -446566.977151 kJ/mol
# GULP energy per Si atom -12404.638254 kJ/mol
# Density = 1.981359 g / cm^3
# Si number density = 19.858790 Si / 1000 Ang^3
#
#
#
# Elastic Constant Matrix: (Units=GPa)
#
#
# Indices 1 2 3 4 5 6 
#
# 1 104.7945 45.9947 33.6040 0.0000 0.0000 0.0000
# 2 45.9947 78.9323 23.6422 0.0000 0.0000 0.0000
# 3 33.6040 23.6422 64.7732 0.0000 0.0000 0.0000
# 4 0.0000 0.0000 0.0000 27.3799 0.0000 0.0000
# 5 0.0000 0.0000 0.0000 0.0000 40.7324 0.0000
# 6 0.0000 0.0000 0.0000 0.0000 0.0000 27.3205
#
#
#
# Elastic Compliance Matrix: (Units=1/GPa)
#
#
# Indices 1 2 3 4 5 6 
#
# 1 0.014049 -0.006740 -0.004828 0.000000 0.000000 0.000000
# 2 -0.006740 0.017458 -0.002875 0.000000 0.000000 0.000000
# 3 -0.004828 -0.002875 0.018993 0.000000 0.000000 0.000000
# 4 0.000000 0.000000 0.000000 0.036523 0.000000 0.000000
# 5 0.000000 0.000000 0.000000 0.000000 0.024550 0.000000
# 6 0.000000 0.000000 0.000000 0.000000 0.000000 0.036603
#
#
# Mechanical properties :
#
#
# Convention : Reuss Voigt Hill
#
# Bulk Modulus (GPa) = 46.27074 50.55355 48.41215
# Shear Modulus (GPa) = 27.13435 28.77051 27.95243
#
# Velocity S-wave (km/s) = 3.70045 3.81038 3.75582
# Velocity P-wave (km/s) = 6.45044 6.69854 6.57566
#
# Compressibility (1/GPa) = 0.02161193
#
# Stress axis : x y z
#
# Youngs Moduli (GPa) = 71.17862 57.28039 52.65123
#
# Poissons Ratio (x) = 0.38609 0.25422
# Poissons Ratio (y) = 0.47977 0.15139
# Poissons Ratio (z) = 0.34368 0.16470
#
# Static dielectric constant tensor:
#      x y z
#    x 3.597970 0.000000 0.000000 
#    y 0.000000 3.511810 0.000000 
#    z 0.000000 0.000000 3.767290 
# 
# 
# High freq. dielectric constant tensor:
#      x y z
#    x 1.775890 0.000000 0.000000 
#    y 0.000000 1.768650 0.000000 
#    z 0.000000 0.000000 1.785280 
# 
# From -- ./inp_files/56672.got.cif
#   From: 2010.03.12/outbox.cif.g09.slc.cpg/sg74_29_cif.got.tgz:56672.got - 2010.04.16 15:46:19.
