data_PCOD8301146
_publ_section_title
;
Structure prediction by ZEFSAII (Michael W. Deem and Ramdas Pophale) SiO2 
 PCOD8301146
Probable space group: I M M A
;
_chemical_formula_sum "Si O2"
_cell_formula_units_Z 88
_cell_length_a 9.084021
_cell_length_b 26.462456
_cell_length_c 19.060751
_cell_angle_alpha 90.000000
_cell_angle_beta 90.000000
_cell_angle_gamma 90.000000
_cell_volume 4581.928274
_symmetry_space_group_name_H-M "I M M A"
_symmetry_group_IT_number 74
_symmetry_cell_setting 'orthorhombic'
loop_
_space_group_symop_operation_xyz
x,y,z
-x,1/2-y,z
x,-y,-z
-x,1/2+y,-z
-x,-y,-z
x,1/2+y,-z
-x,y,z
x,1/2-y,z
1/2+x,1/2+y,1/2+z
1/2-x,-y,1/2+z
1/2+x,1/2-y,1/2-z
1/2-x,y,1/2-z
1/2-x,1/2-y,1/2-z
1/2+x,y,1/2-z
1/2-x,1/2+y,1/2+z
1/2+x,-y,1/2+z
loop_
_atom_site_type_symbol
_atom_site_label
_atom_site_fract_x
_atom_site_fract_y
_atom_site_fract_z
Si Si1 0.172580 0.250000 0.324526
Si Si2 0.830417 0.058536 0.176988
Si Si3 0.330818 0.529108 0.431020
Si Si4 0.672151 0.632966 0.063023
Si Si5 0.671428 0.852008 0.901930
Si Si6 0.333986 0.190101 0.681795
O O1 0.250000 0.250000 0.250000
O O2 0.220851 0.298951 0.368622
O O3 0.000000 0.250000 0.310729
O O4 0.750000 0.052459 0.250000
O O5 0.764556 0.104043 0.132771
O O6 0.000000 0.071096 0.190831
O O7 0.810418 0.006342 0.135978
O O8 0.275245 0.500000 0.500000
O O9 0.500000 0.546132 0.440830
O O10 0.229630 0.577335 0.419485
O O11 0.500000 0.634603 0.078687
O O12 0.751909 0.673196 0.111908
O O13 0.708563 0.649269 0.983958
O O14 0.500000 0.862958 0.888654
O O15 0.500000 0.168571 0.682511
O O16 0.334617 0.250000 0.683068
O O17 0.250000 0.168444 0.750000
#
# Coordination Sequence:
#
# PCOD8301146 Si02
#       6
#     8  16  16  16  16  16
#     4  10  22  40  58  82 117 156 197 242 293 346
#     4  11  23  39  62  88 118 155 196 245 297 354
#     4  10  21  40  61  83 117 158 199 247 297 349
#     4  11  23  37  62  93 123 159 198 249 301 359
#     4  10  22  39  60  87 120 158 199 243 294 352
#     4  10  22  41  64  90 122 160 201 247 299 359
#
# _framework density 19.205887000000001
#
# number of rings (size 3 to 8) (size 9 to 14) (size 15 to 20)
#    0.000    1.636    1.818    2.182    1.273    6.545 
#    0.000    1.818    0.000    0.000    0.000    0.000 
#    0.000    0.000    0.000    0.000    0.000    0.000 
#
# Total GULP energy -545840.724660 kJ/mol
# GULP energy per Si atom -12405.471015 kJ/mol
# Density = 1.916217 g / cm^3
# Si number density = 19.205887 Si / 1000 Ang^3
#
#
#
# Elastic Constant Matrix: (Units=GPa)
#
#
# Indices 1 2 3 4 5 6 
#
# 1 109.5461 44.2830 77.6194 0.0000 0.0000 0.0000
# 2 44.2830 69.1976 38.0341 0.0000 0.0000 0.0000
# 3 77.6194 38.0341 143.4220 -0.0002 0.0003 0.0006
# 4 0.0000 0.0000 -0.0002 32.7433 0.0000 0.0002
# 5 0.0000 0.0000 0.0003 0.0000 18.6208 -0.0002
# 6 0.0000 0.0000 0.0006 0.0002 -0.0002 19.8581
#
#
#
# Elastic Compliance Matrix: (Units=1/GPa)
#
#
# Indices 1 2 3 4 5 6 
#
# 1 0.017230 -0.006908 -0.007493 0.000000 0.000000 0.000000
# 2 -0.006908 0.019687 -0.001482 0.000000 0.000000 0.000000
# 3 -0.007493 -0.001482 0.011421 0.000000 0.000000 0.000000
# 4 0.000000 0.000000 0.000000 0.030541 0.000000 0.000000
# 5 0.000000 0.000000 0.000000 0.000000 0.053703 0.000000
# 6 0.000000 0.000000 0.000000 0.000000 0.000000 0.050357
#
#
# Mechanical properties :
#
#
# Convention : Reuss Voigt Hill
#
# Bulk Modulus (GPa) = 60.34501 71.33763 65.84132
# Shear Modulus (GPa) = 22.70362 25.05972 23.88167
#
# Velocity S-wave (km/s) = 3.44192 3.61611 3.53009
# Velocity P-wave (km/s) = 6.87634 7.39319 7.13944
#
# Compressibility (1/GPa) = 0.01657138
#
# Stress axis : x y z
#
# Youngs Moduli (GPa) = 58.03725 50.79540 87.56043
#
# Poissons Ratio (x) = 0.35090 0.65609
# Poissons Ratio (y) = 0.40092 0.12978
# Poissons Ratio (z) = 0.43487 0.07529
#
# Static dielectric constant tensor:
#      x y z
#    x 3.701940 0.000000 0.000000 
#    y 0.000000 3.494980 0.000000 
#    z 0.000000 0.000000 3.837910 
# 
# 
# High freq. dielectric constant tensor:
#      x y z
#    x 1.755030 0.000000 0.000000 
#    y 0.000000 1.749400 0.000000 
#    z 0.000000 0.000000 1.761930 
# 
# From -- ./inp_files/48689.got.cif
#   From: 2010.03.12/outbox.cif.g09.slc.cpg/sg74_25_cif.got.tgz:48689.got - 2010.04.16 15:46:19.
