data_PCOD8301754
_publ_section_title
;
Structure prediction by ZEFSAII (Michael W. Deem and Ramdas Pophale) SiO2 
 PCOD8301754
Probable space group: I M M A
;
_chemical_formula_sum "Si O2"
_cell_formula_units_Z 64
_cell_length_a 9.991659
_cell_length_b 10.139582
_cell_length_c 41.033871
_cell_angle_alpha 90.000000
_cell_angle_beta 90.000000
_cell_angle_gamma 90.000000
_cell_volume 4157.192589
_symmetry_space_group_name_H-M "I M M A"
_symmetry_group_IT_number 74
_symmetry_cell_setting 'orthorhombic'
loop_
_space_group_symop_operation_xyz
x,y,z
-x,1/2-y,z
x,-y,-z
-x,1/2+y,-z
-x,-y,-z
x,1/2+y,-z
-x,y,z
x,1/2-y,z
1/2+x,1/2+y,1/2+z
1/2-x,-y,1/2+z
1/2+x,1/2-y,1/2-z
1/2-x,y,1/2-z
1/2-x,1/2-y,1/2-z
1/2+x,y,1/2-z
1/2-x,1/2+y,1/2+z
1/2+x,-y,1/2+z
loop_
_atom_site_type_symbol
_atom_site_label
_atom_site_fract_x
_atom_site_fract_y
_atom_site_fract_z
Si Si1 0.159262 0.102606 0.025964
Si Si2 0.851066 0.093220 0.776756
Si Si3 0.340620 0.396986 0.650887
Si Si4 0.840756 0.897500 0.901201
O O1 0.209113 0.250000 0.017170
O O2 0.207290 0.063907 0.062373
O O3 0.000000 0.098371 0.024558
O O4 0.221606 0.000000 0.000000
O O5 0.856826 0.250000 0.774008
O O6 0.750000 0.032717 0.750000
O O7 0.798997 0.054919 0.812896
O O8 0.000000 0.035478 0.770501
O O9 0.500000 0.393034 0.648883
O O10 0.284118 0.250000 0.643696
O O11 0.279281 0.498359 0.624483
O O12 0.790589 0.750000 0.892433
O O13 0.000000 0.901241 0.899646
#
# Coordination Sequence:
#
# PCOD8301754 Si02
#       4
#    16  16  16  16
#     4   8  13  19  25  34  49  70  97 128 160 192
#     4   8  13  21  33  49  68  88 111 141 175 208
#     4   8  13  20  30  44  59  76 102 134 164 195
#     4   8  13  20  28  38  54  76 101 130 164 198
#
# _framework density 15.395004999999999
#
# number of rings (size 3 to 8) (size 9 to 14) (size 15 to 20)
#    0.000    4.000    0.000    3.000    0.000    1.000 
#    0.000    5.000    0.000    0.750    0.000    0.000 
#    0.000    0.000    0.000    0.000    0.000    1.250 
#
# Total GULP energy -396433.774995 kJ/mol
# GULP energy per Si atom -12388.555469 kJ/mol
# Density = 1.535997 g / cm^3
# Si number density = 15.395005 Si / 1000 Ang^3
#
#
#
# Elastic Constant Matrix: (Units=GPa)
#
#
# Indices 1 2 3 4 5 6 
#
# 1 16.1080 14.3927 24.7096 0.0000 0.0000 0.0000
# 2 14.3927 87.3095 87.9234 0.0000 0.0000 0.0000
# 3 24.7096 87.9234 156.3656 0.0000 0.0000 0.0000
# 4 0.0000 0.0000 0.0000 25.2423 0.0000 0.0000
# 5 0.0000 0.0000 0.0000 0.0000 10.5940 0.0000
# 6 0.0000 0.0000 0.0000 0.0000 0.0000 2.7392
#
#
#
# Elastic Compliance Matrix: (Units=1/GPa)
#
#
# Indices 1 2 3 4 5 6 
#
# 1 0.081990 -0.001080 -0.012349 0.000000 0.000000 0.000000
# 2 -0.001080 0.026420 -0.014685 0.000000 0.000000 0.000000
# 3 -0.012349 -0.014685 0.016604 0.000000 0.000000 0.000000
# 4 0.000000 0.000000 0.000000 0.039616 0.000000 0.000000
# 5 0.000000 0.000000 0.000000 0.000000 0.094393 0.000000
# 6 0.000000 0.000000 0.000000 0.000000 0.000000 0.365074
#
#
# Mechanical properties :
#
#
# Convention : Reuss Voigt Hill
#
# Bulk Modulus (GPa) = 14.53794 57.09272 35.81533
# Shear Modulus (GPa) = 7.10981 16.56557 11.83769
#
# Velocity S-wave (km/s) = 2.15134 3.28386 2.77597
# Velocity P-wave (km/s) = 3.95409 7.17942 5.79564
#
# Compressibility (1/GPa) = 0.06878551
#
# Stress axis : x y z
#
# Youngs Moduli (GPa) = 12.19667 37.85030 60.22596
#
# Poissons Ratio (x) = 0.04086 0.74375
# Poissons Ratio (y) = 0.01317 0.88443
# Poissons Ratio (z) = 0.15062 0.55584
#
# Static dielectric constant tensor:
#      x y z
#    x 2.370370 0.000000 0.000000 
#    y 0.000000 3.060440 0.000000 
#    z 0.000000 0.000000 3.359150 
# 
# 
# High freq. dielectric constant tensor:
#      x y z
#    x 1.502680 0.000000 0.000000 
#    y 0.000000 1.570660 0.000000 
#    z 0.000000 0.000000 1.604520 
# 
# From -- ./inp_files/65607.got.cif
#   From: 2010.03.12/outbox.cif.g09.slc.cpg/sg74_33_cif.got.tgz:65607.got - 2010.04.16 15:46:19.
