data_PCOD8301335
_publ_section_title
;
Structure prediction by ZEFSAII (Michael W. Deem and Ramdas Pophale) SiO2 
 PCOD8301335
Probable space group: I M M A
;
_chemical_formula_sum "Si O2"
_cell_formula_units_Z 104
_cell_length_a 28.083304
_cell_length_b 8.500570
_cell_length_c 21.698066
_cell_angle_alpha 90.000000
_cell_angle_beta 90.000000
_cell_angle_gamma 90.000000
_cell_volume 5179.851093
_symmetry_space_group_name_H-M "I M M A"
_symmetry_group_IT_number 74
_symmetry_cell_setting 'orthorhombic'
loop_
_space_group_symop_operation_xyz
x,y,z
-x,1/2-y,z
x,-y,-z
-x,1/2+y,-z
-x,-y,-z
x,1/2+y,-z
-x,y,z
x,1/2-y,z
1/2+x,1/2+y,1/2+z
1/2-x,-y,1/2+z
1/2+x,1/2-y,1/2-z
1/2-x,y,1/2-z
1/2-x,1/2-y,1/2-z
1/2+x,y,1/2-z
1/2-x,1/2+y,1/2+z
1/2+x,-y,1/2+z
loop_
_atom_site_type_symbol
_atom_site_label
_atom_site_fract_x
_atom_site_fract_y
_atom_site_fract_z
Si Si1 0.553228 0.250000 0.709312
Si Si2 0.857879 0.428445 0.359212
Si Si3 0.613092 0.435008 0.276033
Si Si4 0.946785 0.250000 0.935897
Si Si5 0.384150 0.500000 0.500000
Si Si6 0.178751 0.078219 0.110043
Si Si7 0.947091 0.936037 0.565751
Si Si8 0.227367 0.929677 0.432639
O O1 0.500000 0.250000 0.736872
O O2 0.575920 0.419205 0.729928
O O3 0.551536 0.250000 0.636562
O O4 0.851491 0.250000 0.381555
O O5 0.855497 0.441480 0.285595
O O6 0.909057 0.493232 0.383243
O O7 0.815180 0.525586 0.387652
O O8 0.592812 0.250000 0.282838
O O9 0.646197 0.480129 0.333693
O O10 0.000000 0.250000 0.963862
O O11 0.918485 0.100542 0.958106
O O12 0.351157 0.404869 0.452923
O O13 0.199438 0.250000 0.125634
O O14 0.222908 0.963261 0.101299
O O15 0.949078 0.750000 0.562766
O O16 0.000000 0.001934 0.582361
O O17 0.929873 0.000000 0.500000
O O18 0.224286 0.750000 0.445971
O O19 0.222994 0.000000 0.500000
#
# Coordination Sequence:
#
# PCOD8301335 Si02
#       8
#     8  16  16   8   8  16  16  16
#     4  11  24  42  66  96 134 172 222 282 326 395
#     4  10  22  42  64  89 128 167 210 269 321 385
#     4  10  24  44  67  94 130 176 222 270 331 396
#     4  11  24  40  62  95 131 166 213 272 332 389
#     4  12  21  38  64  90 124 168 207 266 322 386
#     4  11  23  40  64  91 122 167 215 265 323 391
#     4   9  18  34  59  88 118 156 201 250 311 377
#     4  12  26  40  63  96 128 165 213 268 329 394
#
# _framework density 20.077795999999999
#
# number of rings (size 3 to 8) (size 9 to 14) (size 15 to 20)
#    0.000    1.385    3.077    2.077    3.231    3.385 
#    0.000    4.615    0.000    0.000    0.000    0.000 
#    0.000    0.000    0.000    0.000    0.000    0.000 
#
# Total GULP energy -644432.053766 kJ/mol
# GULP energy per Si atom -12392.924111 kJ/mol
# Density = 2.003210 g / cm^3
# Si number density = 20.077796 Si / 1000 Ang^3
#
#
#
# Elastic Constant Matrix: (Units=GPa)
#
#
# Indices 1 2 3 4 5 6 
#
# 1 119.1017 54.0799 43.6457 0.0000 0.0000 0.0000
# 2 54.0799 119.2299 28.4346 0.0000 0.0000 0.0000
# 3 43.6457 28.4346 98.3919 0.0000 0.0000 0.0000
# 4 0.0000 0.0000 0.0000 30.5749 0.0000 0.0000
# 5 0.0000 0.0000 0.0000 0.0000 20.6350 0.0000
# 6 0.0000 0.0000 0.0000 0.0000 0.0000 32.6952
#
#
#
# Elastic Compliance Matrix: (Units=1/GPa)
#
#
# Indices 1 2 3 4 5 6 
#
# 1 0.011869 -0.004433 -0.003984 0.000000 0.000000 0.000000
# 2 -0.004433 0.010664 -0.001115 0.000000 0.000000 0.000000
# 3 -0.003984 -0.001115 0.012253 0.000000 0.000000 0.000000
# 4 0.000000 0.000000 0.000000 0.032707 0.000000 0.000000
# 5 0.000000 0.000000 0.000000 0.000000 0.048461 0.000000
# 6 0.000000 0.000000 0.000000 0.000000 0.000000 0.030586
#
#
# Mechanical properties :
#
#
# Convention : Reuss Voigt Hill
#
# Bulk Modulus (GPa) = 63.60858 65.44933 64.52895
# Shear Modulus (GPa) = 29.26631 30.81857 30.04244
#
# Velocity S-wave (km/s) = 3.82205 3.92210 3.87240
# Velocity P-wave (km/s) = 7.15732 7.29240 7.22518
#
# Compressibility (1/GPa) = 0.01572115
#
# Stress axis : x y z
#
# Youngs Moduli (GPa) = 84.25188 93.77304 81.61331
#
# Poissons Ratio (x) = 0.41574 0.32513
# Poissons Ratio (y) = 0.37353 0.09101
# Poissons Ratio (z) = 0.33564 0.10457
#
# Static dielectric constant tensor:
#      x y z
#    x 3.852520 0.000000 0.000000 
#    y 0.000000 3.749830 0.000000 
#    z 0.000000 0.000000 3.649840 
# 
# 
# High freq. dielectric constant tensor:
#      x y z
#    x 1.782320 0.000000 0.000000 
#    y 0.000000 1.788500 0.000000 
#    z 0.000000 0.000000 1.788890 
# 
# From -- ./inp_files/55329.got.cif
#   From: 2010.03.12/outbox.cif.g09.slc.cpg/sg74_28_cif.got.tgz:55329.got - 2010.04.16 15:46:19.
