data_PCOD8301373
_publ_section_title
;
Structure prediction by ZEFSAII (Michael W. Deem and Ramdas Pophale) SiO2 
 PCOD8301373
Probable space group: I M M A
;
_chemical_formula_sum "Si O2"
_cell_formula_units_Z 64
_cell_length_a 14.478681
_cell_length_b 20.896729
_cell_length_c 9.994765
_cell_angle_alpha 90.000000
_cell_angle_beta 90.000000
_cell_angle_gamma 90.000000
_cell_volume 3023.986845
_symmetry_space_group_name_H-M "I M M A"
_symmetry_group_IT_number 74
_symmetry_cell_setting 'orthorhombic'
loop_
_space_group_symop_operation_xyz
x,y,z
-x,1/2-y,z
x,-y,-z
-x,1/2+y,-z
-x,-y,-z
x,1/2+y,-z
-x,y,z
x,1/2-y,z
1/2+x,1/2+y,1/2+z
1/2-x,-y,1/2+z
1/2+x,1/2-y,1/2-z
1/2-x,y,1/2-z
1/2-x,1/2-y,1/2-z
1/2+x,y,1/2-z
1/2-x,1/2+y,1/2+z
1/2+x,-y,1/2+z
loop_
_atom_site_type_symbol
_atom_site_label
_atom_site_fract_x
_atom_site_fract_y
_atom_site_fract_z
Si Si1 0.500000 0.845866 0.607882
Si Si2 0.351350 0.000000 0.000000
Si Si3 0.139097 0.750000 0.783600
Si Si4 0.000000 0.966778 0.712529
Si Si5 0.397107 0.250000 0.987661
Si Si6 0.000000 0.902740 0.186359
Si Si7 0.676087 0.374155 0.859136
O O1 0.597889 0.809501 0.631043
O O2 0.500000 0.900594 0.715383
O O3 0.500000 0.868929 0.455606
O O4 0.293748 0.938801 0.057764
O O5 0.410633 0.029268 0.119551
O O6 0.250000 0.750000 0.750000
O O7 0.085683 0.750000 0.644793
O O8 0.000000 0.020476 0.828774
O O9 0.500000 0.250000 0.920370
O O10 0.337429 0.186981 0.954210
O O11 0.083939 0.883883 0.278435
O O12 0.750000 0.355459 0.750000
#
# Coordination Sequence:
#
# PCOD8301373 Si02
#       7
#     8   8   8   8   8   8  16
#     4  11  22  42  63  90 136 165 213 276 322 395
#     4   9  20  40  66  91 130 162 230 273 322 401
#     4  11  27  41  62  98 124 180 220 260 342 385
#     4   9  18  39  68  89 116 174 215 272 326 382
#     4  12  23  44  70  94 129 178 240 272 318 410
#     4  10  23  41  63  97 128 167 218 267 339 388
#     4  11  24  43  67 100 132 178 222 277 339 390
#
# _framework density 21.164114000000001
#
# number of rings (size 3 to 8) (size 9 to 14) (size 15 to 20)
#    0.000    1.500    2.500    3.000    3.500    2.000 
#    9.000    2.500    0.000    0.000    0.000    0.000 
#    0.000    0.000    0.000    0.000    0.000    0.000 
#
# Total GULP energy -396445.645664 kJ/mol
# GULP energy per Si atom -12388.926427 kJ/mol
# Density = 2.111594 g / cm^3
# Si number density = 21.164114 Si / 1000 Ang^3
#
#
#
# Elastic Constant Matrix: (Units=GPa)
#
#
# Indices 1 2 3 4 5 6 
#
# 1 82.6837 13.6886 5.9093 0.0000 -0.0001 0.0000
# 2 13.6886 148.1525 56.6634 0.0000 0.0002 0.0000
# 3 5.9093 56.6634 112.2196 -0.0001 0.0014 0.0003
# 4 0.0000 0.0000 -0.0001 24.8047 0.0007 0.0002
# 5 -0.0001 0.0002 0.0014 0.0007 170.6859 0.0002
# 6 0.0000 0.0000 0.0003 0.0002 0.0002 48.4609
#
#
#
# Elastic Compliance Matrix: (Units=1/GPa)
#
#
# Indices 1 2 3 4 5 6 
#
# 1 0.012283 -0.001100 -0.000091 0.000000 0.000000 0.000000
# 2 -0.001100 0.008464 -0.004216 0.000000 0.000000 0.000000
# 3 -0.000091 -0.004216 0.011045 0.000000 0.000000 0.000000
# 4 0.000000 0.000000 0.000000 0.040315 0.000000 0.000000
# 5 0.000000 0.000000 0.000000 0.000000 0.005859 0.000000
# 6 0.000000 0.000000 0.000000 0.000000 0.000000 0.020635
#
#
# Mechanical properties :
#
#
# Convention : Reuss Voigt Hill
#
# Bulk Modulus (GPa) = 47.67092 55.06427 51.36759
# Shear Modulus (GPa) = 42.95287 66.57660 54.76473
#
# Velocity S-wave (km/s) = 4.50990 5.61477 5.09239
# Velocity P-wave (km/s) = 7.04927 8.25278 7.67465
#
# Compressibility (1/GPa) = 0.02097715
#
# Stress axis : x y z
#
# Youngs Moduli (GPa) = 81.41396 118.15013 90.54213
#
# Poissons Ratio (x) = 0.12996 0.00828
# Poissons Ratio (y) = 0.08955 0.38170
# Poissons Ratio (z) = 0.00744 0.49809
#
# Static dielectric constant tensor:
#      x y z
#    x 3.607040 0.000000 0.000000 
#    y 0.000000 4.226930 0.000000 
#    z 0.000000 0.000000 3.927460 
# 
# 
# High freq. dielectric constant tensor:
#      x y z
#    x 1.812800 0.000000 0.000000 
#    y 0.000000 1.846190 0.000000 
#    z 0.000000 0.000000 1.836040 
# 
# From -- ./inp_files/8947.got.cif
#   From: 2010.03.12/outbox.cif.g09.slc.cpg/sg74_5_cif.got.tgz:8947.got - 2010.04.16 15:46:19.
