data_PCOD8301613
_publ_section_title
;
Structure prediction by ZEFSAII (Michael W. Deem and Ramdas Pophale) SiO2 
 PCOD8301613
Probable space group: I M M A
;
_chemical_formula_sum "Si O2"
_cell_formula_units_Z 96
_cell_length_a 8.433331
_cell_length_b 29.688136
_cell_length_c 19.117149
_cell_angle_alpha 90.000000
_cell_angle_beta 90.000000
_cell_angle_gamma 90.000000
_cell_volume 4786.358256
_symmetry_space_group_name_H-M "I M M A"
_symmetry_group_IT_number 74
_symmetry_cell_setting 'orthorhombic'
loop_
_space_group_symop_operation_xyz
x,y,z
-x,1/2-y,z
x,-y,-z
-x,1/2+y,-z
-x,-y,-z
x,1/2+y,-z
-x,y,z
x,1/2-y,z
1/2+x,1/2+y,1/2+z
1/2-x,-y,1/2+z
1/2+x,1/2-y,1/2-z
1/2-x,y,1/2-z
1/2-x,1/2-y,1/2-z
1/2+x,y,1/2-z
1/2-x,1/2+y,1/2+z
1/2+x,-y,1/2+z
loop_
_atom_site_type_symbol
_atom_site_label
_atom_site_fract_x
_atom_site_fract_y
_atom_site_fract_z
Si Si1 0.814720 0.700858 0.179663
Si Si2 0.815096 0.474644 0.071767
Si Si3 0.315736 0.954786 0.173185
Si Si4 0.814461 0.621766 0.566351
Si Si5 0.816743 0.623066 0.084213
Si Si6 0.687282 0.300900 0.173567
O O1 0.735433 0.750000 0.169929
O O2 0.750000 0.677356 0.250000
O O3 0.768462 0.671627 0.113251
O O4 0.000000 0.705354 0.187394
O O5 0.784503 0.504944 0.139444
O O6 0.718276 0.429360 0.090155
O O7 0.000000 0.463062 0.064224
O O8 0.757321 0.500000 0.000000
O O9 0.500000 0.967622 0.177124
O O10 0.250000 0.943871 0.250000
O O11 0.295384 0.912468 0.122192
O O12 0.712081 0.627144 0.497144
O O13 0.752389 0.660136 0.620435
O O14 0.000000 0.628406 0.551763
O O15 0.000000 0.610197 0.098931
O O16 0.500000 0.301949 0.176384
O O17 0.744856 0.250000 0.151773
O O18 0.750000 0.313547 0.250000
#
# Coordination Sequence:
#
# PCOD8301613 Si02
#       6
#    16  16  16  16  16  16
#     4   9  19  35  54  77 108 147 191 239 289 342
#     4  11  23  41  64  88 120 159 201 251 306 363
#     4  12  25  41  63  89 120 156 200 247 298 358
#     4  11  23  38  61  91 122 159 200 245 301 363
#     4  11  22  37  57  84 118 155 198 245 295 353
#     4   9  20  40  64  91 124 161 203 252 307 367
#
# _framework density 20.057003000000002
#
# number of rings (size 3 to 8) (size 9 to 14) (size 15 to 20)
#    0.000    1.500    1.667    3.500    0.000    6.000 
#    0.000    1.667    0.000    0.000    0.000    0.000 
#    0.000    0.000    0.000    0.000    0.000    0.000 
#
# Total GULP energy -595103.242032 kJ/mol
# GULP energy per Si atom -12397.984209 kJ/mol
# Density = 2.001135 g / cm^3
# Si number density = 20.057003 Si / 1000 Ang^3
#
#
#
# Elastic Constant Matrix: (Units=GPa)
#
#
# Indices 1 2 3 4 5 6 
#
# 1 34.4850 20.7930 9.7009 0.0001 0.0000 0.0000
# 2 20.7930 129.2171 65.2013 -0.0003 0.0000 0.0000
# 3 9.7009 65.2013 121.9188 -0.0008 -0.0001 0.0000
# 4 0.0001 -0.0003 -0.0008 49.3756 0.0000 0.0000
# 5 0.0000 0.0000 -0.0001 0.0000 32.1550 0.0000
# 6 0.0000 0.0000 0.0000 0.0000 0.0000 27.5641
#
#
#
# Elastic Compliance Matrix: (Units=1/GPa)
#
#
# Indices 1 2 3 4 5 6 
#
# 1 0.032121 -0.005313 0.000285 0.000000 0.000000 0.000000
# 2 -0.005313 0.011478 -0.005716 0.000000 0.000000 0.000000
# 3 0.000285 -0.005716 0.011236 0.000000 0.000000 0.000000
# 4 0.000000 0.000000 0.000000 0.020253 0.000000 0.000000
# 5 0.000000 0.000000 0.000000 0.000000 0.031099 0.000000
# 6 0.000000 0.000000 0.000000 0.000000 0.000000 0.036279
#
#
# Mechanical properties :
#
#
# Convention : Reuss Voigt Hill
#
# Bulk Modulus (GPa) = 29.98565 53.00126 41.49345
# Shear Modulus (GPa) = 28.56022 34.48065 31.52044
#
# Velocity S-wave (km/s) = 3.77762 4.15074 3.96857
# Velocity P-wave (km/s) = 5.83180 7.03237 6.46004
#
# Compressibility (1/GPa) = 0.03334929
#
# Stress axis : x y z
#
# Youngs Moduli (GPa) = 31.13207 87.12469 88.99899
#
# Poissons Ratio (x) = 0.46288 -0.02540
# Poissons Ratio (y) = 0.16540 0.50867
# Poissons Ratio (z) = -0.00889 0.49796
#
# Static dielectric constant tensor:
#      x y z
#    x 3.426240 0.000000 0.000000 
#    y 0.000000 4.251510 0.000000 
#    z 0.000000 0.000000 3.571930 
# 
# 
# High freq. dielectric constant tensor:
#      x y z
#    x 1.780630 0.000000 0.000000 
#    y 0.000000 1.793900 0.000000 
#    z 0.000000 0.000000 1.780670 
# 
# From -- ./inp_files/49099.got.cif
#   From: 2010.03.12/outbox.cif.g09.slc.cpg/sg74_25_cif.got.tgz:49099.got - 2010.04.16 15:46:19.
