data_PCOD8301532
_publ_section_title
;
Structure prediction by ZEFSAII (Michael W. Deem and Ramdas Pophale) SiO2 
 PCOD8301532
Probable space group: I M M A
;
_chemical_formula_sum "Si O2"
_cell_formula_units_Z 56
_cell_length_a 14.920783
_cell_length_b 17.798948
_cell_length_c 11.998111
_cell_angle_alpha 90.000000
_cell_angle_beta 90.000000
_cell_angle_gamma 90.000000
_cell_volume 3186.389219
_symmetry_space_group_name_H-M "I M M A"
_symmetry_group_IT_number 74
_symmetry_cell_setting 'orthorhombic'
loop_
_space_group_symop_operation_xyz
x,y,z
-x,1/2-y,z
x,-y,-z
-x,1/2+y,-z
-x,-y,-z
x,1/2+y,-z
-x,y,z
x,1/2-y,z
1/2+x,1/2+y,1/2+z
1/2-x,-y,1/2+z
1/2+x,1/2-y,1/2-z
1/2-x,y,1/2-z
1/2-x,1/2-y,1/2-z
1/2+x,y,1/2-z
1/2-x,1/2+y,1/2+z
1/2+x,-y,1/2+z
loop_
_atom_site_type_symbol
_atom_site_label
_atom_site_fract_x
_atom_site_fract_y
_atom_site_fract_z
Si Si1 0.846972 0.560477 0.409815
Si Si2 0.830029 0.916195 0.972054
Si Si3 0.000000 0.662144 0.064641
Si Si4 0.750000 0.040897 0.250000
Si Si5 0.500000 0.339736 0.819468
O O1 0.884042 0.500000 0.500000
O O2 0.756341 0.601403 0.451731
O O3 0.827230 0.512296 0.299784
O O4 0.914613 0.627121 0.383168
O O5 0.798752 0.907913 0.843276
O O6 0.911380 0.861212 0.997717
O O7 0.863439 0.000000 0.000000
O O8 0.000000 0.750000 0.070021
O O9 0.000000 0.631899 0.191472
O O10 0.500000 0.250000 0.830473
#
# Coordination Sequence:
#
# PCOD8301532 Si02
#       5
#    16  16   8   8   8
#     4   9  18  33  53  77 101 129 171 217 249 292
#     4   9  18  34  55  77  99 130 171 214 251 296
#     4  11  23  34  49  77 108 134 166 207 253 306
#     4   8  16  32  56  74  94 128 172 216 260 288
#     4  11  21  32  49  75 107 140 165 199 256 308
#
# _framework density 17.574752
#
# number of rings (size 3 to 8) (size 9 to 14) (size 15 to 20)
#    0.000    3.143    0.000    4.286    0.000    2.286 
#    0.000    5.714    0.000    8.571    0.000    0.000 
#    0.000    0.000    0.000    0.000    0.000    0.000 
#
# Total GULP energy -347038.585587 kJ/mol
# GULP energy per Si atom -12394.235200 kJ/mol
# Density = 1.753475 g / cm^3
# Si number density = 17.574752 Si / 1000 Ang^3
#
#
#
# Elastic Constant Matrix: (Units=GPa)
#
#
# Indices 1 2 3 4 5 6 
#
# 1 125.7747 46.8156 57.5120 0.0000 0.0000 0.0000
# 2 46.8156 58.8869 36.1244 0.0000 0.0000 0.0000
# 3 57.5120 36.1244 114.5216 0.0000 0.0000 0.0000
# 4 0.0000 0.0000 0.0000 19.7895 0.0000 0.0000
# 5 0.0000 0.0000 0.0000 0.0000 19.2336 0.0000
# 6 0.0000 0.0000 0.0000 0.0000 0.0000 1.3298
#
#
#
# Elastic Compliance Matrix: (Units=1/GPa)
#
#
# Indices 1 2 3 4 5 6 
#
# 1 0.012566 -0.007587 -0.003917 0.000000 0.000000 0.000000
# 2 -0.007587 0.025637 -0.004277 0.000000 0.000000 0.000000
# 3 -0.003917 -0.004277 0.012048 0.000000 0.000000 0.000000
# 4 0.000000 0.000000 0.000000 0.050532 0.000000 0.000000
# 5 0.000000 0.000000 0.000000 0.000000 0.051992 0.000000
# 6 0.000000 0.000000 0.000000 0.000000 0.000000 0.752018
#
#
# Mechanical properties :
#
#
# Convention : Reuss Voigt Hill
#
# Bulk Modulus (GPa) = 53.50697 64.45414 58.98055
# Shear Modulus (GPa) = 5.30456 18.65266 11.97861
#
# Velocity S-wave (km/s) = 1.73921 3.26134 2.61354
# Velocity P-wave (km/s) = 5.87746 7.13693 6.53759
#
# Compressibility (1/GPa) = 0.01868915
#
# Stress axis : x y z
#
# Youngs Moduli (GPa) = 79.58001 39.00616 82.99938
#
# Poissons Ratio (x) = 0.29594 0.32514
# Poissons Ratio (y) = 0.60377 0.35497
# Poissons Ratio (z) = 0.31174 0.16682
#
# Static dielectric constant tensor:
#      x y z
#    x 3.175890 0.000000 0.000000 
#    y 0.000000 2.899470 0.000000 
#    z 0.000000 0.000000 3.656190 
# 
# 
# High freq. dielectric constant tensor:
#      x y z
#    x 1.681230 0.000000 0.000000 
#    y 0.000000 1.645080 0.000000 
#    z 0.000000 0.000000 1.693380 
# 
# From -- ./inp_files/19830.got.cif
#   From: 2010.03.12/outbox.cif.g09.slc.cpg/sg74_10_cif.got.tgz:19830.got - 2010.04.16 15:46:19.
