data_PCOD8301541
_publ_section_title
;
Structure prediction by ZEFSAII (Michael W. Deem and Ramdas Pophale) SiO2 
 PCOD8301541
Probable space group: I M M A
;
_chemical_formula_sum "Si O2"
_cell_formula_units_Z 104
_cell_length_a 22.619291
_cell_length_b 8.620493
_cell_length_c 28.239785
_cell_angle_alpha 90.000000
_cell_angle_beta 90.000000
_cell_angle_gamma 90.000000
_cell_volume 5506.459855
_symmetry_space_group_name_H-M "I M M A"
_symmetry_group_IT_number 74
_symmetry_cell_setting 'orthorhombic'
loop_
_space_group_symop_operation_xyz
x,y,z
-x,1/2-y,z
x,-y,-z
-x,1/2+y,-z
-x,-y,-z
x,1/2+y,-z
-x,y,z
x,1/2-y,z
1/2+x,1/2+y,1/2+z
1/2-x,-y,1/2+z
1/2+x,1/2-y,1/2-z
1/2-x,y,1/2-z
1/2-x,1/2-y,1/2-z
1/2+x,y,1/2-z
1/2-x,1/2+y,1/2+z
1/2+x,-y,1/2+z
loop_
_atom_site_type_symbol
_atom_site_label
_atom_site_fract_x
_atom_site_fract_y
_atom_site_fract_z
Si Si1 0.935097 0.067212 0.548526
Si Si2 0.271544 0.067243 0.450014
Si Si3 0.000000 0.934627 0.946104
Si Si4 0.324020 0.571028 0.692385
Si Si5 0.329634 0.570883 0.110412
Si Si6 0.686420 0.429682 0.203125
Si Si7 0.382165 0.433219 0.600147
O O1 0.937573 0.250000 0.544846
O O2 0.889653 0.010334 0.587432
O O3 0.000000 0.999021 0.560247
O O4 0.910436 0.000000 0.500000
O O5 0.280253 0.250000 0.453559
O O6 0.248711 0.000000 0.500000
O O7 0.225162 0.029329 0.408647
O O8 0.333600 0.988767 0.437402
O O9 0.000000 0.750000 0.949885
O O10 0.056523 0.988437 0.915444
O O11 0.000000 0.000000 0.000000
O O12 0.332541 0.750000 0.678378
O O13 0.344908 0.536039 0.746296
O O14 0.255378 0.527382 0.697036
O O15 0.361267 0.474455 0.653828
O O16 0.315873 0.750000 0.099915
O O17 0.344113 0.540708 0.165187
O O18 0.677831 0.250000 0.190728
O O19 0.389981 0.250000 0.596899
#
# Coordination Sequence:
#
# PCOD8301541 Si02
#       7
#    16  16   8  16  16  16  16
#     4   9  19  35  53  74 104 143 185 226 272 328
#     4  12  24  38  55  80 116 152 187 231 287 344
#     4  12  26  46  68  90 120 160 202 248 299 358
#     4   9  18  35  58  85 114 152 189 230 284 341
#     4  11  21  33  53  83 113 145 186 233 288 342
#     4   9  18  33  56  84 117 150 188 230 281 340
#     4  12  24  40  62  90 119 151 195 243 292 351
#
# _framework density 18.886908999999999
#
# number of rings (size 3 to 8) (size 9 to 14) (size 15 to 20)
#    0.000    1.538    1.538    5.769    0.000    3.077 
#    0.000    1.538    1.692    0.000    0.000    0.000 
#    0.000    0.000    0.000    0.000    0.000    0.000 
#
# Total GULP energy -644528.959882 kJ/mol
# GULP energy per Si atom -12394.787690 kJ/mol
# Density = 1.884392 g / cm^3
# Si number density = 18.886909 Si / 1000 Ang^3
#
#
#
# Elastic Constant Matrix: (Units=GPa)
#
#
# Indices 1 2 3 4 5 6 
#
# 1 75.3611 41.2732 42.5321 0.0000 0.0000 0.0000
# 2 41.2732 94.7954 40.9292 0.0000 0.0000 0.0000
# 3 42.5321 40.9292 117.9998 0.0000 0.0000 0.0000
# 4 0.0000 0.0000 0.0000 35.0951 0.0000 0.0000
# 5 0.0000 0.0000 0.0000 0.0000 26.1693 0.0000
# 6 0.0000 0.0000 0.0000 0.0000 0.0000 10.1632
#
#
#
# Elastic Compliance Matrix: (Units=1/GPa)
#
#
# Indices 1 2 3 4 5 6 
#
# 1 0.019492 -0.006414 -0.004801 0.000000 0.000000 0.000000
# 2 -0.006414 0.014517 -0.002724 0.000000 0.000000 0.000000
# 3 -0.004801 -0.002724 0.011150 0.000000 0.000000 0.000000
# 4 0.000000 0.000000 0.000000 0.028494 0.000000 0.000000
# 5 0.000000 0.000000 0.000000 0.000000 0.038213 0.000000
# 6 0.000000 0.000000 0.000000 0.000000 0.000000 0.098395
#
#
# Mechanical properties :
#
#
# Convention : Reuss Voigt Hill
#
# Bulk Modulus (GPa) = 57.86306 59.73616 58.79961
# Shear Modulus (GPa) = 20.50041 25.18031 22.84036
#
# Velocity S-wave (km/s) = 3.29816 3.65528 3.48130
# Velocity P-wave (km/s) = 6.72361 7.03646 6.88181
#
# Compressibility (1/GPa) = 0.01728218
#
# Stress axis : x y z
#
# Youngs Moduli (GPa) = 51.30430 68.88239 89.68752
#
# Poissons Ratio (x) = 0.44178 0.43059
# Poissons Ratio (y) = 0.32905 0.24429
# Poissons Ratio (z) = 0.24631 0.18762
#
# Static dielectric constant tensor:
#      x y z
#    x 2.749630 0.000000 0.000000 
#    y 0.000000 3.406910 0.000000 
#    z 0.000000 0.000000 3.510910 
# 
# 
# High freq. dielectric constant tensor:
#      x y z
#    x 1.714200 0.000000 0.000000 
#    y 0.000000 1.736570 0.000000 
#    z 0.000000 0.000000 1.747080 
# 
# From -- ./inp_files/68225.got.cif
#   From: 2010.03.12/outbox.cif.g09.slc.cpg/sg74_35_cif.got.tgz:68225.got - 2010.04.16 15:46:19.
