data_PCOD8301638
_publ_section_title
;
Structure prediction by ZEFSAII (Michael W. Deem and Ramdas Pophale) SiO2 
 PCOD8301638
Probable space group: I M M A
;
_chemical_formula_sum "Si O2"
_cell_formula_units_Z 56
_cell_length_a 14.369364
_cell_length_b 10.526890
_cell_length_c 19.006574
_cell_angle_alpha 90.000000
_cell_angle_beta 90.000000
_cell_angle_gamma 90.000000
_cell_volume 2875.023984
_symmetry_space_group_name_H-M "I M M A"
_symmetry_group_IT_number 74
_symmetry_cell_setting 'orthorhombic'
loop_
_space_group_symop_operation_xyz
x,y,z
-x,1/2-y,z
x,-y,-z
-x,1/2+y,-z
-x,-y,-z
x,1/2+y,-z
-x,y,z
x,1/2-y,z
1/2+x,1/2+y,1/2+z
1/2-x,-y,1/2+z
1/2+x,1/2-y,1/2-z
1/2-x,y,1/2-z
1/2-x,1/2-y,1/2-z
1/2+x,y,1/2-z
1/2-x,1/2+y,1/2+z
1/2+x,-y,1/2+z
loop_
_atom_site_type_symbol
_atom_site_label
_atom_site_fract_x
_atom_site_fract_y
_atom_site_fract_z
Si Si1 0.259734 0.603875 0.138453
Si Si2 0.892600 0.250000 0.056109
Si Si3 0.808319 0.500000 0.000000
Si Si4 0.848033 0.250000 0.211742
Si Si5 0.604133 0.524818 0.256081
O O1 0.273161 0.750000 0.119247
O O2 0.257120 0.521920 0.067403
O O3 0.348245 0.555902 0.181973
O O4 0.163879 0.586361 0.181319
O O5 0.871864 0.124611 0.010338
O O6 0.832105 0.250000 0.127546
O O7 0.000000 0.250000 0.078151
O O8 0.750000 0.250000 0.250000
O O9 0.904314 0.373899 0.234717
O O10 0.500000 0.582315 0.257809
#
# Coordination Sequence:
#
# PCOD8301638 Si02
#       5
#    16   8   8   8  16
#     4  11  24  41  61  89 122 164 205 249 314 371
#     4  12  24  38  60  91 125 163 208 256 308 377
#     4  12  23  42  61  86 128 168 202 252 320 368
#     4  12  20  38  62  91 124 160 198 250 311 372
#     4  11  22  39  64  91 120 158 207 258 304 362
#
# _framework density 19.478097999999999
#
# number of rings (size 3 to 8) (size 9 to 14) (size 15 to 20)
#    0.000    0.571    7.143    3.429    0.000    3.429 
#    0.000    0.714    0.000    0.000    0.000    0.000 
#    0.000    0.000    0.000    0.000    0.000    0.000 
#
# Total GULP energy -347299.313313 kJ/mol
# GULP energy per Si atom -12403.546904 kJ/mol
# Density = 1.943377 g / cm^3
# Si number density = 19.478098 Si / 1000 Ang^3
#
#
#
# Elastic Constant Matrix: (Units=GPa)
#
#
# Indices 1 2 3 4 5 6 
#
# 1 110.2588 9.4566 45.8712 0.0000 0.0000 0.0000
# 2 9.4566 129.6841 27.8307 0.0000 0.0000 0.0000
# 3 45.8712 27.8307 135.2064 0.0000 0.0000 0.0000
# 4 0.0000 0.0000 0.0000 37.0449 0.0000 0.0000
# 5 0.0000 0.0000 0.0000 0.0000 9.3575 0.0000
# 6 0.0000 0.0000 0.0000 0.0000 0.0000 17.9828
#
#
#
# Elastic Compliance Matrix: (Units=1/GPa)
#
#
# Indices 1 2 3 4 5 6 
#
# 1 0.010560 -0.000001 -0.003582 0.000000 0.000000 0.000000
# 2 -0.000001 0.008067 -0.001660 0.000000 0.000000 0.000000
# 3 -0.003582 -0.001660 0.008953 0.000000 0.000000 0.000000
# 4 0.000000 0.000000 0.000000 0.026994 0.000000 0.000000
# 5 0.000000 0.000000 0.000000 0.000000 0.106866 0.000000
# 6 0.000000 0.000000 0.000000 0.000000 0.000000 0.055609
#
#
# Mechanical properties :
#
#
# Convention : Reuss Voigt Hill
#
# Bulk Modulus (GPa) = 58.50336 60.16294 59.33315
# Shear Modulus (GPa) = 21.43758 32.34309 26.89033
#
# Velocity S-wave (km/s) = 3.32113 4.07933 3.71960
# Velocity P-wave (km/s) = 6.69382 7.28988 6.99820
#
# Compressibility (1/GPa) = 0.01709303
#
# Stress axis : x y z
#
# Youngs Moduli (GPa) = 94.69616 123.95544 111.69149
#
# Poissons Ratio (x) = 0.00015 0.40013
# Poissons Ratio (y) = 0.00012 0.18543
# Poissons Ratio (z) = 0.33924 0.20579
#
# Static dielectric constant tensor:
#      x y z
#    x 3.344560 0.000000 0.000000 
#    y 0.000000 3.881930 0.000000 
#    z 0.000000 0.000000 3.628400 
# 
# 
# High freq. dielectric constant tensor:
#      x y z
#    x 1.735650 0.000000 0.000000 
#    y 0.000000 1.781390 0.000000 
#    z 0.000000 0.000000 1.759460 
# 
# From -- ./inp_files/42206.got.cif
#   From: 2010.03.12/outbox.cif.g09.slc.cpg/sg74_22_cif.got.tgz:42206.got - 2010.04.16 15:46:19.
