data_PCOD8301529
_publ_section_title
;
Structure prediction by ZEFSAII (Michael W. Deem and Ramdas Pophale) SiO2 
 PCOD8301529
Probable space group: I M M A
;
_chemical_formula_sum "Si O2"
_cell_formula_units_Z 80
_cell_length_a 27.343921
_cell_length_b 9.003749
_cell_length_c 21.969644
_cell_angle_alpha 90.000000
_cell_angle_beta 90.000000
_cell_angle_gamma 90.000000
_cell_volume 5408.878049
_symmetry_space_group_name_H-M "I M M A"
_symmetry_group_IT_number 74
_symmetry_cell_setting 'orthorhombic'
loop_
_space_group_symop_operation_xyz
x,y,z
-x,1/2-y,z
x,-y,-z
-x,1/2+y,-z
-x,-y,-z
x,1/2+y,-z
-x,y,z
x,1/2-y,z
1/2+x,1/2+y,1/2+z
1/2-x,-y,1/2+z
1/2+x,1/2-y,1/2-z
1/2-x,y,1/2-z
1/2-x,1/2-y,1/2-z
1/2+x,y,1/2-z
1/2-x,1/2+y,1/2+z
1/2+x,-y,1/2+z
loop_
_atom_site_type_symbol
_atom_site_label
_atom_site_fract_x
_atom_site_fract_y
_atom_site_fract_z
Si Si1 0.114654 0.573119 0.436959
Si Si2 0.700010 0.083776 0.126150
Si Si3 0.556264 0.076288 0.168077
Si Si4 0.780528 0.083893 0.811981
Si Si5 0.640432 0.913791 0.749674
O O1 0.098010 0.500000 0.500000
O O2 0.115092 0.750000 0.441914
O O3 0.168982 0.516158 0.420385
O O4 0.074724 0.523012 0.387619
O O5 0.706030 0.250000 0.099415
O O6 0.672796 0.089686 0.189980
O O7 0.753534 0.012593 0.136243
O O8 0.500000 0.040623 0.180864
O O9 0.565263 0.250000 0.152231
O O10 0.586171 0.033932 0.229690
O O11 0.785660 0.250000 0.836959
O O12 0.750000 0.080113 0.750000
O O13 0.835240 0.022271 0.799828
O O14 0.638622 0.750000 0.720323
#
# Coordination Sequence:
#
# PCOD8301529 Si02
#       5
#    16  16  16  16  16
#     4  11  21  32  44  57  74  97 128 165 203 239
#     4   9  16  27  41  56  74  95 120 151 188 229
#     4   9  18  32  46  58  74  98 130 167 204 238
#     4   9  15  22  35  56  78  97 117 144 180 224
#     4   8  14  24  38  55  74  96 120 149 187 229
#
# _framework density 14.790497999999999
#
# number of rings (size 3 to 8) (size 9 to 14) (size 15 to 20)
#    0.000    2.800    0.000    4.200    0.000    8.000 
#    0.000    0.000    0.000    0.000    0.000    0.000 
#    0.000    0.000    0.000    0.000    0.000    1.000 
#
# Total GULP energy -495808.209632 kJ/mol
# GULP energy per Si atom -12395.205241 kJ/mol
# Density = 1.475683 g / cm^3
# Si number density = 14.790498 Si / 1000 Ang^3
#
#
#
# Elastic Constant Matrix: (Units=GPa)
#
#
# Indices 1 2 3 4 5 6 
#
# 1 108.7928 54.6956 35.2007 0.0000 0.0000 0.0000
# 2 54.6956 112.6989 18.9838 0.0000 0.0000 0.0000
# 3 35.2007 18.9838 12.8219 0.0000 0.0000 0.0000
# 4 0.0000 0.0000 0.0000 18.0790 0.0000 0.0000
# 5 0.0000 0.0000 0.0000 0.0000 11.6312 0.0000
# 6 0.0000 0.0000 0.0000 0.0000 0.0000 19.1353
#
#
#
# Elastic Compliance Matrix: (Units=1/GPa)
#
#
# Indices 1 2 3 4 5 6 
#
# 1 0.082811 -0.002524 -0.223608 0.000000 0.000000 0.000000
# 2 -0.002524 0.011898 -0.010687 0.000000 0.000000 0.000000
# 3 -0.223608 -0.010687 0.707701 0.000000 0.000000 0.000000
# 4 0.000000 0.000000 0.000000 0.055313 0.000000 0.000000
# 5 0.000000 0.000000 0.000000 0.000000 0.085976 0.000000
# 6 0.000000 0.000000 0.000000 0.000000 0.000000 0.052259
#
#
# Mechanical properties :
#
#
# Convention : Reuss Voigt Hill
#
# Bulk Modulus (GPa) = 3.04164 50.23043 26.63603
# Shear Modulus (GPa) = 3.16619 18.13134 10.64876
#
# Velocity S-wave (km/s) = 1.46470 3.50505 2.68614
# Velocity P-wave (km/s) = 2.21842 7.10039 5.26008
#
# Compressibility (1/GPa) = 0.32877042
#
# Stress axis : x y z
#
# Youngs Moduli (GPa) = 12.07573 84.04497 1.41303
#
# Poissons Ratio (x) = 0.21213 0.31596
# Poissons Ratio (y) = 0.03048 0.01510
# Poissons Ratio (z) = 2.70023 0.89822
#
# Static dielectric constant tensor:
#      x y z
#    x 2.967770 0.000000 0.000000 
#    y 0.000000 3.038500 0.000000 
#    z 0.000000 0.000000 2.503920 
# 
# 
# High freq. dielectric constant tensor:
#      x y z
#    x 1.551260 0.000000 0.000000 
#    y 0.000000 1.579820 0.000000 
#    z 0.000000 0.000000 1.505160 
# 
# From -- ./inp_files/39969.got.cif
#   From: 2010.03.12/outbox.cif.g09.slc.cpg/sg74_20_cif.got.tgz:39969.got - 2010.04.16 15:46:19.
