data_PCOD8301366
_publ_section_title
;
Structure prediction by ZEFSAII (Michael W. Deem and Ramdas Pophale) SiO2 
 PCOD8301366
Probable space group: I M M A
;
_chemical_formula_sum "Si O2"
_cell_formula_units_Z 72
_cell_length_a 16.294097
_cell_length_b 14.866806
_cell_length_c 14.063222
_cell_angle_alpha 90.000000
_cell_angle_beta 90.000000
_cell_angle_gamma 90.000000
_cell_volume 3406.691478
_symmetry_space_group_name_H-M "I M M A"
_symmetry_group_IT_number 74
_symmetry_cell_setting 'orthorhombic'
loop_
_space_group_symop_operation_xyz
x,y,z
-x,1/2-y,z
x,-y,-z
-x,1/2+y,-z
-x,-y,-z
x,1/2+y,-z
-x,y,z
x,1/2-y,z
1/2+x,1/2+y,1/2+z
1/2-x,-y,1/2+z
1/2+x,1/2-y,1/2-z
1/2-x,y,1/2-z
1/2-x,1/2-y,1/2-z
1/2+x,y,1/2-z
1/2-x,1/2+y,1/2+z
1/2+x,-y,1/2+z
loop_
_atom_site_type_symbol
_atom_site_label
_atom_site_fract_x
_atom_site_fract_y
_atom_site_fract_z
Si Si1 0.835345 0.573195 0.695088
Si Si2 0.276507 0.750000 0.860676
Si Si3 0.096101 0.750000 0.217914
Si Si4 0.000000 0.646252 0.724560
Si Si5 0.148020 0.120799 0.623583
Si Si6 0.717347 0.250000 0.557012
Si Si7 0.500000 0.106967 0.004281
O O1 0.750000 0.560763 0.750000
O O2 0.829510 0.659499 0.624619
O O3 0.848488 0.486764 0.630205
O O4 0.916672 0.594138 0.760615
O O5 0.250000 0.750000 0.750000
O O6 0.205234 0.750000 0.941681
O O7 0.127026 0.838841 0.272727
O O8 0.130761 0.750000 0.110359
O O9 0.000000 0.750000 0.206533
O O10 0.000000 0.750000 0.759713
O O11 0.000000 0.641362 0.610963
O O12 0.233853 0.160542 0.588051
O O13 0.078280 0.148395 0.549509
O O14 0.500000 0.000000 0.000000
#
# Coordination Sequence:
#
# PCOD8301366 Si02
#       7
#    16   8   8   8  16   8   8
#     4  11  22  40  61  89 129 164 208 260 313 377
#     4  10  23  40  62  91 119 156 213 261 314 372
#     4  11  23  42  61  92 130 170 213 258 310 379
#     4  12  24  34  56  93 125 163 206 253 322 382
#     4  11  22  39  61  96 131 162 208 258 321 383
#     4  11  24  38  65  90 124 170 211 255 319 382
#     4  12  22  34  58  98 128 160 201 259 332 384
#
# _framework density 21.134875000000001
#
# number of rings (size 3 to 8) (size 9 to 14) (size 15 to 20)
#    0.000    0.889    4.444    4.000    3.111    0.000 
#    0.000    0.000    9.778    0.000    0.000    7.778 
#    0.000    0.000    0.000    0.000    0.000    0.000 
#
# Total GULP energy -446120.150068 kJ/mol
# GULP energy per Si atom -12392.226391 kJ/mol
# Density = 2.108677 g / cm^3
# Si number density = 21.134875 Si / 1000 Ang^3
#
#
#
# Elastic Constant Matrix: (Units=GPa)
#
#
# Indices 1 2 3 4 5 6 
#
# 1 124.2597 9.1359 45.3128 0.0000 0.0000 0.0000
# 2 9.1359 138.2798 10.0564 0.0000 0.0000 0.0000
# 3 45.3128 10.0564 104.6946 0.0000 0.0000 0.0000
# 4 0.0000 0.0000 0.0000 406.1893 0.0000 0.0000
# 5 0.0000 0.0000 0.0000 0.0000 38.9265 0.0000
# 6 0.0000 0.0000 0.0000 0.0000 0.0000 19.5150
#
#
#
# Elastic Compliance Matrix: (Units=1/GPa)
#
#
# Indices 1 2 3 4 5 6 
#
# 1 0.009571 -0.000333 -0.004110 0.000000 0.000000 0.000000
# 2 -0.000333 0.007294 -0.000556 0.000000 0.000000 0.000000
# 3 -0.004110 -0.000556 0.011384 0.000000 0.000000 0.000000
# 4 0.000000 0.000000 0.000000 0.002462 0.000000 0.000000
# 5 0.000000 0.000000 0.000000 0.000000 0.025689 0.000000
# 6 0.000000 0.000000 0.000000 0.000000 0.000000 0.051243
#
#
# Mechanical properties :
#
#
# Convention : Reuss Voigt Hill
#
# Bulk Modulus (GPa) = 54.79754 55.13824 54.96789
# Shear Modulus (GPa) = 40.41166 113.10810 76.75988
#
# Velocity S-wave (km/s) = 4.37748 7.32349 6.03307
# Velocity P-wave (km/s) = 7.17869 9.88214 8.63685
#
# Compressibility (1/GPa) = 0.01824900
#
# Stress axis : x y z
#
# Youngs Moduli (GPa) = 104.48131 137.09524 87.84214
#
# Poissons Ratio (x) = 0.04571 0.36107
# Poissons Ratio (y) = 0.03484 0.04887
# Poissons Ratio (z) = 0.42946 0.07627
#
# Static dielectric constant tensor:
#      x y z
#    x 4.138560 0.000000 0.000000 
#    y 0.000000 2.842520 0.000000 
#    z 0.000000 0.000000 3.551060 
# 
# 
# High freq. dielectric constant tensor:
#      x y z
#    x 1.831990 0.000000 0.000000 
#    y 0.000000 1.846110 0.000000 
#    z 0.000000 0.000000 1.790280 
# 
# From -- ./inp_files/32004.got.cif
#   From: 2010.03.12/outbox.cif.g09.slc.cpg/sg74_17_cif.got.tgz:32004.got - 2010.04.16 15:46:19.
