data_PCOD8301072
_publ_section_title
;
Structure prediction by ZEFSAII (Michael W. Deem and Ramdas Pophale) SiO2 
 PCOD8301072
Probable space group: I M M A
;
_chemical_formula_sum "Si O2"
_cell_formula_units_Z 104
_cell_length_a 9.267245
_cell_length_b 20.983428
_cell_length_c 26.682176
_cell_angle_alpha 90.000000
_cell_angle_beta 90.000000
_cell_angle_gamma 90.000000
_cell_volume 5188.577742
_symmetry_space_group_name_H-M "I M M A"
_symmetry_group_IT_number 74
_symmetry_cell_setting 'orthorhombic'
loop_
_space_group_symop_operation_xyz
x,y,z
-x,1/2-y,z
x,-y,-z
-x,1/2+y,-z
-x,-y,-z
x,1/2+y,-z
-x,y,z
x,1/2-y,z
1/2+x,1/2+y,1/2+z
1/2-x,-y,1/2+z
1/2+x,1/2-y,1/2-z
1/2-x,y,1/2-z
1/2-x,1/2-y,1/2-z
1/2+x,y,1/2-z
1/2-x,1/2+y,1/2+z
1/2+x,-y,1/2+z
loop_
_atom_site_type_symbol
_atom_site_label
_atom_site_fract_x
_atom_site_fract_y
_atom_site_fract_z
Si Si1 0.500000 0.178241 0.174026
Si Si2 0.325233 0.508137 0.196689
Si Si3 0.337835 0.250000 0.700187
Si Si4 0.658842 0.677908 0.545659
Si Si5 0.500000 0.826458 0.715477
Si Si6 0.770176 0.883330 0.855757
Si Si7 0.329692 0.377893 0.641808
Si Si8 0.331089 0.324184 0.948747
O O1 0.500000 0.250000 0.190162
O O2 0.500000 0.143538 0.228383
O O3 0.632567 0.161285 0.139473
O O4 0.500000 0.511566 0.201815
O O5 0.250000 0.494379 0.250000
O O6 0.276944 0.455157 0.156291
O O7 0.260457 0.572907 0.174965
O O8 0.500000 0.250000 0.718758
O O9 0.250000 0.250000 0.750000
O O10 0.302161 0.310833 0.667434
O O11 0.500000 0.674699 0.520404
O O12 0.684922 0.750000 0.566524
O O13 0.655853 0.625376 0.590289
O O14 0.779592 0.660166 0.505030
O O15 0.500000 0.750000 0.711967
O O16 0.639018 0.855197 0.689595
O O17 0.500000 0.396114 0.638664
O O18 0.259954 0.371286 0.586864
O O19 0.500000 0.340017 0.943938
O O20 0.299618 0.250000 0.936360
#
# Coordination Sequence:
#
# PCOD8301072 Si02
#       8
#     8  16   8  16   8  16  16  16
#     4  11  22  36  58  88 121 161 209 271 332 380
#     4  12  27  45  65  92 128 176 224 264 318 391
#     4  10  22  38  62  98 132 164 202 256 317 376
#     4  10  21  38  62  92 127 169 216 268 324 386
#     4  11  22  38  60  88 121 161 217 271 328 388
#     4  12  24  39  61  88 128 171 216 267 322 380
#     4  11  23  42  68  96 130 169 213 264 321 387
#     4  10  21  38  65  99 132 167 208 263 326 386
#
# _framework density 20.044029999999999
#
# number of rings (size 3 to 8) (size 9 to 14) (size 15 to 20)
#    0.000    1.077    2.308    4.615    3.231    4.308 
#    0.000    0.769    0.000    3.692    0.000    0.000 
#    0.000    0.000    0.000    0.000    0.000    0.000 
#
# Total GULP energy -644654.261742 kJ/mol
# GULP energy per Si atom -12397.197341 kJ/mol
# Density = 1.999841 g / cm^3
# Si number density = 20.044030 Si / 1000 Ang^3
#
#
#
# Elastic Constant Matrix: (Units=GPa)
#
#
# Indices 1 2 3 4 5 6 
#
# 1 125.7441 45.2422 34.7142 0.0000 0.0000 0.0000
# 2 45.2422 85.8229 30.6321 0.0000 0.0000 0.0000
# 3 34.7142 30.6321 92.8896 0.0000 0.0000 0.0000
# 4 0.0000 0.0000 0.0000 26.8885 0.0000 0.0000
# 5 0.0000 0.0000 0.0000 0.0000 38.7128 0.0000
# 6 0.0000 0.0000 0.0000 0.0000 0.0000 32.9651
#
#
#
# Elastic Compliance Matrix: (Units=1/GPa)
#
#
# Indices 1 2 3 4 5 6 
#
# 1 0.010237 -0.004569 -0.002319 0.000000 0.000000 0.000000
# 2 -0.004569 0.015245 -0.003320 0.000000 0.000000 0.000000
# 3 -0.002319 -0.003320 0.012727 0.000000 0.000000 0.000000
# 4 0.000000 0.000000 0.000000 0.037191 0.000000 0.000000
# 5 0.000000 0.000000 0.000000 0.000000 0.025831 0.000000
# 6 0.000000 0.000000 0.000000 0.000000 0.000000 0.030335
#
#
# Mechanical properties :
#
#
# Convention : Reuss Voigt Hill
#
# Bulk Modulus (GPa) = 56.20019 58.40374 57.30196
# Shear Modulus (GPa) = 31.66313 32.63782 32.15047
#
# Velocity S-wave (km/s) = 3.97883 4.03961 4.00933
# Velocity P-wave (km/s) = 7.01479 7.13855 7.07694
#
# Compressibility (1/GPa) = 0.01779353
#
# Stress axis : x y z
#
# Youngs Moduli (GPa) = 97.68835 65.59407 78.57337
#
# Poissons Ratio (x) = 0.29967 0.18221
# Poissons Ratio (y) = 0.44630 0.26087
# Poissons Ratio (z) = 0.22654 0.21778
#
# Static dielectric constant tensor:
#      x y z
#    x 4.020320 0.000000 0.000000 
#    y 0.000000 3.542840 0.000000 
#    z 0.000000 0.000000 3.469730 
# 
# 
# High freq. dielectric constant tensor:
#      x y z
#    x 1.803440 0.000000 0.000000 
#    y 0.000000 1.766810 0.000000 
#    z 0.000000 0.000000 1.780120 
# 
# From -- ./inp_files/64558.got.cif
#   From: 2010.03.12/outbox.cif.g09.slc.cpg/sg74_33_cif.got.tgz:64558.got - 2010.04.16 15:46:19.
