data_PCOD8301965
_publ_section_title
;
Structure prediction by ZEFSAII (Michael W. Deem and Ramdas Pophale) SiO2 
 PCOD8301965
Probable space group: P 41
;
_chemical_formula_sum "Si O2"
_cell_formula_units_Z 20
_cell_length_a 5.146946
_cell_length_b 5.146946
_cell_length_c 27.263986
_cell_angle_alpha 90.000000
_cell_angle_beta 90.000000
_cell_angle_gamma 90.000000
_cell_volume 722.251702
_symmetry_space_group_name_H-M "P 41"
_symmetry_group_IT_number 76
_symmetry_cell_setting 'tetragonal'
loop_
_space_group_symop_operation_xyz
x,y,z
-y,x,1/4+z
-x,-y,1/2+z
y,-x,3/4+z
loop_
_atom_site_type_symbol
_atom_site_label
_atom_site_fract_x
_atom_site_fract_y
_atom_site_fract_z
Si Si1 0.966053 0.485300 0.730710
Si Si2 0.188075 0.873955 0.797179
Si Si3 0.250219 0.120990 0.663375
Si Si4 0.316498 0.806391 0.311462
Si Si5 0.254278 0.198326 0.150184
O O1 0.781170 0.427550 0.776982
O O2 0.770695 0.554187 0.685927
O O3 0.169738 0.711579 0.746461
O O4 0.148316 0.247116 0.713986
O O5 0.401386 0.100993 0.792903
O O6 0.271239 0.684098 0.843255
O O7 0.895234 0.968161 0.805993
O O8 0.280506 0.330541 0.618823
O O9 0.532082 0.994345 0.672794
O O10 0.038949 0.910495 0.647326
#
# Coordination Sequence:
#
# PCOD8301965 Si02
#       5
#     4   4   4   4   4
#     4  12  26  50  88 116 174 226 282 354 438 504
#     4  11  26  50  79 121 166 219 286 353 422 512
#     4  11  26  50  79 121 166 219 286 353 422 512
#     4  11  26  50  79 121 166 219 286 353 422 512
#     4  11  26  50  79 121 166 219 286 353 422 512
#
# _framework density 27.691175999999999
#
# number of rings (size 3 to 8) (size 9 to 14) (size 15 to 20)
#    0.000    0.800    4.000    1.200    0.000   12.800 
#    0.000    0.000    0.000    0.000    0.000    0.000 
#    0.000    0.000    0.000    0.000    0.000    0.000 
#
# Total GULP energy -248024.689136 kJ/mol
# GULP energy per Si atom -12401.234457 kJ/mol
# Density = 2.762815 g / cm^3
# Si number density = 27.691176 Si / 1000 Ang^3
#
#
#
# Elastic Constant Matrix: (Units=GPa)
#
#
# Indices 1 2 3 4 5 6 
#
# 1 93.8021 21.2322 11.0229 0.0000 0.0000 -1.1324
# 2 21.2322 93.8021 11.0229 0.0000 0.0000 1.1324
# 3 11.0229 11.0229 116.0060 0.0000 0.0000 0.0000
# 4 0.0000 0.0000 0.0000 41.4900 0.0000 0.0000
# 5 0.0000 0.0000 0.0000 0.0000 41.4900 0.0000
# 6 -1.1324 1.1324 0.0000 0.0000 0.0000 40.0574
#
#
#
# Elastic Compliance Matrix: (Units=1/GPa)
#
#
# Indices 1 2 3 4 5 6 
#
# 1 0.011323 -0.002469 -0.000841 0.000000 0.000000 0.000390
# 2 -0.002469 0.011323 -0.000841 0.000000 0.000000 -0.000390
# 3 -0.000841 -0.000841 0.008780 0.000000 0.000000 0.000000
# 4 0.000000 0.000000 0.000000 0.024102 0.000000 0.000000
# 5 0.000000 0.000000 0.000000 0.000000 0.024102 0.000000
# 6 0.000390 -0.000390 0.000000 0.000000 0.000000 0.024986
#
#
# Mechanical properties :
#
#
# Convention : Reuss Voigt Hill
#
# Bulk Modulus (GPa) = 43.24627 43.35180 43.29904
# Shear Modulus (GPa) = 41.44981 41.96297 41.70639
#
# Velocity S-wave (km/s) = 3.87312 3.89703 3.88509
# Velocity P-wave (km/s) = 5.97099 5.99487 5.98294
#
# Compressibility (1/GPa) = 0.02312338
#
# Stress axis : x y z
#
# Youngs Moduli (GPa) = 88.31467 88.31467 113.89349
#
# Poissons Ratio (x) = 0.21804 0.09582
# Poissons Ratio (y) = 0.21804 0.09582
# Poissons Ratio (z) = 0.07430 0.07430
#
# Static dielectric constant tensor:
#      x y z
#    x 4.677300 0.000000 0.000000 
#    y 0.000000 4.677300 0.000000 
#    z 0.000000 0.000000 5.774460 
# 
# 
# High freq. dielectric constant tensor:
#      x y z
#    x 2.105160 0.000000 0.000000 
#    y 0.000000 2.105160 0.000000 
#    z 0.000000 0.000000 2.145800 
# 
# From -- ./inp_files/1677.got.cif
#   From: 2010.03.12/outbox.cif.g09.slc.cpg/sg76_cif.got.tgz:1677.got - 2010.04.16 16:34:25.
