data_PCOD8301703
_publ_section_title
;
Structure prediction by ZEFSAII (Michael W. Deem and Ramdas Pophale) SiO2 
 PCOD8301703
Probable space group: I M M A
;
_chemical_formula_sum "Si O2"
_cell_formula_units_Z 96
_cell_length_a 19.918668
_cell_length_b 15.805286
_cell_length_c 15.048308
_cell_angle_alpha 90.000000
_cell_angle_beta 90.000000
_cell_angle_gamma 90.000000
_cell_volume 4737.512004
_symmetry_space_group_name_H-M "I M M A"
_symmetry_group_IT_number 74
_symmetry_cell_setting 'orthorhombic'
loop_
_space_group_symop_operation_xyz
x,y,z
-x,1/2-y,z
x,-y,-z
-x,1/2+y,-z
-x,-y,-z
x,1/2+y,-z
-x,y,z
x,1/2-y,z
1/2+x,1/2+y,1/2+z
1/2-x,-y,1/2+z
1/2+x,1/2-y,1/2-z
1/2-x,y,1/2-z
1/2-x,1/2-y,1/2-z
1/2+x,y,1/2-z
1/2-x,1/2+y,1/2+z
1/2+x,-y,1/2+z
loop_
_atom_site_type_symbol
_atom_site_label
_atom_site_fract_x
_atom_site_fract_y
_atom_site_fract_z
Si Si1 0.696240 0.873347 0.173992
Si Si2 0.925056 0.655032 0.790464
Si Si3 0.922125 0.750000 0.288300
Si Si4 0.811059 0.427867 0.313024
Si Si5 0.756086 0.345779 0.475789
Si Si6 0.384524 0.593744 0.525701
Si Si7 0.073714 0.250000 0.919478
O O1 0.750000 0.843430 0.250000
O O2 0.622329 0.832056 0.185267
O O3 0.689322 0.972756 0.174672
O O4 0.722619 0.846579 0.077816
O O5 0.895622 0.750000 0.787355
O O6 0.881041 0.592915 0.732411
O O7 0.927890 0.623242 0.891397
O O8 0.000000 0.652561 0.751885
O O9 0.930749 0.750000 0.184506
O O10 0.000000 0.750000 0.328454
O O11 0.750000 0.397068 0.250000
O O12 0.812467 0.380425 0.408218
O O13 0.736958 0.250000 0.449781
O O14 0.694481 0.408629 0.452996
O O15 0.409576 0.500000 0.500000
O O16 0.390027 0.663053 0.447325
O O17 0.000000 0.250000 0.962958
#
# Coordination Sequence:
#
# PCOD8301703 Si02
#       7
#    16  16   8  16  16  16   8
#     4  11  24  43  67  99 131 166 217 275 328 388
#     4  11  24  43  63  91 135 176 216 270 330 391
#     4  11  25  43  65  92 130 176 219 269 331 391
#     4  11  24  41  66  99 129 166 219 270 320 389
#     4  12  23  41  70  96 128 169 213 272 333 384
#     4  12  24  39  63  97 133 171 219 270 329 397
#     4  11  24  41  61  91 131 176 219 262 327 401
#
# _framework density 20.263801000000001
#
# number of rings (size 3 to 8) (size 9 to 14) (size 15 to 20)
#    0.000    0.667    4.167    3.750    4.667    2.667 
#    0.000    0.833    0.000    2.000    0.000    0.000 
#    0.000    0.000    0.000    0.000    0.000    0.000 
#
# Total GULP energy -595153.440267 kJ/mol
# GULP energy per Si atom -12399.030006 kJ/mol
# Density = 2.021768 g / cm^3
# Si number density = 20.263801 Si / 1000 Ang^3
#
#
#
# Elastic Constant Matrix: (Units=GPa)
#
#
# Indices 1 2 3 4 5 6 
#
# 1 105.4909 26.2295 28.7250 0.0000 0.0000 0.0000
# 2 26.2295 127.1656 25.3716 0.0000 0.0000 0.0000
# 3 28.7250 25.3716 97.4655 0.0000 0.0000 0.0000
# 4 0.0000 0.0000 0.0000 77.2390 0.0000 0.0000
# 5 0.0000 0.0000 0.0000 0.0000 25.8409 0.0000
# 6 0.0000 0.0000 0.0000 0.0000 0.0000 21.1267
#
#
#
# Elastic Compliance Matrix: (Units=1/GPa)
#
#
# Indices 1 2 3 4 5 6 
#
# 1 0.010626 -0.001653 -0.002701 0.000000 0.000000 0.000000
# 2 -0.001653 0.008552 -0.001739 0.000000 0.000000 0.000000
# 3 -0.002701 -0.001739 0.011509 0.000000 0.000000 0.000000
# 4 0.000000 0.000000 0.000000 0.012947 0.000000 0.000000
# 5 0.000000 0.000000 0.000000 0.000000 0.038698 0.000000
# 6 0.000000 0.000000 0.000000 0.000000 0.000000 0.047333
#
#
# Mechanical properties :
#
#
# Convention : Reuss Voigt Hill
#
# Bulk Modulus (GPa) = 54.05375 54.53045 54.29210
# Shear Modulus (GPa) = 33.77961 41.49439 37.63700
#
# Velocity S-wave (km/s) = 4.08731 4.53007 4.31438
# Velocity P-wave (km/s) = 7.00055 7.37094 7.18813
#
# Compressibility (1/GPa) = 0.01850010
#
# Stress axis : x y z
#
# Youngs Moduli (GPa) = 94.10847 116.93681 86.88929
#
# Poissons Ratio (x) = 0.19327 0.23473
# Poissons Ratio (y) = 0.15554 0.15110
# Poissons Ratio (z) = 0.25423 0.20335
#
# Static dielectric constant tensor:
#      x y z
#    x 3.847000 0.000000 0.000000 
#    y 0.000000 3.344510 0.000000 
#    z 0.000000 0.000000 3.658990 
# 
# 
# High freq. dielectric constant tensor:
#      x y z
#    x 1.784660 0.000000 0.000000 
#    y 0.000000 1.806690 0.000000 
#    z 0.000000 0.000000 1.787440 
# 
# From -- ./inp_files/32464.got.cif
#   From: 2010.03.12/outbox.cif.g09.slc.cpg/sg74_17_cif.got.tgz:32464.got - 2010.04.16 15:46:19.
