data_PCOD8301449
_publ_section_title
;
Structure prediction by ZEFSAII (Michael W. Deem and Ramdas Pophale) SiO2 
 PCOD8301449
Probable space group: I M M A
;
_chemical_formula_sum "Si O2"
_cell_formula_units_Z 80
_cell_length_a 10.149936
_cell_length_b 20.848077
_cell_length_c 23.109426
_cell_angle_alpha 90.000000
_cell_angle_beta 90.000000
_cell_angle_gamma 90.000000
_cell_volume 4890.108156
_symmetry_space_group_name_H-M "I M M A"
_symmetry_group_IT_number 74
_symmetry_cell_setting 'orthorhombic'
loop_
_space_group_symop_operation_xyz
x,y,z
-x,1/2-y,z
x,-y,-z
-x,1/2+y,-z
-x,-y,-z
x,1/2+y,-z
-x,y,z
x,1/2-y,z
1/2+x,1/2+y,1/2+z
1/2-x,-y,1/2+z
1/2+x,1/2-y,1/2-z
1/2-x,y,1/2-z
1/2-x,1/2-y,1/2-z
1/2+x,y,1/2-z
1/2-x,1/2+y,1/2+z
1/2+x,-y,1/2+z
loop_
_atom_site_type_symbol
_atom_site_label
_atom_site_fract_x
_atom_site_fract_y
_atom_site_fract_z
Si Si1 0.500000 0.324727 0.860843
Si Si2 0.658043 0.516139 0.414870
Si Si3 0.261474 0.398039 0.479090
Si Si4 0.000000 0.824538 0.498592
Si Si5 0.743321 0.603390 0.315858
Si Si6 0.000000 0.824662 0.143992
Si Si7 0.500000 0.824425 0.484995
O O1 0.500000 0.250000 0.841067
O O2 0.500000 0.328983 0.929699
O O3 0.625232 0.361756 0.836382
O O4 0.500000 0.514170 0.421408
O O5 0.724532 0.561914 0.462124
O O6 0.716620 0.444761 0.424244
O O7 0.706317 0.540144 0.352444
O O8 0.123668 0.361747 0.474748
O O9 0.372593 0.343605 0.478710
O O10 0.000000 0.750000 0.518065
O O11 0.750000 0.580054 0.250000
O O12 0.628183 0.655334 0.320963
O O13 0.000000 0.750000 0.137177
O O14 0.000000 0.857057 0.079642
O O15 0.500000 0.750000 0.475138
#
# Coordination Sequence:
#
# PCOD8301449 Si02
#       7
#     8  16  16   8  16   8   8
#     4  11  23  37  49  71 107 144 186 221 255 299
#     4  11  20  36  56  75 101 133 182 222 258 302
#     4  11  19  34  55  76 102 137 171 211 265 318
#     4  11  22  35  51  79 115 138 165 214 264 314
#     4  12  23  36  52  72 102 139 186 227 257 292
#     4  11  21  35  51  69 101 144 186 221 253 289
#     4  11  18  31  55  79 101 136 179 214 254 302
#
# _framework density 16.359556000000001
#
# number of rings (size 3 to 8) (size 9 to 14) (size 15 to 20)
#    0.000    0.800    7.000    2.400    0.000    8.000 
#    0.000    0.000    0.000    0.000    0.000    0.000 
#    0.000    4.800    0.000    0.000    0.000    0.000 
#
# Total GULP energy -495995.108554 kJ/mol
# GULP energy per Si atom -12399.877714 kJ/mol
# Density = 1.632232 g / cm^3
# Si number density = 16.359556 Si / 1000 Ang^3
#
#
#
# Elastic Constant Matrix: (Units=GPa)
#
#
# Indices 1 2 3 4 5 6 
#
# 1 149.8303 56.7340 32.2608 0.0000 0.0000 0.0000
# 2 56.7340 95.0263 51.1415 0.0000 0.0000 0.0000
# 3 32.2608 51.1415 73.8549 0.0000 0.0000 0.0000
# 4 0.0000 0.0000 0.0000 21.9654 0.0000 0.0000
# 5 0.0000 0.0000 0.0000 0.0000 13.8516 0.0000
# 6 0.0000 0.0000 0.0000 0.0000 0.0000 27.5297
#
#
#
# Elastic Compliance Matrix: (Units=1/GPa)
#
#
# Indices 1 2 3 4 5 6 
#
# 1 0.008629 -0.004978 -0.000322 0.000000 0.000000 0.000000
# 2 -0.004978 0.019647 -0.011430 0.000000 0.000000 0.000000
# 3 -0.000322 -0.011430 0.021596 0.000000 0.000000 0.000000
# 4 0.000000 0.000000 0.000000 0.045526 0.000000 0.000000
# 5 0.000000 0.000000 0.000000 0.000000 0.072194 0.000000
# 6 0.000000 0.000000 0.000000 0.000000 0.000000 0.036324
#
#
# Mechanical properties :
#
#
# Convention : Reuss Voigt Hill
#
# Bulk Modulus (GPa) = 60.93626 66.55377 63.74501
# Shear Modulus (GPa) = 20.58910 24.57435 22.58172
#
# Velocity S-wave (km/s) = 3.55143 3.87995 3.71932
# Velocity P-wave (km/s) = 7.35839 7.80014 7.58248
#
# Compressibility (1/GPa) = 0.01641059
#
# Stress axis : x y z
#
# Youngs Moduli (GPa) = 115.89370 50.89761 46.30568
#
# Poissons Ratio (x) = 0.25339 0.01490
# Poissons Ratio (y) = 0.57697 0.52929
# Poissons Ratio (z) = 0.03729 0.58178
#
# Static dielectric constant tensor:
#      x y z
#    x 3.106910 0.000000 0.000000 
#    y 0.000000 3.168960 0.000000 
#    z 0.000000 0.000000 2.985850 
# 
# 
# High freq. dielectric constant tensor:
#      x y z
#    x 1.648450 0.000000 0.000000 
#    y 0.000000 1.627600 0.000000 
#    z 0.000000 0.000000 1.591160 
# 
# From -- ./inp_files/56918.got.cif
#   From: 2010.03.12/outbox.cif.g09.slc.cpg/sg74_29_cif.got.tgz:56918.got - 2010.04.16 15:46:19.
