data_PCOD8301456
_publ_section_title
;
Structure prediction by ZEFSAII (Michael W. Deem and Ramdas Pophale) SiO2 
 PCOD8301456
Probable space group: I M M A
;
_chemical_formula_sum "Si O2"
_cell_formula_units_Z 96
_cell_length_a 14.266781
_cell_length_b 31.338293
_cell_length_c 13.993078
_cell_angle_alpha 90.000000
_cell_angle_beta 90.000000
_cell_angle_gamma 90.000000
_cell_volume 6256.257082
_symmetry_space_group_name_H-M "I M M A"
_symmetry_group_IT_number 74
_symmetry_cell_setting 'orthorhombic'
loop_
_space_group_symop_operation_xyz
x,y,z
-x,1/2-y,z
x,-y,-z
-x,1/2+y,-z
-x,-y,-z
x,1/2+y,-z
-x,y,z
x,1/2-y,z
1/2+x,1/2+y,1/2+z
1/2-x,-y,1/2+z
1/2+x,1/2-y,1/2-z
1/2-x,y,1/2-z
1/2-x,1/2-y,1/2-z
1/2+x,y,1/2-z
1/2-x,1/2+y,1/2+z
1/2+x,-y,1/2+z
loop_
_atom_site_type_symbol
_atom_site_label
_atom_site_fract_x
_atom_site_fract_y
_atom_site_fract_z
Si Si1 0.750000 0.956365 0.859178
Si Si2 0.106414 0.970703 0.138719
Si Si3 0.750000 0.589596 0.455369
Si Si4 0.750000 0.180188 0.636991
Si Si5 0.896542 0.250000 0.637249
Si Si6 0.393586 0.529297 0.138721
Si Si7 0.603458 0.250000 0.637248
O O1 0.750000 0.940003 0.750000
O O2 0.841593 0.984763 0.882246
O O3 0.658407 0.984763 0.882244
O O4 0.749999 0.915732 0.929351
O O5 0.156345 0.931890 0.085492
O O6 0.111737 0.959777 0.249999
O O7 0.000000 0.974807 0.102469
O O8 0.750000 0.638788 0.428558
O O9 0.843654 0.568110 0.414506
O O10 0.750000 0.168884 0.750000
O O11 0.841380 0.207346 0.607215
O O12 0.658620 0.207346 0.607215
O O13 0.904577 0.250000 0.750000
O O14 0.000000 0.250000 0.589856
O O15 0.500000 0.525194 0.102471
O O16 0.500000 0.250000 0.589855
#
# Coordination Sequence:
#
# PCOD8301456 Si02
#       7
#    16  16  16  16   8  16   8
#     4   9  19  32  42  56  82 117 154 186 211 240
#     4   9  17  29  44  62  86 115 144 175 214 257
#     4  11  19  27  43  65  88 111 142 182 216 245
#     4   9  17  28  42  64  89 107 130 163 200 250
#     4   8  15  29  46  61  83 113 132 149 193 257
#     4   9  17  29  44  62  86 115 144 175 214 257
#     4   8  15  29  46  61  83 113 132 149 193 257
#
# _framework density 15.344638
#
# number of rings (size 3 to 8) (size 9 to 14) (size 15 to 20)
#    0.000    2.833    0.000    5.500    0.000    4.000 
#    0.000    3.333    0.000    0.000    0.000    2.333 
#    0.000    1.333    0.000    0.000    0.000    0.000 
#
# Total GULP energy -595067.561555 kJ/mol
# GULP energy per Si atom -12397.240866 kJ/mol
# Density = 1.530971 g / cm^3
# Si number density = 15.344638 Si / 1000 Ang^3
#
#
#
# Elastic Constant Matrix: (Units=GPa)
#
#
# Indices 1 2 3 4 5 6 
#
# 1 143.4847 49.9753 38.7098 0.0000 -0.0001 0.0000
# 2 49.9753 117.0919 64.0933 -0.0003 0.0000 0.0001
# 3 38.7098 64.0933 61.1401 -0.0037 0.0024 -0.0002
# 4 0.0000 -0.0003 -0.0037 25.2771 0.0005 -0.0001
# 5 -0.0001 0.0000 0.0024 0.0005 6.5917 0.0000
# 6 0.0000 0.0001 -0.0002 -0.0001 0.0000 8.0776
#
#
#
# Elastic Compliance Matrix: (Units=1/GPa)
#
#
# Indices 1 2 3 4 5 6 
#
# 1 0.008532 -0.001606 -0.003718 -0.000001 0.000001 0.000000
# 2 -0.001606 0.020341 -0.020307 -0.000003 0.000007 -0.000001
# 3 -0.003718 -0.020307 0.039998 0.000006 -0.000015 0.000001
# 4 -0.000001 -0.000003 0.000006 0.039562 -0.000003 0.000000
# 5 0.000001 0.000007 -0.000015 -0.000003 0.151706 0.000000
# 6 0.000000 -0.000001 0.000001 0.000000 0.000000 0.123799
#
#
# Mechanical properties :
#
#
# Convention : Reuss Voigt Hill
#
# Bulk Modulus (GPa) = 56.79047 69.69705 63.24376
# Shear Modulus (GPa) = 11.33610 19.25184 15.29397
#
# Velocity S-wave (km/s) = 2.72097 3.54592 3.16048
# Velocity P-wave (km/s) = 6.85288 7.89205 7.39075
#
# Compressibility (1/GPa) = 0.01760859
#
# Stress axis : x y z
#
# Youngs Moduli (GPa) = 117.20728 49.16070 25.00153
#
# Poissons Ratio (x) = 0.07897 0.09295
# Poissons Ratio (y) = 0.18828 0.50770
# Poissons Ratio (z) = 0.43576 0.99830
#
# Static dielectric constant tensor:
#      x y z
#    x 3.650840 0.000000 0.000000 
#    y 0.000000 2.664570 0.000000 
#    z 0.000000 0.000000 2.771240 
# 
# 
# High freq. dielectric constant tensor:
#      x y z
#    x 1.602400 0.000000 0.000000 
#    y 0.000000 1.558230 0.000000 
#    z 0.000000 0.000000 1.562660 
# 
# From -- ./inp_files/33100.got.cif
#   From: 2010.03.12/outbox.cif.g09.slc.cpg/sg74_17_cif.got.tgz:33100.got - 2010.04.16 15:46:19.
