data_PCOD8301226
_publ_section_title
;
Structure prediction by ZEFSAII (Michael W. Deem and Ramdas Pophale) SiO2 
 PCOD8301226
Probable space group: I M M A
;
_chemical_formula_sum "Si O2"
_cell_formula_units_Z 96
_cell_length_a 22.055387
_cell_length_b 18.848542
_cell_length_c 12.227888
_cell_angle_alpha 90.000000
_cell_angle_beta 90.000000
_cell_angle_gamma 90.000000
_cell_volume 5083.278409
_symmetry_space_group_name_H-M "I M M A"
_symmetry_group_IT_number 74
_symmetry_cell_setting 'orthorhombic'
loop_
_space_group_symop_operation_xyz
x,y,z
-x,1/2-y,z
x,-y,-z
-x,1/2+y,-z
-x,-y,-z
x,1/2+y,-z
-x,y,z
x,1/2-y,z
1/2+x,1/2+y,1/2+z
1/2-x,-y,1/2+z
1/2+x,1/2-y,1/2-z
1/2-x,y,1/2-z
1/2-x,1/2-y,1/2-z
1/2+x,y,1/2-z
1/2-x,1/2+y,1/2+z
1/2+x,-y,1/2+z
loop_
_atom_site_type_symbol
_atom_site_label
_atom_site_fract_x
_atom_site_fract_y
_atom_site_fract_z
Si Si1 0.114711 0.548795 0.689512
Si Si2 0.636171 0.429428 0.435147
Si Si3 0.376975 0.829928 0.962451
Si Si4 0.429600 0.832553 0.402650
Si Si5 0.733203 0.892221 0.866857
Si Si6 0.070150 0.105492 0.672093
O O1 0.105028 0.565253 0.816960
O O2 0.087998 0.615436 0.619362
O O3 0.187024 0.542054 0.661738
O O4 0.080682 0.477926 0.653742
O O5 0.619140 0.500000 0.500000
O O6 0.608495 0.361575 0.495620
O O7 0.708593 0.420406 0.430694
O O8 0.398648 0.750000 0.938439
O O9 0.390596 0.849376 0.087344
O O10 0.304069 0.836110 0.941436
O O11 0.500000 0.847160 0.425544
O O12 0.415586 0.750000 0.389100
O O13 0.408282 0.872448 0.292771
O O14 0.750000 0.855956 0.750000
O O15 0.000000 0.124250 0.654192
#
# Coordination Sequence:
#
# PCOD8301226 Si02
#       6
#    16  16  16  16  16  16
#     4   9  21  39  58  90 119 154 199 251 290 354
#     4  11  20  37  65  91 116 157 199 245 296 353
#     4  10  22  38  58  86 120 158 198 243 297 359
#     4  10  23  41  61  89 124 159 197 243 297 354
#     4   8  20  38  58  86 121 153 192 240 305 351
#     4  11  22  40  63  85 119 163 202 244 299 355
#
# _framework density 18.885449000000001
#
# number of rings (size 3 to 8) (size 9 to 14) (size 15 to 20)
#    1.000    1.167    1.667    1.000    2.333    5.000 
#    0.000    0.833    0.000    2.000    0.000    0.000 
#    0.000    0.000    0.000    0.000    0.000    0.000 
#
# Total GULP energy -594981.059682 kJ/mol
# GULP energy per Si atom -12395.438743 kJ/mol
# Density = 1.884247 g / cm^3
# Si number density = 18.885449 Si / 1000 Ang^3
#
#
#
# Elastic Constant Matrix: (Units=GPa)
#
#
# Indices 1 2 3 4 5 6 
#
# 1 53.7678 14.9817 32.4169 0.0000 0.0000 0.0000
# 2 14.9817 113.7391 34.9655 0.0000 0.0000 0.0000
# 3 32.4169 34.9655 91.8194 0.0000 0.0000 0.0000
# 4 0.0000 0.0000 0.0000 29.6387 0.0000 0.0000
# 5 0.0000 0.0000 0.0000 0.0000 33.4279 0.0000
# 6 0.0000 0.0000 0.0000 0.0000 0.0000 22.5682
#
#
#
# Elastic Compliance Matrix: (Units=1/GPa)
#
#
# Indices 1 2 3 4 5 6 
#
# 1 0.023667 -0.000621 -0.008119 0.000000 0.000000 0.000000
# 2 -0.000621 0.009974 -0.003579 0.000000 0.000000 0.000000
# 3 -0.008119 -0.003579 0.015120 0.000000 0.000000 0.000000
# 4 0.000000 0.000000 0.000000 0.033740 0.000000 0.000000
# 5 0.000000 0.000000 0.000000 0.000000 0.029915 0.000000
# 6 0.000000 0.000000 0.000000 0.000000 0.000000 0.044310
#
#
# Mechanical properties :
#
#
# Convention : Reuss Voigt Hill
#
# Bulk Modulus (GPa) = 41.45494 47.11716 44.28605
# Shear Modulus (GPa) = 26.39851 28.92445 27.66148
#
# Velocity S-wave (km/s) = 3.74280 3.91778 3.83129
# Velocity P-wave (km/s) = 6.37781 6.74303 6.56296
#
# Compressibility (1/GPa) = 0.02412258
#
# Stress axis : x y z
#
# Youngs Moduli (GPa) = 42.25381 100.25969 66.13704
#
# Poissons Ratio (x) = 0.06231 0.53695
# Poissons Ratio (y) = 0.02626 0.23669
# Poissons Ratio (z) = 0.34305 0.35881
#
# Static dielectric constant tensor:
#      x y z
#    x 3.271860 0.000000 0.000000 
#    y 0.000000 3.267880 0.000000 
#    z 0.000000 0.000000 3.519800 
# 
# 
# High freq. dielectric constant tensor:
#      x y z
#    x 1.716810 0.000000 0.000000 
#    y 0.000000 1.722420 0.000000 
#    z 0.000000 0.000000 1.743910 
# 
# From -- ./inp_files/26256.got.cif
#   From: 2010.03.12/outbox.cif.g09.slc.cpg/sg74_14_cif.got.tgz:26256.got - 2010.04.16 15:46:19.
