data_PCOD8301063
_publ_section_title
;
Structure prediction by ZEFSAII (Michael W. Deem and Ramdas Pophale) SiO2 
 PCOD8301063
Probable space group: I M M A
;
_chemical_formula_sum "Si O2"
_cell_formula_units_Z 112
_cell_length_a 14.497782
_cell_length_b 24.419823
_cell_length_c 14.404888
_cell_angle_alpha 90.000000
_cell_angle_beta 90.000000
_cell_angle_gamma 90.000000
_cell_volume 5099.809607
_symmetry_space_group_name_H-M "I M M A"
_symmetry_group_IT_number 74
_symmetry_cell_setting 'orthorhombic'
loop_
_space_group_symop_operation_xyz
x,y,z
-x,1/2-y,z
x,-y,-z
-x,1/2+y,-z
-x,-y,-z
x,1/2+y,-z
-x,y,z
x,1/2-y,z
1/2+x,1/2+y,1/2+z
1/2-x,-y,1/2+z
1/2+x,1/2-y,1/2-z
1/2-x,y,1/2-z
1/2-x,1/2-y,1/2-z
1/2+x,y,1/2-z
1/2-x,1/2+y,1/2+z
1/2+x,-y,1/2+z
loop_
_atom_site_type_symbol
_atom_site_label
_atom_site_fract_x
_atom_site_fract_y
_atom_site_fract_z
Si Si1 0.230990 0.451542 0.947507
Si Si2 0.400257 0.500629 0.840484
Si Si3 0.393164 0.187915 0.850405
Si Si4 0.899366 0.188742 0.114524
Si Si5 0.715839 0.845953 0.969088
Si Si6 0.849162 0.617975 0.714945
Si Si7 0.396295 0.404047 0.703838
O O1 0.314071 0.485369 0.902602
O O2 0.171055 0.410903 0.883644
O O3 0.172450 0.500000 0.000000
O O4 0.278812 0.411399 0.020460
O O5 0.500000 0.487668 0.888773
O O6 0.404565 0.563652 0.810612
O O7 0.392681 0.463308 0.749508
O O8 0.500000 0.175950 0.873551
O O9 0.379699 0.250000 0.812601
O O10 0.359170 0.144001 0.773042
O O11 0.335954 0.182208 0.945252
O O12 0.886104 0.250000 0.152561
O O13 0.819507 0.177607 0.039265
O O14 0.899930 0.149061 0.202626
O O15 0.000000 0.181995 0.065572
O O16 0.659826 0.839612 0.872384
O O17 0.750000 0.598420 0.750000
O O18 0.500000 0.389045 0.671049
#
# Coordination Sequence:
#
# PCOD8301063 Si02
#       7
#    16  16  16  16  16  16  16
#     4  12  24  41  63  93 133 170 209 266 325 388
#     4  11  22  38  63  93 126 167 211 256 321 393
#     4  10  22  42  67  96 128 166 218 274 328 389
#     4  10  23  43  64  90 131 179 223 267 322 390
#     4  11  23  38  64  96 129 169 215 273 326 386
#     4  10  21  38  61  92 130 172 216 267 323 390
#     4  10  23  42  66  93 127 170 213 265 329 393
#
# _framework density 21.961604999999999
#
# number of rings (size 3 to 8) (size 9 to 14) (size 15 to 20)
#    0.000    1.429    2.857    2.143    2.000    5.429 
#    0.000    3.571    0.000    1.714    0.000    0.000 
#    0.000    0.000    0.000    0.000    0.000    0.000 
#
# Total GULP energy -694056.708762 kJ/mol
# GULP energy per Si atom -12393.869799 kJ/mol
# Density = 2.191162 g / cm^3
# Si number density = 21.961605 Si / 1000 Ang^3
#
#
#
# Elastic Constant Matrix: (Units=GPa)
#
#
# Indices 1 2 3 4 5 6 
#
# 1 108.8331 41.1977 48.2882 -0.0001 0.0000 -0.0001
# 2 41.1977 118.5362 33.1654 -0.0003 0.0000 -0.0002
# 3 48.2882 33.1654 92.9240 -0.0004 -0.0001 -0.0003
# 4 -0.0001 -0.0003 -0.0004 23.5677 0.0000 -0.0003
# 5 0.0000 0.0000 -0.0001 0.0000 -10.5288 0.0001
# 6 -0.0001 -0.0002 -0.0003 -0.0003 0.0001 27.6604
#
#
#
# Elastic Compliance Matrix: (Units=1/GPa)
#
#
# Indices 1 2 3 4 5 6 
#
# 1 0.012762 -0.002866 -0.005609 0.000000 0.000000 0.000000
# 2 -0.002866 0.010016 -0.002085 0.000000 0.000000 0.000000
# 3 -0.005609 -0.002085 0.014420 0.000000 0.000000 0.000000
# 4 0.000000 0.000000 0.000000 0.042431 0.000000 0.000001
# 5 0.000000 0.000000 0.000000 0.000000 -0.094978 0.000000
# 6 0.000000 0.000000 0.000000 0.000001 0.000000 0.036153
#
#
# Mechanical properties :
#
#
# Convention : Reuss Voigt Hill
#
# Bulk Modulus (GPa) = 62.19853 62.84398 62.52125
# Shear Modulus (GPa) = 105.74434 21.31601 63.53017
#
# Velocity S-wave (km/s) = 6.94652 3.11883 5.38430
# Velocity P-wave (km/s) = 9.62922 6.45345 8.19661
#
# Compressibility (1/GPa) = 0.01607755
#
# Stress axis : x y z
#
# Youngs Moduli (GPa) = 78.35819 99.84187 69.34628
#
# Poissons Ratio (x) = 0.28616 0.38895
# Poissons Ratio (y) = 0.22459 0.14461
# Poissons Ratio (z) = 0.43950 0.20820
#
# Static dielectric constant tensor:
#      x y z
#    x 4.057430 0.000000 0.000000 
#    y 0.000000 4.073460 0.000000 
#    z 0.000000 0.000000 3.813020 
# 
# 
# High freq. dielectric constant tensor:
#      x y z
#    x 1.866370 0.000000 0.000000 
#    y 0.000000 1.873760 0.000000 
#    z 0.000000 0.000000 1.848090 
# 
# From -- ./inp_files/32694.got.cif
#   From: 2010.03.12/outbox.cif.g09.slc.cpg/sg74_17_cif.got.tgz:32694.got - 2010.04.16 15:46:19.
