data_PCOD8301576
_publ_section_title
;
Structure prediction by ZEFSAII (Michael W. Deem and Ramdas Pophale) SiO2 
 PCOD8301576
Probable space group: I M M A
;
_chemical_formula_sum "Si O2"
_cell_formula_units_Z 96
_cell_length_a 15.449772
_cell_length_b 22.516138
_cell_length_c 14.787573
_cell_angle_alpha 90.000000
_cell_angle_beta 90.000000
_cell_angle_gamma 90.000000
_cell_volume 5144.141166
_symmetry_space_group_name_H-M "I M M A"
_symmetry_group_IT_number 74
_symmetry_cell_setting 'orthorhombic'
loop_
_space_group_symop_operation_xyz
x,y,z
-x,1/2-y,z
x,-y,-z
-x,1/2+y,-z
-x,-y,-z
x,1/2+y,-z
-x,y,z
x,1/2-y,z
1/2+x,1/2+y,1/2+z
1/2-x,-y,1/2+z
1/2+x,1/2-y,1/2-z
1/2-x,y,1/2-z
1/2-x,1/2-y,1/2-z
1/2+x,y,1/2-z
1/2-x,1/2+y,1/2+z
1/2+x,-y,1/2+z
loop_
_atom_site_type_symbol
_atom_site_label
_atom_site_fract_x
_atom_site_fract_y
_atom_site_fract_z
Si Si1 0.601607 0.750000 0.747473
Si Si2 0.812330 0.634220 0.519832
Si Si3 0.903716 0.973432 0.598776
Si Si4 0.101498 0.750000 0.548019
Si Si5 0.402664 0.511926 0.606399
Si Si6 0.683410 0.131693 0.329283
Si Si7 0.260812 0.561029 0.153631
O O1 0.500000 0.750000 0.748063
O O2 0.638614 0.750000 0.849660
O O3 0.631828 0.809955 0.699689
O O4 0.871147 0.593581 0.585898
O O5 0.865691 0.692550 0.494158
O O6 0.728839 0.650698 0.577573
O O7 0.783786 0.605585 0.425844
O O8 0.000000 0.974101 0.643472
O O9 0.908011 0.000000 0.500000
O O10 0.835261 0.009948 0.659101
O O11 0.000000 0.750000 0.547093
O O12 0.396940 0.500000 0.500000
O O13 0.500000 0.497405 0.640167
O O14 0.380228 0.577820 0.643322
O O15 0.333137 0.466887 0.644335
O O16 0.750000 0.111921 0.250000
O O17 0.250000 0.594482 0.250000
#
# Coordination Sequence:
#
# PCOD8301576 Si02
#       7
#     8  16  16   8  16  16  16
#     4  11  24  38  56  90 121 153 198 239 298 367
#     4  11  21  38  59  84 119 155 197 241 298 356
#     4   9  18  34  58  85 116 150 190 242 301 354
#     4  11  23  39  60  89 118 151 193 242 304 370
#     4  11  22  38  58  84 121 165 205 244 292 351
#     4  12  21  38  59  86 121 159 195 241 300 356
#     4  11  22  39  58  85 118 158 204 250 293 347
#
# _framework density 18.662008
#
# number of rings (size 3 to 8) (size 9 to 14) (size 15 to 20)
#    0.000    1.167    5.000    2.750    0.000    1.333 
#    0.000    0.417    0.000    0.000    0.000    1.167 
#    0.000    0.000    0.000    0.000    0.000    0.000 
#
# Total GULP energy -594855.734241 kJ/mol
# GULP energy per Si atom -12392.827797 kJ/mol
# Density = 1.861953 g / cm^3
# Si number density = 18.662008 Si / 1000 Ang^3
#
#
#
# Elastic Constant Matrix: (Units=GPa)
#
#
# Indices 1 2 3 4 5 6 
#
# 1 122.4334 47.8991 52.1988 0.0000 0.0000 -0.0001
# 2 47.8991 127.2689 49.7018 0.0001 0.0000 -0.0002
# 3 52.1988 49.7018 105.3828 0.0001 0.0000 -0.0004
# 4 0.0000 0.0001 0.0001 21.2319 0.0000 -0.0002
# 5 0.0000 0.0000 0.0000 0.0000 6.9700 -0.0001
# 6 -0.0001 -0.0002 -0.0004 -0.0002 -0.0001 21.4542
#
#
#
# Elastic Compliance Matrix: (Units=1/GPa)
#
#
# Indices 1 2 3 4 5 6 
#
# 1 0.010946 -0.002454 -0.004264 0.000000 0.000000 0.000000
# 2 -0.002454 0.010182 -0.003586 0.000000 0.000000 0.000000
# 3 -0.004264 -0.003586 0.013293 0.000000 0.000000 0.000000
# 4 0.000000 0.000000 0.000000 0.047099 0.000000 0.000001
# 5 0.000000 0.000000 0.000000 0.000000 0.143471 0.000000
# 6 0.000000 0.000000 0.000000 0.000001 0.000000 0.046611
#
#
# Mechanical properties :
#
#
# Convention : Reuss Voigt Hill
#
# Bulk Modulus (GPa) = 72.40795 72.74272 72.57533
# Shear Modulus (GPa) = 16.84551 23.61692 20.23122
#
# Velocity S-wave (km/s) = 3.00770 3.56126 3.29612
# Velocity P-wave (km/s) = 7.13761 7.48156 7.31161
#
# Compressibility (1/GPa) = 0.01381064
#
# Stress axis : x y z
#
# Youngs Moduli (GPa) = 91.35798 98.21608 75.22857
#
# Poissons Ratio (x) = 0.24105 0.32080
# Poissons Ratio (y) = 0.22422 0.26979
# Poissons Ratio (z) = 0.38958 0.35223
#
# Static dielectric constant tensor:
#      x y z
#    x 3.831630 0.000000 0.000000 
#    y 0.000000 3.303110 0.000000 
#    z 0.000000 0.000000 3.634010 
# 
# 
# High freq. dielectric constant tensor:
#      x y z
#    x 1.739830 0.000000 0.000000 
#    y 0.000000 1.709080 0.000000 
#    z 0.000000 0.000000 1.720160 
# 
# From -- ./inp_files/32434.got.cif
#   From: 2010.03.12/outbox.cif.g09.slc.cpg/sg74_17_cif.got.tgz:32434.got - 2010.04.16 15:46:19.
