data_PCOD8301740
_publ_section_title
;
Structure prediction by ZEFSAII (Michael W. Deem and Ramdas Pophale) SiO2 
 PCOD8301740
Probable space group: I M M A
;
_chemical_formula_sum "Si O2"
_cell_formula_units_Z 88
_cell_length_a 9.351353
_cell_length_b 24.937504
_cell_length_c 27.552118
_cell_angle_alpha 90.000000
_cell_angle_beta 90.000000
_cell_angle_gamma 90.000000
_cell_volume 6425.137465
_symmetry_space_group_name_H-M "I M M A"
_symmetry_group_IT_number 74
_symmetry_cell_setting 'orthorhombic'
loop_
_space_group_symop_operation_xyz
x,y,z
-x,1/2-y,z
x,-y,-z
-x,1/2+y,-z
-x,-y,-z
x,1/2+y,-z
-x,y,z
x,1/2-y,z
1/2+x,1/2+y,1/2+z
1/2-x,-y,1/2+z
1/2+x,1/2-y,1/2-z
1/2-x,y,1/2-z
1/2-x,1/2-y,1/2-z
1/2+x,y,1/2-z
1/2-x,1/2+y,1/2+z
1/2+x,-y,1/2+z
loop_
_atom_site_type_symbol
_atom_site_label
_atom_site_fract_x
_atom_site_fract_y
_atom_site_fract_z
Si Si1 0.172331 0.750000 0.198596
Si Si2 0.167288 0.540182 0.298382
Si Si3 0.832674 0.652426 0.346631
Si Si4 0.158844 0.485884 0.394400
Si Si5 0.659812 0.442341 0.474681
Si Si6 0.342546 0.100126 0.945249
O O1 0.250000 0.750000 0.250000
O O2 0.224110 0.801832 0.169497
O O3 0.000000 0.750000 0.204259
O O4 0.250000 0.524638 0.250000
O O5 0.204037 0.600521 0.314507
O O6 0.215384 0.498003 0.340060
O O7 0.000000 0.534736 0.288673
O O8 0.797671 0.641690 0.403233
O O9 0.000000 0.668467 0.340011
O O10 0.261836 0.444788 0.422553
O O11 0.152004 0.541472 0.422653
O O12 0.000000 0.460663 0.392781
O O13 0.662075 0.500000 0.500000
O O14 0.500000 0.422366 0.465108
O O15 0.734029 0.398408 0.509564
O O16 0.500000 0.114896 0.965048
#
# Coordination Sequence:
#
# PCOD8301740 Si02
#       6
#     8  16  16  16  16  16
#     4  12  24  34  44  56  70  90 116 150 191 228
#     4   9  17  27  39  53  68  89 117 149 182 215
#     4   9  18  32  45  56  69  87 115 148 184 225
#     4   8  14  24  35  48  67  90 114 136 164 205
#     4   9  15  21  32  52  73  89 107 133 165 200
#     4   8  14  25  40  53  67  88 109 133 169 212
#
# _framework density 13.696204
#
# number of rings (size 3 to 8) (size 9 to 14) (size 15 to 20)
#    0.000    3.091    0.000    4.091    0.000    5.818 
#    0.000    3.636    0.000    0.000    0.000    0.000 
#    0.000    0.000    0.000    0.000    0.000    0.000 
#
# Total GULP energy -545313.275278 kJ/mol
# GULP energy per Si atom -12393.483529 kJ/mol
# Density = 1.366503 g / cm^3
# Si number density = 13.696204 Si / 1000 Ang^3
#
#
#
# Elastic Constant Matrix: (Units=GPa)
#
#
# Indices 1 2 3 4 5 6 
#
# 1 99.1520 30.8439 69.3284 0.0000 0.0000 0.0000
# 2 30.8439 25.0140 36.5585 0.0000 0.0000 0.0000
# 3 69.3284 36.5585 113.8176 0.0000 0.0000 0.0000
# 4 0.0000 0.0000 0.0000 19.6821 0.0000 0.0000
# 5 0.0000 0.0000 0.0000 0.0000 26.4007 0.0000
# 6 0.0000 0.0000 0.0000 0.0000 0.0000 13.5645
#
#
#
# Elastic Compliance Matrix: (Units=1/GPa)
#
#
# Indices 1 2 3 4 5 6 
#
# 1 0.019462 -0.012576 -0.007815 0.000000 0.000000 0.000000
# 2 -0.012576 0.083476 -0.019153 0.000000 0.000000 0.000000
# 3 -0.007815 -0.019153 0.019698 0.000000 0.000000 0.000000
# 4 0.000000 0.000000 0.000000 0.050808 0.000000 0.000000
# 5 0.000000 0.000000 0.000000 0.000000 0.037878 0.000000
# 6 0.000000 0.000000 0.000000 0.000000 0.000000 0.073722
#
#
# Mechanical properties :
#
#
# Convention : Reuss Voigt Hill
#
# Bulk Modulus (GPa) = 22.96258 56.82726 39.89492
# Shear Modulus (GPa) = 13.20488 18.67964 15.94226
#
# Velocity S-wave (km/s) = 3.10841 3.69705 3.41543
# Velocity P-wave (km/s) = 5.44839 7.73340 6.68919
#
# Compressibility (1/GPa) = 0.04354912
#
# Stress axis : x y z
#
# Youngs Moduli (GPa) = 51.38163 11.97948 50.76558
#
# Poissons Ratio (x) = 0.15065 0.39676
# Poissons Ratio (y) = 0.64616 0.97229
# Poissons Ratio (z) = 0.40157 0.22944
#
# Static dielectric constant tensor:
#      x y z
#    x 2.863980 0.000000 0.000000 
#    y 0.000000 2.294920 0.000000 
#    z 0.000000 0.000000 2.854320 
# 
# 
# High freq. dielectric constant tensor:
#      x y z
#    x 1.528980 0.000000 0.000000 
#    y 0.000000 1.454460 0.000000 
#    z 0.000000 0.000000 1.520740 
# 
# From -- ./inp_files/65169.got.cif
#   From: 2010.03.12/outbox.cif.g09.slc.cpg/sg74_33_cif.got.tgz:65169.got - 2010.04.16 15:46:19.
