data_PCOD8301164
_publ_section_title
;
Structure prediction by ZEFSAII (Michael W. Deem and Ramdas Pophale) SiO2 
 PCOD8301164
Probable space group: I M M A
;
_chemical_formula_sum "Si O2"
_cell_formula_units_Z 72
_cell_length_a 27.442531
_cell_length_b 22.139551
_cell_length_c 5.176188
_cell_angle_alpha 90.000000
_cell_angle_beta 90.000000
_cell_angle_gamma 90.000000
_cell_volume 3144.872291
_symmetry_space_group_name_H-M "I M M A"
_symmetry_group_IT_number 74
_symmetry_cell_setting 'orthorhombic'
loop_
_space_group_symop_operation_xyz
x,y,z
-x,1/2-y,z
x,-y,-z
-x,1/2+y,-z
-x,-y,-z
x,1/2+y,-z
-x,y,z
x,1/2-y,z
1/2+x,1/2+y,1/2+z
1/2-x,-y,1/2+z
1/2+x,1/2-y,1/2-z
1/2-x,y,1/2-z
1/2-x,1/2-y,1/2-z
1/2+x,y,1/2-z
1/2-x,1/2+y,1/2+z
1/2+x,-y,1/2+z
loop_
_atom_site_type_symbol
_atom_site_label
_atom_site_fract_x
_atom_site_fract_y
_atom_site_fract_z
Si Si1 0.942743 0.564532 0.105360
Si Si2 0.832207 0.250000 0.982464
Si Si3 0.783023 0.500000 0.000000
Si Si4 0.804161 0.374831 0.149609
Si Si5 0.103276 0.250000 0.486040
Si Si6 0.904343 0.623067 0.604637
O O1 0.917577 0.574865 0.383880
O O2 0.000000 0.568249 0.152362
O O3 0.926155 0.500000 0.000000
O O4 0.926461 0.611601 0.887413
O O5 0.865526 0.250000 0.739490
O O6 0.802000 0.313250 0.978051
O O7 0.863131 0.250000 0.238074
O O8 0.750000 0.496157 0.750000
O O9 0.815952 0.561807 0.001439
O O10 0.750000 0.383300 0.250000
O O11 0.845466 0.370812 0.373203
O O12 0.072408 0.187813 0.482618
#
# Coordination Sequence:
#
# PCOD8301164 Si02
#       6
#    16   8   8  16   8  16
#     4  11  25  47  71 100 131 170 228 284 336 410
#     4  10  21  40  66  92 130 188 234 276 320 386
#     4  10  24  42  60  88 137 178 227 288 334 390
#     4  10  23  43  66  98 140 182 235 277 335 407
#     4  10  22  42  64 100 137 166 225 284 322 406
#     4  11  23  43  71  99 135 178 221 276 348 395
#
# _framework density 22.894413
#
# number of rings (size 3 to 8) (size 9 to 14) (size 15 to 20)
#    0.000    1.556    0.000    4.333    1.556   12.444 
#   12.000    8.333    0.000    0.000    0.000    0.000 
#    0.000    0.000    0.000    0.000    0.000    0.000 
#
# Total GULP energy -446047.273949 kJ/mol
# GULP energy per Si atom -12390.202054 kJ/mol
# Density = 2.284230 g / cm^3
# Si number density = 22.894413 Si / 1000 Ang^3
#
#
#
# Elastic Constant Matrix: (Units=GPa)
#
#
# Indices 1 2 3 4 5 6 
#
# 1 64.9952 33.6776 21.9810 0.0000 0.0000 0.0000
# 2 33.6776 200.9979 26.0228 0.0000 0.0000 0.0000
# 3 21.9810 26.0228 132.2817 0.0000 0.0000 0.0000
# 4 0.0000 0.0000 0.0000 19.5409 0.0000 0.0000
# 5 0.0000 0.0000 0.0000 0.0000 30.0304 0.0000
# 6 0.0000 0.0000 0.0000 0.0000 0.0000 24.2909
#
#
#
# Elastic Compliance Matrix: (Units=1/GPa)
#
#
# Indices 1 2 3 4 5 6 
#
# 1 0.017561 -0.002632 -0.002400 0.000000 0.000000 0.000000
# 2 -0.002632 0.005500 -0.000645 0.000000 0.000000 0.000000
# 3 -0.002400 -0.000645 0.008085 0.000000 0.000000 0.000000
# 4 0.000000 0.000000 0.000000 0.051175 0.000000 0.000000
# 5 0.000000 0.000000 0.000000 0.000000 0.033300 0.000000
# 6 0.000000 0.000000 0.000000 0.000000 0.000000 0.041168
#
#
# Mechanical properties :
#
#
# Convention : Reuss Voigt Hill
#
# Bulk Modulus (GPa) = 50.52354 62.40418 56.46386
# Shear Modulus (GPa) = 28.61412 35.87865 32.24638
#
# Velocity S-wave (km/s) = 3.53913 3.96300 3.75705
# Velocity P-wave (km/s) = 6.23029 6.94673 6.59824
#
# Compressibility (1/GPa) = 0.01979275
#
# Stress axis : x y z
#
# Youngs Moduli (GPa) = 56.94389 181.83251 123.68122
#
# Poissons Ratio (x) = 0.47852 0.29689
# Poissons Ratio (y) = 0.14986 0.07972
# Poissons Ratio (z) = 0.13669 0.11721
#
# Static dielectric constant tensor:
#      x y z
#    x 3.819110 0.000000 0.000000 
#    y 0.000000 5.950040 0.000000 
#    z 0.000000 0.000000 3.964380 
# 
# 
# High freq. dielectric constant tensor:
#      x y z
#    x 1.872960 0.000000 0.000000 
#    y 0.000000 1.942450 0.000000 
#    z 0.000000 0.000000 1.904110 
# 
# From -- ./inp_files/4467.got.cif
#   From: 2010.03.12/outbox.cif.g09.slc.cpg/sg74_3_cif.got.tgz:4467.got - 2010.04.16 15:46:19.
