data_PCOD8301531
_publ_section_title
;
Structure prediction by ZEFSAII (Michael W. Deem and Ramdas Pophale) SiO2 
 PCOD8301531
Probable space group: I M M A
;
_chemical_formula_sum "Si O2"
_cell_formula_units_Z 80
_cell_length_a 18.816607
_cell_length_b 8.779467
_cell_length_c 27.230263
_cell_angle_alpha 90.000000
_cell_angle_beta 90.000000
_cell_angle_gamma 90.000000
_cell_volume 4498.433463
_symmetry_space_group_name_H-M "I M M A"
_symmetry_group_IT_number 74
_symmetry_cell_setting 'orthorhombic'
loop_
_space_group_symop_operation_xyz
x,y,z
-x,1/2-y,z
x,-y,-z
-x,1/2+y,-z
-x,-y,-z
x,1/2+y,-z
-x,y,z
x,1/2-y,z
1/2+x,1/2+y,1/2+z
1/2-x,-y,1/2+z
1/2+x,1/2-y,1/2-z
1/2-x,y,1/2-z
1/2-x,1/2-y,1/2-z
1/2+x,y,1/2-z
1/2-x,1/2+y,1/2+z
1/2+x,-y,1/2+z
loop_
_atom_site_type_symbol
_atom_site_label
_atom_site_fract_x
_atom_site_fract_y
_atom_site_fract_z
Si Si1 0.419734 0.929179 0.354913
Si Si2 0.850664 0.070022 0.051953
Si Si3 0.218748 0.927740 0.399767
Si Si4 0.921990 0.928803 0.448642
Si Si5 0.284969 0.428070 0.701546
O O1 0.500000 0.965848 0.337632
O O2 0.407917 0.750000 0.363843
O O3 0.364492 0.987578 0.312718
O O4 0.404521 0.011544 0.406312
O O5 0.855614 0.250000 0.048521
O O6 0.770232 0.021455 0.064572
O O7 0.874160 0.000000 0.000000
O O8 0.232355 0.750000 0.410607
O O9 0.137257 0.976277 0.409048
O O10 0.232824 0.967198 0.343232
O O11 0.923570 0.750000 0.456098
O O12 0.000000 0.987609 0.431396
O O13 0.899614 0.000000 0.500000
O O14 0.290875 0.250000 0.711578
O O15 0.250000 0.506651 0.750000
#
# Coordination Sequence:
#
# PCOD8301531 Si02
#       5
#    16  16  16  16  16
#     4   9  18  33  51  71  97 128 161 196 234 278
#     4  11  21  32  48  70  96 126 160 196 236 284
#     4   9  17  30  47  67  94 126 160 197 234 278
#     4   9  17  28  42  62  89 121 154 188 228 272
#     4   8  14  27  48  71  93 119 152 191 233 273
#
# _framework density 17.783968999999999
#
# number of rings (size 3 to 8) (size 9 to 14) (size 15 to 20)
#    0.000    2.800    0.000    3.600    0.000    3.200 
#    0.000    1.000    0.000   15.600    0.000    0.000 
#    0.000    6.400    0.000    0.000    0.000    0.000 
#
# Total GULP energy -495764.509317 kJ/mol
# GULP energy per Si atom -12394.112733 kJ/mol
# Density = 1.774349 g / cm^3
# Si number density = 17.783969 Si / 1000 Ang^3
#
#
#
# Elastic Constant Matrix: (Units=GPa)
#
#
# Indices 1 2 3 4 5 6 
#
# 1 161.3898 27.6648 78.3835 0.0000 0.0000 0.0000
# 2 27.6648 50.5821 27.8336 0.0000 0.0000 0.0000
# 3 78.3835 27.8336 121.8416 0.0000 0.0000 0.0000
# 4 0.0000 0.0000 0.0000 17.0221 0.0000 0.0000
# 5 0.0000 0.0000 0.0000 0.0000 17.6538 0.0000
# 6 0.0000 0.0000 0.0000 0.0000 0.0000 18.3577
#
#
#
# Elastic Compliance Matrix: (Units=1/GPa)
#
#
# Indices 1 2 3 4 5 6 
#
# 1 0.009190 -0.002028 -0.005449 0.000000 0.000000 0.000000
# 2 -0.002028 0.023060 -0.003963 0.000000 0.000000 0.000000
# 3 -0.005449 -0.003963 0.012618 0.000000 0.000000 0.000000
# 4 0.000000 0.000000 0.000000 0.058747 0.000000 0.000000
# 5 0.000000 0.000000 0.000000 0.000000 0.056645 0.000000
# 6 0.000000 0.000000 0.000000 0.000000 0.000000 0.054473
#
#
# Mechanical properties :
#
#
# Convention : Reuss Voigt Hill
#
# Bulk Modulus (GPa) = 45.47951 66.84193 56.16072
# Shear Modulus (GPa) = 20.41288 23.93548 22.17418
#
# Velocity S-wave (km/s) = 3.39163 3.67263 3.53493
# Velocity P-wave (km/s) = 6.40050 7.45999 6.95046
#
# Compressibility (1/GPa) = 0.02198792
#
# Stress axis : x y z
#
# Youngs Moduli (GPa) = 108.81042 43.36548 79.25045
#
# Poissons Ratio (x) = 0.08795 0.43184
# Poissons Ratio (y) = 0.22067 0.31408
# Poissons Ratio (z) = 0.59291 0.17186
#
# Static dielectric constant tensor:
#      x y z
#    x 3.675280 0.000000 0.000000 
#    y 0.000000 3.052360 0.000000 
#    z 0.000000 0.000000 3.305380 
# 
# 
# High freq. dielectric constant tensor:
#      x y z
#    x 1.697110 0.000000 0.000000 
#    y 0.000000 1.660830 0.000000 
#    z 0.000000 0.000000 1.671670 
# 
# From -- ./inp_files/70385.got.cif
#   From: 2010.03.12/outbox.cif.g09.slc.cpg/sg74_36_cif.got.tgz:70385.got - 2010.04.16 15:46:19.
