data_PCOD8301017
_publ_section_title
;
Structure prediction by ZEFSAII (Michael W. Deem and Ramdas Pophale) SiO2 
 PCOD8301017
Probable space group: I M M A
;
_chemical_formula_sum "Si O2"
_cell_formula_units_Z 80
_cell_length_a 8.489836
_cell_length_b 16.658282
_cell_length_c 28.566377
_cell_angle_alpha 90.000000
_cell_angle_beta 90.000000
_cell_angle_gamma 90.000000
_cell_volume 4040.030782
_symmetry_space_group_name_H-M "I M M A"
_symmetry_group_IT_number 74
_symmetry_cell_setting 'orthorhombic'
loop_
_space_group_symop_operation_xyz
x,y,z
-x,1/2-y,z
x,-y,-z
-x,1/2+y,-z
-x,-y,-z
x,1/2+y,-z
-x,y,z
x,1/2-y,z
1/2+x,1/2+y,1/2+z
1/2-x,-y,1/2+z
1/2+x,1/2-y,1/2-z
1/2-x,y,1/2-z
1/2-x,1/2-y,1/2-z
1/2+x,y,1/2-z
1/2-x,1/2+y,1/2+z
1/2+x,-y,1/2+z
loop_
_atom_site_type_symbol
_atom_site_label
_atom_site_fract_x
_atom_site_fract_y
_atom_site_fract_z
Si Si1 0.681755 0.841362 0.057770
Si Si2 0.324061 0.250000 0.090913
Si Si3 0.682523 0.505267 0.107315
Si Si4 0.681697 0.111325 0.462972
Si Si5 0.314950 0.577423 0.797697
Si Si6 0.680079 0.250000 0.314303
O O1 0.500000 0.839937 0.042057
O O2 0.740715 0.750000 0.067777
O O3 0.701747 0.897443 0.104269
O O4 0.783990 0.885896 0.018064
O O5 0.500000 0.250000 0.112998
O O6 0.302988 0.326786 0.059291
O O7 0.190075 0.250000 0.129954
O O8 0.500000 0.480369 0.102511
O O9 0.779375 0.472218 0.062550
O O10 0.751096 0.469519 0.156308
O O11 0.500000 0.133841 0.454614
O O12 0.500000 0.570325 0.797549
O O13 0.250000 0.536351 0.750000
O O14 0.265111 0.670394 0.796027
O O15 0.500000 0.250000 0.297730
#
# Coordination Sequence:
#
# PCOD8301017 Si02
#       6
#    16   8  16  16  16   8
#     4  10  21  38  60  83 111 150 193 235 281 337
#     4  12  22  35  55  80 116 160 194 229 272 327
#     4  10  22  39  59  82 111 151 193 233 282 339
#     4  12  23  35  55  85 118 153 190 232 281 330
#     4  11  23  39  59  82 113 150 190 235 283 337
#     4  12  23  37  58  86 117 150 190 231 277 333
#
# _framework density 19.801828
#
# number of rings (size 3 to 8) (size 9 to 14) (size 15 to 20)
#    0.000    1.000    3.000    5.100    0.000    4.000 
#    0.000    0.000    0.000    0.600    0.000    0.000 
#    0.000    0.000    0.000    0.000    0.000    0.200 
#
# Total GULP energy -495766.402296 kJ/mol
# GULP energy per Si atom -12394.160057 kJ/mol
# Density = 1.975676 g / cm^3
# Si number density = 19.801828 Si / 1000 Ang^3
#
#
#
# Elastic Constant Matrix: (Units=GPa)
#
#
# Indices 1 2 3 4 5 6 
#
# 1 73.4648 25.0896 23.5396 0.0000 0.0000 0.0000
# 2 25.0896 123.4450 69.9195 0.0000 0.0000 0.0000
# 3 23.5396 69.9195 109.8289 0.0000 0.0000 0.0000
# 4 0.0000 0.0000 0.0000 23.8864 0.0000 0.0000
# 5 0.0000 0.0000 0.0000 0.0000 27.4325 0.0000
# 6 0.0000 0.0000 0.0000 0.0000 0.0000 13.8536
#
#
#
# Elastic Compliance Matrix: (Units=1/GPa)
#
#
# Indices 1 2 3 4 5 6 
#
# 1 0.014897 -0.001907 -0.001979 0.000000 0.000000 0.000000
# 2 -0.001907 0.012913 -0.007812 0.000000 0.000000 0.000000
# 3 -0.001979 -0.007812 0.014503 0.000000 0.000000 0.000000
# 4 0.000000 0.000000 0.000000 0.041865 0.000000 0.000000
# 5 0.000000 0.000000 0.000000 0.000000 0.036453 0.000000
# 6 0.000000 0.000000 0.000000 0.000000 0.000000 0.072184
#
#
# Mechanical properties :
#
#
# Convention : Reuss Voigt Hill
#
# Bulk Modulus (GPa) = 52.86221 60.42624 56.64422
# Shear Modulus (GPa) = 22.47029 25.58049 24.02539
#
# Velocity S-wave (km/s) = 3.37227 3.59810 3.48701
# Velocity P-wave (km/s) = 6.47430 6.91690 6.69925
#
# Compressibility (1/GPa) = 0.01891711
#
# Stress axis : x y z
#
# Youngs Moduli (GPa) = 67.12623 77.44063 68.95335
#
# Poissons Ratio (x) = 0.14767 0.13645
# Poissons Ratio (y) = 0.12800 0.53867
# Poissons Ratio (z) = 0.13284 0.60497
#
# Static dielectric constant tensor:
#      x y z
#    x 3.470270 0.000000 0.000000 
#    y 0.000000 3.657300 0.000000 
#    z 0.000000 0.000000 3.780750 
# 
# 
# High freq. dielectric constant tensor:
#      x y z
#    x 1.768600 0.000000 0.000000 
#    y 0.000000 1.760580 0.000000 
#    z 0.000000 0.000000 1.760700 
# 
# From -- ./inp_files/64004.got.cif
#   From: 2010.03.12/outbox.cif.g09.slc.cpg/sg74_33_cif.got.tgz:64004.got - 2010.04.16 15:46:19.
