data_PCOD8301860
_publ_section_title
;
Structure prediction by ZEFSAII (Michael W. Deem and Ramdas Pophale) SiO2 
 PCOD8301860
Probable space group: P 41
;
_chemical_formula_sum "Si O2"
_cell_formula_units_Z 28
_cell_length_a 12.557460
_cell_length_b 12.557460
_cell_length_c 7.765474
_cell_angle_alpha 90.000000
_cell_angle_beta 90.000000
_cell_angle_gamma 90.000000
_cell_volume 1224.536055
_symmetry_space_group_name_H-M "P 41"
_symmetry_group_IT_number 76
_symmetry_cell_setting 'tetragonal'
loop_
_space_group_symop_operation_xyz
x,y,z
-y,x,1/4+z
-x,-y,1/2+z
y,-x,3/4+z
loop_
_atom_site_type_symbol
_atom_site_label
_atom_site_fract_x
_atom_site_fract_y
_atom_site_fract_z
Si Si1 0.585230 0.798374 0.036260
Si Si2 0.039362 0.217831 0.518587
Si Si3 0.879738 0.977095 0.232355
Si Si4 0.769246 0.604105 0.536042
Si Si5 0.205398 0.778902 0.024232
Si Si6 0.394037 0.584579 0.520637
Si Si7 0.654572 0.022158 0.107061
O O1 0.601067 0.726072 0.204551
O O2 0.577057 0.920427 0.099724
O O3 0.476714 0.764458 0.944360
O O4 0.684973 0.783554 0.910937
O O5 0.089925 0.107141 0.583846
O O6 0.110766 0.250493 0.354841
O O7 0.053187 0.305854 0.666856
O O8 0.916384 0.205855 0.463631
O O9 0.914550 0.940780 0.422776
O O10 0.753883 0.995382 0.232126
O O11 0.754317 0.724152 0.606154
O O12 0.674182 0.575854 0.408294
O O13 0.880033 0.588591 0.434678
O O14 0.407237 0.469687 0.605624
#
# Coordination Sequence:
#
# PCOD8301860 Si02
#       7
#     4   4   4   4   4   4   4
#     4  11  24  46  68  94 138 176 211 275 333 400
#     4  10  19  38  61  90 130 178 215 278 309 366
#     4  10  19  33  59  92 130 175 223 269 313 358
#     4  12  27  41  68 101 131 175 216 271 334 407
#     4  11  23  41  64  98 134 173 230 269 330 383
#     4  12  26  48  77 100 124 163 224 287 333 385
#     4  10  24  39  63  95 139 178 219 259 330 407
#
# _framework density 22.865805999999999
#
# number of rings (size 3 to 8) (size 9 to 14) (size 15 to 20)
#    0.000    1.143    4.286    3.429    4.000    4.571 
#    0.000    0.000    0.000    0.000    0.000    0.000 
#    0.000    0.000    0.000    0.000    0.000    0.000 
#
# Total GULP energy -347377.234215 kJ/mol
# GULP energy per Si atom -12406.329793 kJ/mol
# Density = 2.281376 g / cm^3
# Si number density = 22.865806 Si / 1000 Ang^3
#
#
#
# Elastic Constant Matrix: (Units=GPa)
#
#
# Indices 1 2 3 4 5 6 
#
# 1 81.3516 16.2579 18.3075 0.0000 0.0000 -0.9967
# 2 16.2579 81.3516 18.3075 0.0000 0.0000 0.9967
# 3 18.3075 18.3075 58.1733 0.0000 0.0000 0.0000
# 4 0.0000 0.0000 0.0000 28.9091 0.0000 0.0000
# 5 0.0000 0.0000 0.0000 0.0000 28.9091 0.0000
# 6 -0.9967 0.9967 0.0000 0.0000 0.0000 26.2494
#
#
#
# Elastic Compliance Matrix: (Units=1/GPa)
#
#
# Indices 1 2 3 4 5 6 
#
# 1 0.013498 -0.001882 -0.003656 0.000000 0.000000 0.000584
# 2 -0.001882 0.013498 -0.003656 0.000000 0.000000 -0.000584
# 3 -0.003656 -0.003656 0.019491 0.000000 0.000000 0.000000
# 4 0.000000 0.000000 0.000000 0.034591 0.000000 0.000000
# 5 0.000000 0.000000 0.000000 0.000000 0.034591 0.000000
# 6 0.000584 -0.000584 0.000000 0.000000 0.000000 0.038140
#
#
# Mechanical properties :
#
#
# Convention : Reuss Voigt Hill
#
# Bulk Modulus (GPa) = 35.58642 36.29137 35.93889
# Shear Modulus (GPa) = 27.53847 28.01376 27.77611
#
# Velocity S-wave (km/s) = 3.47414 3.50399 3.48910
# Velocity P-wave (km/s) = 5.62937 5.68124 5.65537
#
# Compressibility (1/GPa) = 0.02810061
#
# Stress axis : x y z
#
# Youngs Moduli (GPa) = 74.08349 74.08349 51.30583
#
# Poissons Ratio (x) = 0.13943 0.18756
# Poissons Ratio (y) = 0.13943 0.18756
# Poissons Ratio (z) = 0.27083 0.27083
#
# Static dielectric constant tensor:
#      x y z
#    x 4.107150 0.000000 0.000000 
#    y 0.000000 4.107150 0.000000 
#    z 0.000000 0.000000 3.941030 
# 
# 
# High freq. dielectric constant tensor:
#      x y z
#    x 1.901150 0.000000 0.000000 
#    y 0.000000 1.901150 0.000000 
#    z 0.000000 0.000000 1.902210 
# 
# From -- ./inp_files/618.got.cif
#   From: 2010.03.12/outbox.cif.g09.slc.cpg/sg76_cif.got.tgz:618.got - 2010.04.16 16:34:25.
