data_PCOD8301488
_publ_section_title
;
Structure prediction by ZEFSAII (Michael W. Deem and Ramdas Pophale) SiO2 
 PCOD8301488
Probable space group: I M M A
;
_chemical_formula_sum "Si O2"
_cell_formula_units_Z 80
_cell_length_a 28.325622
_cell_length_b 7.941951
_cell_length_c 26.447328
_cell_angle_alpha 90.000000
_cell_angle_beta 90.000000
_cell_angle_gamma 90.000000
_cell_volume 5949.609472
_symmetry_space_group_name_H-M "I M M A"
_symmetry_group_IT_number 74
_symmetry_cell_setting 'orthorhombic'
loop_
_space_group_symop_operation_xyz
x,y,z
-x,1/2-y,z
x,-y,-z
-x,1/2+y,-z
-x,-y,-z
x,1/2+y,-z
-x,y,z
x,1/2-y,z
1/2+x,1/2+y,1/2+z
1/2-x,-y,1/2+z
1/2+x,1/2-y,1/2-z
1/2-x,y,1/2-z
1/2-x,1/2-y,1/2-z
1/2+x,y,1/2-z
1/2-x,1/2+y,1/2+z
1/2+x,-y,1/2+z
loop_
_atom_site_type_symbol
_atom_site_label
_atom_site_fract_x
_atom_site_fract_y
_atom_site_fract_z
Si Si1 0.827348 0.750000 0.758520
Si Si2 0.746018 0.750000 0.833253
Si Si3 0.701782 0.933578 0.126311
Si Si4 0.946501 0.553438 0.364150
Si Si5 0.625222 0.058839 0.055629
Si Si6 0.128050 0.437132 0.716529
O O1 0.798566 0.750000 0.810706
O O2 0.792487 0.750000 0.710957
O O3 0.859805 0.581588 0.757480
O O4 0.740043 0.582875 0.867835
O O5 0.727106 0.750000 0.122892
O O6 0.668204 0.936511 0.174492
O O7 0.669613 0.953775 0.076560
O O8 0.943720 0.750000 0.376832
O O9 0.920990 0.457126 0.409605
O O10 0.921395 0.516526 0.310429
O O11 0.000000 0.488203 0.360157
O O12 0.641922 0.250000 0.055409
O O13 0.611271 0.000000 0.000000
O O14 0.125544 0.250000 0.741909
#
# Coordination Sequence:
#
# PCOD8301488 Si02
#       6
#     8   8  16  16  16  16
#     4   9  16  24  39  56  76  92 117 142 178 231
#     4   9  16  26  38  58  74  94 114 144 180 227
#     4   9  16  28  41  54  73  94 117 146 185 229
#     4   9  18  31  43  55  72  96 127 162 201 238
#     4  11  20  30  42  56  72  94 127 161 199 244
#     4   8  15  26  39  54  73  95 117 146 184 225
#
# _framework density 13.446260000000001
#
# number of rings (size 3 to 8) (size 9 to 14) (size 15 to 20)
#    0.000    2.800    1.000    3.000    4.200    1.600 
#    0.000    4.000    0.000    0.000    0.000    0.000 
#    0.000    0.000    0.000    0.000    0.000    0.000 
#
# Total GULP energy -495783.369274 kJ/mol
# GULP energy per Si atom -12394.584232 kJ/mol
# Density = 1.341566 g / cm^3
# Si number density = 13.446260 Si / 1000 Ang^3
#
#
#
# Elastic Constant Matrix: (Units=GPa)
#
#
# Indices 1 2 3 4 5 6 
#
# 1 53.9793 40.5430 38.9018 0.0000 0.0000 0.0000
# 2 40.5430 111.6482 30.3657 0.0000 0.0000 0.0000
# 3 38.9018 30.3657 30.0672 0.0000 0.0000 0.0000
# 4 0.0000 0.0000 0.0000 13.4722 0.0000 0.0000
# 5 0.0000 0.0000 0.0000 0.0000 4.9322 0.0000
# 6 0.0000 0.0000 0.0000 0.0000 0.0000 16.1370
#
#
#
# Elastic Compliance Matrix: (Units=1/GPa)
#
#
# Indices 1 2 3 4 5 6 
#
# 1 0.275679 -0.004272 -0.352368 0.000000 0.000000 0.000000
# 2 -0.004272 0.012415 -0.007011 0.000000 0.000000 0.000000
# 3 -0.352368 -0.007011 0.496244 0.000000 0.000000 0.000000
# 4 0.000000 0.000000 0.000000 0.074227 0.000000 0.000000
# 5 0.000000 0.000000 0.000000 0.000000 0.202747 0.000000
# 6 0.000000 0.000000 0.000000 0.000000 0.000000 0.061970
#
#
# Mechanical properties :
#
#
# Convention : Reuss Voigt Hill
#
# Bulk Modulus (GPa) = 17.53267 46.14619 31.83943
# Shear Modulus (GPa) = 2.67438 12.63389 7.65414
#
# Velocity S-wave (km/s) = 1.41183 3.06859 2.38846
# Velocity P-wave (km/s) = 3.96548 6.85189 5.59792
#
# Compressibility (1/GPa) = 0.05703636
#
# Stress axis : x y z
#
# Youngs Moduli (GPa) = 3.62741 80.54919 2.01514
#
# Poissons Ratio (x) = 0.34409 0.71007
# Poissons Ratio (y) = 0.01550 0.01413
# Poissons Ratio (z) = 1.27818 0.56474
#
# Static dielectric constant tensor:
#      x y z
#    x 2.531160 0.000000 0.000000 
#    y 0.000000 3.029610 0.000000 
#    z 0.000000 0.000000 2.400380 
# 
# 
# High freq. dielectric constant tensor:
#      x y z
#    x 1.472850 0.000000 0.000000 
#    y 0.000000 1.536480 0.000000 
#    z 0.000000 0.000000 1.459480 
# 
# From -- ./inp_files/48990.got.cif
#   From: 2010.03.12/outbox.cif.g09.slc.cpg/sg74_25_cif.got.tgz:48990.got - 2010.04.16 15:46:19.
