data_PCOD8301880
_publ_section_title
;
Structure prediction by ZEFSAII (Michael W. Deem and Ramdas Pophale) SiO2 
 PCOD8301880
Probable space group: P 41
;
_chemical_formula_sum "Si O2"
_cell_formula_units_Z 32
_cell_length_a 9.201068
_cell_length_b 9.201068
_cell_length_c 18.591121
_cell_angle_alpha 90.000000
_cell_angle_beta 90.000000
_cell_angle_gamma 90.000000
_cell_volume 1573.917840
_symmetry_space_group_name_H-M "P 41"
_symmetry_group_IT_number 76
_symmetry_cell_setting 'tetragonal'
loop_
_space_group_symop_operation_xyz
x,y,z
-y,x,1/4+z
-x,-y,1/2+z
y,-x,3/4+z
loop_
_atom_site_type_symbol
_atom_site_label
_atom_site_fract_x
_atom_site_fract_y
_atom_site_fract_z
Si Si1 0.768273 0.325764 0.525200
Si Si2 0.376189 0.905468 0.269969
Si Si3 0.657906 0.222459 0.283749
Si Si4 0.738815 0.828665 0.924084
Si Si5 0.400873 0.881271 0.930655
Si Si6 0.854590 0.730080 0.171226
Si Si7 0.628848 0.985848 0.172847
Si Si8 0.123892 0.516777 0.781074
O O1 0.720531 0.492970 0.530462
O O2 0.746671 0.231752 0.598542
O O3 0.671366 0.259978 0.463861
O O4 0.936821 0.309491 0.504312
O O5 0.268778 0.785902 0.239406
O O6 0.384469 0.868445 0.354620
O O7 0.530564 0.900266 0.230874
O O8 0.668458 0.107605 0.350618
O O9 0.749015 0.368979 0.298638
O O10 0.698012 0.129382 0.211821
O O11 0.569083 0.852322 0.926436
O O12 0.809773 0.989132 0.931263
O O13 0.382394 0.022554 0.980157
O O14 0.746770 0.862987 0.153446
O O15 0.815266 0.627667 0.239825
O O16 0.538825 0.038892 0.102568
#
# Coordination Sequence:
#
# PCOD8301880 Si02
#       8
#     4   4   4   4   4   4   4   4
#     4   9  19  35  56  80 110 149 190 237 290 347
#     4  10  20  38  58  83 117 152 194 242 293 351
#     4  10  22  39  59  85 119 153 194 246 296 352
#     4   9  19  35  56  80 110 149 190 237 290 347
#     4  10  20  38  58  83 117 152 194 242 293 351
#     4  10  22  39  59  85 119 153 194 246 296 352
#     4  11  23  40  62  88 119 158 199 243 298 356
#     4  11  23  40  62  88 119 158 199 243 298 356
#
# _framework density 20.331427999999999
#
# number of rings (size 3 to 8) (size 9 to 14) (size 15 to 20)
#    0.000    2.000    0.000    6.000    0.000    4.000 
#    0.000    7.500    0.000    0.000    0.000    0.000 
#    0.000    0.000    0.000    0.000    0.000    0.000 
#
# Total GULP energy -396450.449453 kJ/mol
# GULP energy per Si atom -12389.076545 kJ/mol
# Density = 2.028515 g / cm^3
# Si number density = 20.331428 Si / 1000 Ang^3
#
#
#
# Elastic Constant Matrix: (Units=GPa)
#
#
# Indices 1 2 3 4 5 6 
#
# 1 -7.3844 114.0309 33.1711 0.0000 0.0000 32.7836
# 2 114.0309 -7.3844 33.1711 0.0000 0.0000 -32.7836
# 3 33.1711 33.1711 99.6336 0.0000 0.0000 0.0000
# 4 0.0000 0.0000 0.0000 30.4172 0.0000 0.0000
# 5 0.0000 0.0000 0.0000 0.0000 30.4172 0.0000
# 6 32.7836 -32.7836 0.0000 0.0000 0.0000 19.2243
#
#
#
# Elastic Compliance Matrix: (Units=1/GPa)
#
#
# Indices 1 2 3 4 5 6 
#
# 1 0.003769 0.008057 -0.003937 0.000000 0.000000 0.007312
# 2 0.008057 0.003769 -0.003937 0.000000 0.000000 -0.007312
# 3 -0.003937 -0.003937 0.012658 0.000000 0.000000 0.000000
# 4 0.000000 0.000000 0.000000 0.032876 0.000000 0.000000
# 5 0.000000 0.000000 0.000000 0.000000 0.032876 0.000000
# 6 0.007312 -0.007312 0.000000 0.000000 0.000000 0.027080
#
#
# Mechanical properties :
#
#
# Convention : Reuss Voigt Hill
#
# Bulk Modulus (GPa) = 48.63456 49.51233 49.07344
# Shear Modulus (GPa) = 41.83472 9.64450 25.73961
#
# Velocity S-wave (km/s) = 4.54104 2.18035 3.56195
# Velocity P-wave (km/s) = 7.17409 5.54473 6.41138
#
# Compressibility (1/GPa) = 0.02056151
#
# Stress axis : x y z
#
# Youngs Moduli (GPa) = 265.30805 265.30805 78.99863
#
# Poissons Ratio (x) = -2.13755 0.31104
# Poissons Ratio (y) = -2.13755 0.31104
# Poissons Ratio (z) = 1.04459 1.04459
#
# Static dielectric constant tensor:
#      x y z
#    x 3.706220 0.000000 0.000000 
#    y 0.000000 3.706220 0.000000 
#    z 0.000000 0.000000 4.319490 
# 
# 
# High freq. dielectric constant tensor:
#      x y z
#    x 1.780410 0.000000 0.000000 
#    y 0.000000 1.780410 0.000000 
#    z 0.000000 0.000000 1.816520 
# 
# From -- ./inp_files/1469.got.cif
#   From: 2010.03.12/outbox.cif.g09.slc.cpg/sg76_cif.got.tgz:1469.got - 2010.04.16 16:34:25.
