data_PCOD8301328
_publ_section_title
;
Structure prediction by ZEFSAII (Michael W. Deem and Ramdas Pophale) SiO2 
 PCOD8301328
Probable space group: I M M A
;
_chemical_formula_sum "Si O2"
_cell_formula_units_Z 68
_cell_length_a 13.966967
_cell_length_b 21.031899
_cell_length_c 11.408870
_cell_angle_alpha 90.000000
_cell_angle_beta 90.000000
_cell_angle_gamma 90.000000
_cell_volume 3351.376547
_symmetry_space_group_name_H-M "I M M A"
_symmetry_group_IT_number 74
_symmetry_cell_setting 'orthorhombic'
loop_
_space_group_symop_operation_xyz
x,y,z
-x,1/2-y,z
x,-y,-z
-x,1/2+y,-z
-x,-y,-z
x,1/2+y,-z
-x,y,z
x,1/2-y,z
1/2+x,1/2+y,1/2+z
1/2-x,-y,1/2+z
1/2+x,1/2-y,1/2-z
1/2-x,y,1/2-z
1/2-x,1/2-y,1/2-z
1/2+x,y,1/2-z
1/2-x,1/2+y,1/2+z
1/2+x,-y,1/2+z
loop_
_atom_site_type_symbol
_atom_site_label
_atom_site_fract_x
_atom_site_fract_y
_atom_site_fract_z
Si Si1 0.500000 0.323117 0.927803
Si Si2 0.000000 0.250000 0.031647
Si Si3 0.250000 0.446100 0.250000
Si Si4 0.803536 0.873500 0.529383
Si Si5 0.500000 0.142395 0.661646
Si Si6 0.708139 0.250000 0.382661
Si Si7 0.654079 0.956770 0.400286
O O1 0.500000 0.250000 0.970440
O O2 0.500000 0.322702 0.786544
O O3 0.408093 0.359190 0.978961
O O4 0.000000 0.189445 0.947539
O O5 0.907885 0.250000 0.117974
O O6 0.191485 0.402561 0.340679
O O7 0.330407 0.491665 0.300781
O O8 0.741896 0.809551 0.540198
O O9 0.752641 0.924947 0.445694
O O10 0.592441 0.099013 0.653027
O O11 0.750000 0.250000 0.250000
O O12 0.603390 0.000000 0.500000
#
# Coordination Sequence:
#
# PCOD8301328 Si02
#       7
#     8   4   8  16   8   8  16
#     4  12  26  39  64 100 137 174 222 280 340 412
#     4  12  26  44  74 106 134 182 232 268 340 406
#     4  10  22  43  66  93 134 182 220 282 350 400
#     4  11  23  43  66  96 138 174 229 279 348 406
#     4  12  23  43  66 100 133 178 230 276 343 402
#     4  12  24  45  70 103 137 179 219 283 330 391
#     4  10  22  41  66  93 129 174 229 280 331 413
#
# _framework density 20.290171000000001
#
# number of rings (size 3 to 8) (size 9 to 14) (size 15 to 20)
#    0.000    0.941    5.294    1.765    0.000    1.882 
#    0.000   10.000    0.000    0.000    0.000    0.000 
#    0.000    0.000    0.000    0.000    0.000    0.000 
#
# Total GULP energy -421486.386467 kJ/mol
# GULP energy per Si atom -12396.658426 kJ/mol
# Density = 2.024399 g / cm^3
# Si number density = 20.290171 Si / 1000 Ang^3
#
#
#
# Elastic Constant Matrix: (Units=GPa)
#
#
# Indices 1 2 3 4 5 6 
#
# 1 133.7863 37.5893 49.9437 0.0000 0.0000 0.0001
# 2 37.5893 121.6843 36.2895 0.0001 0.0000 0.0002
# 3 49.9437 36.2895 104.5644 0.0005 0.0001 0.0008
# 4 0.0000 0.0001 0.0005 35.6333 0.0000 0.0003
# 5 0.0000 0.0000 0.0001 0.0000 15.7975 0.0002
# 6 0.0001 0.0002 0.0008 0.0003 0.0002 -69.9412
#
#
#
# Elastic Compliance Matrix: (Units=1/GPa)
#
#
# Indices 1 2 3 4 5 6 
#
# 1 0.009419 -0.001749 -0.003892 0.000000 0.000000 0.000000
# 2 -0.001749 0.009492 -0.002459 0.000000 0.000000 0.000000
# 3 -0.003892 -0.002459 0.012276 0.000000 0.000000 0.000000
# 4 0.000000 0.000000 0.000000 0.028064 0.000000 0.000000
# 5 0.000000 0.000000 0.000000 0.000000 0.063301 0.000000
# 6 0.000000 0.000000 0.000000 0.000000 0.000000 -0.014298
#
#
# Mechanical properties :
#
#
# Convention : Reuss Voigt Hill
#
# Bulk Modulus (GPa) = 66.72398 67.51999 67.12199
# Shear Modulus (GPa) = 38.62561 12.04541 25.33551
#
# Velocity S-wave (km/s) = 4.36783 2.43915 3.53747
# Velocity P-wave (km/s) = 7.64157 6.42511 7.05959
#
# Compressibility (1/GPa) = 0.01498711
#
# Stress axis : x y z
#
# Youngs Moduli (GPa) = 106.17015 105.35741 81.46196
#
# Poissons Ratio (x) = 0.18426 0.31703
# Poissons Ratio (y) = 0.18568 0.20029
# Poissons Ratio (z) = 0.41319 0.25904
#
# Static dielectric constant tensor:
#      x y z
#    x 3.478390 0.000000 0.000000 
#    y 0.000000 4.021760 0.000000 
#    z 0.000000 0.000000 3.597200 
# 
# 
# High freq. dielectric constant tensor:
#      x y z
#    x 1.778890 0.000000 0.000000 
#    y 0.000000 1.822100 0.000000 
#    z 0.000000 0.000000 1.797880 
# 
# From -- ./inp_files/20288.got.cif
#   From: 2010.03.12/outbox.cif.g09.slc.cpg/sg74_11_cif.got.tgz:20288.got - 2010.04.16 15:46:19.
