data_PCOD8301033
_publ_section_title
;
Structure prediction by ZEFSAII (Michael W. Deem and Ramdas Pophale) SiO2 
 PCOD8301033
Probable space group: I M M A
;
_chemical_formula_sum "Si O2"
_cell_formula_units_Z 72
_cell_length_a 9.921176
_cell_length_b 13.641912
_cell_length_c 27.482203
_cell_angle_alpha 90.000000
_cell_angle_beta 90.000000
_cell_angle_gamma 90.000000
_cell_volume 3719.546059
_symmetry_space_group_name_H-M "I M M A"
_symmetry_group_IT_number 74
_symmetry_cell_setting 'orthorhombic'
loop_
_space_group_symop_operation_xyz
x,y,z
-x,1/2-y,z
x,-y,-z
-x,1/2+y,-z
-x,-y,-z
x,1/2+y,-z
-x,y,z
x,1/2-y,z
1/2+x,1/2+y,1/2+z
1/2-x,-y,1/2+z
1/2+x,1/2-y,1/2-z
1/2-x,y,1/2-z
1/2-x,1/2-y,1/2-z
1/2+x,y,1/2-z
1/2-x,1/2+y,1/2+z
1/2+x,-y,1/2+z
loop_
_atom_site_type_symbol
_atom_site_label
_atom_site_fract_x
_atom_site_fract_y
_atom_site_fract_z
Si Si1 0.744464 0.363413 0.303619
Si Si2 0.500000 0.027423 0.554347
Si Si3 0.000000 0.632744 0.530311
Si Si4 0.726318 0.640733 0.044570
Si Si5 0.000000 0.355379 0.623534
Si Si6 0.500000 0.931949 0.858797
Si Si7 0.000000 0.632799 0.866567
O O1 0.713598 0.250000 0.295677
O O2 0.750000 0.413698 0.250000
O O3 0.876186 0.377371 0.335107
O O4 0.624562 0.407013 0.335321
O O5 0.360185 0.084709 0.561925
O O6 0.500000 0.000000 0.500000
O O7 0.500000 0.925390 0.583215
O O8 0.136021 0.599236 0.501032
O O9 0.000000 0.750000 0.536711
O O10 0.000000 0.579124 0.582553
O O11 0.771638 0.750000 0.030136
O O12 0.633030 0.641356 0.091438
O O13 0.000000 0.452905 0.656813
O O14 0.000000 0.250000 0.652485
O O15 0.000000 0.750000 0.877277
#
# Coordination Sequence:
#
# PCOD8301033 Si02
#       7
#    16   8   8  16   8   8   8
#     4  10  21  38  60  88 118 147 181 230 296 362
#     4  12  25  34  52  79 114 159 198 230 276 342
#     4   9  20  35  56  83 110 141 189 239 279 327
#     4   9  20  38  54  75 110 149 188 235 281 322
#     4   9  20  37  57  79 108 145 188 236 274 315
#     4  12  21  33  62  85 107 141 192 232 277 342
#     4  10  23  40  55  80 122 156 188 237 287 342
#
# _framework density 19.357199999999999
#
# number of rings (size 3 to 8) (size 9 to 14) (size 15 to 20)
#    0.000    2.000    0.000    4.667    6.222    3.556 
#    0.000    0.000    0.000    0.667    0.000    3.111 
#    0.000    0.000    0.000    0.000    0.000    0.000 
#
# Total GULP energy -446022.329618 kJ/mol
# GULP energy per Si atom -12389.509156 kJ/mol
# Density = 1.931314 g / cm^3
# Si number density = 19.357200 Si / 1000 Ang^3
#
#
#
# Elastic Constant Matrix: (Units=GPa)
#
#
# Indices 1 2 3 4 5 6 
#
# 1 150.3448 24.5335 35.8334 0.0000 0.0000 0.0000
# 2 24.5335 65.3647 22.4124 0.0000 0.0000 0.0000
# 3 35.8334 22.4124 93.5015 0.0000 0.0000 0.0000
# 4 0.0000 0.0000 0.0000 21.4030 0.0000 0.0000
# 5 0.0000 0.0000 0.0000 0.0000 18.9278 0.0000
# 6 0.0000 0.0000 0.0000 0.0000 0.0000 -19.0862
#
#
#
# Elastic Compliance Matrix: (Units=1/GPa)
#
#
# Indices 1 2 3 4 5 6 
#
# 1 0.007554 -0.002008 -0.002414 0.000000 0.000000 0.000000
# 2 -0.002008 0.017202 -0.003354 0.000000 0.000000 0.000000
# 3 -0.002414 -0.003354 0.012424 0.000000 0.000000 0.000000
# 4 0.000000 0.000000 0.000000 0.046722 0.000000 0.000000
# 5 0.000000 0.000000 0.000000 0.000000 0.052832 0.000000
# 6 0.000000 0.000000 0.000000 0.000000 0.000000 -0.052394
#
#
# Mechanical properties :
#
#
# Convention : Reuss Voigt Hill
#
# Bulk Modulus (GPa) = 46.23291 52.75219 49.49255
# Shear Modulus (GPa) = 46.68426 19.34438 33.01432
#
# Velocity S-wave (km/s) = 4.91626 3.16466 4.13429
# Velocity P-wave (km/s) = 7.49414 6.37688 6.95797
#
# Compressibility (1/GPa) = 0.02162962
#
# Stress axis : x y z
#
# Youngs Moduli (GPa) = 132.37460 58.13160 80.48905
#
# Poissons Ratio (x) = 0.11671 0.19429
# Poissons Ratio (y) = 0.26577 0.26996
# Poissons Ratio (z) = 0.31953 0.19497
#
# Static dielectric constant tensor:
#      x y z
#    x 3.587590 0.000000 0.000000 
#    y 0.000000 3.294770 0.000000 
#    z 0.000000 0.000000 3.436540 
# 
# 
# High freq. dielectric constant tensor:
#      x y z
#    x 1.771020 0.000000 0.000000 
#    y 0.000000 1.746710 0.000000 
#    z 0.000000 0.000000 1.727630 
# 
# From -- ./inp_files/63738.got.cif
#   From: 2010.03.12/outbox.cif.g09.slc.cpg/sg74_32_cif.got.tgz:63738.got - 2010.04.16 15:46:19.
