data_PCOD8301353
_publ_section_title
;
Structure prediction by ZEFSAII (Michael W. Deem and Ramdas Pophale) SiO2 
 PCOD8301353
Probable space group: I M M A
;
_chemical_formula_sum "Si O2"
_cell_formula_units_Z 88
_cell_length_a 9.668731
_cell_length_b 21.313425
_cell_length_c 21.576061
_cell_angle_alpha 90.000000
_cell_angle_beta 90.000000
_cell_angle_gamma 90.000000
_cell_volume 4446.260297
_symmetry_space_group_name_H-M "I M M A"
_symmetry_group_IT_number 74
_symmetry_cell_setting 'orthorhombic'
loop_
_space_group_symop_operation_xyz
x,y,z
-x,1/2-y,z
x,-y,-z
-x,1/2+y,-z
-x,-y,-z
x,1/2+y,-z
-x,y,z
x,1/2-y,z
1/2+x,1/2+y,1/2+z
1/2-x,-y,1/2+z
1/2+x,1/2-y,1/2-z
1/2-x,y,1/2-z
1/2-x,1/2-y,1/2-z
1/2+x,y,1/2-z
1/2-x,1/2+y,1/2+z
1/2+x,-y,1/2+z
loop_
_atom_site_type_symbol
_atom_site_label
_atom_site_fract_x
_atom_site_fract_y
_atom_site_fract_z
Si Si1 0.837183 0.250000 0.812764
Si Si2 0.768442 0.387305 0.378646
Si Si3 0.000000 0.323167 0.154595
Si Si4 0.156704 0.070732 0.508993
Si Si5 0.000000 0.174690 0.297002
Si Si6 0.659265 0.002315 0.690046
Si Si7 0.342676 0.374612 0.615106
O O1 0.750000 0.250000 0.750000
O O2 0.795366 0.190137 0.853829
O O3 0.000000 0.250000 0.795996
O O4 0.631845 0.345808 0.383555
O O5 0.842263 0.390785 0.444858
O O6 0.725184 0.457859 0.361681
O O7 0.865019 0.354619 0.327997
O O8 0.000000 0.347680 0.225599
O O9 0.000000 0.250000 0.156037
O O10 0.247341 0.109655 0.557066
O O11 0.000000 0.067349 0.534204
O O12 0.215138 0.000000 0.500000
O O13 0.000000 0.250000 0.304172
O O14 0.500000 0.983772 0.703205
O O15 0.750000 0.992667 0.750000
O O16 0.671939 0.073334 0.667967
O O17 0.500000 0.370588 0.590820
#
# Coordination Sequence:
#
# PCOD8301353 Si02
#       7
#     8  16   8  16   8  16  16
#     4  10  22  44  70 100 136 174 215 266 325 389
#     4  12  23  40  61  94 122 162 215 259 315 375
#     4  11  24  42  63  90 124 165 206 251 321 383
#     4  11  24  43  63  90 129 168 211 263 320 379
#     4  11  24  44  65  88 128 165 204 263 317 377
#     4  11  23  37  61  95 126 158 208 266 321 380
#     4  10  23  42  65  96 128 170 215 262 322 380
#
# _framework density 19.791913999999998
#
# number of rings (size 3 to 8) (size 9 to 14) (size 15 to 20)
#    0.000    1.091    3.636    2.727    2.545    3.273 
#    3.273    0.000    0.000    0.000    0.000    0.000 
#    0.000    0.000    0.000    0.000    0.000    0.000 
#
# Total GULP energy -545794.930434 kJ/mol
# GULP energy per Si atom -12404.430237 kJ/mol
# Density = 1.974687 g / cm^3
# Si number density = 19.791914 Si / 1000 Ang^3
#
#
#
# Elastic Constant Matrix: (Units=GPa)
#
#
# Indices 1 2 3 4 5 6 
#
# 1 106.8853 42.8725 42.9908 0.0000 0.0000 0.0000
# 2 42.8725 116.2899 42.8572 0.0000 0.0000 0.0000
# 3 42.9908 42.8572 101.6120 0.0000 0.0000 0.0000
# 4 0.0000 0.0000 0.0000 33.6765 0.0000 0.0000
# 5 0.0000 0.0000 0.0000 0.0000 40.9963 0.0000
# 6 0.0000 0.0000 0.0000 0.0000 0.0000 49.5605
#
#
#
# Elastic Compliance Matrix: (Units=1/GPa)
#
#
# Indices 1 2 3 4 5 6 
#
# 1 0.012126 -0.003055 -0.003842 0.000000 0.000000 0.000000
# 2 -0.003055 0.010951 -0.003327 0.000000 0.000000 0.000000
# 3 -0.003842 -0.003327 0.012870 0.000000 0.000000 0.000000
# 4 0.000000 0.000000 0.000000 0.029694 0.000000 0.000000
# 5 0.000000 0.000000 0.000000 0.000000 0.024392 0.000000
# 6 0.000000 0.000000 0.000000 0.000000 0.000000 0.020177
#
#
# Mechanical properties :
#
#
# Convention : Reuss Voigt Hill
#
# Bulk Modulus (GPa) = 64.51225 64.69201 64.60213
# Shear Modulus (GPa) = 36.81190 37.91779 37.36484
#
# Velocity S-wave (km/s) = 4.31739 4.38176 4.34969
# Velocity P-wave (km/s) = 7.58414 7.63916 7.61170
#
# Compressibility (1/GPa) = 0.01550093
#
# Stress axis : x y z
#
# Youngs Moduli (GPa) = 82.46436 91.31308 77.70009
#
# Poissons Ratio (x) = 0.27893 0.29854
# Poissons Ratio (y) = 0.25190 0.25848
# Poissons Ratio (z) = 0.31684 0.30376
#
# Static dielectric constant tensor:
#      x y z
#    x 3.701470 0.000000 0.000000 
#    y 0.000000 3.757980 0.000000 
#    z 0.000000 0.000000 3.499660 
# 
# 
# High freq. dielectric constant tensor:
#      x y z
#    x 1.781410 0.000000 0.000000 
#    y 0.000000 1.783710 0.000000 
#    z 0.000000 0.000000 1.765140 
# 
# From -- ./inp_files/48808.got.cif
#   From: 2010.03.12/outbox.cif.g09.slc.cpg/sg74_25_cif.got.tgz:48808.got - 2010.04.16 15:46:19.
