data_PCOD8301579
_publ_section_title
;
Structure prediction by ZEFSAII (Michael W. Deem and Ramdas Pophale) SiO2 
 PCOD8301579
Probable space group: I M M A
;
_chemical_formula_sum "Si O2"
_cell_formula_units_Z 72
_cell_length_a 8.628243
_cell_length_b 17.616885
_cell_length_c 23.360543
_cell_angle_alpha 90.000000
_cell_angle_beta 90.000000
_cell_angle_gamma 90.000000
_cell_volume 3550.867120
_symmetry_space_group_name_H-M "I M M A"
_symmetry_group_IT_number 74
_symmetry_cell_setting 'orthorhombic'
loop_
_space_group_symop_operation_xyz
x,y,z
-x,1/2-y,z
x,-y,-z
-x,1/2+y,-z
-x,-y,-z
x,1/2+y,-z
-x,y,z
x,1/2-y,z
1/2+x,1/2+y,1/2+z
1/2-x,-y,1/2+z
1/2+x,1/2-y,1/2-z
1/2-x,y,1/2-z
1/2-x,1/2-y,1/2-z
1/2+x,y,1/2-z
1/2-x,1/2+y,1/2+z
1/2+x,-y,1/2+z
loop_
_atom_site_type_symbol
_atom_site_label
_atom_site_fract_x
_atom_site_fract_y
_atom_site_fract_z
Si Si1 0.183149 0.250000 0.813121
Si Si2 0.680221 0.661270 0.875398
Si Si3 0.316718 0.607215 0.120622
Si Si4 0.816800 0.833632 0.498272
Si Si5 0.318406 0.471502 0.311582
O O1 0.250000 0.250000 0.750000
O O2 0.238375 0.325060 0.845070
O O3 0.000000 0.250000 0.809688
O O4 0.500000 0.641406 0.866685
O O5 0.710753 0.750000 0.864775
O O6 0.779537 0.614640 0.829347
O O7 0.738711 0.637491 0.939289
O O8 0.500000 0.614766 0.128078
O O9 0.267421 0.611241 0.053507
O O10 0.259080 0.526504 0.142224
O O11 0.746834 0.750000 0.485807
O O12 0.000000 0.826064 0.501734
O O13 0.500000 0.485165 0.309698
O O14 0.250000 0.490943 0.250000
#
# Coordination Sequence:
#
# PCOD8301579 Si02
#       5
#     8  16  16  16  16
#     4  12  24  38  56  84 120 162 207 248 295 350
#     4   9  19  39  67  94 119 152 197 244 294 357
#     4  11  21  38  63  89 120 159 203 246 293 348
#     4   8  15  32  61  93 121 153 197 240 284 349
#     4  12  26  43  60  84 120 158 202 251 305 358
#
# _framework density 20.276738000000002
#
# number of rings (size 3 to 8) (size 9 to 14) (size 15 to 20)
#    0.000    1.778    1.111    5.667    0.000    1.778 
#    0.000    6.667    0.000    0.000    0.000    0.000 
#    0.000    0.000    0.000    0.000    0.000    0.000 
#
# Total GULP energy -446383.442212 kJ/mol
# GULP energy per Si atom -12399.540061 kJ/mol
# Density = 2.023059 g / cm^3
# Si number density = 20.276738 Si / 1000 Ang^3
#
#
#
# Elastic Constant Matrix: (Units=GPa)
#
#
# Indices 1 2 3 4 5 6 
#
# 1 93.7167 20.8252 19.3575 0.0000 0.0000 0.0000
# 2 20.8252 78.0246 22.8784 0.0000 0.0000 0.0000
# 3 19.3575 22.8784 63.8432 0.0000 0.0000 0.0000
# 4 0.0000 0.0000 0.0000 35.2733 0.0000 0.0000
# 5 0.0000 0.0000 0.0000 0.0000 25.2433 0.0000
# 6 0.0000 0.0000 0.0000 0.0000 0.0000 33.2575
#
#
#
# Elastic Compliance Matrix: (Units=1/GPa)
#
#
# Indices 1 2 3 4 5 6 
#
# 1 0.011753 -0.002338 -0.002726 0.000000 0.000000 0.000000
# 2 -0.002338 0.014786 -0.004590 0.000000 0.000000 0.000000
# 3 -0.002726 -0.004590 0.018135 0.000000 0.000000 0.000000
# 4 0.000000 0.000000 0.000000 0.028350 0.000000 0.000000
# 5 0.000000 0.000000 0.000000 0.000000 0.039614 0.000000
# 6 0.000000 0.000000 0.000000 0.000000 0.000000 0.030068
#
#
# Mechanical properties :
#
#
# Convention : Reuss Voigt Hill
#
# Bulk Modulus (GPa) = 39.42120 40.18964 39.80542
# Shear Modulus (GPa) = 29.33079 30.25637 29.79358
#
# Velocity S-wave (km/s) = 3.80745 3.86705 3.83737
# Velocity P-wave (km/s) = 6.22998 6.30892 6.26957
#
# Compressibility (1/GPa) = 0.02536706
#
# Stress axis : x y z
#
# Youngs Moduli (GPa) = 85.08504 67.63038 55.14299
#
# Poissons Ratio (x) = 0.15810 0.15031
# Poissons Ratio (y) = 0.19890 0.25310
# Poissons Ratio (z) = 0.23193 0.31042
#
# Static dielectric constant tensor:
#      x y z
#    x 3.478540 0.000000 0.000000 
#    y 0.000000 3.614980 0.000000 
#    z 0.000000 0.000000 3.990620 
# 
# 
# High freq. dielectric constant tensor:
#      x y z
#    x 1.771270 0.000000 0.000000 
#    y 0.000000 1.790100 0.000000 
#    z 0.000000 0.000000 1.807120 
# 
# From -- ./inp_files/56673.got.cif
#   From: 2010.03.12/outbox.cif.g09.slc.cpg/sg74_29_cif.got.tgz:56673.got - 2010.04.16 15:46:19.
