data_PCOD8301552
_publ_section_title
;
Structure prediction by ZEFSAII (Michael W. Deem and Ramdas Pophale) SiO2 
 PCOD8301552
Probable space group: I M M A
;
_chemical_formula_sum "Si O2"
_cell_formula_units_Z 64
_cell_length_a 14.475478
_cell_length_b 8.490075
_cell_length_c 30.415823
_cell_angle_alpha 90.000000
_cell_angle_beta 90.000000
_cell_angle_gamma 90.000000
_cell_volume 3738.040587
_symmetry_space_group_name_H-M "I M M A"
_symmetry_group_IT_number 74
_symmetry_cell_setting 'orthorhombic'
loop_
_space_group_symop_operation_xyz
x,y,z
-x,1/2-y,z
x,-y,-z
-x,1/2+y,-z
-x,-y,-z
x,1/2+y,-z
-x,y,z
x,1/2-y,z
1/2+x,1/2+y,1/2+z
1/2-x,-y,1/2+z
1/2+x,1/2-y,1/2-z
1/2-x,y,1/2-z
1/2-x,1/2-y,1/2-z
1/2+x,y,1/2-z
1/2-x,1/2+y,1/2+z
1/2+x,-y,1/2+z
loop_
_atom_site_type_symbol
_atom_site_label
_atom_site_fract_x
_atom_site_fract_y
_atom_site_fract_z
Si Si1 0.168081 0.566621 0.862098
Si Si2 0.603901 0.566273 0.545083
Si Si3 0.000000 0.067831 0.277078
Si Si4 0.500000 0.928929 0.314078
Si Si5 0.802702 0.064744 0.705207
O O1 0.142859 0.750000 0.855486
O O2 0.171559 0.524708 0.914068
O O3 0.262549 0.525231 0.837302
O O4 0.090220 0.454728 0.842520
O O5 0.647499 0.500000 0.500000
O O6 0.500000 0.497238 0.553082
O O7 0.596031 0.750000 0.539439
O O8 0.000000 0.250000 0.291180
O O9 0.000000 0.054979 0.224763
O O10 0.090367 0.980676 0.294977
O O11 0.500000 0.750000 0.295539
O O12 0.790629 0.250000 0.699059
O O13 0.750000 0.009903 0.750000
#
# Coordination Sequence:
#
# PCOD8301552 Si02
#       5
#    16  16   8   8  16
#     4  11  21  35  53  76 105 141 182 218 259 312
#     4   9  18  32  49  74 105 138 174 215 259 309
#     4  12  24  38  56  75 102 141 180 220 263 305
#     4  12  22  32  49  75 106 141 178 218 262 307
#     4  11  23  37  54  78 107 138 177 219 262 309
#
# _framework density 17.121269999999999
#
# number of rings (size 3 to 8) (size 9 to 14) (size 15 to 20)
#    0.000    1.250    3.750    3.750    0.000    3.000 
#    0.000    0.000    0.000    0.000    0.000    0.875 
#    0.000    0.000    0.000    0.000    0.000    0.000 
#
# Total GULP energy -396756.197576 kJ/mol
# GULP energy per Si atom -12398.631174 kJ/mol
# Density = 1.708230 g / cm^3
# Si number density = 17.121270 Si / 1000 Ang^3
#
#
#
# Elastic Constant Matrix: (Units=GPa)
#
#
# Indices 1 2 3 4 5 6 
#
# 1 100.0731 16.7034 51.3434 0.0000 0.0000 0.0000
# 2 16.7034 55.8456 30.6315 0.0000 0.0000 0.0000
# 3 51.3434 30.6315 139.2043 0.0000 0.0000 0.0000
# 4 0.0000 0.0000 0.0000 27.1432 0.0000 0.0000
# 5 0.0000 0.0000 0.0000 0.0000 27.4750 0.0000
# 6 0.0000 0.0000 0.0000 0.0000 0.0000 22.6849
#
#
#
# Elastic Compliance Matrix: (Units=1/GPa)
#
#
# Indices 1 2 3 4 5 6 
#
# 1 0.012416 -0.001367 -0.004279 0.000000 0.000000 0.000000
# 2 -0.001367 0.020515 -0.004010 0.000000 0.000000 0.000000
# 3 -0.004279 -0.004010 0.009644 0.000000 0.000000 0.000000
# 4 0.000000 0.000000 0.000000 0.036842 0.000000 0.000000
# 5 0.000000 0.000000 0.000000 0.000000 0.036397 0.000000
# 6 0.000000 0.000000 0.000000 0.000000 0.000000 0.044082
#
#
# Mechanical properties :
#
#
# Convention : Reuss Voigt Hill
#
# Bulk Modulus (GPa) = 42.98493 54.71996 48.85244
# Shear Modulus (GPa) = 26.74344 28.55692 27.65018
#
# Velocity S-wave (km/s) = 3.95650 4.08845 4.02302
# Velocity P-wave (km/s) = 6.78473 7.36999 7.08341
#
# Compressibility (1/GPa) = 0.02326397
#
# Stress axis : x y z
#
# Youngs Moduli (GPa) = 80.54086 48.74509 103.68880
#
# Poissons Ratio (x) = 0.06662 0.44366
# Poissons Ratio (y) = 0.11008 0.41581
# Poissons Ratio (z) = 0.34461 0.19547
#
# Static dielectric constant tensor:
#      x y z
#    x 3.074060 0.000000 0.000000 
#    y 0.000000 3.182210 0.000000 
#    z 0.000000 0.000000 3.367990 
# 
# 
# High freq. dielectric constant tensor:
#      x y z
#    x 1.631660 0.000000 0.000000 
#    y 0.000000 1.671440 0.000000 
#    z 0.000000 0.000000 1.651680 
# 
# From -- ./inp_files/63510.got.cif
#   From: 2010.03.12/outbox.cif.g09.slc.cpg/sg74_32_cif.got.tgz:63510.got - 2010.04.16 15:46:19.
