data_PCOD8301716
_publ_section_title
;
Structure prediction by ZEFSAII (Michael W. Deem and Ramdas Pophale) SiO2 
 PCOD8301716
Probable space group: I M M A
;
_chemical_formula_sum "Si O2"
_cell_formula_units_Z 64
_cell_length_a 25.726885
_cell_length_b 10.017541
_cell_length_c 11.975837
_cell_angle_alpha 90.000000
_cell_angle_beta 90.000000
_cell_angle_gamma 90.000000
_cell_volume 3086.414212
_symmetry_space_group_name_H-M "I M M A"
_symmetry_group_IT_number 74
_symmetry_cell_setting 'orthorhombic'
loop_
_space_group_symop_operation_xyz
x,y,z
-x,1/2-y,z
x,-y,-z
-x,1/2+y,-z
-x,-y,-z
x,1/2+y,-z
-x,y,z
x,1/2-y,z
1/2+x,1/2+y,1/2+z
1/2-x,-y,1/2+z
1/2+x,1/2-y,1/2-z
1/2-x,y,1/2-z
1/2-x,1/2-y,1/2-z
1/2+x,y,1/2-z
1/2-x,1/2+y,1/2+z
1/2+x,-y,1/2+z
loop_
_atom_site_type_symbol
_atom_site_label
_atom_site_fract_x
_atom_site_fract_y
_atom_site_fract_z
Si Si1 0.189963 0.750000 0.761468
Si Si2 0.439242 0.404855 0.215856
Si Si3 0.680633 0.750000 0.998780
Si Si4 0.217996 0.750000 0.138101
Si Si5 0.616222 0.000000 0.000000
Si Si6 0.857896 0.996862 0.126881
O O1 0.250000 0.750000 0.750000
O O2 0.168913 0.750000 0.634328
O O3 0.173908 0.623878 0.833195
O O4 0.500000 0.429548 0.227721
O O5 0.424803 0.250000 0.244200
O O6 0.421723 0.439273 0.091758
O O7 0.410522 0.506900 0.299980
O O8 0.653508 0.617030 0.049078
O O9 0.741816 0.750000 0.032806
O O10 0.250000 0.750000 0.250000
O O11 0.180661 0.624799 0.140384
O O12 0.876676 0.000000 0.000000
#
# Coordination Sequence:
#
# PCOD8301716 Si02
#       6
#     8  16   8   8   8  16
#     4  12  24  44  66  93 132 193 232 261 338 424
#     4  11  24  46  73 100 134 184 231 285 352 414
#     4  12  26  42  71  97 142 190 225 276 349 418
#     4  12  28  40  62 106 143 175 225 286 337 400
#     4  12  21  46  68 106 138 174 235 284 344 414
#     4  12  24  45  66  97 136 176 230 285 333 404
#
# _framework density 20.736035999999999
#
# number of rings (size 3 to 8) (size 9 to 14) (size 15 to 20)
#    0.000    0.250    5.000    4.875    5.250    0.500 
#    0.000    1.875    0.000    0.000    0.000    0.000 
#    0.000    0.000    0.000    0.000    0.000    0.000 
#
# Total GULP energy -396783.718061 kJ/mol
# GULP energy per Si atom -12399.491189 kJ/mol
# Density = 2.068884 g / cm^3
# Si number density = 20.736036 Si / 1000 Ang^3
#
#
#
# Elastic Constant Matrix: (Units=GPa)
#
#
# Indices 1 2 3 4 5 6 
#
# 1 156.7425 71.6356 61.0271 0.0000 0.0000 0.0000
# 2 71.6356 140.8759 32.2878 0.0000 0.0000 0.0000
# 3 61.0271 32.2878 123.5887 0.0000 0.0000 0.0000
# 4 0.0000 0.0000 0.0000 33.8930 0.0000 0.0000
# 5 0.0000 0.0000 0.0000 0.0000 38.1968 0.0000
# 6 0.0000 0.0000 0.0000 0.0000 0.0000 38.7348
#
#
#
# Elastic Compliance Matrix: (Units=1/GPa)
#
#
# Indices 1 2 3 4 5 6 
#
# 1 0.009691 -0.004075 -0.003721 0.000000 0.000000 0.000000
# 2 -0.004075 0.009264 -0.000408 0.000000 0.000000 0.000000
# 3 -0.003721 -0.000408 0.010035 0.000000 0.000000 0.000000
# 4 0.000000 0.000000 0.000000 0.029505 0.000000 0.000000
# 5 0.000000 0.000000 0.000000 0.000000 0.026180 0.000000
# 6 0.000000 0.000000 0.000000 0.000000 0.000000 0.025817
#
#
# Mechanical properties :
#
#
# Convention : Reuss Voigt Hill
#
# Bulk Modulus (GPa) = 79.47436 83.45646 81.46541
# Shear Modulus (GPa) = 38.14071 39.24872 38.69471
#
# Velocity S-wave (km/s) = 4.29341 4.35533 4.32448
# Velocity P-wave (km/s) = 7.93648 8.10100 8.01916
#
# Compressibility (1/GPa) = 0.01258268
#
# Stress axis : x y z
#
# Youngs Moduli (GPa) = 103.18881 107.94279 99.64925
#
# Poissons Ratio (x) = 0.43988 0.37076
# Poissons Ratio (y) = 0.42051 0.04066
# Poissons Ratio (z) = 0.38393 0.04404
#
# Static dielectric constant tensor:
#      x y z
#    x 3.954570 0.000000 0.000000 
#    y 0.000000 3.931020 0.000000 
#    z 0.000000 0.000000 2.786300 
# 
# 
# High freq. dielectric constant tensor:
#      x y z
#    x 1.825300 0.000000 0.000000 
#    y 0.000000 1.817630 0.000000 
#    z 0.000000 0.000000 1.816890 
# 
# From -- ./inp_files/26812.got.cif
#   From: 2010.03.12/outbox.cif.g09.slc.cpg/sg74_14_cif.got.tgz:26812.got - 2010.04.16 15:46:19.
