data_PCOD8301883
_publ_section_title
;
Structure prediction by ZEFSAII (Michael W. Deem and Ramdas Pophale) SiO2 
 PCOD8301883
Probable space group: P 41
;
_chemical_formula_sum "Si O2"
_cell_formula_units_Z 24
_cell_length_a 11.623564
_cell_length_b 11.623564
_cell_length_c 7.723489
_cell_angle_alpha 90.000000
_cell_angle_beta 90.000000
_cell_angle_gamma 90.000000
_cell_volume 1043.499282
_symmetry_space_group_name_H-M "P 41"
_symmetry_group_IT_number 76
_symmetry_cell_setting 'tetragonal'
loop_
_space_group_symop_operation_xyz
x,y,z
-y,x,1/4+z
-x,-y,1/2+z
y,-x,3/4+z
loop_
_atom_site_type_symbol
_atom_site_label
_atom_site_fract_x
_atom_site_fract_y
_atom_site_fract_z
Si Si1 0.145850 0.969540 0.064860
Si Si2 0.050838 0.689433 0.532293
Si Si3 0.364822 0.803848 0.647760
Si Si4 0.235490 0.778876 0.294574
Si Si5 0.582838 0.395656 0.696743
Si Si6 0.747990 0.426174 0.201390
O O1 0.231341 0.878784 0.153367
O O2 0.095244 0.044486 0.218317
O O3 0.213133 0.049942 0.930368
O O4 0.107398 0.743105 0.358353
O O5 0.130712 0.585315 0.598633
O O6 0.922019 0.644957 0.502076
O O7 0.310777 0.819805 0.457579
O O8 0.499809 0.770714 0.625205
O O9 0.299601 0.701042 0.748861
O O10 0.297335 0.671942 0.200674
O O11 0.528120 0.395052 0.505078
O O12 0.487783 0.342383 0.826037
#
# Coordination Sequence:
#
# PCOD8301883 Si02
#       6
#     4   4   4   4   4   4
#     4  12  24  41  68 101 138 185 236 280 350 417
#     4  11  22  42  66  96 138 180 228 295 344 417
#     4  10  21  41  70  92 138 179 231 286 351 407
#     4  10  22  42  69  98 139 180 231 287 345 412
#     4  11  21  45  70  98 135 177 228 283 353 418
#     4  10  20  39  67  93 126 177 224 279 347 403
#
# _framework density 22.999535999999999
#
# number of rings (size 3 to 8) (size 9 to 14) (size 15 to 20)
#    0.000    1.333    5.000    4.000    0.000    2.667 
#    6.000    1.667    0.000    0.000    0.000    0.000 
#    0.000    0.000    0.000    0.000    0.000    0.000 
#
# Total GULP energy -297660.465214 kJ/mol
# GULP energy per Si atom -12402.519384 kJ/mol
# Density = 2.294719 g / cm^3
# Si number density = 22.999536 Si / 1000 Ang^3
#
#
#
# Elastic Constant Matrix: (Units=GPa)
#
#
# Indices 1 2 3 4 5 6 
#
# 1 124.5407 46.8559 32.8395 0.0000 0.0000 -2.5274
# 2 46.8559 124.5407 32.8395 0.0000 0.0000 2.5274
# 3 32.8395 32.8395 57.5969 0.0000 0.0000 0.0000
# 4 0.0000 0.0000 0.0000 30.0762 0.0000 0.0000
# 5 0.0000 0.0000 0.0000 0.0000 30.0762 0.0000
# 6 -2.5274 2.5274 0.0000 0.0000 0.0000 32.4854
#
#
#
# Elastic Compliance Matrix: (Units=1/GPa)
#
#
# Indices 1 2 3 4 5 6 
#
# 1 0.010202 -0.002736 -0.004257 0.000000 0.000000 0.001007
# 2 -0.002736 0.010202 -0.004257 0.000000 0.000000 -0.001007
# 3 -0.004257 -0.004257 0.022216 0.000000 0.000000 0.000000
# 4 0.000000 0.000000 0.000000 0.033249 0.000000 0.000000
# 5 0.000000 0.000000 0.000000 0.000000 0.033249 0.000000
# 6 0.001007 -0.001007 0.000000 0.000000 0.000000 0.030940
#
#
# Mechanical properties :
#
#
# Convention : Reuss Voigt Hill
#
# Bulk Modulus (GPa) = 49.69998 59.08312 54.39155
# Shear Modulus (GPa) = 29.53992 31.47046 30.50519
#
# Velocity S-wave (km/s) = 3.58770 3.70308 3.64585
# Velocity P-wave (km/s) = 6.23042 6.63538 6.43609
#
# Compressibility (1/GPa) = 0.02012073
#
# Stress axis : x y z
#
# Youngs Moduli (GPa) = 98.02212 98.02212 45.01283
#
# Poissons Ratio (x) = 0.26821 0.19160
# Poissons Ratio (y) = 0.26821 0.19160
# Poissons Ratio (z) = 0.41724 0.41724
#
# Static dielectric constant tensor:
#      x y z
#    x 4.236940 0.000000 0.000000 
#    y 0.000000 4.236940 0.000000 
#    z 0.000000 0.000000 3.934640 
# 
# 
# High freq. dielectric constant tensor:
#      x y z
#    x 1.913870 0.000000 0.000000 
#    y 0.000000 1.913870 0.000000 
#    z 0.000000 0.000000 1.892590 
# 
# From -- ./inp_files/581.got.cif
#   From: 2010.03.12/outbox.cif.g09.slc.cpg/sg76_cif.got.tgz:581.got - 2010.04.16 16:34:25.
