data_PCOD8301589
_publ_section_title
;
Structure prediction by ZEFSAII (Michael W. Deem and Ramdas Pophale) SiO2 
 PCOD8301589
Probable space group: I M M A
;
_chemical_formula_sum "Si O2"
_cell_formula_units_Z 88
_cell_length_a 16.763491
_cell_length_b 11.990871
_cell_length_c 20.252806
_cell_angle_alpha 90.000000
_cell_angle_beta 90.000000
_cell_angle_gamma 90.000000
_cell_volume 4070.993407
_symmetry_space_group_name_H-M "I M M A"
_symmetry_group_IT_number 74
_symmetry_cell_setting 'orthorhombic'
loop_
_space_group_symop_operation_xyz
x,y,z
-x,1/2-y,z
x,-y,-z
-x,1/2+y,-z
-x,-y,-z
x,1/2+y,-z
-x,y,z
x,1/2-y,z
1/2+x,1/2+y,1/2+z
1/2-x,-y,1/2+z
1/2+x,1/2-y,1/2-z
1/2-x,y,1/2-z
1/2-x,1/2-y,1/2-z
1/2+x,y,1/2-z
1/2-x,1/2+y,1/2+z
1/2+x,-y,1/2+z
loop_
_atom_site_type_symbol
_atom_site_label
_atom_site_fract_x
_atom_site_fract_y
_atom_site_fract_z
Si Si1 0.092299 0.872971 0.694782
Si Si2 0.095187 0.750000 0.263151
Si Si3 0.500000 0.376936 0.963105
Si Si4 0.355276 0.582169 0.131001
Si Si5 0.906245 0.750000 0.110562
Si Si6 0.910180 0.880872 0.845317
Si Si7 0.810540 0.454143 0.928110
O O1 0.128583 0.750000 0.686086
O O2 0.103196 0.914354 0.769439
O O3 0.000000 0.874497 0.675381
O O4 0.138100 0.950256 0.643227
O O5 0.132191 0.641998 0.298700
O O6 0.122760 0.750000 0.186918
O O7 0.000000 0.750000 0.269373
O O8 0.500000 0.250000 0.999556
O O9 0.420750 0.373268 0.919534
O O10 0.500000 0.500000 0.000000
O O11 0.268058 0.603248 0.102069
O O12 0.876942 0.641619 0.071218
O O13 0.000000 0.750000 0.107438
O O14 0.899558 0.750000 0.855764
O O15 0.000000 0.917022 0.866556
O O16 0.842751 0.942428 0.886300
O O17 0.790590 0.500000 0.000000
#
# Coordination Sequence:
#
# PCOD8301589 Si02
#       7
#    16   8   8  16   8  16  16
#     4   9  18  35  64 100 134 165 221 281 338 419
#     4  11  21  43  77 103 132 164 233 296 346 417
#     4  12  26  46  70 102 138 202 250 276 339 433
#     4  12  22  42  68  97 137 181 219 285 350 400
#     4  11  27  47  73 104 129 176 228 291 357 411
#     4   9  20  41  67  95 128 172 218 280 356 410
#     4  12  28  44  61  95 138 177 230 282 332 416
#
# _framework density 21.616344999999999
#
# number of rings (size 3 to 8) (size 9 to 14) (size 15 to 20)
#    0.000    1.273    2.727    3.818    1.273    9.455 
#    0.000    1.818    0.000    0.000    0.000    0.000 
#    0.000    0.000    0.000    0.000    0.000    0.000 
#
# Total GULP energy -545469.985605 kJ/mol
# GULP energy per Si atom -12397.045127 kJ/mol
# Density = 2.156715 g / cm^3
# Si number density = 21.616345 Si / 1000 Ang^3
#
#
#
# Elastic Constant Matrix: (Units=GPa)
#
#
# Indices 1 2 3 4 5 6 
#
# 1 101.7447 31.2684 29.8254 0.0000 0.0000 0.0000
# 2 31.2684 114.7915 37.6920 0.0000 0.0000 0.0000
# 3 29.8254 37.6920 55.4975 0.0000 0.0000 0.0000
# 4 0.0000 0.0000 0.0000 34.8367 0.0000 0.0000
# 5 0.0000 0.0000 0.0000 0.0000 17.7684 0.0000
# 6 0.0000 0.0000 0.0000 0.0000 0.0000 23.8100
#
#
#
# Elastic Compliance Matrix: (Units=1/GPa)
#
#
# Indices 1 2 3 4 5 6 
#
# 1 0.011854 -0.001464 -0.005377 0.000000 0.000000 0.000000
# 2 -0.001464 0.011392 -0.006951 0.000000 0.000000 0.000000
# 3 -0.005377 -0.006951 0.025629 0.000000 0.000000 0.000000
# 4 0.000000 0.000000 0.000000 0.028705 0.000000 0.000000
# 5 0.000000 0.000000 0.000000 0.000000 0.056280 0.000000
# 6 0.000000 0.000000 0.000000 0.000000 0.000000 0.041999
#
#
# Mechanical properties :
#
#
# Convention : Reuss Voigt Hill
#
# Bulk Modulus (GPa) = 46.96220 52.17835 49.57027
# Shear Modulus (GPa) = 23.74839 26.83288 25.29064
#
# Velocity S-wave (km/s) = 3.31816 3.52706 3.42420
# Velocity P-wave (km/s) = 6.03761 6.38574 6.21411
#
# Compressibility (1/GPa) = 0.02129372
#
# Stress axis : x y z
#
# Youngs Moduli (GPa) = 84.35638 87.77770 39.01806
#
# Poissons Ratio (x) = 0.12847 0.20979
# Poissons Ratio (y) = 0.12346 0.27121
# Poissons Ratio (z) = 0.45357 0.61012
#
# Static dielectric constant tensor:
#      x y z
#    x 3.794920 0.000000 0.000000 
#    y 0.000000 4.297110 0.000000 
#    z 0.000000 0.000000 3.812200 
# 
# 
# High freq. dielectric constant tensor:
#      x y z
#    x 1.843460 0.000000 0.000000 
#    y 0.000000 1.869460 0.000000 
#    z 0.000000 0.000000 1.831990 
# 
# From -- ./inp_files/52898.got.cif
#   From: 2010.03.12/outbox.cif.g09.slc.cpg/sg74_27_cif.got.tgz:52898.got - 2010.04.16 15:46:19.
