data_PCOD8301009
_publ_section_title
;
Structure prediction by ZEFSAII (Michael W. Deem and Ramdas Pophale) SiO2 
 PCOD8301009
Probable space group: I M M A
;
_chemical_formula_sum "Si O2"
_cell_formula_units_Z 64
_cell_length_a 20.526918
_cell_length_b 16.233861
_cell_length_c 9.168127
_cell_angle_alpha 90.000000
_cell_angle_beta 90.000000
_cell_angle_gamma 90.000000
_cell_volume 3055.105353
_symmetry_space_group_name_H-M "I M M A"
_symmetry_group_IT_number 74
_symmetry_cell_setting 'orthorhombic'
loop_
_space_group_symop_operation_xyz
x,y,z
-x,1/2-y,z
x,-y,-z
-x,1/2+y,-z
-x,-y,-z
x,1/2+y,-z
-x,y,z
x,1/2-y,z
1/2+x,1/2+y,1/2+z
1/2-x,-y,1/2+z
1/2+x,1/2-y,1/2-z
1/2-x,y,1/2-z
1/2-x,1/2-y,1/2-z
1/2+x,y,1/2-z
1/2-x,1/2+y,1/2+z
1/2+x,-y,1/2+z
loop_
_atom_site_type_symbol
_atom_site_label
_atom_site_fract_x
_atom_site_fract_y
_atom_site_fract_z
Si Si1 0.427026 0.156262 0.367308
Si Si2 0.682155 0.157025 0.875455
Si Si3 0.574448 0.410816 0.058882
Si Si4 0.684220 0.408852 0.563715
O O1 0.500000 0.139193 0.429432
O O2 0.421951 0.250000 0.311044
O O3 0.413425 0.095237 0.231931
O O4 0.374526 0.142191 0.492777
O O5 0.690856 0.250000 0.817086
O O6 0.674193 0.095151 0.738403
O O7 0.745323 0.131010 0.971394
O O8 0.619256 0.154984 0.977463
O O9 0.500000 0.390007 0.020094
O O10 0.594802 0.500000 0.000000
O O11 0.682143 0.500000 0.500000
#
# Coordination Sequence:
#
# PCOD8301009 Si02
#       4
#    16  16  16  16
#     4  10  21  38  59  85 117 151 190 236 286 342
#     4  11  23  40  60  86 120 153 193 242 292 346
#     4  10  21  38  60  87 119 154 194 239 287 342
#     4  11  23  39  60  84 115 153 194 240 292 347
#
# _framework density 20.948542
#
# number of rings (size 3 to 8) (size 9 to 14) (size 15 to 20)
#    0.000    1.500    0.000    6.000    0.000    6.000 
#    0.000    2.500    0.000    0.000    0.000    0.000 
#    0.000    0.000    0.000    0.000    0.000    0.000 
#
# Total GULP energy -396816.629855 kJ/mol
# GULP energy per Si atom -12400.519683 kJ/mol
# Density = 2.090086 g / cm^3
# Si number density = 20.948542 Si / 1000 Ang^3
#
#
#
# Elastic Constant Matrix: (Units=GPa)
#
#
# Indices 1 2 3 4 5 6 
#
# 1 145.4860 40.3759 74.8219 0.0000 0.0000 0.0000
# 2 40.3759 99.0816 35.9004 0.0000 0.0000 0.0000
# 3 74.8219 35.9004 89.3817 0.0000 0.0000 0.0000
# 4 0.0000 0.0000 0.0000 24.6575 0.0000 0.0000
# 5 0.0000 0.0000 0.0000 0.0000 47.0093 0.0000
# 6 0.0000 0.0000 0.0000 0.0000 0.0000 29.6812
#
#
#
# Elastic Compliance Matrix: (Units=1/GPa)
#
#
# Indices 1 2 3 4 5 6 
#
# 1 0.012256 -0.001494 -0.009659 0.000000 0.000000 0.000000
# 2 -0.001494 0.011994 -0.003566 0.000000 0.000000 0.000000
# 3 -0.009659 -0.003566 0.020706 0.000000 0.000000 0.000000
# 4 0.000000 0.000000 0.000000 0.040556 0.000000 0.000000
# 5 0.000000 0.000000 0.000000 0.000000 0.021272 0.000000
# 6 0.000000 0.000000 0.000000 0.000000 0.000000 0.033691
#
#
# Mechanical properties :
#
#
# Convention : Reuss Voigt Hill
#
# Bulk Modulus (GPa) = 64.45001 70.68287 67.56644
# Shear Modulus (GPa) = 28.55716 32.45966 30.50841
#
# Velocity S-wave (km/s) = 3.69617 3.94063 3.82036
# Velocity P-wave (km/s) = 7.00344 7.38371 7.19609
#
# Compressibility (1/GPa) = 0.01551590
#
# Stress axis : x y z
#
# Youngs Moduli (GPa) = 81.59337 83.37577 48.29475
#
# Poissons Ratio (x) = 0.12460 0.46649
# Poissons Ratio (y) = 0.12194 0.17224
# Poissons Ratio (z) = 0.78813 0.29735
#
# Static dielectric constant tensor:
#      x y z
#    x 4.029390 0.000000 0.000000 
#    y 0.000000 3.691960 0.000000 
#    z 0.000000 0.000000 3.529060 
# 
# 
# High freq. dielectric constant tensor:
#      x y z
#    x 1.840330 0.000000 0.000000 
#    y 0.000000 1.821990 0.000000 
#    z 0.000000 0.000000 1.805260 
# 
# From -- ./inp_files/8790.got.cif
#   From: 2010.03.12/outbox.cif.g09.slc.cpg/sg74_5_cif.got.tgz:8790.got - 2010.04.16 15:46:19.
