data_PCOD8301021
_publ_section_title
;
Structure prediction by ZEFSAII (Michael W. Deem and Ramdas Pophale) SiO2 
 PCOD8301021
Probable space group: I M M A
;
_chemical_formula_sum "Si O2"
_cell_formula_units_Z 80
_cell_length_a 9.024014
_cell_length_b 14.234329
_cell_length_c 29.376512
_cell_angle_alpha 90.000000
_cell_angle_beta 90.000000
_cell_angle_gamma 90.000000
_cell_volume 3773.436003
_symmetry_space_group_name_H-M "I M M A"
_symmetry_group_IT_number 74
_symmetry_cell_setting 'orthorhombic'
loop_
_space_group_symop_operation_xyz
x,y,z
-x,1/2-y,z
x,-y,-z
-x,1/2+y,-z
-x,-y,-z
x,1/2+y,-z
-x,y,z
x,1/2-y,z
1/2+x,1/2+y,1/2+z
1/2-x,-y,1/2+z
1/2+x,1/2-y,1/2-z
1/2-x,y,1/2-z
1/2-x,1/2-y,1/2-z
1/2+x,y,1/2-z
1/2-x,1/2+y,1/2+z
1/2+x,-y,1/2+z
loop_
_atom_site_type_symbol
_atom_site_label
_atom_site_fract_x
_atom_site_fract_y
_atom_site_fract_z
Si Si1 0.832322 0.637874 0.530511
Si Si2 0.827859 0.139967 0.649394
Si Si3 0.333026 0.638190 0.441853
Si Si4 0.175037 0.011410 0.203772
Si Si5 0.672529 0.857436 0.620321
O O1 0.824347 0.750000 0.529848
O O2 0.746475 0.596695 0.486662
O O3 0.756939 0.599806 0.576630
O O4 0.000000 0.601571 0.528502
O O5 0.803149 0.250000 0.656424
O O6 0.756441 0.104176 0.602293
O O7 0.744420 0.089247 0.690838
O O8 0.000000 0.113119 0.649170
O O9 0.500000 0.598581 0.438776
O O10 0.334070 0.750000 0.444279
O O11 0.250000 0.047742 0.250000
O O12 0.000000 0.001470 0.210392
O O13 0.218275 0.085892 0.165054
O O14 0.500000 0.866255 0.609561
O O15 0.719337 0.750000 0.629031
#
# Coordination Sequence:
#
# PCOD8301021 Si02
#       5
#    16  16  16  16  16
#     4   9  16  27  48  80 115 150 187 226 270 322
#     4  10  21  38  60  85 114 148 186 230 279 331
#     4   9  16  28  50  80 114 151 187 224 270 326
#     4  11  24  41  61  84 111 144 184 233 285 336
#     4   9  19  37  59  83 113 149 187 227 275 331
#
# _framework density 21.200835999999999
#
# number of rings (size 3 to 8) (size 9 to 14) (size 15 to 20)
#    0.000    2.400    0.000    2.400    0.000    8.400 
#    0.000    1.000    0.000    6.000    0.000    0.000 
#    0.000    0.000    0.000    0.000    0.000    0.000 
#
# Total GULP energy -496168.423703 kJ/mol
# GULP energy per Si atom -12404.210593 kJ/mol
# Density = 2.115258 g / cm^3
# Si number density = 21.200836 Si / 1000 Ang^3
#
#
#
# Elastic Constant Matrix: (Units=GPa)
#
#
# Indices 1 2 3 4 5 6 
#
# 1 112.2759 15.5602 48.8727 0.0000 0.0000 0.0000
# 2 15.5602 27.6407 18.6333 0.0000 0.0000 0.0000
# 3 48.8727 18.6333 131.6252 0.0000 0.0000 0.0000
# 4 0.0000 0.0000 0.0000 28.5981 0.0000 0.0000
# 5 0.0000 0.0000 0.0000 0.0000 48.0547 0.0000
# 6 0.0000 0.0000 0.0000 0.0000 0.0000 18.8942
#
#
#
# Elastic Compliance Matrix: (Units=1/GPa)
#
#
# Indices 1 2 3 4 5 6 
#
# 1 0.010972 -0.003792 -0.003537 0.000000 0.000000 0.000000
# 2 -0.003792 0.041306 -0.004439 0.000000 0.000000 0.000000
# 3 -0.003537 -0.004439 0.009539 0.000000 0.000000 0.000000
# 4 0.000000 0.000000 0.000000 0.034967 0.000000 0.000000
# 5 0.000000 0.000000 0.000000 0.000000 0.020810 0.000000
# 6 0.000000 0.000000 0.000000 0.000000 0.000000 0.052926
#
#
# Mechanical properties :
#
#
# Convention : Reuss Voigt Hill
#
# Bulk Modulus (GPa) = 26.12345 48.63047 37.37696
# Shear Modulus (GPa) = 24.17595 31.67444 27.92520
#
# Velocity S-wave (km/s) = 3.38054 3.86945 3.63323
# Velocity P-wave (km/s) = 5.25224 6.55372 5.93874
#
# Compressibility (1/GPa) = 0.03827978
#
# Stress axis : x y z
#
# Youngs Moduli (GPa) = 91.14261 24.20959 104.83189
#
# Poissons Ratio (x) = 0.09181 0.37079
# Poissons Ratio (y) = 0.34563 0.46539
# Poissons Ratio (z) = 0.32237 0.10748
#
# Static dielectric constant tensor:
#      x y z
#    x 3.894520 0.000000 0.000000 
#    y 0.000000 3.606710 0.000000 
#    z 0.000000 0.000000 3.874890 
# 
# 
# High freq. dielectric constant tensor:
#      x y z
#    x 1.838260 0.000000 0.000000 
#    y 0.000000 1.819670 0.000000 
#    z 0.000000 0.000000 1.832800 
# 
# From -- ./inp_files/63966.got.cif
#   From: 2010.03.12/outbox.cif.g09.slc.cpg/sg74_32_cif.got.tgz:63966.got - 2010.04.16 15:46:19.
