data_PCOD8301301
_publ_section_title
;
Structure prediction by ZEFSAII (Michael W. Deem and Ramdas Pophale) SiO2 
 PCOD8301301
Probable space group: I M M A
;
_chemical_formula_sum "Si O2"
_cell_formula_units_Z 104
_cell_length_a 22.096472
_cell_length_b 9.034025
_cell_length_c 26.376183
_cell_angle_alpha 90.000000
_cell_angle_beta 90.000000
_cell_angle_gamma 90.000000
_cell_volume 5265.215773
_symmetry_space_group_name_H-M "I M M A"
_symmetry_group_IT_number 74
_symmetry_cell_setting 'orthorhombic'
loop_
_space_group_symop_operation_xyz
x,y,z
-x,1/2-y,z
x,-y,-z
-x,1/2+y,-z
-x,-y,-z
x,1/2+y,-z
-x,y,z
x,1/2-y,z
1/2+x,1/2+y,1/2+z
1/2-x,-y,1/2+z
1/2+x,1/2-y,1/2-z
1/2-x,y,1/2-z
1/2-x,1/2-y,1/2-z
1/2+x,y,1/2-z
1/2-x,1/2+y,1/2+z
1/2+x,-y,1/2+z
loop_
_atom_site_type_symbol
_atom_site_label
_atom_site_fract_x
_atom_site_fract_y
_atom_site_fract_z
Si Si1 0.326942 0.074695 0.870913
Si Si2 0.382893 0.416712 0.718754
Si Si3 0.500000 0.921683 0.552625
Si Si4 0.602409 0.584659 0.392664
Si Si5 0.774483 0.421938 0.946657
Si Si6 0.234584 0.409800 0.194396
Si Si7 0.429685 0.422285 0.182111
O O1 0.334139 0.250000 0.866651
O O2 0.290399 0.029697 0.922092
O O3 0.289392 0.012220 0.823909
O O4 0.392993 0.998896 0.864441
O O5 0.370315 0.250000 0.738945
O O6 0.419629 0.412316 0.666064
O O7 0.324387 0.492186 0.695313
O O8 0.415678 0.507058 0.762989
O O9 0.500000 0.750000 0.543566
O O10 0.500000 0.000000 0.500000
O O11 0.439226 0.964477 0.581369
O O12 0.591775 0.750000 0.415030
O O13 0.672688 0.539991 0.405677
O O14 0.772820 0.250000 0.958536
O O15 0.785573 0.500000 0.000000
O O16 0.227262 0.250000 0.164756
O O17 0.250000 0.361313 0.250000
O O18 0.500000 0.445532 0.169746
O O19 0.412135 0.250000 0.184830
#
# Coordination Sequence:
#
# PCOD8301301 Si02
#       7
#    16  16   8  16  16  16  16
#     4  11  22  39  62  88 119 155 201 248 297 359
#     4  11  22  37  59  85 118 157 197 240 289 347
#     4  12  26  42  60  82 110 156 210 256 305 350
#     4  10  22  41  60  85 120 157 201 249 298 352
#     4  10  22  40  62  91 120 149 191 246 304 361
#     4  11  21  33  54  86 120 153 190 232 286 342
#     4  11  25  42  59  86 124 161 201 248 298 360
#
# _framework density 19.752276999999999
#
# number of rings (size 3 to 8) (size 9 to 14) (size 15 to 20)
#    0.000    1.231    3.077    3.000    1.077    6.154 
#    0.000    0.000    0.000    0.462    0.000    0.000 
#    0.000    0.000    0.000    0.000    0.000    0.000 
#
# Total GULP energy -644313.639259 kJ/mol
# GULP energy per Si atom -12390.646909 kJ/mol
# Density = 1.970732 g / cm^3
# Si number density = 19.752277 Si / 1000 Ang^3
#
#
#
# Elastic Constant Matrix: (Units=GPa)
#
#
# Indices 1 2 3 4 5 6 
#
# 1 105.0143 53.9219 26.2236 0.0000 0.0000 0.0000
# 2 53.9219 131.9128 27.7367 0.0000 0.0000 0.0000
# 3 26.2236 27.7367 75.2291 0.0000 0.0000 0.0000
# 4 0.0000 0.0000 0.0000 28.8007 0.0000 0.0000
# 5 0.0000 0.0000 0.0000 0.0000 25.9163 0.0000
# 6 0.0000 0.0000 0.0000 0.0000 0.0000 35.7641
#
#
#
# Elastic Compliance Matrix: (Units=1/GPa)
#
#
# Indices 1 2 3 4 5 6 
#
# 1 0.012535 -0.004558 -0.002689 0.000000 0.000000 0.000000
# 2 -0.004558 0.009876 -0.002052 0.000000 0.000000 0.000000
# 3 -0.002689 -0.002052 0.014987 0.000000 0.000000 0.000000
# 4 0.000000 0.000000 0.000000 0.034721 0.000000 0.000000
# 5 0.000000 0.000000 0.000000 0.000000 0.038586 0.000000
# 6 0.000000 0.000000 0.000000 0.000000 0.000000 0.027961
#
#
# Mechanical properties :
#
#
# Convention : Reuss Voigt Hill
#
# Bulk Modulus (GPa) = 53.19623 58.65784 55.92704
# Shear Modulus (GPa) = 30.57558 31.71449 31.14503
#
# Velocity S-wave (km/s) = 3.93867 4.01136 3.97518
# Velocity P-wave (km/s) = 6.90466 7.15653 7.03172
#
# Compressibility (1/GPa) = 0.01879832
#
# Stress axis : x y z
#
# Youngs Moduli (GPa) = 79.77964 101.25982 66.72650
#
# Poissons Ratio (x) = 0.46158 0.17941
# Poissons Ratio (y) = 0.36367 0.13693
# Poissons Ratio (z) = 0.21450 0.20780
#
# Static dielectric constant tensor:
#      x y z
#    x 3.670830 0.000000 0.000000 
#    y 0.000000 3.840110 0.000000 
#    z 0.000000 0.000000 6.885230 
# 
# 
# High freq. dielectric constant tensor:
#      x y z
#    x 1.761910 0.000000 0.000000 
#    y 0.000000 1.788050 0.000000 
#    z 0.000000 0.000000 1.751890 
# 
# From -- ./inp_files/68252.got.cif
#   From: 2010.03.12/outbox.cif.g09.slc.cpg/sg74_35_cif.got.tgz:68252.got - 2010.04.16 15:46:19.
