data_PCOD8301876
_publ_section_title
;
Structure prediction by ZEFSAII (Michael W. Deem and Ramdas Pophale) SiO2 
 PCOD8301876
Probable space group: P 41
;
_chemical_formula_sum "Si O2"
_cell_formula_units_Z 28
_cell_length_a 11.300753
_cell_length_b 11.300753
_cell_length_c 10.038582
_cell_angle_alpha 90.000000
_cell_angle_beta 90.000000
_cell_angle_gamma 90.000000
_cell_volume 1281.997376
_symmetry_space_group_name_H-M "P 41"
_symmetry_group_IT_number 76
_symmetry_cell_setting 'tetragonal'
loop_
_space_group_symop_operation_xyz
x,y,z
-y,x,1/4+z
-x,-y,1/2+z
y,-x,3/4+z
loop_
_atom_site_type_symbol
_atom_site_label
_atom_site_fract_x
_atom_site_fract_y
_atom_site_fract_z
Si Si1 0.756803 0.626465 0.274620
Si Si2 0.386059 0.752983 0.026033
Si Si3 0.676512 0.990776 0.912241
Si Si4 0.734913 0.354755 0.771037
Si Si5 0.648978 0.746466 0.530472
Si Si6 0.992289 0.665523 0.862632
Si Si7 0.932858 0.060226 0.614688
O O1 0.897359 0.630622 0.247288
O O2 0.686713 0.706044 0.169524
O O3 0.725133 0.681648 0.417506
O O4 0.714373 0.489793 0.270024
O O5 0.511070 0.690155 0.000601
O O6 0.338960 0.726827 0.173160
O O7 0.408480 0.895687 0.027364
O O8 0.292942 0.704451 0.920539
O O9 0.617021 0.986469 0.763735
O O10 0.817049 0.998740 0.893745
O O11 0.648719 0.874713 0.996997
O O12 0.666473 0.887801 0.527016
O O13 0.929585 0.792815 0.873276
O O14 0.965402 0.015383 0.467893
#
# Coordination Sequence:
#
# PCOD8301876 Si02
#       7
#     4   4   4   4   4   4   4
#     4  12  28  47  70 109 148 187 247 303 355 432
#     4  12  24  45  73  98 138 196 238 293 367 424
#     4  11  22  46  70 102 139 183 242 294 361 435
#     4  12  24  45  73  98 138 196 238 293 367 424
#     4  12  28  47  70 109 148 187 247 303 355 432
#     4  11  22  46  70 102 139 183 242 294 361 435
#     4  10  20  36  64  94 134 170 216 278 346 416
#
# _framework density 21.840916
#
# number of rings (size 3 to 8) (size 9 to 14) (size 15 to 20)
#    0.000    0.571    4.286    4.286    2.000    4.571 
#    0.000    0.000    0.000    0.000    0.000    0.000 
#    0.000    0.000    0.000    0.000    0.000    0.000 
#
# Total GULP energy -347232.306326 kJ/mol
# GULP energy per Si atom -12401.153797 kJ/mol
# Density = 2.179121 g / cm^3
# Si number density = 21.840916 Si / 1000 Ang^3
#
#
#
# Elastic Constant Matrix: (Units=GPa)
#
#
# Indices 1 2 3 4 5 6 
#
# 1 96.0942 29.0697 24.4584 0.0000 0.0000 -4.5775
# 2 29.0697 96.0942 24.4584 0.0000 0.0000 4.5775
# 3 24.4584 24.4584 87.6995 0.0000 0.0000 0.0000
# 4 0.0000 0.0000 0.0000 26.6610 0.0000 0.0000
# 5 0.0000 0.0000 0.0000 0.0000 26.6610 0.0000
# 6 -4.5775 4.5775 0.0000 0.0000 0.0000 16.3176
#
#
#
# Elastic Compliance Matrix: (Units=1/GPa)
#
#
# Indices 1 2 3 4 5 6 
#
# 1 0.012241 -0.003274 -0.002501 0.000000 0.000000 0.004352
# 2 -0.003274 0.012241 -0.002501 0.000000 0.000000 -0.004352
# 3 -0.002501 -0.002501 0.012797 0.000000 0.000000 0.000000
# 4 0.000000 0.000000 0.000000 0.037508 0.000000 0.000000
# 5 0.000000 0.000000 0.000000 0.000000 0.037508 0.000000
# 6 0.004352 -0.004352 0.000000 0.000000 0.000000 0.063725
#
#
# Mechanical properties :
#
#
# Convention : Reuss Voigt Hill
#
# Bulk Modulus (GPa) = 48.24357 48.42900 48.33628
# Shear Modulus (GPa) = 25.06516 27.38800 26.22658
#
# Velocity S-wave (km/s) = 3.39134 3.54500 3.46902
# Velocity P-wave (km/s) = 6.12139 6.24321 6.18260
#
# Compressibility (1/GPa) = 0.02072815
#
# Stress axis : x y z
#
# Youngs Moduli (GPa) = 81.69510 81.69510 78.14062
#
# Poissons Ratio (x) = 0.26745 0.19541
# Poissons Ratio (y) = 0.26745 0.19541
# Poissons Ratio (z) = 0.20430 0.20430
#
# Static dielectric constant tensor:
#      x y z
#    x 3.995500 0.000000 0.000000 
#    y 0.000000 3.995500 0.000000 
#    z 0.000000 0.000000 4.009600 
# 
# 
# High freq. dielectric constant tensor:
#      x y z
#    x 1.863840 0.000000 0.000000 
#    y 0.000000 1.863840 0.000000 
#    z 0.000000 0.000000 1.861100 
# 
# From -- ./inp_files/641.got.cif
#   From: 2010.03.12/outbox.cif.g09.slc.cpg/sg76_cif.got.tgz:641.got - 2010.04.16 16:34:25.
