data_PCOD8301286
_publ_section_title
;
Structure prediction by ZEFSAII (Michael W. Deem and Ramdas Pophale) SiO2 
 PCOD8301286
Probable space group: I M M A
;
_chemical_formula_sum "Si O2"
_cell_formula_units_Z 80
_cell_length_a 25.197686
_cell_length_b 9.004043
_cell_length_c 18.308608
_cell_angle_alpha 90.000000
_cell_angle_beta 90.000000
_cell_angle_gamma 90.000000
_cell_volume 4153.876175
_symmetry_space_group_name_H-M "I M M A"
_symmetry_group_IT_number 74
_symmetry_cell_setting 'orthorhombic'
loop_
_space_group_symop_operation_xyz
x,y,z
-x,1/2-y,z
x,-y,-z
-x,1/2+y,-z
-x,-y,-z
x,1/2+y,-z
-x,y,z
x,1/2-y,z
1/2+x,1/2+y,1/2+z
1/2-x,-y,1/2+z
1/2+x,1/2-y,1/2-z
1/2-x,y,1/2-z
1/2-x,1/2-y,1/2-z
1/2+x,y,1/2-z
1/2-x,1/2+y,1/2+z
1/2+x,-y,1/2+z
loop_
_atom_site_type_symbol
_atom_site_label
_atom_site_fract_x
_atom_site_fract_y
_atom_site_fract_z
Si Si1 0.058504 0.073456 0.672484
Si Si2 0.656400 0.426064 0.921896
Si Si3 0.252461 0.579031 0.834530
Si Si4 0.851290 0.078084 0.074920
Si Si5 0.938417 0.079813 0.836186
O O1 0.057768 0.250000 0.674508
O O2 0.102239 0.014589 0.615706
O O3 0.072021 0.017742 0.754278
O O4 0.000000 0.014789 0.648661
O O5 0.656033 0.250000 0.931103
O O6 0.705573 0.471583 0.872197
O O7 0.662083 0.500000 0.000000
O O8 0.269565 0.750000 0.846645
O O9 0.250000 0.537131 0.750000
O O10 0.194813 0.546946 0.867117
O O11 0.858917 0.250000 0.058317
O O12 0.906227 0.016811 0.106203
O O13 0.835234 0.000000 0.000000
O O14 0.919695 0.250000 0.842256
O O15 0.000000 0.064648 0.856299
#
# Coordination Sequence:
#
# PCOD8301286 Si02
#       5
#    16  16  16  16  16
#     4   8  16  33  56  81 109 142 181 223 267 318
#     4  11  22  35  55  82 112 147 184 223 269 321
#     4  10  22  40  60  82 109 140 177 225 277 326
#     4  11  23  37  55  79 109 144 178 217 266 319
#     4   9  18  35  59  83 107 138 178 224 270 317
#
# _framework density 19.259119999999999
#
# number of rings (size 3 to 8) (size 9 to 14) (size 15 to 20)
#    0.000    2.200    0.000    4.200    0.000    4.800 
#    0.000    1.000    0.000    4.200    0.000    0.000 
#    0.000    0.000    0.000    0.000    0.000    0.000 
#
# Total GULP energy -496096.635651 kJ/mol
# GULP energy per Si atom -12402.415891 kJ/mol
# Density = 1.921529 g / cm^3
# Si number density = 19.259120 Si / 1000 Ang^3
#
#
#
# Elastic Constant Matrix: (Units=GPa)
#
#
# Indices 1 2 3 4 5 6 
#
# 1 100.0179 49.8779 59.5992 0.0000 0.0000 0.0000
# 2 49.8779 79.0031 51.9226 0.0000 0.0000 0.0000
# 3 59.5992 51.9226 138.1237 0.0000 0.0000 0.0000
# 4 0.0000 0.0000 0.0000 7.5130 0.0000 0.0000
# 5 0.0000 0.0000 0.0000 0.0000 16.3994 0.0000
# 6 0.0000 0.0000 0.0000 0.0000 0.0000 9.4901
#
#
#
# Elastic Compliance Matrix: (Units=1/GPa)
#
#
# Indices 1 2 3 4 5 6 
#
# 1 0.016231 -0.007496 -0.004185 0.000000 0.000000 0.000000
# 2 -0.007496 0.020273 -0.004386 0.000000 0.000000 0.000000
# 3 -0.004185 -0.004386 0.010695 0.000000 0.000000 0.000000
# 4 0.000000 0.000000 0.000000 0.133103 0.000000 0.000000
# 5 0.000000 0.000000 0.000000 0.000000 0.060978 0.000000
# 6 0.000000 0.000000 0.000000 0.000000 0.000000 0.105373
#
#
# Mechanical properties :
#
#
# Convention : Reuss Voigt Hill
#
# Bulk Modulus (GPa) = 66.39041 71.10489 68.74765
# Shear Modulus (GPa) = 13.02727 17.06347 15.04537
#
# Velocity S-wave (km/s) = 2.60363 2.97980 2.79804
# Velocity P-wave (km/s) = 6.60194 6.98850 6.79797
#
# Compressibility (1/GPa) = 0.01506242
#
# Stress axis : x y z
#
# Youngs Moduli (GPa) = 61.61219 49.32592 93.50368
#
# Poissons Ratio (x) = 0.36976 0.39135
# Poissons Ratio (y) = 0.46186 0.41015
# Poissons Ratio (z) = 0.25787 0.21636
#
# Static dielectric constant tensor:
#      x y z
#    x 3.712150 0.000000 0.000000 
#    y 0.000000 3.326030 0.000000 
#    z 0.000000 0.000000 3.606240 
# 
# 
# High freq. dielectric constant tensor:
#      x y z
#    x 1.760240 0.000000 0.000000 
#    y 0.000000 1.731120 0.000000 
#    z 0.000000 0.000000 1.757360 
# 
# From -- ./inp_files/46493.got.cif
#   From: 2010.03.12/outbox.cif.g09.slc.cpg/sg74_24_cif.got.tgz:46493.got - 2010.04.16 15:46:19.
