data_PCOD8301065
_publ_section_title
;
Structure prediction by ZEFSAII (Michael W. Deem and Ramdas Pophale) SiO2 
 PCOD8301065
Probable space group: I M M A
;
_chemical_formula_sum "Si O2"
_cell_formula_units_Z 72
_cell_length_a 27.090194
_cell_length_b 10.683918
_cell_length_c 12.582538
_cell_angle_alpha 90.000000
_cell_angle_beta 90.000000
_cell_angle_gamma 90.000000
_cell_volume 3641.756566
_symmetry_space_group_name_H-M "I M M A"
_symmetry_group_IT_number 74
_symmetry_cell_setting 'orthorhombic'
loop_
_space_group_symop_operation_xyz
x,y,z
-x,1/2-y,z
x,-y,-z
-x,1/2+y,-z
-x,-y,-z
x,1/2+y,-z
-x,y,z
x,1/2-y,z
1/2+x,1/2+y,1/2+z
1/2-x,-y,1/2+z
1/2+x,1/2-y,1/2-z
1/2-x,y,1/2-z
1/2-x,1/2-y,1/2-z
1/2+x,y,1/2-z
1/2-x,1/2+y,1/2+z
1/2+x,-y,1/2+z
loop_
_atom_site_type_symbol
_atom_site_label
_atom_site_fract_x
_atom_site_fract_y
_atom_site_fract_z
Si Si1 0.714067 0.750000 0.411982
Si Si2 0.605219 0.889990 0.677593
Si Si3 0.396346 0.537925 0.121994
Si Si4 0.500000 0.889545 0.583496
Si Si5 0.829369 0.500000 0.000000
Si Si6 0.677345 0.750000 0.178722
Si Si7 0.500000 0.888688 0.083777
O O1 0.703408 0.624206 0.480299
O O2 0.681167 0.750000 0.305970
O O3 0.770820 0.750000 0.380587
O O4 0.623881 0.750000 0.655348
O O5 0.547359 0.904688 0.657110
O O6 0.613479 0.920143 0.801528
O O7 0.636090 0.982472 0.602704
O O8 0.351559 0.629619 0.140910
O O9 0.449660 0.599062 0.152544
O O10 0.396195 0.500000 0.000000
O O11 0.500000 0.750000 0.529497
O O12 0.500000 0.000000 0.500000
O O13 0.500000 0.750000 0.029847
O O14 0.500000 0.000000 0.000000
#
# Coordination Sequence:
#
# PCOD8301065 Si02
#       7
#     8  16  16   8   8   8   8
#     4  11  26  44  67  97 132 167 220 275 335 375
#     4  11  23  40  64  97 133 174 213 266 327 386
#     4  11  24  41  66  95 131 173 220 266 321 389
#     4  10  21  38  61  96 135 169 215 264 314 384
#     4  12  22  43  68  94 130 169 214 268 330 390
#     4  11  24  45  67  93 128 170 220 274 323 390
#     4  10  21  38  62  93 129 170 216 262 323 380
#
# _framework density 19.770679999999999
#
# number of rings (size 3 to 8) (size 9 to 14) (size 15 to 20)
#    0.000    1.111    5.556    0.667    3.111    0.889 
#    2.000    1.111    0.000    4.000    0.000    0.000 
#    0.000    0.000    0.000    0.000    0.000    0.000 
#
# Total GULP energy -446301.386339 kJ/mol
# GULP energy per Si atom -12397.260732 kJ/mol
# Density = 1.972568 g / cm^3
# Si number density = 19.770680 Si / 1000 Ang^3
#
#
#
# Elastic Constant Matrix: (Units=GPa)
#
#
# Indices 1 2 3 4 5 6 
#
# 1 104.2863 41.4715 34.0983 0.0000 0.0000 0.0000
# 2 41.4715 139.9437 47.6787 0.0000 0.0000 0.0000
# 3 34.0983 47.6787 116.5925 0.0000 0.0000 0.0000
# 4 0.0000 0.0000 0.0000 33.8524 0.0000 0.0000
# 5 0.0000 0.0000 0.0000 0.0000 18.2399 0.0000
# 6 0.0000 0.0000 0.0000 0.0000 0.0000 30.3253
#
#
#
# Elastic Compliance Matrix: (Units=1/GPa)
#
#
# Indices 1 2 3 4 5 6 
#
# 1 0.011361 -0.002596 -0.002261 0.000000 0.000000 0.000000
# 2 -0.002596 0.008896 -0.002878 0.000000 0.000000 0.000000
# 3 -0.002261 -0.002878 0.010415 0.000000 0.000000 0.000000
# 4 0.000000 0.000000 0.000000 0.029540 0.000000 0.000000
# 5 0.000000 0.000000 0.000000 0.000000 0.054825 0.000000
# 6 0.000000 0.000000 0.000000 0.000000 0.000000 0.032976
#
#
# Mechanical properties :
#
#
# Convention : Reuss Voigt Hill
#
# Bulk Modulus (GPa) = 65.78773 67.47994 66.63384
# Shear Modulus (GPa) = 29.66470 32.32179 30.99325
#
# Velocity S-wave (km/s) = 3.87775 4.04770 3.96363
# Velocity P-wave (km/s) = 7.30732 7.48669 7.39755
#
# Compressibility (1/GPa) = 0.01520040
#
# Stress axis : x y z
#
# Youngs Moduli (GPa) = 88.02270 112.41170 96.01389
#
# Poissons Ratio (x) = 0.29187 0.21706
# Poissons Ratio (y) = 0.22855 0.27637
# Poissons Ratio (z) = 0.19900 0.32357
#
# Static dielectric constant tensor:
#      x y z
#    x 3.853220 0.000000 0.000000 
#    y 0.000000 3.727540 0.000000 
#    z 0.000000 0.000000 3.479860 
# 
# 
# High freq. dielectric constant tensor:
#      x y z
#    x 1.777500 0.000000 0.000000 
#    y 0.000000 1.782970 0.000000 
#    z 0.000000 0.000000 1.758570 
# 
# From -- ./inp_files/37117.got.cif
#   From: 2010.03.12/outbox.cif.g09.slc.cpg/sg74_19_cif.got.tgz:37117.got - 2010.04.16 15:46:19.
