data_PCOD8301947
_publ_section_title
;
Structure prediction by ZEFSAII (Michael W. Deem and Ramdas Pophale) SiO2 
 PCOD8301947
Probable space group: P 41
;
_chemical_formula_sum "Si O2"
_cell_formula_units_Z 24
_cell_length_a 10.676506
_cell_length_b 10.676506
_cell_length_c 9.504698
_cell_angle_alpha 90.000000
_cell_angle_beta 90.000000
_cell_angle_gamma 90.000000
_cell_volume 1083.419428
_symmetry_space_group_name_H-M "P 41"
_symmetry_group_IT_number 76
_symmetry_cell_setting 'tetragonal'
loop_
_space_group_symop_operation_xyz
x,y,z
-y,x,1/4+z
-x,-y,1/2+z
y,-x,3/4+z
loop_
_atom_site_type_symbol
_atom_site_label
_atom_site_fract_x
_atom_site_fract_y
_atom_site_fract_z
Si Si1 0.380050 0.450058 0.026200
Si Si2 0.296812 0.005916 0.966749
Si Si3 0.176293 0.266293 0.961011
Si Si4 0.365575 0.821063 0.188027
Si Si5 0.577049 0.058756 0.968363
Si Si6 0.587909 0.776849 0.987752
O O1 0.497065 0.433906 0.130679
O O2 0.274707 0.543960 0.086370
O O3 0.312768 0.316860 0.004621
O O4 0.302793 0.934090 0.818206
O O5 0.191736 0.114715 0.955993
O O6 0.431199 0.063595 0.012017
O O7 0.270405 0.900440 0.087113
O O8 0.144971 0.331786 0.812057
O O9 0.423697 0.909589 0.304525
O O10 0.294870 0.714549 0.276951
O O11 0.476996 0.754936 0.099660
O O12 0.628783 0.919488 0.980566
#
# Coordination Sequence:
#
# PCOD8301947 Si02
#       6
#     4   4   4   4   4   4
#     4  12  25  46  73 108 145 183 236 303 366 426
#     4  11  25  48  71 101 143 188 240 290 366 414
#     4  12  26  48  72 105 146 189 240 298 351 440
#     4  11  25  43  76 101 144 187 233 295 360 433
#     4  11  26  43  76 101 142 190 239 285 365 427
#     4  11  23  44  72 102 142 181 238 291 364 416
#
# _framework density 22.152085
#
# number of rings (size 3 to 8) (size 9 to 14) (size 15 to 20)
#    0.000    0.667    5.000    3.000    9.333    2.667 
#    3.000    0.000    0.000    0.000    0.000    0.000 
#    0.000    0.000    0.000    0.000    0.000    0.000 
#
# Total GULP energy -297564.516335 kJ/mol
# GULP energy per Si atom -12398.521514 kJ/mol
# Density = 2.210167 g / cm^3
# Si number density = 22.152085 Si / 1000 Ang^3
#
#
#
# Elastic Constant Matrix: (Units=GPa)
#
#
# Indices 1 2 3 4 5 6 
#
# 1 106.3648 57.9008 38.8880 0.0000 0.0000 4.5829
# 2 57.9008 106.3648 38.8880 0.0000 0.0000 -4.5829
# 3 38.8880 38.8880 99.9554 0.0000 0.0000 0.0000
# 4 0.0000 0.0000 0.0000 26.9087 0.0000 0.0000
# 5 0.0000 0.0000 0.0000 0.0000 26.9087 0.0000
# 6 4.5829 -4.5829 0.0000 0.0000 0.0000 40.2812
#
#
#
# Elastic Compliance Matrix: (Units=1/GPa)
#
#
# Indices 1 2 3 4 5 6 
#
# 1 0.014275 -0.006813 -0.002903 0.000000 0.000000 -0.002399
# 2 -0.006813 0.014275 -0.002903 0.000000 0.000000 0.002399
# 3 -0.002903 -0.002903 0.012264 0.000000 0.000000 0.000000
# 4 0.000000 0.000000 0.000000 0.037163 0.000000 0.000000
# 5 0.000000 0.000000 0.000000 0.000000 0.037163 0.000000
# 6 -0.002399 0.002399 0.000000 0.000000 0.000000 0.025371
#
#
# Mechanical properties :
#
#
# Convention : Reuss Voigt Hill
#
# Bulk Modulus (GPa) = 64.20478 64.89319 64.54899
# Shear Modulus (GPa) = 29.25000 30.62028 29.93514
#
# Velocity S-wave (km/s) = 3.63770 3.72193 3.68005
# Velocity P-wave (km/s) = 6.83303 6.91580 6.87454
#
# Compressibility (1/GPa) = 0.01557516
#
# Stress axis : x y z
#
# Youngs Moduli (GPa) = 70.05264 70.05264 81.54278
#
# Poissons Ratio (x) = 0.47724 0.23674
# Poissons Ratio (y) = 0.47724 0.23674
# Poissons Ratio (z) = 0.20338 0.20338
#
# Static dielectric constant tensor:
#      x y z
#    x 4.004750 0.000000 0.000000 
#    y 0.000000 4.004750 0.000000 
#    z 0.000000 0.000000 3.902460 
# 
# 
# High freq. dielectric constant tensor:
#      x y z
#    x 1.867950 0.000000 0.000000 
#    y 0.000000 1.867950 0.000000 
#    z 0.000000 0.000000 1.875190 
# 
# From -- ./inp_files/544.got.cif
#   From: 2010.03.12/outbox.cif.g09.slc.cpg/sg76_cif.got.tgz:544.got - 2010.04.16 16:34:25.
