data_PCOD8301790
_publ_section_title
;
Structure prediction by ZEFSAII (Michael W. Deem and Ramdas Pophale) SiO2 
 PCOD8301790
Probable space group: I M M A
;
_chemical_formula_sum "Si O2"
_cell_formula_units_Z 104
_cell_length_a 9.562129
_cell_length_b 17.648219
_cell_length_c 37.346766
_cell_angle_alpha 90.000000
_cell_angle_beta 90.000000
_cell_angle_gamma 90.000000
_cell_volume 6302.436567
_symmetry_space_group_name_H-M "I M M A"
_symmetry_group_IT_number 74
_symmetry_cell_setting 'orthorhombic'
loop_
_space_group_symop_operation_xyz
x,y,z
-x,1/2-y,z
x,-y,-z
-x,1/2+y,-z
-x,-y,-z
x,1/2+y,-z
-x,y,z
x,1/2-y,z
1/2+x,1/2+y,1/2+z
1/2-x,-y,1/2+z
1/2+x,1/2-y,1/2-z
1/2-x,y,1/2-z
1/2-x,1/2-y,1/2-z
1/2+x,y,1/2-z
1/2-x,1/2+y,1/2+z
1/2+x,-y,1/2+z
loop_
_atom_site_type_symbol
_atom_site_label
_atom_site_fract_x
_atom_site_fract_y
_atom_site_fract_z
Si Si1 0.665888 0.164974 0.025948
Si Si2 0.336467 0.009162 0.646649
Si Si3 0.160409 0.956155 0.581541
Si Si4 0.339808 0.833222 0.383437
Si Si5 0.839916 0.880765 0.448511
Si Si6 0.162388 0.084943 0.213902
Si Si7 0.657959 0.750000 0.715631
O O1 0.500000 0.157157 0.024823
O O2 0.715691 0.250000 0.034091
O O3 0.722758 0.112472 0.057939
O O4 0.723893 0.138928 0.987338
O O5 0.500000 0.993696 0.640531
O O6 0.253130 0.962681 0.616850
O O7 0.288996 0.978174 0.685335
O O8 0.299765 0.099151 0.644189
O O9 0.000000 0.942186 0.593271
O O10 0.172532 0.029747 0.556759
O O11 0.500000 0.843688 0.395374
O O12 0.316963 0.750000 0.365387
O O13 0.247215 0.836225 0.418871
O O14 0.000000 0.853132 0.445202
O O15 0.250000 0.073368 0.250000
O O16 0.187360 0.169315 0.195821
O O17 0.000000 0.073876 0.223772
O O18 0.500000 0.750000 0.729282
O O19 0.750000 0.750000 0.750000
#
# Coordination Sequence:
#
# PCOD8301790 Si02
#       7
#    16  16  16  16  16  16   8
#     4   9  16  26  41  61  86 114 146 184 223 262
#     4   9  18  32  47  65  90 118 145 174 215 264
#     4   9  17  29  44  62  85 114 149 183 217 260
#     4   9  17  29  45  65  89 116 146 181 219 259
#     4   9  16  27  45  65  83 109 147 190 228 259
#     4   9  17  30  49  70  91 114 142 176 212 253
#     4   8  14  26  44  66  88 108 134 170 208 242
#
# _framework density 16.501555
#
# number of rings (size 3 to 8) (size 9 to 14) (size 15 to 20)
#    0.000    3.077    0.000    0.923    0.000    3.385 
#    1.385    0.769    0.000    5.077    0.000    0.000 
#    0.000    0.000    0.000    0.000    0.000    0.000 
#
# Total GULP energy -644379.793858 kJ/mol
# GULP energy per Si atom -12391.919113 kJ/mol
# Density = 1.646400 g / cm^3
# Si number density = 16.501555 Si / 1000 Ang^3
#
#
#
# Elastic Constant Matrix: (Units=GPa)
#
#
# Indices 1 2 3 4 5 6 
#
# 1 38.0141 35.0154 35.9353 0.0000 0.0000 0.0000
# 2 35.0154 128.7300 78.9322 0.0000 0.0000 0.0000
# 3 35.9353 78.9322 104.6724 0.0000 0.0000 0.0000
# 4 0.0000 0.0000 0.0000 22.4559 0.0000 0.0000
# 5 0.0000 0.0000 0.0000 0.0000 22.5630 0.0000
# 6 0.0000 0.0000 0.0000 0.0000 0.0000 17.0039
#
#
#
# Elastic Compliance Matrix: (Units=1/GPa)
#
#
# Indices 1 2 3 4 5 6 
#
# 1 0.040369 -0.004618 -0.010377 0.000000 0.000000 0.000000
# 2 -0.004618 0.014977 -0.009709 0.000000 0.000000 0.000000
# 3 -0.010377 -0.009709 0.020437 0.000000 0.000000 0.000000
# 4 0.000000 0.000000 0.000000 0.044532 0.000000 0.000000
# 5 0.000000 0.000000 0.000000 0.000000 0.044320 0.000000
# 6 0.000000 0.000000 0.000000 0.000000 0.000000 0.058810
#
#
# Mechanical properties :
#
#
# Convention : Reuss Voigt Hill
#
# Bulk Modulus (GPa) = 37.91243 63.46470 50.68856
# Shear Modulus (GPa) = 17.75280 20.50680 19.12980
#
# Velocity S-wave (km/s) = 3.28354 3.52905 3.40850
# Velocity P-wave (km/s) = 6.11559 7.42623 6.80255
#
# Compressibility (1/GPa) = 0.02637658
#
# Stress axis : x y z
#
# Youngs Moduli (GPa) = 24.77142 66.76710 48.92979
#
# Poissons Ratio (x) = 0.30833 0.50773
# Poissons Ratio (y) = 0.11440 0.47505
# Poissons Ratio (z) = 0.25705 0.64823
#
# Static dielectric constant tensor:
#      x y z
#    x 2.994280 0.000000 0.000000 
#    y 0.000000 3.536180 0.000000 
#    z 0.000000 0.000000 2.720360 
# 
# 
# High freq. dielectric constant tensor:
#      x y z
#    x 1.619150 0.000000 0.000000 
#    y 0.000000 1.649350 0.000000 
#    z 0.000000 0.000000 1.604490 
# 
# From -- ./inp_files/66176.got.cif
#   From: 2010.03.12/outbox.cif.g09.slc.cpg/sg74_34_cif.got.tgz:66176.got - 2010.04.16 15:46:19.
