data_PCOD8301921
_publ_section_title
;
Structure prediction by ZEFSAII (Michael W. Deem and Ramdas Pophale) SiO2 
 PCOD8301921
Probable space group: P 41
;
_chemical_formula_sum "Si O2"
_cell_formula_units_Z 28
_cell_length_a 8.187780
_cell_length_b 8.187780
_cell_length_c 18.988137
_cell_angle_alpha 90.000000
_cell_angle_beta 90.000000
_cell_angle_gamma 90.000000
_cell_volume 1272.959793
_symmetry_space_group_name_H-M "P 41"
_symmetry_group_IT_number 76
_symmetry_cell_setting 'tetragonal'
loop_
_space_group_symop_operation_xyz
x,y,z
-y,x,1/4+z
-x,-y,1/2+z
y,-x,3/4+z
loop_
_atom_site_type_symbol
_atom_site_label
_atom_site_fract_x
_atom_site_fract_y
_atom_site_fract_z
Si Si1 0.762449 0.945915 0.491540
Si Si2 0.751519 0.724342 0.274506
Si Si3 0.367164 0.412328 0.515210
Si Si4 0.386707 0.346884 0.053759
Si Si5 0.878030 0.700650 0.125158
Si Si6 0.492261 0.839462 0.916773
Si Si7 0.984275 0.050500 0.104461
O O1 0.699949 0.756951 0.490822
O O2 0.908333 0.985635 0.437212
O O3 0.835451 0.965180 0.570527
O O4 0.612868 0.067579 0.476444
O O5 0.567627 0.745026 0.241830
O O6 0.751077 0.557166 0.322077
O O7 0.872274 0.706655 0.209300
O O8 0.802034 0.880753 0.319900
O O9 0.555747 0.473307 0.526676
O O10 0.288557 0.360160 0.589683
O O11 0.371495 0.271138 0.456487
O O12 0.269611 0.367578 0.120859
O O13 0.035114 0.582559 0.113151
O O14 0.900742 0.877815 0.091709
#
# Coordination Sequence:
#
# PCOD8301921 Si02
#       7
#     4   4   4   4   4   4   4
#     4  12  25  45  69 101 146 186 238 299 364 447
#     4  10  23  45  67 100 136 186 234 289 358 429
#     4  10  25  42  71 100 136 186 238 289 368 429
#     4  10  25  42  71  98 137 189 235 302 362 427
#     4  12  24  44  69  99 146 182 234 296 360 438
#     4  12  24  46  70 106 147 183 248 308 360 443
#     4  12  26  44  71 104 140 190 237 287 374 441
#
# _framework density 21.995984
#
# number of rings (size 3 to 8) (size 9 to 14) (size 15 to 20)
#    0.857    0.000    4.286    2.571    4.000    0.000 
#    0.000    1.429    0.000    0.000    0.000    0.000 
#    0.000    0.000    0.000    0.000    0.000    0.000 
#
# Total GULP energy -346892.418727 kJ/mol
# GULP energy per Si atom -12389.014955 kJ/mol
# Density = 2.194592 g / cm^3
# Si number density = 21.995984 Si / 1000 Ang^3
#
#
#
# Elastic Constant Matrix: (Units=GPa)
#
#
# Indices 1 2 3 4 5 6 
#
# 1 105.9436 42.4196 31.6581 0.0000 0.0000 -3.9385
# 2 42.4196 105.9436 31.6581 0.0000 0.0000 3.9385
# 3 31.6581 31.6581 65.8289 0.0000 0.0000 0.0000
# 4 0.0000 0.0000 0.0000 39.1271 0.0000 0.0000
# 5 0.0000 0.0000 0.0000 0.0000 39.1271 0.0000
# 6 -3.9385 3.9385 0.0000 0.0000 0.0000 27.2048
#
#
#
# Elastic Compliance Matrix: (Units=1/GPa)
#
#
# Indices 1 2 3 4 5 6 
#
# 1 0.012255 -0.003775 -0.004079 0.000000 0.000000 0.002321
# 2 -0.003775 0.012255 -0.004079 0.000000 0.000000 -0.002321
# 3 -0.004079 -0.004079 0.019114 0.000000 0.000000 0.000000
# 4 0.000000 0.000000 0.000000 0.025558 0.000000 0.000000
# 5 0.000000 0.000000 0.000000 0.000000 0.025558 0.000000
# 6 0.002321 -0.002321 0.000000 0.000000 0.000000 0.037430
#
#
# Mechanical properties :
#
#
# Convention : Reuss Voigt Hill
#
# Bulk Modulus (GPa) = 50.60427 54.35419 52.47923
# Shear Modulus (GPa) = 30.74646 32.55714 31.65180
#
# Velocity S-wave (km/s) = 3.74280 3.85143 3.79751
# Velocity P-wave (km/s) = 6.46020 6.67403 6.56798
#
# Compressibility (1/GPa) = 0.01976118
#
# Stress axis : x y z
#
# Youngs Moduli (GPa) = 81.59723 81.59723 52.31833
#
# Poissons Ratio (x) = 0.30799 0.21338
# Poissons Ratio (y) = 0.30799 0.21338
# Poissons Ratio (z) = 0.33280 0.33280
#
# Static dielectric constant tensor:
#      x y z
#    x 4.005630 0.000000 0.000000 
#    y 0.000000 4.005630 0.000000 
#    z 0.000000 0.000000 3.586380 
# 
# 
# High freq. dielectric constant tensor:
#      x y z
#    x 1.867320 0.000000 0.000000 
#    y 0.000000 1.867320 0.000000 
#    z 0.000000 0.000000 1.837280 
# 
# From -- ./inp_files/1309.got.cif
#   From: 2010.03.12/outbox.cif.g09.slc.cpg/sg76_cif.got.tgz:1309.got - 2010.04.16 16:34:25.
