data_PCOD8301368
_publ_section_title
;
Structure prediction by ZEFSAII (Michael W. Deem and Ramdas Pophale) SiO2 
 PCOD8301368
Probable space group: I M M A
;
_chemical_formula_sum "Si O2"
_cell_formula_units_Z 48
_cell_length_a 10.118582
_cell_length_b 20.197618
_cell_length_c 10.982234
_cell_angle_alpha 90.000000
_cell_angle_beta 90.000000
_cell_angle_gamma 90.000000
_cell_volume 2244.452934
_symmetry_space_group_name_H-M "I M M A"
_symmetry_group_IT_number 74
_symmetry_cell_setting 'orthorhombic'
loop_
_space_group_symop_operation_xyz
x,y,z
-x,1/2-y,z
x,-y,-z
-x,1/2+y,-z
-x,-y,-z
x,1/2+y,-z
-x,y,z
x,1/2-y,z
1/2+x,1/2+y,1/2+z
1/2-x,-y,1/2+z
1/2+x,1/2-y,1/2-z
1/2-x,y,1/2-z
1/2-x,1/2-y,1/2-z
1/2+x,y,1/2-z
1/2-x,1/2+y,1/2+z
1/2+x,-y,1/2+z
loop_
_atom_site_type_symbol
_atom_site_label
_atom_site_fract_x
_atom_site_fract_y
_atom_site_fract_z
Si Si1 0.000000 0.866466 0.112054
Si Si2 0.250000 0.910587 0.750000
Si Si3 0.239074 0.670951 0.518548
Si Si4 0.000000 0.510139 0.853351
Si Si5 0.000000 0.822823 0.366901
O O1 0.000000 0.813711 0.221076
O O2 0.000000 0.934302 0.191273
O O3 0.877810 0.859029 0.022202
O O4 0.195824 0.862070 0.645206
O O5 0.369012 0.954967 0.697867
O O6 0.249989 0.750000 0.531700
O O7 0.134033 0.644827 0.418251
O O8 0.000000 0.500000 0.000000
O O9 0.000000 0.750000 0.425164
#
# Coordination Sequence:
#
# PCOD8301368 Si02
#       5
#     8   8  16   8   8
#     4  12  24  42  66  98 136 182 225 276 346 406
#     4  12  25  46  70  98 141 182 232 288 346 414
#     4  11  23  42  69 100 134 176 230 288 346 406
#     4  12  27  46  66  98 139 182 229 277 338 420
#     4  10  23  40  64 100 133 171 224 279 341 408
#
# _framework density 21.386057000000001
#
# number of rings (size 3 to 8) (size 9 to 14) (size 15 to 20)
#    0.000    0.667    3.333    4.000    4.667    2.667 
#    0.000    7.500    0.000    0.000    0.000    0.000 
#    0.000    0.000    0.000    0.000    0.000    0.000 
#
# Total GULP energy -297491.590665 kJ/mol
# GULP energy per Si atom -12395.482944 kJ/mol
# Density = 2.133738 g / cm^3
# Si number density = 21.386057 Si / 1000 Ang^3
#
#
#
# Elastic Constant Matrix: (Units=GPa)
#
#
# Indices 1 2 3 4 5 6 
#
# 1 155.5477 40.1074 57.8497 0.0002 0.0000 0.0000
# 2 40.1074 111.2691 34.4449 0.0011 0.0000 -0.0002
# 3 57.8497 34.4449 144.6208 0.0005 0.0001 -0.0001
# 4 0.0002 0.0011 0.0005 43.4995 0.0000 -0.0001
# 5 0.0000 0.0000 0.0001 0.0000 37.9485 0.0000
# 6 0.0000 -0.0002 -0.0001 -0.0001 0.0000 19.0547
#
#
#
# Elastic Compliance Matrix: (Units=1/GPa)
#
#
# Indices 1 2 3 4 5 6 
#
# 1 0.007957 -0.002033 -0.002699 0.000000 0.000000 0.000000
# 2 -0.002033 0.010222 -0.001622 0.000000 0.000000 0.000000
# 3 -0.002699 -0.001622 0.008380 0.000000 0.000000 0.000000
# 4 0.000000 0.000000 0.000000 0.022989 0.000000 0.000000
# 5 0.000000 0.000000 0.000000 0.000000 0.026352 0.000000
# 6 0.000000 0.000000 0.000000 0.000000 0.000000 0.052481
#
#
# Mechanical properties :
#
#
# Convention : Reuss Voigt Hill
#
# Bulk Modulus (GPa) = 72.18488 75.13795 73.66141
# Shear Modulus (GPa) = 34.31639 38.70289 36.50964
#
# Velocity S-wave (km/s) = 4.01011 4.25870 4.13627
# Velocity P-wave (km/s) = 7.43423 7.70665 7.57167
#
# Compressibility (1/GPa) = 0.01385332
#
# Stress axis : x y z
#
# Youngs Moduli (GPa) = 125.68121 97.82968 119.32732
#
# Poissons Ratio (x) = 0.19885 0.32202
# Poissons Ratio (y) = 0.25546 0.19349
# Poissons Ratio (z) = 0.33917 0.15863
#
# Static dielectric constant tensor:
#      x y z
#    x 3.963110 0.000000 0.000000 
#    y 0.000000 4.294830 0.000000 
#    z 0.000000 0.000000 3.826740 
# 
# 
# High freq. dielectric constant tensor:
#      x y z
#    x 1.850820 0.000000 0.000000 
#    y 0.000000 1.845290 0.000000 
#    z 0.000000 0.000000 1.849420 
# 
# From -- ./inp_files/17106.got.cif
#   From: 2010.03.12/outbox.cif.g09.slc.cpg/sg74_9_cif.got.tgz:17106.got - 2010.04.16 15:46:19.
