data_PCOD8301671
_publ_section_title
;
Structure prediction by ZEFSAII (Michael W. Deem and Ramdas Pophale) SiO2 
 PCOD8301671
Probable space group: I M M A
;
_chemical_formula_sum "Si O2"
_cell_formula_units_Z 96
_cell_length_a 29.667268
_cell_length_b 18.727848
_cell_length_c 8.574760
_cell_angle_alpha 90.000000
_cell_angle_beta 90.000000
_cell_angle_gamma 90.000000
_cell_volume 4764.171690
_symmetry_space_group_name_H-M "I M M A"
_symmetry_group_IT_number 74
_symmetry_cell_setting 'orthorhombic'
loop_
_space_group_symop_operation_xyz
x,y,z
-x,1/2-y,z
x,-y,-z
-x,1/2+y,-z
-x,-y,-z
x,1/2+y,-z
-x,y,z
x,1/2-y,z
1/2+x,1/2+y,1/2+z
1/2-x,-y,1/2+z
1/2+x,1/2-y,1/2-z
1/2-x,y,1/2-z
1/2-x,1/2-y,1/2-z
1/2+x,y,1/2-z
1/2-x,1/2+y,1/2+z
1/2+x,-y,1/2+z
loop_
_atom_site_type_symbol
_atom_site_label
_atom_site_fract_x
_atom_site_fract_y
_atom_site_fract_z
Si Si1 0.549473 0.833857 0.307208
Si Si2 0.626626 0.572063 0.808910
Si Si3 0.205818 0.829410 0.150443
Si Si4 0.786224 0.568008 0.886502
Si Si5 0.052468 0.667401 0.838707
Si Si6 0.129499 0.408687 0.658869
O O1 0.500000 0.866139 0.269821
O O2 0.547024 0.750000 0.290124
O O3 0.563594 0.853986 0.483284
O O4 0.585008 0.862348 0.183442
O O5 0.665413 0.585200 0.684978
O O6 0.582207 0.617300 0.770975
O O7 0.614971 0.488784 0.800685
O O8 0.644631 0.596101 0.978982
O O9 0.184616 0.750000 0.126536
O O10 0.250000 0.822324 0.250000
O O11 0.169957 0.881918 0.231721
O O12 0.223093 0.861422 0.987087
O O13 0.750000 0.556048 0.750000
O O14 0.785725 0.500000 0.000000
O O15 0.064857 0.750000 0.807576
O O16 0.000000 0.654034 0.801252
#
# Coordination Sequence:
#
# PCOD8301671 Si02
#       6
#    16  16  16  16  16  16
#     4   9  19  37  61  86 116 161 210 254 312 382
#     4  11  25  38  61  93 126 164 215 261 315 382
#     4  11  24  43  66  93 126 164 209 260 321 383
#     4  12  25  42  69  93 126 167 215 262 323 383
#     4   9  20  40  64  92 127 167 213 267 324 379
#     4  11  23  40  58  88 128 166 206 261 318 376
#
# _framework density 20.150407000000001
#
# number of rings (size 3 to 8) (size 9 to 14) (size 15 to 20)
#    0.000    1.500    1.667    4.000    2.333    5.000 
#    0.000    5.000    0.000    0.000    0.000    0.000 
#    0.000    0.000    0.000    0.000    0.000    0.000 
#
# Total GULP energy -595198.955169 kJ/mol
# GULP energy per Si atom -12399.978233 kJ/mol
# Density = 2.010454 g / cm^3
# Si number density = 20.150407 Si / 1000 Ang^3
#
#
#
# Elastic Constant Matrix: (Units=GPa)
#
#
# Indices 1 2 3 4 5 6 
#
# 1 94.3234 43.2949 41.7721 0.0000 0.0000 0.0000
# 2 43.2949 90.1036 58.2661 0.0000 0.0000 0.0000
# 3 41.7721 58.2661 106.4502 0.0000 0.0000 0.0000
# 4 0.0000 0.0000 0.0000 30.3906 0.0000 0.0000
# 5 0.0000 0.0000 0.0000 0.0000 -14.7974 0.0000
# 6 0.0000 0.0000 0.0000 0.0000 0.0000 31.7901
#
#
#
# Elastic Compliance Matrix: (Units=1/GPa)
#
#
# Indices 1 2 3 4 5 6 
#
# 1 0.014132 -0.004960 -0.002831 0.000000 0.000000 0.000000
# 2 -0.004960 0.018920 -0.008409 0.000000 0.000000 0.000000
# 3 -0.002831 -0.008409 0.015108 0.000000 0.000000 0.000000
# 4 0.000000 0.000000 0.000000 0.032905 0.000000 0.000000
# 5 0.000000 0.000000 0.000000 0.000000 -0.067579 0.000000
# 6 0.000000 0.000000 0.000000 0.000000 0.000000 0.031456
#
#
# Mechanical properties :
#
#
# Convention : Reuss Voigt Hill
#
# Bulk Modulus (GPa) = 63.45457 64.17150 63.81304
# Shear Modulus (GPa) = 60.53644 19.31291 39.92468
#
# Velocity S-wave (km/s) = 5.48703 3.09922 4.45605
# Velocity P-wave (km/s) = 8.46771 6.68747 7.62969
#
# Compressibility (1/GPa) = 0.01575931
#
# Stress axis : x y z
#
# Youngs Moduli (GPa) = 70.76099 52.85517 66.19096
#
# Poissons Ratio (x) = 0.26216 0.18737
# Poissons Ratio (y) = 0.35097 0.55663
# Poissons Ratio (z) = 0.20030 0.44448
#
# Static dielectric constant tensor:
#      x y z
#    x 3.686420 0.000000 0.000000 
#    y 0.000000 3.772130 0.000000 
#    z 0.000000 0.000000 3.865420 
# 
# 
# High freq. dielectric constant tensor:
#      x y z
#    x 1.791980 0.000000 0.000000 
#    y 0.000000 1.788320 0.000000 
#    z 0.000000 0.000000 1.791500 
# 
# From -- ./inp_files/15136.got.cif
#   From: 2010.03.12/outbox.cif.g09.slc.cpg/sg74_8_cif.got.tgz:15136.got - 2010.04.16 15:46:19.
