data_PCOD8301511
_publ_section_title
;
Structure prediction by ZEFSAII (Michael W. Deem and Ramdas Pophale) SiO2 
 PCOD8301511
Probable space group: I M M A
;
_chemical_formula_sum "Si O2"
_cell_formula_units_Z 80
_cell_length_a 9.861679
_cell_length_b 22.090305
_cell_length_c 22.556864
_cell_angle_alpha 90.000000
_cell_angle_beta 90.000000
_cell_angle_gamma 90.000000
_cell_volume 4913.956361
_symmetry_space_group_name_H-M "I M M A"
_symmetry_group_IT_number 74
_symmetry_cell_setting 'orthorhombic'
loop_
_space_group_symop_operation_xyz
x,y,z
-x,1/2-y,z
x,-y,-z
-x,1/2+y,-z
-x,-y,-z
x,1/2+y,-z
-x,y,z
x,1/2-y,z
1/2+x,1/2+y,1/2+z
1/2-x,-y,1/2+z
1/2+x,1/2-y,1/2-z
1/2-x,y,1/2-z
1/2-x,1/2-y,1/2-z
1/2+x,y,1/2-z
1/2-x,1/2+y,1/2+z
1/2+x,-y,1/2+z
loop_
_atom_site_type_symbol
_atom_site_label
_atom_site_fract_x
_atom_site_fract_y
_atom_site_fract_z
Si Si1 0.000000 0.319753 0.863964
Si Si2 0.250000 0.533610 0.250000
Si Si3 0.246100 0.378858 0.575658
Si Si4 0.153162 0.062111 0.035913
Si Si5 0.840438 0.993126 0.627642
Si Si6 0.500000 0.681600 0.124555
Si Si7 0.000000 0.117802 0.749775
O O1 0.872199 0.355924 0.887320
O O2 0.000000 0.323396 0.792273
O O3 0.000000 0.250000 0.884113
O O4 0.208401 0.490332 0.304430
O O5 0.372556 0.577208 0.266745
O O6 0.288491 0.385564 0.506961
O O7 0.188590 0.441101 0.601422
O O8 0.129408 0.329044 0.582796
O O9 0.000000 0.078387 0.056840
O O10 0.253372 0.056904 0.092006
O O11 0.149746 0.000000 0.000000
O O12 0.000000 0.978161 0.622213
O O13 0.500000 0.750000 0.147991
O O14 0.500000 0.637117 0.181287
#
# Coordination Sequence:
#
# PCOD8301511 Si02
#       7
#     8   8  16  16  16   8   8
#     4  12  23  34  52  71  93 135 183 224 257 290
#     4  12  20  32  51  70 104 134 169 210 254 296
#     4  11  20  36  50  69  99 127 167 221 262 303
#     4   9  20  32  52  74  92 121 163 210 261 316
#     4  11  21  33  51  75  97 130 168 204 257 311
#     4  12  23  36  50  71  99 137 185 224 259 290
#     4  12  21  36  48  66  98 142 178 224 255 282
#
# _framework density 16.280161
#
# number of rings (size 3 to 8) (size 9 to 14) (size 15 to 20)
#    0.000    1.000    7.000    0.900    4.200    1.200 
#    0.000    3.000    0.000    0.000    0.000    0.000 
#    0.000    0.000    0.000    5.400    0.000    0.000 
#
# Total GULP energy -495971.057741 kJ/mol
# GULP energy per Si atom -12399.276444 kJ/mol
# Density = 1.624311 g / cm^3
# Si number density = 16.280161 Si / 1000 Ang^3
#
#
#
# Elastic Constant Matrix: (Units=GPa)
#
#
# Indices 1 2 3 4 5 6 
#
# 1 157.9898 27.2316 57.5083 0.0000 0.0000 0.0000
# 2 27.2316 31.6397 34.5920 0.0000 0.0000 0.0000
# 3 57.5083 34.5920 103.0466 0.0000 0.0000 0.0000
# 4 0.0000 0.0000 0.0000 18.2331 0.0000 0.0000
# 5 0.0000 0.0000 0.0000 0.0000 29.3689 0.0000
# 6 0.0000 0.0000 0.0000 0.0000 0.0000 12.7652
#
#
#
# Elastic Compliance Matrix: (Units=1/GPa)
#
#
# Indices 1 2 3 4 5 6 
#
# 1 0.008146 -0.003224 -0.003464 0.000000 0.000000 0.000000
# 2 -0.003224 0.051208 -0.015391 0.000000 0.000000 0.000000
# 3 -0.003464 -0.015391 0.016804 0.000000 0.000000 0.000000
# 4 0.000000 0.000000 0.000000 0.054845 0.000000 0.000000
# 5 0.000000 0.000000 0.000000 0.000000 0.034050 0.000000
# 6 0.000000 0.000000 0.000000 0.000000 0.000000 0.078338
#
#
# Mechanical properties :
#
#
# Convention : Reuss Voigt Hill
#
# Bulk Modulus (GPa) = 31.24963 59.03776 45.14370
# Shear Modulus (GPa) = 16.76644 23.62971 20.19807
#
# Velocity S-wave (km/s) = 3.21264 3.81391 3.52612
# Velocity P-wave (km/s) = 5.74439 7.46572 6.66089
#
# Compressibility (1/GPa) = 0.03200038
#
# Stress axis : x y z
#
# Youngs Moduli (GPa) = 122.75836 19.52834 59.50958
#
# Poissons Ratio (x) = 0.06296 0.20613
# Poissons Ratio (y) = 0.39578 0.91590
# Poissons Ratio (z) = 0.42522 0.30056
#
# Static dielectric constant tensor:
#      x y z
#    x 3.346370 0.000000 0.000000 
#    y 0.000000 2.707990 0.000000 
#    z 0.000000 0.000000 3.192710 
# 
# 
# High freq. dielectric constant tensor:
#      x y z
#    x 1.655890 0.000000 0.000000 
#    y 0.000000 1.568800 0.000000 
#    z 0.000000 0.000000 1.617670 
# 
# From -- ./inp_files/48664.got.cif
#   From: 2010.03.12/outbox.cif.g09.slc.cpg/sg74_25_cif.got.tgz:48664.got - 2010.04.16 15:46:19.
