data_PCOD8301607
_publ_section_title
;
Structure prediction by ZEFSAII (Michael W. Deem and Ramdas Pophale) SiO2 
 PCOD8301607
Probable space group: I M M A
;
_chemical_formula_sum "Si O2"
_cell_formula_units_Z 112
_cell_length_a 27.859198
_cell_length_b 15.525775
_cell_length_c 14.196442
_cell_angle_alpha 90.000000
_cell_angle_beta 90.000000
_cell_angle_gamma 90.000000
_cell_volume 6140.467124
_symmetry_space_group_name_H-M "I M M A"
_symmetry_group_IT_number 74
_symmetry_cell_setting 'orthorhombic'
loop_
_space_group_symop_operation_xyz
x,y,z
-x,1/2-y,z
x,-y,-z
-x,1/2+y,-z
-x,-y,-z
x,1/2+y,-z
-x,y,z
x,1/2-y,z
1/2+x,1/2+y,1/2+z
1/2-x,-y,1/2+z
1/2+x,1/2-y,1/2-z
1/2-x,y,1/2-z
1/2-x,1/2-y,1/2-z
1/2+x,y,1/2-z
1/2-x,1/2+y,1/2+z
1/2+x,-y,1/2+z
loop_
_atom_site_type_symbol
_atom_site_label
_atom_site_fract_x
_atom_site_fract_y
_atom_site_fract_z
Si Si1 0.775627 0.349818 0.008162
Si Si2 0.828577 0.600141 0.499309
Si Si3 0.125178 0.153292 0.679783
Si Si4 0.611261 0.655476 0.835212
Si Si5 0.699539 0.107434 0.291236
Si Si6 0.444260 0.005961 0.888266
Si Si7 0.203308 0.591903 0.195525
O O1 0.774142 0.250000 0.981410
O O2 0.792867 0.402123 0.917099
O O3 0.724129 0.385945 0.040098
O O4 0.808328 0.367708 0.099180
O O5 0.842306 0.500000 0.500000
O O6 0.831961 0.638558 0.395072
O O7 0.866127 0.652230 0.561377
O O8 0.104170 0.250000 0.676934
O O9 0.082227 0.087574 0.658209
O O10 0.153234 0.138798 0.777872
O O11 0.587056 0.750000 0.822118
O O12 0.653597 0.646703 0.759845
O O13 0.571634 0.579924 0.831178
O O14 0.750000 0.145280 0.250000
O O15 0.698261 0.006286 0.273211
O O16 0.500000 0.020031 0.869701
O O17 0.433280 0.000000 0.000000
O O18 0.250000 0.631157 0.250000
#
# Coordination Sequence:
#
# PCOD8301607 Si02
#       7
#    16  16  16  16  16  16  16
#     4  12  24  34  50  84 119 157 204 240 272 326
#     4  12  20  34  52  78 118 160 197 231 277 335
#     4  12  22  37  59  84 114 156 197 234 285 342
#     4  12  22  37  59  84 114 156 197 234 285 342
#     4  11  22  36  55  80 116 161 198 232 279 334
#     4  11  24  42  61  85 117 149 189 244 297 347
#     4  11  22  36  55  80 116 161 198 232 279 334
#
# _framework density 18.239654000000002
#
# number of rings (size 3 to 8) (size 9 to 14) (size 15 to 20)
#    0.000    0.429    7.143    3.429    0.000    1.714 
#    0.000    1.429    0.000    0.000    0.000    2.000 
#    0.000    3.429    0.000    0.000    0.000    0.000 
#
# Total GULP energy -694396.958155 kJ/mol
# GULP energy per Si atom -12399.945681 kJ/mol
# Density = 1.819814 g / cm^3
# Si number density = 18.239654 Si / 1000 Ang^3
#
#
#
# Elastic Constant Matrix: (Units=GPa)
#
#
# Indices 1 2 3 4 5 6 
#
# 1 90.4519 41.0283 17.4499 0.0000 0.0000 0.0000
# 2 41.0283 133.6062 10.7254 0.0000 0.0000 0.0000
# 3 17.4499 10.7254 62.3915 0.0000 0.0000 0.0000
# 4 0.0000 0.0000 0.0000 23.4037 0.0000 0.0000
# 5 0.0000 0.0000 0.0000 0.0000 21.0328 0.0000
# 6 0.0000 0.0000 0.0000 0.0000 0.0000 4.2024
#
#
#
# Elastic Compliance Matrix: (Units=1/GPa)
#
#
# Indices 1 2 3 4 5 6 
#
# 1 0.013406 -0.003869 -0.003084 0.000000 0.000000 0.000000
# 2 -0.003869 0.008706 -0.000415 0.000000 0.000000 0.000000
# 3 -0.003084 -0.000415 0.016962 0.000000 0.000000 0.000000
# 4 0.000000 0.000000 0.000000 0.042728 0.000000 0.000000
# 5 0.000000 0.000000 0.000000 0.000000 0.047545 0.000000
# 6 0.000000 0.000000 0.000000 0.000000 0.000000 0.237960
#
#
# Mechanical properties :
#
#
# Convention : Reuss Voigt Hill
#
# Bulk Modulus (GPa) = 41.08836 47.20632 44.14734
# Shear Modulus (GPa) = 12.81544 24.21085 18.51315
#
# Velocity S-wave (km/s) = 2.65356 3.64727 3.18935
# Velocity P-wave (km/s) = 5.65370 6.60864 6.14973
#
# Compressibility (1/GPa) = 0.02433779
#
# Stress axis : x y z
#
# Youngs Moduli (GPa) = 74.59578 114.86219 58.95643
#
# Poissons Ratio (x) = 0.44441 0.18183
# Poissons Ratio (y) = 0.28862 0.02444
# Poissons Ratio (z) = 0.23007 0.04761
#
# Static dielectric constant tensor:
#      x y z
#    x 3.079850 0.000000 0.000000 
#    y 0.000000 3.480720 0.000000 
#    z 0.000000 0.000000 3.290410 
# 
# 
# High freq. dielectric constant tensor:
#      x y z
#    x 1.668220 0.000000 0.000000 
#    y 0.000000 1.723100 0.000000 
#    z 0.000000 0.000000 1.697730 
# 
# From -- ./inp_files/32934.got.cif
#   From: 2010.03.12/outbox.cif.g09.slc.cpg/sg74_17_cif.got.tgz:32934.got - 2010.04.16 15:46:19.
