data_PCOD8301178
_publ_section_title
;
Structure prediction by ZEFSAII (Michael W. Deem and Ramdas Pophale) SiO2 
 PCOD8301178
Probable space group: I M M A
;
_chemical_formula_sum "Si O2"
_cell_formula_units_Z 120
_cell_length_a 21.888680
_cell_length_b 20.856029
_cell_length_c 12.089945
_cell_angle_alpha 90.000000
_cell_angle_beta 90.000000
_cell_angle_gamma 90.000000
_cell_volume 5519.192215
_symmetry_space_group_name_H-M "I M M A"
_symmetry_group_IT_number 74
_symmetry_cell_setting 'orthorhombic'
loop_
_space_group_symop_operation_xyz
x,y,z
-x,1/2-y,z
x,-y,-z
-x,1/2+y,-z
-x,-y,-z
x,1/2+y,-z
-x,y,z
x,1/2-y,z
1/2+x,1/2+y,1/2+z
1/2-x,-y,1/2+z
1/2+x,1/2-y,1/2-z
1/2-x,y,1/2-z
1/2-x,1/2-y,1/2-z
1/2+x,y,1/2-z
1/2-x,1/2+y,1/2+z
1/2+x,-y,1/2+z
loop_
_atom_site_type_symbol
_atom_site_label
_atom_site_fract_x
_atom_site_fract_y
_atom_site_fract_z
Si Si1 0.371824 0.927001 0.019206
Si Si2 0.431597 0.486038 0.372003
Si Si3 0.573073 0.391993 0.752860
Si Si4 0.731729 0.571117 0.514903
Si Si5 0.750000 0.627307 0.750000
Si Si6 0.646424 0.820431 0.422292
Si Si7 0.129013 0.680661 0.657906
Si Si8 0.929402 0.347553 0.128886
O O1 0.406321 0.893982 0.120844
O O2 0.299367 0.929055 0.037799
O O3 0.388207 0.879907 0.917785
O O4 0.396309 0.000000 0.000000
O O5 0.431886 0.500000 0.500000
O O6 0.500000 0.479389 0.325289
O O7 0.400792 0.543014 0.303590
O O8 0.397916 0.418110 0.355224
O O9 0.500000 0.383703 0.742671
O O10 0.606456 0.335033 0.687067
O O11 0.701730 0.500000 0.500000
O O12 0.732164 0.583398 0.645823
O O13 0.696855 0.625388 0.445306
O O14 0.805411 0.672824 0.715448
O O15 0.677050 0.750000 0.404664
O O16 0.602508 0.812657 0.527569
O O17 0.128929 0.750000 0.594544
O O18 0.079262 0.688237 0.755425
O O19 0.000000 0.353023 0.096506
#
# Coordination Sequence:
#
# PCOD8301178 Si02
#       8
#    16  16  16  16   8  16  16  16
#     4  10  24  46  68  97 132 172 227 283 335 400
#     4   9  17  33  58  91 123 160 207 258 310 380
#     4  11  24  42  67  95 135 182 222 269 338 411
#     4  10  24  42  68  98 130 176 226 283 341 402
#     4  10  21  42  66  94 131 166 214 274 343 400
#     4  12  26  41  63  97 136 179 224 276 336 402
#     4  11  23  39  64  93 124 170 220 272 325 392
#     4  11  22  37  61  96 135 167 209 269 333 390
#
# _framework density 21.742311999999998
#
# number of rings (size 3 to 8) (size 9 to 14) (size 15 to 20)
#    0.000    1.467    2.667    1.800    1.867    9.067 
#    0.000    0.667    0.000    0.000    0.000    0.000 
#    0.000    0.000    0.000    0.000    0.000    0.000 
#
# Total GULP energy -743790.396887 kJ/mol
# GULP energy per Si atom -12396.506615 kJ/mol
# Density = 2.169283 g / cm^3
# Si number density = 21.742312 Si / 1000 Ang^3
#
#
#
# Elastic Constant Matrix: (Units=GPa)
#
#
# Indices 1 2 3 4 5 6 
#
# 1 50.6127 23.6816 23.0118 0.0000 0.0000 0.0000
# 2 23.6816 170.1563 41.7503 0.0000 0.0000 0.0000
# 3 23.0118 41.7503 112.5620 0.0000 0.0000 0.0000
# 4 0.0000 0.0000 0.0000 19.0224 0.0000 0.0000
# 5 0.0000 0.0000 0.0000 0.0000 32.2260 0.0000
# 6 0.0000 0.0000 0.0000 0.0000 0.0000 11.4290
#
#
#
# Elastic Compliance Matrix: (Units=1/GPa)
#
#
# Indices 1 2 3 4 5 6 
#
# 1 0.022510 -0.002204 -0.003784 0.000000 0.000000 0.000000
# 2 -0.002204 0.006681 -0.002027 0.000000 0.000000 0.000000
# 3 -0.003784 -0.002027 0.010410 0.000000 0.000000 0.000000
# 4 0.000000 0.000000 0.000000 0.052570 0.000000 0.000000
# 5 0.000000 0.000000 0.000000 0.000000 0.031031 0.000000
# 6 0.000000 0.000000 0.000000 0.000000 0.000000 0.087497
#
#
# Mechanical properties :
#
#
# Convention : Reuss Voigt Hill
#
# Bulk Modulus (GPa) = 42.42928 56.69094 49.56011
# Shear Modulus (GPa) = 21.31412 28.86128 25.08770
#
# Velocity S-wave (km/s) = 3.13438 3.64734 3.40054
# Velocity P-wave (km/s) = 5.71455 6.62330 6.18563
#
# Compressibility (1/GPa) = 0.02356863
#
# Stress axis : x y z
#
# Youngs Moduli (GPa) = 44.42504 149.67357 96.06477
#
# Poissons Ratio (x) = 0.32993 0.36353
# Poissons Ratio (y) = 0.09793 0.19477
# Poissons Ratio (z) = 0.16811 0.30346
#
# Static dielectric constant tensor:
#      x y z
#    x 3.886700 0.000000 0.000000 
#    y 0.000000 4.131730 0.000000 
#    z 0.000000 0.000000 3.692220 
# 
# 
# High freq. dielectric constant tensor:
#      x y z
#    x 1.845560 0.000000 0.000000 
#    y 0.000000 1.866110 0.000000 
#    z 0.000000 0.000000 1.841080 
# 
# From -- ./inp_files/25451.got.cif
#   From: 2010.03.12/outbox.cif.g09.slc.cpg/sg74_13_cif.got.tgz:25451.got - 2010.04.16 15:46:19.
