data_PCOD8301249
_publ_section_title
;
Structure prediction by ZEFSAII (Michael W. Deem and Ramdas Pophale) SiO2 
 PCOD8301249
Probable space group: I M M A
;
_chemical_formula_sum "Si O2"
_cell_formula_units_Z 80
_cell_length_a 9.961828
_cell_length_b 29.088497
_cell_length_c 16.310391
_cell_angle_alpha 90.000000
_cell_angle_beta 90.000000
_cell_angle_gamma 90.000000
_cell_volume 4726.337091
_symmetry_space_group_name_H-M "I M M A"
_symmetry_group_IT_number 74
_symmetry_cell_setting 'orthorhombic'
loop_
_space_group_symop_operation_xyz
x,y,z
-x,1/2-y,z
x,-y,-z
-x,1/2+y,-z
-x,-y,-z
x,1/2+y,-z
-x,y,z
x,1/2-y,z
1/2+x,1/2+y,1/2+z
1/2-x,-y,1/2+z
1/2+x,1/2-y,1/2-z
1/2-x,y,1/2-z
1/2-x,1/2-y,1/2-z
1/2+x,y,1/2-z
1/2-x,1/2+y,1/2+z
1/2+x,-y,1/2+z
loop_
_atom_site_type_symbol
_atom_site_label
_atom_site_fract_x
_atom_site_fract_y
_atom_site_fract_z
Si Si1 0.000000 0.968461 0.688924
Si Si2 0.215588 0.045158 0.444544
Si Si3 0.500000 0.924802 0.194011
Si Si4 0.500000 0.469365 0.373089
Si Si5 0.344308 0.302809 0.826907
Si Si6 0.281273 0.612960 0.078468
Si Si7 0.500000 0.421032 0.625799
O O1 0.133025 0.954863 0.639572
O O2 0.000000 0.947674 0.781004
O O3 0.000000 0.021740 0.704652
O O4 0.371511 0.048610 0.422309
O O5 0.167419 0.091463 0.492559
O O6 0.183618 0.000000 0.500000
O O7 0.637178 0.910465 0.151448
O O8 0.500000 0.901244 0.282544
O O9 0.500000 0.524191 0.375802
O O10 0.500000 0.312660 0.803900
O O11 0.322087 0.250000 0.851429
O O12 0.250000 0.316298 0.750000
O O13 0.302894 0.332311 0.908057
O O14 0.127502 0.598852 0.079875
#
# Coordination Sequence:
#
# PCOD8301249 Si02
#       7
#     8  16   8   8  16  16   8
#     4  11  22  34  52  70 101 144 178 215 258 310
#     4  12  21  35  50  75 106 135 177 225 263 305
#     4  11  19  31  46  72 101 133 181 213 250 308
#     4  11  22  38  50  70 105 148 182 211 260 312
#     4  10  22  39  56  77 107 141 178 219 264 317
#     4  12  22  32  51  74 102 137 176 221 264 302
#     4  11  21  31  48  72 103 141 179 215 248 312
#
# _framework density 16.926427
#
# number of rings (size 3 to 8) (size 9 to 14) (size 15 to 20)
#    0.000    0.800    5.000    4.200    1.400    3.200 
#    0.000    0.000    0.000    0.000    0.000    0.000 
#    0.000    4.800    0.000    0.000    0.000    0.000 
#
# Total GULP energy -495861.315213 kJ/mol
# GULP energy per Si atom -12396.532880 kJ/mol
# Density = 1.688790 g / cm^3
# Si number density = 16.926427 Si / 1000 Ang^3
#
#
#
# Elastic Constant Matrix: (Units=GPa)
#
#
# Indices 1 2 3 4 5 6 
#
# 1 85.4111 20.9145 9.1289 -0.0001 0.0000 0.0000
# 2 20.9145 87.8202 42.3158 -0.0002 0.0000 0.0000
# 3 9.1289 42.3158 73.5276 -0.0009 0.0002 0.0000
# 4 -0.0001 -0.0002 -0.0009 26.5652 0.0001 0.0000
# 5 0.0000 0.0000 0.0002 0.0001 50.6962 -0.0001
# 6 0.0000 0.0000 0.0000 0.0000 -0.0001 20.8691
#
#
#
# Elastic Compliance Matrix: (Units=1/GPa)
#
#
# Indices 1 2 3 4 5 6 
#
# 1 0.012436 -0.003069 0.000222 0.000000 0.000000 0.000000
# 2 -0.003069 0.016513 -0.009123 0.000000 0.000000 0.000000
# 3 0.000222 -0.009123 0.018823 0.000001 0.000000 0.000000
# 4 0.000000 0.000000 0.000001 0.037643 0.000000 0.000000
# 5 0.000000 0.000000 0.000000 0.000000 0.019725 0.000000
# 6 0.000000 0.000000 0.000000 0.000000 0.000000 0.047918
#
#
# Mechanical properties :
#
#
# Convention : Reuss Voigt Hill
#
# Bulk Modulus (GPa) = 41.95738 43.49747 42.72742
# Shear Modulus (GPa) = 27.03561 31.25274 29.14417
#
# Velocity S-wave (km/s) = 4.00089 4.30162 4.15398
# Velocity P-wave (km/s) = 6.79593 7.10111 6.95019
#
# Compressibility (1/GPa) = 0.02383371
#
# Stress axis : x y z
#
# Youngs Moduli (GPa) = 80.41333 60.55695 53.12674
#
# Poissons Ratio (x) = 0.18582 -0.01180
# Poissons Ratio (y) = 0.24675 0.48466
# Poissons Ratio (z) = -0.01785 0.55244
#
# Static dielectric constant tensor:
#      x y z
#    x 2.864460 0.000000 0.000000 
#    y 0.000000 3.170580 0.000000 
#    z 0.000000 0.000000 3.297510 
# 
# 
# High freq. dielectric constant tensor:
#      x y z
#    x 1.677180 0.000000 0.000000 
#    y 0.000000 1.616460 0.000000 
#    z 0.000000 0.000000 1.638830 
# 
# From -- ./inp_files/39854.got.cif
#   From: 2010.03.12/outbox.cif.g09.slc.cpg/sg74_20_cif.got.tgz:39854.got - 2010.04.16 15:46:19.
