data_PCOD8301666
_publ_section_title
;
Structure prediction by ZEFSAII (Michael W. Deem and Ramdas Pophale) SiO2 
 PCOD8301666
Probable space group: I M M A
;
_chemical_formula_sum "Si O2"
_cell_formula_units_Z 64
_cell_length_a 16.672157
_cell_length_b 24.169272
_cell_length_c 8.520016
_cell_angle_alpha 90.000000
_cell_angle_beta 90.000000
_cell_angle_gamma 90.000000
_cell_volume 3433.173653
_symmetry_space_group_name_H-M "I M M A"
_symmetry_group_IT_number 74
_symmetry_cell_setting 'orthorhombic'
loop_
_space_group_symop_operation_xyz
x,y,z
-x,1/2-y,z
x,-y,-z
-x,1/2+y,-z
-x,-y,-z
x,1/2+y,-z
-x,y,z
x,1/2-y,z
1/2+x,1/2+y,1/2+z
1/2-x,-y,1/2+z
1/2+x,1/2-y,1/2-z
1/2-x,y,1/2-z
1/2-x,1/2-y,1/2-z
1/2+x,y,1/2-z
1/2-x,1/2+y,1/2+z
1/2+x,-y,1/2+z
loop_
_atom_site_type_symbol
_atom_site_label
_atom_site_fract_x
_atom_site_fract_y
_atom_site_fract_z
Si Si1 0.410919 0.750000 0.087058
Si Si2 0.405981 0.870259 0.449805
Si Si3 0.732215 0.439230 0.431880
Si Si4 0.087842 0.750000 0.041265
Si Si5 0.324057 0.145108 0.857493
O O1 0.500000 0.750000 0.008677
O O2 0.420398 0.750000 0.272482
O O3 0.360694 0.804686 0.038776
O O4 0.500000 0.876999 0.484246
O O5 0.357572 0.915795 0.546836
O O6 0.372185 0.808908 0.505490
O O7 0.390999 0.878622 0.263009
O O8 0.737216 0.500000 0.500000
O O9 0.750000 0.440229 0.250000
O O10 0.797320 0.402379 0.523168
O O11 0.000000 0.750000 0.964642
O O12 0.250000 0.166195 0.750000
#
# Coordination Sequence:
#
# PCOD8301666 Si02
#       5
#     8  16  16   8  16
#     4   9  15  27  51  82 112 137 170 213 255 309
#     4   9  17  33  58  84 110 140 178 220 260 308
#     4  11  23  39  55  74 104 143 184 224 269 320
#     4   7  12  25  49  80 108 135 166 205 254 307
#     4   9  17  31  54  81 109 140 176 215 261 314
#
# _framework density 18.641642999999998
#
# number of rings (size 3 to 8) (size 9 to 14) (size 15 to 20)
#    0.000    2.750    0.000    4.875    0.000    3.500 
#    0.000    5.000    0.000    6.750    0.000    0.000 
#    0.000    0.000    0.000    0.000    0.000    0.000 
#
# Total GULP energy -396452.953411 kJ/mol
# GULP energy per Si atom -12389.154794 kJ/mol
# Density = 1.859921 g / cm^3
# Si number density = 18.641643 Si / 1000 Ang^3
#
#
#
# Elastic Constant Matrix: (Units=GPa)
#
#
# Indices 1 2 3 4 5 6 
#
# 1 102.6687 79.4105 40.3612 0.0000 0.0000 0.0000
# 2 79.4105 174.2678 63.0936 0.0000 0.0000 0.0000
# 3 40.3612 63.0936 84.4716 0.0000 0.0000 0.0000
# 4 0.0000 0.0000 0.0000 21.7030 0.0000 0.0000
# 5 0.0000 0.0000 0.0000 0.0000 33.5165 0.0000
# 6 0.0000 0.0000 0.0000 0.0000 0.0000 23.4939
#
#
#
# Elastic Compliance Matrix: (Units=1/GPa)
#
#
# Indices 1 2 3 4 5 6 
#
# 1 0.015553 -0.006026 -0.002930 0.000000 0.000000 0.000000
# 2 -0.006026 0.010200 -0.004739 0.000000 0.000000 0.000000
# 3 -0.002930 -0.004739 0.016778 0.000000 0.000000 0.000000
# 4 0.000000 0.000000 0.000000 0.046077 0.000000 0.000000
# 5 0.000000 0.000000 0.000000 0.000000 0.029836 0.000000
# 6 0.000000 0.000000 0.000000 0.000000 0.000000 0.042564
#
#
# Mechanical properties :
#
#
# Convention : Reuss Voigt Hill
#
# Bulk Modulus (GPa) = 66.05072 80.79319 73.42196
# Shear Modulus (GPa) = 25.84685 27.64553 26.74619
#
# Velocity S-wave (km/s) = 3.72763 3.85515 3.79193
# Velocity P-wave (km/s) = 7.35090 7.95302 7.65788
#
# Compressibility (1/GPa) = 0.01513988
#
# Stress axis : x y z
#
# Youngs Moduli (GPa) = 64.29544 98.03632 59.60081
#
# Poissons Ratio (x) = 0.59081 0.17464
# Poissons Ratio (y) = 0.38747 0.28247
# Poissons Ratio (z) = 0.18840 0.46463
#
# Static dielectric constant tensor:
#      x y z
#    x 3.596980 0.000000 0.000000 
#    y 0.000000 3.680170 0.000000 
#    z 0.000000 0.000000 3.023200 
# 
# 
# High freq. dielectric constant tensor:
#      x y z
#    x 1.722900 0.000000 0.000000 
#    y 0.000000 1.729870 0.000000 
#    z 0.000000 0.000000 1.675900 
# 
# From -- ./inp_files/10260.got.cif
#   From: 2010.03.12/outbox.cif.g09.slc.cpg/sg74_6_cif.got.tgz:10260.got - 2010.04.16 15:46:19.
