data_PCOD8301669
_publ_section_title
;
Structure prediction by ZEFSAII (Michael W. Deem and Ramdas Pophale) SiO2 
 PCOD8301669
Probable space group: I M M A
;
_chemical_formula_sum "Si O2"
_cell_formula_units_Z 96
_cell_length_a 14.596542
_cell_length_b 14.891087
_cell_length_c 20.337567
_cell_angle_alpha 90.000000
_cell_angle_beta 90.000000
_cell_angle_gamma 90.000000
_cell_volume 4420.540552
_symmetry_space_group_name_H-M "I M M A"
_symmetry_group_IT_number 74
_symmetry_cell_setting 'orthorhombic'
loop_
_space_group_symop_operation_xyz
x,y,z
-x,1/2-y,z
x,-y,-z
-x,1/2+y,-z
-x,-y,-z
x,1/2+y,-z
-x,y,z
x,1/2-y,z
1/2+x,1/2+y,1/2+z
1/2-x,-y,1/2+z
1/2+x,1/2-y,1/2-z
1/2-x,y,1/2-z
1/2-x,1/2-y,1/2-z
1/2+x,y,1/2-z
1/2-x,1/2+y,1/2+z
1/2+x,-y,1/2+z
loop_
_atom_site_type_symbol
_atom_site_label
_atom_site_fract_x
_atom_site_fract_y
_atom_site_fract_z
Si Si1 0.208883 0.901209 0.517707
Si Si2 0.602471 0.850903 0.854706
Si Si3 0.102522 0.153219 0.827264
Si Si4 0.897148 0.355906 0.969652
Si Si5 0.153179 0.021006 0.718000
Si Si6 0.394331 0.150635 0.894780
O O1 0.176198 0.873202 0.589758
O O2 0.320083 0.894898 0.518865
O O3 0.158658 0.839418 0.463858
O O4 0.175157 0.000000 0.500000
O O5 0.500000 0.856935 0.884304
O O6 0.620746 0.750000 0.827269
O O7 0.609923 0.923324 0.795560
O O8 0.147797 0.250000 0.805218
O O9 0.143580 0.118713 0.896783
O O10 0.097777 0.078916 0.770848
O O11 0.000000 0.175572 0.847977
O O12 0.900323 0.250000 0.978488
O O13 0.000000 0.395562 0.984224
O O14 0.250000 0.004288 0.750000
O O15 0.158504 0.079711 0.651545
O O16 0.500000 0.119002 0.904371
O O17 0.392891 0.250000 0.862310
#
# Coordination Sequence:
#
# PCOD8301669 Si02
#       6
#    16  16  16  16  16  16
#     4  12  23  37  63  93 126 161 205 256 312 371
#     4  11  25  45  66  87 118 163 212 262 309 356
#     4   9  18  34  58  88 122 157 191 234 294 365
#     4   9  19  37  61  90 126 163 198 245 308 378
#     4  12  24  37  59  88 122 161 202 251 301 360
#     4  11  23  39  62  95 133 166 199 248 308 373
#
# _framework density 21.716801
#
# number of rings (size 3 to 8) (size 9 to 14) (size 15 to 20)
#    0.000    1.333    1.667    6.000    0.000    6.667 
#    0.000    0.000    0.000    0.000    0.000    2.333 
#    0.000    0.000    0.000    0.000    0.000    0.000 
#
# Total GULP energy -594821.441851 kJ/mol
# GULP energy per Si atom -12392.113372 kJ/mol
# Density = 2.166737 g / cm^3
# Si number density = 21.716801 Si / 1000 Ang^3
#
#
#
# Elastic Constant Matrix: (Units=GPa)
#
#
# Indices 1 2 3 4 5 6 
#
# 1 116.6887 36.1021 42.7669 0.0000 0.0000 0.0000
# 2 36.1021 140.6498 37.0378 0.0000 0.0000 0.0000
# 3 42.7669 37.0378 65.6886 0.0000 0.0000 0.0000
# 4 0.0000 0.0000 0.0000 22.2151 0.0000 0.0000
# 5 0.0000 0.0000 0.0000 0.0000 -40.2353 0.0000
# 6 0.0000 0.0000 0.0000 0.0000 0.0000 26.1652
#
#
#
# Elastic Compliance Matrix: (Units=1/GPa)
#
#
# Indices 1 2 3 4 5 6 
#
# 1 0.011410 -0.001142 -0.006784 0.000000 0.000000 0.000000
# 2 -0.001142 0.008464 -0.004029 0.000000 0.000000 0.000000
# 3 -0.006784 -0.004029 0.021912 0.000000 0.000000 0.000000
# 4 0.000000 0.000000 0.000000 0.045014 0.000000 0.000000
# 5 0.000000 0.000000 0.000000 0.000000 -0.024854 0.000000
# 6 0.000000 0.000000 0.000000 0.000000 0.000000 0.038219
#
#
# Mechanical properties :
#
#
# Convention : Reuss Voigt Hill
#
# Bulk Modulus (GPa) = 55.94372 61.64897 58.79635
# Shear Modulus (GPa) = 38.45165 15.43702 26.94433
#
# Velocity S-wave (km/s) = 4.21241 2.66904 3.52620
# Velocity P-wave (km/s) = 7.03389 6.16017 6.61148
#
# Compressibility (1/GPa) = 0.01787511
#
# Stress axis : x y z
#
# Youngs Moduli (GPa) = 87.64515 118.14876 45.63743
#
# Poissons Ratio (x) = 0.13494 0.30962
# Poissons Ratio (y) = 0.10010 0.18386
# Poissons Ratio (z) = 0.59461 0.47599
#
# Static dielectric constant tensor:
#      x y z
#    x 3.887650 0.000000 0.000000 
#    y 0.000000 3.992760 0.000000 
#    z 0.000000 0.000000 3.749160 
# 
# 
# High freq. dielectric constant tensor:
#      x y z
#    x 1.859810 0.000000 0.000000 
#    y 0.000000 1.855560 0.000000 
#    z 0.000000 0.000000 1.822940 
# 
# From -- ./inp_files/51889.got.cif
#   From: 2010.03.12/outbox.cif.g09.slc.cpg/sg74_26_cif.got.tgz:51889.got - 2010.04.16 15:46:19.
