data_PCOD8301912
_publ_section_title
;
Structure prediction by ZEFSAII (Michael W. Deem and Ramdas Pophale) SiO2 
 PCOD8301912
Probable space group: P 41
;
_chemical_formula_sum "Si O2"
_cell_formula_units_Z 20
_cell_length_a 8.375854
_cell_length_b 8.375854
_cell_length_c 12.801637
_cell_angle_alpha 90.000000
_cell_angle_beta 90.000000
_cell_angle_gamma 90.000000
_cell_volume 898.097951
_symmetry_space_group_name_H-M "P 41"
_symmetry_group_IT_number 76
_symmetry_cell_setting 'tetragonal'
loop_
_space_group_symop_operation_xyz
x,y,z
-y,x,1/4+z
-x,-y,1/2+z
y,-x,3/4+z
loop_
_atom_site_type_symbol
_atom_site_label
_atom_site_fract_x
_atom_site_fract_y
_atom_site_fract_z
Si Si1 0.187070 0.703927 0.271990
Si Si2 0.840153 0.840152 0.233689
Si Si3 0.296074 0.812930 0.695389
Si Si4 0.828600 0.660881 0.827875
Si Si5 0.171400 0.660881 0.889504
O O1 0.252144 0.775884 0.380929
O O2 0.319545 0.717676 0.180803
O O3 0.151958 0.519100 0.289943
O O4 0.027703 0.800847 0.240786
O O5 0.747857 0.775882 0.336449
O O6 0.800844 0.027701 0.226593
O O7 0.282321 0.680454 0.786574
O O8 0.480902 0.848039 0.677438
O O9 0.765583 0.765579 0.733688
O O10 1.000000 0.730789 0.858690
#
# Coordination Sequence:
#
# PCOD8301912 Si02
#       5
#     4   4   4   4   4
#     4  11  25  46  72 107 144 191 239 295 359 424
#     4  10  22  48  74 102 142 190 242 296 342 420
#     4  11  25  46  72 107 144 191 239 295 359 424
#     4  12  26  48  72 107 146 186 241 296 359 431
#     4  12  26  48  72 107 146 186 241 296 359 431
#
# _framework density 22.269289000000001
#
# number of rings (size 3 to 8) (size 9 to 14) (size 15 to 20)
#    0.000    0.800    4.000    3.600    8.400    1.600 
#   10.800    0.000    0.000    0.000    0.000    0.000 
#    0.000    0.000    0.000    0.000    0.000    0.000 
#
# Total GULP energy -247991.766448 kJ/mol
# GULP energy per Si atom -12399.588322 kJ/mol
# Density = 2.221860 g / cm^3
# Si number density = 22.269289 Si / 1000 Ang^3
#
#
#
# Elastic Constant Matrix: (Units=GPa)
#
#
# Indices 1 2 3 4 5 6 
#
# 1 96.3631 80.2107 65.4629 0.0000 0.0000 0.0005
# 2 80.2107 96.3631 65.4629 0.0000 0.0000 -0.0005
# 3 65.4629 65.4629 208.3470 0.0000 0.0000 0.0000
# 4 0.0000 0.0000 0.0000 36.0311 0.0000 0.0000
# 5 0.0000 0.0000 0.0000 0.0000 36.0311 0.0000
# 6 0.0005 -0.0005 0.0000 0.0000 0.0000 17.4351
#
#
#
# Elastic Compliance Matrix: (Units=1/GPa)
#
#
# Indices 1 2 3 4 5 6 
#
# 1 0.034647 -0.027263 -0.002320 0.000000 0.000000 -0.000002
# 2 -0.027263 0.034647 -0.002320 0.000000 0.000000 0.000002
# 3 -0.002320 -0.002320 0.006258 0.000000 0.000000 0.000000
# 4 0.000000 0.000000 0.000000 0.027754 0.000000 0.000000
# 5 0.000000 0.000000 0.000000 0.000000 0.027754 0.000000
# 6 -0.000002 0.000002 0.000000 0.000000 0.000000 0.057356
#
#
# Mechanical properties :
#
#
# Convention : Reuss Voigt Hill
#
# Bulk Modulus (GPa) = 85.14319 91.48291 88.31305
# Shear Modulus (GPa) = 19.52087 30.56191 25.04139
#
# Velocity S-wave (km/s) = 2.96393 3.70858 3.35697
# Velocity P-wave (km/s) = 7.07316 7.71412 7.40058
#
# Compressibility (1/GPa) = 0.01174492
#
# Stress axis : x y z
#
# Youngs Moduli (GPa) = 28.86255 28.86255 159.80762
#
# Poissons Ratio (x) = 0.78689 0.37074
# Poissons Ratio (y) = 0.78689 0.37074
# Poissons Ratio (z) = 0.06696 0.06696
#
# Static dielectric constant tensor:
#      x y z
#    x 3.877570 0.000000 0.000000 
#    y 0.000000 3.877570 0.000000 
#    z 0.000000 0.000000 4.853030 
# 
# 
# High freq. dielectric constant tensor:
#      x y z
#    x 1.867640 0.000000 0.000000 
#    y 0.000000 1.867640 0.000000 
#    z 0.000000 0.000000 1.909510 
# 
# From -- ./inp_files/816.got.cif
#   From: 2010.03.12/outbox.cif.g09.slc.cpg/sg76_cif.got.tgz:816.got - 2010.04.16 16:34:25.
