data_PCOD8301042
_publ_section_title
;
Structure prediction by ZEFSAII (Michael W. Deem and Ramdas Pophale) SiO2 
 PCOD8301042
Probable space group: I M M A
;
_chemical_formula_sum "Si O2"
_cell_formula_units_Z 96
_cell_length_a 13.850142
_cell_length_b 19.430791
_cell_length_c 15.695022
_cell_angle_alpha 90.000000
_cell_angle_beta 90.000000
_cell_angle_gamma 90.000000
_cell_volume 4223.831993
_symmetry_space_group_name_H-M "I M M A"
_symmetry_group_IT_number 74
_symmetry_cell_setting 'orthorhombic'
loop_
_space_group_symop_operation_xyz
x,y,z
-x,1/2-y,z
x,-y,-z
-x,1/2+y,-z
-x,-y,-z
x,1/2+y,-z
-x,y,z
x,1/2-y,z
1/2+x,1/2+y,1/2+z
1/2-x,-y,1/2+z
1/2+x,1/2-y,1/2-z
1/2-x,y,1/2-z
1/2-x,1/2-y,1/2-z
1/2+x,y,1/2-z
1/2-x,1/2+y,1/2+z
1/2+x,-y,1/2+z
loop_
_atom_site_type_symbol
_atom_site_label
_atom_site_fract_x
_atom_site_fract_y
_atom_site_fract_z
Si Si1 0.608594 0.671727 0.221869
Si Si2 0.720602 0.456971 0.341683
Si Si3 0.390518 0.384356 0.095087
Si Si4 0.610656 0.913978 0.392047
Si Si5 0.109517 0.327454 0.218674
Si Si6 0.223986 0.671414 0.444147
O O1 0.500000 0.666056 0.186695
O O2 0.630998 0.750000 0.251027
O O3 0.623664 0.622060 0.301186
O O4 0.679490 0.648620 0.146549
O O5 0.750000 0.487537 0.250000
O O6 0.819146 0.450382 0.396893
O O7 0.643766 0.506752 0.386556
O O8 0.675493 0.380600 0.332927
O O9 0.500000 0.410383 0.080455
O O10 0.382953 0.339247 0.180340
O O11 0.356712 0.338484 0.015956
O O12 0.500000 0.911173 0.423697
O O13 0.679856 0.874762 0.459657
O O14 0.145393 0.250000 0.198437
O O15 0.000000 0.337699 0.188112
O O16 0.256806 0.750000 0.443048
#
# Coordination Sequence:
#
# PCOD8301042 Si02
#       6
#    16  16  16  16  16  16
#     4   9  18  34  59  89 118 151 193 241 291 345
#     4  10  21  38  61  87 117 153 194 238 288 346
#     4  10  22  39  60  87 119 153 189 237 296 354
#     4  11  23  40  60  82 114 155 200 246 291 341
#     4   9  18  35  61  91 120 151 190 236 286 343
#     4  11  22  37  59  88 121 155 193 238 291 351
#
# _framework density 22.728178
#
# number of rings (size 3 to 8) (size 9 to 14) (size 15 to 20)
#    0.000    2.000    0.000    3.500    0.000    9.000 
#    0.000    5.000    0.000    1.000    0.000    0.000 
#    0.000    0.000    0.000    0.000    0.000    0.000 
#
# Total GULP energy -595226.622250 kJ/mol
# GULP energy per Si atom -12400.554630 kJ/mol
# Density = 2.267645 g / cm^3
# Si number density = 22.728178 Si / 1000 Ang^3
#
#
#
# Elastic Constant Matrix: (Units=GPa)
#
#
# Indices 1 2 3 4 5 6 
#
# 1 188.0225 67.0466 33.3535 -0.0001 0.0000 0.0000
# 2 67.0466 108.4003 24.1826 -0.0002 0.0000 0.0000
# 3 33.3535 24.1826 38.0666 -0.0004 0.0000 0.0000
# 4 -0.0001 -0.0002 -0.0004 6.0573 0.0000 0.0000
# 5 0.0000 0.0000 0.0000 0.0000 30.1675 0.0000
# 6 0.0000 0.0000 0.0000 0.0000 0.0000 35.3962
#
#
#
# Elastic Compliance Matrix: (Units=1/GPa)
#
#
# Indices 1 2 3 4 5 6 
#
# 1 0.007342 -0.003619 -0.004134 0.000000 0.000000 0.000000
# 2 -0.003619 0.012532 -0.004790 0.000000 0.000000 0.000000
# 3 -0.004134 -0.004790 0.032935 0.000002 0.000000 0.000000
# 4 0.000000 0.000000 0.000002 0.165089 0.000000 0.000000
# 5 0.000000 0.000000 0.000000 0.000000 0.033148 0.000000
# 6 0.000000 0.000000 0.000000 0.000000 0.000000 0.028252
#
#
# Mechanical properties :
#
#
# Convention : Reuss Voigt Hill
#
# Bulk Modulus (GPa) = 36.07170 64.85054 50.46112
# Shear Modulus (GPa) = 15.94250 28.31798 22.13024
#
# Velocity S-wave (km/s) = 2.65135 3.53362 3.12379
# Velocity P-wave (km/s) = 5.02775 6.72634 5.93809
#
# Compressibility (1/GPa) = 0.02772257
#
# Stress axis : x y z
#
# Youngs Moduli (GPa) = 136.19524 79.79481 30.36256
#
# Poissons Ratio (x) = 0.28878 0.12553
# Poissons Ratio (y) = 0.49290 0.14545
# Poissons Ratio (z) = 0.56306 0.38224
#
# Static dielectric constant tensor:
#      x y z
#    x 4.545050 0.000000 0.000000 
#    y 0.000000 3.872760 0.000000 
#    z 0.000000 0.000000 3.790870 
# 
# 
# High freq. dielectric constant tensor:
#      x y z
#    x 1.917760 0.000000 0.000000 
#    y 0.000000 1.885590 0.000000 
#    z 0.000000 0.000000 1.875720 
# 
# From -- ./inp_files/32371.got.cif
#   From: 2010.03.12/outbox.cif.g09.slc.cpg/sg74_17_cif.got.tgz:32371.got - 2010.04.16 15:46:19.
