data_PCOD8301457
_publ_section_title
;
Structure prediction by ZEFSAII (Michael W. Deem and Ramdas Pophale) SiO2 
 PCOD8301457
Probable space group: I M M A
;
_chemical_formula_sum "Si O2"
_cell_formula_units_Z 80
_cell_length_a 23.893073
_cell_length_b 8.793231
_cell_length_c 26.274801
_cell_angle_alpha 90.000000
_cell_angle_beta 90.000000
_cell_angle_gamma 90.000000
_cell_volume 5520.265016
_symmetry_space_group_name_H-M "I M M A"
_symmetry_group_IT_number 74
_symmetry_cell_setting 'orthorhombic'
loop_
_space_group_symop_operation_xyz
x,y,z
-x,1/2-y,z
x,-y,-z
-x,1/2+y,-z
-x,-y,-z
x,1/2+y,-z
-x,y,z
x,1/2-y,z
1/2+x,1/2+y,1/2+z
1/2-x,-y,1/2+z
1/2+x,1/2-y,1/2-z
1/2-x,y,1/2-z
1/2-x,1/2-y,1/2-z
1/2+x,y,1/2-z
1/2-x,1/2+y,1/2+z
1/2+x,-y,1/2+z
loop_
_atom_site_type_symbol
_atom_site_label
_atom_site_fract_x
_atom_site_fract_y
_atom_site_fract_z
Si Si1 0.500000 0.569961 0.278765
Si Si2 0.613670 0.930308 0.445229
Si Si3 0.680905 0.931566 0.642367
Si Si4 0.715199 0.583740 0.801288
Si Si5 0.386105 0.068745 0.258287
Si Si6 0.500000 0.930498 0.394004
O O1 0.500000 0.750000 0.277532
O O2 0.554133 0.508040 0.249255
O O3 0.500000 0.505856 0.336515
O O4 0.614243 0.750000 0.448679
O O5 0.554603 0.991825 0.423373
O O6 0.624159 0.000000 0.500000
O O7 0.663841 0.986462 0.409434
O O8 0.682106 0.750000 0.635603
O O9 0.743368 0.995371 0.657502
O O10 0.636762 0.978300 0.686119
O O11 0.700357 0.750000 0.822974
O O12 0.750000 0.603963 0.750000
O O13 0.656309 0.503365 0.785842
O O14 0.390572 0.250000 0.254012
O O15 0.500000 0.750000 0.392598
#
# Coordination Sequence:
#
# PCOD8301457 Si02
#       6
#     8  16  16  16  16   8
#     4  11  19  28  40  58  85 112 137 173 211 240
#     4  11  21  33  44  57  77 105 140 180 217 250
#     4   9  16  28  45  62  78 101 132 169 210 248
#     4   7  12  24  42  61  80  99 126 164 202 242
#     4   9  16  27  43  62  80 104 137 167 198 244
#     4   9  19  32  42  52  75 107 139 176 216 244
#
# _framework density 14.492058
#
# number of rings (size 3 to 8) (size 9 to 14) (size 15 to 20)
#    0.000    2.800    2.000    3.600    0.000    0.000 
#    0.000    2.500    0.000    3.600    0.000    0.000 
#    0.000    0.000    0.000    0.900    0.000   10.000 
#
# Total GULP energy -495572.190537 kJ/mol
# GULP energy per Si atom -12389.304763 kJ/mol
# Density = 1.445907 g / cm^3
# Si number density = 14.492058 Si / 1000 Ang^3
#
#
#
# Elastic Constant Matrix: (Units=GPa)
#
#
# Indices 1 2 3 4 5 6 
#
# 1 131.2975 31.4781 64.4186 0.0000 0.0000 0.0000
# 2 31.4781 32.7862 20.7589 0.0000 0.0000 0.0000
# 3 64.4186 20.7589 67.8674 0.0000 0.0000 0.0000
# 4 0.0000 0.0000 0.0000 13.8334 0.0000 0.0000
# 5 0.0000 0.0000 0.0000 0.0000 20.5195 0.0000
# 6 0.0000 0.0000 0.0000 0.0000 0.0000 12.6821
#
#
#
# Elastic Compliance Matrix: (Units=1/GPa)
#
#
# Indices 1 2 3 4 5 6 
#
# 1 0.015406 -0.006862 -0.012525 0.000000 0.000000 0.000000
# 2 -0.006862 0.040882 -0.005992 0.000000 0.000000 0.000000
# 3 -0.012525 -0.005992 0.028456 0.000000 0.000000 0.000000
# 4 0.000000 0.000000 0.000000 0.072289 0.000000 0.000000
# 5 0.000000 0.000000 0.000000 0.000000 0.048734 0.000000
# 6 0.000000 0.000000 0.000000 0.000000 0.000000 0.078851
#
#
# Mechanical properties :
#
#
# Convention : Reuss Voigt Hill
#
# Bulk Modulus (GPa) = 29.42224 51.69581 40.55903
# Shear Modulus (GPa) = 14.42152 17.09336 15.75744
#
# Velocity S-wave (km/s) = 3.15799 3.43811 3.30102
# Velocity P-wave (km/s) = 5.80031 7.17705 6.52509
#
# Compressibility (1/GPa) = 0.03398789
#
# Stress axis : x y z
#
# Youngs Moduli (GPa) = 64.90850 24.46046 35.14248
#
# Poissons Ratio (x) = 0.16784 0.44015
# Poissons Ratio (y) = 0.44537 0.21057
# Poissons Ratio (z) = 0.81296 0.14657
#
# Static dielectric constant tensor:
#      x y z
#    x 3.098060 0.000000 0.000000 
#    y 0.000000 2.550860 0.000000 
#    z 0.000000 0.000000 2.667420 
# 
# 
# High freq. dielectric constant tensor:
#      x y z
#    x 1.553290 0.000000 0.000000 
#    y 0.000000 1.533740 0.000000 
#    z 0.000000 0.000000 1.513840 
# 
# From -- ./inp_files/57171.got.cif
#   From: 2010.03.12/outbox.cif.g09.slc.cpg/sg74_29_cif.got.tgz:57171.got - 2010.04.16 15:46:19.
