data_PCOD8301389
_publ_section_title
;
Structure prediction by ZEFSAII (Michael W. Deem and Ramdas Pophale) SiO2 
 PCOD8301389
Probable space group: I M M A
;
_chemical_formula_sum "Si O2"
_cell_formula_units_Z 64
_cell_length_a 23.890203
_cell_length_b 17.029473
_cell_length_c 7.635617
_cell_angle_alpha 90.000000
_cell_angle_beta 90.000000
_cell_angle_gamma 90.000000
_cell_volume 3106.455842
_symmetry_space_group_name_H-M "I M M A"
_symmetry_group_IT_number 74
_symmetry_cell_setting 'orthorhombic'
loop_
_space_group_symop_operation_xyz
x,y,z
-x,1/2-y,z
x,-y,-z
-x,1/2+y,-z
-x,-y,-z
x,1/2+y,-z
-x,y,z
x,1/2-y,z
1/2+x,1/2+y,1/2+z
1/2-x,-y,1/2+z
1/2+x,1/2-y,1/2-z
1/2-x,y,1/2-z
1/2-x,1/2-y,1/2-z
1/2+x,y,1/2-z
1/2-x,1/2+y,1/2+z
1/2+x,-y,1/2+z
loop_
_atom_site_type_symbol
_atom_site_label
_atom_site_fract_x
_atom_site_fract_y
_atom_site_fract_z
Si Si1 0.131110 0.589808 0.949232
Si Si2 0.437809 0.657988 0.242966
Si Si3 0.633424 0.841826 0.917106
Si Si4 0.255256 0.588852 0.044455
O O1 0.113167 0.608330 0.750796
O O2 0.120873 0.500000 0.000000
O O3 0.094250 0.641943 0.077468
O O4 0.196320 0.612256 0.959717
O O5 0.500000 0.620169 0.247658
O O6 0.442758 0.750000 0.219893
O O7 0.403436 0.624562 0.077653
O O8 0.623366 0.750000 0.880725
O O9 0.698432 0.854153 0.963684
O O10 0.250000 0.601179 0.250000
O O11 0.272633 0.500000 0.000000
#
# Coordination Sequence:
#
# PCOD8301389 Si02
#       4
#    16  16  16  16
#     4  11  23  40  64  93 124 163 205 255 312 377
#     4  10  23  43  64  89 124 166 212 261 310 361
#     4  11  24  40  63  92 125 164 209 257 311 373
#     4  11  21  38  62  92 129 165 201 253 316 375
#
# _framework density 20.602256000000001
#
# number of rings (size 3 to 8) (size 9 to 14) (size 15 to 20)
#    0.000    1.250    2.500    4.500    0.000    5.000 
#    0.000    3.750    0.000    0.000    0.000    0.000 
#    0.000    0.000    0.000    0.000    0.000    0.000 
#
# Total GULP energy -396928.416050 kJ/mol
# GULP energy per Si atom -12404.013002 kJ/mol
# Density = 2.055536 g / cm^3
# Si number density = 20.602256 Si / 1000 Ang^3
#
#
#
# Elastic Constant Matrix: (Units=GPa)
#
#
# Indices 1 2 3 4 5 6 
#
# 1 109.6739 29.1069 43.5575 0.0000 0.0000 0.0000
# 2 29.1069 43.6497 29.6054 0.0000 0.0000 0.0000
# 3 43.5575 29.6054 176.4453 0.0000 0.0000 0.0000
# 4 0.0000 0.0000 0.0000 35.5887 0.0000 0.0000
# 5 0.0000 0.0000 0.0000 0.0000 5.1798 0.0000
# 6 0.0000 0.0000 0.0000 0.0000 0.0000 4.5396
#
#
#
# Elastic Compliance Matrix: (Units=1/GPa)
#
#
# Indices 1 2 3 4 5 6 
#
# 1 0.011542 -0.006504 -0.001758 0.000000 0.000000 0.000000
# 2 -0.006504 0.029517 -0.003347 0.000000 0.000000 0.000000
# 3 -0.001758 -0.003347 0.006663 0.000000 0.000000 0.000000
# 4 0.000000 0.000000 0.000000 0.028099 0.000000 0.000000
# 5 0.000000 0.000000 0.000000 0.000000 0.193057 0.000000
# 6 0.000000 0.000000 0.000000 0.000000 0.000000 0.220285
#
#
# Mechanical properties :
#
#
# Convention : Reuss Voigt Hill
#
# Bulk Modulus (GPa) = 40.81005 59.36760 50.08883
# Shear Modulus (GPa) = 9.60523 24.22824 16.91673
#
# Velocity S-wave (km/s) = 2.16156 3.43300 2.86861
# Velocity P-wave (km/s) = 5.10699 6.67777 5.94449
#
# Compressibility (1/GPa) = 0.02450377
#
# Stress axis : x y z
#
# Youngs Moduli (GPa) = 86.63730 33.87876 150.08189
#
# Poissons Ratio (x) = 0.22036 0.26384
# Poissons Ratio (y) = 0.56353 0.50231
# Poissons Ratio (z) = 0.15231 0.11339
#
# Static dielectric constant tensor:
#      x y z
#    x 3.993600 0.000000 0.000000 
#    y 0.000000 3.508400 0.000000 
#    z 0.000000 0.000000 3.964210 
# 
# 
# High freq. dielectric constant tensor:
#      x y z
#    x 1.804480 0.000000 0.000000 
#    y 0.000000 1.790440 0.000000 
#    z 0.000000 0.000000 1.825950 
# 
# From -- ./inp_files/2903.got.cif
#   From: 2010.03.12/outbox.cif.g09.slc.cpg/sg74_2_cif.got.tgz:2903.got - 2010.04.16 15:46:19.
