data_PCOD8301339
_publ_section_title
;
Structure prediction by ZEFSAII (Michael W. Deem and Ramdas Pophale) SiO2 
 PCOD8301339
Probable space group: I M M A
;
_chemical_formula_sum "Si O2"
_cell_formula_units_Z 60
_cell_length_a 23.806023
_cell_length_b 14.976824
_cell_length_c 8.590774
_cell_angle_alpha 90.000000
_cell_angle_beta 90.000000
_cell_angle_gamma 90.000000
_cell_volume 3062.942678
_symmetry_space_group_name_H-M "I M M A"
_symmetry_group_IT_number 74
_symmetry_cell_setting 'orthorhombic'
loop_
_space_group_symop_operation_xyz
x,y,z
-x,1/2-y,z
x,-y,-z
-x,1/2+y,-z
-x,-y,-z
x,1/2+y,-z
-x,y,z
x,1/2-y,z
1/2+x,1/2+y,1/2+z
1/2-x,-y,1/2+z
1/2+x,1/2-y,1/2-z
1/2-x,y,1/2-z
1/2-x,1/2-y,1/2-z
1/2+x,y,1/2-z
1/2-x,1/2+y,1/2+z
1/2+x,-y,1/2+z
loop_
_atom_site_type_symbol
_atom_site_label
_atom_site_fract_x
_atom_site_fract_y
_atom_site_fract_z
Si Si1 0.000000 0.250000 0.978524
Si Si2 0.729428 0.404544 0.079173
Si Si3 0.403547 0.250000 0.769253
Si Si4 0.500000 0.153236 0.218082
Si Si5 0.895012 0.103800 0.472091
Si Si6 0.713475 0.250000 0.600103
O O1 0.052109 0.250000 0.866681
O O2 0.000000 0.337526 0.092954
O O3 0.750000 0.421143 0.250000
O O4 0.730457 0.500000 0.000000
O O5 0.666507 0.361867 0.082082
O O6 0.773428 0.338299 0.998403
O O7 0.410816 0.338873 0.874849
O O8 0.348755 0.250000 0.664265
O O9 0.500000 0.250000 0.136759
O O10 0.557513 0.107866 0.161337
O O11 0.889312 0.000000 0.500000
O O12 0.750000 0.250000 0.750000
#
# Coordination Sequence:
#
# PCOD8301339 Si02
#       6
#     4  16   8   8  16   8
#     4  10  26  40  68  92 128 168 214 280 320 360
#     4  11  25  41  65  98 134 169 219 267 326 389
#     4  12  23  44  65  96 129 166 218 263 328 386
#     4  10  22  42  65  92 124 166 219 265 316 379
#     4  11  23  42  69  92 127 174 213 261 327 391
#     4  12  23  40  67  96 131 173 210 271 323 397
#
# _framework density 19.589003999999999
#
# number of rings (size 3 to 8) (size 9 to 14) (size 15 to 20)
#    0.400    0.533    4.000    2.400    7.467    0.000 
#    0.000    2.667    0.000    0.000    0.000    0.000 
#    0.000    0.000    0.000    0.000    0.000    0.000 
#
# Total GULP energy -371780.348648 kJ/mol
# GULP energy per Si atom -12392.678288 kJ/mol
# Density = 1.954442 g / cm^3
# Si number density = 19.589004 Si / 1000 Ang^3
#
#
#
# Elastic Constant Matrix: (Units=GPa)
#
#
# Indices 1 2 3 4 5 6 
#
# 1 149.2300 32.7764 85.6064 0.0000 0.0000 0.0000
# 2 32.7764 103.0847 45.6105 0.0000 0.0000 0.0000
# 3 85.6064 45.6105 166.7417 0.0000 0.0000 0.0000
# 4 0.0000 0.0000 0.0000 24.8762 0.0000 0.0000
# 5 0.0000 0.0000 0.0000 0.0000 19.1569 0.0000
# 6 0.0000 0.0000 0.0000 0.0000 0.0000 77.4713
#
#
#
# Elastic Compliance Matrix: (Units=1/GPa)
#
#
# Indices 1 2 3 4 5 6 
#
# 1 0.009587 -0.000990 -0.004651 0.000000 0.000000 0.000000
# 2 -0.000990 0.011139 -0.002538 0.000000 0.000000 0.000000
# 3 -0.004651 -0.002538 0.009080 0.000000 0.000000 0.000000
# 4 0.000000 0.000000 0.000000 0.040199 0.000000 0.000000
# 5 0.000000 0.000000 0.000000 0.000000 0.052200 0.000000
# 6 0.000000 0.000000 0.000000 0.000000 0.000000 0.012908
#
#
# Mechanical properties :
#
#
# Convention : Reuss Voigt Hill
#
# Bulk Modulus (GPa) = 74.37445 83.00477 78.68961
# Shear Modulus (GPa) = 32.06080 41.30509 36.68294
#
# Velocity S-wave (km/s) = 4.04997 4.59692 4.33208
# Velocity P-wave (km/s) = 7.74077 8.40480 8.07961
#
# Compressibility (1/GPa) = 0.01344548
#
# Stress axis : x y z
#
# Youngs Moduli (GPa) = 104.31219 89.77636 110.13809
#
# Poissons Ratio (x) = 0.08890 0.51225
# Poissons Ratio (y) = 0.10330 0.27958
# Poissons Ratio (z) = 0.48515 0.22790
#
# Static dielectric constant tensor:
#      x y z
#    x -1.246270 0.000000 0.000000 
#    y 0.000000 3.576240 0.000000 
#    z 0.000000 0.000000 3.579720 
# 
# 
# High freq. dielectric constant tensor:
#      x y z
#    x 1.782220 0.000000 0.000000 
#    y 0.000000 1.765010 0.000000 
#    z 0.000000 0.000000 1.764560 
# 
# From -- ./inp_files/11878.got.cif
#   From: 2010.03.12/outbox.cif.g09.slc.cpg/sg74_6_cif.got.tgz:11878.got - 2010.04.16 15:46:19.
