data_PCOD8301548
_publ_section_title
;
Structure prediction by ZEFSAII (Michael W. Deem and Ramdas Pophale) SiO2 
 PCOD8301548
Probable space group: I M M A
;
_chemical_formula_sum "Si O2"
_cell_formula_units_Z 72
_cell_length_a 25.654768
_cell_length_b 8.671011
_cell_length_c 17.211091
_cell_angle_alpha 90.000000
_cell_angle_beta 90.000000
_cell_angle_gamma 90.000000
_cell_volume 3828.654963
_symmetry_space_group_name_H-M "I M M A"
_symmetry_group_IT_number 74
_symmetry_cell_setting 'orthorhombic'
loop_
_space_group_symop_operation_xyz
x,y,z
-x,1/2-y,z
x,-y,-z
-x,1/2+y,-z
-x,-y,-z
x,1/2+y,-z
-x,y,z
x,1/2-y,z
1/2+x,1/2+y,1/2+z
1/2-x,-y,1/2+z
1/2+x,1/2-y,1/2-z
1/2-x,y,1/2-z
1/2-x,1/2-y,1/2-z
1/2+x,y,1/2-z
1/2-x,1/2+y,1/2+z
1/2+x,-y,1/2+z
loop_
_atom_site_type_symbol
_atom_site_label
_atom_site_fract_x
_atom_site_fract_y
_atom_site_fract_z
Si Si1 0.658705 0.423827 0.423399
Si Si2 0.691019 0.433686 0.257013
Si Si3 0.409927 0.930579 0.194130
Si Si4 0.943052 0.924216 0.849712
Si Si5 0.000000 0.434052 0.412963
O O1 0.682838 0.500000 0.500000
O O2 0.677895 0.250000 0.427195
O O3 0.677483 0.496919 0.342743
O O4 0.596118 0.445890 0.421907
O O5 0.686482 0.250000 0.249770
O O6 0.750000 0.492364 0.250000
O O7 0.650167 0.505388 0.194374
O O8 0.408812 0.750000 0.175697
O O9 0.433800 0.959293 0.279062
O O10 0.447066 0.010735 0.130264
O O11 0.936075 0.750000 0.815842
O O12 0.000000 0.951756 0.884729
O O13 0.000000 0.500000 0.500000
O O14 0.000000 0.250000 0.415426
#
# Coordination Sequence:
#
# PCOD8301548 Si02
#       5
#    16  16  16  16   8
#     4   9  18  31  48  74 104 136 174 218 270 319
#     4   9  19  38  61  80 103 146 197 236 279 341
#     4  11  21  34  55  85 115 143 182 231 285 341
#     4   9  17  31  51  72 100 143 184 214 250 310
#     4  12  24  40  60  84 117 154 193 240 294 350
#
# _framework density 18.80556
#
# number of rings (size 3 to 8) (size 9 to 14) (size 15 to 20)
#    0.000    2.222    1.111    4.333    0.000    4.444 
#    0.000    1.111    0.000    2.667    0.000    0.000 
#    0.000    0.000    0.000    0.000    0.000    0.000 
#
# Total GULP energy -445982.415489 kJ/mol
# GULP energy per Si atom -12388.400430 kJ/mol
# Density = 1.876276 g / cm^3
# Si number density = 18.805560 Si / 1000 Ang^3
#
#
#
# Elastic Constant Matrix: (Units=GPa)
#
#
# Indices 1 2 3 4 5 6 
#
# 1 149.4293 40.5027 39.2628 0.0000 0.0000 0.0000
# 2 40.5027 95.5178 38.9381 0.0000 0.0000 0.0000
# 3 39.2628 38.9381 93.4957 0.0000 0.0000 0.0000
# 4 0.0000 0.0000 0.0000 29.6086 0.0000 0.0000
# 5 0.0000 0.0000 0.0000 0.0000 15.6352 0.0000
# 6 0.0000 0.0000 0.0000 0.0000 0.0000 21.6191
#
#
#
# Elastic Compliance Matrix: (Units=1/GPa)
#
#
# Indices 1 2 3 4 5 6 
#
# 1 0.007963 -0.002425 -0.002334 0.000000 0.000000 0.000000
# 2 -0.002425 0.013349 -0.004541 0.000000 0.000000 0.000000
# 3 -0.002334 -0.004541 0.013567 0.000000 0.000000 0.000000
# 4 0.000000 0.000000 0.000000 0.033774 0.000000 0.000000
# 5 0.000000 0.000000 0.000000 0.000000 0.063958 0.000000
# 6 0.000000 0.000000 0.000000 0.000000 0.000000 0.046255
#
#
# Mechanical properties :
#
#
# Convention : Reuss Voigt Hill
#
# Bulk Modulus (GPa) = 61.43057 63.98333 62.70695
# Shear Modulus (GPa) = 24.64368 28.02186 26.33277
#
# Velocity S-wave (km/s) = 3.62394 3.86435 3.74607
# Velocity P-wave (km/s) = 7.08856 7.34904 7.21997
#
# Compressibility (1/GPa) = 0.01627854
#
# Stress axis : x y z
#
# Youngs Moduli (GPa) = 125.58611 74.91379 73.70850
#
# Poissons Ratio (x) = 0.18167 0.17203
# Poissons Ratio (y) = 0.30455 0.33471
# Poissons Ratio (z) = 0.29311 0.34018
#
# Static dielectric constant tensor:
#      x y z
#    x 3.739830 0.000000 0.000000 
#    y 0.000000 3.340790 0.000000 
#    z 0.000000 0.000000 3.268590 
# 
# 
# High freq. dielectric constant tensor:
#      x y z
#    x 1.734280 0.000000 0.000000 
#    y 0.000000 1.721660 0.000000 
#    z 0.000000 0.000000 1.706410 
# 
# From -- ./inp_files/37055.got.cif
#   From: 2010.03.12/outbox.cif.g09.slc.cpg/sg74_19_cif.got.tgz:37055.got - 2010.04.16 15:46:19.
