data_PCOD8301257
_publ_section_title
;
Structure prediction by ZEFSAII (Michael W. Deem and Ramdas Pophale) SiO2 
 PCOD8301257
Probable space group: I M M A
;
_chemical_formula_sum "Si O2"
_cell_formula_units_Z 96
_cell_length_a 22.058732
_cell_length_b 14.431922
_cell_length_c 14.695697
_cell_angle_alpha 90.000000
_cell_angle_beta 90.000000
_cell_angle_gamma 90.000000
_cell_volume 4678.373665
_symmetry_space_group_name_H-M "I M M A"
_symmetry_group_IT_number 74
_symmetry_cell_setting 'orthorhombic'
loop_
_space_group_symop_operation_xyz
x,y,z
-x,1/2-y,z
x,-y,-z
-x,1/2+y,-z
-x,-y,-z
x,1/2+y,-z
-x,y,z
x,1/2-y,z
1/2+x,1/2+y,1/2+z
1/2-x,-y,1/2+z
1/2+x,1/2-y,1/2-z
1/2-x,y,1/2-z
1/2-x,1/2-y,1/2-z
1/2+x,y,1/2-z
1/2-x,1/2+y,1/2+z
1/2+x,-y,1/2+z
loop_
_atom_site_type_symbol
_atom_site_label
_atom_site_fract_x
_atom_site_fract_y
_atom_site_fract_z
Si Si1 0.250000 0.939046 0.750000
Si Si2 0.615846 0.000000 0.500000
Si Si3 0.430857 0.357363 0.830749
Si Si4 0.569371 0.849831 0.369397
Si Si5 0.069420 0.857128 0.691544
Si Si6 0.342152 0.998997 0.896893
Si Si7 0.147821 0.645596 0.859559
O O1 0.286347 0.001986 0.824235
O O2 0.206245 0.866511 0.798118
O O3 0.575050 0.067877 0.559595
O O4 0.655278 0.068265 0.437847
O O5 0.500000 0.393837 0.843396
O O6 0.427897 0.250000 0.855482
O O7 0.404382 0.377616 0.729099
O O8 0.384052 0.410064 0.894779
O O9 0.500000 0.830964 0.350207
O O10 0.597349 0.750000 0.402941
O O11 0.075762 0.750000 0.664667
O O12 0.113666 0.912371 0.624064
O O13 0.088219 0.872202 0.797503
O O14 0.000000 0.891301 0.681266
O O15 0.315900 0.000000 0.000000
O O16 0.146319 0.750000 0.900081
#
# Coordination Sequence:
#
# PCOD8301257 Si02
#       7
#     8   8  16  16  16  16  16
#     4  10  23  44  63  78 116 158 205 258 303 354
#     4  12  21  30  54  86 114 142 199 260 298 344
#     4   9  19  38  61  86 123 165 195 230 295 373
#     4   9  18  32  50  77 118 162 194 227 283 355
#     4   9  19  37  60  89 124 159 196 243 304 371
#     4  11  23  38  62  90 120 153 205 253 306 358
#     4  10  22  39  60  83 113 159 202 249 308 364
#
# _framework density 20.519950999999999
#
# number of rings (size 3 to 8) (size 9 to 14) (size 15 to 20)
#    0.000    2.167    0.000    4.500    1.167    5.333 
#    0.000    3.750    0.000    0.000    0.000    0.000 
#    0.000    0.000    0.000    0.000    0.000    0.000 
#
# Total GULP energy -594769.625043 kJ/mol
# GULP energy per Si atom -12391.033855 kJ/mol
# Density = 2.047325 g / cm^3
# Si number density = 20.519951 Si / 1000 Ang^3
#
#
#
# Elastic Constant Matrix: (Units=GPa)
#
#
# Indices 1 2 3 4 5 6 
#
# 1 90.2248 27.6181 41.3196 0.0000 0.0000 0.0000
# 2 27.6181 108.5617 51.2759 0.0000 0.0000 0.0000
# 3 41.3196 51.2759 114.4245 0.0000 0.0000 0.0000
# 4 0.0000 0.0000 0.0000 26.4835 0.0000 0.0000
# 5 0.0000 0.0000 0.0000 0.0000 14.9811 0.0000
# 6 0.0000 0.0000 0.0000 0.0000 0.0000 21.0505
#
#
#
# Elastic Compliance Matrix: (Units=1/GPa)
#
#
# Indices 1 2 3 4 5 6 
#
# 1 0.013452 -0.001431 -0.004217 0.000000 0.000000 0.000000
# 2 -0.001431 0.011837 -0.004788 0.000000 0.000000 0.000000
# 3 -0.004217 -0.004788 0.012407 0.000000 0.000000 0.000000
# 4 0.000000 0.000000 0.000000 0.037759 0.000000 0.000000
# 5 0.000000 0.000000 0.000000 0.000000 0.066751 0.000000
# 6 0.000000 0.000000 0.000000 0.000000 0.000000 0.047505
#
#
# Mechanical properties :
#
#
# Convention : Reuss Voigt Hill
#
# Bulk Modulus (GPa) = 59.42956 61.51534 60.47245
# Shear Modulus (GPa) = 23.12776 25.36949 24.24862
#
# Velocity S-wave (km/s) = 3.36085 3.51997 3.44133
# Velocity P-wave (km/s) = 6.63967 6.82375 6.73234
#
# Compressibility (1/GPa) = 0.01682664
#
# Stress axis : x y z
#
# Youngs Moduli (GPa) = 74.33596 84.48377 80.59663
#
# Poissons Ratio (x) = 0.12087 0.33985
# Poissons Ratio (y) = 0.10635 0.38586
# Poissons Ratio (z) = 0.31345 0.40447
#
# Static dielectric constant tensor:
#      x y z
#    x 3.533560 0.000000 0.000000 
#    y 0.000000 3.747300 0.000000 
#    z 0.000000 0.000000 3.679710 
# 
# 
# High freq. dielectric constant tensor:
#      x y z
#    x 1.779810 0.000000 0.000000 
#    y 0.000000 1.812660 0.000000 
#    z 0.000000 0.000000 1.793780 
# 
# From -- ./inp_files/35328.got.cif
#   From: 2010.03.12/outbox.cif.g09.slc.cpg/sg74_18_cif.got.tgz:35328.got - 2010.04.16 15:46:19.
