data_PCOD8301201
_publ_section_title
;
Structure prediction by ZEFSAII (Michael W. Deem and Ramdas Pophale) SiO2 
 PCOD8301201
Probable space group: I M M A
;
_chemical_formula_sum "Si O2"
_cell_formula_units_Z 88
_cell_length_a 15.726593
_cell_length_b 16.171820
_cell_length_c 17.338959
_cell_angle_alpha 90.000000
_cell_angle_beta 90.000000
_cell_angle_gamma 90.000000
_cell_volume 4409.776370
_symmetry_space_group_name_H-M "I M M A"
_symmetry_group_IT_number 74
_symmetry_cell_setting 'orthorhombic'
loop_
_space_group_symop_operation_xyz
x,y,z
-x,1/2-y,z
x,-y,-z
-x,1/2+y,-z
-x,-y,-z
x,1/2+y,-z
-x,y,z
x,1/2-y,z
1/2+x,1/2+y,1/2+z
1/2-x,-y,1/2+z
1/2+x,1/2-y,1/2-z
1/2-x,y,1/2-z
1/2-x,1/2-y,1/2-z
1/2+x,y,1/2-z
1/2-x,1/2+y,1/2+z
1/2+x,-y,1/2+z
loop_
_atom_site_type_symbol
_atom_site_label
_atom_site_fract_x
_atom_site_fract_y
_atom_site_fract_z
Si Si1 0.172874 0.464600 0.311210
Si Si2 0.000000 0.841580 0.155771
Si Si3 0.689172 0.575037 0.051889
Si Si4 0.639707 0.658669 0.470881
Si Si5 0.596870 0.655314 0.929218
Si Si6 0.000000 0.344304 0.096495
Si Si7 0.500000 0.517197 0.724588
O O1 0.250000 0.452726 0.250000
O O2 0.181006 0.552343 0.357271
O O3 0.166279 0.390782 0.374086
O O4 0.084243 0.460566 0.269006
O O5 0.916483 0.849862 0.104824
O O6 0.000000 0.750000 0.196447
O O7 0.000000 0.918541 0.212912
O O8 0.787337 0.591408 0.033643
O O9 0.656425 0.500000 0.000000
O O10 0.627987 0.647990 0.019409
O O11 0.680652 0.750000 0.473813
O O12 0.584119 0.643531 0.546337
O O13 0.500000 0.621018 0.920758
O O14 0.598859 0.750000 0.904284
O O15 0.000000 0.421464 0.152712
O O16 0.000000 0.250000 0.132333
#
# Coordination Sequence:
#
# PCOD8301201 Si02
#       7
#    16   8  16  16  16   8   8
#     4  11  25  41  60  93 126 164 208 249 309 384
#     4   9  20  36  56  83 120 162 207 254 308 370
#     4  10  22  36  62  85 117 155 212 251 298 356
#     4   9  18  36  58  88 120 149 198 262 308 361
#     4  10  22  42  66  90 118 159 209 261 314 364
#     4   9  22  36  58  95 126 156 201 248 316 392
#     4  12  24  39  63  82 132 174 198 250 322 370
#
# _framework density 19.955660000000002
#
# number of rings (size 3 to 8) (size 9 to 14) (size 15 to 20)
#    0.000    2.000    0.909    2.727    8.909    2.909 
#    0.000    1.818    0.000    4.909    0.000    0.000 
#    0.000    0.000    0.000    0.000    0.000    0.000 
#
# Total GULP energy -545128.913525 kJ/mol
# GULP energy per Si atom -12389.293489 kJ/mol
# Density = 1.991024 g / cm^3
# Si number density = 19.955660 Si / 1000 Ang^3
#
#
#
# Elastic Constant Matrix: (Units=GPa)
#
#
# Indices 1 2 3 4 5 6 
#
# 1 116.2141 15.7822 35.0019 0.0000 0.0000 0.0000
# 2 15.7822 65.5452 15.2604 0.0000 0.0000 0.0000
# 3 35.0019 15.2604 64.5688 0.0000 0.0000 0.0000
# 4 0.0000 0.0000 0.0000 20.0457 0.0000 0.0000
# 5 0.0000 0.0000 0.0000 0.0000 21.3868 0.0000
# 6 0.0000 0.0000 0.0000 0.0000 0.0000 32.2496
#
#
#
# Elastic Compliance Matrix: (Units=1/GPa)
#
#
# Indices 1 2 3 4 5 6 
#
# 1 0.010381 -0.001259 -0.005330 0.000000 0.000000 0.000000
# 2 -0.001259 0.016298 -0.003170 0.000000 0.000000 0.000000
# 3 -0.005330 -0.003170 0.019126 0.000000 0.000000 0.000000
# 4 0.000000 0.000000 0.000000 0.049886 0.000000 0.000000
# 5 0.000000 0.000000 0.000000 0.000000 0.046758 0.000000
# 6 0.000000 0.000000 0.000000 0.000000 0.000000 0.031008
#
#
# Mechanical properties :
#
#
# Convention : Reuss Voigt Hill
#
# Bulk Modulus (GPa) = 38.03996 42.04635 40.04315
# Shear Modulus (GPa) = 24.78497 26.75535 25.77016
#
# Velocity S-wave (km/s) = 3.52803 3.66558 3.59746
# Velocity P-wave (km/s) = 5.97491 6.24748 6.11271
#
# Compressibility (1/GPa) = 0.02628815
#
# Stress axis : x y z
#
# Youngs Moduli (GPa) = 96.32960 61.35859 52.28559
#
# Poissons Ratio (x) = 0.07723 0.27868
# Poissons Ratio (y) = 0.12124 0.16572
# Poissons Ratio (z) = 0.51343 0.19448
#
# Static dielectric constant tensor:
#      x y z
#    x 3.595400 0.000000 0.000000 
#    y 0.000000 3.785740 0.000000 
#    z 0.000000 0.000000 3.667240 
# 
# 
# High freq. dielectric constant tensor:
#      x y z
#    x 1.788220 0.000000 0.000000 
#    y 0.000000 1.779890 0.000000 
#    z 0.000000 0.000000 1.762360 
# 
# From -- ./inp_files/42841.got.cif
#   From: 2010.03.12/outbox.cif.g09.slc.cpg/sg74_22_cif.got.tgz:42841.got - 2010.04.16 15:46:19.
