data_PCOD8301853
_publ_section_title
;
Structure prediction by ZEFSAII (Michael W. Deem and Ramdas Pophale) SiO2 
 PCOD8301853
Probable space group: P 41
;
_chemical_formula_sum "Si O2"
_cell_formula_units_Z 24
_cell_length_a 7.694333
_cell_length_b 7.694333
_cell_length_c 17.844228
_cell_angle_alpha 90.000000
_cell_angle_beta 90.000000
_cell_angle_gamma 90.000000
_cell_volume 1056.427553
_symmetry_space_group_name_H-M "P 41"
_symmetry_group_IT_number 76
_symmetry_cell_setting 'tetragonal'
loop_
_space_group_symop_operation_xyz
x,y,z
-y,x,1/4+z
-x,-y,1/2+z
y,-x,3/4+z
loop_
_atom_site_type_symbol
_atom_site_label
_atom_site_fract_x
_atom_site_fract_y
_atom_site_fract_z
Si Si1 0.102699 0.896021 0.375000
Si Si2 0.691759 0.874014 0.395988
Si Si3 0.743014 0.693349 0.670081
Si Si4 0.594218 0.881596 0.231967
Si Si5 0.906753 0.777918 0.955899
Si Si6 0.292706 0.417125 0.006748
O O1 0.185125 0.738520 0.423173
O O2 0.147159 0.889107 0.288901
O O3 0.898273 0.893238 0.389813
O O4 0.185197 0.079084 0.403300
O O5 0.623910 0.809311 0.315350
O O6 0.623917 0.732073 0.454638
O O7 0.616004 0.060952 0.425074
O O8 0.660208 0.632010 0.591356
O O9 0.608172 0.630048 0.734831
O O10 0.754019 0.899923 0.675102
O O11 0.408278 0.811261 0.201756
O O12 0.588528 0.088414 0.240561
#
# Coordination Sequence:
#
# PCOD8301853 Si02
#       6
#     4   4   4   4   4   4
#     4  10  18  35  61  88 117 159 206 252 308 376
#     4   9  17  33  60  84 116 161 198 248 313 358
#     4   9  19  33  61  87 118 159 205 249 307 372
#     4   9  18  35  55  89 121 153 208 252 302 372
#     4  10  20  33  61  90 119 160 208 252 313 374
#     4   9  18  35  58  86 119 160 201 251 307 370
#
# _framework density 22.718077000000001
#
# number of rings (size 3 to 8) (size 9 to 14) (size 15 to 20)
#    0.000    2.667    1.667    0.000    7.000    0.000 
#    3.000    0.000   14.667    0.000    0.000    0.000 
#    0.000    0.000    0.000    0.000    0.000    0.000 
#
# Total GULP energy -297362.268285 kJ/mol
# GULP energy per Si atom -12390.094512 kJ/mol
# Density = 2.266637 g / cm^3
# Si number density = 22.718077 Si / 1000 Ang^3
#
#
#
# Elastic Constant Matrix: (Units=GPa)
#
#
# Indices 1 2 3 4 5 6 
#
# 1 17.6763 42.8199 -8.1772 0.0000 0.0000 -15.7660
# 2 42.8199 17.6763 -8.1772 0.0000 0.0000 15.7660
# 3 -8.1772 -8.1772 25.8499 0.0000 0.0000 0.0000
# 4 0.0000 0.0000 0.0000 16.7921 0.0000 0.0000
# 5 0.0000 0.0000 0.0000 0.0000 16.7921 0.0000
# 6 -15.7660 15.7660 0.0000 0.0000 0.0000 -19.1840
#
#
#
# Elastic Compliance Matrix: (Units=1/GPa)
#
#
# Indices 1 2 3 4 5 6 
#
# 1 0.658115 -0.640039 0.005718 0.000000 0.000000 -1.066861
# 2 -0.640039 0.658115 0.005718 0.000000 0.000000 1.066861
# 3 0.005718 0.005718 0.042303 0.000000 0.000000 0.000000
# 4 0.000000 0.000000 0.000000 0.059552 0.000000 0.000000
# 5 0.000000 0.000000 0.000000 0.000000 0.059552 0.000000
# 6 -1.066861 1.066861 0.000000 0.000000 0.000000 1.701430
#
#
# Mechanical properties :
#
#
# Convention : Reuss Voigt Hill
#
# Bulk Modulus (GPa) = 9.86912 12.68148 11.27530
# Shear Modulus (GPa) = 1.11856 5.19582 3.15719
#
# Velocity S-wave (km/s) = 0.70245 1.51395 1.18015
# Velocity P-wave (km/s) = 2.23864 2.94114 2.61360
#
# Compressibility (1/GPa) = 0.10132614
#
# Stress axis : x y z
#
# Youngs Moduli (GPa) = 1.51949 1.51949 23.63924
#
# Poissons Ratio (x) = 0.97253 -0.13517
# Poissons Ratio (y) = 0.97253 -0.13517
# Poissons Ratio (z) = -0.00869 -0.00869
#
# Static dielectric constant tensor:
#      x y z
#    x 4.182760 0.000000 0.000000 
#    y 0.000000 4.182760 0.000000 
#    z 0.000000 0.000000 4.136170 
# 
# 
# High freq. dielectric constant tensor:
#      x y z
#    x 1.877740 0.000000 0.000000 
#    y 0.000000 1.877740 0.000000 
#    z 0.000000 0.000000 1.896890 
# 
# From -- ./inp_files/1100.got.cif
#   From: 2010.03.12/outbox.cif.g09.slc.cpg/sg76_cif.got.tgz:1100.got - 2010.04.16 16:34:25.
