data_PCOD8301663
_publ_section_title
;
Structure prediction by ZEFSAII (Michael W. Deem and Ramdas Pophale) SiO2 
 PCOD8301663
Probable space group: I M M A
;
_chemical_formula_sum "Si O2"
_cell_formula_units_Z 64
_cell_length_a 13.111076
_cell_length_b 8.608462
_cell_length_c 27.178354
_cell_angle_alpha 90.000000
_cell_angle_beta 90.000000
_cell_angle_gamma 90.000000
_cell_volume 3067.517525
_symmetry_space_group_name_H-M "I M M A"
_symmetry_group_IT_number 74
_symmetry_cell_setting 'orthorhombic'
loop_
_space_group_symop_operation_xyz
x,y,z
-x,1/2-y,z
x,-y,-z
-x,1/2+y,-z
-x,-y,-z
x,1/2+y,-z
-x,y,z
x,1/2-y,z
1/2+x,1/2+y,1/2+z
1/2-x,-y,1/2+z
1/2+x,1/2-y,1/2-z
1/2-x,y,1/2-z
1/2-x,1/2-y,1/2-z
1/2+x,y,1/2-z
1/2-x,1/2+y,1/2+z
1/2+x,-y,1/2+z
loop_
_atom_site_type_symbol
_atom_site_label
_atom_site_fract_x
_atom_site_fract_y
_atom_site_fract_z
Si Si1 0.214439 0.433756 0.948310
Si Si2 0.357913 0.580869 0.228673
Si Si3 0.000000 0.435107 0.086632
Si Si4 0.383026 0.432076 0.123812
Si Si5 0.000000 0.431552 0.196722
O O1 0.204578 0.250000 0.950209
O O2 0.102663 0.503711 0.938695
O O3 0.300067 0.477307 0.908334
O O4 0.254523 0.500000 0.000000
O O5 0.409680 0.750000 0.218596
O O6 0.250000 0.615327 0.250000
O O7 0.365515 0.477211 0.180268
O O8 0.403081 0.487122 0.273855
O O9 0.000000 0.501919 0.141991
O O10 0.000000 0.250000 0.083394
O O11 0.500000 0.472816 0.108245
O O12 0.362442 0.250000 0.117988
O O13 0.000000 0.250000 0.191320
#
# Coordination Sequence:
#
# PCOD8301663 Si02
#       5
#    16  16   8  16   8
#     4  12  26  45  70  98 131 172 221 276 338 399
#     4  11  23  38  60  91 128 169 214 265 318 381
#     4  11  24  44  69  99 136 173 219 276 335 398
#     4  11  24  43  67  96 132 174 222 274 331 395
#     4  11  23  38  60  91 126 169 210 254 313 382
#
# _framework density 20.863776000000001
#
# number of rings (size 3 to 8) (size 9 to 14) (size 15 to 20)
#    0.000    0.750    1.250    6.375    0.000   10.000 
#    0.000    0.000    0.000    0.000    0.000    0.000 
#    0.000    0.000    0.000    0.000    0.000    0.000 
#
# Total GULP energy -396654.537420 kJ/mol
# GULP energy per Si atom -12395.454294 kJ/mol
# Density = 2.081629 g / cm^3
# Si number density = 20.863776 Si / 1000 Ang^3
#
#
#
# Elastic Constant Matrix: (Units=GPa)
#
#
# Indices 1 2 3 4 5 6 
#
# 1 128.0120 39.2234 29.6090 0.0000 0.0000 0.0000
# 2 39.2234 117.6433 35.7084 0.0000 0.0000 0.0000
# 3 29.6090 35.7084 100.2843 0.0000 0.0000 0.0000
# 4 0.0000 0.0000 0.0000 35.8971 0.0000 0.0000
# 5 0.0000 0.0000 0.0000 0.0000 49.9107 0.0000
# 6 0.0000 0.0000 0.0000 0.0000 0.0000 38.1330
#
#
#
# Elastic Compliance Matrix: (Units=1/GPa)
#
#
# Indices 1 2 3 4 5 6 
#
# 1 0.008974 -0.002453 -0.001776 0.000000 0.000000 0.000000
# 2 -0.002453 0.010201 -0.002908 0.000000 0.000000 0.000000
# 3 -0.001776 -0.002908 0.011532 0.000000 0.000000 0.000000
# 4 0.000000 0.000000 0.000000 0.027857 0.000000 0.000000
# 5 0.000000 0.000000 0.000000 0.000000 0.020036 0.000000
# 6 0.000000 0.000000 0.000000 0.000000 0.000000 0.026224
#
#
# Mechanical properties :
#
#
# Convention : Reuss Voigt Hill
#
# Bulk Modulus (GPa) = 60.85600 61.66901 61.26251
# Shear Modulus (GPa) = 40.13635 40.88141 40.50888
#
# Velocity S-wave (km/s) = 4.39080 4.43136 4.41113
# Velocity P-wave (km/s) = 7.41195 7.47026 7.44116
#
# Compressibility (1/GPa) = 0.01643223
#
# Stress axis : x y z
#
# Youngs Moduli (GPa) = 111.43058 98.03184 86.71886
#
# Poissons Ratio (x) = 0.24047 0.15403
# Poissons Ratio (y) = 0.27333 0.25218
# Poissons Ratio (z) = 0.19792 0.28507
#
# Static dielectric constant tensor:
#      x y z
#    x 3.972460 0.000000 0.000000 
#    y 0.000000 3.945400 0.000000 
#    z 0.000000 0.000000 3.972670 
# 
# 
# High freq. dielectric constant tensor:
#      x y z
#    x 1.834590 0.000000 0.000000 
#    y 0.000000 1.835820 0.000000 
#    z 0.000000 0.000000 1.825370 
# 
# From -- ./inp_files/59523.got.cif
#   From: 2010.03.12/outbox.cif.g09.slc.cpg/sg74_30_cif.got.tgz:59523.got - 2010.04.16 15:46:19.
