data_PCOD8301267
_publ_section_title
;
Structure prediction by ZEFSAII (Michael W. Deem and Ramdas Pophale) SiO2 
 PCOD8301267
Probable space group: I M M A
;
_chemical_formula_sum "Si O2"
_cell_formula_units_Z 72
_cell_length_a 27.240585
_cell_length_b 14.383231
_cell_length_c 9.357225
_cell_angle_alpha 90.000000
_cell_angle_beta 90.000000
_cell_angle_gamma 90.000000
_cell_volume 3666.232119
_symmetry_space_group_name_H-M "I M M A"
_symmetry_group_IT_number 74
_symmetry_cell_setting 'orthorhombic'
loop_
_space_group_symop_operation_xyz
x,y,z
-x,1/2-y,z
x,-y,-z
-x,1/2+y,-z
-x,-y,-z
x,1/2+y,-z
-x,y,z
x,1/2-y,z
1/2+x,1/2+y,1/2+z
1/2-x,-y,1/2+z
1/2+x,1/2-y,1/2-z
1/2-x,y,1/2-z
1/2-x,1/2-y,1/2-z
1/2+x,y,1/2-z
1/2-x,1/2+y,1/2+z
1/2+x,-y,1/2+z
loop_
_atom_site_type_symbol
_atom_site_label
_atom_site_fract_x
_atom_site_fract_y
_atom_site_fract_z
Si Si1 0.691513 0.250000 0.238410
Si Si2 0.305092 0.750000 0.203941
Si Si3 0.055042 0.593928 0.085014
Si Si4 0.447057 0.905237 0.083082
Si Si5 0.655461 0.388157 0.011113
Si Si6 0.628937 0.250000 0.520250
O O1 0.750000 0.250000 0.250000
O O2 0.674052 0.345000 0.160214
O O3 0.668175 0.250000 0.394207
O O4 0.250000 0.750000 0.250000
O O5 0.342077 0.750000 0.333525
O O6 0.312055 0.843781 0.113271
O O7 0.066315 0.576417 0.251684
O O8 0.094067 0.661230 0.012606
O O9 0.000000 0.634560 0.067337
O O10 0.060801 0.500000 0.000000
O O11 0.500000 0.851347 0.071243
O O12 0.400985 0.852636 0.011584
O O13 0.453533 0.000000 0.000000
O O14 0.660095 0.500000 0.000000
#
# Coordination Sequence:
#
# PCOD8301267 Si02
#       6
#     8   8  16  16  16   8
#     4  11  27  46  62  88 129 159 205 275 313 357
#     4  11  23  42  63  90 122 156 209 266 309 360
#     4  10  22  39  61  94 133 165 200 249 303 371
#     4   9  18  35  63  94 126 161 203 248 296 360
#     4  10  22  43  67  92 120 163 207 253 306 369
#     4  12  23  38  63  92 121 169 203 245 327 370
#
# _framework density 19.638691000000001
#
# number of rings (size 3 to 8) (size 9 to 14) (size 15 to 20)
#    0.000    1.778    2.222    1.667    6.222    0.889 
#    0.000    5.556    0.000    0.000    0.000    0.000 
#    0.000    0.000    0.000    0.000    0.000    0.000 
#
# Total GULP energy -446117.546577 kJ/mol
# GULP energy per Si atom -12392.154072 kJ/mol
# Density = 1.959399 g / cm^3
# Si number density = 19.638691 Si / 1000 Ang^3
#
#
#
# Elastic Constant Matrix: (Units=GPa)
#
#
# Indices 1 2 3 4 5 6 
#
# 1 148.1589 39.6514 40.9852 0.0000 0.0000 0.0000
# 2 39.6514 100.3606 36.4108 0.0000 0.0000 0.0000
# 3 40.9852 36.4108 107.9195 0.0000 0.0000 0.0000
# 4 0.0000 0.0000 0.0000 28.0227 0.0000 0.0000
# 5 0.0000 0.0000 0.0000 0.0000 43.2763 0.0000
# 6 0.0000 0.0000 0.0000 0.0000 0.0000 24.4712
#
#
#
# Elastic Compliance Matrix: (Units=1/GPa)
#
#
# Indices 1 2 3 4 5 6 
#
# 1 0.007999 -0.002345 -0.002246 0.000000 0.000000 0.000000
# 2 -0.002345 0.012041 -0.003172 0.000000 0.000000 0.000000
# 3 -0.002246 -0.003172 0.011190 0.000000 0.000000 0.000000
# 4 0.000000 0.000000 0.000000 0.035685 0.000000 0.000000
# 5 0.000000 0.000000 0.000000 0.000000 0.023107 0.000000
# 6 0.000000 0.000000 0.000000 0.000000 0.000000 0.040864
#
#
# Mechanical properties :
#
#
# Convention : Reuss Voigt Hill
#
# Bulk Modulus (GPa) = 63.68491 65.61490 64.64990
# Shear Modulus (GPa) = 32.97113 35.11348 34.04230
#
# Velocity S-wave (km/s) = 4.10187 4.23303 4.16797
# Velocity P-wave (km/s) = 7.41164 7.57463 7.49358
#
# Compressibility (1/GPa) = 0.01570231
#
# Stress axis : x y z
#
# Youngs Moduli (GPa) = 125.02238 83.04676 89.36944
#
# Poissons Ratio (x) = 0.19476 0.20076
# Poissons Ratio (y) = 0.29319 0.28348
# Poissons Ratio (z) = 0.28086 0.26343
#
# Static dielectric constant tensor:
#      x y z
#    x 4.045930 0.000000 0.000000 
#    y 0.000000 3.162840 0.000000 
#    z 0.000000 0.000000 3.984250 
# 
# 
# High freq. dielectric constant tensor:
#      x y z
#    x 1.785220 0.000000 0.000000 
#    y 0.000000 1.751850 0.000000 
#    z 0.000000 0.000000 1.772120 
# 
# From -- ./inp_files/14772.got.cif
#   From: 2010.03.12/outbox.cif.g09.slc.cpg/sg74_8_cif.got.tgz:14772.got - 2010.04.16 15:46:19.
