data_PCOD8301096
_publ_section_title
;
Structure prediction by ZEFSAII (Michael W. Deem and Ramdas Pophale) SiO2 
 PCOD8301096
Probable space group: I M M A
;
_chemical_formula_sum "Si O2"
_cell_formula_units_Z 112
_cell_length_a 26.823139
_cell_length_b 17.455196
_cell_length_c 11.758122
_cell_angle_alpha 90.000000
_cell_angle_beta 90.000000
_cell_angle_gamma 90.000000
_cell_volume 5505.189742
_symmetry_space_group_name_H-M "I M M A"
_symmetry_group_IT_number 74
_symmetry_cell_setting 'orthorhombic'
loop_
_space_group_symop_operation_xyz
x,y,z
-x,1/2-y,z
x,-y,-z
-x,1/2+y,-z
-x,-y,-z
x,1/2+y,-z
-x,y,z
x,1/2-y,z
1/2+x,1/2+y,1/2+z
1/2-x,-y,1/2+z
1/2+x,1/2-y,1/2-z
1/2-x,y,1/2-z
1/2-x,1/2-y,1/2-z
1/2+x,y,1/2-z
1/2-x,1/2+y,1/2+z
1/2+x,-y,1/2+z
loop_
_atom_site_type_symbol
_atom_site_label
_atom_site_fract_x
_atom_site_fract_y
_atom_site_fract_z
Si Si1 0.137982 0.659922 0.968872
Si Si2 0.058151 0.834809 0.592080
Si Si3 0.320962 0.563439 0.178884
Si Si4 0.720868 0.429227 0.574365
Si Si5 0.587980 0.839446 0.154304
Si Si6 0.056590 0.419208 0.870982
Si Si7 0.110105 0.440315 0.232927
O O1 0.130371 0.750000 0.952714
O O2 0.192177 0.645646 0.027419
O O3 0.092130 0.628089 0.044158
O O4 0.140082 0.618976 0.846253
O O5 0.082650 0.750000 0.608624
O O6 0.073473 0.869911 0.470274
O O7 0.072547 0.892033 0.691450
O O8 0.000000 0.825189 0.595804
O O9 0.293398 0.557542 0.297254
O O10 0.281529 0.572970 0.074586
O O11 0.354585 0.639208 0.176551
O O12 0.354564 0.486116 0.177270
O O13 0.701302 0.500000 0.500000
O O14 0.579903 0.750000 0.164578
O O15 0.553288 0.878434 0.248600
O O16 0.079806 0.503455 0.851918
O O17 0.000000 0.424762 0.919790
#
# Coordination Sequence:
#
# PCOD8301096 Si02
#       7
#    16  16  16  16  16  16  16
#     4  12  24  41  64  91 127 163 202 254 311 371
#     4  10  22  39  60  88 128 173 209 250 305 363
#     4  10  23  36  66  92 117 158 201 256 306 368
#     4  11  21  42  63  89 122 158 197 250 313 368
#     4  10  21  39  60  90 128 163 204 256 311 365
#     4  11  23  38  62  93 123 160 208 260 309 364
#     4  11  22  42  62  90 121 165 211 254 299 361
#
# _framework density 20.344439000000001
#
# number of rings (size 3 to 8) (size 9 to 14) (size 15 to 20)
#    0.000    1.286    4.286    2.143    2.000    5.714 
#    0.000    5.000    0.000    0.857    0.000    0.000 
#    0.000    0.000    0.000    0.000    0.000    0.000 
#
# Total GULP energy -694150.183912 kJ/mol
# GULP energy per Si atom -12395.538998 kJ/mol
# Density = 2.029813 g / cm^3
# Si number density = 20.344439 Si / 1000 Ang^3
#
#
#
# Elastic Constant Matrix: (Units=GPa)
#
#
# Indices 1 2 3 4 5 6 
#
# 1 117.3818 31.3354 20.3255 0.0000 0.0000 0.0000
# 2 31.3354 102.6839 30.2503 0.0000 0.0000 0.0000
# 3 20.3255 30.2503 61.8828 0.0000 0.0000 0.0000
# 4 0.0000 0.0000 0.0000 -60.9697 0.0000 0.0000
# 5 0.0000 0.0000 0.0000 0.0000 23.8351 0.0000
# 6 0.0000 0.0000 0.0000 0.0000 0.0000 41.1322
#
#
#
# Elastic Compliance Matrix: (Units=1/GPa)
#
#
# Indices 1 2 3 4 5 6 
#
# 1 0.009479 -0.002308 -0.001985 0.000000 0.000000 0.000000
# 2 -0.002308 0.011939 -0.005078 0.000000 0.000000 0.000000
# 3 -0.001985 -0.005078 0.019294 0.000000 0.000000 0.000000
# 4 0.000000 0.000000 0.000000 -0.016402 0.000000 0.000000
# 5 0.000000 0.000000 0.000000 0.000000 0.041955 0.000000
# 6 0.000000 0.000000 0.000000 0.000000 0.000000 0.024312
#
#
# Mechanical properties :
#
#
# Convention : Reuss Voigt Hill
#
# Bulk Modulus (GPa) = 45.51759 49.53010 47.52384
# Shear Modulus (GPa) = 42.86595 14.13534 28.50064
#
# Velocity S-wave (km/s) = 4.59520 2.63877 3.74693
# Velocity P-wave (km/s) = 7.11172 5.80368 6.49073
#
# Compressibility (1/GPa) = 0.02196953
#
# Stress axis : x y z
#
# Youngs Moduli (GPa) = 105.49581 83.75998 51.82966
#
# Poissons Ratio (x) = 0.19330 0.10290
# Poissons Ratio (y) = 0.24346 0.26320
# Poissons Ratio (z) = 0.20944 0.42534
#
# Static dielectric constant tensor:
#      x y z
#    x 3.989530 0.000000 0.000000 
#    y 0.000000 3.750680 0.000000 
#    z 0.000000 0.000000 2.294150 
# 
# 
# High freq. dielectric constant tensor:
#      x y z
#    x 1.795010 0.000000 0.000000 
#    y 0.000000 1.789590 0.000000 
#    z 0.000000 0.000000 1.798790 
# 
# From -- ./inp_files/27191.got.cif
#   From: 2010.03.12/outbox.cif.g09.slc.cpg/sg74_14_cif.got.tgz:27191.got - 2010.04.16 15:46:19.
