data_PCOD8301277
_publ_section_title
;
Structure prediction by ZEFSAII (Michael W. Deem and Ramdas Pophale) SiO2 
 PCOD8301277
Probable space group: I M M A
;
_chemical_formula_sum "Si O2"
_cell_formula_units_Z 64
_cell_length_a 27.234338
_cell_length_b 15.532389
_cell_length_c 6.482933
_cell_angle_alpha 90.000000
_cell_angle_beta 90.000000
_cell_angle_gamma 90.000000
_cell_volume 2742.373572
_symmetry_space_group_name_H-M "I M M A"
_symmetry_group_IT_number 74
_symmetry_cell_setting 'orthorhombic'
loop_
_space_group_symop_operation_xyz
x,y,z
-x,1/2-y,z
x,-y,-z
-x,1/2+y,-z
-x,-y,-z
x,1/2+y,-z
-x,y,z
x,1/2-y,z
1/2+x,1/2+y,1/2+z
1/2-x,-y,1/2+z
1/2+x,1/2-y,1/2-z
1/2-x,y,1/2-z
1/2-x,1/2-y,1/2-z
1/2+x,y,1/2-z
1/2-x,1/2+y,1/2+z
1/2+x,-y,1/2+z
loop_
_atom_site_type_symbol
_atom_site_label
_atom_site_fract_x
_atom_site_fract_y
_atom_site_fract_z
Si Si1 0.598189 0.750000 0.059311
Si Si2 0.553660 0.750000 0.653145
Si Si3 0.792424 0.750000 0.430294
Si Si4 0.132139 0.000000 0.000000
Si Si5 0.945361 0.390786 0.812516
Si Si6 0.199245 0.069215 0.333232
O O1 0.652346 0.750000 0.164956
O O2 0.567163 0.666050 0.114970
O O3 0.599367 0.750000 0.811426
O O4 0.500000 0.750000 0.762953
O O5 0.558143 0.665682 0.516721
O O6 0.750000 0.750000 0.250000
O O7 0.790493 0.664246 0.571656
O O8 0.096714 0.961409 0.174640
O O9 0.163929 0.069614 0.130947
O O10 0.000000 0.431053 0.787132
O O11 0.250000 0.031259 0.250000
O O12 0.179135 0.000000 0.500000
#
# Coordination Sequence:
#
# PCOD8301277 Si02
#       6
#     8   8   8   8  16  16
#     4  11  21  40  65  95 130 173 223 284 348 403
#     4   9  18  37  63  91 129 171 216 277 333 401
#     4  12  28  45  74 107 142 186 244 295 356 428
#     4  12  25  42  70  94 140 184 223 292 348 416
#     4  10  22  39  64  97 131 174 226 273 339 415
#     4  12  26  48  71 103 144 187 234 293 357 420
#
# _framework density 23.337448999999999
#
# number of rings (size 3 to 8) (size 9 to 14) (size 15 to 20)
#    0.000    1.000    1.250    6.375    3.500    1.000 
#    0.000    0.000    0.000    7.500    0.000    0.000 
#    0.000    0.000    0.000    0.000    0.000    0.000 
#
# Total GULP energy -396486.285067 kJ/mol
# GULP energy per Si atom -12390.196408 kJ/mol
# Density = 2.328433 g / cm^3
# Si number density = 23.337449 Si / 1000 Ang^3
#
#
#
# Elastic Constant Matrix: (Units=GPa)
#
#
# Indices 1 2 3 4 5 6 
#
# 1 155.9007 18.4359 42.0192 0.0000 0.0000 0.0000
# 2 18.4359 97.0293 26.0753 0.0000 0.0000 0.0000
# 3 42.0192 26.0753 93.1697 0.0000 0.0000 0.0000
# 4 0.0000 0.0000 0.0000-1121.2217 0.0000 0.0000
# 5 0.0000 0.0000 0.0000 0.0000 35.5106 0.0000
# 6 0.0000 0.0000 0.0000 0.0000 0.0000 23.2789
#
#
#
# Elastic Compliance Matrix: (Units=1/GPa)
#
#
# Indices 1 2 3 4 5 6 
#
# 1 0.007329 -0.000545 -0.003153 0.000000 0.000000 0.000000
# 2 -0.000545 0.011185 -0.002884 0.000000 0.000000 0.000000
# 3 -0.003153 -0.002884 0.012962 0.000000 0.000000 0.000000
# 4 0.000000 0.000000 0.000000 -0.000892 0.000000 0.000000
# 5 0.000000 0.000000 0.000000 0.000000 0.028161 0.000000
# 6 0.000000 0.000000 0.000000 0.000000 0.000000 0.042957
#
#
# Mechanical properties :
#
#
# Convention : Reuss Voigt Hill
#
# Bulk Modulus (GPa) = 54.61140 57.68449 56.14794
# Shear Modulus (GPa) = 41.33270 -195.18181 -76.92455
#
# Velocity S-wave (km/s) = 4.21300 -9.15512 -5.74747
# Velocity P-wave (km/s) = 6.86421 9.32650 4.46466
#
# Compressibility (1/GPa) = 0.01831120
#
# Stress axis : x y z
#
# Youngs Moduli (GPa) = 136.45351 89.40625 77.14783
#
# Poissons Ratio (x) = 0.04875 0.24321
# Poissons Ratio (y) = 0.07440 0.22252
# Poissons Ratio (z) = 0.43017 0.25788
#
# Static dielectric constant tensor:
#      x y z
#    x 4.555690 0.000000 0.000000 
#    y 0.000000 4.120060 0.000000 
#    z 0.000000 0.000000 4.044060 
# 
# 
# High freq. dielectric constant tensor:
#      x y z
#    x 1.943590 0.000000 0.000000 
#    y 0.000000 1.910920 0.000000 
#    z 0.000000 0.000000 1.917090 
# 
# From -- ./inp_files/4968.got.cif
#   From: 2010.03.12/outbox.cif.g09.slc.cpg/sg74_3_cif.got.tgz:4968.got - 2010.04.16 15:46:19.
