data_PCOD8301424
_publ_section_title
;
Structure prediction by ZEFSAII (Michael W. Deem and Ramdas Pophale) SiO2 
 PCOD8301424
Probable space group: I M M A
;
_chemical_formula_sum "Si O2"
_cell_formula_units_Z 104
_cell_length_a 25.940571
_cell_length_b 9.072641
_cell_length_c 21.355066
_cell_angle_alpha 90.000000
_cell_angle_beta 90.000000
_cell_angle_gamma 90.000000
_cell_volume 5025.903850
_symmetry_space_group_name_H-M "I M M A"
_symmetry_group_IT_number 74
_symmetry_cell_setting 'orthorhombic'
loop_
_space_group_symop_operation_xyz
x,y,z
-x,1/2-y,z
x,-y,-z
-x,1/2+y,-z
-x,-y,-z
x,1/2+y,-z
-x,y,z
x,1/2-y,z
1/2+x,1/2+y,1/2+z
1/2-x,-y,1/2+z
1/2+x,1/2-y,1/2-z
1/2-x,y,1/2-z
1/2-x,1/2-y,1/2-z
1/2+x,y,1/2-z
1/2-x,1/2+y,1/2+z
1/2+x,-y,1/2+z
loop_
_atom_site_type_symbol
_atom_site_label
_atom_site_fract_x
_atom_site_fract_y
_atom_site_fract_z
Si Si1 0.109963 0.077043 0.380817
Si Si2 0.126333 0.922365 0.935194
Si Si3 0.640920 0.415834 0.758649
Si Si4 0.000000 0.577289 0.566914
Si Si5 0.442707 0.416617 0.652388
Si Si6 0.793174 0.918637 0.146748
Si Si7 0.200908 0.079271 0.560411
O O1 0.117937 0.250000 0.389261
O O2 0.050457 0.031314 0.392802
O O3 0.130307 0.032780 0.312478
O O4 0.144882 0.992550 0.431220
O O5 0.124378 0.750000 0.945670
O O6 0.073078 0.976647 0.904344
O O7 0.173443 0.964479 0.890732
O O8 0.136233 0.000000 0.000000
O O9 0.641720 0.250000 0.787243
O O10 0.594232 0.436560 0.711013
O O11 0.695176 0.444741 0.721101
O O12 0.000000 0.500000 0.500000
O O13 0.000000 0.750000 0.553621
O O14 0.500000 0.459221 0.674396
O O15 0.440102 0.250000 0.626897
O O16 0.810272 0.750000 0.130622
O O17 0.734040 0.942843 0.124818
O O18 0.194803 0.250000 0.544392
O O19 0.227275 0.000000 0.500000
#
# Coordination Sequence:
#
# PCOD8301424 Si02
#       7
#    16  16  16   8  16  16  16
#     4  11  24  41  61  89 123 159 198 246 299 356
#     4  11  21  33  52  78 110 149 194 242 296 354
#     4   9  19  37  60  87 117 153 197 241 291 350
#     4  10  24  44  64  88 120 158 199 246 301 354
#     4   9  19  36  56  78 108 147 193 245 297 355
#     4   9  20  39  61  85 118 156 195 241 293 352
#     4  11  23  40  63  91 121 156 197 246 299 356
#
# _framework density 20.692796000000001
#
# number of rings (size 3 to 8) (size 9 to 14) (size 15 to 20)
#    0.000    2.000    0.000    4.154    1.077    8.615 
#    0.000    3.077    0.000    0.000    0.000    0.000 
#    0.000    0.000    0.000    0.000    0.000    0.000 
#
# Total GULP energy -644655.795409 kJ/mol
# GULP energy per Si atom -12397.226835 kJ/mol
# Density = 2.064570 g / cm^3
# Si number density = 20.692796 Si / 1000 Ang^3
#
#
#
# Elastic Constant Matrix: (Units=GPa)
#
#
# Indices 1 2 3 4 5 6 
#
# 1 116.5394 39.4823 29.2259 0.0000 0.0000 0.0000
# 2 39.4823 116.7142 45.4459 0.0000 0.0000 0.0000
# 3 29.2259 45.4459 92.0490 0.0000 0.0000 0.0000
# 4 0.0000 0.0000 0.0000 39.9203 0.0000 0.0000
# 5 0.0000 0.0000 0.0000 0.0000 18.1520 0.0000
# 6 0.0000 0.0000 0.0000 0.0000 0.0000 23.1046
#
#
#
# Elastic Compliance Matrix: (Units=1/GPa)
#
#
# Indices 1 2 3 4 5 6 
#
# 1 0.009940 -0.002641 -0.001852 0.000000 0.000000 0.000000
# 2 -0.002641 0.011309 -0.004745 0.000000 0.000000 0.000000
# 3 -0.001852 -0.004745 0.013794 0.000000 0.000000 0.000000
# 4 0.000000 0.000000 0.000000 0.025050 0.000000 0.000000
# 5 0.000000 0.000000 0.000000 0.000000 0.055090 0.000000
# 6 0.000000 0.000000 0.000000 0.000000 0.000000 0.043281
#
#
# Mechanical properties :
#
#
# Convention : Reuss Voigt Hill
#
# Bulk Modulus (GPa) = 60.36017 61.51230 60.93624
# Shear Modulus (GPa) = 27.40273 30.31195 28.85734
#
# Velocity S-wave (km/s) = 3.64299 3.83149 3.73843
# Velocity P-wave (km/s) = 6.85041 7.02601 6.93877
#
# Compressibility (1/GPa) = 0.01656722
#
# Stress axis : x y z
#
# Youngs Moduli (GPa) = 100.60247 88.42523 72.49372
#
# Poissons Ratio (x) = 0.23357 0.13425
# Poissons Ratio (y) = 0.26574 0.34396
# Poissons Ratio (z) = 0.18630 0.41955
#
# Static dielectric constant tensor:
#      x y z
#    x 3.974890 0.000000 0.000000 
#    y 0.000000 3.729300 0.000000 
#    z 0.000000 0.000000 3.821130 
# 
# 
# High freq. dielectric constant tensor:
#      x y z
#    x 1.814400 0.000000 0.000000 
#    y 0.000000 1.803450 0.000000 
#    z 0.000000 0.000000 1.809450 
# 
# From -- ./inp_files/55188.got.cif
#   From: 2010.03.12/outbox.cif.g09.slc.cpg/sg74_28_cif.got.tgz:55188.got - 2010.04.16 15:46:19.
