data_PCOD8301198
_publ_section_title
;
Structure prediction by ZEFSAII (Michael W. Deem and Ramdas Pophale) SiO2 
 PCOD8301198
Probable space group: I M M A
;
_chemical_formula_sum "Si O2"
_cell_formula_units_Z 72
_cell_length_a 10.216121
_cell_length_b 24.298950
_cell_length_c 14.661594
_cell_angle_alpha 90.000000
_cell_angle_beta 90.000000
_cell_angle_gamma 90.000000
_cell_volume 3639.608952
_symmetry_space_group_name_H-M "I M M A"
_symmetry_group_IT_number 74
_symmetry_cell_setting 'orthorhombic'
loop_
_space_group_symop_operation_xyz
x,y,z
-x,1/2-y,z
x,-y,-z
-x,1/2+y,-z
-x,-y,-z
x,1/2+y,-z
-x,y,z
x,1/2-y,z
1/2+x,1/2+y,1/2+z
1/2-x,-y,1/2+z
1/2+x,1/2-y,1/2-z
1/2-x,y,1/2-z
1/2-x,1/2-y,1/2-z
1/2+x,y,1/2-z
1/2-x,1/2+y,1/2+z
1/2+x,-y,1/2+z
loop_
_atom_site_type_symbol
_atom_site_label
_atom_site_fract_x
_atom_site_fract_y
_atom_site_fract_z
Si Si1 0.000000 0.560888 0.258970
Si Si2 0.753101 0.097144 0.142524
Si Si3 0.500000 0.468529 0.094125
Si Si4 0.847276 0.185765 0.479946
Si Si5 0.000000 0.521619 0.898944
Si Si6 0.357143 0.661656 0.184634
O O1 0.000000 0.535159 0.158351
O O2 0.872259 0.598495 0.279563
O O3 0.000000 0.509346 0.323197
O O4 0.750000 0.107850 0.250000
O O5 0.626993 0.068329 0.101153
O O6 0.751017 0.156156 0.091424
O O7 0.875962 0.059601 0.119851
O O8 0.500000 0.500000 0.000000
O O9 0.816561 0.250000 0.473952
O O10 0.809973 0.163561 0.580501
O O11 0.000000 0.173585 0.458084
O O12 0.000000 0.500000 0.000000
O O13 0.500000 0.691797 0.192016
O O14 0.250000 0.690905 0.250000
#
# Coordination Sequence:
#
# PCOD8301198 Si02
#       6
#     8  16   8  16   8  16
#     4  10  22  36  58  92 126 170 197 254 305 382
#     4  12  24  43  63  96 125 167 216 268 306 389
#     4  12  22  38  66  90 124 172 219 250 311 378
#     4  10  22  44  69  93 122 168 221 275 322 373
#     4  12  28  40  61  92 143 172 202 256 325 375
#     4   9  21  36  64  94 128 161 213 257 317 391
#
# _framework density 19.782343999999998
#
# number of rings (size 3 to 8) (size 9 to 14) (size 15 to 20)
#    0.667    0.667    3.333    2.000    6.222    0.889 
#    0.000    0.556    0.000    0.000    0.000    0.000 
#    0.000    0.000    0.000    0.000    0.000    0.000 
#
# Total GULP energy -446182.762881 kJ/mol
# GULP energy per Si atom -12393.965636 kJ/mol
# Density = 1.973732 g / cm^3
# Si number density = 19.782344 Si / 1000 Ang^3
#
#
#
# Elastic Constant Matrix: (Units=GPa)
#
#
# Indices 1 2 3 4 5 6 
#
# 1 102.4610 39.8080 49.2416 0.0001 0.0000 0.0000
# 2 39.8080 116.9437 71.2277 0.0000 0.0000 0.0000
# 3 49.2416 71.2277 182.7334 -0.0002 -0.0005 -0.0003
# 4 0.0001 0.0000 -0.0002 17.2086 -0.0002 0.0001
# 5 0.0000 0.0000 -0.0005 -0.0002 35.6058 0.0000
# 6 0.0000 0.0000 -0.0003 0.0001 0.0000 -0.5153
#
#
#
# Elastic Compliance Matrix: (Units=1/GPa)
#
#
# Indices 1 2 3 4 5 6 
#
# 1 0.011845 -0.002738 -0.002125 0.000000 0.000000 0.000001
# 2 -0.002738 0.011846 -0.003880 0.000000 0.000000 0.000002
# 3 -0.002125 -0.003880 0.007557 0.000000 0.000000 -0.000004
# 4 0.000000 0.000000 0.000000 0.058111 0.000000 0.000007
# 5 0.000000 0.000000 0.000000 0.000000 0.028085 0.000000
# 6 0.000001 0.000002 -0.000004 0.000007 0.000000 -1.940501
#
#
# Mechanical properties :
#
#
# Convention : Reuss Voigt Hill
#
# Bulk Modulus (GPa) = 72.65553 80.29919 76.47736
# Shear Modulus (GPa) = -2.77626 26.58386 11.90380
#
# Velocity S-wave (km/s) = -1.18594 3.66979 2.45570
# Velocity P-wave (km/s) = 5.91032 7.65741 6.83988
#
# Compressibility (1/GPa) = 0.01376358
#
# Stress axis : x y z
#
# Youngs Moduli (GPa) = 84.42678 84.41542 132.32321
#
# Poissons Ratio (x) = 0.23112 0.28113
# Poissons Ratio (y) = 0.23115 0.51338
# Poissons Ratio (z) = 0.17937 0.32751
#
# Static dielectric constant tensor:
#      x y z
#    x 3.459330 0.000000 0.000000 
#    y 0.000000 3.565360 0.000000 
#    z 0.000000 0.000000 3.627120 
# 
# 
# High freq. dielectric constant tensor:
#      x y z
#    x 1.762000 0.000000 0.000000 
#    y 0.000000 1.771940 0.000000 
#    z 0.000000 0.000000 1.781320 
# 
# From -- ./inp_files/29228.got.cif
#   From: 2010.03.12/outbox.cif.g09.slc.cpg/sg74_15_cif.got.tgz:29228.got - 2010.04.16 15:46:19.
