data_PCOD8301735
_publ_section_title
;
Structure prediction by ZEFSAII (Michael W. Deem and Ramdas Pophale) SiO2 
 PCOD8301735
Probable space group: I M M A
;
_chemical_formula_sum "Si O2"
_cell_formula_units_Z 88
_cell_length_a 15.071979
_cell_length_b 22.568952
_cell_length_c 11.558303
_cell_angle_alpha 90.000000
_cell_angle_beta 90.000000
_cell_angle_gamma 90.000000
_cell_volume 3931.658139
_symmetry_space_group_name_H-M "I M M A"
_symmetry_group_IT_number 74
_symmetry_cell_setting 'orthorhombic'
loop_
_space_group_symop_operation_xyz
x,y,z
-x,1/2-y,z
x,-y,-z
-x,1/2+y,-z
-x,-y,-z
x,1/2+y,-z
-x,y,z
x,1/2-y,z
1/2+x,1/2+y,1/2+z
1/2-x,-y,1/2+z
1/2+x,1/2-y,1/2-z
1/2-x,y,1/2-z
1/2-x,1/2-y,1/2-z
1/2+x,y,1/2-z
1/2-x,1/2+y,1/2+z
1/2+x,-y,1/2+z
loop_
_atom_site_type_symbol
_atom_site_label
_atom_site_fract_x
_atom_site_fract_y
_atom_site_fract_z
Si Si1 0.836606 0.055874 0.581570
Si Si2 0.500000 0.819664 0.294800
Si Si3 0.900553 0.501775 0.181210
Si Si4 0.837027 0.875708 0.815800
Si Si5 0.000000 0.867833 0.460822
Si Si6 0.152138 0.613068 0.071746
Si Si7 0.500000 0.816879 0.803332
O O1 0.874466 0.037974 0.705116
O O2 0.754336 0.100400 0.607240
O O3 0.913643 0.091735 0.516771
O O4 0.809827 0.000000 0.500000
O O5 0.500000 0.750000 0.315429
O O6 0.500000 0.834816 0.160478
O O7 0.592008 0.845361 0.346702
O O8 0.833915 0.446958 0.172626
O O9 0.893382 0.547447 0.072836
O O10 0.000000 0.477179 0.191282
O O11 0.750000 0.852942 0.750000
O O12 0.916023 0.851630 0.741380
O O13 0.846352 0.853867 0.947755
O O14 0.000000 0.817144 0.558057
O O15 0.500000 0.750000 0.757106
#
# Coordination Sequence:
#
# PCOD8301735 Si02
#       7
#    16   8  16  16   8  16   8
#     4  12  23  40  70 108 150 183 221 279 361 442
#     4  12  28  50  73 101 139 193 253 303 353 415
#     4  12  22  39  67 109 146 183 221 278 358 436
#     4  12  26  45  69 103 140 184 235 281 353 432
#     4  12  24  48  73 103 141 178 240 291 356 428
#     4  12  24  44  68 102 147 185 232 290 350 421
#     4  12  28  48  72  95 131 181 237 299 348 405
#
# _framework density 22.382411999999999
#
# number of rings (size 3 to 8) (size 9 to 14) (size 15 to 20)
#    0.000    0.000    4.545    7.636    0.000    2.545 
#    0.000    4.545    0.000    0.000    0.000    0.000 
#    0.000    0.000    0.000    0.000    0.000    0.000 
#
# Total GULP energy -545492.098754 kJ/mol
# GULP energy per Si atom -12397.547699 kJ/mol
# Density = 2.233147 g / cm^3
# Si number density = 22.382412 Si / 1000 Ang^3
#
#
#
# Elastic Constant Matrix: (Units=GPa)
#
#
# Indices 1 2 3 4 5 6 
#
# 1 156.2466 29.7722 17.3321 -0.0001 0.0000 0.0000
# 2 29.7722 102.6859 6.4465 0.0001 0.0000 0.0000
# 3 17.3321 6.4465 91.0111 0.0005 0.0001 0.0001
# 4 -0.0001 0.0001 0.0005 20.1923 0.0001 0.0000
# 5 0.0000 0.0000 0.0001 0.0001 26.8891 0.0000
# 6 0.0000 0.0000 0.0001 0.0000 0.0000 6.6908
#
#
#
# Elastic Compliance Matrix: (Units=1/GPa)
#
#
# Indices 1 2 3 4 5 6 
#
# 1 0.006898 -0.001926 -0.001177 0.000000 0.000000 0.000000
# 2 -0.001926 0.010320 -0.000364 0.000000 0.000000 0.000000
# 3 -0.001177 -0.000364 0.011238 0.000000 0.000000 0.000000
# 4 0.000000 0.000000 0.000000 0.049524 0.000000 0.000000
# 5 0.000000 0.000000 0.000000 0.000000 0.037190 0.000000
# 6 0.000000 0.000000 0.000000 0.000000 0.000000 0.149459
#
#
# Mechanical properties :
#
#
# Convention : Reuss Voigt Hill
#
# Bulk Modulus (GPa) = 46.46759 50.78282 48.62521
# Shear Modulus (GPa) = 17.93811 30.51395 24.22603
#
# Velocity S-wave (km/s) = 2.83404 3.69630 3.29351
# Velocity P-wave (km/s) = 5.61381 6.39959 6.01954
#
# Compressibility (1/GPa) = 0.02152037
#
# Stress axis : x y z
#
# Youngs Moduli (GPa) = 144.97570 96.90197 88.98659
#
# Poissons Ratio (x) = 0.18663 0.10475
# Poissons Ratio (y) = 0.27922 0.03241
# Poissons Ratio (z) = 0.17066 0.03529
#
# Static dielectric constant tensor:
#      x y z
#    x 4.241650 0.000000 0.000000 
#    y 0.000000 3.782100 0.000000 
#    z 0.000000 0.000000 4.264800 
# 
# 
# High freq. dielectric constant tensor:
#      x y z
#    x 1.900170 0.000000 0.000000 
#    y 0.000000 1.847550 0.000000 
#    z 0.000000 0.000000 1.900890 
# 
# From -- ./inp_files/20709.got.cif
#   From: 2010.03.12/outbox.cif.g09.slc.cpg/sg74_11_cif.got.tgz:20709.got - 2010.04.16 15:46:19.
