data_PCOD8301056
_publ_section_title
;
Structure prediction by ZEFSAII (Michael W. Deem and Ramdas Pophale) SiO2 
 PCOD8301056
Probable space group: I M M A
;
_chemical_formula_sum "Si O2"
_cell_formula_units_Z 112
_cell_length_a 14.146978
_cell_length_b 25.553723
_cell_length_c 14.600591
_cell_angle_alpha 90.000000
_cell_angle_beta 90.000000
_cell_angle_gamma 90.000000
_cell_volume 5278.229825
_symmetry_space_group_name_H-M "I M M A"
_symmetry_group_IT_number 74
_symmetry_cell_setting 'orthorhombic'
loop_
_space_group_symop_operation_xyz
x,y,z
-x,1/2-y,z
x,-y,-z
-x,1/2+y,-z
-x,-y,-z
x,1/2+y,-z
-x,y,z
x,1/2-y,z
1/2+x,1/2+y,1/2+z
1/2-x,-y,1/2+z
1/2+x,1/2-y,1/2-z
1/2-x,y,1/2-z
1/2-x,1/2-y,1/2-z
1/2+x,y,1/2-z
1/2-x,1/2+y,1/2+z
1/2+x,-y,1/2+z
loop_
_atom_site_type_symbol
_atom_site_label
_atom_site_fract_x
_atom_site_fract_y
_atom_site_fract_z
Si Si1 0.762866 0.310191 0.357593
Si Si2 0.607773 0.997935 0.213663
Si Si3 0.104150 0.309816 0.004783
Si Si4 0.298130 0.085009 0.912967
Si Si5 0.389490 0.404598 0.097996
Si Si6 0.394570 0.036745 0.586497
Si Si7 0.744209 0.692476 0.142113
O O1 0.785195 0.250000 0.385934
O O2 0.750000 0.314728 0.250000
O O3 0.671968 0.332133 0.414077
O O4 0.849874 0.346831 0.384758
O O5 0.500000 0.986463 0.185691
O O6 0.638193 0.055543 0.179540
O O7 0.622967 0.997648 0.322496
O O8 0.670428 0.952594 0.168740
O O9 0.087292 0.250000 0.029912
O O10 0.000000 0.337688 0.004725
O O11 0.153014 0.314605 0.904975
O O12 0.324030 0.145779 0.892283
O O13 0.183513 0.082246 0.921708
O O14 0.348477 0.068503 0.006392
O O15 0.500000 0.398107 0.086855
O O16 0.500000 0.061720 0.588533
O O17 0.381800 0.000000 0.500000
O O18 0.702739 0.750000 0.115607
O O19 0.750000 0.687163 0.250000
#
# Coordination Sequence:
#
# PCOD8301056 Si02
#       7
#    16  16  16  16  16  16  16
#     4  10  22  41  65  95 130 168 215 266 317 376
#     4  10  22  41  63  88 121 160 210 261 311 380
#     4   9  18  37  63  89 122 164 209 258 314 376
#     4  12  22  38  64  89 120 164 205 255 313 379
#     4  11  24  41  63  92 126 167 211 258 314 376
#     4  10  22  39  60  90 124 158 200 257 319 376
#     4  10  21  38  61  89 124 163 208 261 314 375
#
# _framework density 21.219235000000001
#
# number of rings (size 3 to 8) (size 9 to 14) (size 15 to 20)
#    0.000    1.714    1.429    3.000    0.000    4.857 
#    0.000    2.857    0.000    3.000    0.000    0.000 
#    0.000    0.000    0.000    0.000    0.000    0.000 
#
# Total GULP energy -694166.070240 kJ/mol
# GULP energy per Si atom -12395.822683 kJ/mol
# Density = 2.117094 g / cm^3
# Si number density = 21.219235 Si / 1000 Ang^3
#
#
#
# Elastic Constant Matrix: (Units=GPa)
#
#
# Indices 1 2 3 4 5 6 
#
# 1 121.9941 54.2789 57.6211 0.0002 0.0000 0.0000
# 2 54.2789 118.4185 44.3433 0.0030 0.0001 0.0001
# 3 57.6211 44.3433 158.5205 0.0019 0.0001 0.0000
# 4 0.0002 0.0030 0.0019 139.8573 0.0002 0.0003
# 5 0.0000 0.0001 0.0001 0.0002 27.1479 0.0000
# 6 0.0000 0.0001 0.0000 0.0003 0.0000 26.9682
#
#
#
# Elastic Compliance Matrix: (Units=1/GPa)
#
#
# Indices 1 2 3 4 5 6 
#
# 1 0.011453 -0.004123 -0.003010 0.000000 0.000000 0.000000
# 2 -0.004123 0.010917 -0.001555 0.000000 0.000000 0.000000
# 3 -0.003010 -0.001555 0.007837 0.000000 0.000000 0.000000
# 4 0.000000 0.000000 0.000000 0.007150 0.000000 0.000000
# 5 0.000000 0.000000 0.000000 0.000000 0.036835 0.000000
# 6 0.000000 0.000000 0.000000 0.000000 0.000000 0.037081
#
#
# Mechanical properties :
#
#
# Convention : Reuss Voigt Hill
#
# Bulk Modulus (GPa) = 77.93151 79.04663 78.48907
# Shear Modulus (GPa) = 37.61496 54.97400 46.29448
#
# Velocity S-wave (km/s) = 4.21489 5.09548 4.67596
# Velocity P-wave (km/s) = 7.77776 8.48244 8.13773
#
# Compressibility (1/GPa) = 0.01283178
#
# Stress axis : x y z
#
# Youngs Moduli (GPa) = 87.31318 91.60329 127.59266
#
# Poissons Ratio (x) = 0.37764 0.38404
# Poissons Ratio (y) = 0.35996 0.19843
# Poissons Ratio (z) = 0.26280 0.14246
#
# Static dielectric constant tensor:
#      x y z
#    x 4.050230 0.000000 0.000000 
#    y 0.000000 3.906400 0.000000 
#    z 0.000000 0.000000 3.798670 
# 
# 
# High freq. dielectric constant tensor:
#      x y z
#    x 1.820170 0.000000 0.000000 
#    y 0.000000 1.832740 0.000000 
#    z 0.000000 0.000000 1.845610 
# 
# From -- ./inp_files/32708.got.cif
#   From: 2010.03.12/outbox.cif.g09.slc.cpg/sg74_17_cif.got.tgz:32708.got - 2010.04.16 15:46:19.
