data_PCOD8301174
_publ_section_title
;
Structure prediction by ZEFSAII (Michael W. Deem and Ramdas Pophale) SiO2 
 PCOD8301174
Probable space group: I M M A
;
_chemical_formula_sum "Si O2"
_cell_formula_units_Z 96
_cell_length_a 15.299083
_cell_length_b 13.353418
_cell_length_c 21.528749
_cell_angle_alpha 90.000000
_cell_angle_beta 90.000000
_cell_angle_gamma 90.000000
_cell_volume 4398.216860
_symmetry_space_group_name_H-M "I M M A"
_symmetry_group_IT_number 74
_symmetry_cell_setting 'orthorhombic'
loop_
_space_group_symop_operation_xyz
x,y,z
-x,1/2-y,z
x,-y,-z
-x,1/2+y,-z
-x,-y,-z
x,1/2+y,-z
-x,y,z
x,1/2-y,z
1/2+x,1/2+y,1/2+z
1/2-x,-y,1/2+z
1/2+x,1/2-y,1/2-z
1/2-x,y,1/2-z
1/2-x,1/2-y,1/2-z
1/2+x,y,1/2-z
1/2-x,1/2+y,1/2+z
1/2+x,-y,1/2+z
loop_
_atom_site_type_symbol
_atom_site_label
_atom_site_fract_x
_atom_site_fract_y
_atom_site_fract_z
Si Si1 0.680743 0.639863 0.424330
Si Si2 0.351029 0.136317 0.258551
Si Si3 0.902101 0.540901 0.638405
Si Si4 0.738371 0.135984 0.052151
Si Si5 0.402947 0.944857 0.616432
Si Si6 0.695313 0.139490 0.808545
O O1 0.639333 0.750000 0.439370
O O2 0.743073 0.604245 0.481108
O O3 0.606829 0.557568 0.410452
O O4 0.739464 0.648830 0.364847
O O5 0.364645 0.250000 0.281577
O O6 0.250000 0.109640 0.250000
O O7 0.397296 0.124907 0.191843
O O8 0.392510 0.060388 0.308908
O O9 0.834734 0.564310 0.582564
O O10 0.881390 0.435980 0.672604
O O11 0.000000 0.536896 0.610588
O O12 0.704710 0.250000 0.056471
O O13 0.830020 0.127927 0.088343
O O14 0.500000 0.908639 0.597576
O O15 0.655854 0.250000 0.793306
O O16 0.750000 0.097603 0.750000
#
# Coordination Sequence:
#
# PCOD8301174 Si02
#       6
#    16  16  16  16  16  16
#     4  10  22  42  67  90 125 173 216 265 327 392
#     4  11  22  40  65  93 132 177 217 265 325 390
#     4  12  24  39  66  99 133 176 222 273 331 389
#     4  11  24  42  63  91 133 177 218 267 325 397
#     4  12  24  39  65  97 130 169 216 272 330 388
#     4  10  21  41  68  94 125 169 220 274 332 392
#
# _framework density 21.827027999999999
#
# number of rings (size 3 to 8) (size 9 to 14) (size 15 to 20)
#    0.000    1.000    3.333    3.500    0.000    5.333 
#    0.000    3.333    0.000    8.000    0.000    0.000 
#    0.000    0.000    0.000    0.000    0.000    0.000 
#
# Total GULP energy -595123.663595 kJ/mol
# GULP energy per Si atom -12398.409658 kJ/mol
# Density = 2.177735 g / cm^3
# Si number density = 21.827028 Si / 1000 Ang^3
#
#
#
# Elastic Constant Matrix: (Units=GPa)
#
#
# Indices 1 2 3 4 5 6 
#
# 1 146.3987 38.4856 41.7936 0.0000 0.0000 0.0000
# 2 38.4856 107.9658 27.2358 0.0000 0.0000 0.0000
# 3 41.7936 27.2358 132.0172 0.0000 0.0000 0.0000
# 4 0.0000 0.0000 0.0000 35.6418 0.0000 0.0000
# 5 0.0000 0.0000 0.0000 0.0000 12.6546 0.0000
# 6 0.0000 0.0000 0.0000 0.0000 0.0000 9.9252
#
#
#
# Elastic Compliance Matrix: (Units=1/GPa)
#
#
# Indices 1 2 3 4 5 6 
#
# 1 0.008035 -0.002345 -0.002060 0.000000 0.000000 0.000000
# 2 -0.002345 0.010455 -0.001415 0.000000 0.000000 0.000000
# 3 -0.002060 -0.001415 0.008519 0.000000 0.000000 0.000000
# 4 0.000000 0.000000 0.000000 0.028057 0.000000 0.000000
# 5 0.000000 0.000000 0.000000 0.000000 0.079022 0.000000
# 6 0.000000 0.000000 0.000000 0.000000 0.000000 0.100754
#
#
# Mechanical properties :
#
#
# Convention : Reuss Voigt Hill
#
# Bulk Modulus (GPa) = 65.06083 66.82352 65.94218
# Shear Modulus (GPa) = 19.87255 30.23546 25.05401
#
# Velocity S-wave (km/s) = 3.02065 3.72591 3.39166
# Velocity P-wave (km/s) = 6.48367 7.01365 6.75386
#
# Compressibility (1/GPa) = 0.01537023
#
# Stress axis : x y z
#
# Youngs Moduli (GPa) = 124.45413 95.65002 117.38770
#
# Poissons Ratio (x) = 0.22425 0.24182
# Poissons Ratio (y) = 0.29179 0.16606
# Poissons Ratio (z) = 0.25638 0.13531
#
# Static dielectric constant tensor:
#      x y z
#    x 3.640670 0.000000 0.000000 
#    y 0.000000 4.520290 0.000000 
#    z 0.000000 0.000000 4.139750 
# 
# 
# High freq. dielectric constant tensor:
#      x y z
#    x 1.821630 0.000000 0.000000 
#    y 0.000000 1.872840 0.000000 
#    z 0.000000 0.000000 1.868060 
# 
# From -- ./inp_files/51831.got.cif
#   From: 2010.03.12/outbox.cif.g09.slc.cpg/sg74_26_cif.got.tgz:51831.got - 2010.04.16 15:46:19.
