data_PCOD8301260
_publ_section_title
;
Structure prediction by ZEFSAII (Michael W. Deem and Ramdas Pophale) SiO2 
 PCOD8301260
Probable space group: I M M A
;
_chemical_formula_sum "Si O2"
_cell_formula_units_Z 116
_cell_length_a 8.824231
_cell_length_b 25.954296
_cell_length_c 25.138760
_cell_angle_alpha 90.000000
_cell_angle_beta 90.000000
_cell_angle_gamma 90.000000
_cell_volume 5757.447329
_symmetry_space_group_name_H-M "I M M A"
_symmetry_group_IT_number 74
_symmetry_cell_setting 'orthorhombic'
loop_
_space_group_symop_operation_xyz
x,y,z
-x,1/2-y,z
x,-y,-z
-x,1/2+y,-z
-x,-y,-z
x,1/2+y,-z
-x,y,z
x,1/2-y,z
1/2+x,1/2+y,1/2+z
1/2-x,-y,1/2+z
1/2+x,1/2-y,1/2-z
1/2-x,y,1/2-z
1/2-x,1/2-y,1/2-z
1/2+x,y,1/2-z
1/2-x,1/2+y,1/2+z
1/2+x,-y,1/2+z
loop_
_atom_site_type_symbol
_atom_site_label
_atom_site_fract_x
_atom_site_fract_y
_atom_site_fract_z
Si Si1 0.174793 0.965199 0.449835
Si Si2 0.823505 0.308942 0.606359
Si Si3 0.321915 0.635748 0.484413
Si Si4 0.500000 0.250000 0.081366
Si Si5 0.176248 0.398070 0.195255
Si Si6 0.177603 0.880233 0.194939
Si Si7 0.825507 0.491255 0.846306
Si Si8 0.663599 0.851980 0.905748
O O1 0.280835 0.915120 0.451044
O O2 0.219754 0.997403 0.397850
O O3 0.000000 0.948075 0.447651
O O4 0.211002 0.000000 0.500000
O O5 0.795636 0.250000 0.622865
O O6 0.758743 0.316895 0.546584
O O7 0.740926 0.345612 0.647672
O O8 0.000000 0.322348 0.604906
O O9 0.500000 0.644946 0.484434
O O10 0.262063 0.629949 0.543884
O O11 0.636294 0.209080 0.091305
O O12 0.250000 0.379020 0.250000
O O13 0.205872 0.459209 0.189884
O O14 0.248950 0.366250 0.147554
O O15 0.000000 0.385035 0.196495
O O16 0.250000 0.861460 0.250000
O O17 0.220259 0.939906 0.185817
O O18 0.000000 0.871211 0.198124
O O19 0.000000 0.488735 0.864643
O O20 0.500000 0.881596 0.907982
#
# Coordination Sequence:
#
# PCOD8301260 Si02
#       8
#    16  16  16   4  16  16  16  16
#     4  11  23  37  58  90 129 172 215 254 312 379
#     4  11  25  43  65  92 123 166 217 270 323 376
#     4  12  24  39  63  96 131 169 210 264 323 386
#     4   8  24  44  72  92 128 168 216 268 336 390
#     4  11  23  41  67  98 133 171 217 267 323 390
#     4  11  23  41  64  91 126 167 213 264 319 378
#     4  10  22  39  60  92 129 170 213 260 318 378
#     4  10  22  43  67  93 127 165 214 263 326 383
#
# _framework density 20.147818000000001
#
# number of rings (size 3 to 8) (size 9 to 14) (size 15 to 20)
#    0.414    0.828    1.379    4.552    0.966    6.345 
#    0.000    1.379    0.000    0.000    0.000    0.000 
#    0.000    0.000    0.000    0.000    0.000    0.000 
#
# Total GULP energy -718548.549415 kJ/mol
# GULP energy per Si atom -12388.768093 kJ/mol
# Density = 2.010196 g / cm^3
# Si number density = 20.147818 Si / 1000 Ang^3
#
#
#
# Elastic Constant Matrix: (Units=GPa)
#
#
# Indices 1 2 3 4 5 6 
#
# 1 116.4327 25.5202 46.6461 0.0000 0.0000 0.0000
# 2 25.5202 51.2909 9.0134 0.0000 0.0000 0.0000
# 3 46.6461 9.0134 125.7666 0.0000 0.0000 0.0000
# 4 0.0000 0.0000 0.0000 14.8896 0.0000 0.0000
# 5 0.0000 0.0000 0.0000 0.0000 38.3930 0.0000
# 6 0.0000 0.0000 0.0000 0.0000 0.0000 26.9233
#
#
#
# Elastic Compliance Matrix: (Units=1/GPa)
#
#
# Indices 1 2 3 4 5 6 
#
# 1 0.011183 -0.004897 -0.003797 0.000000 0.000000 0.000000
# 2 -0.004897 0.021890 0.000247 0.000000 0.000000 0.000000
# 3 -0.003797 0.000247 0.009342 0.000000 0.000000 0.000000
# 4 0.000000 0.000000 0.000000 0.067161 0.000000 0.000000
# 5 0.000000 0.000000 0.000000 0.000000 0.026046 0.000000
# 6 0.000000 0.000000 0.000000 0.000000 0.000000 0.037143
#
#
# Mechanical properties :
#
#
# Convention : Reuss Voigt Hill
#
# Bulk Modulus (GPa) = 39.18211 50.64997 44.91604
# Shear Modulus (GPa) = 25.23157 30.19521 27.71339
#
# Velocity S-wave (km/s) = 3.54266 3.87548 3.71280
# Velocity P-wave (km/s) = 6.01859 6.72455 6.38134
#
# Compressibility (1/GPa) = 0.02552185
#
# Stress axis : x y z
#
# Youngs Moduli (GPa) = 89.42062 45.68362 107.04687
#
# Poissons Ratio (x) = 0.22371 0.40643
# Poissons Ratio (y) = 0.43790 -0.02649
# Poissons Ratio (z) = 0.33951 -0.01131
#
# Static dielectric constant tensor:
#      x y z
#    x 3.872990 0.000000 0.000000 
#    y 0.000000 3.866500 0.000000 
#    z 0.000000 0.000000 3.594370 
# 
# 
# High freq. dielectric constant tensor:
#      x y z
#    x 1.801930 0.000000 0.000000 
#    y 0.000000 1.787970 0.000000 
#    z 0.000000 0.000000 1.784430 
# 
# From -- ./inp_files/57703.got.cif
#   From: 2010.03.12/outbox.cif.g09.slc.cpg/sg74_29_cif.got.tgz:57703.got - 2010.04.16 15:46:19.
