data_PCOD8301837
_publ_section_title
;
Structure prediction by ZEFSAII (Michael W. Deem and Ramdas Pophale) SiO2 
 PCOD8301837
Probable space group: P 4
;
_chemical_formula_sum "Si O2"
_cell_formula_units_Z 30
_cell_length_a 8.567213
_cell_length_b 8.567213
_cell_length_c 19.380566
_cell_angle_alpha 90.000000
_cell_angle_beta 90.000000
_cell_angle_gamma 90.000000
_cell_volume 1422.478089
_symmetry_space_group_name_H-M "P 4"
_symmetry_group_IT_number 75
_symmetry_cell_setting 'tetragonal'
loop_
_space_group_symop_operation_xyz
x,y,z
-y,x,z
-x,-y,z
y,-x,z
loop_
_atom_site_type_symbol
_atom_site_label
_atom_site_fract_x
_atom_site_fract_y
_atom_site_fract_z
Si Si1 0.744815 0.570368 0.230010
Si Si2 0.258642 0.413038 0.386188
Si Si3 0.087322 0.243871 0.501538
Si Si4 0.031075 0.254005 0.865964
Si Si5 0.027942 0.748258 0.020044
Si Si6 0.500000 0.000000 0.127762
Si Si7 0.422834 0.744015 0.775227
Si Si8 0.263061 0.408313 0.616048
O O1 0.605940 0.689950 0.216802
O O2 0.804246 0.598353 0.307849
O O3 0.882083 0.598379 0.175655
O O4 0.408539 0.304495 0.400364
O O5 0.121194 0.353967 0.435645
O O6 0.120423 0.344976 0.570189
O O7 0.907641 0.197287 0.500028
O O8 0.095711 0.394725 0.818344
O O9 0.869528 0.169580 0.849771
O O10 0.000087 0.318718 0.943097
O O11 0.168877 0.864616 0.032091
O O12 0.078483 0.620807 0.075682
O O13 0.307414 0.599583 0.792722
O O14 0.397676 0.786980 0.695429
O O15 0.413134 0.302396 0.598253
#
# Coordination Sequence:
#
# PCOD8301837 Si02
#       8
#     4   4   4   4   4   2   4   4
#     4   9  20  37  55  81 113 140 176 225 272 324
#     4   9  19  37  59  79 103 140 182 223 272 332
#     4  11  24  37  51  79 116 147 183 235 283 326
#     4   9  19  35  53  74 105 145 185 225 270 326
#     4   9  20  37  53  76 111 146 182 222 268 328
#     4  12  20  32  60  86 106 142 182 220 270 322
#     4   9  19  35  55  81 111 141 182 239 291 334
#     4   9  19  37  58  79 106 144 189 234 285 343
#
# _framework density 21.089956000000001
#
# number of rings (size 3 to 8) (size 9 to 14) (size 15 to 20)
#    0.000    2.533    0.000    4.000    0.000    9.067 
#    0.000    4.000    0.000    3.200    0.000    0.000 
#    0.000    0.000    0.000    0.000    0.000    0.000 
#
# Total GULP energy -371700.921632 kJ/mol
# GULP energy per Si atom -12390.030721 kJ/mol
# Density = 2.104195 g / cm^3
# Si number density = 21.089956 Si / 1000 Ang^3
#
#
#
# Elastic Constant Matrix: (Units=GPa)
#
#
# Indices 1 2 3 4 5 6 
#
# 1 36.7532 9.2145 31.0443 0.0000 0.0000 4.1405
# 2 9.2145 36.7532 31.0443 0.0000 0.0000 -4.1405
# 3 31.0443 31.0443 109.8475 0.0000 0.0000 0.0000
# 4 0.0000 0.0000 0.0000 13.2247 0.0000 0.0000
# 5 0.0000 0.0000 0.0000 0.0000 13.2247 0.0000
# 6 4.1405 -4.1405 0.0000 0.0000 0.0000 29.3810
#
#
#
# Elastic Compliance Matrix: (Units=1/GPa)
#
#
# Indices 1 2 3 4 5 6 
#
# 1 0.036552 -0.001367 -0.009944 0.000000 0.000000 -0.005344
# 2 -0.001367 0.036552 -0.009944 0.000000 0.000000 0.005344
# 3 -0.009944 -0.009944 0.014724 0.000000 0.000000 0.000000
# 4 0.000000 0.000000 0.000000 0.075616 0.000000 0.000000
# 5 0.000000 0.000000 0.000000 0.000000 0.075616 0.000000
# 6 -0.005344 0.005344 0.000000 0.000000 0.000000 0.035542
#
#
# Mechanical properties :
#
#
# Convention : Reuss Voigt Hill
#
# Bulk Modulus (GPa) = 22.06545 36.21777 29.14161
# Shear Modulus (GPa) = 15.05034 18.63615 16.84324
#
# Velocity S-wave (km/s) = 2.67428 2.97585 2.82908
# Velocity P-wave (km/s) = 4.47447 5.38682 4.95171
#
# Compressibility (1/GPa) = 0.04531972
#
# Stress axis : x y z
#
# Youngs Moduli (GPa) = 27.35793 27.35793 67.91606
#
# Poissons Ratio (x) = 0.03739 0.67535
# Poissons Ratio (y) = 0.03739 0.67535
# Poissons Ratio (z) = 0.27204 0.27204
#
# Static dielectric constant tensor:
#      x y z
#    x 4.113930 0.000000 0.000000 
#    y 0.000000 4.113930 0.000000 
#    z 0.000000 0.000000 3.770830 
# 
# 
# High freq. dielectric constant tensor:
#      x y z
#    x 1.820260 0.000000 0.000000 
#    y 0.000000 1.820260 0.000000 
#    z 0.000000 0.000000 1.828450 
# 
# From -- ./inp_files/762.got.cif
#   From: 2010.03.12/outbox.cif.g09.slc.cpg/sg75_cif.got.tgz:762.got - 2010.04.16 16:33:55.
