data_PCOD8301234
_publ_section_title
;
Structure prediction by ZEFSAII (Michael W. Deem and Ramdas Pophale) SiO2 
 PCOD8301234
Probable space group: I M M A
;
_chemical_formula_sum "Si O2"
_cell_formula_units_Z 56
_cell_length_a 17.216656
_cell_length_b 7.418594
_cell_length_c 21.957693
_cell_angle_alpha 90.000000
_cell_angle_beta 90.000000
_cell_angle_gamma 90.000000
_cell_volume 2804.510787
_symmetry_space_group_name_H-M "I M M A"
_symmetry_group_IT_number 74
_symmetry_cell_setting 'orthorhombic'
loop_
_space_group_symop_operation_xyz
x,y,z
-x,1/2-y,z
x,-y,-z
-x,1/2+y,-z
-x,-y,-z
x,1/2+y,-z
-x,y,z
x,1/2-y,z
1/2+x,1/2+y,1/2+z
1/2-x,-y,1/2+z
1/2+x,1/2-y,1/2-z
1/2-x,y,1/2-z
1/2-x,1/2-y,1/2-z
1/2+x,y,1/2-z
1/2-x,1/2+y,1/2+z
1/2+x,-y,1/2+z
loop_
_atom_site_type_symbol
_atom_site_label
_atom_site_fract_x
_atom_site_fract_y
_atom_site_fract_z
Si Si1 0.659351 0.750000 0.758925
Si Si2 0.802070 0.458361 0.930118
Si Si3 0.500000 0.458678 0.929873
Si Si4 0.352932 0.962261 0.142418
Si Si5 0.091615 0.250000 0.125951
O O1 0.750000 0.750000 0.750000
O O2 0.638116 0.567231 0.794416
O O3 0.611508 0.750000 0.696952
O O4 0.823368 0.250000 0.921375
O O5 0.727141 0.513216 0.890700
O O6 0.874792 0.572779 0.906730
O O7 0.782839 0.500000 0.000000
O O8 0.500000 0.250000 0.917244
O O9 0.577894 0.537422 0.900051
O O10 0.500000 0.500000 0.000000
O O11 0.358203 0.750000 0.156135
O O12 0.000000 0.250000 0.116446
#
# Coordination Sequence:
#
# PCOD8301234 Si02
#       5
#     8  16   8  16   8
#     4  12  24  44  70  90 128 175 226 261 318 394
#     4  11  22  42  69  95 129 171 212 269 333 392
#     4  10  22  38  60 102 138 174 210 264 323 381
#     4  10  23  40  64  97 134 171 218 265 319 383
#     4  12  28  46  64 101 129 169 225 272 327 384
#
# _framework density 19.967832000000001
#
# number of rings (size 3 to 8) (size 9 to 14) (size 15 to 20)
#    0.000    1.143    4.286    0.857    4.000    2.857 
#    0.000    0.000    0.000    0.000    0.000    0.000 
#    0.000    0.000    0.000    0.000    0.000    0.000 
#
# Total GULP energy -347291.067038 kJ/mol
# GULP energy per Si atom -12403.252394 kJ/mol
# Density = 1.992238 g / cm^3
# Si number density = 19.967832 Si / 1000 Ang^3
#
#
#
# Elastic Constant Matrix: (Units=GPa)
#
#
# Indices 1 2 3 4 5 6 
#
# 1 126.7357 43.3498 14.7175 0.0000 0.0000 0.0000
# 2 43.3498 106.4426 39.5385 0.0000 0.0000 0.0000
# 3 14.7175 39.5385 101.4666 0.0000 0.0000 0.0000
# 4 0.0000 0.0000 0.0000 31.1833 0.0000 0.0000
# 5 0.0000 0.0000 0.0000 0.0000 35.6098 0.0000
# 6 0.0000 0.0000 0.0000 0.0000 0.0000 23.2159
#
#
#
# Elastic Compliance Matrix: (Units=1/GPa)
#
#
# Indices 1 2 3 4 5 6 
#
# 1 0.009169 -0.003789 0.000146 0.000000 0.000000 0.000000
# 2 -0.003789 0.012550 -0.004341 0.000000 0.000000 0.000000
# 3 0.000146 -0.004341 0.011526 0.000000 0.000000 0.000000
# 4 0.000000 0.000000 0.000000 0.032068 0.000000 0.000000
# 5 0.000000 0.000000 0.000000 0.000000 0.028082 0.000000
# 6 0.000000 0.000000 0.000000 0.000000 0.000000 0.043074
#
#
# Mechanical properties :
#
#
# Convention : Reuss Voigt Hill
#
# Bulk Modulus (GPa) = 57.87432 58.87296 58.37364
# Shear Modulus (GPa) = 31.60638 33.80439 32.70539
#
# Velocity S-wave (km/s) = 3.98284 4.11900 4.05149
# Velocity P-wave (km/s) = 7.08501 7.22284 7.15426
#
# Compressibility (1/GPa) = 0.01727882
#
# Stress axis : x y z
#
# Youngs Moduli (GPa) = 109.05894 79.68041 86.76232
#
# Poissons Ratio (x) = 0.30188 -0.01270
# Poissons Ratio (y) = 0.41319 0.37662
# Poissons Ratio (z) = -0.01596 0.34588
#
# Static dielectric constant tensor:
#      x y z
#    x 4.863110 0.000000 0.000000 
#    y 0.000000 3.685980 0.000000 
#    z 0.000000 0.000000 2.101530 
# 
# 
# High freq. dielectric constant tensor:
#      x y z
#    x 1.781460 0.000000 0.000000 
#    y 0.000000 1.792710 0.000000 
#    z 0.000000 0.000000 1.785580 
# 
# From -- ./inp_files/38902.got.cif
#   From: 2010.03.12/outbox.cif.g09.slc.cpg/sg74_20_cif.got.tgz:38902.got - 2010.04.16 15:46:19.
