data_PCOD8301438
_publ_section_title
;
Structure prediction by ZEFSAII (Michael W. Deem and Ramdas Pophale) SiO2 
 PCOD8301438
Probable space group: I M M A
;
_chemical_formula_sum "Si O2"
_cell_formula_units_Z 80
_cell_length_a 14.053741
_cell_length_b 18.381766
_cell_length_c 22.786727
_cell_angle_alpha 90.000000
_cell_angle_beta 90.000000
_cell_angle_gamma 90.000000
_cell_volume 5886.553941
_symmetry_space_group_name_H-M "I M M A"
_symmetry_group_IT_number 74
_symmetry_cell_setting 'orthorhombic'
loop_
_space_group_symop_operation_xyz
x,y,z
-x,1/2-y,z
x,-y,-z
-x,1/2+y,-z
-x,-y,-z
x,1/2+y,-z
-x,y,z
x,1/2-y,z
1/2+x,1/2+y,1/2+z
1/2-x,-y,1/2+z
1/2+x,1/2-y,1/2-z
1/2-x,y,1/2-z
1/2-x,1/2-y,1/2-z
1/2+x,y,1/2-z
1/2-x,1/2+y,1/2+z
1/2+x,-y,1/2+z
loop_
_atom_site_type_symbol
_atom_site_label
_atom_site_fract_x
_atom_site_fract_y
_atom_site_fract_z
Si Si1 0.605437 0.033139 0.064108
Si Si2 0.607974 0.334809 0.648830
Si Si3 0.888469 0.331632 0.501977
Si Si4 0.709858 0.596597 0.111329
Si Si5 0.108826 0.667745 0.284461
O O1 0.500000 0.029302 0.094148
O O2 0.638984 0.116778 0.053652
O O3 0.684244 0.988595 0.101102
O O4 0.596848 0.000000 0.000000
O O5 0.500000 0.351077 0.629004
O O6 0.632303 0.250000 0.637905
O O7 0.676960 0.387336 0.610940
O O8 0.621408 0.354462 0.717012
O O9 0.859157 0.250000 0.484500
O O10 0.836678 0.353474 0.561749
O O11 0.000000 0.338877 0.515153
O O12 0.672173 0.616099 0.175631
O O13 0.144294 0.750000 0.293987
O O14 0.000000 0.660057 0.304073
#
# Coordination Sequence:
#
# PCOD8301438 Si02
#       5
#    16  16  16  16  16
#     4   8  15  25  35  52  76  93 109 143 183 211
#     4   9  18  28  34  46  72 101 126 152 176 197
#     4   9  16  25  38  56  75  94 116 141 174 218
#     4  11  16  22  38  54  70  96 125 146 172 208
#     4   9  16  24  34  51  74  96 119 146 172 203
#
# _framework density 13.590294
#
# number of rings (size 3 to 8) (size 9 to 14) (size 15 to 20)
#    0.000    2.800    0.000    6.600    0.000    3.200 
#    0.000    0.000    0.000    5.400    0.000    0.000 
#    0.000    3.200    0.000    4.800    0.000    0.000 
#
# Total GULP energy -495705.528993 kJ/mol
# GULP energy per Si atom -12392.638225 kJ/mol
# Density = 1.355936 g / cm^3
# Si number density = 13.590294 Si / 1000 Ang^3
#
#
#
# Elastic Constant Matrix: (Units=GPa)
#
#
# Indices 1 2 3 4 5 6 
#
# 1 81.8120 41.3767 30.4965 0.0000 0.0000 0.0000
# 2 41.3767 90.7432 26.8172 0.0000 0.0000 0.0000
# 3 30.4965 26.8172 27.6987 0.0000 0.0000 0.0000
# 4 0.0000 0.0000 0.0000 22.1185 0.0000 0.0000
# 5 0.0000 0.0000 0.0000 0.0000 18.0634 0.0000
# 6 0.0000 0.0000 0.0000 0.0000 0.0000 17.2274
#
#
#
# Elastic Compliance Matrix: (Units=1/GPa)
#
#
# Indices 1 2 3 4 5 6 
#
# 1 0.021707 -0.003971 -0.020055 0.000000 0.000000 0.000000
# 2 -0.003971 0.016163 -0.011277 0.000000 0.000000 0.000000
# 3 -0.020055 -0.011277 0.069101 0.000000 0.000000 0.000000
# 4 0.000000 0.000000 0.000000 0.045211 0.000000 0.000000
# 5 0.000000 0.000000 0.000000 0.000000 0.055361 0.000000
# 6 0.000000 0.000000 0.000000 0.000000 0.000000 0.058047
#
#
# Mechanical properties :
#
#
# Convention : Reuss Voigt Hill
#
# Bulk Modulus (GPa) = 27.49815 44.18165 35.83990
# Shear Modulus (GPa) = 14.35465 18.25276 16.30370
#
# Velocity S-wave (km/s) = 3.25351 3.66877 3.46737
# Velocity P-wave (km/s) = 5.86442 7.10822 6.51606
#
# Compressibility (1/GPa) = 0.03636609
#
# Stress axis : x y z
#
# Youngs Moduli (GPa) = 46.06725 61.86794 14.47148
#
# Poissons Ratio (x) = 0.24569 0.29023
# Poissons Ratio (y) = 0.18294 0.16319
# Poissons Ratio (z) = 0.92389 0.69767
#
# Static dielectric constant tensor:
#      x y z
#    x 2.761380 0.000000 0.000000 
#    y 0.000000 3.102080 0.000000 
#    z 0.000000 0.000000 2.470400 
# 
# 
# High freq. dielectric constant tensor:
#      x y z
#    x 1.513430 0.000000 0.000000 
#    y 0.000000 1.497840 0.000000 
#    z 0.000000 0.000000 1.482300 
# 
# From -- ./inp_files/32130.got.cif
#   From: 2010.03.12/outbox.cif.g09.slc.cpg/sg74_17_cif.got.tgz:32130.got - 2010.04.16 15:46:19.
