data_PCOD8301225
_publ_section_title
;
Structure prediction by ZEFSAII (Michael W. Deem and Ramdas Pophale) SiO2 
 PCOD8301225
Probable space group: I M M A
;
_chemical_formula_sum "Si O2"
_cell_formula_units_Z 56
_cell_length_a 16.108789
_cell_length_b 13.697347
_cell_length_c 12.916450
_cell_angle_alpha 90.000000
_cell_angle_beta 90.000000
_cell_angle_gamma 90.000000
_cell_volume 2849.984632
_symmetry_space_group_name_H-M "I M M A"
_symmetry_group_IT_number 74
_symmetry_cell_setting 'orthorhombic'
loop_
_space_group_symop_operation_xyz
x,y,z
-x,1/2-y,z
x,-y,-z
-x,1/2+y,-z
-x,-y,-z
x,1/2+y,-z
-x,y,z
x,1/2-y,z
1/2+x,1/2+y,1/2+z
1/2-x,-y,1/2+z
1/2+x,1/2-y,1/2-z
1/2-x,y,1/2-z
1/2-x,1/2-y,1/2-z
1/2+x,y,1/2-z
1/2-x,1/2+y,1/2+z
1/2+x,-y,1/2+z
loop_
_atom_site_type_symbol
_atom_site_label
_atom_site_fract_x
_atom_site_fract_y
_atom_site_fract_z
Si Si1 0.500000 0.386178 0.481312
Si Si2 0.500000 0.355832 0.712412
Si Si3 0.669439 0.859646 0.627021
Si Si4 0.162733 0.468450 0.718204
Si Si5 0.782933 0.000000 0.500000
O O1 0.500000 0.500000 0.500000
O O2 0.500000 0.334145 0.591368
O O3 0.422297 0.351227 0.416301
O O4 0.500000 0.250000 0.768615
O O5 0.417221 0.413754 0.740421
O O6 0.702485 0.750000 0.650229
O O7 0.667328 0.922392 0.733200
O O8 0.725641 0.911101 0.539197
O O9 0.250000 0.415237 0.750000
O O10 0.156877 0.469257 0.593920
#
# Coordination Sequence:
#
# PCOD8301225 Si02
#       5
#     8   8  16  16   8
#     4  12  18  35  59  85 117 145 189 245 306 349
#     4  12  24  38  60  87 120 156 196 243 296 363
#     4  11  21  36  62  90 116 153 199 248 300 356
#     4  10  22  40  60  86 122 153 199 246 299 349
#     4  10  22  38  58  82 120 162 194 245 288 353
#
# _framework density 19.649228000000001
#
# number of rings (size 3 to 8) (size 9 to 14) (size 15 to 20)
#    0.000    1.143    4.286    3.000    0.000    7.429 
#    0.000    0.000    0.000    0.000    0.000    0.000 
#    0.000    0.000    0.000    0.000    0.000    0.000 
#
# Total GULP energy -347062.652194 kJ/mol
# GULP energy per Si atom -12395.094721 kJ/mol
# Density = 1.960451 g / cm^3
# Si number density = 19.649228 Si / 1000 Ang^3
#
#
#
# Elastic Constant Matrix: (Units=GPa)
#
#
# Indices 1 2 3 4 5 6 
#
# 1 120.8316 31.9093 34.6864 0.0000 0.0000 0.0000
# 2 31.9093 153.6891 24.7425 0.0000 0.0000 0.0000
# 3 34.6864 24.7425 148.5556 0.0000 0.0000 0.0000
# 4 0.0000 0.0000 0.0000 1.4928 0.0000 0.0000
# 5 0.0000 0.0000 0.0000 0.0000 30.4809 0.0000
# 6 0.0000 0.0000 0.0000 0.0000 0.0000 2.8633
#
#
#
# Elastic Compliance Matrix: (Units=1/GPa)
#
#
# Indices 1 2 3 4 5 6 
#
# 1 0.009245 -0.001615 -0.001890 0.000000 0.000000 0.000000
# 2 -0.001615 0.006968 -0.000783 0.000000 0.000000 0.000000
# 3 -0.001890 -0.000783 0.007303 0.000000 0.000000 0.000000
# 4 0.000000 0.000000 0.000000 0.669872 0.000000 0.000000
# 5 0.000000 0.000000 0.000000 0.000000 0.032807 0.000000
# 6 0.000000 0.000000 0.000000 0.000000 0.000000 0.349249
#
#
# Mechanical properties :
#
#
# Convention : Reuss Voigt Hill
#
# Bulk Modulus (GPa) = 66.93560 67.30587 67.12074
# Shear Modulus (GPa) = 4.59136 29.08327 16.83732
#
# Velocity S-wave (km/s) = 1.53027 3.85141 2.93045
# Velocity P-wave (km/s) = 6.10422 7.35567 6.75897
#
# Compressibility (1/GPa) = 0.01493973
#
# Stress axis : x y z
#
# Youngs Moduli (GPa) = 108.16692 143.51055 136.92687
#
# Poissons Ratio (x) = 0.23181 0.25874
# Poissons Ratio (y) = 0.17472 0.10727
# Poissons Ratio (z) = 0.20439 0.11243
#
# Static dielectric constant tensor:
#      x y z
#    x 3.892980 0.000000 0.000000 
#    y 0.000000 2.131960 0.000000 
#    z 0.000000 0.000000 3.681750 
# 
# 
# High freq. dielectric constant tensor:
#      x y z
#    x 1.770850 0.000000 0.000000 
#    y 0.000000 1.763260 0.000000 
#    z 0.000000 0.000000 1.766570 
# 
# From -- ./inp_files/19615.got.cif
#   From: 2010.03.12/outbox.cif.g09.slc.cpg/sg74_10_cif.got.tgz:19615.got - 2010.04.16 15:46:19.
