data_PCOD8301685
_publ_section_title
;
Structure prediction by ZEFSAII (Michael W. Deem and Ramdas Pophale) SiO2 
 PCOD8301685
Probable space group: I M M A
;
_chemical_formula_sum "Si O2"
_cell_formula_units_Z 116
_cell_length_a 19.253626
_cell_length_b 16.504719
_cell_length_c 17.306177
_cell_angle_alpha 90.000000
_cell_angle_beta 90.000000
_cell_angle_gamma 90.000000
_cell_volume 5499.482283
_symmetry_space_group_name_H-M "I M M A"
_symmetry_group_IT_number 74
_symmetry_cell_setting 'orthorhombic'
loop_
_space_group_symop_operation_xyz
x,y,z
-x,1/2-y,z
x,-y,-z
-x,1/2+y,-z
-x,-y,-z
x,1/2+y,-z
-x,y,z
x,1/2-y,z
1/2+x,1/2+y,1/2+z
1/2-x,-y,1/2+z
1/2+x,1/2-y,1/2-z
1/2-x,y,1/2-z
1/2-x,1/2-y,1/2-z
1/2+x,y,1/2-z
1/2-x,1/2+y,1/2+z
1/2+x,-y,1/2+z
loop_
_atom_site_type_symbol
_atom_site_label
_atom_site_fract_x
_atom_site_fract_y
_atom_site_fract_z
Si Si1 0.422263 0.345876 0.002971
Si Si2 0.195631 0.342146 0.068038
Si Si3 0.816077 0.345228 0.892366
Si Si4 0.669438 0.088416 0.866328
Si Si5 0.833374 0.599056 0.632268
Si Si6 0.390888 0.608896 0.706178
Si Si7 0.078566 0.425300 0.780635
Si Si8 0.500000 0.250000 0.280188
O O1 0.500000 0.374321 0.980915
O O2 0.418130 0.250000 0.007064
O O3 0.366921 0.379408 0.943113
O O4 0.405975 0.381189 0.088417
O O5 0.170473 0.250000 0.074472
O O6 0.276308 0.346553 0.090090
O O7 0.152267 0.397246 0.126912
O O8 0.185166 0.374134 0.981252
O O9 0.828612 0.250000 0.884226
O O10 0.742622 0.366948 0.852317
O O11 0.880228 0.392066 0.854322
O O12 0.618492 0.106604 0.795168
O O13 0.686384 0.994441 0.876302
O O14 0.839200 0.624223 0.721472
O O15 0.427027 0.522290 0.718823
O O16 0.443241 0.681834 0.703132
O O17 0.000000 0.390451 0.780465
#
# Coordination Sequence:
#
# PCOD8301685 Si02
#       8
#    16  16  16  16  16  16  16   4
#     4  11  24  38  60  94 132 174 219 267 326 396
#     4  11  23  42  64  97 131 169 222 274 320 389
#     4  11  25  45  70  98 130 174 224 279 335 393
#     4  11  23  43  67  94 130 172 216 272 335 396
#     4  11  24  38  66  96 133 170 218 269 327 394
#     4  11  25  42  68  97 132 180 220 269 332 395
#     4  11  25  46  67  98 134 169 224 281 334 398
#     4  12  24  44  66  98 140 180 222 266 332 406
#
# _framework density 21.092894000000001
#
# number of rings (size 3 to 8) (size 9 to 14) (size 15 to 20)
#    0.000    0.966    2.759    3.310    2.897    8.000 
#    1.241    0.690    0.000    0.000    0.000    0.000 
#    0.000    0.000    0.000    0.000    0.000    0.000 
#
# Total GULP energy -718567.710341 kJ/mol
# GULP energy per Si atom -12389.098454 kJ/mol
# Density = 2.104489 g / cm^3
# Si number density = 21.092894 Si / 1000 Ang^3
#
#
#
# Elastic Constant Matrix: (Units=GPa)
#
#
# Indices 1 2 3 4 5 6 
#
# 1 115.9658 35.5189 63.0109 0.0000 0.0000 0.0000
# 2 35.5189 71.7971 39.0626 0.0000 0.0000 0.0000
# 3 63.0109 39.0626 131.7378 0.0000 0.0000 0.0000
# 4 0.0000 0.0000 0.0000 59.3546 0.0000 0.0000
# 5 0.0000 0.0000 0.0000 0.0000 363.9532 0.0000
# 6 0.0000 0.0000 0.0000 0.0000 0.0000 54.6497
#
#
#
# Elastic Compliance Matrix: (Units=1/GPa)
#
#
# Indices 1 2 3 4 5 6 
#
# 1 0.012327 -0.003447 -0.004874 0.000000 0.000000 0.000000
# 2 -0.003447 0.017571 -0.003562 0.000000 0.000000 0.000000
# 3 -0.004874 -0.003562 0.010978 0.000000 0.000000 0.000000
# 4 0.000000 0.000000 0.000000 0.016848 0.000000 0.000000
# 5 0.000000 0.000000 0.000000 0.000000 0.002748 0.000000
# 6 0.000000 0.000000 0.000000 0.000000 0.000000 0.018298
#
#
# Mechanical properties :
#
#
# Convention : Reuss Voigt Hill
#
# Bulk Modulus (GPa) = 58.43934 66.07616 62.25775
# Shear Modulus (GPa) = 46.19399 107.71872 76.95636
#
# Velocity S-wave (km/s) = 4.68485 7.15399 6.04679
# Velocity P-wave (km/s) = 7.55179 9.98167 8.85052
#
# Compressibility (1/GPa) = 0.01711176
#
# Stress axis : x y z
#
# Youngs Moduli (GPa) = 81.12054 56.91214 91.08872
#
# Poissons Ratio (x) = 0.19615 0.44399
# Poissons Ratio (y) = 0.27958 0.32442
# Poissons Ratio (z) = 0.39540 0.20270
#
# Static dielectric constant tensor:
#      x y z
#    x 5.236950 0.000000 0.000000 
#    y 0.000000 4.288220 0.000000 
#    z 0.000000 0.000000 3.846050 
# 
# 
# High freq. dielectric constant tensor:
#      x y z
#    x 1.835490 0.000000 0.000000 
#    y 0.000000 1.837370 0.000000 
#    z 0.000000 0.000000 1.823770 
# 
# From -- ./inp_files/44251.got.cif
#   From: 2010.03.12/outbox.cif.g09.slc.cpg/sg74_23_cif.got.tgz:44251.got - 2010.04.16 15:46:19.
