data_PCOD8301723
_publ_section_title
;
Structure prediction by ZEFSAII (Michael W. Deem and Ramdas Pophale) SiO2 
 PCOD8301723
Probable space group: I M M A
;
_chemical_formula_sum "Si O2"
_cell_formula_units_Z 64
_cell_length_a 14.303498
_cell_length_b 9.903073
_cell_length_c 21.191591
_cell_angle_alpha 90.000000
_cell_angle_beta 90.000000
_cell_angle_gamma 90.000000
_cell_volume 3001.758876
_symmetry_space_group_name_H-M "I M M A"
_symmetry_group_IT_number 74
_symmetry_cell_setting 'orthorhombic'
loop_
_space_group_symop_operation_xyz
x,y,z
-x,1/2-y,z
x,-y,-z
-x,1/2+y,-z
-x,-y,-z
x,1/2+y,-z
-x,y,z
x,1/2-y,z
1/2+x,1/2+y,1/2+z
1/2-x,-y,1/2+z
1/2+x,1/2-y,1/2-z
1/2-x,y,1/2-z
1/2-x,1/2-y,1/2-z
1/2+x,y,1/2-z
1/2-x,1/2+y,1/2+z
1/2+x,-y,1/2+z
loop_
_atom_site_type_symbol
_atom_site_label
_atom_site_fract_x
_atom_site_fract_y
_atom_site_fract_z
Si Si1 0.659735 0.500000 0.500000
Si Si2 0.500000 0.101480 0.703913
Si Si3 0.500000 0.588649 0.590366
Si Si4 0.790136 0.750000 0.502575
Si Si5 0.340096 0.481198 0.792802
Si Si6 0.388745 0.750000 0.121143
Si Si7 0.607313 0.250000 0.135849
O O1 0.594012 0.533666 0.558956
O O2 0.725940 0.624121 0.485609
O O3 0.500000 0.250000 0.669976
O O4 0.500000 0.972077 0.659414
O O5 0.589239 0.093189 0.747283
O O6 0.500000 0.750000 0.592427
O O7 0.877834 0.750000 0.454798
O O8 0.826026 0.750000 0.574573
O O9 0.250000 0.504038 0.750000
O O10 0.332784 0.380261 0.852272
O O11 0.373760 0.623061 0.819832
O O12 0.500000 0.750000 0.136854
O O13 0.500000 0.250000 0.112951
#
# Coordination Sequence:
#
# PCOD8301723 Si02
#       7
#     8   8   8   8  16   8   8
#     4  11  26  48  67 108 144 182 237 300 340 431
#     4  12  27  45  72 110 140 189 238 290 361 429
#     4  11  27  45  74 100 151 187 232 287 370 418
#     4  12  27  43  76 102 136 190 248 291 357 414
#     4  12  26  44  72 103 144 185 235 295 356 427
#     4  12  24  49  70  99 139 184 237 303 351 424
#     4  12  26  49  68 103 143 186 237 297 359 418
#
# _framework density 21.320833
#
# number of rings (size 3 to 8) (size 9 to 14) (size 15 to 20)
#    0.000    0.250    5.000    2.625   10.500    0.000 
#    0.000    3.750    0.000    0.000    0.000    0.000 
#    0.000    0.000    0.000    0.000    0.000    0.000 
#
# Total GULP energy -396768.544186 kJ/mol
# GULP energy per Si atom -12399.017006 kJ/mol
# Density = 2.127231 g / cm^3
# Si number density = 21.320833 Si / 1000 Ang^3
#
#
#
# Elastic Constant Matrix: (Units=GPa)
#
#
# Indices 1 2 3 4 5 6 
#
# 1 114.3862 49.4990 38.4352 0.0000 0.0000 0.0000
# 2 49.4990 180.8603 37.5167 0.0000 0.0000 0.0000
# 3 38.4352 37.5167 93.4367 0.0000 0.0000 0.0000
# 4 0.0000 0.0000 0.0000 30.9573 0.0000 0.0000
# 5 0.0000 0.0000 0.0000 0.0000 34.4844 0.0000
# 6 0.0000 0.0000 0.0000 0.0000 0.0000 35.9022
#
#
#
# Elastic Compliance Matrix: (Units=1/GPa)
#
#
# Indices 1 2 3 4 5 6 
#
# 1 0.010920 -0.002244 -0.003591 0.000000 0.000000 0.000000
# 2 -0.002244 0.006493 -0.001684 0.000000 0.000000 0.000000
# 3 -0.003591 -0.001684 0.012856 0.000000 0.000000 0.000000
# 4 0.000000 0.000000 0.000000 0.032303 0.000000 0.000000
# 5 0.000000 0.000000 0.000000 0.000000 0.028999 0.000000
# 6 0.000000 0.000000 0.000000 0.000000 0.000000 0.027853
#
#
# Mechanical properties :
#
#
# Convention : Reuss Voigt Hill
#
# Bulk Modulus (GPa) = 65.65628 71.06498 68.36063
# Shear Modulus (GPa) = 35.83282 37.81761 36.82521
#
# Velocity S-wave (km/s) = 4.10402 4.21615 4.16046
# Velocity P-wave (km/s) = 7.30196 7.55677 7.43046
#
# Compressibility (1/GPa) = 0.01523084
#
# Stress axis : x y z
#
# Youngs Moduli (GPa) = 91.57623 154.02373 77.78650
#
# Poissons Ratio (x) = 0.34559 0.27933
# Poissons Ratio (y) = 0.20547 0.13099
# Poissons Ratio (z) = 0.32885 0.25936
#
# Static dielectric constant tensor:
#      x y z
#    x 3.947850 0.000000 0.000000 
#    y 0.000000 4.062750 0.000000 
#    z 0.000000 0.000000 3.871880 
# 
# 
# High freq. dielectric constant tensor:
#      x y z
#    x 1.846090 0.000000 0.000000 
#    y 0.000000 1.858820 0.000000 
#    z 0.000000 0.000000 1.842000 
# 
# From -- ./inp_files/59572.got.cif
#   From: 2010.03.12/outbox.cif.g09.slc.cpg/sg74_30_cif.got.tgz:59572.got - 2010.04.16 15:46:19.
