data_PCOD8301966
_publ_section_title
;
Structure prediction by ZEFSAII (Michael W. Deem and Ramdas Pophale) SiO2 
 PCOD8301966
Probable space group: P 41
;
_chemical_formula_sum "Si O2"
_cell_formula_units_Z 24
_cell_length_a 15.309682
_cell_length_b 15.309682
_cell_length_c 4.945923
_cell_angle_alpha 90.000000
_cell_angle_beta 90.000000
_cell_angle_gamma 90.000000
_cell_volume 1159.256903
_symmetry_space_group_name_H-M "P 41"
_symmetry_group_IT_number 76
_symmetry_cell_setting 'tetragonal'
loop_
_space_group_symop_operation_xyz
x,y,z
-y,x,1/4+z
-x,-y,1/2+z
y,-x,3/4+z
loop_
_atom_site_type_symbol
_atom_site_label
_atom_site_fract_x
_atom_site_fract_y
_atom_site_fract_z
Si Si1 0.862286 0.498911 0.969070
Si Si2 0.249543 0.504460 0.967299
Si Si3 0.053500 0.319419 0.446295
Si Si4 0.769307 0.754287 0.147041
Si Si5 0.317422 0.061582 0.711621
Si Si6 0.671598 0.316155 0.393681
O O1 0.810326 0.461510 0.711401
O O2 0.915216 0.414608 0.073040
O O3 0.805176 0.535772 0.218711
O O4 0.916069 0.582650 0.869258
O O5 0.302079 0.584534 0.836081
O O6 0.312651 0.432061 0.097657
O O7 0.131199 0.256250 0.546707
O O8 0.981816 0.327497 0.674203
O O9 0.006509 0.278163 0.181496
O O10 0.746027 0.856293 0.166344
O O11 0.754061 0.717328 0.447518
O O12 0.707362 0.698838 0.947896
#
# Coordination Sequence:
#
# PCOD8301966 Si02
#       6
#     4   4   4   4   4   4
#     4  12  22  41  63 100 134 166 214 278 337 389
#     4  12  22  39  65  92 130 182 228 266 315 387
#     4  12  24  41  66 100 132 169 216 269 334 403
#     4  12  24  44  67  90 135 174 212 270 334 408
#     4  12  24  41  66 100 132 169 216 269 334 403
#     4  12  22  42  63  92 129 182 230 260 322 384
#
# _framework density 20.702919000000001
#
# number of rings (size 3 to 8) (size 9 to 14) (size 15 to 20)
#    0.000    0.000    6.667    5.000    0.000    0.000 
#    0.000    3.333    0.000    2.000    0.000    0.000 
#    0.000    0.000    0.000    0.000    0.000    0.000 
#
# Total GULP energy -297668.338743 kJ/mol
# GULP energy per Si atom -12402.847448 kJ/mol
# Density = 2.065580 g / cm^3
# Si number density = 20.702919 Si / 1000 Ang^3
#
#
#
# Elastic Constant Matrix: (Units=GPa)
#
#
# Indices 1 2 3 4 5 6 
#
# 1 95.8659 46.0477 14.6736 0.0000 0.0000 -3.4750
# 2 46.0477 95.8659 14.6736 0.0000 0.0000 3.4750
# 3 14.6736 14.6736 95.0456 0.0000 0.0000 0.0000
# 4 0.0000 0.0000 0.0000 32.1223 0.0000 0.0000
# 5 0.0000 0.0000 0.0000 0.0000 32.1223 0.0000
# 6 -3.4750 3.4750 0.0000 0.0000 0.0000 12.0335
#
#
#
# Elastic Compliance Matrix: (Units=1/GPa)
#
#
# Indices 1 2 3 4 5 6 
#
# 1 0.014097 -0.006818 -0.001124 0.000000 0.000000 0.006040
# 2 -0.006818 0.014097 -0.001124 0.000000 0.000000 -0.006040
# 3 -0.001124 -0.001124 0.010868 0.000000 0.000000 0.000000
# 4 0.000000 0.000000 0.000000 0.031131 0.000000 0.000000
# 5 0.000000 0.000000 0.000000 0.000000 0.031131 0.000000
# 6 0.006040 -0.006040 0.000000 0.000000 0.000000 0.086590
#
#
# Mechanical properties :
#
#
# Convention : Reuss Voigt Hill
#
# Bulk Modulus (GPa) = 47.77583 48.61857 48.19720
# Shear Modulus (GPa) = 23.47163 29.34779 26.40971
#
# Velocity S-wave (km/s) = 3.37075 3.76914 3.57550
# Velocity P-wave (km/s) = 6.18678 6.51743 6.35425
#
# Compressibility (1/GPa) = 0.02093109
#
# Stress axis : x y z
#
# Youngs Moduli (GPa) = 70.93573 70.93573 92.01113
#
# Poissons Ratio (x) = 0.48366 0.10340
# Poissons Ratio (y) = 0.48366 0.10340
# Poissons Ratio (z) = 0.07971 0.07971
#
# Static dielectric constant tensor:
#      x y z
#    x 3.835030 0.000000 0.000000 
#    y 0.000000 3.835030 0.000000 
#    z 0.000000 0.000000 3.880640 
# 
# 
# High freq. dielectric constant tensor:
#      x y z
#    x 1.796370 0.000000 0.000000 
#    y 0.000000 1.796370 0.000000 
#    z 0.000000 0.000000 1.835220 
# 
# From -- ./inp_files/201.got.cif
#   From: 2010.03.12/outbox.cif.g09.slc.cpg/sg76_cif.got.tgz:201.got - 2010.04.16 16:34:25.
