data_PCOD8301113
_publ_section_title
;
Structure prediction by ZEFSAII (Michael W. Deem and Ramdas Pophale) SiO2 
 PCOD8301113
Probable space group: I M M A
;
_chemical_formula_sum "Si O2"
_cell_formula_units_Z 96
_cell_length_a 14.776968
_cell_length_b 14.982557
_cell_length_c 22.322993
_cell_angle_alpha 90.000000
_cell_angle_beta 90.000000
_cell_angle_gamma 90.000000
_cell_volume 4942.238443
_symmetry_space_group_name_H-M "I M M A"
_symmetry_group_IT_number 74
_symmetry_cell_setting 'orthorhombic'
loop_
_space_group_symop_operation_xyz
x,y,z
-x,1/2-y,z
x,-y,-z
-x,1/2+y,-z
-x,-y,-z
x,1/2+y,-z
-x,y,z
x,1/2-y,z
1/2+x,1/2+y,1/2+z
1/2-x,-y,1/2+z
1/2+x,1/2-y,1/2-z
1/2-x,y,1/2-z
1/2-x,1/2-y,1/2-z
1/2+x,y,1/2-z
1/2-x,1/2+y,1/2+z
1/2+x,-y,1/2+z
loop_
_atom_site_type_symbol
_atom_site_label
_atom_site_fract_x
_atom_site_fract_y
_atom_site_fract_z
Si Si1 0.349944 0.394671 0.740765
Si Si2 0.401589 0.750000 0.350881
Si Si3 0.724932 0.250000 0.068221
Si Si4 0.600002 0.899156 0.125722
Si Si5 0.894029 0.750000 0.850234
Si Si6 0.604997 0.104039 0.128307
Si Si7 0.225161 0.250000 0.572714
Si Si8 0.895001 0.588574 0.763384
O O1 0.250000 0.355559 0.750000
O O2 0.397949 0.337932 0.689897
O O3 0.403315 0.385334 0.802884
O O4 0.343030 0.497756 0.719382
O O5 0.500000 0.750000 0.382666
O O6 0.325785 0.750000 0.401395
O O7 0.827538 0.250000 0.093222
O O8 0.669761 0.162716 0.087310
O O9 0.734299 0.250000 0.997697
O O10 0.500000 0.874550 0.101328
O O11 0.673658 0.838247 0.094023
O O12 0.623219 0.001501 0.110909
O O13 0.870395 0.663440 0.811171
O O14 0.000000 0.750000 0.869957
O O15 0.500000 0.129726 0.117246
O O16 0.632153 0.122875 0.197318
O O17 0.000000 0.564036 0.763312
#
# Coordination Sequence:
#
# PCOD8301113 Si02
#       8
#    16   8   8  16   8  16   8  16
#     4  11  20  35  61  94 122 143 180 230 292 360
#     4  12  24  40  60  83 117 156 193 240 288 335
#     4  12  26  38  59  79 114 156 204 252 274 320
#     4  10  21  39  62  88 122 149 177 231 295 356
#     4  10  23  39  58  85 116 156 198 237 285 334
#     4   9  20  38  60  91 121 148 179 227 296 360
#     4  12  26  42  54  84 109 154 214 242 275 327
#     4   9  19  36  59  91 124 148 180 228 289 360
#
# _framework density 19.424396999999999
#
# number of rings (size 3 to 8) (size 9 to 14) (size 15 to 20)
#    0.000    1.667    1.667    4.250    4.667    4.333 
#    0.000    1.667    0.000    0.000    0.000    5.833 
#    0.000    0.000    0.000    0.000    0.000    0.000 
#
# Total GULP energy -595290.434410 kJ/mol
# GULP energy per Si atom -12401.884050 kJ/mol
# Density = 1.938019 g / cm^3
# Si number density = 19.424397 Si / 1000 Ang^3
#
#
#
# Elastic Constant Matrix: (Units=GPa)
#
#
# Indices 1 2 3 4 5 6 
#
# 1 134.0794 59.8871 54.7274 0.0000 0.0000 0.0000
# 2 59.8871 115.3296 65.3324 0.0000 0.0000 0.0000
# 3 54.7274 65.3324 113.9222 0.0000 0.0000 0.0000
# 4 0.0000 0.0000 0.0000 2.9032 0.0000 0.0000
# 5 0.0000 0.0000 0.0000 0.0000 12.1564 0.0000
# 6 0.0000 0.0000 0.0000 0.0000 0.0000 29.1976
#
#
#
# Elastic Compliance Matrix: (Units=1/GPa)
#
#
# Indices 1 2 3 4 5 6 
#
# 1 0.010272 -0.003760 -0.002778 0.000000 0.000000 0.000000
# 2 -0.003760 0.014219 -0.006348 0.000000 0.000000 0.000000
# 3 -0.002778 -0.006348 0.013753 0.000000 0.000000 0.000000
# 4 0.000000 0.000000 0.000000 0.344451 0.000000 0.000000
# 5 0.000000 0.000000 0.000000 0.000000 0.082261 0.000000
# 6 0.000000 0.000000 0.000000 0.000000 0.000000 0.034249
#
#
# Mechanical properties :
#
#
# Convention : Reuss Voigt Hill
#
# Bulk Modulus (GPa) = 80.18370 80.35834 80.27102
# Shear Modulus (GPa) = 9.44936 21.07704 15.26320
#
# Velocity S-wave (km/s) = 2.20800 3.29763 2.80621
# Velocity P-wave (km/s) = 6.91880 7.48056 7.20516
#
# Compressibility (1/GPa) = 0.01247136
#
# Stress axis : x y z
#
# Youngs Moduli (GPa) = 97.35554 70.32601 72.71033
#
# Poissons Ratio (x) = 0.26442 0.20200
# Poissons Ratio (y) = 0.36605 0.46159
# Poissons Ratio (z) = 0.27047 0.44646
#
# Static dielectric constant tensor:
#      x y z
#    x 3.634700 0.000000 0.000000 
#    y 0.000000 3.575390 0.000000 
#    z 0.000000 0.000000 3.209680 
# 
# 
# High freq. dielectric constant tensor:
#      x y z
#    x 1.767660 0.000000 0.000000 
#    y 0.000000 1.770200 0.000000 
#    z 0.000000 0.000000 1.717520 
# 
# From -- ./inp_files/51968.got.cif
#   From: 2010.03.12/outbox.cif.g09.slc.cpg/sg74_26_cif.got.tgz:51968.got - 2010.04.16 15:46:19.
