data_PCOD8301299
_publ_section_title
;
Structure prediction by ZEFSAII (Michael W. Deem and Ramdas Pophale) SiO2 
 PCOD8301299
Probable space group: I M M A
;
_chemical_formula_sum "Si O2"
_cell_formula_units_Z 56
_cell_length_a 24.391046
_cell_length_b 23.278548
_cell_length_c 5.043811
_cell_angle_alpha 90.000000
_cell_angle_beta 90.000000
_cell_angle_gamma 90.000000
_cell_volume 2863.816041
_symmetry_space_group_name_H-M "I M M A"
_symmetry_group_IT_number 74
_symmetry_cell_setting 'orthorhombic'
loop_
_space_group_symop_operation_xyz
x,y,z
-x,1/2-y,z
x,-y,-z
-x,1/2+y,-z
-x,-y,-z
x,1/2+y,-z
-x,y,z
x,1/2-y,z
1/2+x,1/2+y,1/2+z
1/2-x,-y,1/2+z
1/2+x,1/2-y,1/2-z
1/2-x,y,1/2-z
1/2-x,1/2-y,1/2-z
1/2+x,y,1/2-z
1/2-x,1/2+y,1/2+z
1/2+x,-y,1/2+z
loop_
_atom_site_type_symbol
_atom_site_label
_atom_site_fract_x
_atom_site_fract_y
_atom_site_fract_z
Si Si1 0.873465 0.346506 0.623037
Si Si2 0.186768 0.461624 0.748414
Si Si3 0.062129 0.815419 0.860656
Si Si4 0.711367 0.750000 0.003464
O O1 0.850771 0.405890 0.736085
O O2 0.913781 0.355971 0.372075
O O3 0.824999 0.307112 0.508802
O O4 0.904617 0.317389 0.866388
O O5 0.172775 0.500000 0.500000
O O6 0.250000 0.441940 0.750000
O O7 0.171468 0.500000 0.000000
O O8 0.064607 0.750000 0.755103
O O9 0.000000 0.835058 0.917675
O O10 0.750000 0.750000 0.250000
O O11 0.750000 0.750000 0.750000
#
# Coordination Sequence:
#
# PCOD8301299 Si02
#       4
#    16  16  16   8
#     4  12  22  40  62  89 125 159 199 254 308 360
#     4  10  22  40  62  87 117 163 212 245 290 363
#     4  11  22  39  62  90 122 159 206 249 302 373
#     4  12  24  36  55  92 131 158 188 242 318 376
#
# _framework density 19.554327000000001
#
# number of rings (size 3 to 8) (size 9 to 14) (size 15 to 20)
#    0.000    0.857    2.857    5.143    0.000    5.714 
#    0.000    0.000    0.000   17.143    0.000    0.000 
#    0.000    0.000    0.000    0.000    0.000    0.000 
#
# Total GULP energy -347296.246202 kJ/mol
# GULP energy per Si atom -12403.437364 kJ/mol
# Density = 1.950982 g / cm^3
# Si number density = 19.554327 Si / 1000 Ang^3
#
#
#
# Elastic Constant Matrix: (Units=GPa)
#
#
# Indices 1 2 3 4 5 6 
#
# 1 122.3905 61.1563 63.1537 0.0000 0.0000 0.0000
# 2 61.1563 99.9227 40.9838 0.0000 0.0000 0.0000
# 3 63.1537 40.9838 163.4353 0.0000 0.0000 0.0000
# 4 0.0000 0.0000 0.0000 73.2638 0.0000 0.0000
# 5 0.0000 0.0000 0.0000 0.0000 40.4229 0.0000
# 6 0.0000 0.0000 0.0000 0.0000 0.0000 19.9261
#
#
#
# Elastic Compliance Matrix: (Units=1/GPa)
#
#
# Indices 1 2 3 4 5 6 
#
# 1 0.013320 -0.006734 -0.003458 0.000000 0.000000 0.000000
# 2 -0.006734 0.014559 -0.001049 0.000000 0.000000 0.000000
# 3 -0.003458 -0.001049 0.007718 0.000000 0.000000 0.000000
# 4 0.000000 0.000000 0.000000 0.013649 0.000000 0.000000
# 5 0.000000 0.000000 0.000000 0.000000 0.024738 0.000000
# 6 0.000000 0.000000 0.000000 0.000000 0.000000 0.050186
#
#
# Mechanical properties :
#
#
# Convention : Reuss Voigt Hill
#
# Bulk Modulus (GPa) = 76.24861 79.59290 77.92076
# Shear Modulus (GPa) = 33.10727 41.41953 37.26340
#
# Velocity S-wave (km/s) = 4.11918 4.60736 4.37009
# Velocity P-wave (km/s) = 7.85503 8.31237 8.08693
#
# Compressibility (1/GPa) = 0.01311499
#
# Stress axis : x y z
#
# Youngs Moduli (GPa) = 75.07601 68.68484 129.56666
#
# Poissons Ratio (x) = 0.46251 0.44809
# Poissons Ratio (y) = 0.50554 0.13591
# Poissons Ratio (z) = 0.25964 0.07205
#
# Static dielectric constant tensor:
#      x y z
#    x 3.704600 0.000000 0.000000 
#    y 0.000000 3.331890 0.000000 
#    z 0.000000 0.000000 3.663350 
# 
# 
# High freq. dielectric constant tensor:
#      x y z
#    x 1.766100 0.000000 0.000000 
#    y 0.000000 1.743090 0.000000 
#    z 0.000000 0.000000 1.786030 
# 
# From -- ./inp_files/2825.got.cif
#   From: 2010.03.12/outbox.cif.g09.slc.cpg/sg74_2_cif.got.tgz:2825.got - 2010.04.16 15:46:19.
