data_PCOD8301125
_publ_section_title
;
Structure prediction by ZEFSAII (Michael W. Deem and Ramdas Pophale) SiO2 
 PCOD8301125
Probable space group: I M M A
;
_chemical_formula_sum "Si O2"
_cell_formula_units_Z 64
_cell_length_a 10.308289
_cell_length_b 14.248312
_cell_length_c 21.227353
_cell_angle_alpha 90.000000
_cell_angle_beta 90.000000
_cell_angle_gamma 90.000000
_cell_volume 3117.782710
_symmetry_space_group_name_H-M "I M M A"
_symmetry_group_IT_number 74
_symmetry_cell_setting 'orthorhombic'
loop_
_space_group_symop_operation_xyz
x,y,z
-x,1/2-y,z
x,-y,-z
-x,1/2+y,-z
-x,-y,-z
x,1/2+y,-z
-x,y,z
x,1/2-y,z
1/2+x,1/2+y,1/2+z
1/2-x,-y,1/2+z
1/2+x,1/2-y,1/2-z
1/2-x,y,1/2-z
1/2-x,1/2-y,1/2-z
1/2+x,y,1/2-z
1/2-x,1/2+y,1/2+z
1/2+x,-y,1/2+z
loop_
_atom_site_type_symbol
_atom_site_label
_atom_site_fract_x
_atom_site_fract_y
_atom_site_fract_z
Si Si1 0.000000 0.637934 0.402014
Si Si2 0.237256 0.856728 0.484823
Si Si3 0.265492 0.140364 0.125651
Si Si4 0.500000 0.529445 0.814082
Si Si5 0.000000 0.435046 0.169747
Si Si6 0.000000 0.428232 0.943113
O O1 0.876283 0.602118 0.441632
O O2 0.000000 0.750000 0.386954
O O3 0.000000 0.578488 0.337613
O O4 0.202680 0.750000 0.497249
O O5 0.241652 0.903407 0.554511
O O6 0.372959 0.864347 0.448707
O O7 0.301993 0.250000 0.126114
O O8 0.372871 0.084060 0.163593
O O9 0.126001 0.128717 0.158131
O O10 0.500000 0.523634 0.739342
O O11 0.000000 0.524430 0.124561
O O12 0.000000 0.500000 0.000000
#
# Coordination Sequence:
#
# PCOD8301125 Si02
#       6
#     8  16  16   8   8   8
#     4  10  23  42  65  89 121 158 203 261 308 349
#     4  10  21  39  63  93 119 152 203 255 309 358
#     4  11  23  40  62  91 126 161 198 246 300 361
#     4  12  26  40  60  88 124 165 208 242 290 370
#     4  12  25  39  58  89 123 165 207 239 291 366
#     4  12  21  37  63  88 117 158 196 254 304 346
#
# _framework density 20.527408999999999
#
# number of rings (size 3 to 8) (size 9 to 14) (size 15 to 20)
#    0.000    1.000    2.500    4.125    0.000    8.000 
#    0.000    1.250    0.000    6.000    0.000    0.000 
#    0.000    0.000    0.000    0.000    0.000    0.000 
#
# Total GULP energy -396868.565909 kJ/mol
# GULP energy per Si atom -12402.142685 kJ/mol
# Density = 2.048069 g / cm^3
# Si number density = 20.527409 Si / 1000 Ang^3
#
#
#
# Elastic Constant Matrix: (Units=GPa)
#
#
# Indices 1 2 3 4 5 6 
#
# 1 153.0297 29.9007 49.7343 0.0000 0.0000 0.0000
# 2 29.9007 71.7999 53.2795 0.0000 0.0000 0.0000
# 3 49.7343 53.2795 167.7256 0.0000 0.0000 0.0000
# 4 0.0000 0.0000 0.0000 29.8004 0.0000 0.0000
# 5 0.0000 0.0000 0.0000 0.0000 9.9894 0.0000
# 6 0.0000 0.0000 0.0000 0.0000 0.0000 -36.9000
#
#
#
# Elastic Compliance Matrix: (Units=1/GPa)
#
#
# Indices 1 2 3 4 5 6 
#
# 1 0.007426 -0.001908 -0.001596 0.000000 0.000000 0.000000
# 2 -0.001908 0.018714 -0.005379 0.000000 0.000000 0.000000
# 3 -0.001596 -0.005379 0.008144 0.000000 0.000000 0.000000
# 4 0.000000 0.000000 0.000000 0.033557 0.000000 0.000000
# 5 0.000000 0.000000 0.000000 0.000000 0.100106 0.000000
# 6 0.000000 0.000000 0.000000 0.000000 0.000000 -0.027100
#
#
# Mechanical properties :
#
#
# Convention : Reuss Voigt Hill
#
# Bulk Modulus (GPa) = 60.54026 73.15381 66.84704
# Shear Modulus (GPa) = 30.46594 17.88734 24.17664
#
# Velocity S-wave (km/s) = 3.85666 2.95513 3.43559
# Velocity P-wave (km/s) = 7.02767 6.88173 6.95508
#
# Compressibility (1/GPa) = 0.01651793
#
# Stress axis : x y z
#
# Youngs Moduli (GPa) = 134.65834 53.43701 122.79152
#
# Poissons Ratio (x) = 0.10198 0.19595
# Poissons Ratio (y) = 0.25699 0.66045
# Poissons Ratio (z) = 0.21489 0.28742
#
# Static dielectric constant tensor:
#      x y z
#    x 4.214370 0.000000 0.000000 
#    y 0.000000 3.537640 0.000000 
#    z 0.000000 0.000000 3.789500 
# 
# 
# High freq. dielectric constant tensor:
#      x y z
#    x 1.824470 0.000000 0.000000 
#    y 0.000000 1.798320 0.000000 
#    z 0.000000 0.000000 1.794210 
# 
# From -- ./inp_files/56491.got.cif
#   From: 2010.03.12/outbox.cif.g09.slc.cpg/sg74_29_cif.got.tgz:56491.got - 2010.04.16 15:46:19.
