data_PCOD8301959
_publ_section_title
;
Structure prediction by ZEFSAII (Michael W. Deem and Ramdas Pophale) SiO2 
 PCOD8301959
Probable space group: P 41
;
_chemical_formula_sum "Si O2"
_cell_formula_units_Z 28
_cell_length_a 11.750696
_cell_length_b 11.750696
_cell_length_c 8.665232
_cell_angle_alpha 90.000000
_cell_angle_beta 90.000000
_cell_angle_gamma 90.000000
_cell_volume 1196.485326
_symmetry_space_group_name_H-M "P 41"
_symmetry_group_IT_number 76
_symmetry_cell_setting 'tetragonal'
loop_
_space_group_symop_operation_xyz
x,y,z
-y,x,1/4+z
-x,-y,1/2+z
y,-x,3/4+z
loop_
_atom_site_type_symbol
_atom_site_label
_atom_site_fract_x
_atom_site_fract_y
_atom_site_fract_z
Si Si1 0.642666 0.059469 0.543540
Si Si2 0.327952 0.702233 0.176673
Si Si3 0.862579 0.964170 0.392876
Si Si4 0.554851 0.681867 0.352362
Si Si5 0.297310 0.151133 0.668006
Si Si6 0.458175 0.959582 0.729411
Si Si7 0.514335 0.717941 0.673362
O O1 0.631984 0.194147 0.569538
O O2 0.558390 0.016508 0.409653
O O3 0.771723 0.028091 0.501440
O O4 0.589300 0.993644 0.691301
O O5 0.421668 0.669520 0.306165
O O6 0.209256 0.743488 0.257850
O O7 0.308287 0.593747 0.068053
O O8 0.804602 0.863453 0.291977
O O9 0.954478 0.916264 0.512071
O O10 0.609699 0.759376 0.223501
O O11 0.580821 0.746665 0.514912
O O12 0.607751 0.556694 0.370131
O O13 0.362288 0.031609 0.636158
O O14 0.433765 0.825881 0.705965
#
# Coordination Sequence:
#
# PCOD8301959 Si02
#       7
#     4   4   4   4   4   4   4
#     4  11  26  48  78 106 153 191 265 317 395 470
#     4  12  28  48  73 117 149 209 261 320 405 476
#     4  11  29  53  77 113 153 202 270 339 412 475
#     4  12  27  45  69 110 155 201 250 315 392 475
#     4  11  26  49  75 107 155 198 258 324 389 476
#     4  11  24  49  73 107 144 206 255 314 382 479
#     4  12  28  42  75 102 157 201 255 317 389 467
#
# _framework density 23.401873999999999
#
# number of rings (size 3 to 8) (size 9 to 14) (size 15 to 20)
#    0.000    0.571    2.857    3.429   14.000    0.000 
#    2.571    0.000    0.000    0.000    0.000    0.000 
#    0.000    0.000    0.000    0.000    0.000    0.000 
#
# Total GULP energy -347079.382366 kJ/mol
# GULP energy per Si atom -12395.692227 kJ/mol
# Density = 2.334861 g / cm^3
# Si number density = 23.401874 Si / 1000 Ang^3
#
#
#
# Elastic Constant Matrix: (Units=GPa)
#
#
# Indices 1 2 3 4 5 6 
#
# 1 114.5892 55.6778 51.0885 0.0000 0.0000 3.2214
# 2 55.6778 114.5892 51.0885 0.0000 0.0000 -3.2214
# 3 51.0885 51.0885 107.2565 0.0000 0.0000 0.0000
# 4 0.0000 0.0000 0.0000 47.3047 0.0000 0.0000
# 5 0.0000 0.0000 0.0000 0.0000 47.3047 0.0000
# 6 3.2214 -3.2214 0.0000 0.0000 0.0000 32.5326
#
#
#
# Elastic Compliance Matrix: (Units=1/GPa)
#
#
# Indices 1 2 3 4 5 6 
#
# 1 0.012692 -0.004468 -0.003917 0.000000 0.000000 -0.001699
# 2 -0.004468 0.012692 -0.003917 0.000000 0.000000 0.001699
# 3 -0.003917 -0.003917 0.013055 0.000000 0.000000 0.000000
# 4 0.000000 0.000000 0.000000 0.021140 0.000000 0.000000
# 5 0.000000 0.000000 0.000000 0.000000 0.021140 0.000000
# 6 -0.001699 0.001699 0.000000 0.000000 0.000000 0.031075
#
#
# Mechanical properties :
#
#
# Convention : Reuss Voigt Hill
#
# Bulk Modulus (GPa) = 72.28545 72.46051 72.37298
# Shear Modulus (GPa) = 35.45844 37.33374 36.39609
#
# Velocity S-wave (km/s) = 3.89678 3.99849 3.94796
# Velocity P-wave (km/s) = 7.15558 7.23519 7.19550
#
# Compressibility (1/GPa) = 0.01383404
#
# Stress axis : x y z
#
# Youngs Moduli (GPa) = 78.78891 78.78891 76.59836
#
# Poissons Ratio (x) = 0.35205 0.30005
# Poissons Ratio (y) = 0.35205 0.30005
# Poissons Ratio (z) = 0.30863 0.30863
#
# Static dielectric constant tensor:
#      x y z
#    x 4.234220 0.000000 0.000000 
#    y 0.000000 4.234220 0.000000 
#    z 0.000000 0.000000 4.512240 
# 
# 
# High freq. dielectric constant tensor:
#      x y z
#    x 1.922830 0.000000 0.000000 
#    y 0.000000 1.922830 0.000000 
#    z 0.000000 0.000000 1.941710 
# 
# From -- ./inp_files/612.got.cif
#   From: 2010.03.12/outbox.cif.g09.slc.cpg/sg76_cif.got.tgz:612.got - 2010.04.16 16:34:25.
