data_PCOD8301176
_publ_section_title
;
Structure prediction by ZEFSAII (Michael W. Deem and Ramdas Pophale) SiO2 
 PCOD8301176
Probable space group: I M M A
;
_chemical_formula_sum "Si O2"
_cell_formula_units_Z 112
_cell_length_a 28.354745
_cell_length_b 15.410295
_cell_length_c 11.905739
_cell_angle_alpha 90.000000
_cell_angle_beta 90.000000
_cell_angle_gamma 90.000000
_cell_volume 5202.272007
_symmetry_space_group_name_H-M "I M M A"
_symmetry_group_IT_number 74
_symmetry_cell_setting 'orthorhombic'
loop_
_space_group_symop_operation_xyz
x,y,z
-x,1/2-y,z
x,-y,-z
-x,1/2+y,-z
-x,-y,-z
x,1/2+y,-z
-x,y,z
x,1/2-y,z
1/2+x,1/2+y,1/2+z
1/2-x,-y,1/2+z
1/2+x,1/2-y,1/2-z
1/2-x,y,1/2-z
1/2-x,1/2-y,1/2-z
1/2+x,y,1/2-z
1/2-x,1/2+y,1/2+z
1/2+x,-y,1/2+z
loop_
_atom_site_type_symbol
_atom_site_label
_atom_site_fract_x
_atom_site_fract_y
_atom_site_fract_z
Si Si1 0.303789 0.421763 0.853198
Si Si2 0.206424 0.652620 0.132148
Si Si3 0.872682 0.852790 0.517686
Si Si4 0.627700 0.439168 0.246154
Si Si5 0.121940 0.851214 0.971742
Si Si6 0.550413 0.150947 0.851022
Si Si7 0.054469 0.937637 0.134369
O O1 0.247277 0.421390 0.875802
O O2 0.313013 0.346103 0.760509
O O3 0.326080 0.507811 0.795198
O O4 0.324734 0.398576 0.975435
O O5 0.224000 0.750000 0.101024
O O6 0.164393 0.622825 0.052967
O O7 0.866890 0.750000 0.513916
O O8 0.888630 0.881254 0.640927
O O9 0.909422 0.892767 0.426766
O O10 0.640385 0.374202 0.347694
O O11 0.582875 0.491549 0.292685
O O12 0.108257 0.750000 0.978232
O O13 0.077560 0.910998 0.013821
O O14 0.500000 0.106833 0.880467
O O15 0.549238 0.250000 0.887070
O O16 0.558447 0.145355 0.716838
O O17 0.000000 0.966094 0.113354
#
# Coordination Sequence:
#
# PCOD8301176 Si02
#       7
#    16  16  16  16  16  16  16
#     4  11  21  39  65  95 126 157 211 264 311 373
#     4  10  21  41  69  97 123 162 211 263 320 375
#     4  11  22  40  62  88 128 173 214 259 312 380
#     4  12  25  41  59  98 133 168 211 256 323 377
#     4  11  24  45  67  90 129 172 212 258 314 383
#     4   9  18  34  60  91 119 156 210 263 312 368
#     4  11  23  41  67  95 126 162 211 269 320 370
#
# _framework density 21.529053999999999
#
# number of rings (size 3 to 8) (size 9 to 14) (size 15 to 20)
#    0.000    1.286    2.857    3.429    0.000    4.857 
#   10.286    1.429    0.000    5.143    0.000    0.000 
#    0.000    0.000    0.000    0.000    0.000    0.000 
#
# Total GULP energy -693823.041852 kJ/mol
# GULP energy per Si atom -12389.697176 kJ/mol
# Density = 2.148005 g / cm^3
# Si number density = 21.529054 Si / 1000 Ang^3
#
#
#
# Elastic Constant Matrix: (Units=GPa)
#
#
# Indices 1 2 3 4 5 6 
#
# 1 90.5158 24.0914 34.9103 0.0000 0.0000 0.0000
# 2 24.0914 51.4046 15.6277 0.0000 0.0000 0.0000
# 3 34.9103 15.6277 135.8364 0.0000 0.0000 0.0000
# 4 0.0000 0.0000 0.0000 36.8387 0.0000 0.0000
# 5 0.0000 0.0000 0.0000 0.0000 13.5068 0.0000
# 6 0.0000 0.0000 0.0000 0.0000 0.0000 18.0917
#
#
#
# Elastic Compliance Matrix: (Units=1/GPa)
#
#
# Indices 1 2 3 4 5 6 
#
# 1 0.013620 -0.005512 -0.002866 0.000000 0.000000 0.000000
# 2 -0.005512 0.022389 -0.001159 0.000000 0.000000 0.000000
# 3 -0.002866 -0.001159 0.008232 0.000000 0.000000 0.000000
# 4 0.000000 0.000000 0.000000 0.027145 0.000000 0.000000
# 5 0.000000 0.000000 0.000000 0.000000 0.074037 0.000000
# 6 0.000000 0.000000 0.000000 0.000000 0.000000 0.055274
#
#
# Mechanical properties :
#
#
# Convention : Reuss Voigt Hill
#
# Bulk Modulus (GPa) = 39.73567 47.44618 43.59092
# Shear Modulus (GPa) = 21.91435 27.22928 24.57181
#
# Velocity S-wave (km/s) = 3.19391 3.56022 3.38203
# Velocity P-wave (km/s) = 5.66553 6.24390 5.96173
#
# Compressibility (1/GPa) = 0.02516631
#
# Stress axis : x y z
#
# Youngs Moduli (GPa) = 73.41973 44.66448 121.47986
#
# Poissons Ratio (x) = 0.24619 0.34820
# Poissons Ratio (y) = 0.40468 0.14083
# Poissons Ratio (z) = 0.21044 0.05178
#
# Static dielectric constant tensor:
#      x y z
#    x 4.048470 0.000000 0.000000 
#    y 0.000000 3.736400 0.000000 
#    z 0.000000 0.000000 4.100780 
# 
# 
# High freq. dielectric constant tensor:
#      x y z
#    x 1.842960 0.000000 0.000000 
#    y 0.000000 1.829280 0.000000 
#    z 0.000000 0.000000 1.853470 
# 
# From -- ./inp_files/27209.got.cif
#   From: 2010.03.12/outbox.cif.g09.slc.cpg/sg74_14_cif.got.tgz:27209.got - 2010.04.16 15:46:19.
