data_PCOD8301414
_publ_section_title
;
Structure prediction by ZEFSAII (Michael W. Deem and Ramdas Pophale) SiO2 
 PCOD8301414
Probable space group: I M M A
;
_chemical_formula_sum "Si O2"
_cell_formula_units_Z 52
_cell_length_a 17.193007
_cell_length_b 14.936645
_cell_length_c 10.469167
_cell_angle_alpha 90.000000
_cell_angle_beta 90.000000
_cell_angle_gamma 90.000000
_cell_volume 2688.543247
_symmetry_space_group_name_H-M "I M M A"
_symmetry_group_IT_number 74
_symmetry_cell_setting 'orthorhombic'
loop_
_space_group_symop_operation_xyz
x,y,z
-x,1/2-y,z
x,-y,-z
-x,1/2+y,-z
-x,-y,-z
x,1/2+y,-z
-x,y,z
x,1/2-y,z
1/2+x,1/2+y,1/2+z
1/2-x,-y,1/2+z
1/2+x,1/2-y,1/2-z
1/2-x,y,1/2-z
1/2-x,1/2-y,1/2-z
1/2+x,y,1/2-z
1/2-x,1/2+y,1/2+z
1/2+x,-y,1/2+z
loop_
_atom_site_type_symbol
_atom_site_label
_atom_site_fract_x
_atom_site_fract_y
_atom_site_fract_z
Si Si1 0.184594 0.593880 0.566177
Si Si2 0.000000 0.393867 0.012581
Si Si3 0.913183 0.750000 0.446551
Si Si4 0.344713 0.147746 0.341169
Si Si5 0.000000 0.750000 0.201945
O O1 0.170860 0.500000 0.500000
O O2 0.133517 0.662909 0.486923
O O3 0.275761 0.619805 0.562414
O O4 0.156588 0.588245 0.713170
O O5 0.074714 0.363198 0.089029
O O6 0.000000 0.500000 0.000000
O O7 0.000000 0.341673 0.878746
O O8 0.923064 0.750000 0.292066
O O9 0.000000 0.750000 0.510435
O O10 0.332620 0.250000 0.297398
#
# Coordination Sequence:
#
# PCOD8301414 Si02
#       5
#    16   8   8  16   4
#     4  11  23  42  68  99 127 167 220 271 318 383
#     4  12  26  43  64  94 130 173 219 263 323 394
#     4  10  24  41  65  93 135 163 207 274 323 370
#     4  11  22  44  69  92 130 174 217 266 320 389
#     4  10  26  44  58  96 134 166 210 266 328 382
#
# _framework density 19.341329000000002
#
# number of rings (size 3 to 8) (size 9 to 14) (size 15 to 20)
#    0.462    0.615    4.615    1.846    6.462    0.615 
#    0.000    1.538    0.000    0.000    0.000    0.000 
#    0.000    0.000    0.000    0.000    0.000    0.000 
#
# Total GULP energy -322411.672780 kJ/mol
# GULP energy per Si atom -12400.448953 kJ/mol
# Density = 1.929731 g / cm^3
# Si number density = 19.341329 Si / 1000 Ang^3
#
#
#
# Elastic Constant Matrix: (Units=GPa)
#
#
# Indices 1 2 3 4 5 6 
#
# 1 165.2499 61.1513 80.3822 0.0000 0.0000 0.0000
# 2 61.1513 175.5752 70.9767 0.0000 0.0000 0.0000
# 3 80.3822 70.9767 125.2357 0.0000 0.0000 0.0000
# 4 0.0000 0.0000 0.0000 39.6696 0.0000 0.0000
# 5 0.0000 0.0000 0.0000 0.0000 -6.2808 0.0000
# 6 0.0000 0.0000 0.0000 0.0000 0.0000 27.8358
#
#
#
# Elastic Compliance Matrix: (Units=1/GPa)
#
#
# Indices 1 2 3 4 5 6 
#
# 1 0.008940 -0.001030 -0.005154 0.000000 0.000000 0.000000
# 2 -0.001030 0.007507 -0.003593 0.000000 0.000000 0.000000
# 3 -0.005154 -0.003593 0.013330 0.000000 0.000000 0.000000
# 4 0.000000 0.000000 0.000000 0.025208 0.000000 0.000000
# 5 0.000000 0.000000 0.000000 0.000000 -0.159215 0.000000
# 6 0.000000 0.000000 0.000000 0.000000 0.000000 0.035925
#
#
# Mechanical properties :
#
#
# Convention : Reuss Voigt Hill
#
# Bulk Modulus (GPa) = 97.83645 99.00901 98.42273
# Shear Modulus (GPa) = -110.27041 29.14828 -40.56106
#
# Velocity S-wave (km/s) = -7.55888 3.88628 -4.58440
# Velocity P-wave (km/s) = 5.04858 8.45217 4.79327
#
# Compressibility (1/GPa) = 0.01022114
#
# Stress axis : x y z
#
# Youngs Moduli (GPa) = 111.85993 133.20966 75.02053
#
# Poissons Ratio (x) = 0.13721 0.38667
# Poissons Ratio (y) = 0.11522 0.26958
# Poissons Ratio (z) = 0.57655 0.47868
#
# Static dielectric constant tensor:
#      x y z
#    x 3.695160 0.000000 0.000000 
#    y 0.000000 3.725980 0.000000 
#    z 0.000000 0.000000 3.470260 
# 
# 
# High freq. dielectric constant tensor:
#      x y z
#    x 1.768580 0.000000 0.000000 
#    y 0.000000 1.759070 0.000000 
#    z 0.000000 0.000000 1.751150 
# 
# From -- ./inp_files/11596.got.cif
#   From: 2010.03.12/outbox.cif.g09.slc.cpg/sg74_6_cif.got.tgz:11596.got - 2010.04.16 15:46:19.
