data_PCOD8301425
_publ_section_title
;
Structure prediction by ZEFSAII (Michael W. Deem and Ramdas Pophale) SiO2 
 PCOD8301425
Probable space group: I M M A
;
_chemical_formula_sum "Si O2"
_cell_formula_units_Z 64
_cell_length_a 10.577573
_cell_length_b 25.110128
_cell_length_c 12.127566
_cell_angle_alpha 90.000000
_cell_angle_beta 90.000000
_cell_angle_gamma 90.000000
_cell_volume 3221.132610
_symmetry_space_group_name_H-M "I M M A"
_symmetry_group_IT_number 74
_symmetry_cell_setting 'orthorhombic'
loop_
_space_group_symop_operation_xyz
x,y,z
-x,1/2-y,z
x,-y,-z
-x,1/2+y,-z
-x,-y,-z
x,1/2+y,-z
-x,y,z
x,1/2-y,z
1/2+x,1/2+y,1/2+z
1/2-x,-y,1/2+z
1/2+x,1/2-y,1/2-z
1/2-x,y,1/2-z
1/2-x,1/2-y,1/2-z
1/2+x,y,1/2-z
1/2-x,1/2+y,1/2+z
1/2+x,-y,1/2+z
loop_
_atom_site_type_symbol
_atom_site_label
_atom_site_fract_x
_atom_site_fract_y
_atom_site_fract_z
Si Si1 0.246223 0.360194 0.881551
Si Si2 0.000000 0.014572 0.337502
Si Si3 0.143006 0.442409 0.032738
Si Si4 0.000000 0.593493 0.470722
Si Si5 0.349035 0.750000 0.350433
Si Si6 0.750000 0.547828 0.750000
O O1 0.250000 0.365433 0.750000
O O2 0.381304 0.369509 0.939180
O O3 0.186508 0.303247 0.918191
O O4 0.150781 0.404208 0.927999
O O5 0.000000 0.071767 0.403366
O O6 0.874605 0.011367 0.262534
O O7 0.000000 0.961423 0.406446
O O8 0.224915 0.419104 0.136643
O O9 0.000000 0.448707 0.071437
O O10 0.201624 0.500000 0.000000
O O11 0.500000 0.750000 0.317373
O O12 0.250000 0.750000 0.250000
#
# Coordination Sequence:
#
# PCOD8301425 Si02
#       6
#    16   8  16   8   8   8
#     4  11  25  39  66  91 130 164 214 258 318 372
#     4  11  24  40  58  91 137 171 212 250 320 366
#     4  11  24  37  58  91 125 166 208 254 315 378
#     4  11  24  39  61  94 128 175 209 261 308 385
#     4  10  24  44  66  91 126 167 214 267 317 375
#     4  12  22  40  58  85 126 173 208 258 298 382
#
# _framework density 19.868787000000001
#
# number of rings (size 3 to 8) (size 9 to 14) (size 15 to 20)
#    0.000    1.000    3.750    2.250   15.750    0.000 
#    0.000    0.000    0.000    0.750    0.000    0.000 
#    0.000    0.000    0.000    0.000    0.000    0.000 
#
# Total GULP energy -396450.620983 kJ/mol
# GULP energy per Si atom -12389.081906 kJ/mol
# Density = 1.982356 g / cm^3
# Si number density = 19.868787 Si / 1000 Ang^3
#
#
#
# Elastic Constant Matrix: (Units=GPa)
#
#
# Indices 1 2 3 4 5 6 
#
# 1 151.4644 40.7779 27.3438 -0.0003 0.0000 0.0000
# 2 40.7779 140.1574 45.9932 -0.0006 0.0001 0.0001
# 3 27.3438 45.9932 92.1049 -0.0031 0.0029 0.0013
# 4 -0.0003 -0.0006 -0.0031 23.0402 0.0008 0.0004
# 5 0.0000 0.0001 0.0029 0.0008 31.0758 -0.0005
# 6 0.0000 0.0001 0.0013 0.0004 -0.0005 30.0007
#
#
#
# Elastic Compliance Matrix: (Units=1/GPa)
#
#
# Indices 1 2 3 4 5 6 
#
# 1 0.007296 -0.001689 -0.001323 0.000000 0.000000 0.000000
# 2 -0.001689 0.008924 -0.003955 0.000000 0.000000 0.000000
# 3 -0.001323 -0.003955 0.013225 0.000002 -0.000001 -0.000001
# 4 0.000000 0.000000 0.000002 0.043402 -0.000001 -0.000001
# 5 0.000000 0.000000 -0.000001 -0.000001 0.032179 0.000001
# 6 0.000000 0.000000 -0.000001 -0.000001 0.000001 0.033333
#
#
# Mechanical properties :
#
#
# Convention : Reuss Voigt Hill
#
# Bulk Modulus (GPa) = 64.46648 67.99517 66.23083
# Shear Modulus (GPa) = 31.75378 34.79747 33.27563
#
# Velocity S-wave (km/s) = 4.00205 4.18947 4.09683
# Velocity P-wave (km/s) = 7.33974 7.59596 7.46895
#
# Compressibility (1/GPa) = 0.01551194
#
# Stress axis : x y z
#
# Youngs Moduli (GPa) = 137.06888 112.05814 75.61560
#
# Poissons Ratio (x) = 0.18922 0.10002
# Poissons Ratio (y) = 0.23145 0.29905
# Poissons Ratio (z) = 0.18130 0.44318
#
# Static dielectric constant tensor:
#      x y z
#    x 3.956910 0.000000 0.000000 
#    y 0.000000 3.796660 0.000000 
#    z 0.000000 0.000000 3.795850 
# 
# 
# High freq. dielectric constant tensor:
#      x y z
#    x 1.806730 0.000000 0.000000 
#    y 0.000000 1.735270 0.000000 
#    z 0.000000 0.000000 1.768730 
# 
# From -- ./inp_files/18687.got.cif
#   From: 2010.03.12/outbox.cif.g09.slc.cpg/sg74_10_cif.got.tgz:18687.got - 2010.04.16 15:46:19.
