data_PCOD8301825
_publ_section_title
;
Structure prediction by ZEFSAII (Michael W. Deem and Ramdas Pophale) SiO2 
 PCOD8301825
Probable space group: I M M A
;
_chemical_formula_sum "Si O2"
_cell_formula_units_Z 44
_cell_length_a 9.000000
_cell_length_b 24.000000
_cell_length_c 21.000000
_cell_angle_alpha 90.000000
_cell_angle_beta 90.000000
_cell_angle_gamma 90.000000
_cell_volume 4536.000000
_symmetry_space_group_name_H-M "I M M A"
_symmetry_group_IT_number 74
_symmetry_cell_setting 'orthorhombic'
loop_
_space_group_symop_operation_xyz
x,y,z
-x,1/2-y,z
x,-y,-z
-x,1/2+y,-z
-x,-y,-z
x,1/2+y,-z
-x,y,z
x,1/2-y,z
1/2+x,1/2+y,1/2+z
1/2-x,-y,1/2+z
1/2+x,1/2-y,1/2-z
1/2-x,y,1/2-z
1/2-x,1/2-y,1/2-z
1/2+x,y,1/2-z
1/2-x,1/2+y,1/2+z
1/2+x,-y,1/2+z
loop_
_atom_site_type_symbol
_atom_site_label
_atom_site_fract_x
_atom_site_fract_y
_atom_site_fract_z
Si Si1 0.676368 0.838464 0.423422
Si Si2 0.825204 0.030702 0.934352
Si Si3 0.834870 0.356531 0.312072
Si Si4 0.665425 0.512618 0.811341
Si Si5 0.317261 0.750000 0.175352
Si Si6 0.333410 0.813499 0.566257
O O1 0.500000 0.828779 0.413030
O O2 0.717913 0.904092 0.426283
O O3 0.761286 0.804637 0.365887
O O4 0.727702 0.817023 0.493512
O O5 0.750255 0.998959 0.876396
O O6 0.000000 0.023009 0.928655
O O7 0.770896 0.000000 0.000000
O O8 0.750000 0.330922 0.250000
O O9 0.845397 0.421893 0.302279
O O10 0.760418 0.345907 0.380769
O O11 0.000000 0.330203 0.313204
O O12 0.500000 0.486449 0.813932
O O13 0.750000 0.486405 0.750000
O O14 0.500000 0.750000 0.179207
O O15 0.250000 0.750000 0.250000
O O16 0.500000 0.838952 0.566868
O O17 0.333939 0.750000 0.588149
#
# Coordination Sequence:
#
# PCOD8301825 Si02
#       6
#    16  16  16  16   8  16
#     4  10  21  41  65  90 123 159 200 250 305 367
#     4  10  21  37  62  93 123 159 201 246 301 367
#     4  10  21  36  55  81 114 154 197 241 288 341
#     4  10  21  37  57  81 114 153 193 239 290 346
#     4  12  26  44  68  94 123 162 211 264 320 378
#     4  10  20  36  60  84 111 150 191 237 291 345
#
# _framework density 9.7001760000000008
#
# number of rings (size 3 to 8) (size 9 to 14) (size 15 to 20)
#    0.000    1.818    0.909    3.000    0.000    6.909 
#    0.000    0.000    0.000    0.000    0.000    0.000 
#    0.000    0.000    0.000    0.000    0.000    0.000 
#
# Total GULP energy -545192.246911 kJ/mol
# GULP energy per Si atom -12390.732884 kJ/mol
# Density = 0.967810 g / cm^3
# Si number density = 9.700176 Si / 1000 Ang^3
#
#
#
# Elastic Constant Matrix: (Units=GPa)
#
#
# Indices 1 2 3 4 5 6 
#
# 1 106.8970 24.9690 69.6617 0.0000 0.0000 0.0000
# 2 24.9690 72.5017 29.4679 0.0000 0.0000 0.0000
# 3 69.6617 29.4679 200.8148 -0.0001 0.0000 0.0000
# 4 0.0000 0.0000 -0.0001 41.1186 0.0000 0.0000
# 5 0.0000 0.0000 0.0000 0.0000 41.9234 0.0000
# 6 0.0000 0.0000 0.0000 0.0000 0.0000 27.0482
#
#
#
# Elastic Compliance Matrix: (Units=1/GPa)
#
#
# Indices 1 2 3 4 5 6 
#
# 1 0.012572 -0.002719 -0.003962 0.000000 0.000000 0.000000
# 2 -0.002719 0.015256 -0.001295 0.000000 0.000000 0.000000
# 3 -0.003962 -0.001295 0.006544 0.000000 0.000000 0.000000
# 4 0.000000 0.000000 0.000000 0.024320 0.000000 0.000000
# 5 0.000000 0.000000 0.000000 0.000000 0.023853 0.000000
# 6 0.000000 0.000000 0.000000 0.000000 0.000000 0.036971
#
#
# Mechanical properties :
#
#
# Convention : Reuss Voigt Hill
#
# Bulk Modulus (GPa) = 54.29342 69.82341 62.05841
# Shear Modulus (GPa) = 35.30851 39.09239 37.20045
#
# Velocity S-wave (km/s) = 4.27077 4.49378 4.38369
# Velocity P-wave (km/s) = 7.23642 7.93690 7.59474
#
# Compressibility (1/GPa) = 0.01841844
#
# Stress axis : x y z
#
# Youngs Moduli (GPa) = 79.54205 65.54902 152.80629
#
# Poissons Ratio (x) = 0.17825 0.60544
# Poissons Ratio (y) = 0.21630 0.19794
# Poissons Ratio (z) = 0.31516 0.08491
#
# Static dielectric constant tensor:
#      x y z
#    x 3.857160 0.000000 0.000000 
#    y 0.000000 3.628420 0.000000 
#    z 0.000000 0.000000 4.045070 
# 
# 
# High freq. dielectric constant tensor:
#      x y z
#    x 1.759920 0.000000 0.000000 
#    y 0.000000 1.756580 0.000000 
#    z 0.000000 0.000000 1.792580 
# 
# From -- ./inp_files/48753.got.cif
#   From: 2010.03.12/outbox.ucp.g09.slc.cvg/sg74_25_cif.got.tgz:48753.got - 2010.05.04 20:08:06.
