data_PCOD8301251
_publ_section_title
;
Structure prediction by ZEFSAII (Michael W. Deem and Ramdas Pophale) SiO2 
 PCOD8301251
Probable space group: I M M A
;
_chemical_formula_sum "Si O2"
_cell_formula_units_Z 112
_cell_length_a 18.082544
_cell_length_b 26.434399
_cell_length_c 12.236168
_cell_angle_alpha 90.000000
_cell_angle_beta 90.000000
_cell_angle_gamma 90.000000
_cell_volume 5848.902780
_symmetry_space_group_name_H-M "I M M A"
_symmetry_group_IT_number 74
_symmetry_cell_setting 'orthorhombic'
loop_
_space_group_symop_operation_xyz
x,y,z
-x,1/2-y,z
x,-y,-z
-x,1/2+y,-z
-x,-y,-z
x,1/2+y,-z
-x,y,z
x,1/2-y,z
1/2+x,1/2+y,1/2+z
1/2-x,-y,1/2+z
1/2+x,1/2-y,1/2-z
1/2-x,y,1/2-z
1/2-x,1/2-y,1/2-z
1/2+x,y,1/2-z
1/2-x,1/2+y,1/2+z
1/2+x,-y,1/2+z
loop_
_atom_site_type_symbol
_atom_site_label
_atom_site_fract_x
_atom_site_fract_y
_atom_site_fract_z
Si Si1 0.635575 0.546337 0.557840
Si Si2 0.816350 0.543604 0.169791
Si Si3 0.842353 0.807769 0.060826
Si Si4 0.585849 0.871682 0.259956
Si Si5 0.915901 0.808142 0.633876
Si Si6 0.083504 0.849799 0.862719
Si Si7 0.171689 0.191009 0.580261
O O1 0.587664 0.500000 0.500000
O O2 0.676978 0.517890 0.659703
O O3 0.690767 0.564894 0.457538
O O4 0.587095 0.591174 0.605316
O O5 0.750000 0.558361 0.250000
O O6 0.887693 0.570405 0.225227
O O7 0.856451 0.750000 0.092718
O O8 0.899263 0.842173 0.127543
O O9 0.757978 0.822413 0.085975
O O10 0.859930 0.816452 0.933280
O O11 0.500000 0.871376 0.230706
O O12 0.630497 0.843495 0.166278
O O13 0.906406 0.750000 0.669378
O O14 0.894441 0.843099 0.736573
O O15 0.859632 0.822745 0.538518
O O16 0.000000 0.818446 0.594729
O O17 0.000000 0.830482 0.881566
O O18 0.157278 0.250000 0.607239
#
# Coordination Sequence:
#
# PCOD8301251 Si02
#       7
#    16  16  16  16  16  16  16
#     4   8  20  36  57  86 110 147 187 233 294 351
#     4   9  19  39  60  82 116 147 190 236 291 351
#     4  11  22  35  54  85 119 154 194 244 295 340
#     4  12  23  35  58  88 117 154 194 239 295 354
#     4   9  19  37  58  80 113 157 199 240 286 344
#     4  11  21  36  57  86 118 150 193 241 295 351
#     4  10  22  39  57  80 116 162 205 241 284 343
#
# _framework density 19.148890999999999
#
# number of rings (size 3 to 8) (size 9 to 14) (size 15 to 20)
#    0.857    1.000    1.429    3.000    0.000    5.714 
#    2.571    2.143    0.000    0.000    0.000    5.000 
#    0.000    0.000    0.000    0.000    0.000    0.000 
#
# Total GULP energy -693779.769712 kJ/mol
# GULP energy per Si atom -12388.924459 kJ/mol
# Density = 1.910531 g / cm^3
# Si number density = 19.148891 Si / 1000 Ang^3
#
#
#
# Elastic Constant Matrix: (Units=GPa)
#
#
# Indices 1 2 3 4 5 6 
#
# 1 80.3151 28.3085 30.3604 0.0000 0.0000 0.0000
# 2 28.3085 61.5519 37.4931 0.0000 0.0000 0.0000
# 3 30.3604 37.4931 92.9406 0.0001 0.0000 0.0000
# 4 0.0000 0.0000 0.0001 36.8609 0.0000 0.0000
# 5 0.0000 0.0000 0.0000 0.0000 30.8289 0.0000
# 6 0.0000 0.0000 0.0000 0.0000 0.0000 18.3648
#
#
#
# Elastic Compliance Matrix: (Units=1/GPa)
#
#
# Indices 1 2 3 4 5 6 
#
# 1 0.015422 -0.005335 -0.002886 0.000000 0.000000 0.000000
# 2 -0.005335 0.023385 -0.007691 0.000000 0.000000 0.000000
# 3 -0.002886 -0.007691 0.014805 0.000000 0.000000 0.000000
# 4 0.000000 0.000000 0.000000 0.027129 0.000000 0.000000
# 5 0.000000 0.000000 0.000000 0.000000 0.032437 0.000000
# 6 0.000000 0.000000 0.000000 0.000000 0.000000 0.054452
#
#
# Mechanical properties :
#
#
# Convention : Reuss Voigt Hill
#
# Bulk Modulus (GPa) = 45.89565 47.45906 46.67735
# Shear Modulus (GPa) = 24.18774 26.45396 25.32085
#
# Velocity S-wave (km/s) = 3.55792 3.72087 3.64031
# Velocity P-wave (km/s) = 6.39517 6.58011 6.48830
#
# Compressibility (1/GPa) = 0.02178856
#
# Stress axis : x y z
#
# Youngs Moduli (GPa) = 64.84143 42.76265 67.54583
#
# Poissons Ratio (x) = 0.22814 0.19491
# Poissons Ratio (y) = 0.34594 0.51949
# Poissons Ratio (z) = 0.18711 0.32888
#
# Static dielectric constant tensor:
#      x y z
#    x 3.289330 0.000000 0.000000 
#    y 0.000000 3.510970 0.000000 
#    z 0.000000 0.000000 3.592990 
# 
# 
# High freq. dielectric constant tensor:
#      x y z
#    x 1.723670 0.000000 0.000000 
#    y 0.000000 1.743050 0.000000 
#    z 0.000000 0.000000 1.747770 
# 
# From -- ./inp_files/21153.got.cif
#   From: 2010.03.12/outbox.cif.g09.slc.cpg/sg74_11_cif.got.tgz:21153.got - 2010.04.16 15:46:19.
