data_PCOD8301279
_publ_section_title
;
Structure prediction by ZEFSAII (Michael W. Deem and Ramdas Pophale) SiO2 
 PCOD8301279
Probable space group: I M M A
;
_chemical_formula_sum "Si O2"
_cell_formula_units_Z 48
_cell_length_a 13.812194
_cell_length_b 15.105190
_cell_length_c 10.049413
_cell_angle_alpha 90.000000
_cell_angle_beta 90.000000
_cell_angle_gamma 90.000000
_cell_volume 2096.667468
_symmetry_space_group_name_H-M "I M M A"
_symmetry_group_IT_number 74
_symmetry_cell_setting 'orthorhombic'
loop_
_space_group_symop_operation_xyz
x,y,z
-x,1/2-y,z
x,-y,-z
-x,1/2+y,-z
-x,-y,-z
x,1/2+y,-z
-x,y,z
x,1/2-y,z
1/2+x,1/2+y,1/2+z
1/2-x,-y,1/2+z
1/2+x,1/2-y,1/2-z
1/2-x,y,1/2-z
1/2-x,1/2-y,1/2-z
1/2+x,y,1/2-z
1/2-x,1/2+y,1/2+z
1/2+x,-y,1/2+z
loop_
_atom_site_type_symbol
_atom_site_label
_atom_site_fract_x
_atom_site_fract_y
_atom_site_fract_z
Si Si1 0.000000 0.105152 0.990920
Si Si2 0.500000 0.649072 0.795064
Si Si3 0.163992 0.482111 0.354313
Si Si4 0.135307 0.153721 0.765252
O O1 0.000000 0.146597 0.135986
O O2 0.096622 0.139765 0.915451
O O3 0.000000 0.000000 0.000000
O O4 0.500000 0.750000 0.844094
O O5 0.404379 0.603132 0.854062
O O6 0.209019 0.500000 0.500000
O O7 0.250000 0.466312 0.250000
O O8 0.098209 0.569078 0.318360
O O9 0.097975 0.250000 0.713545
O O10 0.250000 0.151162 0.750000
#
# Coordination Sequence:
#
# PCOD8301279 Si02
#       4
#     8   8  16  16
#     4  12  22  43  72 106 143 190 235 296 356 425
#     4  12  27  45  72 105 146 191 240 296 356 416
#     4  11  26  46  73 108 145 188 235 295 361 422
#     4  10  22  39  67 102 141 183 231 285 349 424
#
# _framework density 22.893471999999999
#
# number of rings (size 3 to 8) (size 9 to 14) (size 15 to 20)
#    0.000    1.000    3.333    2.000    9.333    2.000 
#    0.000    0.000    0.000    0.000    0.000    0.000 
#    0.000    0.000    0.000    0.000    0.000    0.000 
#
# Total GULP energy -297347.397739 kJ/mol
# GULP energy per Si atom -12389.474906 kJ/mol
# Density = 2.284137 g / cm^3
# Si number density = 22.893472 Si / 1000 Ang^3
#
#
#
# Elastic Constant Matrix: (Units=GPa)
#
#
# Indices 1 2 3 4 5 6 
#
# 1 147.5537 43.3021 57.7040 0.0000 0.0000 0.0000
# 2 43.3021 217.2443 15.3473 0.0000 0.0000 0.0000
# 3 57.7040 15.3473 139.1715 0.0000 0.0000 0.0000
# 4 0.0000 0.0000 0.0000 26.6559 0.0000 0.0000
# 5 0.0000 0.0000 0.0000 0.0000 41.4268 0.0000
# 6 0.0000 0.0000 0.0000 0.0000 0.0000 27.4171
#
#
#
# Elastic Compliance Matrix: (Units=1/GPa)
#
#
# Indices 1 2 3 4 5 6 
#
# 1 0.008525 -0.001461 -0.003374 0.000000 0.000000 0.000000
# 2 -0.001461 0.004890 0.000067 0.000000 0.000000 0.000000
# 3 -0.003374 0.000067 0.008577 0.000000 0.000000 0.000000
# 4 0.000000 0.000000 0.000000 0.037515 0.000000 0.000000
# 5 0.000000 0.000000 0.000000 0.000000 0.024139 0.000000
# 6 0.000000 0.000000 0.000000 0.000000 0.000000 0.036474
#
#
# Mechanical properties :
#
#
# Convention : Reuss Voigt Hill
#
# Bulk Modulus (GPa) = 80.28552 81.85293 81.06923
# Shear Modulus (GPa) = 37.36709 44.94103 41.15406
#
# Velocity S-wave (km/s) = 4.04445 4.43544 4.24445
# Velocity P-wave (km/s) = 7.54688 7.87796 7.71420
#
# Compressibility (1/GPa) = 0.01245555
#
# Stress axis : x y z
#
# Youngs Moduli (GPa) = 117.29807 204.51493 116.59280
#
# Poissons Ratio (x) = 0.29879 0.39335
# Poissons Ratio (y) = 0.17137 -0.00776
# Poissons Ratio (z) = 0.39573 -0.01361
#
# Static dielectric constant tensor:
#      x y z
#    x 4.098850 0.000000 0.000000 
#    y 0.000000 5.079320 0.000000 
#    z 0.000000 0.000000 4.061650 
# 
# 
# High freq. dielectric constant tensor:
#      x y z
#    x 1.902160 0.000000 0.000000 
#    y 0.000000 1.928510 0.000000 
#    z 0.000000 0.000000 1.889340 
# 
# From -- ./inp_files/8099.got.cif
#   From: 2010.03.12/outbox.cif.g09.slc.cpg/sg74_5_cif.got.tgz:8099.got - 2010.04.16 15:46:19.
