data_PCOD8301565
_publ_section_title
;
Structure prediction by ZEFSAII (Michael W. Deem and Ramdas Pophale) SiO2 
 PCOD8301565
Probable space group: I M M A
;
_chemical_formula_sum "Si O2"
_cell_formula_units_Z 64
_cell_length_a 12.983624
_cell_length_b 15.978479
_cell_length_c 16.282099
_cell_angle_alpha 90.000000
_cell_angle_beta 90.000000
_cell_angle_gamma 90.000000
_cell_volume 3377.860868
_symmetry_space_group_name_H-M "I M M A"
_symmetry_group_IT_number 74
_symmetry_cell_setting 'orthorhombic'
loop_
_space_group_symop_operation_xyz
x,y,z
-x,1/2-y,z
x,-y,-z
-x,1/2+y,-z
-x,-y,-z
x,1/2+y,-z
-x,y,z
x,1/2-y,z
1/2+x,1/2+y,1/2+z
1/2-x,-y,1/2+z
1/2+x,1/2-y,1/2-z
1/2-x,y,1/2-z
1/2-x,1/2-y,1/2-z
1/2+x,y,1/2-z
1/2-x,1/2+y,1/2+z
1/2+x,-y,1/2+z
loop_
_atom_site_type_symbol
_atom_site_label
_atom_site_fract_x
_atom_site_fract_y
_atom_site_fract_z
Si Si1 0.500000 0.348677 0.275038
Si Si2 0.000000 0.590976 0.958896
Si Si3 0.674920 0.437978 0.180946
Si Si4 0.222153 0.654352 0.969984
Si Si5 0.110996 0.928267 0.432938
O O1 0.500000 0.250000 0.297801
O O2 0.500000 0.403997 0.358834
O O3 0.597893 0.369299 0.218445
O O4 0.103393 0.635420 0.992123
O O5 0.000000 0.500000 0.000000
O O6 0.750000 0.470402 0.250000
O O7 0.741392 0.398585 0.107739
O O8 0.619825 0.523747 0.153540
O O9 0.233887 0.750000 0.945679
O O10 0.294676 0.634770 0.048960
O O11 0.000000 0.880673 0.435394
O O12 0.112101 0.000000 0.500000
#
# Coordination Sequence:
#
# PCOD8301565 Si02
#       5
#     8   8  16  16  16
#     4  12  24  36  57  91 122 147 186 244 302 346
#     4  12  24  40  56  83 120 163 200 228 289 366
#     4  11  21  36  59  86 120 151 187 237 301 359
#     4  11  23  37  58  86 118 154 196 245 292 342
#     4   9  19  37  56  82 113 156 198 231 279 353
#
# _framework density 18.946902999999999
#
# number of rings (size 3 to 8) (size 9 to 14) (size 15 to 20)
#    0.000    1.250    3.750    4.125    1.750    1.500 
#    0.000    0.000    0.000    0.750    0.000    0.000 
#    0.000    0.000    0.000    0.000    0.000    0.000 
#
# Total GULP energy -396588.009346 kJ/mol
# GULP energy per Si atom -12393.375292 kJ/mol
# Density = 1.890378 g / cm^3
# Si number density = 18.946903 Si / 1000 Ang^3
#
#
#
# Elastic Constant Matrix: (Units=GPa)
#
#
# Indices 1 2 3 4 5 6 
#
# 1 168.7950 36.5020 40.3249 0.0000 0.0000 0.0000
# 2 36.5020 52.0552 40.7182 0.0000 0.0000 0.0000
# 3 40.3249 40.7182 77.7609 0.0000 0.0000 0.0000
# 4 0.0000 0.0000 0.0000 21.0776 0.0000 0.0000
# 5 0.0000 0.0000 0.0000 0.0000 24.3829 0.0000
# 6 0.0000 0.0000 0.0000 0.0000 0.0000 22.8994
#
#
#
# Elastic Compliance Matrix: (Units=1/GPa)
#
#
# Indices 1 2 3 4 5 6 
#
# 1 0.007134 -0.003571 -0.001829 0.000000 0.000000 0.000000
# 2 -0.003571 0.034325 -0.016122 0.000000 0.000000 0.000000
# 3 -0.001829 -0.016122 0.022250 0.000000 0.000000 0.000000
# 4 0.000000 0.000000 0.000000 0.047444 0.000000 0.000000
# 5 0.000000 0.000000 0.000000 0.000000 0.041012 0.000000
# 6 0.000000 0.000000 0.000000 0.000000 0.000000 0.043669
#
#
# Mechanical properties :
#
#
# Convention : Reuss Voigt Hill
#
# Bulk Modulus (GPa) = 48.39213 59.30014 53.84614
# Shear Modulus (GPa) = 20.34440 25.74306 23.04373
#
# Velocity S-wave (km/s) = 3.28038 3.69005 3.49123
# Velocity P-wave (km/s) = 6.32014 7.03714 6.68825
#
# Compressibility (1/GPa) = 0.02066452
#
# Stress axis : x y z
#
# Youngs Moduli (GPa) = 140.18038 29.13297 44.94291
#
# Poissons Ratio (x) = 0.10405 0.08221
# Poissons Ratio (y) = 0.50064 0.72456
# Poissons Ratio (z) = 0.25642 0.46968
#
# Static dielectric constant tensor:
#      x y z
#    x 4.576580 0.000000 0.000000 
#    y 0.000000 3.312560 0.000000 
#    z 0.000000 0.000000 3.639310 
# 
# 
# High freq. dielectric constant tensor:
#      x y z
#    x 1.766340 0.000000 0.000000 
#    y 0.000000 1.705320 0.000000 
#    z 0.000000 0.000000 1.717400 
# 
# From -- ./inp_files/30238.got.cif
#   From: 2010.03.12/outbox.cif.g09.slc.cpg/sg74_16_cif.got.tgz:30238.got - 2010.04.16 15:46:19.
