data_PCOD8301868
_publ_section_title
;
Structure prediction by ZEFSAII (Michael W. Deem and Ramdas Pophale) SiO2 
 PCOD8301868
Probable space group: P 41
;
_chemical_formula_sum "Si O2"
_cell_formula_units_Z 24
_cell_length_a 8.031782
_cell_length_b 8.031782
_cell_length_c 17.160236
_cell_angle_alpha 90.000000
_cell_angle_beta 90.000000
_cell_angle_gamma 90.000000
_cell_volume 1106.998623
_symmetry_space_group_name_H-M "P 41"
_symmetry_group_IT_number 76
_symmetry_cell_setting 'tetragonal'
loop_
_space_group_symop_operation_xyz
x,y,z
-y,x,1/4+z
-x,-y,1/2+z
y,-x,3/4+z
loop_
_atom_site_type_symbol
_atom_site_label
_atom_site_fract_x
_atom_site_fract_y
_atom_site_fract_z
Si Si1 0.741174 0.703710 0.075390
Si Si2 0.044480 0.113075 0.852441
Si Si3 0.897880 0.384661 0.550959
Si Si4 0.047017 0.757300 0.892309
Si Si5 0.597205 0.286666 0.653203
Si Si6 0.883022 0.752868 0.509939
O O1 0.759503 0.904462 0.072939
O O2 0.592122 0.655086 0.134718
O O3 0.924358 0.630324 0.096726
O O4 0.679942 0.633016 0.993157
O O5 0.958583 0.939015 0.882659
O O6 0.173309 0.066286 0.783380
O O7 0.156992 0.186794 0.922665
O O8 0.880555 0.248499 0.480868
O O9 0.738082 0.385722 0.606104
O O10 0.894758 0.557376 0.505713
O O11 0.187745 0.744518 0.824338
O O12 0.908839 0.614587 0.881974
#
# Coordination Sequence:
#
# PCOD8301868 Si02
#       6
#     4   4   4   4   4   4
#     4  11  24  42  69  97 132 179 227 288 341 422
#     4  10  19  40  65  95 123 168 226 276 338 405
#     4  11  22  41  63  96 140 173 225 281 345 411
#     4   9  20  38  66  92 124 177 221 276 339 406
#     4  11  23  42  68  95 134 180 226 279 353 409
#     4  10  22  37  67  97 129 173 231 282 344 421
#
# _framework density 21.680243999999998
#
# number of rings (size 3 to 8) (size 9 to 14) (size 15 to 20)
#    1.000    0.667    1.667    5.000    2.333    0.000 
#    3.000    1.667    0.000    0.000    0.000    0.000 
#    0.000    0.000    0.000    0.000    0.000    0.000 
#
# Total GULP energy -297325.226763 kJ/mol
# GULP energy per Si atom -12388.551115 kJ/mol
# Density = 2.163090 g / cm^3
# Si number density = 21.680244 Si / 1000 Ang^3
#
#
#
# Elastic Constant Matrix: (Units=GPa)
#
#
# Indices 1 2 3 4 5 6 
#
# 1 67.4846 9.4662 15.8395 0.0000 0.0000 1.1109
# 2 9.4662 67.4846 15.8395 0.0000 0.0000 -1.1109
# 3 15.8395 15.8395 68.2866 0.0000 0.0000 0.0000
# 4 0.0000 0.0000 0.0000 23.7721 0.0000 0.0000
# 5 0.0000 0.0000 0.0000 0.0000 23.7721 0.0000
# 6 1.1109 -1.1109 0.0000 0.0000 0.0000 14.0951
#
#
#
# Elastic Compliance Matrix: (Units=1/GPa)
#
#
# Indices 1 2 3 4 5 6 
#
# 1 0.015828 -0.001460 -0.003333 0.000000 0.000000 -0.001363
# 2 -0.001460 0.015828 -0.003333 0.000000 0.000000 0.001363
# 3 -0.003333 -0.003333 0.016190 0.000000 0.000000 0.000000
# 4 0.000000 0.000000 0.000000 0.042066 0.000000 0.000000
# 5 0.000000 0.000000 0.000000 0.000000 0.042066 0.000000
# 6 -0.001363 0.001363 0.000000 0.000000 0.000000 0.071161
#
#
# Mechanical properties :
#
#
# Convention : Reuss Voigt Hill
#
# Bulk Modulus (GPa) = 31.65113 31.72733 31.68923
# Shear Modulus (GPa) = 21.74653 23.13523 22.44088
#
# Velocity S-wave (km/s) = 3.17054 3.27021 3.22076
# Velocity P-wave (km/s) = 5.29470 5.37820 5.33661
#
# Compressibility (1/GPa) = 0.03159444
#
# Stress axis : x y z
#
# Youngs Moduli (GPa) = 63.18042 63.18042 61.76580
#
# Poissons Ratio (x) = 0.09227 0.20584
# Poissons Ratio (y) = 0.09227 0.20584
# Poissons Ratio (z) = 0.21055 0.21055
#
# Static dielectric constant tensor:
#      x y z
#    x 3.657790 0.000000 0.000000 
#    y 0.000000 3.657790 0.000000 
#    z 0.000000 0.000000 3.816290 
# 
# 
# High freq. dielectric constant tensor:
#      x y z
#    x 1.829500 0.000000 0.000000 
#    y 0.000000 1.829500 0.000000 
#    z 0.000000 0.000000 1.850690 
# 
# From -- ./inp_files/1210.got.cif
#   From: 2010.03.12/outbox.cif.g09.slc.cpg/sg76_cif.got.tgz:1210.got - 2010.04.16 16:34:25.
