data_PCOD8301936
_publ_section_title
;
Structure prediction by ZEFSAII (Michael W. Deem and Ramdas Pophale) SiO2 
 PCOD8301936
Probable space group: P 41
;
_chemical_formula_sum "Si O2"
_cell_formula_units_Z 24
_cell_length_a 15.887400
_cell_length_b 15.887400
_cell_length_c 5.051468
_cell_angle_alpha 90.000000
_cell_angle_beta 90.000000
_cell_angle_gamma 90.000000
_cell_volume 1275.038405
_symmetry_space_group_name_H-M "P 41"
_symmetry_group_IT_number 76
_symmetry_cell_setting 'tetragonal'
loop_
_space_group_symop_operation_xyz
x,y,z
-y,x,1/4+z
-x,-y,1/2+z
y,-x,3/4+z
loop_
_atom_site_type_symbol
_atom_site_label
_atom_site_fract_x
_atom_site_fract_y
_atom_site_fract_z
Si Si1 0.751893 0.463435 0.872890
Si Si2 0.364055 0.821010 0.263909
Si Si3 0.743758 0.698462 0.531767
Si Si4 0.615943 0.829076 0.617886
Si Si5 0.594685 0.414979 0.161879
Si Si6 0.556249 0.003232 0.759373
O O1 0.757002 0.559530 0.963593
O O2 0.780700 0.446519 0.572055
O O3 0.816539 0.416824 0.070323
O O4 0.655774 0.430964 0.908398
O O5 0.304172 0.782353 0.488908
O O6 0.391120 0.914897 0.342630
O O7 0.316235 0.820571 0.984013
O O8 0.709367 0.790420 0.615225
O O9 0.667255 0.630482 0.563713
O O10 0.619569 0.927712 0.685173
O O11 0.601127 0.497836 0.344337
O O12 0.499415 0.026439 0.506971
#
# Coordination Sequence:
#
# PCOD8301936 Si02
#       6
#     4   4   4   4   4   4
#     4  11  22  37  54  74 110 140 197 242 289 327
#     4  12  22  39  57  81 111 145 193 239 303 344
#     4  11  25  39  55  76 114 154 189 242 297 342
#     4  11  22  40  57  80 109 150 185 242 293 362
#     4  11  25  34  48  74 101 155 205 242 262 313
#     4  12  22  37  61  89 111 144 197 253 302 358
#
# _framework density 18.822960999999999
#
# number of rings (size 3 to 8) (size 9 to 14) (size 15 to 20)
#    0.000    0.667    5.000    4.000    4.667    0.000 
#    0.000    0.000    0.000    0.000    0.000    0.000 
#    0.000    2.667    0.000    0.167    0.000    0.000 
#
# Total GULP energy -297519.714956 kJ/mol
# GULP energy per Si atom -12396.654790 kJ/mol
# Density = 1.878012 g / cm^3
# Si number density = 18.822961 Si / 1000 Ang^3
#
#
#
# Elastic Constant Matrix: (Units=GPa)
#
#
# Indices 1 2 3 4 5 6 
#
# 1 88.9136 19.4077 17.1248 0.0000 0.0000 0.4096
# 2 19.4077 88.9136 17.1248 0.0000 0.0000 -0.4096
# 3 17.1248 17.1248 76.2700 0.0000 0.0000 0.0000
# 4 0.0000 0.0000 0.0000 24.4126 0.0000 0.0000
# 5 0.0000 0.0000 0.0000 0.0000 24.4126 0.0000
# 6 0.4096 -0.4096 0.0000 0.0000 0.0000 17.4924
#
#
#
# Elastic Compliance Matrix: (Units=1/GPa)
#
#
# Indices 1 2 3 4 5 6 
#
# 1 0.012164 -0.002227 -0.002231 0.000000 0.000000 -0.000337
# 2 -0.002227 0.012164 -0.002231 0.000000 0.000000 0.000337
# 3 -0.002231 -0.002231 0.014113 0.000000 0.000000 0.000000
# 4 0.000000 0.000000 0.000000 0.040962 0.000000 0.000000
# 5 0.000000 0.000000 0.000000 0.000000 0.040962 0.000000
# 6 -0.000337 0.000337 0.000000 0.000000 0.000000 0.057183
#
#
# Mechanical properties :
#
#
# Convention : Reuss Voigt Hill
#
# Bulk Modulus (GPa) = 39.89946 40.15685 40.02815
# Shear Modulus (GPa) = 25.08995 26.62620 25.85807
#
# Velocity S-wave (km/s) = 3.65491 3.76514 3.71044
# Velocity P-wave (km/s) = 6.24935 6.34681 6.29827
#
# Compressibility (1/GPa) = 0.02506300
#
# Stress axis : x y z
#
# Youngs Moduli (GPa) = 82.20811 82.20811 70.85536
#
# Poissons Ratio (x) = 0.18308 0.15809
# Poissons Ratio (y) = 0.18308 0.15809
# Poissons Ratio (z) = 0.18342 0.18342
#
# Static dielectric constant tensor:
#      x y z
#    x 3.354920 0.000000 0.000000 
#    y 0.000000 3.354920 0.000000 
#    z 0.000000 0.000000 3.658760 
# 
# 
# High freq. dielectric constant tensor:
#      x y z
#    x 1.700020 0.000000 0.000000 
#    y 0.000000 1.700020 0.000000 
#    z 0.000000 0.000000 1.753700 
# 
# From -- ./inp_files/176.got.cif
#   From: 2010.03.12/outbox.cif.g09.slc.cpg/sg76_cif.got.tgz:176.got - 2010.04.16 16:34:25.
