data_PCOD8301861
_publ_section_title
;
Structure prediction by ZEFSAII (Michael W. Deem and Ramdas Pophale) SiO2 
 PCOD8301861
Probable space group: P 41
;
_chemical_formula_sum "Si O2"
_cell_formula_units_Z 32
_cell_length_a 14.690959
_cell_length_b 14.690959
_cell_length_c 7.883752
_cell_angle_alpha 90.000000
_cell_angle_beta 90.000000
_cell_angle_gamma 90.000000
_cell_volume 1701.505070
_symmetry_space_group_name_H-M "P 41"
_symmetry_group_IT_number 76
_symmetry_cell_setting 'tetragonal'
loop_
_space_group_symop_operation_xyz
x,y,z
-y,x,1/4+z
-x,-y,1/2+z
y,-x,3/4+z
loop_
_atom_site_type_symbol
_atom_site_label
_atom_site_fract_x
_atom_site_fract_y
_atom_site_fract_z
Si Si1 0.335222 0.932470 0.911490
Si Si2 0.132743 0.717033 0.211172
Si Si3 0.868187 0.311387 0.098816
Si Si4 0.494678 0.865966 0.317950
Si Si5 0.985146 0.112170 0.684641
Si Si6 0.694592 0.182288 0.736835
Si Si7 0.534523 0.951306 0.967970
Si Si8 0.775241 0.131498 0.094735
O O1 0.442213 0.912140 0.886656
O O2 0.293339 0.903779 0.734109
O O3 0.317499 0.038331 0.953246
O O4 0.294093 0.882615 0.075195
O O5 0.105912 0.715016 0.407581
O O6 0.243187 0.728911 0.196387
O O7 0.099992 0.621165 0.129903
O O8 0.079568 0.802914 0.131267
O O9 0.816254 0.410392 0.122003
O O10 0.805198 0.230265 0.167340
O O11 0.413708 0.795504 0.266993
O O12 0.455362 0.939106 0.452250
O O13 0.529705 0.930954 0.166729
O O14 0.061680 0.140749 0.823778
O O15 0.032415 0.076209 0.514134
O O16 0.730544 0.134891 0.907851
#
# Coordination Sequence:
#
# PCOD8301861 Si02
#       8
#     4   4   4   4   4   4   4   4
#     4  10  20  37  53  81 106 140 181 230 275 325
#     4  10  19  36  53  74 108 148 179 226 276 326
#     4   9  18  35  55  76 104 144 180 227 274 315
#     4   9  18  32  53  79 104 132 181 231 272 321
#     4  12  23  36  50  72 107 158 198 221 268 317
#     4  10  21  35  54  79 106 139 179 224 273 328
#     4   9  19  32  55  76 103 133 182 226 282 325
#     4  11  20  39  55  71 114 146 178 229 274 319
#
# _framework density 18.806878999999999
#
# number of rings (size 3 to 8) (size 9 to 14) (size 15 to 20)
#    0.000    2.000    3.750    0.750    3.500    2.000 
#    9.000    0.000    0.000    0.000    0.000    0.000 
#   60.000    0.000    0.000    0.000    0.000    0.000 
#
# Total GULP energy -396440.121534 kJ/mol
# GULP energy per Si atom -12388.753798 kJ/mol
# Density = 1.876407 g / cm^3
# Si number density = 18.806879 Si / 1000 Ang^3
#
#
#
# Elastic Constant Matrix: (Units=GPa)
#
#
# Indices 1 2 3 4 5 6 
#
# 1 99.7581 45.2431 9.9113 0.0000 0.0000 -1.1357
# 2 45.2431 99.7581 9.9113 0.0000 0.0000 1.1357
# 3 9.9113 9.9113 49.9676 0.0000 0.0000 0.0000
# 4 0.0000 0.0000 0.0000 18.0484 0.0000 0.0000
# 5 0.0000 0.0000 0.0000 0.0000 18.0484 0.0000
# 6 -1.1357 1.1357 0.0000 0.0000 0.0000 20.8045
#
#
#
# Elastic Compliance Matrix: (Units=1/GPa)
#
#
# Indices 1 2 3 4 5 6 
#
# 1 0.012737 -0.005648 -0.001406 0.000000 0.000000 0.001004
# 2 -0.005648 0.012737 -0.001406 0.000000 0.000000 -0.001004
# 3 -0.001406 -0.001406 0.020571 0.000000 0.000000 0.000000
# 4 0.000000 0.000000 0.000000 0.055407 0.000000 0.000000
# 5 0.000000 0.000000 0.000000 0.000000 0.055407 0.000000
# 6 0.001004 -0.001004 0.000000 0.000000 0.000000 0.048176
#
#
# Mechanical properties :
#
#
# Convention : Reuss Voigt Hill
#
# Bulk Modulus (GPa) = 34.33610 42.17948 38.25779
# Shear Modulus (GPa) = 21.58305 23.67479 22.62892
#
# Velocity S-wave (km/s) = 3.39132 3.55186 3.47252
# Velocity P-wave (km/s) = 5.79927 6.26876 6.03858
#
# Compressibility (1/GPa) = 0.02912387
#
# Stress axis : x y z
#
# Youngs Moduli (GPa) = 78.51101 78.51101 48.61269
#
# Poissons Ratio (x) = 0.44346 0.06835
# Poissons Ratio (y) = 0.44346 0.06835
# Poissons Ratio (z) = 0.11039 0.11039
#
# Static dielectric constant tensor:
#      x y z
#    x 3.685390 0.000000 0.000000 
#    y 0.000000 3.685390 0.000000 
#    z 0.000000 0.000000 3.314450 
# 
# 
# High freq. dielectric constant tensor:
#      x y z
#    x 1.715320 0.000000 0.000000 
#    y 0.000000 1.715320 0.000000 
#    z 0.000000 0.000000 1.719850 
# 
# From -- ./inp_files/693.got.cif
#   From: 2010.03.12/outbox.cif.g09.slc.cpg/sg76_cif.got.tgz:693.got - 2010.04.16 16:34:25.
