data_PCOD8301115
_publ_section_title
;
Structure prediction by ZEFSAII (Michael W. Deem and Ramdas Pophale) SiO2 
 PCOD8301115
Probable space group: I M M A
;
_chemical_formula_sum "Si O2"
_cell_formula_units_Z 84
_cell_length_a 19.534390
_cell_length_b 14.060781
_cell_length_c 14.675340
_cell_angle_alpha 90.000000
_cell_angle_beta 90.000000
_cell_angle_gamma 90.000000
_cell_volume 4030.857730
_symmetry_space_group_name_H-M "I M M A"
_symmetry_group_IT_number 74
_symmetry_cell_setting 'orthorhombic'
loop_
_space_group_symop_operation_xyz
x,y,z
-x,1/2-y,z
x,-y,-z
-x,1/2+y,-z
-x,-y,-z
x,1/2+y,-z
-x,y,z
x,1/2-y,z
1/2+x,1/2+y,1/2+z
1/2-x,-y,1/2+z
1/2+x,1/2-y,1/2-z
1/2-x,y,1/2-z
1/2-x,1/2-y,1/2-z
1/2+x,y,1/2-z
1/2-x,1/2+y,1/2+z
1/2+x,-y,1/2+z
loop_
_atom_site_type_symbol
_atom_site_label
_atom_site_fract_x
_atom_site_fract_y
_atom_site_fract_z
Si Si1 0.000000 0.854299 0.647096
Si Si2 0.500000 0.250000 0.446307
Si Si3 0.782339 0.068399 0.085835
Si Si4 0.630438 0.055020 0.093067
Si Si5 0.180273 0.750000 0.192031
Si Si6 0.150894 0.250000 0.011574
Si Si7 0.500000 0.446210 0.334401
Si Si8 0.630229 0.956784 0.282934
O O1 0.069474 0.867990 0.589187
O O2 0.000000 0.928280 0.727633
O O3 0.000000 0.750000 0.688865
O O4 0.568898 0.250000 0.507258
O O5 0.500000 0.347114 0.387907
O O6 0.704569 0.105207 0.099606
O O7 0.803151 0.008778 0.175486
O O8 0.830885 0.158901 0.072546
O O9 0.788328 0.000000 0.000000
O O10 0.620790 0.983983 0.177914
O O11 0.624587 0.000000 0.000000
O O12 0.250000 0.750000 0.250000
O O13 0.193726 0.750000 0.082767
O O14 0.136544 0.656885 0.215536
O O15 0.432227 0.510287 0.350080
#
# Coordination Sequence:
#
# PCOD8301115 Si02
#       8
#     8   4  16  16   8   8   8  16
#     4  10  21  39  62  92 126 172 227 275 359 404
#     4  12  22  44  68 106 146 186 224 294 350 428
#     4  11  22  41  64  98 137 170 227 276 348 413
#     4  10  23  41  66  89 132 173 228 286 343 413
#     4  12  26  44  68  94 138 176 230 270 347 410
#     4  12  26  40  70 105 136 185 228 281 348 426
#     4  10  22  41  68  93 141 180 219 282 355 420
#     4  11  23  44  67  98 133 184 221 287 346 414
#
# _framework density 20.839237000000001
#
# number of rings (size 3 to 8) (size 9 to 14) (size 15 to 20)
#    0.000    1.143    4.286    2.000    4.000    1.143 
#    1.714    2.857    0.000    0.000    0.000    0.000 
#    0.000    0.000    0.000    0.000    0.000    0.000 
#
# Total GULP energy -520664.776874 kJ/mol
# GULP energy per Si atom -12396.780402 kJ/mol
# Density = 2.079181 g / cm^3
# Si number density = 20.839237 Si / 1000 Ang^3
#
#
#
# Elastic Constant Matrix: (Units=GPa)
#
#
# Indices 1 2 3 4 5 6 
#
# 1 153.7265 59.5018 24.2418 0.0000 0.0000 0.0000
# 2 59.5018 139.0858 29.8270 0.0000 0.0000 0.0000
# 3 24.2418 29.8270 96.6664 0.0000 0.0000 0.0000
# 4 0.0000 0.0000 0.0000 21.4383 0.0000 0.0000
# 5 0.0000 0.0000 0.0000 0.0000 29.6784 0.0000
# 6 0.0000 0.0000 0.0000 0.0000 0.0000 30.4652
#
#
#
# Elastic Compliance Matrix: (Units=1/GPa)
#
#
# Indices 1 2 3 4 5 6 
#
# 1 0.007886 -0.003158 -0.001003 0.000000 0.000000 0.000000
# 2 -0.003158 0.008964 -0.001974 0.000000 0.000000 0.000000
# 3 -0.001003 -0.001974 0.011205 0.000000 0.000000 0.000000
# 4 0.000000 0.000000 0.000000 0.046645 0.000000 0.000000
# 5 0.000000 0.000000 0.000000 0.000000 0.033694 0.000000
# 6 0.000000 0.000000 0.000000 0.000000 0.000000 0.032824
#
#
# Mechanical properties :
#
#
# Convention : Reuss Voigt Hill
#
# Bulk Modulus (GPa) = 63.35239 68.51332 65.93286
# Shear Modulus (GPa) = 31.49563 34.71026 33.10295
#
# Velocity S-wave (km/s) = 3.89184 4.08563 3.98991
# Velocity P-wave (km/s) = 7.11771 7.43000 7.27553
#
# Compressibility (1/GPa) = 0.01578472
#
# Stress axis : x y z
#
# Youngs Moduli (GPa) = 126.81087 111.55322 89.24224
#
# Poissons Ratio (x) = 0.35234 0.08951
# Poissons Ratio (y) = 0.40053 0.17616
# Poissons Ratio (z) = 0.12719 0.22020
#
# Static dielectric constant tensor:
#      x y z
#    x 4.362010 0.000000 0.000000 
#    y 0.000000 3.678460 0.000000 
#    z 0.000000 0.000000 3.655940 
# 
# 
# High freq. dielectric constant tensor:
#      x y z
#    x 1.832620 0.000000 0.000000 
#    y 0.000000 1.808260 0.000000 
#    z 0.000000 0.000000 1.810160 
# 
# From -- ./inp_files/35216.got.cif
#   From: 2010.03.12/outbox.cif.g09.slc.cpg/sg74_18_cif.got.tgz:35216.got - 2010.04.16 15:46:19.
