data_PCOD8301446
_publ_section_title
;
Structure prediction by ZEFSAII (Michael W. Deem and Ramdas Pophale) SiO2 
 PCOD8301446
Probable space group: I M M A
;
_chemical_formula_sum "Si O2"
_cell_formula_units_Z 80
_cell_length_a 14.175266
_cell_length_b 23.287654
_cell_length_c 13.571909
_cell_angle_alpha 90.000000
_cell_angle_beta 90.000000
_cell_angle_gamma 90.000000
_cell_volume 4480.205100
_symmetry_space_group_name_H-M "I M M A"
_symmetry_group_IT_number 74
_symmetry_cell_setting 'orthorhombic'
loop_
_space_group_symop_operation_xyz
x,y,z
-x,1/2-y,z
x,-y,-z
-x,1/2+y,-z
-x,-y,-z
x,1/2+y,-z
-x,y,z
x,1/2-y,z
1/2+x,1/2+y,1/2+z
1/2-x,-y,1/2+z
1/2+x,1/2-y,1/2-z
1/2-x,y,1/2-z
1/2-x,1/2-y,1/2-z
1/2+x,y,1/2-z
1/2-x,1/2+y,1/2+z
1/2+x,-y,1/2+z
loop_
_atom_site_type_symbol
_atom_site_label
_atom_site_fract_x
_atom_site_fract_y
_atom_site_fract_z
Si Si1 0.605167 0.636442 0.616530
Si Si2 0.395634 0.958908 0.093415
Si Si3 0.890327 0.068117 0.304209
Si Si4 0.360681 0.250000 0.263290
Si Si5 0.294742 0.867007 0.980184
Si Si6 0.105333 0.750000 0.539070
O O1 0.500000 0.627412 0.572121
O O2 0.630981 0.584712 0.691650
O O3 0.605664 0.695102 0.676969
O O4 0.680853 0.636543 0.527922
O O5 0.500000 0.932794 0.113651
O O6 0.362485 0.000605 0.182886
O O7 0.322281 0.907494 0.072689
O O8 0.400335 0.000000 0.000000
O O9 0.833135 0.109820 0.376352
O O10 0.000000 0.076938 0.331331
O O11 0.250000 0.250000 0.250000
O O12 0.407180 0.250000 0.156541
O O13 0.337196 0.804609 0.000263
O O14 0.000000 0.750000 0.493567
#
# Coordination Sequence:
#
# PCOD8301446 Si02
#       6
#    16  16  16   8  16   8
#     4  11  20  28  39  57  83 114 145 171 194 232
#     4   8  15  27  42  57  73 100 135 171 208 244
#     4   9  16  27  42  57  74 100 136 172 207 243
#     4  12  18  29  37  54  83 115 141 165 195 229
#     4  11  18  27  39  58  82 107 137 166 200 239
#     4  12  20  25  38  59  84 110 134 166 202 240
#
# _framework density 17.856325999999999
#
# number of rings (size 3 to 8) (size 9 to 14) (size 15 to 20)
#    0.000    1.800    4.000    4.500    0.000    0.000 
#    0.000    0.000    0.000    5.400    0.000    0.000 
#    0.000    0.000    0.000   34.200    0.000   78.600 
#
# Total GULP energy -495835.029047 kJ/mol
# GULP energy per Si atom -12395.875726 kJ/mol
# Density = 1.781568 g / cm^3
# Si number density = 17.856326 Si / 1000 Ang^3
#
#
#
# Elastic Constant Matrix: (Units=GPa)
#
#
# Indices 1 2 3 4 5 6 
#
# 1 116.7497 53.5638 22.6833 0.0000 0.0000 0.0000
# 2 53.5638 125.9796 32.9535 0.0002 0.0000 0.0000
# 3 22.6833 32.9535 19.1127 0.0002 0.0000 0.0000
# 4 0.0000 0.0002 0.0002 10.6250 0.0000 0.0000
# 5 0.0000 0.0000 0.0000 0.0000 10.4695 0.0000
# 6 0.0000 0.0000 0.0000 0.0000 0.0000 14.6600
#
#
#
# Elastic Compliance Matrix: (Units=1/GPa)
#
#
# Indices 1 2 3 4 5 6 
#
# 1 0.011520 -0.002407 -0.009521 0.000000 0.000000 0.000000
# 2 -0.002407 0.014962 -0.022940 0.000000 0.000000 0.000000
# 3 -0.009521 -0.022940 0.103172 -0.000002 0.000000 0.000000
# 4 0.000000 0.000000 -0.000002 0.094117 0.000000 0.000000
# 5 0.000000 0.000000 0.000000 0.000000 0.095516 0.000000
# 6 0.000000 0.000000 0.000000 0.000000 0.000000 0.068213
#
#
# Mechanical properties :
#
#
# Convention : Reuss Voigt Hill
#
# Bulk Modulus (GPa) = 16.68944 53.36038 35.02491
# Shear Modulus (GPa) = 10.47760 17.32698 13.90229
#
# Velocity S-wave (km/s) = 2.42497 3.11843 2.79330
# Velocity P-wave (km/s) = 4.14818 6.55089 5.48277
#
# Compressibility (1/GPa) = 0.05991812
#
# Stress axis : x y z
#
# Youngs Moduli (GPa) = 86.80793 66.83652 9.69251
#
# Poissons Ratio (x) = 0.16091 0.09228
# Poissons Ratio (y) = 0.20899 0.22234
# Poissons Ratio (z) = 0.82649 1.53320
#
# Static dielectric constant tensor:
#      x y z
#    x 3.435570 0.000000 0.000000 
#    y 0.000000 3.711060 0.000000 
#    z 0.000000 0.000000 2.865170 
# 
# 
# High freq. dielectric constant tensor:
#      x y z
#    x 1.703700 0.000000 0.000000 
#    y 0.000000 1.692280 0.000000 
#    z 0.000000 0.000000 1.604260 
# 
# From -- ./inp_files/24917.got.cif
#   From: 2010.03.12/outbox.cif.g09.slc.cpg/sg74_13_cif.got.tgz:24917.got - 2010.04.16 15:46:19.
