data_PCOD8301145
_publ_section_title
;
Structure prediction by ZEFSAII (Michael W. Deem and Ramdas Pophale) SiO2 
 PCOD8301145
Probable space group: I M M A
;
_chemical_formula_sum "Si O2"
_cell_formula_units_Z 64
_cell_length_a 13.128442
_cell_length_b 13.065901
_cell_length_c 16.212004
_cell_angle_alpha 90.000000
_cell_angle_beta 90.000000
_cell_angle_gamma 90.000000
_cell_volume 2780.924865
_symmetry_space_group_name_H-M "I M M A"
_symmetry_group_IT_number 74
_symmetry_cell_setting 'orthorhombic'
loop_
_space_group_symop_operation_xyz
x,y,z
-x,1/2-y,z
x,-y,-z
-x,1/2+y,-z
-x,-y,-z
x,1/2+y,-z
-x,y,z
x,1/2-y,z
1/2+x,1/2+y,1/2+z
1/2-x,-y,1/2+z
1/2+x,1/2-y,1/2-z
1/2-x,y,1/2-z
1/2-x,1/2-y,1/2-z
1/2+x,y,1/2-z
1/2-x,1/2+y,1/2+z
1/2+x,-y,1/2+z
loop_
_atom_site_type_symbol
_atom_site_label
_atom_site_fract_x
_atom_site_fract_y
_atom_site_fract_z
Si Si1 0.613613 0.871779 0.040448
Si Si2 0.790176 0.361808 0.840755
Si Si3 0.612803 0.562822 0.689009
Si Si4 0.320829 0.367578 0.137180
O O1 0.500000 0.905907 0.067502
O O2 0.621414 0.750000 0.036330
O O3 0.698360 0.910285 0.104948
O O4 0.637462 0.915972 0.948556
O O5 0.827344 0.250000 0.874223
O O6 0.750000 0.345778 0.750000
O O7 0.880976 0.444127 0.839908
O O8 0.500000 0.603761 0.667507
O O9 0.632356 0.568559 0.787257
O O10 0.697299 0.628719 0.640387
O O11 0.355821 0.250000 0.145557
#
# Coordination Sequence:
#
# PCOD8301145 Si02
#       4
#    16  16  16  16
#     4   9  19  38  66  93 117 152 199 254 310 354
#     4  10  21  40  60  84 122 158 199 250 298 357
#     4  11  22  38  59  88 124 163 203 239 299 368
#     4  10  21  40  63  93 125 152 199 258 305 355
#
# _framework density 23.013926000000001
#
# number of rings (size 3 to 8) (size 9 to 14) (size 15 to 20)
#    0.000    2.000    2.500    2.250    0.000    5.500 
#    0.000    6.250    0.000    4.500    0.000    0.000 
#    0.000    0.000    0.000    0.000    0.000    0.000 
#
# Total GULP energy -396722.825895 kJ/mol
# GULP energy per Si atom -12397.588309 kJ/mol
# Density = 2.296154 g / cm^3
# Si number density = 23.013926 Si / 1000 Ang^3
#
#
#
# Elastic Constant Matrix: (Units=GPa)
#
#
# Indices 1 2 3 4 5 6 
#
# 1 143.6234 10.0539 42.6249 0.0000 0.0000 0.0000
# 2 10.0539 66.5449 14.9350 0.0000 0.0000 0.0000
# 3 42.6249 14.9350 109.0941 0.0000 0.0000 0.0000
# 4 0.0000 0.0000 0.0000 12.2579 0.0000 0.0000
# 5 0.0000 0.0000 0.0000 0.0000 22.7630 0.0000
# 6 0.0000 0.0000 0.0000 0.0000 0.0000 13.5163
#
#
#
# Elastic Compliance Matrix: (Units=1/GPa)
#
#
# Indices 1 2 3 4 5 6 
#
# 1 0.007893 -0.000516 -0.003013 0.000000 0.000000 0.000000
# 2 -0.000516 0.015538 -0.001925 0.000000 0.000000 0.000000
# 3 -0.003013 -0.001925 0.010607 0.000000 0.000000 0.000000
# 4 0.000000 0.000000 0.000000 0.081580 0.000000 0.000000
# 5 0.000000 0.000000 0.000000 0.000000 0.043931 0.000000
# 6 0.000000 0.000000 0.000000 0.000000 0.000000 0.073985
#
#
# Mechanical properties :
#
#
# Convention : Reuss Voigt Hill
#
# Bulk Modulus (GPa) = 43.23736 50.49888 46.86812
# Shear Modulus (GPa) = 19.82925 26.48402 23.15664
#
# Velocity S-wave (km/s) = 2.93852 3.39600 3.17551
# Velocity P-wave (km/s) = 5.50831 6.11289 5.81846
#
# Compressibility (1/GPa) = 0.02312814
#
# Stress axis : x y z
#
# Youngs Moduli (GPa) = 126.69320 64.36018 94.27445
#
# Poissons Ratio (x) = 0.03323 0.28408
# Poissons Ratio (y) = 0.06540 0.18151
# Poissons Ratio (z) = 0.38176 0.12392
#
# Static dielectric constant tensor:
#      x y z
#    x 4.004310 0.000000 0.000000 
#    y 0.000000 4.547480 0.000000 
#    z 0.000000 0.000000 4.138450 
# 
# 
# High freq. dielectric constant tensor:
#      x y z
#    x 1.883690 0.000000 0.000000 
#    y 0.000000 1.938810 0.000000 
#    z 0.000000 0.000000 1.892580 
# 
# From -- ./inp_files/40698.got.cif
#   From: 2010.03.12/outbox.cif.g09.slc.cpg/sg74_21_cif.got.tgz:40698.got - 2010.04.16 15:46:19.
