data_PCOD8301821
_publ_section_title
;
Structure prediction by ZEFSAII (Michael W. Deem and Ramdas Pophale) SiO2 
 PCOD8301821
Probable space group: I M M A
;
_chemical_formula_sum "Si O2"
_cell_formula_units_Z 48
_cell_length_a 24.000000
_cell_length_b 9.000000
_cell_length_c 24.000000
_cell_angle_alpha 90.000000
_cell_angle_beta 90.000000
_cell_angle_gamma 90.000000
_cell_volume 5184.000000
_symmetry_space_group_name_H-M "I M M A"
_symmetry_group_IT_number 74
_symmetry_cell_setting 'orthorhombic'
loop_
_space_group_symop_operation_xyz
x,y,z
-x,1/2-y,z
x,-y,-z
-x,1/2+y,-z
-x,-y,-z
x,1/2+y,-z
-x,y,z
x,1/2-y,z
1/2+x,1/2+y,1/2+z
1/2-x,-y,1/2+z
1/2+x,1/2-y,1/2-z
1/2-x,y,1/2-z
1/2-x,1/2-y,1/2-z
1/2+x,y,1/2-z
1/2-x,1/2+y,1/2+z
1/2+x,-y,1/2+z
loop_
_atom_site_type_symbol
_atom_site_label
_atom_site_fract_x
_atom_site_fract_y
_atom_site_fract_z
Si Si1 0.500000 0.925553 0.273565
Si Si2 0.885276 0.425646 0.828473
Si Si3 0.195179 0.074515 0.603068
Si Si4 0.089549 0.573649 0.556975
Si Si5 0.180552 0.925632 0.060983
Si Si6 0.500000 0.075262 0.149806
Si Si7 0.808430 0.926611 0.270261
O O1 0.500000 0.750000 0.262113
O O2 0.448425 0.972878 0.313459
O O3 0.500000 0.997126 0.211048
O O4 0.877635 0.250000 0.829692
O O5 0.862577 0.482100 0.889555
O O6 0.852016 0.490724 0.774889
O O7 0.184867 0.250000 0.597213
O O8 0.257627 0.033936 0.582994
O O9 0.182924 0.019272 0.666287
O O10 0.152305 0.985858 0.564428
O O11 0.065320 0.500000 0.500000
O O12 0.089201 0.750000 0.548755
O O13 0.053294 0.529171 0.611745
O O14 0.173916 0.750000 0.052316
O O15 0.168452 0.000000 0.000000
O O16 0.500000 0.250000 0.161752
O O17 0.809352 0.750000 0.269823
O O18 0.750000 0.989916 0.250000
#
# Coordination Sequence:
#
# PCOD8301821 Si02
#       7
#     8  16  16  16  16   8  16
#     4  10  20  35  60  87 106 130 173 228 271 316
#     4   9  17  31  51  79 109 135 171 220 268 311
#     4  10  19  32  54  82 109 140 177 221 270 318
#     4  11  23  38  55  76 107 146 185 223 260 308
#     4  10  20  34  52  75 107 143 177 217 267 319
#     4  10  23  41  57  77 109 144 174 214 271 322
#     4   9  14  25  48  77 104 132 169 211 258 313
#
# _framework density 9.2592590000000001
#
# number of rings (size 3 to 8) (size 9 to 14) (size 15 to 20)
#    0.000    2.167    1.667    2.250    0.000    4.667 
#    0.000    1.250    0.000    1.500    0.000    0.000 
#    0.000    0.000    0.000    0.000    0.000    0.000 
#
# Total GULP energy -594725.228221 kJ/mol
# GULP energy per Si atom -12390.108921 kJ/mol
# Density = 0.923818 g / cm^3
# Si number density = 9.259259 Si / 1000 Ang^3
#
#
#
# Elastic Constant Matrix: (Units=GPa)
#
#
# Indices 1 2 3 4 5 6 
#
# 1 135.9115 26.7719 69.2967 0.0000 0.0000 0.0000
# 2 26.7719 47.7836 36.1231 0.0000 0.0000 0.0000
# 3 69.2967 36.1231 191.3645 0.0000 0.0000 0.0000
# 4 0.0000 0.0000 0.0000 35.3049 0.0000 0.0000
# 5 0.0000 0.0000 0.0000 0.0000 40.1098 0.0000
# 6 0.0000 0.0000 0.0000 0.0000 0.0000 17.8573
#
#
#
# Elastic Compliance Matrix: (Units=1/GPa)
#
#
# Indices 1 2 3 4 5 6 
#
# 1 0.009412 -0.003146 -0.002815 0.000000 0.000000 0.000000
# 2 -0.003146 0.025463 -0.003667 0.000000 0.000000 0.000000
# 3 -0.002815 -0.003667 0.006937 0.000000 0.000000 0.000000
# 4 0.000000 0.000000 0.000000 0.028325 0.000000 0.000000
# 5 0.000000 0.000000 0.000000 0.000000 0.024932 0.000000
# 6 0.000000 0.000000 0.000000 0.000000 0.000000 0.056000
#
#
# Mechanical properties :
#
#
# Convention : Reuss Voigt Hill
#
# Bulk Modulus (GPa) = 44.33266 71.04921 57.69093
# Shear Modulus (GPa) = 28.11480 34.84560 31.48020
#
# Velocity S-wave (km/s) = 3.90063 4.34252 4.12749
# Velocity P-wave (km/s) = 6.65419 7.97453 7.34409
#
# Compressibility (1/GPa) = 0.02255674
#
# Stress axis : x y z
#
# Youngs Moduli (GPa) = 106.24215 39.27331 144.15202
#
# Poissons Ratio (x) = 0.12355 0.40573
# Poissons Ratio (y) = 0.33421 0.52865
# Poissons Ratio (z) = 0.29903 0.14403
#
# Static dielectric constant tensor:
#      x y z
#    x 3.611180 0.000000 0.000000 
#    y 0.000000 3.051700 0.000000 
#    z 0.000000 0.000000 3.950490 
# 
# 
# High freq. dielectric constant tensor:
#      x y z
#    x 1.726670 0.000000 0.000000 
#    y 0.000000 1.680250 0.000000 
#    z 0.000000 0.000000 1.755550 
# 
# From -- ./inp_files/61961.got.cif
#   From: 2010.03.12/outbox.ucp.g09.slc.cvg/sg74_31_cif.got.tgz:61961.got - 2010.05.04 20:08:06.
