data_PCOD8301458
_publ_section_title
;
Structure prediction by ZEFSAII (Michael W. Deem and Ramdas Pophale) SiO2 
 PCOD8301458
Probable space group: I M M A
;
_chemical_formula_sum "Si O2"
_cell_formula_units_Z 88
_cell_length_a 7.977509
_cell_length_b 30.776077
_cell_length_c 26.095804
_cell_angle_alpha 90.000000
_cell_angle_beta 90.000000
_cell_angle_gamma 90.000000
_cell_volume 6406.948669
_symmetry_space_group_name_H-M "I M M A"
_symmetry_group_IT_number 74
_symmetry_cell_setting 'orthorhombic'
loop_
_space_group_symop_operation_xyz
x,y,z
-x,1/2-y,z
x,-y,-z
-x,1/2+y,-z
-x,-y,-z
x,1/2+y,-z
-x,y,z
x,1/2-y,z
1/2+x,1/2+y,1/2+z
1/2-x,-y,1/2+z
1/2+x,1/2-y,1/2-z
1/2-x,y,1/2-z
1/2-x,1/2-y,1/2-z
1/2+x,y,1/2-z
1/2-x,1/2+y,1/2+z
1/2+x,-y,1/2+z
loop_
_atom_site_type_symbol
_atom_site_label
_atom_site_fract_x
_atom_site_fract_y
_atom_site_fract_z
Si Si1 0.316690 0.414122 0.090934
Si Si2 0.500000 0.939118 0.456015
Si Si3 0.312425 0.386339 0.973405
Si Si4 0.811505 0.826322 0.878666
Si Si5 0.304103 0.750000 0.808252
Si Si6 0.693007 0.202337 0.015108
Si Si7 0.000000 0.965807 0.925739
O O1 0.500000 0.434697 0.103650
O O2 0.309236 0.401537 0.031717
O O3 0.298663 0.370154 0.124122
O O4 0.167625 0.448237 0.102560
O O5 0.668818 0.912007 0.442062
O O6 0.500000 0.982159 0.421449
O O7 0.500000 0.950782 0.515630
O O8 0.500000 0.394549 0.950148
O O9 0.265789 0.334842 0.973050
O O10 0.765227 0.793504 0.833803
O O11 0.799342 0.802621 0.933374
O O12 0.000000 0.842077 0.870956
O O13 0.500000 0.750000 0.814871
O O14 0.250000 0.750000 0.750000
O O15 0.500000 0.197750 0.031956
O O16 0.730222 0.250000 0.991074
#
# Coordination Sequence:
#
# PCOD8301458 Si02
#       7
#    16   8  16  16   8  16   8
#     4   9  16  27  40  53  67  84 106 135 162 192
#     4   9  16  24  35  46  69  88 104 130 170 192
#     4   8  15  24  33  47  67  88 110 133 164 202
#     4  11  19  29  42  57  71  87 107 135 171 204
#     4  12  24  36  44  56  74  94 116 137 171 218
#     4   9  16  25  37  52  68  88 114 144 172 199
#     4   9  16  26  36  53  66  83 108 136 154 207
#
# _framework density 13.735087999999999
#
# number of rings (size 3 to 8) (size 9 to 14) (size 15 to 20)
#    0.000    2.545    1.818    3.545    3.818    0.727 
#    0.000    3.636    0.000    0.000    0.000    0.000 
#    0.000    0.000    0.000    0.000    0.000    0.000 
#
# Total GULP energy -545271.175254 kJ/mol
# GULP energy per Si atom -12392.526710 kJ/mol
# Density = 1.370383 g / cm^3
# Si number density = 13.735088 Si / 1000 Ang^3
#
#
#
# Elastic Constant Matrix: (Units=GPa)
#
#
# Indices 1 2 3 4 5 6 
#
# 1 112.3765 54.5068 11.5068 0.0000 0.0000 0.0000
# 2 54.5068 109.2209 19.6281 0.0000 0.0000 0.0000
# 3 11.5068 19.6281 12.3588 0.0000 0.0000 0.0000
# 4 0.0000 0.0000 0.0000 9.0617 0.0000 0.0000
# 5 0.0000 0.0000 0.0000 0.0000 8.5770 0.0000
# 6 0.0000 0.0000 0.0000 0.0000 0.0000 21.2783
#
#
#
# Elastic Compliance Matrix: (Units=1/GPa)
#
#
# Indices 1 2 3 4 5 6 
#
# 1 0.011786 -0.005472 -0.002284 0.000000 0.000000 0.000000
# 2 -0.005472 0.015353 -0.019289 0.000000 0.000000 0.000000
# 3 -0.002284 -0.019289 0.113675 0.000000 0.000000 0.000000
# 4 0.000000 0.000000 0.000000 0.110354 0.000000 0.000000
# 5 0.000000 0.000000 0.000000 0.000000 0.116591 0.000000
# 6 0.000000 0.000000 0.000000 0.000000 0.000000 0.046996
#
#
# Mechanical properties :
#
#
# Convention : Reuss Voigt Hill
#
# Bulk Modulus (GPa) = 11.53061 45.02662 28.27862
# Shear Modulus (GPa) = 10.04516 17.67105 13.85810
#
# Velocity S-wave (km/s) = 2.70728 3.59076 3.17985
# Velocity P-wave (km/s) = 4.26447 7.07423 5.84083
#
# Compressibility (1/GPa) = 0.08672566
#
# Stress axis : x y z
#
# Youngs Moduli (GPa) = 84.84324 65.13485 8.79700
#
# Poissons Ratio (x) = 0.35639 0.02009
# Poissons Ratio (y) = 0.46423 0.16968
# Poissons Ratio (z) = 0.19378 1.25637
#
# Static dielectric constant tensor:
#      x y z
#    x 3.059680 0.000000 0.000000 
#    y 0.000000 2.894740 0.000000 
#    z 0.000000 0.000000 2.032120 
# 
# 
# High freq. dielectric constant tensor:
#      x y z
#    x 1.548490 0.000000 0.000000 
#    y 0.000000 1.526590 0.000000 
#    z 0.000000 0.000000 1.419850 
# 
# From -- ./inp_files/65206.got.cif
#   From: 2010.03.12/outbox.cif.g09.slc.cpg/sg74_33_cif.got.tgz:65206.got - 2010.04.16 15:46:19.
