data_PCOD8301102
_publ_section_title
;
Structure prediction by ZEFSAII (Michael W. Deem and Ramdas Pophale) SiO2 
 PCOD8301102
Probable space group: I M M A
;
_chemical_formula_sum "Si O2"
_cell_formula_units_Z 60
_cell_length_a 14.859446
_cell_length_b 15.698261
_cell_length_c 12.549417
_cell_angle_alpha 90.000000
_cell_angle_beta 90.000000
_cell_angle_gamma 90.000000
_cell_volume 2927.370648
_symmetry_space_group_name_H-M "I M M A"
_symmetry_group_IT_number 74
_symmetry_cell_setting 'orthorhombic'
loop_
_space_group_symop_operation_xyz
x,y,z
-x,1/2-y,z
x,-y,-z
-x,1/2+y,-z
-x,-y,-z
x,1/2+y,-z
-x,y,z
x,1/2-y,z
1/2+x,1/2+y,1/2+z
1/2-x,-y,1/2+z
1/2+x,1/2-y,1/2-z
1/2-x,y,1/2-z
1/2-x,1/2-y,1/2-z
1/2+x,y,1/2-z
1/2-x,1/2+y,1/2+z
1/2+x,-y,1/2+z
loop_
_atom_site_type_symbol
_atom_site_label
_atom_site_fract_x
_atom_site_fract_y
_atom_site_fract_z
Si Si1 0.098580 0.250000 0.405050
Si Si2 0.244023 0.617345 0.570592
Si Si3 0.000000 0.062766 0.898209
Si Si4 0.640246 0.250000 0.331286
Si Si5 0.500000 0.750000 0.487457
Si Si6 0.199849 0.560410 0.146547
O O1 0.147409 0.336915 0.442523
O O2 0.085500 0.250000 0.277321
O O3 0.000000 0.250000 0.457501
O O4 0.297503 0.667069 0.662315
O O5 0.240427 0.521723 0.614354
O O6 0.293019 0.623384 0.454871
O O7 0.907222 0.041496 0.833509
O O8 0.000000 0.163991 0.918126
O O9 0.000000 0.000000 0.000000
O O10 0.584364 0.250000 0.437425
O O11 0.250000 0.599882 0.250000
#
# Coordination Sequence:
#
# PCOD8301102 Si02
#       6
#     8  16   8   8   4  16
#     4  11  23  38  59  90 127 165 205 252 328 386
#     4  10  21  39  61  87 124 157 201 266 309 369
#     4  12  22  42  68  94 126 166 218 268 314 376
#     4  11  18  36  62  90 120 151 202 260 319 364
#     4  12  20  34  64 100 116 158 214 268 308 368
#     4  11  22  41  63  91 124 163 209 261 316 367
#
# _framework density 20.496210000000001
#
# number of rings (size 3 to 8) (size 9 to 14) (size 15 to 20)
#    0.000    1.067    6.000    3.200    0.000    0.000 
#    9.600    7.333    0.000    0.000    0.000    0.000 
#    0.000    0.000    0.000    0.000    0.000    0.000 
#
# Total GULP energy -371707.652593 kJ/mol
# GULP energy per Si atom -12390.255086 kJ/mol
# Density = 2.044956 g / cm^3
# Si number density = 20.496210 Si / 1000 Ang^3
#
#
#
# Elastic Constant Matrix: (Units=GPa)
#
#
# Indices 1 2 3 4 5 6 
#
# 1 162.0227 26.7639 20.2100 0.0000 0.0000 0.0000
# 2 26.7639 94.1996 8.7008 0.0000 0.0000 0.0000
# 3 20.2100 8.7008 76.1378 0.0000 0.0000 0.0000
# 4 0.0000 0.0000 0.0000 51.7297 0.0000 0.0000
# 5 0.0000 0.0000 0.0000 0.0000 28.1297 0.0000
# 6 0.0000 0.0000 0.0000 0.0000 0.0000 33.2015
#
#
#
# Elastic Compliance Matrix: (Units=1/GPa)
#
#
# Indices 1 2 3 4 5 6 
#
# 1 0.006656 -0.001746 -0.001567 0.000000 0.000000 0.000000
# 2 -0.001746 0.011187 -0.000815 0.000000 0.000000 0.000000
# 3 -0.001567 -0.000815 0.013643 0.000000 0.000000 0.000000
# 4 0.000000 0.000000 0.000000 0.019331 0.000000 0.000000
# 5 0.000000 0.000000 0.000000 0.000000 0.035550 0.000000
# 6 0.000000 0.000000 0.000000 0.000000 0.000000 0.030119
#
#
# Mechanical properties :
#
#
# Convention : Reuss Voigt Hill
#
# Bulk Modulus (GPa) = 43.04869 49.30105 46.17487
# Shear Modulus (GPa) = 37.73978 41.05788 39.39883
#
# Velocity S-wave (km/s) = 4.29570 4.48056 4.38910
# Velocity P-wave (km/s) = 6.75669 7.13254 6.94716
#
# Compressibility (1/GPa) = 0.02322951
#
# Stress axis : x y z
#
# Youngs Moduli (GPa) = 150.24204 89.38798 73.29664
#
# Poissons Ratio (x) = 0.15610 0.11487
# Poissons Ratio (y) = 0.26237 0.05973
# Poissons Ratio (z) = 0.23546 0.07284
#
# Static dielectric constant tensor:
#      x y z
#    x 4.033670 0.000000 0.000000 
#    y 0.000000 3.581800 0.000000 
#    z 0.000000 0.000000 3.679060 
# 
# 
# High freq. dielectric constant tensor:
#      x y z
#    x 1.803650 0.000000 0.000000 
#    y 0.000000 1.794010 0.000000 
#    z 0.000000 0.000000 1.778710 
# 
# From -- ./inp_files/31738.got.cif
#   From: 2010.03.12/outbox.cif.g09.slc.cpg/sg74_16_cif.got.tgz:31738.got - 2010.04.16 15:46:19.
