data_PCOD8301377
_publ_section_title
;
Structure prediction by ZEFSAII (Michael W. Deem and Ramdas Pophale) SiO2 
 PCOD8301377
Probable space group: I M M A
;
_chemical_formula_sum "Si O2"
_cell_formula_units_Z 56
_cell_length_a 9.499043
_cell_length_b 21.815243
_cell_length_c 12.626668
_cell_angle_alpha 90.000000
_cell_angle_beta 90.000000
_cell_angle_gamma 90.000000
_cell_volume 2616.547782
_symmetry_space_group_name_H-M "I M M A"
_symmetry_group_IT_number 74
_symmetry_cell_setting 'orthorhombic'
loop_
_space_group_symop_operation_xyz
x,y,z
-x,1/2-y,z
x,-y,-z
-x,1/2+y,-z
-x,-y,-z
x,1/2+y,-z
-x,y,z
x,1/2-y,z
1/2+x,1/2+y,1/2+z
1/2-x,-y,1/2+z
1/2+x,1/2-y,1/2-z
1/2-x,y,1/2-z
1/2-x,1/2-y,1/2-z
1/2+x,y,1/2-z
1/2-x,1/2+y,1/2+z
1/2+x,-y,1/2+z
loop_
_atom_site_type_symbol
_atom_site_label
_atom_site_fract_x
_atom_site_fract_y
_atom_site_fract_z
Si Si1 0.168132 0.873922 0.652521
Si Si2 0.846066 0.512369 0.878662
Si Si3 0.838582 0.317230 0.565081
Si Si4 0.750000 0.403881 0.750000
O O1 0.250000 0.839985 0.750000
O O2 0.226415 0.846322 0.542015
O O3 0.000000 0.869611 0.665716
O O4 0.216890 0.945024 0.658768
O O5 0.853271 0.447921 0.815865
O O6 0.000000 0.544091 0.863133
O O7 0.816513 0.500000 0.000000
O O8 0.769164 0.250000 0.586531
O O9 0.828235 0.360410 0.666781
O O10 0.000000 0.307701 0.538943
#
# Coordination Sequence:
#
# PCOD8301377 Si02
#       4
#    16  16  16   8
#     4  11  23  40  64  93 126 168 216 267 325 381
#     4  11  23  38  59  93 133 166 204 259 319 385
#     4  10  23  42  62  89 127 171 219 266 316 381
#     4  12  21  38  66  96 125 170 208 260 322 384
#
# _framework density 21.402246000000002
#
# number of rings (size 3 to 8) (size 9 to 14) (size 15 to 20)
#    0.000    1.143    4.286    2.143    0.000    2.286 
#    0.000    0.000    0.000    7.714    0.000    0.000 
#    0.000    0.000    0.000    0.000    0.000    0.000 
#
# Total GULP energy -346910.566283 kJ/mol
# GULP energy per Si atom -12389.663082 kJ/mol
# Density = 2.135353 g / cm^3
# Si number density = 21.402246 Si / 1000 Ang^3
#
#
#
# Elastic Constant Matrix: (Units=GPa)
#
#
# Indices 1 2 3 4 5 6 
#
# 1 88.0177 13.6740 29.9537 -0.0001 0.0000 0.0000
# 2 13.6740 127.8213 64.5700 0.0000 0.0000 0.0000
# 3 29.9537 64.5700 187.3125 -0.0003 0.0000 -0.0006
# 4 -0.0001 0.0000 -0.0003 21.7851 0.0000 0.0000
# 5 0.0000 0.0000 0.0000 0.0000 24.2469 -0.0001
# 6 0.0000 0.0000 -0.0006 0.0000 -0.0001 -4.4326
#
#
#
# Elastic Compliance Matrix: (Units=1/GPa)
#
#
# Indices 1 2 3 4 5 6 
#
# 1 0.012031 -0.000382 -0.001792 0.000000 0.000000 0.000000
# 2 -0.000382 0.009485 -0.003209 0.000000 0.000000 0.000000
# 3 -0.001792 -0.003209 0.006731 0.000000 0.000000 -0.000001
# 4 0.000000 0.000000 0.000000 0.045903 0.000000 0.000000
# 5 0.000000 0.000000 0.000000 0.000000 0.041242 -0.000001
# 6 0.000000 0.000000 -0.000001 0.000000 -0.000001 -0.225604
#
#
# Mechanical properties :
#
#
# Convention : Reuss Voigt Hill
#
# Bulk Modulus (GPa) = 57.20192 68.83854 63.02023
# Shear Modulus (GPa) = -53.40808 27.98347 -12.71231
#
# Velocity S-wave (km/s) = -5.00086 3.61986 -2.43980
# Velocity P-wave (km/s) = 2.56119 7.05019 4.64465
#
# Compressibility (1/GPa) = 0.01748193
#
# Stress axis : x y z
#
# Youngs Moduli (GPa) = 83.12147 105.42817 148.55814
#
# Poissons Ratio (x) = 0.04023 0.26626
# Poissons Ratio (y) = 0.03172 0.47667
# Poissons Ratio (z) = 0.14898 0.33828
#
# Static dielectric constant tensor:
#      x y z
#    x 3.516370 0.000000 0.000000 
#    y 0.000000 3.995690 0.000000 
#    z 0.000000 0.000000 4.337600 
# 
# 
# High freq. dielectric constant tensor:
#      x y z
#    x 1.812490 0.000000 0.000000 
#    y 0.000000 1.826100 0.000000 
#    z 0.000000 0.000000 1.878140 
# 
# From -- ./inp_files/23143.got.cif
#   From: 2010.03.12/outbox.cif.g09.slc.cpg/sg74_12_cif.got.tgz:23143.got - 2010.04.16 15:46:19.
