data_PCOD8301463
_publ_section_title
;
Structure prediction by ZEFSAII (Michael W. Deem and Ramdas Pophale) SiO2 
 PCOD8301463
Probable space group: I M M A
;
_chemical_formula_sum "Si O2"
_cell_formula_units_Z 76
_cell_length_a 19.087721
_cell_length_b 13.089934
_cell_length_c 16.855527
_cell_angle_alpha 90.000000
_cell_angle_beta 90.000000
_cell_angle_gamma 90.000000
_cell_volume 4211.471546
_symmetry_space_group_name_H-M "I M M A"
_symmetry_group_IT_number 74
_symmetry_cell_setting 'orthorhombic'
loop_
_space_group_symop_operation_xyz
x,y,z
-x,1/2-y,z
x,-y,-z
-x,1/2+y,-z
-x,-y,-z
x,1/2+y,-z
-x,y,z
x,1/2-y,z
1/2+x,1/2+y,1/2+z
1/2-x,-y,1/2+z
1/2+x,1/2-y,1/2-z
1/2-x,y,1/2-z
1/2-x,1/2-y,1/2-z
1/2+x,y,1/2-z
1/2-x,1/2+y,1/2+z
1/2+x,-y,1/2+z
loop_
_atom_site_type_symbol
_atom_site_label
_atom_site_fract_x
_atom_site_fract_y
_atom_site_fract_z
Si Si1 0.677394 0.360519 0.796524
Si Si2 0.500000 0.968259 0.591633
Si Si3 0.365447 0.027480 0.312751
Si Si4 0.342051 0.250000 0.491919
Si Si5 0.000000 0.750000 0.953192
Si Si6 0.180168 0.250000 0.194502
Si Si7 0.238821 0.931559 0.070189
O O1 0.639234 0.250000 0.786805
O O2 0.750000 0.356613 0.750000
O O3 0.630655 0.453655 0.763915
O O4 0.694547 0.377262 0.889429
O O5 0.431078 0.007441 0.634725
O O6 0.500000 0.847019 0.603144
O O7 0.500000 0.000000 0.500000
O O8 0.363281 0.146388 0.285052
O O9 0.296848 0.005926 0.365169
O O10 0.426811 0.250000 0.501983
O O11 0.311338 0.250000 0.401859
O O12 0.316804 0.149613 0.537319
O O13 0.250000 0.250000 0.250000
O O14 0.269289 0.000000 0.000000
#
# Coordination Sequence:
#
# PCOD8301463 Si02
#       7
#    16   8  16   8   4   8  16
#     4   9  19  35  52  72 107 143 185 234 279 322
#     4  12  22  38  52  80 113 153 195 215 265 345
#     4  11  22  35  53  76 111 149 184 228 278 333
#     4  12  22  32  53  78 112 151 186 224 283 328
#     4  12  20  36  48  74 120 156 174 220 260 336
#     4  12  22  36  52  79 112 146 187 234 284 327
#     4  11  19  33  52  81 106 140 186 231 279 333
#
# _framework density 18.045947999999999
#
# number of rings (size 3 to 8) (size 9 to 14) (size 15 to 20)
#    0.000    1.053    5.263    3.789    1.474    0.000 
#    1.895    0.000    0.000    0.000    0.000    0.737 
#    0.000    0.000    0.000    0.000    0.000    0.000 
#
# Total GULP energy -470866.776871 kJ/mol
# GULP energy per Si atom -12391.230970 kJ/mol
# Density = 1.800487 g / cm^3
# Si number density = 18.045948 Si / 1000 Ang^3
#
#
#
# Elastic Constant Matrix: (Units=GPa)
#
#
# Indices 1 2 3 4 5 6 
#
# 1 60.2973 28.6171 43.7594 0.0000 0.0000 0.0000
# 2 28.6171 145.8783 51.9441 0.0000 0.0000 0.0000
# 3 43.7594 51.9441 98.0093 0.0000 0.0000 0.0000
# 4 0.0000 0.0000 0.0000 29.5446 0.0000 0.0000
# 5 0.0000 0.0000 0.0000 0.0000 29.1167 0.0000
# 6 0.0000 0.0000 0.0000 0.0000 0.0000 16.3977
#
#
#
# Elastic Compliance Matrix: (Units=1/GPa)
#
#
# Indices 1 2 3 4 5 6 
#
# 1 0.024685 -0.001132 -0.010422 0.000000 0.000000 0.000000
# 2 -0.001132 0.008502 -0.004001 0.000000 0.000000 0.000000
# 3 -0.010422 -0.004001 0.016976 0.000000 0.000000 0.000000
# 4 0.000000 0.000000 0.000000 0.033847 0.000000 0.000000
# 5 0.000000 0.000000 0.000000 0.000000 0.034345 0.000000
# 6 0.000000 0.000000 0.000000 0.000000 0.000000 0.060984
#
#
# Mechanical properties :
#
#
# Convention : Reuss Voigt Hill
#
# Bulk Modulus (GPa) = 52.47862 61.42514 56.95188
# Shear Modulus (GPa) = 23.06297 27.00274 25.03285
#
# Velocity S-wave (km/s) = 3.57881 3.87244 3.72852
# Velocity P-wave (km/s) = 6.79859 7.35571 7.08263
#
# Compressibility (1/GPa) = 0.01905538
#
# Stress axis : x y z
#
# Youngs Moduli (GPa) = 40.51078 117.62629 58.90525
#
# Poissons Ratio (x) = 0.13310 0.61389
# Poissons Ratio (y) = 0.04584 0.23565
# Poissons Ratio (z) = 0.42219 0.47057
#
# Static dielectric constant tensor:
#      x y z
#    x 3.065200 0.000000 0.000000 
#    y 0.000000 3.830370 0.000000 
#    z 0.000000 0.000000 3.502720 
# 
# 
# High freq. dielectric constant tensor:
#      x y z
#    x 1.642690 0.000000 0.000000 
#    y 0.000000 1.729910 0.000000 
#    z 0.000000 0.000000 1.685910 
# 
# From -- ./inp_files/35115.got.cif
#   From: 2010.03.12/outbox.cif.g09.slc.cpg/sg74_18_cif.got.tgz:35115.got - 2010.04.16 15:46:19.
