data_PCOD8301943
_publ_section_title
;
Structure prediction by ZEFSAII (Michael W. Deem and Ramdas Pophale) SiO2 
 PCOD8301943
Probable space group: P 41
;
_chemical_formula_sum "Si O2"
_cell_formula_units_Z 24
_cell_length_a 11.351888
_cell_length_b 11.351888
_cell_length_c 8.245917
_cell_angle_alpha 90.000000
_cell_angle_beta 90.000000
_cell_angle_gamma 90.000000
_cell_volume 1062.613072
_symmetry_space_group_name_H-M "P 41"
_symmetry_group_IT_number 76
_symmetry_cell_setting 'tetragonal'
loop_
_space_group_symop_operation_xyz
x,y,z
-y,x,1/4+z
-x,-y,1/2+z
y,-x,3/4+z
loop_
_atom_site_type_symbol
_atom_site_label
_atom_site_fract_x
_atom_site_fract_y
_atom_site_fract_z
Si Si1 0.809418 0.749001 0.028590
Si Si2 0.542592 0.159426 0.372376
Si Si3 0.982819 0.378044 0.402282
Si Si4 0.794746 0.191760 0.400777
Si Si5 0.037210 0.868704 0.468894
Si Si6 0.620284 0.416750 0.761685
O O1 0.788430 0.852129 0.161857
O O2 0.797929 0.799107 0.845177
O O3 0.714597 0.648306 0.073501
O O4 0.938352 0.687227 0.040357
O O5 0.488661 0.088093 0.223000
O O6 0.665614 0.225140 0.329930
O O7 0.451491 0.261110 0.417055
O O8 0.570295 0.068989 0.517115
O O9 0.891554 0.281177 0.327304
O O10 0.811045 0.056738 0.341232
O O11 0.982616 0.909011 0.301261
O O12 0.588986 0.505300 0.902658
#
# Coordination Sequence:
#
# PCOD8301943 Si02
#       6
#     4   4   4   4   4   4
#     4  11  24  44  70 102 146 190 241 298 367 422
#     4  11  24  44  72 103 142 191 238 297 364 425
#     4  11  22  44  71  98 151 186 237 305 366 430
#     4  11  23  44  69 102 142 194 240 298 361 429
#     4  12  24  39  67 104 147 189 236 285 359 440
#     4  12  25  53  75 101 140 192 244 301 357 424
#
# _framework density 22.585830999999999
#
# number of rings (size 3 to 8) (size 9 to 14) (size 15 to 20)
#    0.000    0.667    5.000    5.000    2.333    0.000 
#    9.000    0.000    0.000    0.000    0.000    0.000 
#    0.000    0.000    0.000    0.000    0.000    0.000 
#
# Total GULP energy -297475.580500 kJ/mol
# GULP energy per Si atom -12394.815854 kJ/mol
# Density = 2.253442 g / cm^3
# Si number density = 22.585831 Si / 1000 Ang^3
#
#
#
# Elastic Constant Matrix: (Units=GPa)
#
#
# Indices 1 2 3 4 5 6 
#
# 1 134.8969 46.1107 39.0004 0.0000 0.0000 16.9908
# 2 46.1107 134.8969 39.0004 0.0000 0.0000 -16.9908
# 3 39.0004 39.0004 68.2334 0.0000 0.0000 0.0000
# 4 0.0000 0.0000 0.0000 40.8410 0.0000 0.0000
# 5 0.0000 0.0000 0.0000 0.0000 40.8410 0.0000
# 6 16.9908 -16.9908 0.0000 0.0000 0.0000 21.2018
#
#
#
# Elastic Compliance Matrix: (Units=1/GPa)
#
#
# Indices 1 2 3 4 5 6 
#
# 1 0.011788 -0.004458 -0.004190 0.000000 0.000000 -0.013019
# 2 -0.004458 0.011788 -0.004190 0.000000 0.000000 0.013019
# 3 -0.004190 -0.004190 0.019445 0.000000 0.000000 0.000000
# 4 0.000000 0.000000 0.000000 0.024485 0.000000 0.000000
# 5 0.000000 0.000000 0.000000 0.000000 0.024485 0.000000
# 6 -0.013019 0.013019 0.000000 0.000000 0.000000 0.068032
#
#
# Mechanical properties :
#
#
# Convention : Reuss Voigt Hill
#
# Bulk Modulus (GPa) = 57.64874 65.13894 61.39384
# Shear Modulus (GPa) = 26.11233 34.83779 30.47506
#
# Velocity S-wave (km/s) = 3.40389 3.93168 3.67727
# Velocity P-wave (km/s) = 6.40534 7.03662 6.72839
#
# Compressibility (1/GPa) = 0.01734643
#
# Stress axis : x y z
#
# Youngs Moduli (GPa) = 84.83220 84.83220 51.42706
#
# Poissons Ratio (x) = 0.37817 0.21546
# Poissons Ratio (y) = 0.37817 0.21546
# Poissons Ratio (z) = 0.35542 0.35542
#
# Static dielectric constant tensor:
#      x y z
#    x 4.382950 0.000000 0.000000 
#    y 0.000000 4.382950 0.000000 
#    z 0.000000 0.000000 3.712200 
# 
# 
# High freq. dielectric constant tensor:
#      x y z
#    x 1.903370 0.000000 0.000000 
#    y 0.000000 1.903370 0.000000 
#    z 0.000000 0.000000 1.864610 
# 
# From -- ./inp_files/521.got.cif
#   From: 2010.03.12/outbox.cif.g09.slc.cpg/sg76_cif.got.tgz:521.got - 2010.04.16 16:34:25.
