data_PCOD8301352
_publ_section_title
;
Structure prediction by ZEFSAII (Michael W. Deem and Ramdas Pophale) SiO2 
 PCOD8301352
Probable space group: I M M A
;
_chemical_formula_sum "Si O2"
_cell_formula_units_Z 72
_cell_length_a 16.986480
_cell_length_b 11.603729
_cell_length_c 18.208889
_cell_angle_alpha 90.000000
_cell_angle_beta 90.000000
_cell_angle_gamma 90.000000
_cell_volume 3589.090572
_symmetry_space_group_name_H-M "I M M A"
_symmetry_group_IT_number 74
_symmetry_cell_setting 'orthorhombic'
loop_
_space_group_symop_operation_xyz
x,y,z
-x,1/2-y,z
x,-y,-z
-x,1/2+y,-z
-x,-y,-z
x,1/2+y,-z
-x,y,z
x,1/2-y,z
1/2+x,1/2+y,1/2+z
1/2-x,-y,1/2+z
1/2+x,1/2-y,1/2-z
1/2-x,y,1/2-z
1/2-x,1/2-y,1/2-z
1/2+x,y,1/2-z
1/2-x,1/2+y,1/2+z
1/2+x,-y,1/2+z
loop_
_atom_site_type_symbol
_atom_site_label
_atom_site_fract_x
_atom_site_fract_y
_atom_site_fract_z
Si Si1 0.258228 0.750000 0.366453
Si Si2 0.500000 0.615829 0.550471
Si Si3 0.913103 0.994510 0.287542
Si Si4 0.705813 0.487270 0.917083
Si Si5 0.152093 0.381068 0.150062
Si Si6 0.877553 0.250000 0.750723
O O1 0.245569 0.862135 0.415182
O O2 0.198822 0.750000 0.299519
O O3 0.347417 0.750000 0.335219
O O4 0.500000 0.750000 0.515860
O O5 0.500000 0.500000 0.500000
O O6 0.423882 0.602038 0.600282
O O7 0.870264 0.003269 0.365770
O O8 0.928701 0.862298 0.265468
O O9 0.000000 0.053168 0.292451
O O10 0.857312 0.050868 0.226334
O O11 0.771710 0.578905 0.894532
O O12 0.675955 0.500000 0.000000
O O13 0.164829 0.250000 0.172629
#
# Coordination Sequence:
#
# PCOD8301352 Si02
#       6
#     8   8  16  16  16   8
#     4   9  18  36  62  86 121 150 202 259 301 364
#     4  10  22  44  64  94 137 170 208 266 325 382
#     4  11  22  40  65  92 123 162 211 258 309 369
#     4  11  24  40  62  92 126 164 206 256 314 372
#     4  11  23  41  64  90 126 165 208 257 309 377
#     4   9  17  36  62  92 114 152 200 260 309 356
#
# _framework density 20.060790999999998
#
# number of rings (size 3 to 8) (size 9 to 14) (size 15 to 20)
#    0.000    1.556    3.333    1.667    1.556    2.222 
#    4.000    0.000    0.000    0.000    0.000    0.000 
#    0.000    0.000    0.000    0.000    0.000    0.000 
#
# Total GULP energy -446248.515641 kJ/mol
# GULP energy per Si atom -12395.792101 kJ/mol
# Density = 2.001513 g / cm^3
# Si number density = 20.060791 Si / 1000 Ang^3
#
#
#
# Elastic Constant Matrix: (Units=GPa)
#
#
# Indices 1 2 3 4 5 6 
#
# 1 83.1428 13.9085 29.5338 0.0000 0.0000 0.0000
# 2 13.9085 121.7283 47.0867 0.0000 0.0000 0.0000
# 3 29.5338 47.0867 131.0083 0.0000 0.0000 0.0000
# 4 0.0000 0.0000 0.0000 22.9312 0.0000 0.0000
# 5 0.0000 0.0000 0.0000 0.0000 22.0487 0.0000
# 6 0.0000 0.0000 0.0000 0.0000 0.0000 -2.4444
#
#
#
# Elastic Compliance Matrix: (Units=1/GPa)
#
#
# Indices 1 2 3 4 5 6 
#
# 1 0.013092 -0.000411 -0.002804 0.000000 0.000000 0.000000
# 2 -0.000411 0.009555 -0.003341 0.000000 0.000000 0.000000
# 3 -0.002804 -0.003341 0.009466 0.000000 0.000000 0.000000
# 4 0.000000 0.000000 0.000000 0.043609 0.000000 0.000000
# 5 0.000000 0.000000 0.000000 0.000000 0.045354 0.000000
# 6 0.000000 0.000000 0.000000 0.000000 0.000000 -0.409092
#
#
# Mechanical properties :
#
#
# Convention : Reuss Voigt Hill
#
# Bulk Modulus (GPa) = 52.63115 57.43749 55.03432
# Shear Modulus (GPa) = -18.61706 24.86379 3.12337
#
# Velocity S-wave (km/s) = -3.04967 3.52436 1.24913
# Velocity P-wave (km/s) = 3.72722 6.72721 5.43818
#
# Compressibility (1/GPa) = 0.01900016
#
# Stress axis : x y z
#
# Youngs Moduli (GPa) = 76.38140 104.66268 105.64074
#
# Poissons Ratio (x) = 0.04306 0.29617
# Poissons Ratio (y) = 0.03143 0.35298
# Poissons Ratio (z) = 0.21414 0.34971
#
# Static dielectric constant tensor:
#      x y z
#    x 3.309580 0.000000 0.000000 
#    y 0.000000 4.132300 0.000000 
#    z 0.000000 0.000000 3.485760 
# 
# 
# High freq. dielectric constant tensor:
#      x y z
#    x 1.784790 0.000000 0.000000 
#    y 0.000000 1.792930 0.000000 
#    z 0.000000 0.000000 1.771610 
# 
# From -- ./inp_files/43748.got.cif
#   From: 2010.03.12/outbox.cif.g09.slc.cpg/sg74_22_cif.got.tgz:43748.got - 2010.04.16 15:46:19.
