data_PCOD8301280
_publ_section_title
;
Structure prediction by ZEFSAII (Michael W. Deem and Ramdas Pophale) SiO2 
 PCOD8301280
Probable space group: I M M A
;
_chemical_formula_sum "Si O2"
_cell_formula_units_Z 64
_cell_length_a 16.398533
_cell_length_b 16.678820
_cell_length_c 11.175705
_cell_angle_alpha 90.000000
_cell_angle_beta 90.000000
_cell_angle_gamma 90.000000
_cell_volume 3056.646737
_symmetry_space_group_name_H-M "I M M A"
_symmetry_group_IT_number 74
_symmetry_cell_setting 'orthorhombic'
loop_
_space_group_symop_operation_xyz
x,y,z
-x,1/2-y,z
x,-y,-z
-x,1/2+y,-z
-x,-y,-z
x,1/2+y,-z
-x,y,z
x,1/2-y,z
1/2+x,1/2+y,1/2+z
1/2-x,-y,1/2+z
1/2+x,1/2-y,1/2-z
1/2-x,y,1/2-z
1/2-x,1/2-y,1/2-z
1/2+x,y,1/2-z
1/2-x,1/2+y,1/2+z
1/2+x,-y,1/2+z
loop_
_atom_site_type_symbol
_atom_site_label
_atom_site_fract_x
_atom_site_fract_y
_atom_site_fract_z
Si Si1 0.000000 0.343682 0.268557
Si Si2 0.500000 0.592841 0.025443
Si Si3 0.168130 0.082224 0.168266
Si Si4 0.855067 0.659329 0.332581
Si Si5 0.184864 0.400467 0.901247
O O1 0.000000 0.350577 0.410746
O O2 0.084035 0.386199 0.226412
O O3 0.000000 0.250000 0.231314
O O4 0.500000 0.500000 0.000000
O O5 0.574662 0.611155 0.107851
O O6 0.250000 0.098977 0.250000
O O7 0.157481 0.989662 0.134800
O O8 0.173760 0.125824 0.039053
O O9 0.849340 0.750000 0.379028
O O10 0.864512 0.659151 0.187493
O O11 0.779298 0.606680 0.372296
#
# Coordination Sequence:
#
# PCOD8301280 Si02
#       5
#     8   8  16  16  16
#     4  12  28  44  62  98 138 176 228 282 338 409
#     4  12  26  41  70  95 134 175 227 280 341 414
#     4  11  23  43  68  95 136 179 229 274 341 405
#     4  11  22  40  65  98 133 169 224 288 341 395
#     4  10  22  39  67  97 129 174 229 273 336 408
#
# _framework density 20.937977
#
# number of rings (size 3 to 8) (size 9 to 14) (size 15 to 20)
#    0.000    1.000    2.500    5.625    3.500    5.500 
#    0.000    0.000    0.000    0.000    0.000    0.000 
#    0.000    0.000    0.000    0.000    0.000    0.000 
#
# Total GULP energy -396448.329218 kJ/mol
# GULP energy per Si atom -12389.010288 kJ/mol
# Density = 2.089032 g / cm^3
# Si number density = 20.937977 Si / 1000 Ang^3
#
#
#
# Elastic Constant Matrix: (Units=GPa)
#
#
# Indices 1 2 3 4 5 6 
#
# 1 160.6982 56.8820 82.1129 0.0000 0.0000 0.0000
# 2 56.8820 95.4858 8.2031 0.0000 0.0000 0.0000
# 3 82.1129 8.2031 145.9472 0.0000 0.0000 0.0000
# 4 0.0000 0.0000 0.0000 28.7222 0.0000 0.0000
# 5 0.0000 0.0000 0.0000 0.0000 42.1250 0.0000
# 6 0.0000 0.0000 0.0000 0.0000 0.0000 -16.6139
#
#
#
# Elastic Compliance Matrix: (Units=1/GPa)
#
#
# Indices 1 2 3 4 5 6 
#
# 1 0.011662 -0.006414 -0.006201 0.000000 0.000000 0.000000
# 2 -0.006414 0.014052 0.002819 0.000000 0.000000 0.000000
# 3 -0.006201 0.002819 0.010182 0.000000 0.000000 0.000000
# 4 0.000000 0.000000 0.000000 0.034816 0.000000 0.000000
# 5 0.000000 0.000000 0.000000 0.000000 0.023739 0.000000
# 6 0.000000 0.000000 0.000000 0.000000 0.000000 -0.060191
#
#
# Mechanical properties :
#
#
# Convention : Reuss Voigt Hill
#
# Bulk Modulus (GPa) = 61.33629 77.39190 69.36410
# Shear Modulus (GPa) = 84.33693 27.84219 56.08956
#
# Velocity S-wave (km/s) = 6.35349 3.65052 5.18137
# Velocity P-wave (km/s) = 9.12033 7.40345 8.30637
#
# Compressibility (1/GPa) = 0.01630356
#
# Stress axis : x y z
#
# Youngs Moduli (GPa) = 85.75132 71.16602 98.21341
#
# Poissons Ratio (x) = 0.45648 0.60898
# Poissons Ratio (y) = 0.55003 -0.27687
# Poissons Ratio (z) = 0.53171 -0.20062
#
# Static dielectric constant tensor:
#      x y z
#    x 3.944780 0.000000 0.000000 
#    y 0.000000 3.715660 0.000000 
#    z 0.000000 0.000000 4.611210 
# 
# 
# High freq. dielectric constant tensor:
#      x y z
#    x 1.821140 0.000000 0.000000 
#    y 0.000000 1.818930 0.000000 
#    z 0.000000 0.000000 1.841800 
# 
# From -- ./inp_files/19974.got.cif
#   From: 2010.03.12/outbox.cif.g09.slc.cpg/sg74_10_cif.got.tgz:19974.got - 2010.04.16 15:46:19.
