data_PCOD8301570
_publ_section_title
;
Structure prediction by ZEFSAII (Michael W. Deem and Ramdas Pophale) SiO2 
 PCOD8301570
Probable space group: I M M A
;
_chemical_formula_sum "Si O2"
_cell_formula_units_Z 48
_cell_length_a 27.854830
_cell_length_b 16.602907
_cell_length_c 4.929076
_cell_angle_alpha 90.000000
_cell_angle_beta 90.000000
_cell_angle_gamma 90.000000
_cell_volume 2279.555456
_symmetry_space_group_name_H-M "I M M A"
_symmetry_group_IT_number 74
_symmetry_cell_setting 'orthorhombic'
loop_
_space_group_symop_operation_xyz
x,y,z
-x,1/2-y,z
x,-y,-z
-x,1/2+y,-z
-x,-y,-z
x,1/2+y,-z
-x,y,z
x,1/2-y,z
1/2+x,1/2+y,1/2+z
1/2-x,-y,1/2+z
1/2+x,1/2-y,1/2-z
1/2-x,y,1/2-z
1/2-x,1/2-y,1/2-z
1/2+x,y,1/2-z
1/2-x,1/2+y,1/2+z
1/2+x,-y,1/2+z
loop_
_atom_site_type_symbol
_atom_site_label
_atom_site_fract_x
_atom_site_fract_y
_atom_site_fract_z
Si Si1 0.151050 0.408126 0.400144
Si Si2 0.201058 0.657421 0.113125
Si Si3 0.051766 0.443492 0.247134
O O1 0.154729 0.500000 0.500000
O O2 0.188781 0.606726 0.843410
O O3 0.160406 0.350981 0.656968
O O4 0.097193 0.384774 0.296665
O O5 0.206324 0.750000 0.023875
O O6 0.250000 0.624285 0.250000
O O7 0.044360 0.500000 0.500000
O O8 0.000000 0.398612 0.193981
O O9 0.066423 0.500000 0.000000
#
# Coordination Sequence:
#
# PCOD8301570 Si02
#       3
#    16  16  16
#     4  11  21  37  61  89 114 143 193 247 282 320
#     4  11  24  41  59  80 115 160 193 225 286 355
#     4   9  17  31  53  82 114 145 179 225 283 339
#
# _framework density 21.056737999999999
#
# number of rings (size 3 to 8) (size 9 to 14) (size 15 to 20)
#    0.000    1.667    0.000    7.000    0.000    5.333 
#    0.000    1.667    0.000    6.000    0.000    0.000 
#    0.000    0.000    0.000    0.000    0.000    0.000 
#
# Total GULP energy -297416.799019 kJ/mol
# GULP energy per Si atom -12392.366626 kJ/mol
# Density = 2.100881 g / cm^3
# Si number density = 21.056738 Si / 1000 Ang^3
#
#
#
# Elastic Constant Matrix: (Units=GPa)
#
#
# Indices 1 2 3 4 5 6 
#
# 1 119.8403 43.2484 31.1861 0.0000 0.0000 0.0000
# 2 43.2484 48.1317 25.9115 0.0000 0.0000 0.0000
# 3 31.1861 25.9115 137.1564 0.0000 -0.0002 0.0000
# 4 0.0000 0.0000 0.0000 29.9456 0.0000 0.0000
# 5 0.0000 0.0000 -0.0002 0.0000 36.2761 0.0000
# 6 0.0000 0.0000 0.0000 0.0000 0.0000 8.2085
#
#
#
# Elastic Compliance Matrix: (Units=1/GPa)
#
#
# Indices 1 2 3 4 5 6 
#
# 1 0.012427 -0.010737 -0.000797 0.000000 0.000000 0.000000
# 2 -0.010737 0.032405 -0.003681 0.000000 0.000000 0.000000
# 3 -0.000797 -0.003681 0.008168 0.000000 0.000000 0.000000
# 4 0.000000 0.000000 0.000000 0.033394 0.000000 0.000000
# 5 0.000000 0.000000 0.000000 0.000000 0.027566 0.000000
# 6 0.000000 0.000000 0.000000 0.000000 0.000000 0.121825
#
#
# Mechanical properties :
#
#
# Convention : Reuss Voigt Hill
#
# Bulk Modulus (GPa) = 44.30605 56.20225 50.25415
# Shear Modulus (GPa) = 18.26572 28.53820 23.40196
#
# Velocity S-wave (km/s) = 2.94845 3.68543 3.33735
# Velocity P-wave (km/s) = 5.71648 6.69766 6.22643
#
# Compressibility (1/GPa) = 0.02257028
#
# Stress axis : x y z
#
# Youngs Moduli (GPa) = 80.47269 30.85925 122.43576
#
# Poissons Ratio (x) = 0.33133 0.09760
# Poissons Ratio (y) = 0.86401 0.45065
# Poissons Ratio (z) = 0.06415 0.11358
#
# Static dielectric constant tensor:
#      x y z
#    x 4.752880 0.000000 0.000000 
#    y 0.000000 3.235310 0.000000 
#    z 0.000000 0.000000 3.989100 
# 
# 
# High freq. dielectric constant tensor:
#      x y z
#    x 1.847750 0.000000 0.000000 
#    y 0.000000 1.757150 0.000000 
#    z 0.000000 0.000000 1.855910 
# 
# From -- ./inp_files/2065.got.cif
#   From: 2010.03.12/outbox.cif.g09.slc.cpg/sg74_2_cif.got.tgz:2065.got - 2010.04.16 15:46:19.
