data_PCOD8301305
_publ_section_title
;
Structure prediction by ZEFSAII (Michael W. Deem and Ramdas Pophale) SiO2 
 PCOD8301305
Probable space group: I M M A
;
_chemical_formula_sum "Si O2"
_cell_formula_units_Z 112
_cell_length_a 14.325203
_cell_length_b 26.163325
_cell_length_c 14.185555
_cell_angle_alpha 90.000000
_cell_angle_beta 90.000000
_cell_angle_gamma 90.000000
_cell_volume 5316.674260
_symmetry_space_group_name_H-M "I M M A"
_symmetry_group_IT_number 74
_symmetry_cell_setting 'orthorhombic'
loop_
_space_group_symop_operation_xyz
x,y,z
-x,1/2-y,z
x,-y,-z
-x,1/2+y,-z
-x,-y,-z
x,1/2+y,-z
-x,y,z
x,1/2-y,z
1/2+x,1/2+y,1/2+z
1/2-x,-y,1/2+z
1/2+x,1/2-y,1/2-z
1/2-x,y,1/2-z
1/2-x,1/2-y,1/2-z
1/2+x,y,1/2-z
1/2-x,1/2+y,1/2+z
1/2+x,-y,1/2+z
loop_
_atom_site_type_symbol
_atom_site_label
_atom_site_fract_x
_atom_site_fract_y
_atom_site_fract_z
Si Si1 0.388296 0.806547 0.342004
Si Si2 0.110000 0.629613 0.328202
Si Si3 0.111331 0.014632 0.725553
Si Si4 0.249251 0.864792 0.641410
Si Si5 0.600476 0.309822 0.454870
Si Si6 0.767157 0.976564 0.896839
Si Si7 0.389509 0.690018 0.987118
O O1 0.500000 0.806143 0.340348
O O2 0.349261 0.750000 0.323063
O O3 0.345137 0.842598 0.262128
O O4 0.356575 0.827816 0.444364
O O5 0.136049 0.570525 0.315678
O O6 0.147402 0.657774 0.422334
O O7 0.000000 0.636902 0.327477
O O8 0.155694 0.003779 0.828946
O O9 0.162993 0.979167 0.648893
O O10 0.000000 0.004218 0.728858
O O11 0.250000 0.878894 0.750000
O O12 0.330644 0.823641 0.628442
O O13 0.281526 0.916218 0.588055
O O14 0.154452 0.838430 0.603667
O O15 0.500000 0.335880 0.435907
O O16 0.586539 0.250000 0.460286
O O17 0.773452 0.000000 0.000000
O O18 0.500000 0.686482 0.975643
O O19 0.358776 0.750000 0.994709
#
# Coordination Sequence:
#
# PCOD8301305 Si02
#       7
#    16  16  16  16  16  16  16
#     4   8  14  28  53  87 125 158 191 235 294 370
#     4   9  17  33  61  93 124 162 199 245 313 377
#     4  10  22  42  65  95 128 165 217 270 323 388
#     4  12  25  43  61  88 119 165 213 260 314 366
#     4   9  20  38  60  87 119 158 202 249 306 371
#     4  11  25  45  65  93 128 169 215 273 329 379
#     4  10  22  40  64  96 130 165 208 255 309 381
#
# _framework density 21.065801
#
# number of rings (size 3 to 8) (size 9 to 14) (size 15 to 20)
#    0.000    2.143    1.429    2.571    2.000    5.143 
#    0.000    1.429    0.000    2.571    0.000    0.000 
#    0.000    0.000    0.000    0.000    0.000    0.000 
#
# Total GULP energy -693967.395958 kJ/mol
# GULP energy per Si atom -12392.274928 kJ/mol
# Density = 2.101785 g / cm^3
# Si number density = 21.065801 Si / 1000 Ang^3
#
#
#
# Elastic Constant Matrix: (Units=GPa)
#
#
# Indices 1 2 3 4 5 6 
#
# 1 85.5050 29.3308 33.4463 0.0000 0.0000 0.0000
# 2 29.3308 78.3847 39.0243 0.0000 0.0000 0.0000
# 3 33.4463 39.0243 112.5159 0.0000 0.0001 0.0000
# 4 0.0000 0.0000 0.0000 38.3741 0.0000 0.0000
# 5 0.0000 0.0000 0.0001 0.0000 26.5702 0.0000
# 6 0.0000 0.0000 0.0000 0.0000 0.0000 24.9413
#
#
#
# Elastic Compliance Matrix: (Units=1/GPa)
#
#
# Indices 1 2 3 4 5 6 
#
# 1 0.014141 -0.003866 -0.002863 0.000000 0.000000 0.000000
# 2 -0.003866 0.016477 -0.004566 0.000000 0.000000 0.000000
# 3 -0.002863 -0.004566 0.011322 0.000000 0.000000 0.000000
# 4 0.000000 0.000000 0.000000 0.026059 0.000000 0.000000
# 5 0.000000 0.000000 0.000000 0.000000 0.037636 0.000000
# 6 0.000000 0.000000 0.000000 0.000000 0.000000 0.040094
#
#
# Mechanical properties :
#
#
# Convention : Reuss Voigt Hill
#
# Bulk Modulus (GPa) = 51.67547 53.33426 52.50487
# Shear Modulus (GPa) = 28.60905 29.61739 29.11322
#
# Velocity S-wave (km/s) = 3.68921 3.75366 3.72158
# Velocity P-wave (km/s) = 6.53688 6.64527 6.59130
#
# Compressibility (1/GPa) = 0.01935154
#
# Stress axis : x y z
#
# Youngs Moduli (GPa) = 70.71507 60.68937 88.32302
#
# Poissons Ratio (x) = 0.23465 0.25284
# Poissons Ratio (y) = 0.27341 0.40325
# Poissons Ratio (z) = 0.20243 0.27708
#
# Static dielectric constant tensor:
#      x y z
#    x 3.638400 0.000000 0.000000 
#    y 0.000000 3.864700 0.000000 
#    z 0.000000 0.000000 3.928090 
# 
# 
# High freq. dielectric constant tensor:
#      x y z
#    x 1.821880 0.000000 0.000000 
#    y 0.000000 1.827520 0.000000 
#    z 0.000000 0.000000 1.822340 
# 
# From -- ./inp_files/32754.got.cif
#   From: 2010.03.12/outbox.cif.g09.slc.cpg/sg74_17_cif.got.tgz:32754.got - 2010.04.16 15:46:19.
