data_PCOD8301027
_publ_section_title
;
Structure prediction by ZEFSAII (Michael W. Deem and Ramdas Pophale) SiO2 
 PCOD8301027
Probable space group: I M M A
;
_chemical_formula_sum "Si O2"
_cell_formula_units_Z 88
_cell_length_a 8.345494
_cell_length_b 30.544609
_cell_length_c 17.657991
_cell_angle_alpha 90.000000
_cell_angle_beta 90.000000
_cell_angle_gamma 90.000000
_cell_volume 4501.195857
_symmetry_space_group_name_H-M "I M M A"
_symmetry_group_IT_number 74
_symmetry_cell_setting 'orthorhombic'
loop_
_space_group_symop_operation_xyz
x,y,z
-x,1/2-y,z
x,-y,-z
-x,1/2+y,-z
-x,-y,-z
x,1/2+y,-z
-x,y,z
x,1/2-y,z
1/2+x,1/2+y,1/2+z
1/2-x,-y,1/2+z
1/2+x,1/2-y,1/2-z
1/2-x,y,1/2-z
1/2-x,1/2-y,1/2-z
1/2+x,y,1/2-z
1/2-x,1/2+y,1/2+z
1/2+x,-y,1/2+z
loop_
_atom_site_type_symbol
_atom_site_label
_atom_site_fract_x
_atom_site_fract_y
_atom_site_fract_z
Si Si1 0.811620 0.750000 0.666039
Si Si2 0.688876 0.700098 0.334395
Si Si3 0.184548 0.422441 0.329621
Si Si4 0.186929 0.048735 0.012130
Si Si5 0.316577 0.661020 0.614031
Si Si6 0.185875 0.134580 0.541329
O O1 0.750000 0.750000 0.750000
O O2 0.742624 0.790333 0.621201
O O3 0.000000 0.750000 0.664161
O O4 0.500000 0.692992 0.337799
O O5 0.733080 0.750000 0.360620
O O6 0.750000 0.692356 0.250000
O O7 0.773308 0.662799 0.384609
O O8 0.250000 0.441255 0.250000
O O9 0.285976 0.441024 0.399429
O O10 0.208282 0.369924 0.332419
O O11 0.000000 0.435252 0.338742
O O12 0.000000 0.051404 0.993124
O O13 0.277849 0.082189 0.954246
O O14 0.254802 0.000000 0.000000
O O15 0.500000 0.655526 0.639299
O O16 0.299747 0.650522 0.525779
O O17 0.000000 0.141338 0.521232
#
# Coordination Sequence:
#
# PCOD8301027 Si02
#       6
#     8  16  16  16  16  16
#     4  12  24  38  52  74 107 144 185 228 276 324
#     4  10  21  38  60  86 118 155 197 244 297 353
#     4  11  21  36  58  83 112 146 186 229 278 335
#     4  10  21  39  62  87 116 149 189 239 293 348
#     4  11  22  37  55  78 109 146 188 231 276 325
#     4  11  22  37  59  86 116 151 191 235 284 344
#
# _framework density 19.550359
#
# number of rings (size 3 to 8) (size 9 to 14) (size 15 to 20)
#    0.000    1.273    0.000    9.545    1.273    2.545 
#    0.000    0.909    0.000    4.364    0.000    0.000 
#    0.000    0.000    0.000    0.000    0.000    0.000 
#
# Total GULP energy -545563.904526 kJ/mol
# GULP energy per Si atom -12399.179648 kJ/mol
# Density = 1.950586 g / cm^3
# Si number density = 19.550359 Si / 1000 Ang^3
#
#
#
# Elastic Constant Matrix: (Units=GPa)
#
#
# Indices 1 2 3 4 5 6 
#
# 1 94.0446 23.4129 13.7998 -0.0001 0.0000 0.0000
# 2 23.4129 137.8890 43.2624 -0.0001 0.0000 0.0000
# 3 13.7998 43.2624 79.7015 -0.0006 0.0000 0.0001
# 4 -0.0001 -0.0001 -0.0006 21.6703 0.0000 0.0000
# 5 0.0000 0.0000 0.0000 0.0000 33.6954 -0.0001
# 6 0.0000 0.0000 0.0001 0.0000 -0.0001 26.2014
#
#
#
# Elastic Compliance Matrix: (Units=1/GPa)
#
#
# Indices 1 2 3 4 5 6 
#
# 1 0.011181 -0.001556 -0.001091 0.000000 0.000000 0.000000
# 2 -0.001556 0.008957 -0.004593 0.000000 0.000000 0.000000
# 3 -0.001091 -0.004593 0.015229 0.000000 0.000000 0.000000
# 4 0.000000 0.000000 0.000000 0.046146 0.000000 0.000000
# 5 0.000000 0.000000 0.000000 0.000000 0.029678 0.000000
# 6 0.000000 0.000000 0.000000 0.000000 0.000000 0.038166
#
#
# Mechanical properties :
#
#
# Convention : Reuss Voigt Hill
#
# Bulk Modulus (GPa) = 47.87701 52.50947 50.19324
# Shear Modulus (GPa) = 29.27421 31.72408 30.49914
#
# Velocity S-wave (km/s) = 3.87379 4.03263 3.95401
# Velocity P-wave (km/s) = 6.67462 6.97134 6.82460
#
# Compressibility (1/GPa) = 0.02088685
#
# Stress axis : x y z
#
# Youngs Moduli (GPa) = 89.43926 111.63992 65.66554
#
# Poissons Ratio (x) = 0.17372 0.07166
# Poissons Ratio (y) = 0.13917 0.30158
# Poissons Ratio (z) = 0.09760 0.51273
#
# Static dielectric constant tensor:
#      x y z
#    x 3.608440 0.000000 -0.000010 
#    y 0.000000 3.766000 0.000000 
#    z -0.000010 0.000000 3.642760 
# 
# 
# High freq. dielectric constant tensor:
#      x y z
#    x 1.777950 0.000000 0.000000 
#    y 0.000000 1.760050 0.000000 
#    z 0.000000 0.000000 1.751590 
# 
# From -- ./inp_files/40104.got.cif
#   From: 2010.03.12/outbox.cif.g09.slc.cpg/sg74_21_cif.got.tgz:40104.got - 2010.04.16 15:46:19.
