data_PCOD8301420
_publ_section_title
;
Structure prediction by ZEFSAII (Michael W. Deem and Ramdas Pophale) SiO2 
 PCOD8301420
Probable space group: I M M A
;
_chemical_formula_sum "Si O2"
_cell_formula_units_Z 64
_cell_length_a 20.824604
_cell_length_b 20.766585
_cell_length_c 7.659386
_cell_angle_alpha 90.000000
_cell_angle_beta 90.000000
_cell_angle_gamma 90.000000
_cell_volume 3312.346735
_symmetry_space_group_name_H-M "I M M A"
_symmetry_group_IT_number 74
_symmetry_cell_setting 'orthorhombic'
loop_
_space_group_symop_operation_xyz
x,y,z
-x,1/2-y,z
x,-y,-z
-x,1/2+y,-z
-x,-y,-z
x,1/2+y,-z
-x,y,z
x,1/2-y,z
1/2+x,1/2+y,1/2+z
1/2-x,-y,1/2+z
1/2+x,1/2-y,1/2-z
1/2-x,y,1/2-z
1/2-x,1/2-y,1/2-z
1/2+x,y,1/2-z
1/2-x,1/2+y,1/2+z
1/2+x,-y,1/2+z
loop_
_atom_site_type_symbol
_atom_site_label
_atom_site_fract_x
_atom_site_fract_y
_atom_site_fract_z
Si Si1 0.813385 0.050652 0.649083
Si Si2 0.927037 0.323384 0.173742
Si Si3 0.073765 0.108853 0.818889
Si Si4 0.358968 0.323218 0.967417
O O1 0.750000 0.029026 0.750000
O O2 0.876961 0.050496 0.773538
O O3 0.803397 0.123653 0.572005
O O4 0.828193 0.000000 0.500000
O O5 0.918139 0.250000 0.114288
O O6 0.883374 0.339174 0.339168
O O7 0.000000 0.337203 0.228722
O O8 0.906785 0.367017 0.010722
O O9 0.084074 0.165880 0.675110
O O10 0.000000 0.085189 0.812331
O O11 0.332783 0.250000 0.954019
#
# Coordination Sequence:
#
# PCOD8301420 Si02
#       4
#    16  16  16  16
#     4  10  24  43  63  83 118 168 206 252 309 368
#     4   9  16  29  54  91 130 162 189 230 297 366
#     4   9  19  35  60  93 124 157 198 245 297 355
#     4   9  19  35  60  93 124 157 198 245 297 355
#
# _framework density 19.321648
#
# number of rings (size 3 to 8) (size 9 to 14) (size 15 to 20)
#    1.500    1.250    0.000    1.500    0.000    5.500 
#    0.000    0.000    0.000    7.500    0.000    0.000 
#    0.000    0.000    0.000    0.000    0.000    0.000 
#
# Total GULP energy -396422.623659 kJ/mol
# GULP energy per Si atom -12388.206989 kJ/mol
# Density = 1.927767 g / cm^3
# Si number density = 19.321648 Si / 1000 Ang^3
#
#
#
# Elastic Constant Matrix: (Units=GPa)
#
#
# Indices 1 2 3 4 5 6 
#
# 1 54.3989 6.6883 15.0222 0.0000 0.0000 0.0000
# 2 6.6883 42.7168 3.8490 0.0000 0.0000 0.0000
# 3 15.0222 3.8490 87.8021 0.0000 0.0000 0.0000
# 4 0.0000 0.0000 0.0000 39.0700 0.0000 0.0000
# 5 0.0000 0.0000 0.0000 0.0000 26.8183 0.0000
# 6 0.0000 0.0000 0.0000 0.0000 0.0000 18.2586
#
#
#
# Elastic Compliance Matrix: (Units=1/GPa)
#
#
# Indices 1 2 3 4 5 6 
#
# 1 0.019618 -0.002780 -0.003235 0.000000 0.000000 0.000000
# 2 -0.002780 0.023897 -0.000572 0.000000 0.000000 0.000000
# 3 -0.003235 -0.000572 0.011968 0.000000 0.000000 0.000000
# 4 0.000000 0.000000 0.000000 0.025595 0.000000 0.000000
# 5 0.000000 0.000000 0.000000 0.000000 0.037288 0.000000
# 6 0.000000 0.000000 0.000000 0.000000 0.000000 0.054769
#
#
# Mechanical properties :
#
#
# Convention : Reuss Voigt Hill
#
# Bulk Modulus (GPa) = 23.63563 26.22633 24.93098
# Shear Modulus (GPa) = 24.94882 27.45327 26.20105
#
# Velocity S-wave (km/s) = 3.59728 3.77351 3.68645
# Velocity P-wave (km/s) = 5.43260 5.70867 5.57234
#
# Compressibility (1/GPa) = 0.04230901
#
# Stress axis : x y z
#
# Youngs Moduli (GPa) = 50.97416 41.84661 83.55809
#
# Poissons Ratio (x) = 0.11634 0.27027
# Poissons Ratio (y) = 0.14172 0.04779
# Poissons Ratio (z) = 0.16488 0.02393
#
# Static dielectric constant tensor:
#      x y z
#    x 3.147690 0.000000 0.000000 
#    y 0.000000 3.267680 0.000000 
#    z 0.000000 0.000000 3.611690 
# 
# 
# High freq. dielectric constant tensor:
#      x y z
#    x 1.722610 0.000000 0.000000 
#    y 0.000000 1.732550 0.000000 
#    z 0.000000 0.000000 1.765850 
# 
# From -- ./inp_files/11801.got.cif
#   From: 2010.03.12/outbox.cif.g09.slc.cpg/sg74_6_cif.got.tgz:11801.got - 2010.04.16 15:46:19.
