data_PCOD8301148
_publ_section_title
;
Structure prediction by ZEFSAII (Michael W. Deem and Ramdas Pophale) SiO2 
 PCOD8301148
Probable space group: I M M A
;
_chemical_formula_sum "Si O2"
_cell_formula_units_Z 96
_cell_length_a 18.068516
_cell_length_b 28.290444
_cell_length_c 9.469770
_cell_angle_alpha 90.000000
_cell_angle_beta 90.000000
_cell_angle_gamma 90.000000
_cell_volume 4840.627672
_symmetry_space_group_name_H-M "I M M A"
_symmetry_group_IT_number 74
_symmetry_cell_setting 'orthorhombic'
loop_
_space_group_symop_operation_xyz
x,y,z
-x,1/2-y,z
x,-y,-z
-x,1/2+y,-z
-x,-y,-z
x,1/2+y,-z
-x,y,z
x,1/2-y,z
1/2+x,1/2+y,1/2+z
1/2-x,-y,1/2+z
1/2+x,1/2-y,1/2-z
1/2-x,y,1/2-z
1/2-x,1/2-y,1/2-z
1/2+x,y,1/2-z
1/2-x,1/2+y,1/2+z
1/2+x,-y,1/2+z
loop_
_atom_site_type_symbol
_atom_site_label
_atom_site_fract_x
_atom_site_fract_y
_atom_site_fract_z
Si Si1 0.319869 0.521464 0.849772
Si Si2 0.664636 0.375085 0.222684
Si Si3 0.333479 0.194549 0.728586
Si Si4 0.414856 0.472230 0.632686
Si Si5 0.414393 0.805291 0.984482
Si Si6 0.913668 0.629165 0.019138
O O1 0.250000 0.518321 0.750000
O O2 0.344450 0.576109 0.864328
O O3 0.383098 0.489214 0.781570
O O4 0.299305 0.500000 0.000000
O O5 0.750000 0.362575 0.250000
O O6 0.629553 0.332467 0.135976
O O7 0.620405 0.381299 0.367316
O O8 0.332807 0.250000 0.700259
O O9 0.250000 0.175570 0.750000
O O10 0.369863 0.172016 0.590288
O O11 0.382065 0.180718 0.863723
O O12 0.378053 0.500000 0.500000
O O13 0.500000 0.485873 0.637578
O O14 0.401813 0.416528 0.616924
O O15 0.500000 0.820105 0.981845
O O16 0.403812 0.750000 0.954411
O O17 0.000000 0.642125 0.003026
#
# Coordination Sequence:
#
# PCOD8301148 Si02
#       6
#    16  16  16  16  16  16
#     4  11  25  41  63  91 125 165 210 263 316 382
#     4  11  24  40  61  93 125 163 211 261 317 374
#     4  10  22  41  65  94 126 163 209 259 313 377
#     4  10  21  40  61  86 125 167 204 255 320 376
#     4  10  22  41  63  89 125 165 206 259 316 371
#     4  11  23  39  63  92 125 166 210 259 316 379
#
# _framework density 19.832139000000002
#
# number of rings (size 3 to 8) (size 9 to 14) (size 15 to 20)
#    0.000    1.500    1.667    2.500    4.667    3.667 
#    0.000    0.000    0.000    0.000    0.000    0.000 
#    0.000    0.000    0.000    0.000    0.000    0.000 
#
# Total GULP energy -595443.031901 kJ/mol
# GULP energy per Si atom -12405.063165 kJ/mol
# Density = 1.978700 g / cm^3
# Si number density = 19.832139 Si / 1000 Ang^3
#
#
#
# Elastic Constant Matrix: (Units=GPa)
#
#
# Indices 1 2 3 4 5 6 
#
# 1 115.9232 53.0290 42.4614 0.0000 0.0001 0.0001
# 2 53.0290 72.2914 45.9319 0.0002 0.0002 0.0000
# 3 42.4614 45.9319 97.7752 -0.0037 -0.0004 -0.0007
# 4 0.0000 0.0002 -0.0037 35.6228 0.0000 -0.0002
# 5 0.0001 0.0002 -0.0004 0.0000 34.5826 0.0000
# 6 0.0001 0.0000 -0.0007 -0.0002 0.0000 25.4944
#
#
#
# Elastic Compliance Matrix: (Units=1/GPa)
#
#
# Indices 1 2 3 4 5 6 
#
# 1 0.013175 -0.008594 -0.001684 0.000000 0.000000 0.000000
# 2 -0.008594 0.025325 -0.008165 -0.000001 0.000000 0.000000
# 3 -0.001684 -0.008165 0.014794 0.000002 0.000000 0.000000
# 4 0.000000 -0.000001 0.000002 0.028072 0.000000 0.000000
# 5 0.000000 0.000000 0.000000 0.000000 0.028916 0.000000
# 6 0.000000 0.000000 0.000000 0.000000 0.000000 0.039224
#
#
# Mechanical properties :
#
#
# Convention : Reuss Voigt Hill
#
# Bulk Modulus (GPa) = 60.94589 63.20382 62.07486
# Shear Modulus (GPa) = 26.06051 28.77780 27.41916
#
# Velocity S-wave (km/s) = 3.62892 3.81342 3.72232
# Velocity P-wave (km/s) = 6.95387 7.16437 7.05990
#
# Compressibility (1/GPa) = 0.01640800
#
# Stress axis : x y z
#
# Youngs Moduli (GPa) = 75.90317 39.48727 67.59318
#
# Poissons Ratio (x) = 0.33936 0.11384
# Poissons Ratio (y) = 0.65232 0.55187
# Poissons Ratio (z) = 0.12783 0.32239
#
# Static dielectric constant tensor:
#      x y z
#    x 3.800820 0.000000 0.000000 
#    y 0.000000 3.644350 0.000000 
#    z 0.000000 0.000000 3.907490 
# 
# 
# High freq. dielectric constant tensor:
#      x y z
#    x 1.788010 0.000000 0.000000 
#    y 0.000000 1.777740 0.000000 
#    z 0.000000 0.000000 1.771900 
# 
# From -- ./inp_files/12680.got.cif
#   From: 2010.03.12/outbox.cif.g09.slc.cpg/sg74_7_cif.got.tgz:12680.got - 2010.04.16 15:46:19.
