data_PCOD8301073
_publ_section_title
;
Structure prediction by ZEFSAII (Michael W. Deem and Ramdas Pophale) SiO2 
 PCOD8301073
Probable space group: I M M A
;
_chemical_formula_sum "Si O2"
_cell_formula_units_Z 104
_cell_length_a 9.017365
_cell_length_b 21.136599
_cell_length_c 26.721119
_cell_angle_alpha 90.000000
_cell_angle_beta 90.000000
_cell_angle_gamma 90.000000
_cell_volume 5092.949835
_symmetry_space_group_name_H-M "I M M A"
_symmetry_group_IT_number 74
_symmetry_cell_setting 'orthorhombic'
loop_
_space_group_symop_operation_xyz
x,y,z
-x,1/2-y,z
x,-y,-z
-x,1/2+y,-z
-x,-y,-z
x,1/2+y,-z
-x,y,z
x,1/2-y,z
1/2+x,1/2+y,1/2+z
1/2-x,-y,1/2+z
1/2+x,1/2-y,1/2-z
1/2-x,y,1/2-z
1/2-x,1/2-y,1/2-z
1/2+x,y,1/2-z
1/2-x,1/2+y,1/2+z
1/2+x,-y,1/2+z
loop_
_atom_site_type_symbol
_atom_site_label
_atom_site_fract_x
_atom_site_fract_y
_atom_site_fract_z
Si Si1 0.500000 0.325968 0.283060
Si Si2 0.773133 0.116043 0.143904
Si Si3 0.161956 0.178743 0.046252
Si Si4 0.678443 0.869980 0.354715
Si Si5 0.172140 0.824021 0.448200
Si Si6 0.000000 0.678782 0.672715
Si Si7 0.679097 0.491345 0.804064
Si Si8 0.321061 0.250000 0.803766
O O1 0.500000 0.250000 0.286315
O O2 0.358536 0.354794 0.309483
O O3 0.500000 0.355636 0.227018
O O4 0.849816 0.125796 0.090274
O O5 0.633320 0.160705 0.137512
O O6 0.727162 0.044538 0.155875
O O7 0.194018 0.250000 0.067290
O O8 0.000000 0.178442 0.020286
O O9 0.283855 0.159711 0.005186
O O10 0.500000 0.868097 0.349061
O O11 0.727288 0.868871 0.412838
O O12 0.745388 0.928837 0.325266
O O13 0.760066 0.810400 0.331683
O O14 0.203162 0.750000 0.436836
O O15 0.000000 0.840579 0.440203
O O16 0.000000 0.750000 0.688615
O O17 0.500000 0.485582 0.800629
O O18 0.750000 0.505993 0.750000
O O19 0.500000 0.250000 0.802225
O O20 0.250000 0.250000 0.750000
#
# Coordination Sequence:
#
# PCOD8301073 Si02
#       8
#     8  16  16  16  16   8  16   8
#     4  11  22  38  60  88 123 167 217 279 338 396
#     4  12  24  39  62  89 131 173 223 272 332 390
#     4  10  21  38  62  93 130 173 221 273 332 395
#     4  12  25  43  70 100 134 172 218 270 329 397
#     4  10  21  39  67 100 134 169 211 269 334 396
#     4  11  22  36  58  90 123 163 217 277 338 394
#     4  12  27  46  67  93 130 179 228 271 328 401
#     4  12  24  42  68 102 142 174 214 270 329 388
#
# _framework density 20.420386000000001
#
# number of rings (size 3 to 8) (size 9 to 14) (size 15 to 20)
#    0.000    0.769    2.308    6.231    3.231    1.846 
#    0.000    0.769    0.000    3.692    0.000    0.000 
#    0.000    0.000    0.000    0.000    0.000    0.000 
#
# Total GULP energy -644500.379701 kJ/mol
# GULP energy per Si atom -12394.238071 kJ/mol
# Density = 2.037391 g / cm^3
# Si number density = 20.420386 Si / 1000 Ang^3
#
#
#
# Elastic Constant Matrix: (Units=GPa)
#
#
# Indices 1 2 3 4 5 6 
#
# 1 153.8930 48.0630 31.6647 0.0000 0.0000 0.0000
# 2 48.0630 92.0637 35.9332 0.0000 0.0000 0.0000
# 3 31.6647 35.9332 94.7267 0.0000 0.0000 0.0000
# 4 0.0000 0.0000 0.0000 28.0315 0.0000 0.0000
# 5 0.0000 0.0000 0.0000 0.0000 -38.0932 0.0000
# 6 0.0000 0.0000 0.0000 0.0000 0.0000 33.0242
#
#
#
# Elastic Compliance Matrix: (Units=1/GPa)
#
#
# Indices 1 2 3 4 5 6 
#
# 1 0.007890 -0.003627 -0.001262 0.000000 0.000000 0.000000
# 2 -0.003627 0.014417 -0.004256 0.000000 0.000000 0.000000
# 3 -0.001262 -0.004256 0.012593 0.000000 0.000000 0.000000
# 4 0.000000 0.000000 0.000000 0.035674 0.000000 0.000000
# 5 0.000000 0.000000 0.000000 0.000000 -0.026251 0.000000
# 6 0.000000 0.000000 0.000000 0.000000 0.000000 0.030281
#
#
# Mechanical properties :
#
#
# Convention : Reuss Voigt Hill
#
# Bulk Modulus (GPa) = 60.20397 63.55613 61.88005
# Shear Modulus (GPa) = 50.79726 19.59400 35.19563
#
# Velocity S-wave (km/s) = 4.99297 3.10099 4.15607
# Velocity P-wave (km/s) = 7.92376 6.63423 7.30749
#
# Compressibility (1/GPa) = 0.01661020
#
# Stress axis : x y z
#
# Youngs Moduli (GPa) = 126.73740 69.36374 79.40865
#
# Poissons Ratio (x) = 0.25157 0.10020
# Poissons Ratio (y) = 0.45965 0.33800
# Poissons Ratio (z) = 0.15991 0.29524
#
# Static dielectric constant tensor:
#      x y z
#    x 4.020090 0.000000 0.000000 
#    y 0.000000 3.419710 0.000000 
#    z 0.000000 0.000000 3.670320 
# 
# 
# High freq. dielectric constant tensor:
#      x y z
#    x 1.821830 0.000000 0.000000 
#    y 0.000000 1.780750 0.000000 
#    z 0.000000 0.000000 1.801460 
# 
# From -- ./inp_files/64557.got.cif
#   From: 2010.03.12/outbox.cif.g09.slc.cpg/sg74_33_cif.got.tgz:64557.got - 2010.04.16 15:46:19.
