data_PCOD8301567
_publ_section_title
;
Structure prediction by ZEFSAII (Michael W. Deem and Ramdas Pophale) SiO2 
 PCOD8301567
Probable space group: I M M A
;
_chemical_formula_sum "Si O2"
_cell_formula_units_Z 72
_cell_length_a 14.976723
_cell_length_b 16.212133
_cell_length_c 14.380809
_cell_angle_alpha 90.000000
_cell_angle_beta 90.000000
_cell_angle_gamma 90.000000
_cell_volume 3491.726939
_symmetry_space_group_name_H-M "I M M A"
_symmetry_group_IT_number 74
_symmetry_cell_setting 'orthorhombic'
loop_
_space_group_symop_operation_xyz
x,y,z
-x,1/2-y,z
x,-y,-z
-x,1/2+y,-z
-x,-y,-z
x,1/2+y,-z
-x,y,z
x,1/2-y,z
1/2+x,1/2+y,1/2+z
1/2-x,-y,1/2+z
1/2+x,1/2-y,1/2-z
1/2-x,y,1/2-z
1/2-x,1/2-y,1/2-z
1/2+x,y,1/2-z
1/2-x,1/2+y,1/2+z
1/2+x,-y,1/2+z
loop_
_atom_site_type_symbol
_atom_site_label
_atom_site_fract_x
_atom_site_fract_y
_atom_site_fract_z
Si Si1 0.850103 0.875524 0.639725
Si Si2 0.500000 0.620298 0.256487
Si Si3 0.853561 0.750000 0.276763
Si Si4 0.399452 0.250000 0.984311
Si Si5 0.848412 0.842641 0.845104
Si Si6 0.000000 0.034378 0.102232
Si Si7 0.500000 0.498561 0.108520
O O1 0.881271 0.828997 0.547709
O O2 0.867734 0.827393 0.735939
O O3 0.744366 0.889423 0.633769
O O4 0.908424 0.957986 0.645880
O O5 0.408190 0.672240 0.266288
O O6 0.500000 0.541652 0.325395
O O7 0.500000 0.590098 0.149492
O O8 0.750000 0.750000 0.250000
O O9 0.844800 0.750000 0.388786
O O10 0.500000 0.250000 0.949894
O O11 0.850287 0.750000 0.890282
O O12 0.916772 0.905276 0.889448
O O13 0.000000 0.000000 0.000000
O O14 0.500000 0.500000 0.000000
#
# Coordination Sequence:
#
# PCOD8301567 Si02
#       7
#    16   8   8   8  16   8   8
#     4  11  21  36  69 103 139 170 217 282 344 415
#     4  11  24  49  64  98 135 175 247 275 341 412
#     4  11  27  48  72  92 138 192 224 287 341 414
#     4  12  20  38  70 109 137 168 229 288 336 406
#     4  11  22  43  67 101 137 182 221 275 357 411
#     4  12  28  45  68  91 138 182 237 291 324 408
#     4  12  23  37  67 103 138 178 210 286 362 407
#
# _framework density 20.620168
#
# number of rings (size 3 to 8) (size 9 to 14) (size 15 to 20)
#    0.000    0.667    6.667    2.333    0.000    4.444 
#    4.000    0.000    0.000    0.000    0.000    0.000 
#    0.000    0.000    0.000    0.000    0.000    0.000 
#
# Total GULP energy -446114.405554 kJ/mol
# GULP energy per Si atom -12392.066821 kJ/mol
# Density = 2.057324 g / cm^3
# Si number density = 20.620168 Si / 1000 Ang^3
#
#
#
# Elastic Constant Matrix: (Units=GPa)
#
#
# Indices 1 2 3 4 5 6 
#
# 1 188.6026 83.0024 52.7537 0.0000 0.0000 0.0000
# 2 83.0024 124.5327 33.2365 0.0000 0.0000 0.0000
# 3 52.7537 33.2365 105.8476 0.0000 0.0000 0.0000
# 4 0.0000 0.0000 0.0000 29.0028 0.0000 0.0000
# 5 0.0000 0.0000 0.0000 0.0000 29.9398 0.0000
# 6 0.0000 0.0000 0.0000 0.0000 0.0000 -80.7734
#
#
#
# Elastic Compliance Matrix: (Units=1/GPa)
#
#
# Indices 1 2 3 4 5 6 
#
# 1 0.008089 -0.004710 -0.002552 0.000000 0.000000 0.000000
# 2 -0.004710 0.011507 -0.001266 0.000000 0.000000 0.000000
# 3 -0.002552 -0.001266 0.011117 0.000000 0.000000 0.000000
# 4 0.000000 0.000000 0.000000 0.034479 0.000000 0.000000
# 5 0.000000 0.000000 0.000000 0.000000 0.033400 0.000000
# 6 0.000000 0.000000 0.000000 0.000000 0.000000 -0.012380
#
#
# Mechanical properties :
#
#
# Convention : Reuss Voigt Hill
#
# Bulk Modulus (GPa) = 73.22537 84.10756 78.66647
# Shear Modulus (GPa) = 46.37274 12.29986 29.33630
#
# Velocity S-wave (km/s) = 4.74740 2.44498 3.77596
# Velocity P-wave (km/s) = 8.10179 6.98914 7.56595
#
# Compressibility (1/GPa) = 0.01365647
#
# Stress axis : x y z
#
# Youngs Moduli (GPa) = 123.62446 86.90191 89.95108
#
# Poissons Ratio (x) = 0.40932 0.22960
# Poissons Ratio (y) = 0.58229 0.11386
# Poissons Ratio (z) = 0.31555 0.11000
#
# Static dielectric constant tensor:
#      x y z
#    x 4.443910 0.000000 0.000000 
#    y 0.000000 5.098340 0.000000 
#    z 0.000000 0.000000 3.751180 
# 
# 
# High freq. dielectric constant tensor:
#      x y z
#    x 1.816280 0.000000 0.000000 
#    y 0.000000 1.809050 0.000000 
#    z 0.000000 0.000000 1.802350 
# 
# From -- ./inp_files/31992.got.cif
#   From: 2010.03.12/outbox.cif.g09.slc.cpg/sg74_16_cif.got.tgz:31992.got - 2010.04.16 15:46:19.
