data_PCOD8301117
_publ_section_title
;
Structure prediction by ZEFSAII (Michael W. Deem and Ramdas Pophale) SiO2 
 PCOD8301117
Probable space group: I M M A
;
_chemical_formula_sum "Si O2"
_cell_formula_units_Z 72
_cell_length_a 9.087232
_cell_length_b 19.241016
_cell_length_c 20.487567
_cell_angle_alpha 90.000000
_cell_angle_beta 90.000000
_cell_angle_gamma 90.000000
_cell_volume 3582.201434
_symmetry_space_group_name_H-M "I M M A"
_symmetry_group_IT_number 74
_symmetry_cell_setting 'orthorhombic'
loop_
_space_group_symop_operation_xyz
x,y,z
-x,1/2-y,z
x,-y,-z
-x,1/2+y,-z
-x,-y,-z
x,1/2+y,-z
-x,y,z
x,1/2-y,z
1/2+x,1/2+y,1/2+z
1/2-x,-y,1/2+z
1/2+x,1/2-y,1/2-z
1/2-x,y,1/2-z
1/2-x,1/2-y,1/2-z
1/2+x,y,1/2-z
1/2-x,1/2+y,1/2+z
1/2+x,-y,1/2+z
loop_
_atom_site_type_symbol
_atom_site_label
_atom_site_fract_x
_atom_site_fract_y
_atom_site_fract_z
Si Si1 0.830547 0.250000 0.316564
Si Si2 0.823921 0.901126 0.316421
Si Si3 0.836365 0.750000 0.014379
Si Si4 0.836118 0.351218 0.099479
Si Si5 0.672306 0.750000 0.144933
Si Si6 0.330798 0.491500 0.574071
O O1 0.750000 0.250000 0.250000
O O2 0.787161 0.319408 0.354572
O O3 0.000000 0.250000 0.302969
O O4 0.750000 0.931504 0.250000
O O5 0.771695 0.820481 0.320483
O O6 0.000000 0.909833 0.312881
O O7 0.765698 0.940135 0.381327
O O8 0.717424 0.750000 0.070113
O O9 0.000000 0.750000 0.044897
O O10 0.812005 0.679390 0.973033
O O11 0.818932 0.432955 0.105373
O O12 0.000000 0.328703 0.122481
O O13 0.500000 0.750000 0.146002
O O14 0.270118 0.500000 0.500000
O O15 0.500000 0.464697 0.572562
#
# Coordination Sequence:
#
# PCOD8301117 Si02
#       6
#     8  16   8  16   8  16
#     4  11  22  36  56  80 108 145 189 233 281 336
#     4  11  24  41  60  84 116 153 195 242 292 346
#     4   9  17  32  58  87 112 145 186 228 275 329
#     4   9  19  36  56  81 114 147 184 229 276 333
#     4  10  22  38  57  83 114 148 187 235 287 339
#     4  10  21  39  63  89 118 154 194 236 286 345
#
# _framework density 20.099373
#
# number of rings (size 3 to 8) (size 9 to 14) (size 15 to 20)
#    0.000    2.000    0.000    4.000    0.000    7.556 
#    0.000    0.000    0.000    0.000    0.000    0.000 
#    0.000    0.000    0.000    0.000    0.000    0.000 
#
# Total GULP energy -446283.344374 kJ/mol
# GULP energy per Si atom -12396.759566 kJ/mol
# Density = 2.005363 g / cm^3
# Si number density = 20.099373 Si / 1000 Ang^3
#
#
#
# Elastic Constant Matrix: (Units=GPa)
#
#
# Indices 1 2 3 4 5 6 
#
# 1 87.7153 40.7030 56.5486 0.0000 0.0000 0.0000
# 2 40.7030 95.6179 37.2553 0.0000 0.0000 0.0000
# 3 56.5486 37.2553 128.7328 0.0000 0.0000 0.0000
# 4 0.0000 0.0000 0.0000 9.6441 0.0000 0.0000
# 5 0.0000 0.0000 0.0000 0.0000 39.2023 0.0000
# 6 0.0000 0.0000 0.0000 0.0000 0.0000 24.6610
#
#
#
# Elastic Compliance Matrix: (Units=1/GPa)
#
#
# Indices 1 2 3 4 5 6 
#
# 1 0.017891 -0.005133 -0.006374 0.000000 0.000000 0.000000
# 2 -0.005133 0.013260 -0.001583 0.000000 0.000000 0.000000
# 3 -0.006374 -0.001583 0.011026 0.000000 0.000000 0.000000
# 4 0.000000 0.000000 0.000000 0.103690 0.000000 0.000000
# 5 0.000000 0.000000 0.000000 0.000000 0.025509 0.000000
# 6 0.000000 0.000000 0.000000 0.000000 0.000000 0.040550
#
#
# Mechanical properties :
#
#
# Convention : Reuss Voigt Hill
#
# Bulk Modulus (GPa) = 62.50506 64.56441 63.53474
# Shear Modulus (GPa) = 20.53920 26.53876 23.53898
#
# Velocity S-wave (km/s) = 3.20016 3.63764 3.42589
# Velocity P-wave (km/s) = 6.69479 7.05943 6.87953
#
# Compressibility (1/GPa) = 0.01599870
#
# Stress axis : x y z
#
# Youngs Moduli (GPa) = 55.89309 75.41542 90.69574
#
# Poissons Ratio (x) = 0.38708 0.57807
# Poissons Ratio (y) = 0.28688 0.14355
# Poissons Ratio (z) = 0.35625 0.11937
#
# Static dielectric constant tensor:
#      x y z
#    x 3.261510 0.000000 0.000000 
#    y 0.000000 3.880660 0.000000 
#    z 0.000000 0.000000 3.174540 
# 
# 
# High freq. dielectric constant tensor:
#      x y z
#    x 1.775480 0.000000 0.000000 
#    y 0.000000 1.791860 0.000000 
#    z 0.000000 0.000000 1.784650 
# 
# From -- ./inp_files/48445.got.cif
#   From: 2010.03.12/outbox.cif.g09.slc.cpg/sg74_25_cif.got.tgz:48445.got - 2010.04.16 15:46:19.
