data_PCOD8301124
_publ_section_title
;
Structure prediction by ZEFSAII (Michael W. Deem and Ramdas Pophale) SiO2 
 PCOD8301124
Probable space group: I M M A
;
_chemical_formula_sum "Si O2"
_cell_formula_units_Z 104
_cell_length_a 16.755858
_cell_length_b 14.213169
_cell_length_c 22.062703
_cell_angle_alpha 90.000000
_cell_angle_beta 90.000000
_cell_angle_gamma 90.000000
_cell_volume 5254.317473
_symmetry_space_group_name_H-M "I M M A"
_symmetry_group_IT_number 74
_symmetry_cell_setting 'orthorhombic'
loop_
_space_group_symop_operation_xyz
x,y,z
-x,1/2-y,z
x,-y,-z
-x,1/2+y,-z
-x,-y,-z
x,1/2+y,-z
-x,y,z
x,1/2-y,z
1/2+x,1/2+y,1/2+z
1/2-x,-y,1/2+z
1/2+x,1/2-y,1/2-z
1/2-x,y,1/2-z
1/2-x,1/2-y,1/2-z
1/2+x,y,1/2-z
1/2-x,1/2+y,1/2+z
1/2+x,-y,1/2+z
loop_
_atom_site_type_symbol
_atom_site_label
_atom_site_fract_x
_atom_site_fract_y
_atom_site_fract_z
Si Si1 0.093553 0.140531 0.072799
Si Si2 0.905224 0.250000 0.388300
Si Si3 0.092650 0.975021 0.809539
Si Si4 0.815512 0.909043 0.405138
Si Si5 0.202043 0.853349 0.192027
Si Si6 0.800430 0.500000 0.000000
Si Si7 0.905420 0.250000 0.525746
Si Si8 0.905546 0.061554 0.326650
O O1 0.117360 0.250000 0.070480
O O2 0.115034 0.102093 0.139873
O O3 0.000000 0.126291 0.058922
O O4 0.143619 0.085982 0.021653
O O5 0.874167 0.250000 0.456955
O O6 0.871837 0.158191 0.354502
O O7 0.000000 0.250000 0.386269
O O8 0.120020 0.938220 0.743791
O O9 0.000000 0.997465 0.809855
O O10 0.133642 0.073651 0.825583
O O11 0.762811 0.841716 0.363386
O O12 0.874420 0.845387 0.444320
O O13 0.756523 0.969874 0.445797
O O14 0.867549 0.975662 0.362427
O O15 0.164692 0.750000 0.205159
O O16 0.250000 0.891312 0.250000
O O17 0.000000 0.250000 0.530070
O O18 0.000000 0.053432 0.334168
#
# Coordination Sequence:
#
# PCOD8301124 Si02
#       8
#    16   8  16  16  16   8   8  16
#     4  10  23  43  67  96 129 168 214 266 318 379
#     4   9  20  38  60  87 121 154 199 252 299 362
#     4  10  21  40  66  94 125 160 206 258 321 386
#     4  12  23  39  60  90 122 164 206 258 308 368
#     4  11  22  40  61  85 123 162 203 264 319 366
#     4  12  25  40  67  90 128 172 212 258 313 384
#     4  11  24  42  63  90 127 171 215 256 307 378
#     4  10  21  39  63  92 122 160 205 254 312 377
#
# _framework density 19.793246
#
# number of rings (size 3 to 8) (size 9 to 14) (size 15 to 20)
#    0.000    1.385    3.846    1.615    2.154    0.308 
#    1.385    3.077    0.000    2.308    0.000    0.000 
#    0.000    0.000    0.000    0.000    0.000    0.000 
#
# Total GULP energy -644888.517442 kJ/mol
# GULP energy per Si atom -12401.702258 kJ/mol
# Density = 1.974820 g / cm^3
# Si number density = 19.793246 Si / 1000 Ang^3
#
#
#
# Elastic Constant Matrix: (Units=GPa)
#
#
# Indices 1 2 3 4 5 6 
#
# 1 57.1810 43.2798 38.1599 0.0000 0.0000 0.0000
# 2 43.2798 133.6432 39.9995 0.0000 0.0000 0.0000
# 3 38.1599 39.9995 103.5322 0.0000 0.0000 0.0000
# 4 0.0000 0.0000 0.0000 33.8360 0.0000 0.0000
# 5 0.0000 0.0000 0.0000 0.0000 29.4771 0.0000
# 6 0.0000 0.0000 0.0000 0.0000 0.0000 43.8492
#
#
#
# Elastic Compliance Matrix: (Units=1/GPa)
#
#
# Indices 1 2 3 4 5 6 
#
# 1 0.027605 -0.006665 -0.007599 0.000000 0.000000 0.000000
# 2 -0.006665 0.010070 -0.001434 0.000000 0.000000 0.000000
# 3 -0.007599 -0.001434 0.013014 0.000000 0.000000 0.000000
# 4 0.000000 0.000000 0.000000 0.029554 0.000000 0.000000
# 5 0.000000 0.000000 0.000000 0.000000 0.033925 0.000000
# 6 0.000000 0.000000 0.000000 0.000000 0.000000 0.022805
#
#
# Mechanical properties :
#
#
# Convention : Reuss Voigt Hill
#
# Bulk Modulus (GPa) = 51.83603 59.69276 55.76440
# Shear Modulus (GPa) = 28.60397 32.96026 30.78212
#
# Velocity S-wave (km/s) = 3.80562 4.08515 3.94786
# Velocity P-wave (km/s) = 6.74951 7.24395 7.00110
#
# Compressibility (1/GPa) = 0.01929160
#
# Stress axis : x y z
#
# Youngs Moduli (GPa) = 36.22581 99.30207 76.84104
#
# Poissons Ratio (x) = 0.66186 0.58395
# Poissons Ratio (y) = 0.24145 0.11019
# Poissons Ratio (z) = 0.27530 0.14240
#
# Static dielectric constant tensor:
#      x y z
#    x 3.509460 0.000000 0.000000 
#    y 0.000000 3.592950 0.000000 
#    z 0.000000 0.000000 3.548130 
# 
# 
# High freq. dielectric constant tensor:
#      x y z
#    x 1.764570 0.000000 0.000000 
#    y 0.000000 1.779400 0.000000 
#    z 0.000000 0.000000 1.786690 
# 
# From -- ./inp_files/53131.got.cif
#   From: 2010.03.12/outbox.cif.g09.slc.cpg/sg74_27_cif.got.tgz:53131.got - 2010.04.16 15:46:19.
