data_PCOD8301886
_publ_section_title
;
Structure prediction by ZEFSAII (Michael W. Deem and Ramdas Pophale) SiO2 
 PCOD8301886
Probable space group: P 41
;
_chemical_formula_sum "Si O2"
_cell_formula_units_Z 28
_cell_length_a 8.604211
_cell_length_b 8.604211
_cell_length_c 17.898024
_cell_angle_alpha 90.000000
_cell_angle_beta 90.000000
_cell_angle_gamma 90.000000
_cell_volume 1325.034512
_symmetry_space_group_name_H-M "P 41"
_symmetry_group_IT_number 76
_symmetry_cell_setting 'tetragonal'
loop_
_space_group_symop_operation_xyz
x,y,z
-y,x,1/4+z
-x,-y,1/2+z
y,-x,3/4+z
loop_
_atom_site_type_symbol
_atom_site_label
_atom_site_fract_x
_atom_site_fract_y
_atom_site_fract_z
Si Si1 0.327996 0.327996 0.926620
Si Si2 0.715890 0.821209 0.279612
Si Si3 0.649568 0.836736 0.704585
Si Si4 0.186528 0.378253 0.485720
Si Si5 0.813472 0.378253 0.617520
Si Si6 0.836736 0.649568 0.148655
Si Si7 0.178791 0.284110 0.073628
O O1 0.232644 0.272041 0.853595
O O2 0.284204 0.510172 0.935756
O O3 0.510172 0.284204 0.917484
O O4 0.272041 0.232644 0.999645
O O5 0.549739 0.753299 0.254216
O O6 0.827871 0.787538 0.209547
O O7 0.711042 1.000000 0.301620
O O8 0.716005 0.806588 0.788568
O O9 0.787538 0.827871 0.643693
O O10 0.595210 0.015025 0.702261
O O11 0.297545 0.297545 0.426620
O O12 0.193412 0.283995 0.564672
O O13 0.753298 0.549739 0.599024
O O14 0.984975 0.404790 0.650979
#
# Coordination Sequence:
#
# PCOD8301886 Si02
#       7
#     4   4   4   4   4   4   4
#     4  10  20  42  66  92 130 162 214 268 318 380
#     4  11  22  42  65  93 129 165 213 269 320 384
#     4  10  22  42  65  94 127 167 213 264 320 385
#     4  10  22  45  63  91 130 165 213 264 315 386
#     4  10  22  45  63  91 130 165 213 264 315 386
#     4  10  22  42  65  94 127 167 213 264 320 385
#     4  11  22  42  65  93 129 165 213 269 320 384
#
# _framework density 21.131523999999999
#
# number of rings (size 3 to 8) (size 9 to 14) (size 15 to 20)
#    0.000    1.714    5.714    0.857    2.000    3.429 
#   12.857    0.000    0.000    0.000    0.000    0.000 
#    0.000    0.000    0.000    0.000    0.000    0.000 
#
# Total GULP energy -346910.040138 kJ/mol
# GULP energy per Si atom -12389.644291 kJ/mol
# Density = 2.108343 g / cm^3
# Si number density = 21.131524 Si / 1000 Ang^3
#
#
#
# Elastic Constant Matrix: (Units=GPa)
#
#
# Indices 1 2 3 4 5 6 
#
# 1 60.6345 51.9786 58.7001 0.0000 0.0000 0.0000
# 2 51.9786 60.6345 58.7001 0.0000 0.0000 0.0000
# 3 58.7001 58.7001 179.7166 0.0000 0.0000 0.0000
# 4 0.0000 0.0000 0.0000 40.1749 0.0000 0.0000
# 5 0.0000 0.0000 0.0000 0.0000 40.1749 0.0000
# 6 0.0000 0.0000 0.0000 0.0000 0.0000 21.2478
#
#
#
# Elastic Compliance Matrix: (Units=1/GPa)
#
#
# Indices 1 2 3 4 5 6 
#
# 1 0.064496 -0.051031 -0.004398 0.000000 0.000000 0.000000
# 2 -0.051031 0.064496 -0.004398 0.000000 0.000000 0.000000
# 3 -0.004398 -0.004398 0.008437 0.000000 0.000000 0.000000
# 4 0.000000 0.000000 0.000000 0.024891 0.000000 0.000000
# 5 0.000000 0.000000 0.000000 0.000000 0.024891 0.000000
# 6 0.000000 0.000000 0.000000 0.000000 0.000000 0.047064
#
#
# Mechanical properties :
#
#
# Convention : Reuss Voigt Hill
#
# Bulk Modulus (GPa) = 56.25828 71.08260 63.67044
# Shear Modulus (GPa) = 13.89447 29.09332 21.49389
#
# Velocity S-wave (km/s) = 2.56700 3.71451 3.19274
# Velocity P-wave (km/s) = 5.95539 7.21859 6.61720
#
# Compressibility (1/GPa) = 0.01777516
#
# Stress axis : x y z
#
# Youngs Moduli (GPa) = 15.50478 15.50478 118.52125
#
# Poissons Ratio (x) = 0.79123 0.52125
# Poissons Ratio (y) = 0.79123 0.52125
# Poissons Ratio (z) = 0.06819 0.06819
#
# Static dielectric constant tensor:
#      x y z
#    x 3.582180 0.000000 0.000000 
#    y 0.000000 3.582180 0.000000 
#    z 0.000000 0.000000 4.497800 
# 
# 
# High freq. dielectric constant tensor:
#      x y z
#    x 1.807230 0.000000 0.000000 
#    y 0.000000 1.807230 0.000000 
#    z 0.000000 0.000000 1.857650 
# 
# From -- ./inp_files/1269.got.cif
#   From: 2010.03.12/outbox.cif.g09.slc.cpg/sg76_cif.got.tgz:1269.got - 2010.04.16 16:34:25.
