data_PCOD8301670
_publ_section_title
;
Structure prediction by ZEFSAII (Michael W. Deem and Ramdas Pophale) SiO2 
 PCOD8301670
Probable space group: I M M A
;
_chemical_formula_sum "Si O2"
_cell_formula_units_Z 96
_cell_length_a 13.614278
_cell_length_b 14.742366
_cell_length_c 22.679033
_cell_angle_alpha 90.000000
_cell_angle_beta 90.000000
_cell_angle_gamma 90.000000
_cell_volume 4551.833172
_symmetry_space_group_name_H-M "I M M A"
_symmetry_group_IT_number 74
_symmetry_cell_setting 'orthorhombic'
loop_
_space_group_symop_operation_xyz
x,y,z
-x,1/2-y,z
x,-y,-z
-x,1/2+y,-z
-x,-y,-z
x,1/2+y,-z
-x,y,z
x,1/2-y,z
1/2+x,1/2+y,1/2+z
1/2-x,-y,1/2+z
1/2+x,1/2-y,1/2-z
1/2-x,y,1/2-z
1/2-x,1/2-y,1/2-z
1/2+x,y,1/2-z
1/2-x,1/2+y,1/2+z
1/2+x,-y,1/2+z
loop_
_atom_site_type_symbol
_atom_site_label
_atom_site_fract_x
_atom_site_fract_y
_atom_site_fract_z
Si Si1 0.887581 0.352341 0.369978
Si Si2 0.894716 0.147345 0.005574
Si Si3 0.770743 0.982739 0.318301
Si Si4 0.609087 0.148555 0.633503
Si Si5 0.685206 0.099597 0.008752
Si Si6 0.391264 0.350100 0.887505
O O1 0.867644 0.250000 0.346932
O O2 0.804250 0.419106 0.343315
O O3 0.877736 0.351306 0.441029
O O4 0.000000 0.380876 0.353631
O O5 0.883391 0.250000 0.028345
O O6 0.897626 0.144473 0.935922
O O7 0.000000 0.107570 0.029440
O O8 0.799903 0.093115 0.029174
O O9 0.750000 0.993772 0.250000
O O10 0.674214 0.936838 0.346094
O O11 0.859376 0.915432 0.334491
O O12 0.500000 0.136168 0.660610
O O13 0.649791 0.250000 0.652016
O O14 0.677805 0.149189 0.945539
O O15 0.641713 0.000000 0.000000
O O16 0.500000 0.378462 0.907951
O O17 0.388542 0.250000 0.860419
#
# Coordination Sequence:
#
# PCOD8301670 Si02
#       6
#    16  16  16  16  16  16
#     4  11  25  45  68  94 127 171 220 271 329 390
#     4   9  17  31  53  82 120 162 201 244 299 369
#     4  12  25  41  63  89 124 167 217 276 323 374
#     4   9  18  35  59  88 124 166 208 249 306 384
#     4  12  21  35  64  97 132 170 208 261 326 398
#     4  11  23  39  62  96 136 170 205 259 326 398
#
# _framework density 21.090403999999999
#
# number of rings (size 3 to 8) (size 9 to 14) (size 15 to 20)
#    0.000    1.333    3.333    4.000    0.000    5.333 
#    0.000    2.500    0.000    1.500    0.000    0.000 
#    0.000    0.000    0.000    0.000    0.000    0.000 
#
# Total GULP energy -594692.361244 kJ/mol
# GULP energy per Si atom -12389.424193 kJ/mol
# Density = 2.104240 g / cm^3
# Si number density = 21.090404 Si / 1000 Ang^3
#
#
#
# Elastic Constant Matrix: (Units=GPa)
#
#
# Indices 1 2 3 4 5 6 
#
# 1 130.1287 46.5659 15.7691 0.0000 0.0000 0.0000
# 2 46.5659 131.1971 32.1298 0.0000 0.0000 0.0000
# 3 15.7691 32.1298 71.6882 0.0000 0.0000 0.0000
# 4 0.0000 0.0000 0.0000 6.4117 0.0000 0.0000
# 5 0.0000 0.0000 0.0000 0.0000 9.9264 0.0000
# 6 0.0000 0.0000 0.0000 0.0000 0.0000 38.0307
#
#
#
# Elastic Compliance Matrix: (Units=1/GPa)
#
#
# Indices 1 2 3 4 5 6 
#
# 1 0.008826 -0.002985 -0.000604 0.000000 0.000000 0.000000
# 2 -0.002985 0.009571 -0.003633 0.000000 0.000000 0.000000
# 3 -0.000604 -0.003633 0.015710 0.000000 0.000000 0.000000
# 4 0.000000 0.000000 0.000000 0.155965 0.000000 0.000000
# 5 0.000000 0.000000 0.000000 0.000000 0.100741 0.000000
# 6 0.000000 0.000000 0.000000 0.000000 0.000000 0.026295
#
#
# Mechanical properties :
#
#
# Convention : Reuss Voigt Hill
#
# Bulk Modulus (GPa) = 50.85335 57.99373 54.42354
# Shear Modulus (GPa) = 14.78822 26.77705 20.78264
#
# Velocity S-wave (km/s) = 2.65086 3.56705 3.14253
# Velocity P-wave (km/s) = 5.79084 6.67252 6.24725
#
# Compressibility (1/GPa) = 0.01966439
#
# Stress axis : x y z
#
# Youngs Moduli (GPa) = 113.30247 104.47949 63.65200
#
# Poissons Ratio (x) = 0.31185 0.03843
# Poissons Ratio (y) = 0.33818 0.23126
# Poissons Ratio (z) = 0.06840 0.37959
#
# Static dielectric constant tensor:
#      x y z
#    x -2.375460 0.000000 0.000000 
#    y 0.000000 3.867770 0.000000 
#    z 0.000000 0.000000 3.330660 
# 
# 
# High freq. dielectric constant tensor:
#      x y z
#    x 1.846100 0.000000 0.000000 
#    y 0.000000 1.830610 0.000000 
#    z 0.000000 0.000000 1.769320 
# 
# From -- ./inp_files/51874.got.cif
#   From: 2010.03.12/outbox.cif.g09.slc.cpg/sg74_26_cif.got.tgz:51874.got - 2010.04.16 15:46:19.
