data_PCOD8301523
_publ_section_title
;
Structure prediction by ZEFSAII (Michael W. Deem and Ramdas Pophale) SiO2 
 PCOD8301523
Probable space group: I M M A
;
_chemical_formula_sum "Si O2"
_cell_formula_units_Z 96
_cell_length_a 9.383046
_cell_length_b 28.182112
_cell_length_c 26.406664
_cell_angle_alpha 90.000000
_cell_angle_beta 90.000000
_cell_angle_gamma 90.000000
_cell_volume 6982.821195
_symmetry_space_group_name_H-M "I M M A"
_symmetry_group_IT_number 74
_symmetry_cell_setting 'orthorhombic'
loop_
_space_group_symop_operation_xyz
x,y,z
-x,1/2-y,z
x,-y,-z
-x,1/2+y,-z
-x,-y,-z
x,1/2+y,-z
-x,y,z
x,1/2-y,z
1/2+x,1/2+y,1/2+z
1/2-x,-y,1/2+z
1/2+x,1/2-y,1/2-z
1/2-x,y,1/2-z
1/2-x,1/2-y,1/2-z
1/2+x,y,1/2-z
1/2-x,1/2+y,1/2+z
1/2+x,-y,1/2+z
loop_
_atom_site_type_symbol
_atom_site_label
_atom_site_fract_x
_atom_site_fract_y
_atom_site_fract_z
Si Si1 0.154433 0.910901 0.054311
Si Si2 0.500000 0.804096 0.169892
Si Si3 0.000000 0.805984 0.210344
Si Si4 0.162246 0.490410 0.111627
Si Si5 0.261060 0.138160 0.652362
Si Si6 0.328817 0.462163 0.802430
Si Si7 0.839394 0.550603 0.527252
O O1 0.173972 0.871135 0.097176
O O2 0.000000 0.902588 0.028700
O O3 0.155102 0.961607 0.080502
O O4 0.275337 0.909792 0.011031
O O5 0.500000 0.750000 0.155529
O O6 0.500000 0.812703 0.229818
O O7 0.367720 0.827199 0.142306
O O8 0.864783 0.833352 0.189160
O O9 0.000000 0.750000 0.195646
O O10 0.261910 0.498334 0.160490
O O11 0.239926 0.450766 0.077119
O O12 0.000000 0.474563 0.126120
O O13 0.208511 0.090205 0.678645
O O14 0.500000 0.468314 0.798162
O O15 0.250000 0.470986 0.750000
O O16 0.841518 0.500000 0.500000
O O17 0.000000 0.565753 0.541983
#
# Coordination Sequence:
#
# PCOD8301523 Si02
#       7
#    16   8   8  16  16  16  16
#     4   9  17  28  41  57  75  97 121 150 192 236
#     4  11  22  34  46  60  75  96 126 164 210 255
#     4  11  22  36  48  58  73  98 128 162 206 257
#     4   9  17  28  41  58  80 102 125 151 185 228
#     4  11  21  32  46  60  77  96 126 165 205 249
#     4  11  21  30  43  59  79 104 133 164 200 235
#     4   9  16  25  41  59  79  98 120 147 183 228
#
# _framework density 13.748025
#
# number of rings (size 3 to 8) (size 9 to 14) (size 15 to 20)
#    0.000    2.000    1.667    3.500    3.500    5.333 
#    0.000    0.000    0.000    0.000    0.000    0.000 
#    0.000    0.000    0.000    0.000    0.000    0.000 
#
# Total GULP energy -594925.857486 kJ/mol
# GULP energy per Si atom -12394.288698 kJ/mol
# Density = 1.371673 g / cm^3
# Si number density = 13.748025 Si / 1000 Ang^3
#
#
#
# Elastic Constant Matrix: (Units=GPa)
#
#
# Indices 1 2 3 4 5 6 
#
# 1 127.3740 17.1593 40.3495 0.0000 0.0000 0.0000
# 2 17.1593 23.0606 24.7809 0.0000 0.0000 0.0000
# 3 40.3495 24.7809 63.8734 0.0000 0.0000 0.0000
# 4 0.0000 0.0000 0.0000 21.3223 0.0000 0.0000
# 5 0.0000 0.0000 0.0000 0.0000 26.0644 0.0000
# 6 0.0000 0.0000 0.0000 0.0000 0.0000 15.9524
#
#
#
# Elastic Compliance Matrix: (Units=1/GPa)
#
#
# Indices 1 2 3 4 5 6 
#
# 1 0.009831 -0.001100 -0.005784 0.000000 0.000000 0.000000
# 2 -0.001100 0.074493 -0.028206 0.000000 0.000000 0.000000
# 3 -0.005784 -0.028206 0.030253 0.000000 0.000000 0.000000
# 4 0.000000 0.000000 0.000000 0.046899 0.000000 0.000000
# 5 0.000000 0.000000 0.000000 0.000000 0.038367 0.000000
# 6 0.000000 0.000000 0.000000 0.000000 0.000000 0.062686
#
#
# Mechanical properties :
#
#
# Convention : Reuss Voigt Hill
#
# Bulk Modulus (GPa) = 22.52399 42.09861 32.31130
# Shear Modulus (GPa) = 14.38817 21.46904 17.92861
#
# Velocity S-wave (km/s) = 3.23857 3.95601 3.61513
# Velocity P-wave (km/s) = 5.51393 7.18016 6.40149
#
# Compressibility (1/GPa) = 0.04439710
#
# Stress axis : x y z
#
# Youngs Moduli (GPa) = 101.71634 13.42408 33.05503
#
# Poissons Ratio (x) = 0.01477 0.19118
# Poissons Ratio (y) = 0.11192 0.93235
# Poissons Ratio (z) = 0.58829 0.37864
#
# Static dielectric constant tensor:
#      x y z
#    x 3.035530 0.000000 0.000000 
#    y 0.000000 2.408220 0.000000 
#    z 0.000000 0.000000 2.728250 
# 
# 
# High freq. dielectric constant tensor:
#      x y z
#    x 1.552600 0.000000 0.000000 
#    y 0.000000 1.462430 0.000000 
#    z 0.000000 0.000000 1.509520 
# 
# From -- ./inp_files/64707.got.cif
#   From: 2010.03.12/outbox.cif.g09.slc.cpg/sg74_33_cif.got.tgz:64707.got - 2010.04.16 15:46:19.
