data_PCOD8301908
_publ_section_title
;
Structure prediction by ZEFSAII (Michael W. Deem and Ramdas Pophale) SiO2 
 PCOD8301908
Probable space group: P 41
;
_chemical_formula_sum "Si O2"
_cell_formula_units_Z 20
_cell_length_a 11.677389
_cell_length_b 11.677389
_cell_length_c 7.218712
_cell_angle_alpha 90.000000
_cell_angle_beta 90.000000
_cell_angle_gamma 90.000000
_cell_volume 984.353775
_symmetry_space_group_name_H-M "P 41"
_symmetry_group_IT_number 76
_symmetry_cell_setting 'tetragonal'
loop_
_space_group_symop_operation_xyz
x,y,z
-y,x,1/4+z
-x,-y,1/2+z
y,-x,3/4+z
loop_
_atom_site_type_symbol
_atom_site_label
_atom_site_fract_x
_atom_site_fract_y
_atom_site_fract_z
Si Si1 0.917117 0.874124 0.107300
Si Si2 0.207428 0.674643 0.315785
Si Si3 0.042061 0.663169 0.988447
Si Si4 0.473211 0.118421 0.895609
Si Si5 0.641328 0.550041 0.189448
O O1 0.797290 0.815273 0.164472
O O2 0.999746 0.890992 0.281211
O O3 0.981200 0.786963 0.965745
O O4 0.158982 0.675343 0.106808
O O5 0.149474 0.579945 0.446792
O O6 0.343100 0.648878 0.296101
O O7 0.965494 0.578097 0.110447
O O8 0.061379 0.619639 0.780825
O O9 0.520213 0.230200 0.003146
O O10 0.564896 0.585736 0.361368
#
# Coordination Sequence:
#
# PCOD8301908 Si02
#       5
#     4   4   4   4   4
#     4  10  23  41  62  91 126 160 205 259 308 366
#     4  10  22  42  62  88 128 162 208 260 304 366
#     4  11  22  40  64  93 123 165 210 252 309 370
#     4  11  22  40  64  93 123 165 210 252 309 370
#     4  10  23  41  62  91 126 160 205 259 308 366
#
# _framework density 20.317898
#
# number of rings (size 3 to 8) (size 9 to 14) (size 15 to 20)
#    0.000    1.600    4.000    0.000    5.600    0.000 
#    0.000    8.000    0.000    0.000    0.000    0.000 
#    0.000    0.000    0.000    0.000    0.000    0.000 
#
# Total GULP energy -247938.542305 kJ/mol
# GULP energy per Si atom -12396.927115 kJ/mol
# Density = 2.027165 g / cm^3
# Si number density = 20.317898 Si / 1000 Ang^3
#
#
#
# Elastic Constant Matrix: (Units=GPa)
#
#
# Indices 1 2 3 4 5 6 
#
# 1 72.8059 4.5493 -1.2871 0.0000 0.0000 1.7834
# 2 4.5493 72.8059 -1.2871 0.0000 0.0000 -1.7834
# 3 -1.2871 -1.2871 32.0174 0.0000 0.0000 0.0000
# 4 0.0000 0.0000 0.0000 21.6057 0.0000 0.0000
# 5 0.0000 0.0000 0.0000 0.0000 21.6057 0.0000
# 6 1.7834 -1.7834 0.0000 0.0000 0.0000 26.7980
#
#
#
# Elastic Compliance Matrix: (Units=1/GPa)
#
#
# Indices 1 2 3 4 5 6 
#
# 1 0.013823 -0.000879 0.000520 0.000000 0.000000 -0.000978
# 2 -0.000879 0.013823 0.000520 0.000000 0.000000 0.000978
# 3 0.000520 0.000520 0.031275 0.000000 0.000000 0.000000
# 4 0.000000 0.000000 0.000000 0.046284 0.000000 0.000000
# 5 0.000000 0.000000 0.000000 0.000000 0.046284 0.000000
# 6 -0.000978 0.000978 0.000000 0.000000 0.000000 0.037446
#
#
# Mechanical properties :
#
#
# Convention : Reuss Voigt Hill
#
# Bulk Modulus (GPa) = 16.87884 20.17549 18.52717
# Shear Modulus (GPa) = 23.99692 25.71214 24.85453
#
# Velocity S-wave (km/s) = 3.44040 3.56123 3.50134
# Velocity P-wave (km/s) = 4.90991 5.18279 5.04820
#
# Compressibility (1/GPa) = 0.05924576
#
# Stress axis : x y z
#
# Youngs Moduli (GPa) = 72.34205 72.34205 31.97456
#
# Poissons Ratio (x) = 0.06355 -0.01664
# Poissons Ratio (y) = 0.06355 -0.01664
# Poissons Ratio (z) = -0.03765 -0.03765
#
# Static dielectric constant tensor:
#      x y z
#    x 3.985060 0.000000 0.000000 
#    y 0.000000 3.985060 0.000000 
#    z 0.000000 0.000000 3.060910 
# 
# 
# High freq. dielectric constant tensor:
#      x y z
#    x 1.813860 0.000000 0.000000 
#    y 0.000000 1.813860 0.000000 
#    z 0.000000 0.000000 1.748500 
# 
# From -- ./inp_files/101.got.cif
#   From: 2010.03.12/outbox.cif.g09.slc.cpg/sg76_cif.got.tgz:101.got - 2010.04.16 16:34:25.
