data_PCOD8301798
_publ_section_title
;
Structure prediction by ZEFSAII (Michael W. Deem and Ramdas Pophale) SiO2 
 PCOD8301798
Probable space group: I M M A
;
_chemical_formula_sum "Si O2"
_cell_formula_units_Z 96
_cell_length_a 9.191515
_cell_length_b 27.160035
_cell_length_c 31.613072
_cell_angle_alpha 90.000000
_cell_angle_beta 90.000000
_cell_angle_gamma 90.000000
_cell_volume 7891.946382
_symmetry_space_group_name_H-M "I M M A"
_symmetry_group_IT_number 74
_symmetry_cell_setting 'orthorhombic'
loop_
_space_group_symop_operation_xyz
x,y,z
-x,1/2-y,z
x,-y,-z
-x,1/2+y,-z
-x,-y,-z
x,1/2+y,-z
-x,y,z
x,1/2-y,z
1/2+x,1/2+y,1/2+z
1/2-x,-y,1/2+z
1/2+x,1/2-y,1/2-z
1/2-x,y,1/2-z
1/2-x,1/2-y,1/2-z
1/2+x,y,1/2-z
1/2-x,1/2+y,1/2+z
1/2+x,-y,1/2+z
loop_
_atom_site_type_symbol
_atom_site_label
_atom_site_fract_x
_atom_site_fract_y
_atom_site_fract_z
Si Si1 0.669194 0.306548 0.040905
Si Si2 0.335668 0.611481 0.497809
Si Si3 0.829322 0.306322 0.291744
Si Si4 0.664716 0.529729 0.043533
Si Si5 0.835580 0.052190 0.084687
Si Si6 0.330214 0.136097 0.125378
O O1 0.500000 0.313705 0.030548
O O2 0.716959 0.250000 0.038645
O O3 0.759785 0.336010 0.005619
O O4 0.705105 0.325998 0.087733
O O5 0.500000 0.619894 0.481836
O O6 0.247020 0.581662 0.462168
O O7 0.334123 0.580711 0.540684
O O8 0.783945 0.250000 0.300785
O O9 0.750000 0.326569 0.250000
O O10 0.778107 0.338777 0.331346
O O11 0.000000 0.310921 0.284448
O O12 0.500000 0.539799 0.058498
O O13 0.747722 0.498721 0.079641
O O14 0.664951 0.500000 0.000000
O O15 0.758420 0.085522 0.120171
O O16 0.000000 0.040381 0.098945
O O17 0.500000 0.122886 0.126004
#
# Coordination Sequence:
#
# PCOD8301798 Si02
#       6
#    16  16  16  16  16  16
#     4   9  16  25  36  48  62  82 108 135 162 194
#     4   9  16  24  33  46  64  83 102 126 156 188
#     4   9  17  28  40  52  65  82 105 133 165 201
#     4   9  15  23  35  48  62  81 103 124 148 183
#     4   9  16  24  34  49  66  81  98 123 156 191
#     4   9  16  26  38  50  64  82 104 130 162 200
#
# _framework density 12.164299
#
# number of rings (size 3 to 8) (size 9 to 14) (size 15 to 20)
#    0.000    3.000    0.000    2.000    0.000    9.000 
#    0.000    0.000    0.000    3.000    0.000    0.000 
#    0.000    0.000    0.000    0.000    0.000    0.000 
#
# Total GULP energy -595141.559254 kJ/mol
# GULP energy per Si atom -12398.782484 kJ/mol
# Density = 1.213661 g / cm^3
# Si number density = 12.164299 Si / 1000 Ang^3
#
#
#
# Elastic Constant Matrix: (Units=GPa)
#
#
# Indices 1 2 3 4 5 6 
#
# 1 83.8035 51.7900 34.1110 0.0000 0.0000 0.0000
# 2 51.7900 81.3917 45.4437 0.0000 0.0000 0.0000
# 3 34.1110 45.4437 43.5694 0.0000 0.0000 0.0000
# 4 0.0000 0.0000 0.0000 20.1105 0.0000 0.0000
# 5 0.0000 0.0000 0.0000 0.0000 15.1343 0.0000
# 6 0.0000 0.0000 0.0000 0.0000 0.0000 19.0878
#
#
#
# Elastic Compliance Matrix: (Units=1/GPa)
#
#
# Indices 1 2 3 4 5 6 
#
# 1 0.020257 -0.009661 -0.005783 0.000000 0.000000 0.000000
# 2 -0.009661 0.034025 -0.027925 0.000000 0.000000 0.000000
# 3 -0.005783 -0.027925 0.056606 0.000000 0.000000 0.000000
# 4 0.000000 0.000000 0.000000 0.049725 0.000000 0.000000
# 5 0.000000 0.000000 0.000000 0.000000 0.066075 0.000000
# 6 0.000000 0.000000 0.000000 0.000000 0.000000 0.052389
#
#
# Mechanical properties :
#
#
# Convention : Reuss Voigt Hill
#
# Bulk Modulus (GPa) = 41.40797 52.38378 46.89588
# Shear Modulus (GPa) = 13.37382 16.02787 14.70084
#
# Velocity S-wave (km/s) = 3.31936 3.63384 3.48015
# Velocity P-wave (km/s) = 6.98609 7.79509 7.40165
#
# Compressibility (1/GPa) = 0.02414994
#
# Stress axis : x y z
#
# Youngs Moduli (GPa) = 49.36617 29.39024 17.66600
#
# Poissons Ratio (x) = 0.28393 0.10216
# Poissons Ratio (y) = 0.47691 0.49333
# Poissons Ratio (z) = 0.28549 0.82073
#
# Static dielectric constant tensor:
#      x y z
#    x 2.637200 0.000000 0.000000 
#    y 0.000000 2.481110 0.000000 
#    z 0.000000 0.000000 2.200010 
# 
# 
# High freq. dielectric constant tensor:
#      x y z
#    x 1.474860 0.000000 0.000000 
#    y 0.000000 1.446880 0.000000 
#    z 0.000000 0.000000 1.406110 
# 
# From -- ./inp_files/57508.got.cif
#   From: 2010.03.12/outbox.cif.g09.slc.cpg/sg74_29_cif.got.tgz:57508.got - 2010.04.16 15:46:19.
