data_PCOD8301506
_publ_section_title
;
Structure prediction by ZEFSAII (Michael W. Deem and Ramdas Pophale) SiO2 
 PCOD8301506
Probable space group: I M M A
;
_chemical_formula_sum "Si O2"
_cell_formula_units_Z 84
_cell_length_a 24.734998
_cell_length_b 13.807953
_cell_length_c 12.993052
_cell_angle_alpha 90.000000
_cell_angle_beta 90.000000
_cell_angle_gamma 90.000000
_cell_volume 4437.642950
_symmetry_space_group_name_H-M "I M M A"
_symmetry_group_IT_number 74
_symmetry_cell_setting 'orthorhombic'
loop_
_space_group_symop_operation_xyz
x,y,z
-x,1/2-y,z
x,-y,-z
-x,1/2+y,-z
-x,-y,-z
x,1/2+y,-z
-x,y,z
x,1/2-y,z
1/2+x,1/2+y,1/2+z
1/2-x,-y,1/2+z
1/2+x,1/2-y,1/2-z
1/2-x,y,1/2-z
1/2-x,1/2-y,1/2-z
1/2+x,y,1/2-z
1/2-x,1/2+y,1/2+z
1/2+x,-y,1/2+z
loop_
_atom_site_type_symbol
_atom_site_label
_atom_site_fract_x
_atom_site_fract_y
_atom_site_fract_z
Si Si1 0.674340 0.455280 0.611074
Si Si2 0.500000 0.040089 0.114577
Si Si3 0.218673 0.542607 0.612003
Si Si4 0.500000 0.250000 0.039045
Si Si5 0.389667 0.953408 0.197694
Si Si6 0.396113 0.250000 0.908608
Si Si7 0.776699 0.750000 0.137321
Si Si8 0.800146 0.250000 0.452458
O O1 0.660079 0.500000 0.500000
O O2 0.725606 0.508858 0.669599
O O3 0.620593 0.466962 0.680625
O O4 0.686794 0.341599 0.609197
O O5 0.500000 0.156545 0.113161
O O6 0.446247 0.003807 0.171590
O O7 0.500000 0.000000 0.000000
O O8 0.232107 0.500000 0.500000
O O9 0.160913 0.502224 0.641998
O O10 0.216460 0.658299 0.615503
O O11 0.454451 0.250000 0.954547
O O12 0.387722 0.842091 0.164327
O O13 0.362536 0.250000 0.015388
O O14 0.750000 0.750000 0.250000
O O15 0.725516 0.750000 0.064559
#
# Coordination Sequence:
#
# PCOD8301506 Si02
#       8
#    16   8  16   4  16   8   8   8
#     4  11  23  39  59  87 125 164 210 257 305 363
#     4  12  24  44  63  92 129 153 198 253 319 377
#     4  11  20  35  55  86 126 159 196 249 314 370
#     4  12  24  40  64  94 124 156 188 248 310 372
#     4  12  23  39  61  91 119 166 202 254 310 367
#     4  12  20  34  62  91 118 150 206 255 302 359
#     4  12  20  36  60  90 121 163 215 260 302 361
#     4  12  20  32  55  88 122 159 200 247 306 367
#
# _framework density 18.928968000000001
#
# number of rings (size 3 to 8) (size 9 to 14) (size 15 to 20)
#    0.000    0.381    7.619    5.143    0.000    0.000 
#    0.000    5.238    0.000    0.000    0.000    0.000 
#    0.000    0.000    0.000    0.000    0.000    0.000 
#
# Total GULP energy -520581.535866 kJ/mol
# GULP energy per Si atom -12394.798473 kJ/mol
# Density = 1.888589 g / cm^3
# Si number density = 18.928968 Si / 1000 Ang^3
#
#
#
# Elastic Constant Matrix: (Units=GPa)
#
#
# Indices 1 2 3 4 5 6 
#
# 1 136.0090 58.3278 47.2025 0.0000 0.0000 0.0000
# 2 58.3278 187.0173 53.5889 0.0000 0.0000 0.0000
# 3 47.2025 53.5889 72.0606 0.0000 0.0000 0.0000
# 4 0.0000 0.0000 0.0000 -3.7657 0.0000 0.0000
# 5 0.0000 0.0000 0.0000 0.0000 23.9325 0.0000
# 6 0.0000 0.0000 0.0000 0.0000 0.0000 20.0542
#
#
#
# Elastic Compliance Matrix: (Units=1/GPa)
#
#
# Indices 1 2 3 4 5 6 
#
# 1 0.009860 -0.001556 -0.005301 0.000000 0.000000 0.000000
# 2 -0.001556 0.007041 -0.004217 0.000000 0.000000 0.000000
# 3 -0.005301 -0.004217 0.020486 0.000000 0.000000 0.000000
# 4 0.000000 0.000000 0.000000 -0.265552 0.000000 0.000000
# 5 0.000000 0.000000 0.000000 0.000000 0.041784 0.000000
# 6 0.000000 0.000000 0.000000 0.000000 0.000000 0.049865
#
#
# Mechanical properties :
#
#
# Convention : Reuss Voigt Hill
#
# Bulk Modulus (GPa) = 65.62571 79.25837 72.44204
# Shear Modulus (GPa) = -45.74992 23.77537 -10.98727
#
# Velocity S-wave (km/s) = -4.92156 3.54790 -2.41186
# Velocity P-wave (km/s) = 1.56496 7.66458 5.53150
#
# Compressibility (1/GPa) = 0.01523793
#
# Stress axis : x y z
#
# Youngs Moduli (GPa) = 101.42423 142.03237 48.81495
#
# Poissons Ratio (x) = 0.22100 0.25878
# Poissons Ratio (y) = 0.15782 0.20584
# Poissons Ratio (z) = 0.53768 0.59890
#
# Static dielectric constant tensor:
#      x y z
#    x 3.538900 0.000000 0.000000 
#    y 0.000000 4.189510 0.000000 
#    z 0.000000 0.000000 3.315020 
# 
# 
# High freq. dielectric constant tensor:
#      x y z
#    x 1.733310 0.000000 0.000000 
#    y 0.000000 1.752690 0.000000 
#    z 0.000000 0.000000 1.723090 
# 
# From -- ./inp_files/25061.got.cif
#   From: 2010.03.12/outbox.cif.g09.slc.cpg/sg74_13_cif.got.tgz:25061.got - 2010.04.16 15:46:19.
