data_PCOD8301745
_publ_section_title
;
Structure prediction by ZEFSAII (Michael W. Deem and Ramdas Pophale) SiO2 
 PCOD8301745
Probable space group: I M M A
;
_chemical_formula_sum "Si O2"
_cell_formula_units_Z 72
_cell_length_a 16.433424
_cell_length_b 8.846323
_cell_length_c 27.595073
_cell_angle_alpha 90.000000
_cell_angle_beta 90.000000
_cell_angle_gamma 90.000000
_cell_volume 4011.644132
_symmetry_space_group_name_H-M "I M M A"
_symmetry_group_IT_number 74
_symmetry_cell_setting 'orthorhombic'
loop_
_space_group_symop_operation_xyz
x,y,z
-x,1/2-y,z
x,-y,-z
-x,1/2+y,-z
-x,-y,-z
x,1/2+y,-z
-x,y,z
x,1/2-y,z
1/2+x,1/2+y,1/2+z
1/2-x,-y,1/2+z
1/2+x,1/2-y,1/2-z
1/2-x,y,1/2-z
1/2-x,1/2-y,1/2-z
1/2+x,y,1/2-z
1/2-x,1/2+y,1/2+z
1/2+x,-y,1/2+z
loop_
_atom_site_type_symbol
_atom_site_label
_atom_site_fract_x
_atom_site_fract_y
_atom_site_fract_z
Si Si1 0.345461 0.928261 0.395252
Si Si2 0.816656 0.426349 0.550155
Si Si3 0.411031 0.070079 0.858720
Si Si4 0.000000 0.070349 0.054169
Si Si5 0.256258 0.930072 0.195947
O O1 0.365209 0.750000 0.396939
O O2 0.272296 0.972859 0.430955
O O3 0.317851 0.977006 0.340347
O O4 0.422752 0.020513 0.413951
O O5 0.837964 0.500000 0.500000
O O6 0.819366 0.250000 0.543066
O O7 0.886111 0.480225 0.587322
O O8 0.500000 0.002995 0.845887
O O9 0.412337 0.250000 0.855343
O O10 0.342830 0.005846 0.822473
O O11 0.000000 0.250000 0.048027
O O12 0.000000 0.000000 0.000000
O O13 0.258447 0.750000 0.196717
O O14 0.250000 0.997614 0.250000
#
# Coordination Sequence:
#
# PCOD8301745 Si02
#       5
#    16  16  16   8  16
#     4   9  18  33  50  71 102 132 162 204 252 298
#     4   9  17  28  44  65  91 125 158 191 231 281
#     4   8  14  25  40  61  92 124 152 187 234 280
#     4  12  24  36  52  74 102 134 172 214 259 312
#     4   8  14  27  47  71 100 129 161 201 244 292
#
# _framework density 17.947752999999999
#
# number of rings (size 3 to 8) (size 9 to 14) (size 15 to 20)
#    0.000    3.111    0.000    4.333    0.000    3.111 
#    2.000    0.000    0.000    0.667    0.000    0.000 
#    0.000    0.000    0.000    0.000    0.000    0.000 
#
# Total GULP energy -446020.770955 kJ/mol
# GULP energy per Si atom -12389.465860 kJ/mol
# Density = 1.790690 g / cm^3
# Si number density = 17.947753 Si / 1000 Ang^3
#
#
#
# Elastic Constant Matrix: (Units=GPa)
#
#
# Indices 1 2 3 4 5 6 
#
# 1 144.8716 33.1677 76.5885 0.0000 0.0000 0.0000
# 2 33.1677 28.5117 21.3792 0.0000 0.0000 0.0000
# 3 76.5885 21.3792 161.8671 0.0000 0.0000 0.0000
# 4 0.0000 0.0000 0.0000 19.2942 0.0000 0.0000
# 5 0.0000 0.0000 0.0000 0.0000 8.9499 0.0000
# 6 0.0000 0.0000 0.0000 0.0000 0.0000 13.7050
#
#
#
# Elastic Compliance Matrix: (Units=1/GPa)
#
#
# Indices 1 2 3 4 5 6 
#
# 1 0.011371 -0.010204 -0.004032 0.000000 0.000000 0.000000
# 2 -0.010204 0.048085 -0.001523 0.000000 0.000000 0.000000
# 3 -0.004032 -0.001523 0.008287 0.000000 0.000000 0.000000
# 4 0.000000 0.000000 0.000000 0.051829 0.000000 0.000000
# 5 0.000000 0.000000 0.000000 0.000000 0.111733 0.000000
# 6 0.000000 0.000000 0.000000 0.000000 0.000000 0.072966
#
#
# Mechanical properties :
#
#
# Convention : Reuss Voigt Hill
#
# Bulk Modulus (GPa) = 27.60554 66.39125 46.99839
# Shear Modulus (GPa) = 14.37342 21.99748 18.18545
#
# Velocity S-wave (km/s) = 2.83300 3.50471 3.18660
# Velocity P-wave (km/s) = 5.11034 7.31089 6.30732
#
# Compressibility (1/GPa) = 0.03622462
#
# Stress axis : x y z
#
# Youngs Moduli (GPa) = 87.94669 20.79629 120.67088
#
# Poissons Ratio (x) = 0.21220 0.48659
# Poissons Ratio (y) = 0.89739 0.18379
# Poissons Ratio (z) = 0.35463 0.03167
#
# Static dielectric constant tensor:
#      x y z
#    x 3.573390 0.000000 0.000000 
#    y 0.000000 2.822460 0.000000 
#    z 0.000000 0.000000 3.387740 
# 
# 
# High freq. dielectric constant tensor:
#      x y z
#    x 1.700190 0.000000 0.000000 
#    y 0.000000 1.641950 0.000000 
#    z 0.000000 0.000000 1.700250 
# 
# From -- ./inp_files/69971.got.cif
#   From: 2010.03.12/outbox.cif.g09.slc.cpg/sg74_35_cif.got.tgz:69971.got - 2010.04.16 15:46:19.
