data_PCOD8301083
_publ_section_title
;
Structure prediction by ZEFSAII (Michael W. Deem and Ramdas Pophale) SiO2 
 PCOD8301083
Probable space group: I M M A
;
_chemical_formula_sum "Si O2"
_cell_formula_units_Z 112
_cell_length_a 24.527423
_cell_length_b 15.065688
_cell_length_c 13.919381
_cell_angle_alpha 90.000000
_cell_angle_beta 90.000000
_cell_angle_gamma 90.000000
_cell_volume 5143.524498
_symmetry_space_group_name_H-M "I M M A"
_symmetry_group_IT_number 74
_symmetry_cell_setting 'orthorhombic'
loop_
_space_group_symop_operation_xyz
x,y,z
-x,1/2-y,z
x,-y,-z
-x,1/2+y,-z
-x,-y,-z
x,1/2+y,-z
-x,y,z
x,1/2-y,z
1/2+x,1/2+y,1/2+z
1/2-x,-y,1/2+z
1/2+x,1/2-y,1/2-z
1/2-x,y,1/2-z
1/2-x,1/2-y,1/2-z
1/2+x,y,1/2-z
1/2-x,1/2+y,1/2+z
1/2+x,-y,1/2+z
loop_
_atom_site_type_symbol
_atom_site_label
_atom_site_fract_x
_atom_site_fract_y
_atom_site_fract_z
Si Si1 0.870162 0.406087 0.457953
Si Si2 0.839677 0.346709 0.950874
Si Si3 0.701554 0.483844 0.696921
Si Si4 0.246628 0.652819 0.596946
Si Si5 0.060954 0.847250 0.367866
Si Si6 0.060324 0.085695 0.065866
Si Si7 0.093060 0.478464 0.274231
O O1 0.850783 0.500000 0.500000
O O2 0.817048 0.352551 0.426142
O O3 0.899332 0.352100 0.541703
O O4 0.914712 0.419328 0.370805
O O5 0.847304 0.250000 0.900988
O O6 0.836388 0.427181 0.875324
O O7 0.780935 0.350088 0.999349
O O8 0.889457 0.355431 0.027338
O O9 0.750000 0.427584 0.750000
O O10 0.731508 0.570961 0.657948
O O11 0.658707 0.518509 0.773852
O O12 0.256702 0.750000 0.646365
O O13 0.069215 0.750000 0.319430
O O14 0.000000 0.858093 0.407674
O O15 0.070073 0.921985 0.286552
O O16 0.068116 0.064992 0.178861
O O17 0.000000 0.131180 0.056032
O O18 0.060690 0.000000 0.000000
#
# Coordination Sequence:
#
# PCOD8301083 Si02
#       7
#    16  16  16  16  16  16  16
#     4  10  21  38  64  95 132 176 219 273 335 407
#     4  11  24  42  65  91 130 176 219 274 336 396
#     4  12  23  41  64  93 134 173 217 277 329 396
#     4  11  22  38  63  92 125 170 216 265 335 404
#     4  10  23  43  65  95 134 173 223 284 342 405
#     4  11  22  41  66  91 126 174 224 273 328 393
#     4  11  22  39  66  95 127 176 223 276 333 401
#
# _framework density 21.774953
#
# number of rings (size 3 to 8) (size 9 to 14) (size 15 to 20)
#    0.000    1.143    4.286    2.143    2.000    4.571 
#    0.000    1.429    0.000    0.000    0.000    0.000 
#    0.000    0.000    0.000    0.000    0.000    0.000 
#
# Total GULP energy -693812.512976 kJ/mol
# GULP energy per Si atom -12389.509160 kJ/mol
# Density = 2.172539 g / cm^3
# Si number density = 21.774953 Si / 1000 Ang^3
#
#
#
# Elastic Constant Matrix: (Units=GPa)
#
#
# Indices 1 2 3 4 5 6 
#
# 1 119.4283 37.7469 19.9684 0.0000 0.0000 0.0000
# 2 37.7469 107.3667 26.7482 0.0000 0.0000 0.0000
# 3 19.9684 26.7482 82.3871 0.0000 0.0000 0.0000
# 4 0.0000 0.0000 0.0000 -38.7560 0.0000 0.0000
# 5 0.0000 0.0000 0.0000 0.0000 23.3882 0.0000
# 6 0.0000 0.0000 0.0000 0.0000 0.0000 -3.1720
#
#
#
# Elastic Compliance Matrix: (Units=1/GPa)
#
#
# Indices 1 2 3 4 5 6 
#
# 1 0.009553 -0.003026 -0.001333 0.000000 0.000000 0.000000
# 2 -0.003026 0.011092 -0.002868 0.000000 0.000000 0.000000
# 3 -0.001333 -0.002868 0.013392 0.000000 0.000000 0.000000
# 4 0.000000 0.000000 0.000000 -0.025802 0.000000 0.000000
# 5 0.000000 0.000000 0.000000 0.000000 0.042757 0.000000
# 6 0.000000 0.000000 0.000000 0.000000 0.000000 -0.315262
#
#
# Mechanical properties :
#
#
# Convention : Reuss Voigt Hill
#
# Bulk Modulus (GPa) = 51.06458 53.12321 52.09390
# Shear Modulus (GPa) = -20.55166 11.27329 -4.63918
#
# Velocity S-wave (km/s) = -3.07550 2.27781 -1.46121
# Velocity P-wave (km/s) = 3.30006 5.60066 4.59661
#
# Compressibility (1/GPa) = 0.01958305
#
# Stress axis : x y z
#
# Youngs Moduli (GPa) = 104.68373 90.15267 74.67199
#
# Poissons Ratio (x) = 0.27284 0.09952
# Poissons Ratio (y) = 0.31681 0.21414
# Poissons Ratio (z) = 0.13951 0.25854
#
# Static dielectric constant tensor:
#      x y z
#    x 4.334990 0.000000 0.000000 
#    y 0.000000 3.953550 0.000000 
#    z 0.000000 0.000000 3.863000 
# 
# 
# High freq. dielectric constant tensor:
#      x y z
#    x 1.870680 0.000000 0.000000 
#    y 0.000000 1.843060 0.000000 
#    z 0.000000 0.000000 1.850030 
# 
# From -- ./inp_files/36499.got.cif
#   From: 2010.03.12/outbox.cif.g09.slc.cpg/sg74_19_cif.got.tgz:36499.got - 2010.04.16 15:46:19.
