data_PCOD8301344
_publ_section_title
;
Structure prediction by ZEFSAII (Michael W. Deem and Ramdas Pophale) SiO2 
 PCOD8301344
Probable space group: I M M A
;
_chemical_formula_sum "Si O2"
_cell_formula_units_Z 52
_cell_length_a 15.768422
_cell_length_b 15.365162
_cell_length_c 9.305988
_cell_angle_alpha 90.000000
_cell_angle_beta 90.000000
_cell_angle_gamma 90.000000
_cell_volume 2254.695333
_symmetry_space_group_name_H-M "I M M A"
_symmetry_group_IT_number 74
_symmetry_cell_setting 'orthorhombic'
loop_
_space_group_symop_operation_xyz
x,y,z
-x,1/2-y,z
x,-y,-z
-x,1/2+y,-z
-x,-y,-z
x,1/2+y,-z
-x,y,z
x,1/2-y,z
1/2+x,1/2+y,1/2+z
1/2-x,-y,1/2+z
1/2+x,1/2-y,1/2-z
1/2-x,y,1/2-z
1/2-x,1/2-y,1/2-z
1/2+x,y,1/2-z
1/2-x,1/2+y,1/2+z
1/2+x,-y,1/2+z
loop_
_atom_site_type_symbol
_atom_site_label
_atom_site_fract_x
_atom_site_fract_y
_atom_site_fract_z
Si Si1 0.278077 0.418289 0.410306
Si Si2 0.171310 0.647921 0.349869
Si Si3 0.000000 0.250000 0.387437
Si Si4 0.000000 0.913624 0.407492
Si Si5 0.843162 0.750000 0.819854
O O1 0.315282 0.500000 0.500000
O O2 0.250000 0.446731 0.250000
O O3 0.193767 0.381385 0.488184
O O4 0.347758 0.339592 0.412918
O O5 0.152965 0.750000 0.341216
O O6 0.250000 0.620323 0.250000
O O7 0.085031 0.595242 0.308765
O O8 0.000000 0.165535 0.483116
O O9 0.916899 0.250000 0.292689
O O10 0.000000 0.000000 0.500000
O O11 0.750000 0.750000 0.750000
#
# Coordination Sequence:
#
# PCOD8301344 Si02
#       5
#    16  16   4   8   8
#     4  11  22  40  68 104 140 188 244 297 365 441
#     4  11  23  42  70 104 147 195 245 308 376 442
#     4  12  24  44  72 104 138 198 258 294 362 470
#     4  12  24  42  71 108 145 196 257 311 363 450
#     4  10  22  42  68  95 138 187 235 297 363 433
#
# _framework density 23.062981000000001
#
# number of rings (size 3 to 8) (size 9 to 14) (size 15 to 20)
#    0.000    0.923    3.077    5.538    0.000    2.462 
#    0.000    2.308    0.000    0.000    0.000    7.538 
#    0.000    0.000    0.000    0.000    0.000    0.000 
#
# Total GULP energy -322217.342902 kJ/mol
# GULP energy per Si atom -12392.974727 kJ/mol
# Density = 2.301049 g / cm^3
# Si number density = 23.062981 Si / 1000 Ang^3
#
#
#
# Elastic Constant Matrix: (Units=GPa)
#
#
# Indices 1 2 3 4 5 6 
#
# 1 178.1388 37.5446 50.1329 0.0000 0.0000 0.0000
# 2 37.5446 185.6787 44.1768 0.0000 0.0000 0.0000
# 3 50.1329 44.1768 106.5428 0.0000 0.0000 0.0000
# 4 0.0000 0.0000 0.0000 37.1793 0.0000 0.0000
# 5 0.0000 0.0000 0.0000 0.0000 38.7412 0.0000
# 6 0.0000 0.0000 0.0000 0.0000 0.0000 11.8488
#
#
#
# Elastic Compliance Matrix: (Units=1/GPa)
#
#
# Indices 1 2 3 4 5 6 
#
# 1 0.006541 -0.000655 -0.002806 0.000000 0.000000 0.000000
# 2 -0.000655 0.006041 -0.002197 0.000000 0.000000 0.000000
# 3 -0.002806 -0.002197 0.011617 0.000000 0.000000 0.000000
# 4 0.000000 0.000000 0.000000 0.026897 0.000000 0.000000
# 5 0.000000 0.000000 0.000000 0.000000 0.025812 0.000000
# 6 0.000000 0.000000 0.000000 0.000000 0.000000 0.084397
#
#
# Mechanical properties :
#
#
# Convention : Reuss Voigt Hill
#
# Bulk Modulus (GPa) = 77.61885 81.56322 79.59103
# Shear Modulus (GPa) = 28.26209 40.12091 34.19150
#
# Velocity S-wave (km/s) = 3.50441 4.17540 3.85454
# Velocity P-wave (km/s) = 7.07833 7.66078 7.37531
#
# Compressibility (1/GPa) = 0.01288347
#
# Stress axis : x y z
#
# Youngs Moduli (GPa) = 152.87119 165.54427 86.07914
#
# Poissons Ratio (x) = 0.10843 0.24158
# Poissons Ratio (y) = 0.10013 0.18907
# Poissons Ratio (z) = 0.42903 0.36362
#
# Static dielectric constant tensor:
#      x y z
#    x 4.597960 0.000000 0.000000 
#    y 0.000000 4.980660 0.000000 
#    z 0.000000 0.000000 4.142210 
# 
# 
# High freq. dielectric constant tensor:
#      x y z
#    x 1.888590 0.000000 0.000000 
#    y 0.000000 1.946530 0.000000 
#    z 0.000000 0.000000 1.891120 
# 
# From -- ./inp_files/9944.got.cif
#   From: 2010.03.12/outbox.cif.g09.slc.cpg/sg74_5_cif.got.tgz:9944.got - 2010.04.16 15:46:19.
