data_PCOD8301264
_publ_section_title
;
Structure prediction by ZEFSAII (Michael W. Deem and Ramdas Pophale) SiO2 
 PCOD8301264
Probable space group: I M M A
;
_chemical_formula_sum "Si O2"
_cell_formula_units_Z 80
_cell_length_a 11.765936
_cell_length_b 13.814952
_cell_length_c 27.014119
_cell_angle_alpha 90.000000
_cell_angle_beta 90.000000
_cell_angle_gamma 90.000000
_cell_volume 4391.032694
_symmetry_space_group_name_H-M "I M M A"
_symmetry_group_IT_number 74
_symmetry_cell_setting 'orthorhombic'
loop_
_space_group_symop_operation_xyz
x,y,z
-x,1/2-y,z
x,-y,-z
-x,1/2+y,-z
-x,-y,-z
x,1/2+y,-z
-x,y,z
x,1/2-y,z
1/2+x,1/2+y,1/2+z
1/2-x,-y,1/2+z
1/2+x,1/2-y,1/2-z
1/2-x,y,1/2-z
1/2-x,1/2-y,1/2-z
1/2+x,y,1/2-z
1/2-x,1/2+y,1/2+z
1/2+x,-y,1/2+z
loop_
_atom_site_type_symbol
_atom_site_label
_atom_site_fract_x
_atom_site_fract_y
_atom_site_fract_z
Si Si1 0.870684 0.639607 0.474165
Si Si2 0.728485 0.363074 0.428676
Si Si3 0.500000 0.362235 0.639936
Si Si4 0.735386 0.860879 0.307602
Si Si5 0.132545 0.987301 0.380409
Si Si6 0.000000 0.976317 0.942260
O O1 0.857941 0.750000 0.456915
O O2 0.788955 0.615192 0.519273
O O3 0.832367 0.574734 0.428452
O O4 0.000000 0.617045 0.490724
O O5 0.717493 0.250000 0.417832
O O6 0.804254 0.409664 0.384915
O O7 0.606450 0.411308 0.428152
O O8 0.500000 0.250000 0.623334
O O9 0.390955 0.386810 0.673636
O O10 0.500000 0.424957 0.589684
O O11 0.764993 0.750000 0.320329
O O12 0.750000 0.881018 0.250000
O O13 0.827618 0.929744 0.332544
O O14 0.000000 0.006239 0.376178
O O15 0.000000 0.000000 0.000000
#
# Coordination Sequence:
#
# PCOD8301264 Si02
#       6
#    16  16   8  16  16   8
#     4   9  18  33  53  79 112 147 185 232 287 345
#     4  11  23  37  54  79 113 156 201 241 282 334
#     4  10  22  41  64  89 122 158 189 236 298 360
#     4  10  22  39  61  89 119 149 185 234 297 364
#     4  11  21  35  57  84 112 148 189 240 293 346
#     4  12  23  39  58  85 121 162 203 240 284 350
#
# _framework density 18.218948999999999
#
# number of rings (size 3 to 8) (size 9 to 14) (size 15 to 20)
#    0.000    1.600    2.000    3.300    1.400    4.800 
#    0.000    0.000    0.000    0.600    0.000    0.000 
#    0.000    0.000    0.000    0.000    0.000    0.000 
#
# Total GULP energy -496145.614367 kJ/mol
# GULP energy per Si atom -12403.640359 kJ/mol
# Density = 1.817748 g / cm^3
# Si number density = 18.218949 Si / 1000 Ang^3
#
#
#
# Elastic Constant Matrix: (Units=GPa)
#
#
# Indices 1 2 3 4 5 6 
#
# 1 122.0271 59.8310 53.6980 0.0000 0.0000 0.0000
# 2 59.8310 111.4199 64.4595 0.0000 0.0000 0.0000
# 3 53.6980 64.4595 96.1827 0.0000 0.0000 0.0000
# 4 0.0000 0.0000 0.0000 29.4602 0.0000 0.0000
# 5 0.0000 0.0000 0.0000 0.0000 26.3008 0.0000
# 6 0.0000 0.0000 0.0000 0.0000 0.0000 20.8498
#
#
#
# Elastic Compliance Matrix: (Units=1/GPa)
#
#
# Indices 1 2 3 4 5 6 
#
# 1 0.011945 -0.004175 -0.003871 0.000000 0.000000 0.000000
# 2 -0.004175 0.016118 -0.008471 0.000000 0.000000 0.000000
# 3 -0.003871 -0.008471 0.018235 0.000000 0.000000 0.000000
# 4 0.000000 0.000000 0.000000 0.033944 0.000000 0.000000
# 5 0.000000 0.000000 0.000000 0.000000 0.038022 0.000000
# 6 0.000000 0.000000 0.000000 0.000000 0.000000 0.047962
#
#
# Mechanical properties :
#
#
# Convention : Reuss Voigt Hill
#
# Bulk Modulus (GPa) = 75.39017 76.17853 75.78435
# Shear Modulus (GPa) = 24.54823 25.43157 24.98990
#
# Velocity S-wave (km/s) = 3.67468 3.74021 3.70759
# Velocity P-wave (km/s) = 7.71196 7.78176 7.74694
#
# Compressibility (1/GPa) = 0.01326433
#
# Stress axis : x y z
#
# Youngs Moduli (GPa) = 83.71430 62.04409 54.83985
#
# Poissons Ratio (x) = 0.25904 0.21228
# Poissons Ratio (y) = 0.34951 0.46453
# Poissons Ratio (z) = 0.32406 0.52556
#
# Static dielectric constant tensor:
#      x y z
#    x 3.517470 0.000000 0.000000 
#    y 0.000000 3.515410 0.000000 
#    z 0.000000 0.000000 3.186860 
# 
# 
# High freq. dielectric constant tensor:
#      x y z
#    x 1.724090 0.000000 0.000000 
#    y 0.000000 1.709720 0.000000 
#    z 0.000000 0.000000 1.681790 
# 
# From -- ./inp_files/58568.got.cif
#   From: 2010.03.12/outbox.cif.g09.slc.cpg/sg74_30_cif.got.tgz:58568.got - 2010.04.16 15:46:19.
