data_PCOD8301121
_publ_section_title
;
Structure prediction by ZEFSAII (Michael W. Deem and Ramdas Pophale) SiO2 
 PCOD8301121
Probable space group: I M M A
;
_chemical_formula_sum "Si O2"
_cell_formula_units_Z 64
_cell_length_a 13.896163
_cell_length_b 8.751146
_cell_length_c 23.906986
_cell_angle_alpha 90.000000
_cell_angle_beta 90.000000
_cell_angle_gamma 90.000000
_cell_volume 2907.265244
_symmetry_space_group_name_H-M "I M M A"
_symmetry_group_IT_number 74
_symmetry_cell_setting 'orthorhombic'
loop_
_space_group_symop_operation_xyz
x,y,z
-x,1/2-y,z
x,-y,-z
-x,1/2+y,-z
-x,-y,-z
x,1/2+y,-z
-x,y,z
x,1/2-y,z
1/2+x,1/2+y,1/2+z
1/2-x,-y,1/2+z
1/2+x,1/2-y,1/2-z
1/2-x,y,1/2-z
1/2-x,1/2-y,1/2-z
1/2+x,y,1/2-z
1/2-x,1/2+y,1/2+z
1/2+x,-y,1/2+z
loop_
_atom_site_type_symbol
_atom_site_label
_atom_site_fract_x
_atom_site_fract_y
_atom_site_fract_z
Si Si1 0.215600 0.069725 0.442393
Si Si2 0.885648 0.422410 0.226186
Si Si3 0.385610 0.076715 0.838422
Si Si4 0.890346 0.929839 0.111736
O O1 0.212330 0.250000 0.446169
O O2 0.175340 0.000000 0.500000
O O3 0.147915 0.014240 0.392571
O O4 0.325293 0.013529 0.434118
O O5 0.846529 0.250000 0.219729
O O6 0.842537 0.496132 0.282766
O O7 0.852131 0.521577 0.172998
O O8 0.000000 0.423961 0.229874
O O9 0.500000 0.073888 0.836437
O O10 0.346761 0.250000 0.841192
O O11 0.879446 0.750000 0.105178
O O12 0.000000 0.983440 0.102400
#
# Coordination Sequence:
#
# PCOD8301121 Si02
#       4
#    16  16  16  16
#     4  12  26  43  62  85 116 154 200 248 292 346
#     4   9  17  32  57  90 124 155 191 236 289 350
#     4  10  21  39  63  90 121 156 194 240 294 349
#     4  10  21  39  63  90 121 156 194 240 294 349
#
# _framework density 22.013814
#
# number of rings (size 3 to 8) (size 9 to 14) (size 15 to 20)
#    0.000    1.750    0.000    4.500    0.000    8.000 
#    0.000    5.000    0.000    0.000    0.000    0.000 
#    0.000    0.000    0.000    0.000    0.000    0.000 
#
# Total GULP energy -396962.305109 kJ/mol
# GULP energy per Si atom -12405.072035 kJ/mol
# Density = 2.196371 g / cm^3
# Si number density = 22.013814 Si / 1000 Ang^3
#
#
#
# Elastic Constant Matrix: (Units=GPa)
#
#
# Indices 1 2 3 4 5 6 
#
# 1 7.3892 -0.1806 -9.4089 0.0000 0.0000 0.0000
# 2 -0.1806 170.0362 45.1802 0.0000 0.0000 0.0000
# 3 -9.4089 45.1802 110.4420 0.0000 0.0000 0.0000
# 4 0.0000 0.0000 0.0000 45.3444 0.0000 0.0000
# 5 0.0000 0.0000 0.0000 0.0000 25.5664 0.0000
# 6 0.0000 0.0000 0.0000 0.0000 0.0000 30.2968
#
#
#
# Elastic Compliance Matrix: (Units=1/GPa)
#
#
# Indices 1 2 3 4 5 6 
#
# 1 0.153875 -0.003725 0.014633 0.000000 0.000000 0.000000
# 2 -0.003725 0.006688 -0.003053 0.000000 0.000000 0.000000
# 3 0.014633 -0.003053 0.011550 0.000000 0.000000 0.000000
# 4 0.000000 0.000000 0.000000 0.022053 0.000000 0.000000
# 5 0.000000 0.000000 0.000000 0.000000 0.039114 0.000000
# 6 0.000000 0.000000 0.000000 0.000000 0.000000 0.033007
#
#
# Mechanical properties :
#
#
# Convention : Reuss Voigt Hill
#
# Bulk Modulus (GPa) = 5.32416 39.89429 22.60923
# Shear Modulus (GPa) = 15.96496 37.05996 26.51246
#
# Velocity S-wave (km/s) = 2.69592 4.10748 3.47415
# Velocity P-wave (km/s) = 3.48058 6.37628 5.13670
#
# Compressibility (1/GPa) = 0.18782294
#
# Stress axis : x y z
#
# Youngs Moduli (GPa) = 6.49879 149.51090 86.57810
#
# Poissons Ratio (x) = 0.55687 -1.26688
# Poissons Ratio (y) = 0.02421 0.26436
# Poissons Ratio (z) = -0.09510 0.45653
#
# Static dielectric constant tensor:
#      x y z
#    x 3.900420 0.000000 0.000000 
#    y 0.000000 4.076990 0.000000 
#    z 0.000000 0.000000 4.029350 
# 
# 
# High freq. dielectric constant tensor:
#      x y z
#    x 1.867830 0.000000 0.000000 
#    y 0.000000 1.877700 0.000000 
#    z 0.000000 0.000000 1.867570 
# 
# From -- ./inp_files/56381.got.cif
#   From: 2010.03.12/outbox.cif.g09.slc.cpg/sg74_29_cif.got.tgz:56381.got - 2010.04.16 15:46:19.
