data_PCOD8301482
_publ_section_title
;
Structure prediction by ZEFSAII (Michael W. Deem and Ramdas Pophale) SiO2 
 PCOD8301482
Probable space group: I M M A
;
_chemical_formula_sum "Si O2"
_cell_formula_units_Z 72
_cell_length_a 26.806917
_cell_length_b 14.544867
_cell_length_c 9.452845
_cell_angle_alpha 90.000000
_cell_angle_beta 90.000000
_cell_angle_gamma 90.000000
_cell_volume 3685.693025
_symmetry_space_group_name_H-M "I M M A"
_symmetry_group_IT_number 74
_symmetry_cell_setting 'orthorhombic'
loop_
_space_group_symop_operation_xyz
x,y,z
-x,1/2-y,z
x,-y,-z
-x,1/2+y,-z
-x,-y,-z
x,1/2+y,-z
-x,y,z
x,1/2-y,z
1/2+x,1/2+y,1/2+z
1/2-x,-y,1/2+z
1/2+x,1/2-y,1/2-z
1/2-x,y,1/2-z
1/2-x,1/2-y,1/2-z
1/2+x,y,1/2-z
1/2-x,1/2+y,1/2+z
1/2+x,-y,1/2+z
loop_
_atom_site_type_symbol
_atom_site_label
_atom_site_fract_x
_atom_site_fract_y
_atom_site_fract_z
Si Si1 0.198532 0.903649 0.930082
Si Si2 0.910578 0.105605 0.498863
Si Si3 0.058279 0.250000 0.724284
Si Si4 0.875821 0.750000 0.999125
Si Si5 0.807715 0.143599 0.384777
Si Si6 0.556616 0.750000 0.774855
O O1 0.189638 0.911717 0.762076
O O2 0.254808 0.869641 0.961552
O O3 0.159368 0.838124 0.006183
O O4 0.188791 0.000000 0.000000
O O5 0.927887 0.157273 0.640060
O O6 0.850363 0.108358 0.490525
O O7 0.933902 0.157730 0.364721
O O8 0.929224 0.000000 0.500000
O O9 0.087325 0.250000 0.869957
O O10 0.000000 0.250000 0.757354
O O11 0.907518 0.750000 0.857309
O O12 0.816300 0.250000 0.345670
O O13 0.500000 0.750000 0.721801
#
# Coordination Sequence:
#
# PCOD8301482 Si02
#       6
#    16  16   8   8  16   8
#     4  11  22  37  64  95 131 166 205 252 310 372
#     4  11  22  41  66  94 125 166 208 259 315 377
#     4  11  27  44  62  92 127 159 211 277 323 365
#     4  12  23  43  64  92 127 169 207 264 321 375
#     4  11  19  42  66  91 127 174 212 245 301 382
#     4  11  23  42  67  90 116 166 223 260 319 380
#
# _framework density 19.534994999999999
#
# number of rings (size 3 to 8) (size 9 to 14) (size 15 to 20)
#    0.000    0.889    6.667    3.000    3.111    1.778 
#    0.000    1.111    0.000    4.000    0.000    0.000 
#    0.000    0.000    0.000    0.000    0.000    0.000 
#
# Total GULP energy -446540.421452 kJ/mol
# GULP energy per Si atom -12403.900596 kJ/mol
# Density = 1.949053 g / cm^3
# Si number density = 19.534995 Si / 1000 Ang^3
#
#
#
# Elastic Constant Matrix: (Units=GPa)
#
#
# Indices 1 2 3 4 5 6 
#
# 1 151.2065 48.1771 49.5355 0.0000 0.0000 0.0000
# 2 48.1771 175.4939 64.1615 0.0000 0.0000 0.0000
# 3 49.5355 64.1615 100.8961 0.0000 0.0000 0.0000
# 4 0.0000 0.0000 0.0000 12.8533 0.0000 0.0000
# 5 0.0000 0.0000 0.0000 0.0000 56.4273 0.0000
# 6 0.0000 0.0000 0.0000 0.0000 0.0000 11.0717
#
#
#
# Elastic Compliance Matrix: (Units=1/GPa)
#
#
# Indices 1 2 3 4 5 6 
#
# 1 0.008011 -0.000992 -0.003302 0.000000 0.000000 0.000000
# 2 -0.000992 0.007547 -0.004312 0.000000 0.000000 0.000000
# 3 -0.003302 -0.004312 0.014275 0.000000 0.000000 0.000000
# 4 0.000000 0.000000 0.000000 0.077801 0.000000 0.000000
# 5 0.000000 0.000000 0.000000 0.000000 0.017722 0.000000
# 6 0.000000 0.000000 0.000000 0.000000 0.000000 0.090321
#
#
# Mechanical properties :
#
#
# Convention : Reuss Voigt Hill
#
# Bulk Modulus (GPa) = 79.23991 83.48274 81.36133
# Shear Modulus (GPa) = 21.08839 33.78528 27.43684
#
# Velocity S-wave (km/s) = 3.28917 4.16321 3.75173
# Velocity P-wave (km/s) = 7.42132 8.12019 7.77861
#
# Compressibility (1/GPa) = 0.01261990
#
# Stress axis : x y z
#
# Youngs Moduli (GPa) = 124.82198 132.50082 70.05330
#
# Poissons Ratio (x) = 0.13143 0.23135
# Poissons Ratio (y) = 0.12381 0.30209
# Poissons Ratio (z) = 0.41222 0.57139
#
# Static dielectric constant tensor:
#      x y z
#    x 3.875220 0.000000 0.000000 
#    y 0.000000 3.575570 0.000000 
#    z 0.000000 0.000000 3.590910 
# 
# 
# High freq. dielectric constant tensor:
#      x y z
#    x 1.779920 0.000000 0.000000 
#    y 0.000000 1.762950 0.000000 
#    z 0.000000 0.000000 1.743590 
# 
# From -- ./inp_files/14763.got.cif
#   From: 2010.03.12/outbox.cif.g09.slc.cpg/sg74_8_cif.got.tgz:14763.got - 2010.04.16 15:46:19.
