data_PCOD8301158
_publ_section_title
;
Structure prediction by ZEFSAII (Michael W. Deem and Ramdas Pophale) SiO2 
 PCOD8301158
Probable space group: I M M A
;
_chemical_formula_sum "Si O2"
_cell_formula_units_Z 96
_cell_length_a 16.663051
_cell_length_b 13.903382
_cell_length_c 21.460938
_cell_angle_alpha 90.000000
_cell_angle_beta 90.000000
_cell_angle_gamma 90.000000
_cell_volume 4971.914810
_symmetry_space_group_name_H-M "I M M A"
_symmetry_group_IT_number 74
_symmetry_cell_setting 'orthorhombic'
loop_
_space_group_symop_operation_xyz
x,y,z
-x,1/2-y,z
x,-y,-z
-x,1/2+y,-z
-x,-y,-z
x,1/2+y,-z
-x,y,z
x,1/2-y,z
1/2+x,1/2+y,1/2+z
1/2-x,-y,1/2+z
1/2+x,1/2-y,1/2-z
1/2-x,y,1/2-z
1/2-x,1/2-y,1/2-z
1/2+x,y,1/2-z
1/2-x,1/2+y,1/2+z
1/2+x,-y,1/2+z
loop_
_atom_site_type_symbol
_atom_site_label
_atom_site_fract_x
_atom_site_fract_y
_atom_site_fract_z
Si Si1 0.404328 0.250000 0.132110
Si Si2 0.500000 0.862942 0.491896
Si Si3 0.000000 0.364356 0.132331
Si Si4 0.856355 0.861571 0.095551
Si Si5 0.145541 0.474093 0.189770
Si Si6 0.673611 0.056073 0.171999
Si Si7 0.405973 0.250000 0.991464
Si Si8 0.816086 0.071896 0.557021
O O1 0.500000 0.250000 0.136188
O O2 0.370246 0.342587 0.166788
O O3 0.371402 0.250000 0.061558
O O4 0.500000 0.750000 0.498615
O O5 0.500000 0.906875 0.561641
O O6 0.579214 0.897173 0.455408
O O7 0.078428 0.399464 0.168429
O O8 0.000000 0.250000 0.132643
O O9 0.868943 0.750000 0.112716
O O10 0.769160 0.878322 0.067363
O O11 0.868512 0.922034 0.158584
O O12 0.230559 0.428112 0.169825
O O13 0.143981 0.491847 0.263749
O O14 0.649337 0.984534 0.116558
O O15 0.500000 0.250000 0.994413
O O16 0.379370 0.345133 0.955947
O O17 0.808453 0.000000 0.500000
#
# Coordination Sequence:
#
# PCOD8301158 Si02
#       8
#     8   8   8  16  16  16   8  16
#     4  11  24  39  65  90 117 162 202 252 325 376
#     4   9  21  37  59  96 125 161 198 246 300 353
#     4  11  25  39  60  96 134 165 207 259 306 371
#     4  10  21  40  65  89 127 165 207 250 302 373
#     4  10  24  41  59  91 124 170 207 248 310 363
#     4  10  24  42  62  89 125 163 207 257 305 377
#     4  11  24  42  63  93 121 155 202 268 325 365
#     4  11  22  41  64  94 121 160 209 260 313 373
#
# _framework density 19.308454999999999
#
# number of rings (size 3 to 8) (size 9 to 14) (size 15 to 20)
#    0.000    1.667    2.500    0.500    8.167    2.333 
#    1.500    1.667    0.000    0.000    0.000    0.000 
#    0.000    0.000    0.000    0.000    0.000    0.000 
#
# Total GULP energy -595381.447784 kJ/mol
# GULP energy per Si atom -12403.780162 kJ/mol
# Density = 1.926451 g / cm^3
# Si number density = 19.308455 Si / 1000 Ang^3
#
#
#
# Elastic Constant Matrix: (Units=GPa)
#
#
# Indices 1 2 3 4 5 6 
#
# 1 75.3567 31.2051 38.3949 0.0000 0.0000 0.0000
# 2 31.2051 105.9865 44.8998 0.0000 0.0000 0.0000
# 3 38.3949 44.8998 141.4612 0.0000 0.0000 0.0000
# 4 0.0000 0.0000 0.0000 31.0794 0.0000 0.0000
# 5 0.0000 0.0000 0.0000 0.0000 28.4568 0.0000
# 6 0.0000 0.0000 0.0000 0.0000 0.0000 22.6313
#
#
#
# Elastic Compliance Matrix: (Units=1/GPa)
#
#
# Indices 1 2 3 4 5 6 
#
# 1 0.016395 -0.003399 -0.003371 0.000000 0.000000 0.000000
# 2 -0.003399 0.011606 -0.002761 0.000000 0.000000 0.000000
# 3 -0.003371 -0.002761 0.008860 0.000000 0.000000 0.000000
# 4 0.000000 0.000000 0.000000 0.032176 0.000000 0.000000
# 5 0.000000 0.000000 0.000000 0.000000 0.035141 0.000000
# 6 0.000000 0.000000 0.000000 0.000000 0.000000 0.044187
#
#
# Mechanical properties :
#
#
# Convention : Reuss Voigt Hill
#
# Bulk Modulus (GPa) = 56.18321 61.31156 58.74739
# Shear Modulus (GPa) = 28.84168 30.32046 29.58107
#
# Velocity S-wave (km/s) = 3.86908 3.96703 3.91836
# Velocity P-wave (km/s) = 7.00861 7.26676 7.13885
#
# Compressibility (1/GPa) = 0.01779891
#
# Stress axis : x y z
#
# Youngs Moduli (GPa) = 60.99281 86.16504 112.86159
#
# Poissons Ratio (x) = 0.29288 0.38047
# Poissons Ratio (y) = 0.20732 0.31162
# Poissons Ratio (z) = 0.20561 0.23791
#
# Static dielectric constant tensor:
#      x y z
#    x 3.605910 0.000000 0.000000 
#    y 0.000000 3.513120 0.000000 
#    z 0.000000 0.000000 3.768990 
# 
# 
# High freq. dielectric constant tensor:
#      x y z
#    x 1.757360 0.000000 0.000000 
#    y 0.000000 1.756150 0.000000 
#    z 0.000000 0.000000 1.759350 
# 
# From -- ./inp_files/51981.got.cif
#   From: 2010.03.12/outbox.cif.g09.slc.cpg/sg74_26_cif.got.tgz:51981.got - 2010.04.16 15:46:19.
