data_PCOD8301581
_publ_section_title
;
Structure prediction by ZEFSAII (Michael W. Deem and Ramdas Pophale) SiO2 
 PCOD8301581
Probable space group: I M M A
;
_chemical_formula_sum "Si O2"
_cell_formula_units_Z 80
_cell_length_a 16.771859
_cell_length_b 24.031209
_cell_length_c 9.786529
_cell_angle_alpha 90.000000
_cell_angle_beta 90.000000
_cell_angle_gamma 90.000000
_cell_volume 3944.441419
_symmetry_space_group_name_H-M "I M M A"
_symmetry_group_IT_number 74
_symmetry_cell_setting 'orthorhombic'
loop_
_space_group_symop_operation_xyz
x,y,z
-x,1/2-y,z
x,-y,-z
-x,1/2+y,-z
-x,-y,-z
x,1/2+y,-z
-x,y,z
x,1/2-y,z
1/2+x,1/2+y,1/2+z
1/2-x,-y,1/2+z
1/2+x,1/2-y,1/2-z
1/2-x,y,1/2-z
1/2-x,1/2-y,1/2-z
1/2+x,y,1/2-z
1/2-x,1/2+y,1/2+z
1/2+x,-y,1/2+z
loop_
_atom_site_type_symbol
_atom_site_label
_atom_site_fract_x
_atom_site_fract_y
_atom_site_fract_z
Si Si1 0.406882 0.750000 0.289042
Si Si2 0.810385 0.351952 0.867716
Si Si3 0.196578 0.149302 0.380199
Si Si4 0.405364 0.250000 0.027062
Si Si5 0.326376 0.977497 0.346544
Si Si6 0.908954 0.459840 0.373913
O O1 0.500000 0.750000 0.299306
O O2 0.378142 0.805121 0.367713
O O3 0.379425 0.750000 0.131306
O O4 0.750000 0.335966 0.750000
O O5 0.849553 0.412555 0.848031
O O6 0.762379 0.351075 0.005219
O O7 0.250000 0.160884 0.250000
O O8 0.130189 0.196234 0.399102
O O9 0.151185 0.091195 0.378347
O O10 0.500000 0.250000 0.045704
O O11 0.250000 0.988227 0.250000
O O12 0.312118 0.000000 0.500000
O O13 0.399047 0.009005 0.271801
O O14 0.887168 0.500000 0.500000
O O15 0.000000 0.439044 0.385707
#
# Coordination Sequence:
#
# PCOD8301581 Si02
#       6
#     8  16  16   8  16  16
#     4  11  24  42  65  95 128 161 209 272 322 369
#     4  11  21  39  66  94 125 165 220 260 307 377
#     4  12  24  42  66  94 127 168 213 262 315 383
#     4  11  24  43  67  94 126 163 211 264 326 383
#     4  11  22  39  64  95 129 169 214 263 314 378
#     4  11  24  41  63  94 131 170 215 264 325 385
#
# _framework density 20.281706
#
# number of rings (size 3 to 8) (size 9 to 14) (size 15 to 20)
#    0.000    0.800    2.000    7.800    0.000    1.200 
#    0.000    5.000    0.000    0.000    0.000    0.000 
#    0.000    0.000    0.000    0.000    0.000    0.000 
#
# Total GULP energy -496073.713992 kJ/mol
# GULP energy per Si atom -12401.842850 kJ/mol
# Density = 2.023554 g / cm^3
# Si number density = 20.281706 Si / 1000 Ang^3
#
#
#
# Elastic Constant Matrix: (Units=GPa)
#
#
# Indices 1 2 3 4 5 6 
#
# 1 91.9053 66.1563 56.8744 0.0000 0.0000 0.0000
# 2 66.1563 161.2311 57.0009 0.0000 0.0000 0.0000
# 3 56.8744 57.0009 133.9287 0.0000 0.0000 0.0000
# 4 0.0000 0.0000 0.0000 37.1573 0.0000 0.0000
# 5 0.0000 0.0000 0.0000 0.0000 38.5005 0.0000
# 6 0.0000 0.0000 0.0000 0.0000 0.0000 31.1582
#
#
#
# Elastic Compliance Matrix: (Units=1/GPa)
#
#
# Indices 1 2 3 4 5 6 
#
# 1 0.018213 -0.005578 -0.005360 0.000000 0.000000 0.000000
# 2 -0.005578 0.009009 -0.001466 0.000000 0.000000 0.000000
# 3 -0.005360 -0.001466 0.010367 0.000000 0.000000 0.000000
# 4 0.000000 0.000000 0.000000 0.026913 0.000000 0.000000
# 5 0.000000 0.000000 0.000000 0.000000 0.025974 0.000000
# 6 0.000000 0.000000 0.000000 0.000000 0.000000 0.032094
#
#
# Mechanical properties :
#
#
# Convention : Reuss Voigt Hill
#
# Bulk Modulus (GPa) = 78.24072 83.01425 80.62748
# Shear Modulus (GPa) = 32.97315 35.16543 34.06929
#
# Velocity S-wave (km/s) = 4.03644 4.16847 4.10299
# Velocity P-wave (km/s) = 7.77075 8.01172 7.89216
#
# Compressibility (1/GPa) = 0.01278107
#
# Stress axis : x y z
#
# Youngs Moduli (GPa) = 54.90485 110.99714 96.46222
#
# Poissons Ratio (x) = 0.61916 0.51707
# Poissons Ratio (y) = 0.30627 0.14137
# Poissons Ratio (z) = 0.29431 0.16267
#
# Static dielectric constant tensor:
#      x y z
#    x 3.584960 0.000000 0.000000 
#    y 0.000000 3.857540 0.000000 
#    z 0.000000 0.000000 3.885140 
# 
# 
# High freq. dielectric constant tensor:
#      x y z
#    x 1.787990 0.000000 0.000000 
#    y 0.000000 1.809250 0.000000 
#    z 0.000000 0.000000 1.800520 
# 
# From -- ./inp_files/11031.got.cif
#   From: 2010.03.12/outbox.cif.g09.slc.cpg/sg74_6_cif.got.tgz:11031.got - 2010.04.16 15:46:19.
