data_PCOD8301764
_publ_section_title
;
Structure prediction by ZEFSAII (Michael W. Deem and Ramdas Pophale) SiO2 
 PCOD8301764
Probable space group: I M M A
;
_chemical_formula_sum "Si O2"
_cell_formula_units_Z 80
_cell_length_a 9.814167
_cell_length_b 9.814168
_cell_length_c 51.698227
_cell_angle_alpha 90.000000
_cell_angle_beta 90.000000
_cell_angle_gamma 90.000000
_cell_volume 4979.463817
_symmetry_space_group_name_H-M "I M M A"
_symmetry_group_IT_number 74
_symmetry_cell_setting 'orthorhombic'
loop_
_space_group_symop_operation_xyz
x,y,z
-x,1/2-y,z
x,-y,-z
-x,1/2+y,-z
-x,-y,-z
x,1/2+y,-z
-x,y,z
x,1/2-y,z
1/2+x,1/2+y,1/2+z
1/2-x,-y,1/2+z
1/2+x,1/2-y,1/2-z
1/2-x,y,1/2-z
1/2-x,1/2-y,1/2-z
1/2+x,y,1/2-z
1/2-x,1/2+y,1/2+z
1/2+x,-y,1/2+z
loop_
_atom_site_type_symbol
_atom_site_label
_atom_site_fract_x
_atom_site_fract_y
_atom_site_fract_z
Si Si1 0.841255 0.591255 0.875000
Si Si2 0.161974 0.901583 0.171070
Si Si3 0.837993 0.598334 0.521952
Si Si4 0.848334 0.912007 0.228048
Si Si5 0.151583 0.088026 0.421070
O O1 0.813177 0.750000 0.869712
O O2 0.785948 0.508412 0.850250
O O3 0.758412 0.535948 0.899750
O O4 0.000000 0.563177 0.880288
O O5 0.219175 0.750000 0.164753
O O6 0.210107 0.950685 0.199590
O O7 0.000000 0.896008 0.171410
O O8 0.775285 0.500000 0.500000
O O9 0.777302 0.750000 0.517836
O O10 0.799315 0.539893 0.550410
O O11 0.000000 0.604830 0.519719
O O12 0.854830 0.750000 0.230281
O O13 0.750000 0.974715 0.250000
O O14 0.000000 0.972698 0.232164
O O15 0.146007 0.250000 0.421410
O O16 0.000000 0.030825 0.414754
#
# Coordination Sequence:
#
# PCOD8301764 Si02
#       5
#    16  16  16  16  16
#     4   9  16  26  42  61  76  96 132 167 186 212
#     4   8  14  25  40  57  78 103 127 153 190 231
#     4   8  13  22  37  55  73  95 124 154 183 219
#     4   8  13  22  37  55  73  95 124 154 183 219
#     4   8  14  25  40  57  78 103 127 153 190 231
#
# _framework density 16.065987
#
# number of rings (size 3 to 8) (size 9 to 14) (size 15 to 20)
#    0.000    3.800    0.000    2.400    0.000    0.000 
#    0.000    2.000    0.000    4.200    0.000    0.000 
#    0.000    0.000    0.000    0.000    0.000    0.000 
#
# Total GULP energy -495629.560483 kJ/mol
# GULP energy per Si atom -12390.739012 kJ/mol
# Density = 1.602942 g / cm^3
# Si number density = 16.065987 Si / 1000 Ang^3
#
#
#
# Elastic Constant Matrix: (Units=GPa)
#
#
# Indices 1 2 3 4 5 6 
#
# 1 45.2253 20.9358 56.1521 0.0000 0.0000 0.0000
# 2 20.9358 45.2254 56.1522 0.0000 0.0000 0.0000
# 3 56.1521 56.1522 176.5413 0.0000 0.0000 0.0000
# 4 0.0000 0.0000 0.0000 25.8987 0.0000 0.0000
# 5 0.0000 0.0000 0.0000 0.0000 25.8987 0.0000
# 6 0.0000 0.0000 0.0000 0.0000 0.0000 8.2661
#
#
#
# Elastic Compliance Matrix: (Units=1/GPa)
#
#
# Indices 1 2 3 4 5 6 
#
# 1 0.037010 -0.004160 -0.010449 0.000000 0.000000 0.000000
# 2 -0.004160 0.037010 -0.010449 0.000000 0.000000 0.000000
# 3 -0.010449 -0.010449 0.012311 0.000000 0.000000 0.000000
# 4 0.000000 0.000000 0.000000 0.038612 0.000000 0.000000
# 5 0.000000 0.000000 0.000000 0.000000 0.038612 0.000000
# 6 0.000000 0.000000 0.000000 0.000000 0.000000 0.120976
#
#
# Mechanical properties :
#
#
# Convention : Reuss Voigt Hill
#
# Bulk Modulus (GPa) = 27.61096 59.27469 43.44283
# Shear Modulus (GPa) = 14.42093 20.92951 17.67522
#
# Velocity S-wave (km/s) = 2.99926 3.61324 3.32047
# Velocity P-wave (km/s) = 5.40531 7.37441 6.46526
#
# Compressibility (1/GPa) = 0.03621750
#
# Stress axis : x y z
#
# Youngs Moduli (GPa) = 27.01950 27.01953 81.22689
#
# Poissons Ratio (x) = 0.11239 0.84872
# Poissons Ratio (y) = 0.11239 0.84872
# Poissons Ratio (z) = 0.28232 0.28232
#
# Static dielectric constant tensor:
#      x y z
#    x 2.861540 0.000000 0.000000 
#    y 0.000000 2.861540 0.000000 
#    z 0.000000 0.000000 3.519180 
# 
# 
# High freq. dielectric constant tensor:
#      x y z
#    x 1.575220 0.000000 0.000000 
#    y 0.000000 1.575220 0.000000 
#    z 0.000000 0.000000 1.632690 
# 
# From -- ./inp_files/71513.got.cif
#   From: 2010.03.12/outbox.cif.g09.slc.cpg/sg74_36_cif.got.tgz:71513.got - 2010.04.16 15:46:19.
