data_PCOD8301553
_publ_section_title
;
Structure prediction by ZEFSAII (Michael W. Deem and Ramdas Pophale) SiO2 
 PCOD8301553
Probable space group: I M M A
;
_chemical_formula_sum "Si O2"
_cell_formula_units_Z 96
_cell_length_a 14.307617
_cell_length_b 24.786347
_cell_length_c 14.901957
_cell_angle_alpha 90.000000
_cell_angle_beta 90.000000
_cell_angle_gamma 90.000000
_cell_volume 5284.734057
_symmetry_space_group_name_H-M "I M M A"
_symmetry_group_IT_number 74
_symmetry_cell_setting 'orthorhombic'
loop_
_space_group_symop_operation_xyz
x,y,z
-x,1/2-y,z
x,-y,-z
-x,1/2+y,-z
-x,-y,-z
x,1/2+y,-z
-x,y,z
x,1/2-y,z
1/2+x,1/2+y,1/2+z
1/2-x,-y,1/2+z
1/2+x,1/2-y,1/2-z
1/2-x,y,1/2-z
1/2-x,1/2-y,1/2-z
1/2+x,y,1/2-z
1/2-x,1/2+y,1/2+z
1/2+x,-y,1/2+z
loop_
_atom_site_type_symbol
_atom_site_label
_atom_site_fract_x
_atom_site_fract_y
_atom_site_fract_z
Si Si1 0.318398 0.125884 0.474906
Si Si2 0.760673 0.569372 0.153790
Si Si3 0.894255 0.491652 0.394626
Si Si4 0.000000 0.312601 0.061072
Si Si5 0.180654 0.376013 0.333740
Si Si6 0.897102 0.520156 0.900011
Si Si7 0.000000 0.813621 0.729340
O O1 0.284899 0.110726 0.574667
O O2 0.408135 0.163601 0.486543
O O3 0.233111 0.152466 0.419164
O O4 0.343143 0.076314 0.407899
O O5 0.750000 0.599640 0.250000
O O6 0.660240 0.542466 0.143623
O O7 0.839288 0.522300 0.158932
O O8 0.885459 0.500000 0.500000
O O9 0.850680 0.435813 0.361335
O O10 0.000000 0.494672 0.360638
O O11 0.000000 0.326787 0.165472
O O12 0.000000 0.250000 0.041596
O O13 0.250000 0.377746 0.250000
O O14 0.091739 0.339070 0.314182
O O15 0.000000 0.528224 0.856013
O O16 0.909746 0.500000 0.000000
O O17 0.000000 0.750000 0.711214
#
# Coordination Sequence:
#
# PCOD8301553 Si02
#       7
#    16  16  16   8  16  16   8
#     4  11  21  38  59  84 123 154 195 240 298 357
#     4  11  22  35  52  85 121 157 200 238 278 348
#     4  11  21  35  53  78 119 165 202 232 273 349
#     4  11  24  42  65  91 113 145 197 253 312 367
#     4  12  22  37  60  84 120 165 191 239 302 352
#     4   9  17  30  52  79 113 152 183 228 285 343
#     4  11  26  42  59  89 117 149 204 253 301 363
#
# _framework density 18.165531000000001
#
# number of rings (size 3 to 8) (size 9 to 14) (size 15 to 20)
#    0.000    1.167    6.667    1.000    1.167    1.667 
#    0.000    0.000    0.000    0.500    0.000    1.167 
#    0.000    0.000    0.000    0.000    0.000    0.000 
#
# Total GULP energy -594974.517288 kJ/mol
# GULP energy per Si atom -12395.302443 kJ/mol
# Density = 1.812419 g / cm^3
# Si number density = 18.165531 Si / 1000 Ang^3
#
#
#
# Elastic Constant Matrix: (Units=GPa)
#
#
# Indices 1 2 3 4 5 6 
#
# 1 150.4802 43.2105 69.5464 0.0000 0.0000 0.0000
# 2 43.2105 71.2058 44.0992 0.0002 -0.0001 0.0000
# 3 69.5464 44.0992 116.1370 0.0002 0.0000 0.0000
# 4 0.0000 0.0002 0.0002 19.8141 0.0000 0.0000
# 5 0.0000 -0.0001 0.0000 0.0000 22.6389 0.0000
# 6 0.0000 0.0000 0.0000 0.0000 0.0000 15.1818
#
#
#
# Elastic Compliance Matrix: (Units=1/GPa)
#
#
# Indices 1 2 3 4 5 6 
#
# 1 0.009648 -0.002977 -0.004647 0.000000 0.000000 0.000000
# 2 -0.002977 0.019280 -0.005539 0.000000 0.000000 0.000000
# 3 -0.004647 -0.005539 0.013496 0.000000 0.000000 0.000000
# 4 0.000000 0.000000 0.000000 0.050469 0.000000 0.000000
# 5 0.000000 0.000000 0.000000 0.000000 0.044172 0.000000
# 6 0.000000 0.000000 0.000000 0.000000 0.000000 0.065868
#
#
# Mechanical properties :
#
#
# Convention : Reuss Voigt Hill
#
# Bulk Modulus (GPa) = 62.11208 72.39278 67.25243
# Shear Modulus (GPa) = 21.31058 23.59142 22.45100
#
# Velocity S-wave (km/s) = 3.42882 3.60765 3.51937
# Velocity P-wave (km/s) = 7.06698 7.56913 7.32236
#
# Compressibility (1/GPa) = 0.01609993
#
# Stress axis : x y z
#
# Youngs Moduli (GPa) = 103.64966 51.86651 74.09346
#
# Poissons Ratio (x) = 0.15439 0.34433
# Poissons Ratio (y) = 0.30853 0.41037
# Poissons Ratio (z) = 0.48168 0.28726
#
# Static dielectric constant tensor:
#      x y z
#    x 3.908080 0.000000 0.000000 
#    y 0.000000 3.313580 0.000000 
#    z 0.000000 0.000000 3.417660 
# 
# 
# High freq. dielectric constant tensor:
#      x y z
#    x 1.731930 0.000000 0.000000 
#    y 0.000000 1.657250 0.000000 
#    z 0.000000 0.000000 1.703150 
# 
# From -- ./inp_files/32847.got.cif
#   From: 2010.03.12/outbox.cif.g09.slc.cpg/sg74_17_cif.got.tgz:32847.got - 2010.04.16 15:46:19.
