data_PCOD8301324
_publ_section_title
;
Structure prediction by ZEFSAII (Michael W. Deem and Ramdas Pophale) SiO2 
 PCOD8301324
Probable space group: I M M A
;
_chemical_formula_sum "Si O2"
_cell_formula_units_Z 64
_cell_length_a 12.010541
_cell_length_b 13.880174
_cell_length_c 19.029390
_cell_angle_alpha 90.000000
_cell_angle_beta 90.000000
_cell_angle_gamma 90.000000
_cell_volume 3172.359139
_symmetry_space_group_name_H-M "I M M A"
_symmetry_group_IT_number 74
_symmetry_cell_setting 'orthorhombic'
loop_
_space_group_symop_operation_xyz
x,y,z
-x,1/2-y,z
x,-y,-z
-x,1/2+y,-z
-x,-y,-z
x,1/2+y,-z
-x,y,z
x,1/2-y,z
1/2+x,1/2+y,1/2+z
1/2-x,-y,1/2+z
1/2+x,1/2-y,1/2-z
1/2-x,y,1/2-z
1/2-x,1/2-y,1/2-z
1/2+x,y,1/2-z
1/2-x,1/2+y,1/2+z
1/2+x,-y,1/2+z
loop_
_atom_site_type_symbol
_atom_site_label
_atom_site_fract_x
_atom_site_fract_y
_atom_site_fract_z
Si Si1 0.500000 0.856112 0.361672
Si Si2 0.766742 0.141856 0.081917
Si Si3 0.000000 0.387891 0.016050
Si Si4 0.626285 0.135912 0.948467
Si Si5 0.228875 0.458968 0.831373
O O1 0.500000 0.750000 0.323766
O O2 0.500000 0.831019 0.443539
O O3 0.605524 0.920712 0.343706
O O4 0.728503 0.250000 0.103552
O O5 0.894120 0.144600 0.059629
O O6 0.756052 0.071136 0.148305
O O7 0.691651 0.099733 0.017988
O O8 0.000000 0.500000 0.000000
O O9 0.500000 0.096891 0.951411
O O10 0.629691 0.250000 0.947340
O O11 0.683839 0.101458 0.877016
O O12 0.250000 0.444993 0.750000
#
# Coordination Sequence:
#
# PCOD8301324 Si02
#       5
#     8  16   8  16  16
#     4  12  24  41  64  93 123 154 199 252 308 369
#     4  11  22  40  66  91 120 160 208 258 300 351
#     4  12  18  37  69  96 121 149 200 262 311 350
#     4  10  22  41  65  92 119 158 207 253 304 359
#     4  12  26  41  60  91 127 165 201 244 306 367
#
# _framework density 20.174261000000001
#
# number of rings (size 3 to 8) (size 9 to 14) (size 15 to 20)
#    0.000    0.750    5.000    2.625    1.750    4.500 
#    0.000    0.000    0.000    0.000    0.000    0.000 
#    0.000    0.000    0.000    0.000    0.000    0.000 
#
# Total GULP energy -396818.070949 kJ/mol
# GULP energy per Si atom -12400.564717 kJ/mol
# Density = 2.012834 g / cm^3
# Si number density = 20.174261 Si / 1000 Ang^3
#
#
#
# Elastic Constant Matrix: (Units=GPa)
#
#
# Indices 1 2 3 4 5 6 
#
# 1 143.7692 13.5819 29.1114 0.0000 0.0000 0.0000
# 2 13.5819 95.5517 15.5128 0.0000 0.0000 0.0000
# 3 29.1114 15.5128 79.0150 0.0000 0.0000 0.0000
# 4 0.0000 0.0000 0.0000 38.4048 0.0000 0.0000
# 5 0.0000 0.0000 0.0000 0.0000 18.2203 0.0000
# 6 0.0000 0.0000 0.0000 0.0000 0.0000 29.3206
#
#
#
# Elastic Compliance Matrix: (Units=1/GPa)
#
#
# Indices 1 2 3 4 5 6 
#
# 1 0.007554 -0.000642 -0.002657 0.000000 0.000000 0.000000
# 2 -0.000642 0.010865 -0.001896 0.000000 0.000000 0.000000
# 3 -0.002657 -0.001896 0.014007 0.000000 0.000000 0.000000
# 4 0.000000 0.000000 0.000000 0.026038 0.000000 0.000000
# 5 0.000000 0.000000 0.000000 0.000000 0.054884 0.000000
# 6 0.000000 0.000000 0.000000 0.000000 0.000000 0.034106
#
#
# Mechanical properties :
#
#
# Convention : Reuss Voigt Hill
#
# Bulk Modulus (GPa) = 45.38362 48.30536 46.84449
# Shear Modulus (GPa) = 30.26803 34.53110 32.39957
#
# Velocity S-wave (km/s) = 3.87761 4.14169 4.01182
# Velocity P-wave (km/s) = 6.52629 6.84598 6.68805
#
# Compressibility (1/GPa) = 0.02203438
#
# Stress axis : x y z
#
# Youngs Moduli (GPa) = 132.37478 92.04097 71.39242
#
# Poissons Ratio (x) = 0.05913 0.18970
# Poissons Ratio (y) = 0.08504 0.13539
# Poissons Ratio (z) = 0.35173 0.17454
#
# Static dielectric constant tensor:
#      x y z
#    x 3.954760 0.000000 0.000000 
#    y 0.000000 4.317100 0.000000 
#    z 0.000000 0.000000 3.538330 
# 
# 
# High freq. dielectric constant tensor:
#      x y z
#    x 1.798550 0.000000 0.000000 
#    y 0.000000 1.811040 0.000000 
#    z 0.000000 0.000000 1.759550 
# 
# From -- ./inp_files/40719.got.cif
#   From: 2010.03.12/outbox.cif.g09.slc.cpg/sg74_21_cif.got.tgz:40719.got - 2010.04.16 15:46:19.
