data_PCOD8301478
_publ_section_title
;
Structure prediction by ZEFSAII (Michael W. Deem and Ramdas Pophale) SiO2 
 PCOD8301478
Probable space group: I M M A
;
_chemical_formula_sum "Si O2"
_cell_formula_units_Z 64
_cell_length_a 10.172536
_cell_length_b 18.669553
_cell_length_c 19.392873
_cell_angle_alpha 90.000000
_cell_angle_beta 90.000000
_cell_angle_gamma 90.000000
_cell_volume 3683.030444
_symmetry_space_group_name_H-M "I M M A"
_symmetry_group_IT_number 74
_symmetry_cell_setting 'orthorhombic'
loop_
_space_group_symop_operation_xyz
x,y,z
-x,1/2-y,z
x,-y,-z
-x,1/2+y,-z
-x,-y,-z
x,1/2+y,-z
-x,y,z
x,1/2-y,z
1/2+x,1/2+y,1/2+z
1/2-x,-y,1/2+z
1/2+x,1/2-y,1/2-z
1/2-x,y,1/2-z
1/2-x,1/2-y,1/2-z
1/2+x,y,1/2-z
1/2-x,1/2+y,1/2+z
1/2+x,-y,1/2+z
loop_
_atom_site_type_symbol
_atom_site_label
_atom_site_fract_x
_atom_site_fract_y
_atom_site_fract_z
Si Si1 0.346198 0.900162 0.959996
Si Si2 0.000000 0.250000 0.931579
Si Si3 0.000000 0.604165 0.151076
Si Si4 0.000000 0.603964 0.312745
Si Si5 0.772557 0.250000 0.493155
Si Si6 0.500000 0.250000 0.895606
Si Si7 0.770796 0.460580 0.606463
O O1 0.500000 0.908565 0.947186
O O2 0.272646 0.954286 0.908425
O O3 0.298313 0.819407 0.945299
O O4 0.314848 0.917372 0.039138
O O5 0.000000 0.318677 0.883366
O O6 0.124637 0.250000 0.981002
O O7 0.124634 0.558882 0.127558
O O8 0.000000 0.616639 0.231934
O O9 0.870498 0.559182 0.332469
O O10 0.000000 0.681030 0.347876
O O11 0.870527 0.250000 0.557900
#
# Coordination Sequence:
#
# PCOD8301478 Si02
#       7
#    16   4   8   8   8   4  16
#     4  11  19  36  62  80 108 141 190 239 281 330
#     4  12  23  38  44  84 124 152 181 220 268 342
#     4  12  25  36  53  80 120 156 190 219 275 330
#     4  12  21  38  55  78 112 160 192 223 261 326
#     4  12  20  34  59  84 113 147 180 229 290 331
#     4  12  19  34  56  80 108 152 203 212 252 338
#     4  11  21  36  56  81 107 148 190 234 274 321
#
# _framework density 17.376995000000001
#
# number of rings (size 3 to 8) (size 9 to 14) (size 15 to 20)
#    0.000    0.500    8.750    1.875    0.000    3.000 
#    0.000    3.750    0.000    0.000    0.000    5.250 
#    0.000    0.000    0.000    0.000    0.000    0.000 
#
# Total GULP energy -396924.205883 kJ/mol
# GULP energy per Si atom -12403.881434 kJ/mol
# Density = 1.733744 g / cm^3
# Si number density = 17.376995 Si / 1000 Ang^3
#
#
#
# Elastic Constant Matrix: (Units=GPa)
#
#
# Indices 1 2 3 4 5 6 
#
# 1 156.9077 54.8910 33.9315 0.0000 0.0000 0.0000
# 2 54.8910 160.1099 38.6036 0.0000 0.0000 0.0000
# 3 33.9315 38.6036 41.0106 0.0000 0.0000 0.0000
# 4 0.0000 0.0000 0.0000 -54.2159 0.0000 0.0000
# 5 0.0000 0.0000 0.0000 0.0000 6.0359 0.0000
# 6 0.0000 0.0000 0.0000 0.0000 0.0000 19.5213
#
#
#
# Elastic Compliance Matrix: (Units=1/GPa)
#
#
# Indices 1 2 3 4 5 6 
#
# 1 0.008027 -0.001488 -0.005240 0.000000 0.000000 0.000000
# 2 -0.001488 0.008355 -0.006633 0.000000 0.000000 0.000000
# 3 -0.005240 -0.006633 0.034964 0.000000 0.000000 0.000000
# 4 0.000000 0.000000 0.000000 -0.018445 0.000000 0.000000
# 5 0.000000 0.000000 0.000000 0.000000 0.165676 0.000000
# 6 0.000000 0.000000 0.000000 0.000000 0.000000 0.051226
#
#
# Mechanical properties :
#
#
# Convention : Reuss Voigt Hill
#
# Bulk Modulus (GPa) = 40.61452 68.09782 54.35617
# Shear Modulus (GPa) = 17.56014 9.64174 13.60094
#
# Velocity S-wave (km/s) = 3.18235 2.35810 2.80071
# Velocity P-wave (km/s) = 6.07671 6.83284 6.46584
#
# Compressibility (1/GPa) = 0.02462174
#
# Stress axis : x y z
#
# Youngs Moduli (GPa) = 124.57760 119.68353 28.60099
#
# Poissons Ratio (x) = 0.17815 0.14988
# Poissons Ratio (y) = 0.18543 0.18972
# Poissons Ratio (z) = 0.65284 0.79391
#
# Static dielectric constant tensor:
#      x y z
#    x 3.384950 0.000000 0.000000 
#    y 0.000000 -2.471370 0.000000 
#    z 0.000000 0.000000 3.002910 
# 
# 
# High freq. dielectric constant tensor:
#      x y z
#    x 1.686810 0.000000 0.000000 
#    y 0.000000 1.686070 0.000000 
#    z 0.000000 0.000000 1.631680 
# 
# From -- ./inp_files/39407.got.cif
#   From: 2010.03.12/outbox.cif.g09.slc.cpg/sg74_20_cif.got.tgz:39407.got - 2010.04.16 15:46:19.
