data_PCOD8301774
_publ_section_title
;
Structure prediction by ZEFSAII (Michael W. Deem and Ramdas Pophale) SiO2 
 PCOD8301774
Probable space group: I M M A
;
_chemical_formula_sum "Si O2"
_cell_formula_units_Z 104
_cell_length_a 9.249379
_cell_length_b 23.365140
_cell_length_c 36.739878
_cell_angle_alpha 90.000000
_cell_angle_beta 90.000000
_cell_angle_gamma 90.000000
_cell_volume 7939.966549
_symmetry_space_group_name_H-M "I M M A"
_symmetry_group_IT_number 74
_symmetry_cell_setting 'orthorhombic'
loop_
_space_group_symop_operation_xyz
x,y,z
-x,1/2-y,z
x,-y,-z
-x,1/2+y,-z
-x,-y,-z
x,1/2+y,-z
-x,y,z
x,1/2-y,z
1/2+x,1/2+y,1/2+z
1/2-x,-y,1/2+z
1/2+x,1/2-y,1/2-z
1/2-x,y,1/2-z
1/2-x,1/2-y,1/2-z
1/2+x,y,1/2-z
1/2-x,1/2+y,1/2+z
1/2+x,-y,1/2+z
loop_
_atom_site_type_symbol
_atom_site_label
_atom_site_fract_x
_atom_site_fract_y
_atom_site_fract_z
Si Si1 0.666536 0.685183 0.913460
Si Si2 0.168921 0.419234 0.362786
Si Si3 0.836528 0.620563 0.970502
Si Si4 0.163478 0.011835 0.081717
Si Si5 0.164904 0.750000 0.713697
Si Si6 0.832088 0.125935 0.287583
Si Si7 0.836101 0.445511 0.526176
O O1 0.500000 0.677025 0.924767
O O2 0.696507 0.750000 0.899941
O O3 0.707612 0.641814 0.881103
O O4 0.762057 0.672821 0.949197
O O5 0.260642 0.470326 0.380518
O O6 0.211326 0.417312 0.319972
O O7 0.000000 0.432660 0.368141
O O8 0.746768 0.607142 0.007059
O O9 0.000000 0.637610 0.981048
O O10 0.835592 0.565142 0.945225
O O11 0.000000 0.991467 0.089583
O O12 0.252886 0.960106 0.063597
O O13 0.250000 0.750000 0.750000
O O14 0.201460 0.689285 0.694642
O O15 0.000000 0.750000 0.724987
O O16 0.750000 0.112525 0.250000
O O17 0.000000 0.119973 0.278146
O O18 0.836373 0.500000 0.500000
O O19 0.000000 0.426930 0.535245
#
# Coordination Sequence:
#
# PCOD8301774 Si02
#       7
#    16  16  16  16   8  16  16
#     4   9  17  27  38  50  65  87 114 141 169 203
#     4   9  17  27  38  51  66  85 109 137 170 209
#     4   9  16  25  36  50  68  87 107 131 160 195
#     4   9  16  25  36  51  69  86 103 127 161 199
#     4   8  14  24  36  48  60  74  96 128 164 200
#     4   9  17  27  39  51  64  81 105 136 171 209
#     4   9  15  23  37  53  68  85 105 128 154 189
#
# _framework density 13.098292000000001
#
# number of rings (size 3 to 8) (size 9 to 14) (size 15 to 20)
#    0.000    3.077    0.000    1.385    1.077    6.462 
#    0.000    0.000    0.000    0.000    0.000    0.000 
#    0.000    0.000    0.000    0.000    0.000    0.000 
#
# Total GULP energy -644322.311458 kJ/mol
# GULP energy per Si atom -12390.813682 kJ/mol
# Density = 1.306848 g / cm^3
# Si number density = 13.098292 Si / 1000 Ang^3
#
#
#
# Elastic Constant Matrix: (Units=GPa)
#
#
# Indices 1 2 3 4 5 6 
#
# 1 79.8428 15.6186 43.9022 0.0000 0.0000 0.0000
# 2 15.6186 13.2683 22.9253 0.0000 0.0000 0.0000
# 3 43.9022 22.9253 81.9099 0.0000 0.0000 0.0000
# 4 0.0000 0.0000 0.0000 17.9077 0.0000 0.0000
# 5 0.0000 0.0000 0.0000 0.0000 19.1620 0.0000
# 6 0.0000 0.0000 0.0000 0.0000 0.0000 13.4784
#
#
#
# Elastic Compliance Matrix: (Units=1/GPa)
#
#
# Indices 1 2 3 4 5 6 
#
# 1 0.018284 -0.008889 -0.007312 0.000000 0.000000 0.000000
# 2 -0.008889 0.150267 -0.037293 0.000000 0.000000 0.000000
# 3 -0.007312 -0.037293 0.026565 0.000000 0.000000 0.000000
# 4 0.000000 0.000000 0.000000 0.055842 0.000000 0.000000
# 5 0.000000 0.000000 0.000000 0.000000 0.052187 0.000000
# 6 0.000000 0.000000 0.000000 0.000000 0.000000 0.074193
#
#
# Mechanical properties :
#
#
# Convention : Reuss Voigt Hill
#
# Bulk Modulus (GPa) = 11.34706 37.76813 24.55760
# Shear Modulus (GPa) = 9.73327 16.28129 13.00728
#
# Velocity S-wave (km/s) = 2.72893 3.52946 3.15469
# Velocity P-wave (km/s) = 4.31408 6.74584 5.66205
#
# Compressibility (1/GPa) = 0.08812853
#
# Stress axis : x y z
#
# Youngs Moduli (GPa) = 54.69259 6.65482 37.64288
#
# Poissons Ratio (x) = 0.05915 0.27525
# Poissons Ratio (y) = 0.48615 1.40382
# Poissons Ratio (z) = 0.39992 0.24818
#
# Static dielectric constant tensor:
#      x y z
#    x 2.778600 0.000000 0.000000 
#    y 0.000000 2.273610 0.000000 
#    z 0.000000 0.000000 2.486250 
# 
# 
# High freq. dielectric constant tensor:
#      x y z
#    x 1.511100 0.000000 0.000000 
#    y 0.000000 1.441530 0.000000 
#    z 0.000000 0.000000 1.475030 
# 
# From -- ./inp_files/71003.got.cif
#   From: 2010.03.12/outbox.cif.g09.slc.cpg/sg74_36_cif.got.tgz:71003.got - 2010.04.16 15:46:19.
