data_PCOD8301031
_publ_section_title
;
Structure prediction by ZEFSAII (Michael W. Deem and Ramdas Pophale) SiO2 
 PCOD8301031
Probable space group: I M M A
;
_chemical_formula_sum "Si O2"
_cell_formula_units_Z 104
_cell_length_a 8.778261
_cell_length_b 21.619326
_cell_length_c 27.385014
_cell_angle_alpha 90.000000
_cell_angle_beta 90.000000
_cell_angle_gamma 90.000000
_cell_volume 5197.130319
_symmetry_space_group_name_H-M "I M M A"
_symmetry_group_IT_number 74
_symmetry_cell_setting 'orthorhombic'
loop_
_space_group_symop_operation_xyz
x,y,z
-x,1/2-y,z
x,-y,-z
-x,1/2+y,-z
-x,-y,-z
x,1/2+y,-z
-x,y,z
x,1/2-y,z
1/2+x,1/2+y,1/2+z
1/2-x,-y,1/2+z
1/2+x,1/2-y,1/2-z
1/2-x,y,1/2-z
1/2-x,1/2-y,1/2-z
1/2+x,y,1/2-z
1/2-x,1/2+y,1/2+z
1/2+x,-y,1/2+z
loop_
_atom_site_type_symbol
_atom_site_label
_atom_site_fract_x
_atom_site_fract_y
_atom_site_fract_z
Si Si1 0.179135 0.178351 0.973595
Si Si2 0.821677 0.355053 0.863293
Si Si3 0.821777 0.542253 0.303151
Si Si4 0.180516 0.180783 0.300260
Si Si5 0.818597 0.561749 0.527554
Si Si6 0.822885 0.750000 0.301948
Si Si7 0.176726 0.574262 0.635208
O O1 0.233208 0.250000 0.983227
O O2 0.221849 0.158597 0.918836
O O3 0.000000 0.173809 0.982568
O O4 0.261060 0.127792 0.007331
O O5 0.766532 0.422012 0.846194
O O6 0.726436 0.310232 0.829906
O O7 0.000000 0.345586 0.854254
O O8 0.750000 0.554145 0.250000
O O9 0.794716 0.472417 0.320166
O O10 0.000000 0.560210 0.301507
O O11 0.237178 0.250000 0.310965
O O12 0.250000 0.155753 0.250000
O O13 0.241811 0.139514 0.345236
O O14 0.000000 0.176291 0.295602
O O15 0.755981 0.500000 0.500000
O O16 0.751908 0.556141 0.582843
O O17 0.000000 0.562493 0.524061
O O18 0.750000 0.750000 0.250000
O O19 0.000000 0.750000 0.294594
O O20 0.000000 0.580564 0.624079
#
# Coordination Sequence:
#
# PCOD8301031 Si02
#       7
#    16  16  16  16  16   8  16
#     4  10  22  41  62  86 118 155 196 246 300 355
#     4  11  22  40  60  81 114 154 193 236 287 341
#     4  11  22  37  57  84 117 154 196 242 290 346
#     4   9  17  31  52  77 106 142 181 222 274 337
#     4  10  21  38  60  87 117 150 194 246 295 350
#     4  12  24  38  58  84 114 148 190 234 281 336
#     4   9  19  35  55  80 113 149 187 234 286 342
#
# _framework density 20.011043000000001
#
# number of rings (size 3 to 8) (size 9 to 14) (size 15 to 20)
#    0.000    1.846    0.769    3.462    0.000    3.692 
#    0.000    4.615    0.000    1.846    0.000    0.000 
#    0.000    0.000    0.000    0.000    0.000    0.000 
#
# Total GULP energy -644543.059917 kJ/mol
# GULP energy per Si atom -12395.058845 kJ/mol
# Density = 1.996550 g / cm^3
# Si number density = 20.011043 Si / 1000 Ang^3
#
#
#
# Elastic Constant Matrix: (Units=GPa)
#
#
# Indices 1 2 3 4 5 6 
#
# 1 53.0907 16.9334 23.9672 0.0000 0.0000 0.0000
# 2 16.9334 116.6002 57.1628 0.0000 0.0000 0.0000
# 3 23.9672 57.1628 112.4872 0.0000 0.0000 0.0000
# 4 0.0000 0.0000 0.0000 41.8981 0.0000 0.0000
# 5 0.0000 0.0000 0.0000 0.0000 27.7916 0.0000
# 6 0.0000 0.0000 0.0000 0.0000 0.0000 29.7559
#
#
#
# Elastic Compliance Matrix: (Units=1/GPa)
#
#
# Indices 1 2 3 4 5 6 
#
# 1 0.020953 -0.001138 -0.003886 0.000000 0.000000 0.000000
# 2 -0.001138 0.011484 -0.005593 0.000000 0.000000 0.000000
# 3 -0.003886 -0.005593 0.012560 0.000000 0.000000 0.000000
# 4 0.000000 0.000000 0.000000 0.023867 0.000000 0.000000
# 5 0.000000 0.000000 0.000000 0.000000 0.035982 0.000000
# 6 0.000000 0.000000 0.000000 0.000000 0.000000 0.033607
#
#
# Mechanical properties :
#
#
# Convention : Reuss Voigt Hill
#
# Bulk Modulus (GPa) = 42.08314 53.14501 47.61408
# Shear Modulus (GPa) = 29.83146 32.16344 30.99745
#
# Velocity S-wave (km/s) = 3.86521 4.01344 3.94003
# Velocity P-wave (km/s) = 6.40277 6.93487 6.67413
#
# Compressibility (1/GPa) = 0.02376248
#
# Stress axis : x y z
#
# Youngs Moduli (GPa) = 47.72590 87.08073 79.61633
#
# Poissons Ratio (x) = 0.09907 0.30941
# Poissons Ratio (y) = 0.05430 0.44531
# Poissons Ratio (z) = 0.18547 0.48706
#
# Static dielectric constant tensor:
#      x y z
#    x 3.446930 0.000000 0.000000 
#    y 0.000000 3.717080 0.000000 
#    z 0.000000 0.000000 3.881400 
# 
# 
# High freq. dielectric constant tensor:
#      x y z
#    x 1.760780 0.000000 0.000000 
#    y 0.000000 1.797100 0.000000 
#    z 0.000000 0.000000 1.788130 
# 
# From -- ./inp_files/64460.got.cif
#   From: 2010.03.12/outbox.cif.g09.slc.cpg/sg74_33_cif.got.tgz:64460.got - 2010.04.16 15:46:19.
