data_PCOD8301616
_publ_section_title
;
Structure prediction by ZEFSAII (Michael W. Deem and Ramdas Pophale) SiO2 
 PCOD8301616
Probable space group: I M M A
;
_chemical_formula_sum "Si O2"
_cell_formula_units_Z 104
_cell_length_a 25.893661
_cell_length_b 24.450620
_cell_length_c 7.940208
_cell_angle_alpha 90.000000
_cell_angle_beta 90.000000
_cell_angle_gamma 90.000000
_cell_volume 5027.073248
_symmetry_space_group_name_H-M "I M M A"
_symmetry_group_IT_number 74
_symmetry_cell_setting 'orthorhombic'
loop_
_space_group_symop_operation_xyz
x,y,z
-x,1/2-y,z
x,-y,-z
-x,1/2+y,-z
-x,-y,-z
x,1/2+y,-z
-x,y,z
x,1/2-y,z
1/2+x,1/2+y,1/2+z
1/2-x,-y,1/2+z
1/2+x,1/2-y,1/2-z
1/2-x,y,1/2-z
1/2-x,1/2-y,1/2-z
1/2+x,y,1/2-z
1/2-x,1/2+y,1/2+z
1/2+x,-y,1/2+z
loop_
_atom_site_type_symbol
_atom_site_label
_atom_site_fract_x
_atom_site_fract_y
_atom_site_fract_z
Si Si1 0.647200 0.884539 0.601889
Si Si2 0.798274 0.534020 0.334479
Si Si3 0.155974 0.627601 0.517936
Si Si4 0.557944 0.187322 0.507115
Si Si5 0.757742 0.188614 0.052206
Si Si6 0.057796 0.186979 0.602119
Si Si7 0.841771 0.000000 0.000000
O O1 0.662588 0.895890 0.794634
O O2 0.596838 0.847012 0.605178
O O3 0.694876 0.852833 0.509727
O O4 0.630602 0.940360 0.501158
O O5 0.780612 0.500000 0.500000
O O6 0.750000 0.566407 0.250000
O O7 0.842536 0.576473 0.389211
O O8 0.813639 0.494244 0.180469
O O9 0.203917 0.667416 0.471653
O O10 0.100451 0.655602 0.505019
O O11 0.500000 0.167327 0.467824
O O12 0.564315 0.250000 0.454102
O O13 0.570841 0.179350 0.702605
O O14 0.769678 0.250000 0.981888
O O15 0.750000 0.192476 0.250000
O O16 0.060238 0.250000 0.550333
O O17 0.000000 0.164427 0.562273
#
# Coordination Sequence:
#
# PCOD8301616 Si02
#       7
#    16  16  16  16  16  16   8
#     4  11  22  37  60  88 125 167 208 264 320 378
#     4  12  24  40  63  89 123 166 215 262 311 378
#     4  11  22  37  60  93 125 161 214 260 320 382
#     4   9  19  38  63  90 122 165 215 263 320 387
#     4   9  19  34  53  84 125 162 195 246 316 377
#     4   9  19  37  61  89 124 165 208 262 322 383
#     4  12  24  40  61  86 126 168 213 264 310 370
#
# _framework density 20.687981000000001
#
# number of rings (size 3 to 8) (size 9 to 14) (size 15 to 20)
#    0.000    1.692    2.308    3.692    0.000    2.462 
#    0.000    1.923    0.000    6.000    0.000    0.000 
#    0.000    0.000    0.000    0.000    0.000    0.000 
#
# Total GULP energy -644248.227888 kJ/mol
# GULP energy per Si atom -12389.388998 kJ/mol
# Density = 2.064089 g / cm^3
# Si number density = 20.687981 Si / 1000 Ang^3
#
#
#
# Elastic Constant Matrix: (Units=GPa)
#
#
# Indices 1 2 3 4 5 6 
#
# 1 123.3568 53.1066 27.9129 0.0000 0.0000 0.0000
# 2 53.1066 109.1683 33.8609 0.0000 0.0000 0.0000
# 3 27.9129 33.8609 83.1034 0.0000 0.0000 0.0000
# 4 0.0000 0.0000 0.0000 26.4913 0.0000 0.0000
# 5 0.0000 0.0000 0.0000 0.0000 31.2885 0.0000
# 6 0.0000 0.0000 0.0000 0.0000 0.0000 21.2526
#
#
#
# Elastic Compliance Matrix: (Units=1/GPa)
#
#
# Indices 1 2 3 4 5 6 
#
# 1 0.010447 -0.004572 -0.001646 0.000000 0.000000 0.000000
# 2 -0.004572 0.012486 -0.003552 0.000000 0.000000 0.000000
# 3 -0.001646 -0.003552 0.014033 0.000000 0.000000 0.000000
# 4 0.000000 0.000000 0.000000 0.037748 0.000000 0.000000
# 5 0.000000 0.000000 0.000000 0.000000 0.031961 0.000000
# 6 0.000000 0.000000 0.000000 0.000000 0.000000 0.047053
#
#
# Mechanical properties :
#
#
# Convention : Reuss Voigt Hill
#
# Bulk Modulus (GPa) = 57.38274 60.59881 58.99077
# Shear Modulus (GPa) = 27.92097 29.18968 28.55533
#
# Velocity S-wave (km/s) = 3.67771 3.76033 3.71925
# Velocity P-wave (km/s) = 6.76990 6.94326 6.85713
#
# Compressibility (1/GPa) = 0.01742684
#
# Stress axis : x y z
#
# Youngs Moduli (GPa) = 95.71937 80.09117 71.25860
#
# Poissons Ratio (x) = 0.36614 0.11731
# Poissons Ratio (y) = 0.43759 0.25310
# Poissons Ratio (z) = 0.15758 0.28447
#
# Static dielectric constant tensor:
#      x y z
#    x 3.586630 0.000000 0.000000 
#    y 0.000000 3.711770 0.000000 
#    z 0.000000 0.000000 3.646220 
# 
# 
# High freq. dielectric constant tensor:
#      x y z
#    x 1.787790 0.000000 0.000000 
#    y 0.000000 1.803990 0.000000 
#    z 0.000000 0.000000 1.811650 
# 
# From -- ./inp_files/15235.got.cif
#   From: 2010.03.12/outbox.cif.g09.slc.cpg/sg74_8_cif.got.tgz:15235.got - 2010.04.16 15:46:19.
