data_PCOD8301390
_publ_section_title
;
Structure prediction by ZEFSAII (Michael W. Deem and Ramdas Pophale) SiO2 
 PCOD8301390
Probable space group: I M M A
;
_chemical_formula_sum "Si O2"
_cell_formula_units_Z 64
_cell_length_a 11.886406
_cell_length_b 8.573379
_cell_length_c 30.749234
_cell_angle_alpha 90.000000
_cell_angle_beta 90.000000
_cell_angle_gamma 90.000000
_cell_volume 3133.551845
_symmetry_space_group_name_H-M "I M M A"
_symmetry_group_IT_number 74
_symmetry_cell_setting 'orthorhombic'
loop_
_space_group_symop_operation_xyz
x,y,z
-x,1/2-y,z
x,-y,-z
-x,1/2+y,-z
-x,-y,-z
x,1/2+y,-z
-x,y,z
x,1/2-y,z
1/2+x,1/2+y,1/2+z
1/2-x,-y,1/2+z
1/2+x,1/2-y,1/2-z
1/2-x,y,1/2-z
1/2-x,1/2-y,1/2-z
1/2+x,y,1/2-z
1/2-x,1/2+y,1/2+z
1/2+x,-y,1/2+z
loop_
_atom_site_type_symbol
_atom_site_label
_atom_site_fract_x
_atom_site_fract_y
_atom_site_fract_z
Si Si1 0.264664 0.566172 0.455449
Si Si2 0.282951 0.930540 0.700989
Si Si3 0.000000 0.570263 0.162713
Si Si4 0.130610 0.067010 0.629078
Si Si5 0.500000 0.432062 0.430298
O O1 0.210980 0.500000 0.500000
O O2 0.262338 0.750000 0.457356
O O3 0.191991 0.506511 0.414539
O O4 0.391662 0.507916 0.451962
O O5 0.314510 0.750000 0.694707
O O6 0.250000 0.968413 0.750000
O O7 0.390111 0.036842 0.690896
O O8 0.179191 0.974014 0.670022
O O9 0.000000 0.750000 0.147643
O O10 0.000000 0.460192 0.121026
O O11 0.151833 0.250000 0.636175
O O12 0.000000 0.026779 0.624775
O O13 0.500000 0.250000 0.440155
#
# Coordination Sequence:
#
# PCOD8301390 Si02
#       5
#    16  16   8  16   8
#     4  11  23  40  63  92 127 166 211 261 314 376
#     4  11  25  43  65  95 130 167 210 261 314 371
#     4  12  24  41  67  96 128 168 210 259 316 377
#     4  10  23  43  65  91 125 167 214 261 311 374
#     4  12  23  39  64  94 129 164 206 261 319 377
#
# _framework density 20.424106999999999
#
# number of rings (size 3 to 8) (size 9 to 14) (size 15 to 20)
#    0.000    1.000    2.500    4.125    1.750    4.000 
#    0.000    0.000    0.000    0.000    0.000    0.000 
#    0.000    0.000    0.000    0.000    0.000    0.000 
#
# Total GULP energy -397021.356442 kJ/mol
# GULP energy per Si atom -12406.917389 kJ/mol
# Density = 2.037762 g / cm^3
# Si number density = 20.424107 Si / 1000 Ang^3
#
#
#
# Elastic Constant Matrix: (Units=GPa)
#
#
# Indices 1 2 3 4 5 6 
#
# 1 116.7190 20.5914 52.8552 0.0000 0.0000 0.0000
# 2 20.5914 59.0718 38.4821 0.0000 0.0000 0.0000
# 3 52.8552 38.4821 167.3118 0.0000 0.0000 0.0000
# 4 0.0000 0.0000 0.0000 34.3121 0.0000 0.0000
# 5 0.0000 0.0000 0.0000 0.0000 34.1623 0.0000
# 6 0.0000 0.0000 0.0000 0.0000 0.0000 11.2273
#
#
#
# Elastic Compliance Matrix: (Units=1/GPa)
#
#
# Indices 1 2 3 4 5 6 
#
# 1 0.010141 -0.001703 -0.002812 0.000000 0.000000 0.000000
# 2 -0.001703 0.020198 -0.004108 0.000000 0.000000 0.000000
# 3 -0.002812 -0.004108 0.007810 0.000000 0.000000 0.000000
# 4 0.000000 0.000000 0.000000 0.029144 0.000000 0.000000
# 5 0.000000 0.000000 0.000000 0.000000 0.029272 0.000000
# 6 0.000000 0.000000 0.000000 0.000000 0.000000 0.089069
#
#
# Mechanical properties :
#
#
# Convention : Reuss Voigt Hill
#
# Bulk Modulus (GPa) = 47.83795 62.99555 55.41675
# Shear Modulus (GPa) = 23.82677 31.35194 27.58935
#
# Velocity S-wave (km/s) = 3.41926 3.92222 3.67934
# Velocity P-wave (km/s) = 6.24993 7.17094 6.72622
#
# Compressibility (1/GPa) = 0.02090391
#
# Stress axis : x y z
#
# Youngs Moduli (GPa) = 98.60505 49.50954 128.04185
#
# Poissons Ratio (x) = 0.08433 0.36006
# Poissons Ratio (y) = 0.16795 0.52594
# Poissons Ratio (z) = 0.27728 0.20336
#
# Static dielectric constant tensor:
#      x y z
#    x 3.713950 0.000000 0.000000 
#    y 0.000000 3.693830 0.000000 
#    z 0.000000 0.000000 3.954230 
# 
# 
# High freq. dielectric constant tensor:
#      x y z
#    x 1.800450 0.000000 0.000000 
#    y 0.000000 1.802650 0.000000 
#    z 0.000000 0.000000 1.815080 
# 
# From -- ./inp_files/69767.got.cif
#   From: 2010.03.12/outbox.cif.g09.slc.cpg/sg74_35_cif.got.tgz:69767.got - 2010.04.16 15:46:19.
