data_PCOD8301044
_publ_section_title
;
Structure prediction by ZEFSAII (Michael W. Deem and Ramdas Pophale) SiO2 
 PCOD8301044
Probable space group: I M M A
;
_chemical_formula_sum "Si O2"
_cell_formula_units_Z 80
_cell_length_a 25.585081
_cell_length_b 17.743133
_cell_length_c 8.773025
_cell_angle_alpha 90.000000
_cell_angle_beta 90.000000
_cell_angle_gamma 90.000000
_cell_volume 3982.597999
_symmetry_space_group_name_H-M "I M M A"
_symmetry_group_IT_number 74
_symmetry_cell_setting 'orthorhombic'
loop_
_space_group_symop_operation_xyz
x,y,z
-x,1/2-y,z
x,-y,-z
-x,1/2+y,-z
-x,-y,-z
x,1/2+y,-z
-x,y,z
x,1/2-y,z
1/2+x,1/2+y,1/2+z
1/2-x,-y,1/2+z
1/2+x,1/2-y,1/2-z
1/2-x,y,1/2-z
1/2-x,1/2-y,1/2-z
1/2+x,y,1/2-z
1/2-x,1/2+y,1/2+z
1/2+x,-y,1/2+z
loop_
_atom_site_type_symbol
_atom_site_label
_atom_site_fract_x
_atom_site_fract_y
_atom_site_fract_z
Si Si1 0.600734 0.423675 0.310195
Si Si2 0.000000 0.161761 0.690287
Si Si3 0.601526 0.403980 0.656640
Si Si4 0.500000 0.923496 0.899556
Si Si5 0.303261 0.660571 0.832889
Si Si6 0.198265 0.838441 0.324221
O O1 0.588924 0.392826 0.479002
O O2 0.617392 0.510495 0.309370
O O3 0.550181 0.415436 0.206176
O O4 0.648100 0.374334 0.252375
O O5 0.949871 0.120140 0.755412
O O6 0.000000 0.149177 0.509108
O O7 0.000000 0.250000 0.729544
O O8 0.649118 0.353812 0.716236
O O9 0.500000 0.000000 0.000000
O O10 0.308677 0.750000 0.826655
O O11 0.250000 0.634367 0.750000
O O12 0.306274 0.628594 0.005211
O O13 0.205487 0.750000 0.338977
O O14 0.250000 0.874857 0.250000
#
# Coordination Sequence:
#
# PCOD8301044 Si02
#       6
#    16   8  16   8  16  16
#     4  11  24  40  65  90 124 166 210 256 323 377
#     4  12  25  41  65  93 123 162 208 256 317 383
#     4  11  23  41  61  91 123 161 210 259 307 386
#     4  12  23  43  66  91 126 169 207 270 323 381
#     4  10  22  40  63  93 127 164 211 266 321 382
#     4  10  21  38  61  87 121 164 206 255 318 377
#
# _framework density 20.087391
#
# number of rings (size 3 to 8) (size 9 to 14) (size 15 to 20)
#    0.000    1.200    2.000    3.600    0.000    8.000 
#    0.000    1.000    0.000    0.000    0.000    0.000 
#    0.000    0.000    0.000    0.000    0.000    0.000 
#
# Total GULP energy -496074.574329 kJ/mol
# GULP energy per Si atom -12401.864358 kJ/mol
# Density = 2.004167 g / cm^3
# Si number density = 20.087391 Si / 1000 Ang^3
#
#
#
# Elastic Constant Matrix: (Units=GPa)
#
#
# Indices 1 2 3 4 5 6 
#
# 1 162.0491 19.0341 65.5106 0.0000 0.0000 0.0000
# 2 19.0341 34.8281 28.9279 0.0000 0.0000 0.0000
# 3 65.5106 28.9279 154.1159 0.0000 0.0000 0.0000
# 4 0.0000 0.0000 0.0000 32.0738 0.0000 0.0000
# 5 0.0000 0.0000 0.0000 0.0000 40.0836 0.0000
# 6 0.0000 0.0000 0.0000 0.0000 0.0000 33.5628
#
#
#
# Elastic Compliance Matrix: (Units=1/GPa)
#
#
# Indices 1 2 3 4 5 6 
#
# 1 0.007538 -0.001728 -0.002880 0.000000 0.000000 0.000000
# 2 -0.001728 0.034411 -0.005725 0.000000 0.000000 0.000000
# 3 -0.002880 -0.005725 0.008787 0.000000 0.000000 0.000000
# 4 0.000000 0.000000 0.000000 0.031178 0.000000 0.000000
# 5 0.000000 0.000000 0.000000 0.000000 0.024948 0.000000
# 6 0.000000 0.000000 0.000000 0.000000 0.000000 0.029795
#
#
# Mechanical properties :
#
#
# Convention : Reuss Voigt Hill
#
# Bulk Modulus (GPa) = 33.25318 64.21536 48.73427
# Shear Modulus (GPa) = 29.87809 36.97875 33.42842
#
# Velocity S-wave (km/s) = 3.86087 4.29522 4.08382
# Velocity P-wave (km/s) = 6.03865 7.52568 6.82280
#
# Compressibility (1/GPa) = 0.03007232
#
# Stress axis : x y z
#
# Youngs Moduli (GPa) = 132.65817 29.06006 113.79962
#
# Poissons Ratio (x) = 0.05021 0.32774
# Poissons Ratio (y) = 0.22918 0.65147
# Poissons Ratio (z) = 0.38206 0.16636
#
# Static dielectric constant tensor:
#      x y z
#    x 3.384110 0.000000 0.000000 
#    y 0.000000 3.570510 0.000000 
#    z 0.000000 0.000000 4.141970 
# 
# 
# High freq. dielectric constant tensor:
#      x y z
#    x 1.798690 0.000000 0.000000 
#    y 0.000000 1.773110 0.000000 
#    z 0.000000 0.000000 1.807580 
# 
# From -- ./inp_files/13657.got.cif
#   From: 2010.03.12/outbox.cif.g09.slc.cpg/sg74_7_cif.got.tgz:13657.got - 2010.04.16 15:46:19.
