data_PCOD8301561
_publ_section_title
;
Structure prediction by ZEFSAII (Michael W. Deem and Ramdas Pophale) SiO2 
 PCOD8301561
Probable space group: I M M A
;
_chemical_formula_sum "Si O2"
_cell_formula_units_Z 80
_cell_length_a 9.674193
_cell_length_b 17.338825
_cell_length_c 26.471195
_cell_angle_alpha 90.000000
_cell_angle_beta 90.000000
_cell_angle_gamma 90.000000
_cell_volume 4440.255469
_symmetry_space_group_name_H-M "I M M A"
_symmetry_group_IT_number 74
_symmetry_cell_setting 'orthorhombic'
loop_
_space_group_symop_operation_xyz
x,y,z
-x,1/2-y,z
x,-y,-z
-x,1/2+y,-z
-x,-y,-z
x,1/2+y,-z
-x,y,z
x,1/2-y,z
1/2+x,1/2+y,1/2+z
1/2-x,-y,1/2+z
1/2+x,1/2-y,1/2-z
1/2-x,y,1/2-z
1/2-x,1/2-y,1/2-z
1/2+x,y,1/2-z
1/2-x,1/2+y,1/2+z
1/2+x,-y,1/2+z
loop_
_atom_site_type_symbol
_atom_site_label
_atom_site_fract_x
_atom_site_fract_y
_atom_site_fract_z
Si Si1 0.500000 0.160921 0.819934
Si Si2 0.500000 0.342287 0.701664
Si Si3 0.842985 0.662758 0.884439
Si Si4 0.251192 0.432453 0.846755
Si Si5 0.666435 0.091019 0.200474
Si Si6 0.840548 0.016054 0.054819
O O1 0.500000 0.250000 0.827978
O O2 0.500000 0.139834 0.760917
O O3 0.628359 0.128359 0.849994
O O4 0.500000 0.250000 0.690994
O O5 0.372029 0.384933 0.677309
O O6 0.826161 0.750000 0.903998
O O7 0.726470 0.646715 0.842714
O O8 0.818067 0.605943 0.931669
O O9 0.000000 0.648859 0.863056
O O10 0.294694 0.503057 0.811043
O O11 0.226093 0.461531 0.903213
O O12 0.500000 0.101470 0.205983
O O13 0.750000 0.116564 0.250000
O O14 0.000000 0.993283 0.052963
O O15 0.772150 0.000000 0.000000
#
# Coordination Sequence:
#
# PCOD8301561 Si02
#       6
#     8   8  16  16  16  16
#     4  11  22  36  53  78 121 159 186 227 286 336
#     4  11  22  36  55  82 115 157 196 233 278 332
#     4   9  19  36  57  82 112 144 181 226 278 332
#     4  11  21  36  56  83 110 149 192 236 275 339
#     4  11  22  34  55  82 110 149 188 226 272 329
#     4   9  18  36  62  85 108 141 186 238 285 328
#
# _framework density 18.016981000000001
#
# number of rings (size 3 to 8) (size 9 to 14) (size 15 to 20)
#    0.000    1.800    2.000    3.000    2.800    2.400 
#    0.000    2.500    0.000    0.000    0.000    0.000 
#    0.000    0.000    0.000    0.000    0.000    0.000 
#
# Total GULP energy -495821.264231 kJ/mol
# GULP energy per Si atom -12395.531606 kJ/mol
# Density = 1.797597 g / cm^3
# Si number density = 18.016981 Si / 1000 Ang^3
#
#
#
# Elastic Constant Matrix: (Units=GPa)
#
#
# Indices 1 2 3 4 5 6 
#
# 1 131.0355 60.4812 54.3559 0.0000 0.0000 0.0000
# 2 60.4812 121.4007 76.2919 0.0000 0.0000 0.0000
# 3 54.3559 76.2919 114.1578 0.0000 0.0000 0.0000
# 4 0.0000 0.0000 0.0000 17.6460 0.0000 0.0000
# 5 0.0000 0.0000 0.0000 0.0000 45.9340 0.0000
# 6 0.0000 0.0000 0.0000 0.0000 0.0000 31.8814
#
#
#
# Elastic Compliance Matrix: (Units=1/GPa)
#
#
# Indices 1 2 3 4 5 6 
#
# 1 0.010323 -0.003541 -0.002549 0.000000 0.000000 0.000000
# 2 -0.003541 0.015416 -0.008617 0.000000 0.000000 0.000000
# 3 -0.002549 -0.008617 0.015732 0.000000 0.000000 0.000000
# 4 0.000000 0.000000 0.000000 0.056670 0.000000 0.000000
# 5 0.000000 0.000000 0.000000 0.000000 0.021770 0.000000
# 6 0.000000 0.000000 0.000000 0.000000 0.000000 0.031366
#
#
# Mechanical properties :
#
#
# Convention : Reuss Voigt Hill
#
# Bulk Modulus (GPa) = 82.93087 83.20577 83.06832
# Shear Modulus (GPa) = 27.06932 30.78996 28.92964
#
# Velocity S-wave (km/s) = 3.88033 4.13842 4.01145
# Velocity P-wave (km/s) = 8.13665 8.31369 8.22565
#
# Compressibility (1/GPa) = 0.01205824
#
# Stress axis : x y z
#
# Youngs Moduli (GPa) = 96.86795 64.86606 63.56516
#
# Poissons Ratio (x) = 0.22971 0.16201
# Poissons Ratio (y) = 0.34304 0.54772
# Poissons Ratio (z) = 0.24689 0.55893
#
# Static dielectric constant tensor:
#      x y z
#    x 3.354180 0.000000 0.000000 
#    y 0.000000 3.437430 0.000000 
#    z 0.000000 0.000000 3.367550 
# 
# 
# High freq. dielectric constant tensor:
#      x y z
#    x 1.701340 0.000000 0.000000 
#    y 0.000000 1.706670 0.000000 
#    z 0.000000 0.000000 1.681060 
# 
# From -- ./inp_files/64046.got.cif
#   From: 2010.03.12/outbox.cif.g09.slc.cpg/sg74_33_cif.got.tgz:64046.got - 2010.04.16 15:46:19.
