data_PCOD8301714
_publ_section_title
;
Structure prediction by ZEFSAII (Michael W. Deem and Ramdas Pophale) SiO2 
 PCOD8301714
Probable space group: I M M A
;
_chemical_formula_sum "Si O2"
_cell_formula_units_Z 64
_cell_length_a 10.063198
_cell_length_b 25.539916
_cell_length_c 12.211057
_cell_angle_alpha 90.000000
_cell_angle_beta 90.000000
_cell_angle_gamma 90.000000
_cell_volume 3138.403221
_symmetry_space_group_name_H-M "I M M A"
_symmetry_group_IT_number 74
_symmetry_cell_setting 'orthorhombic'
loop_
_space_group_symop_operation_xyz
x,y,z
-x,1/2-y,z
x,-y,-z
-x,1/2+y,-z
-x,-y,-z
x,1/2+y,-z
-x,y,z
x,1/2-y,z
1/2+x,1/2+y,1/2+z
1/2-x,-y,1/2+z
1/2+x,1/2-y,1/2-z
1/2-x,y,1/2-z
1/2-x,1/2-y,1/2-z
1/2+x,y,1/2-z
1/2-x,1/2+y,1/2+z
1/2+x,-y,1/2+z
loop_
_atom_site_type_symbol
_atom_site_label
_atom_site_fract_x
_atom_site_fract_y
_atom_site_fract_z
Si Si1 0.500000 0.438600 0.017074
Si Si2 0.750000 0.144993 0.750000
Si Si3 0.235614 0.896162 0.872202
Si Si4 0.500000 0.077621 0.766489
Si Si5 0.500000 0.023483 0.379862
Si Si6 0.846896 0.808875 0.040855
O O1 0.627589 0.419161 0.082630
O O2 0.500000 0.500000 0.000000
O O3 0.500000 0.415646 0.896279
O O4 0.628174 0.107200 0.723387
O O5 0.745387 0.181281 0.857820
O O6 0.250000 0.873829 0.750000
O O7 0.132042 0.943199 0.867820
O O8 0.183440 0.848285 0.943302
O O9 0.500000 0.019185 0.717618
O O10 0.500000 0.000000 0.500000
O O11 0.820907 0.750000 0.998483
O O12 0.000000 0.815399 0.079037
#
# Coordination Sequence:
#
# PCOD8301714 Si02
#       6
#     8   8  16   8   8  16
#     4  12  26  42  64  99 134 181 228 275 334 402
#     4  12  23  46  66 106 136 170 225 288 344 410
#     4  12  25  45  66  97 140 177 230 286 331 401
#     4  12  26  40  69  95 142 178 221 276 343 412
#     4  12  26  42  66 100 135 189 227 266 337 418
#     4  11  24  45  72 100 134 182 229 285 352 410
#
# _framework density 20.392534999999999
#
# number of rings (size 3 to 8) (size 9 to 14) (size 15 to 20)
#    0.000    0.250    5.000    4.875    5.250    0.500 
#    0.000    1.875    0.000    0.000    0.000    0.000 
#    0.000    0.000    0.000    0.000    0.000    0.000 
#
# Total GULP energy -396856.270138 kJ/mol
# GULP energy per Si atom -12401.758442 kJ/mol
# Density = 2.034612 g / cm^3
# Si number density = 20.392535 Si / 1000 Ang^3
#
#
#
# Elastic Constant Matrix: (Units=GPa)
#
#
# Indices 1 2 3 4 5 6 
#
# 1 129.9203 62.9422 27.9578 0.0001 0.0000 -0.0003
# 2 62.9422 145.7100 52.3030 0.0000 0.0000 -0.0003
# 3 27.9578 52.3030 149.8701 -0.0002 -0.0006 -0.0002
# 4 0.0001 0.0000 -0.0002 35.2985 -0.0001 -0.0005
# 5 0.0000 0.0000 -0.0006 -0.0001 27.9278 0.0000
# 6 -0.0003 -0.0003 -0.0002 -0.0005 0.0000 -8.3636
#
#
#
# Elastic Compliance Matrix: (Units=1/GPa)
#
#
# Indices 1 2 3 4 5 6 
#
# 1 0.009755 -0.004071 -0.000399 0.000000 0.000000 0.000000
# 2 -0.004071 0.009544 -0.002572 0.000000 0.000000 0.000000
# 3 -0.000399 -0.002572 0.007644 0.000000 0.000000 0.000000
# 4 0.000000 0.000000 0.000000 0.028330 0.000000 -0.000002
# 5 0.000000 0.000000 0.000000 0.000000 0.035807 0.000000
# 6 0.000000 0.000000 0.000000 -0.000002 0.000000 -0.119566
#
#
# Mechanical properties :
#
#
# Convention : Reuss Voigt Hill
#
# Bulk Modulus (GPa) = 77.75355 79.10073 78.42714
# Shear Modulus (GPa) = -494.27248 29.79236 -232.24006
#
# Velocity S-wave (km/s) = -15.58542 3.82638 -10.68326
# Velocity P-wave (km/s) = 16.90155 7.64165 10.65992
#
# Compressibility (1/GPa) = 0.01286115
#
# Stress axis : x y z
#
# Youngs Moduli (GPa) = 102.51169 104.77390 130.81565
#
# Poissons Ratio (x) = 0.42649 0.05222
# Poissons Ratio (y) = 0.41728 0.33640
# Poissons Ratio (z) = 0.04092 0.26943
#
# Static dielectric constant tensor:
#      x y z
#    x 3.759110 0.000000 0.000000 
#    y 0.000000 3.744270 0.000000 
#    z 0.000000 0.000000 4.132820 
# 
# 
# High freq. dielectric constant tensor:
#      x y z
#    x 1.806980 0.000000 0.000000 
#    y 0.000000 1.800990 0.000000 
#    z 0.000000 0.000000 1.811860 
# 
# From -- ./inp_files/17643.got.cif
#   From: 2010.03.12/outbox.cif.g09.slc.cpg/sg74_9_cif.got.tgz:17643.got - 2010.04.16 15:46:19.
