data_PCOD8301385
_publ_section_title
;
Structure prediction by ZEFSAII (Michael W. Deem and Ramdas Pophale) SiO2 
 PCOD8301385
Probable space group: I M M A
;
_chemical_formula_sum "Si O2"
_cell_formula_units_Z 64
_cell_length_a 14.462604
_cell_length_b 10.136611
_cell_length_c 21.643791
_cell_angle_alpha 90.000000
_cell_angle_beta 90.000000
_cell_angle_gamma 90.000000
_cell_volume 3173.018520
_symmetry_space_group_name_H-M "I M M A"
_symmetry_group_IT_number 74
_symmetry_cell_setting 'orthorhombic'
loop_
_space_group_symop_operation_xyz
x,y,z
-x,1/2-y,z
x,-y,-z
-x,1/2+y,-z
-x,-y,-z
x,1/2+y,-z
-x,y,z
x,1/2-y,z
1/2+x,1/2+y,1/2+z
1/2-x,-y,1/2+z
1/2+x,1/2-y,1/2-z
1/2-x,y,1/2-z
1/2-x,1/2-y,1/2-z
1/2+x,y,1/2-z
1/2-x,1/2+y,1/2+z
1/2+x,-y,1/2+z
loop_
_atom_site_type_symbol
_atom_site_label
_atom_site_fract_x
_atom_site_fract_y
_atom_site_fract_z
Si Si1 0.661773 0.500000 0.500000
Si Si2 0.500000 0.897847 0.720709
Si Si3 0.500000 0.603042 0.576272
Si Si4 0.791009 0.750000 0.489388
Si Si5 0.336563 0.510628 0.793850
Si Si6 0.389065 0.750000 0.138209
Si Si7 0.611629 0.250000 0.120918
O O1 0.593707 0.527693 0.557566
O O2 0.726025 0.622985 0.484228
O O3 0.500000 0.750000 0.750462
O O4 0.500000 0.885997 0.648523
O O5 0.584763 0.982386 0.743239
O O6 0.500000 0.750000 0.546585
O O7 0.864657 0.750000 0.434017
O O8 0.851131 0.750000 0.551380
O O9 0.250000 0.528978 0.750000
O O10 0.340761 0.373540 0.829433
O O11 0.346167 0.622928 0.845575
O O12 0.500000 0.750000 0.145579
O O13 0.500000 0.250000 0.120439
#
# Coordination Sequence:
#
# PCOD8301385 Si02
#       7
#     8   8   8   8  16   8   8
#     4  11  24  46  63 106 132 176 225 280 324 405
#     4  11  23  42  70 105 130 174 226 277 333 398
#     4  10  23  42  72  94 143 174 217 275 345 389
#     4  12  27  41  72  96 132 178 234 275 329 392
#     4  12  25  43  70 101 135 175 220 278 337 400
#     4  12  26  49  64  93 141 178 217 275 341 402
#     4  12  24  47  70  99 131 172 233 281 327 390
#
# _framework density 20.170069000000002
#
# number of rings (size 3 to 8) (size 9 to 14) (size 15 to 20)
#    0.000    0.500    5.000    2.625    7.000    0.000 
#    0.000    5.000    0.000    0.000    0.000    0.000 
#    0.000    0.000    0.000    0.000    0.000    0.000 
#
# Total GULP energy -396782.635811 kJ/mol
# GULP energy per Si atom -12399.457369 kJ/mol
# Density = 2.012416 g / cm^3
# Si number density = 20.170069 Si / 1000 Ang^3
#
#
#
# Elastic Constant Matrix: (Units=GPa)
#
#
# Indices 1 2 3 4 5 6 
#
# 1 142.6048 51.7451 67.3407 0.0000 0.0000 0.0000
# 2 51.7451 160.4055 61.4764 0.0000 0.0000 0.0000
# 3 67.3407 61.4764 136.1528 0.0000 0.0000 0.0000
# 4 0.0000 0.0000 0.0000 22.2267 0.0000 0.0000
# 5 0.0000 0.0000 0.0000 0.0000 20.2356 0.0000
# 6 0.0000 0.0000 0.0000 0.0000 0.0000 10.9779
#
#
#
# Elastic Compliance Matrix: (Units=1/GPa)
#
#
# Indices 1 2 3 4 5 6 
#
# 1 0.009446 -0.001520 -0.003986 0.000000 0.000000 0.000000
# 2 -0.001520 0.007783 -0.002763 0.000000 0.000000 0.000000
# 3 -0.003986 -0.002763 0.010564 0.000000 0.000000 0.000000
# 4 0.000000 0.000000 0.000000 0.044991 0.000000 0.000000
# 5 0.000000 0.000000 0.000000 0.000000 0.049418 0.000000
# 6 0.000000 0.000000 0.000000 0.000000 0.000000 0.091092
#
#
# Mechanical properties :
#
#
# Convention : Reuss Voigt Hill
#
# Bulk Modulus (GPa) = 88.83810 88.92081 88.87945
# Shear Modulus (GPa) = 21.40579 27.92812 24.66696
#
# Velocity S-wave (km/s) = 3.26124 3.72510 3.50086
# Velocity P-wave (km/s) = 7.63682 7.91726 7.77831
#
# Compressibility (1/GPa) = 0.01125643
#
# Stress axis : x y z
#
# Youngs Moduli (GPa) = 105.86548 128.48122 94.66556
#
# Poissons Ratio (x) = 0.19524 0.37732
# Poissons Ratio (y) = 0.16087 0.26154
# Poissons Ratio (z) = 0.42196 0.35496
#
# Static dielectric constant tensor:
#      x y z
#    x 3.793290 0.000000 0.000000 
#    y 0.000000 4.271900 0.000000 
#    z 0.000000 0.000000 3.732160 
# 
# 
# High freq. dielectric constant tensor:
#      x y z
#    x 1.803440 0.000000 0.000000 
#    y 0.000000 1.799520 0.000000 
#    z 0.000000 0.000000 1.801300 
# 
# From -- ./inp_files/59573.got.cif
#   From: 2010.03.12/outbox.cif.g09.slc.cpg/sg74_30_cif.got.tgz:59573.got - 2010.04.16 15:46:19.
