data_PCOD8301015
_publ_section_title
;
Structure prediction by ZEFSAII (Michael W. Deem and Ramdas Pophale) SiO2 
 PCOD8301015
Probable space group: I M M A
;
_chemical_formula_sum "Si O2"
_cell_formula_units_Z 104
_cell_length_a 16.612087
_cell_length_b 11.908231
_cell_length_c 26.319159
_cell_angle_alpha 90.000000
_cell_angle_beta 90.000000
_cell_angle_gamma 90.000000
_cell_volume 5206.471019
_symmetry_space_group_name_H-M "I M M A"
_symmetry_group_IT_number 74
_symmetry_cell_setting 'orthorhombic'
loop_
_space_group_symop_operation_xyz
x,y,z
-x,1/2-y,z
x,-y,-z
-x,1/2+y,-z
-x,-y,-z
x,1/2+y,-z
-x,y,z
x,1/2-y,z
1/2+x,1/2+y,1/2+z
1/2-x,-y,1/2+z
1/2+x,1/2-y,1/2-z
1/2-x,y,1/2-z
1/2-x,1/2-y,1/2-z
1/2+x,y,1/2-z
1/2-x,1/2+y,1/2+z
1/2+x,-y,1/2+z
loop_
_atom_site_type_symbol
_atom_site_label
_atom_site_fract_x
_atom_site_fract_y
_atom_site_fract_z
Si Si1 0.094765 0.750000 0.784579
Si Si2 0.909615 0.117674 0.865313
Si Si3 0.903898 0.750000 0.899870
Si Si4 0.178714 0.468818 0.058382
Si Si5 0.092655 0.573901 0.702462
Si Si6 0.339338 0.875560 0.904384
Si Si7 0.343130 0.620708 0.257810
Si Si8 0.000000 0.117021 0.467246
O O1 0.130889 0.750000 0.841738
O O2 0.122627 0.641702 0.752263
O O3 0.000000 0.750000 0.790901
O O4 0.911106 0.250000 0.869834
O O5 0.868582 0.077942 0.813265
O O6 0.000000 0.067867 0.866743
O O7 0.858124 0.073080 0.911778
O O8 0.871961 0.858221 0.929266
O O9 0.000000 0.750000 0.901222
O O10 0.272055 0.458910 0.074050
O O11 0.172119 0.500000 0.000000
O O12 0.147771 0.607022 0.655311
O O13 0.104991 0.443196 0.715180
O O14 0.000000 0.601073 0.689444
O O15 0.307345 0.750000 0.913824
O O16 0.422121 0.896866 0.932967
O O17 0.364517 0.750000 0.250080
O O18 0.250000 0.594861 0.250000
O O19 0.000000 0.250000 0.490693
O O20 0.000000 0.000000 0.500000
#
# Coordination Sequence:
#
# PCOD8301015 Si02
#       8
#     8  16   8  16  16  16  16   8
#     4   9  20  35  61  95 132 165 203 258 326 381
#     4  10  22  41  65  91 125 172 223 266 321 394
#     4  11  24  43  63  94 134 169 216 275 329 398
#     4  12  26  43  65  92 125 166 219 282 340 381
#     4  11  20  35  63  96 130 169 211 257 324 398
#     4  11  22  42  66  95 131 169 221 273 339 412
#     4  10  21  38  59  89 131 174 214 260 317 381
#     4  10  22  42  70  96 130 178 234 290 346 406
#
# _framework density 19.975142000000002
#
# number of rings (size 3 to 8) (size 9 to 14) (size 15 to 20)
#    0.000    1.385    2.308    3.231    1.077    3.385 
#    0.000    2.692    0.000    0.000    0.000    0.000 
#    0.000    0.000    0.000    0.000    0.000    0.000 
#
# Total GULP energy -644721.475192 kJ/mol
# GULP energy per Si atom -12398.489908 kJ/mol
# Density = 1.992968 g / cm^3
# Si number density = 19.975142 Si / 1000 Ang^3
#
#
#
# Elastic Constant Matrix: (Units=GPa)
#
#
# Indices 1 2 3 4 5 6 
#
# 1 110.1636 35.1531 58.3913 0.0000 0.0000 0.0000
# 2 35.1531 80.3366 57.1081 0.0000 0.0000 0.0000
# 3 58.3913 57.1081 144.5465 0.0000 0.0000 0.0000
# 4 0.0000 0.0000 0.0000 32.9978 0.0000 0.0000
# 5 0.0000 0.0000 0.0000 0.0000 30.6056 0.0000
# 6 0.0000 0.0000 0.0000 0.0000 0.0000 27.8722
#
#
#
# Elastic Compliance Matrix: (Units=1/GPa)
#
#
# Indices 1 2 3 4 5 6 
#
# 1 0.011898 -0.002488 -0.003823 0.000000 0.000000 0.000000
# 2 -0.002488 0.017829 -0.006039 0.000000 0.000000 0.000000
# 3 -0.003823 -0.006039 0.010848 0.000000 0.000000 0.000000
# 4 0.000000 0.000000 0.000000 0.030305 0.000000 0.000000
# 5 0.000000 0.000000 0.000000 0.000000 0.032674 0.000000
# 6 0.000000 0.000000 0.000000 0.000000 0.000000 0.035878
#
#
# Mechanical properties :
#
#
# Convention : Reuss Voigt Hill
#
# Bulk Modulus (GPa) = 62.99318 70.70573 66.84945
# Shear Modulus (GPa) = 29.51161 30.58808 30.04984
#
# Velocity S-wave (km/s) = 3.84789 3.91744 3.88282
# Velocity P-wave (km/s) = 7.16561 7.47900 7.32398
#
# Compressibility (1/GPa) = 0.01587474
#
# Stress axis : x y z
#
# Youngs Moduli (GPa) = 84.04840 56.08760 92.17915
#
# Poissons Ratio (x) = 0.13957 0.35241
# Poissons Ratio (y) = 0.20915 0.55665
# Poissons Ratio (z) = 0.32133 0.33870
#
# Static dielectric constant tensor:
#      x y z
#    x 3.731470 0.000000 0.000000 
#    y 0.000000 3.817830 0.000000 
#    z 0.000000 0.000000 3.678460 
# 
# 
# High freq. dielectric constant tensor:
#      x y z
#    x 1.788120 0.000000 0.000000 
#    y 0.000000 1.787770 0.000000 
#    z 0.000000 0.000000 1.774720 
# 
# From -- ./inp_files/67793.got.cif
#   From: 2010.03.12/outbox.cif.g09.slc.cpg/sg74_34_cif.got.tgz:67793.got - 2010.04.16 15:46:19.
