data_PCOD8301636
_publ_section_title
;
Structure prediction by ZEFSAII (Michael W. Deem and Ramdas Pophale) SiO2 
 PCOD8301636
Probable space group: I M M A
;
_chemical_formula_sum "Si O2"
_cell_formula_units_Z 64
_cell_length_a 20.917860
_cell_length_b 16.337979
_cell_length_c 8.625061
_cell_angle_alpha 90.000000
_cell_angle_beta 90.000000
_cell_angle_gamma 90.000000
_cell_volume 2947.662530
_symmetry_space_group_name_H-M "I M M A"
_symmetry_group_IT_number 74
_symmetry_cell_setting 'orthorhombic'
loop_
_space_group_symop_operation_xyz
x,y,z
-x,1/2-y,z
x,-y,-z
-x,1/2+y,-z
-x,-y,-z
x,1/2+y,-z
-x,y,z
x,1/2-y,z
1/2+x,1/2+y,1/2+z
1/2-x,-y,1/2+z
1/2+x,1/2-y,1/2-z
1/2-x,y,1/2-z
1/2-x,1/2-y,1/2-z
1/2+x,y,1/2-z
1/2-x,1/2+y,1/2+z
1/2+x,-y,1/2+z
loop_
_atom_site_type_symbol
_atom_site_label
_atom_site_fract_x
_atom_site_fract_y
_atom_site_fract_z
Si Si1 0.000000 0.656434 0.582752
Si Si2 0.244667 0.590377 0.932980
Si Si3 0.874587 0.154914 0.899063
Si Si4 0.000000 0.847154 0.922870
Si Si5 0.374599 0.091037 0.934712
O O1 0.937738 0.638543 0.482703
O O2 0.000000 0.750000 0.624419
O O3 0.000000 0.611746 0.750688
O O4 0.250000 0.586789 0.750000
O O5 0.235519 0.500000 0.000000
O O6 0.185869 0.646161 0.987274
O O7 0.310379 0.631091 0.995034
O O8 0.880944 0.250000 0.848780
O O9 0.867450 0.096041 0.750621
O O10 0.936996 0.122606 0.988554
O O11 0.000000 0.750000 0.914588
O O12 0.380887 0.000000 0.000000
#
# Coordination Sequence:
#
# PCOD8301636 Si02
#       5
#     8  16  16   8  16
#     4  11  22  39  63  90 123 161 207 260 309 364
#     4  11  23  41  63  90 126 165 207 256 310 370
#     4  11  23  41  65  92 125 165 210 258 310 368
#     4   9  21  39  58  86 120 155 198 252 311 364
#     4  11  23  40  61  89 124 163 207 253 309 375
#
# _framework density 21.712118
#
# number of rings (size 3 to 8) (size 9 to 14) (size 15 to 20)
#    0.000    1.250    0.000    7.125    0.000    4.500 
#    0.000    1.875    0.000    0.000    0.000    0.000 
#    0.000    0.000    0.000    0.000    0.000    0.000 
#
# Total GULP energy -396847.264629 kJ/mol
# GULP energy per Si atom -12401.477020 kJ/mol
# Density = 2.166270 g / cm^3
# Si number density = 21.712118 Si / 1000 Ang^3
#
#
#
# Elastic Constant Matrix: (Units=GPa)
#
#
# Indices 1 2 3 4 5 6 
#
# 1 204.9462 17.0992 69.8761 0.0000 0.0000 0.0000
# 2 17.0992 49.8217 23.1574 0.0000 0.0000 0.0000
# 3 69.8761 23.1574 189.9730 0.0000 0.0000 0.0000
# 4 0.0000 0.0000 0.0000 31.0585 0.0000 0.0000
# 5 0.0000 0.0000 0.0000 0.0000 34.3561 0.0000
# 6 0.0000 0.0000 0.0000 0.0000 0.000040052.2455
#
#
#
# Elastic Compliance Matrix: (Units=1/GPa)
#
#
# Indices 1 2 3 4 5 6 
#
# 1 0.005628 -0.001028 -0.001945 0.000000 0.000000 0.000000
# 2 -0.001028 0.021465 -0.002239 0.000000 0.000000 0.000000
# 3 -0.001945 -0.002239 0.006252 0.000000 0.000000 0.000000
# 4 0.000000 0.000000 0.000000 0.032197 0.000000 0.000000
# 5 0.000000 0.000000 0.000000 0.000000 0.029107 0.000000
# 6 0.000000 0.000000 0.000000 0.000000 0.000000 0.000025
#
#
# Mechanical properties :
#
#
# Convention : Reuss Voigt Hill
#
# Bulk Modulus (GPa) = 43.62437 73.88958 58.75697
# Shear Modulus (GPa) = 44.35084 8045.83922 4045.09503
#
# Velocity S-wave (km/s) = 4.52450 60.94042 43.20999
# Velocity P-wave (km/s) = 6.88699 70.60986 50.16564
#
# Compressibility (1/GPa) = 0.02292297
#
# Stress axis : x y z
#
# Youngs Moduli (GPa) = 177.67738 46.58797 159.94483
#
# Poissons Ratio (x) = 0.04788 0.31108
# Poissons Ratio (y) = 0.18259 0.35804
# Poissons Ratio (z) = 0.34556 0.10429
#
# Static dielectric constant tensor:
#      x y z
#    x 4.517310 0.000000 0.000000 
#    y 0.000000 3.652200 0.000000 
#    z 0.000000 0.000000 4.048860 
# 
# 
# High freq. dielectric constant tensor:
#      x y z
#    x 1.878330 0.000000 0.000000 
#    y 0.000000 1.826580 0.000000 
#    z 0.000000 0.000000 1.870800 
# 
# From -- ./inp_files/11817.got.cif
#   From: 2010.03.12/outbox.cif.g09.slc.cpg/sg74_6_cif.got.tgz:11817.got - 2010.04.16 15:46:19.
