data_PCOD8301007
_publ_section_title
;
Structure prediction by ZEFSAII (Michael W. Deem and Ramdas Pophale) SiO2 
 PCOD8301007
Probable space group: I M M A
;
_chemical_formula_sum "Si O2"
_cell_formula_units_Z 88
_cell_length_a 21.971445
_cell_length_b 8.539436
_cell_length_c 23.780499
_cell_angle_alpha 90.000000
_cell_angle_beta 90.000000
_cell_angle_gamma 90.000000
_cell_volume 4461.786361
_symmetry_space_group_name_H-M "I M M A"
_symmetry_group_IT_number 74
_symmetry_cell_setting 'orthorhombic'
loop_
_space_group_symop_operation_xyz
x,y,z
-x,1/2-y,z
x,-y,-z
-x,1/2+y,-z
-x,-y,-z
x,1/2+y,-z
-x,y,z
x,1/2-y,z
1/2+x,1/2+y,1/2+z
1/2-x,-y,1/2+z
1/2+x,1/2-y,1/2-z
1/2-x,y,1/2-z
1/2-x,1/2-y,1/2-z
1/2+x,y,1/2-z
1/2-x,1/2+y,1/2+z
1/2+x,-y,1/2+z
loop_
_atom_site_type_symbol
_atom_site_label
_atom_site_fract_x
_atom_site_fract_y
_atom_site_fract_z
Si Si1 0.726823 0.567831 0.688833
Si Si2 0.500000 0.434820 0.436796
Si Si3 0.931815 0.069325 0.438665
Si Si4 0.157715 0.066788 0.648036
Si Si5 0.436097 0.431880 0.766202
Si Si6 0.899070 0.569205 0.144061
O O1 0.714020 0.750000 0.695186
O O2 0.750000 0.498837 0.750000
O O3 0.780098 0.530387 0.644270
O O4 0.667835 0.493505 0.659495
O O5 0.500000 0.250000 0.439691
O O6 0.500000 0.500000 0.500000
O O7 0.562816 0.486714 0.405751
O O8 0.911343 0.250000 0.438478
O O9 0.000000 0.051725 0.413573
O O10 0.930685 0.000000 0.500000
O O11 0.884225 0.964137 0.405167
O O12 0.173208 0.250000 0.653001
O O13 0.121922 0.994472 0.702604
O O14 0.500000 0.503689 0.788819
O O15 0.433841 0.250000 0.781728
O O16 0.437574 0.457906 0.699984
O O17 0.893013 0.750000 0.127267
#
# Coordination Sequence:
#
# PCOD8301007 Si02
#       6
#    16   8  16  16  16  16
#     4  11  23  38  57  87 128 168 205 250 306 368
#     4  12  26  46  70  98 128 166 211 262 321 378
#     4  10  21  38  59  84 116 156 199 248 299 352
#     4  11  21  35  58  87 120 161 206 249 296 360
#     4   9  17  30  53  86 120 154 196 245 298 355
#     4  11  21  39  65  92 122 160 206 255 308 369
#
# _framework density 19.723040999999998
#
# number of rings (size 3 to 8) (size 9 to 14) (size 15 to 20)
#    0.000    1.455    2.727    3.545    0.000    2.545 
#    0.000    0.909    0.000    0.000    0.000    0.000 
#    0.000    0.000    0.000    0.000    0.000    0.000 
#
# Total GULP energy -545189.837974 kJ/mol
# GULP energy per Si atom -12390.678136 kJ/mol
# Density = 1.967815 g / cm^3
# Si number density = 19.723041 Si / 1000 Ang^3
#
#
#
# Elastic Constant Matrix: (Units=GPa)
#
#
# Indices 1 2 3 4 5 6 
#
# 1 160.1508 42.9932 51.3556 0.0000 0.0000 0.0000
# 2 42.9932 87.8159 39.3123 0.0000 0.0000 0.0000
# 3 51.3556 39.3123 88.6531 0.0000 0.0000 0.0000
# 4 0.0000 0.0000 0.0000 28.5327 0.0000 0.0000
# 5 0.0000 0.0000 0.0000 0.0000 64.8234 0.0000
# 6 0.0000 0.0000 0.0000 0.0000 0.0000 21.0835
#
#
#
# Elastic Compliance Matrix: (Units=1/GPa)
#
#
# Indices 1 2 3 4 5 6 
#
# 1 0.008026 -0.002306 -0.003627 0.000000 0.000000 0.000000
# 2 -0.002306 0.014870 -0.005258 0.000000 0.000000 0.000000
# 3 -0.003627 -0.005258 0.015713 0.000000 0.000000 0.000000
# 4 0.000000 0.000000 0.000000 0.035048 0.000000 0.000000
# 5 0.000000 0.000000 0.000000 0.000000 0.015427 0.000000
# 6 0.000000 0.000000 0.000000 0.000000 0.000000 0.047430
#
#
# Mechanical properties :
#
#
# Convention : Reuss Voigt Hill
#
# Bulk Modulus (GPa) = 61.62583 67.10467 64.36525
# Shear Modulus (GPa) = 30.43118 36.41849 33.42484
#
# Velocity S-wave (km/s) = 3.93227 4.30175 4.12115
# Velocity P-wave (km/s) = 7.20628 7.66621 7.43980
#
# Compressibility (1/GPa) = 0.01622696
#
# Stress axis : x y z
#
# Youngs Moduli (GPa) = 124.59229 67.24790 63.64259
#
# Poissons Ratio (x) = 0.15506 0.23083
# Poissons Ratio (y) = 0.28729 0.33466
# Poissons Ratio (z) = 0.45189 0.35361
#
# Static dielectric constant tensor:
#      x y z
#    x 3.764130 0.000000 0.000000 
#    y 0.000000 3.515470 0.000000 
#    z 0.000000 0.000000 23.113660 
# 
# 
# High freq. dielectric constant tensor:
#      x y z
#    x 1.785820 0.000000 0.000000 
#    y 0.000000 1.761250 0.000000 
#    z 0.000000 0.000000 1.751800 
# 
# From -- ./inp_files/61429.got.cif
#   From: 2010.03.12/outbox.cif.g09.slc.cpg/sg74_31_cif.got.tgz:61429.got - 2010.04.16 15:46:19.
