data_PCOD8301823
_publ_section_title
;
Structure prediction by ZEFSAII (Michael W. Deem and Ramdas Pophale) SiO2 
 PCOD8301823
Probable space group: I M M A
;
_chemical_formula_sum "Si O2"
_cell_formula_units_Z 48
_cell_length_a 9.000000
_cell_length_b 24.000000
_cell_length_c 24.000000
_cell_angle_alpha 90.000000
_cell_angle_beta 90.000000
_cell_angle_gamma 90.000000
_cell_volume 5184.000000
_symmetry_space_group_name_H-M "I M M A"
_symmetry_group_IT_number 74
_symmetry_cell_setting 'orthorhombic'
loop_
_space_group_symop_operation_xyz
x,y,z
-x,1/2-y,z
x,-y,-z
-x,1/2+y,-z
-x,-y,-z
x,1/2+y,-z
-x,y,z
x,1/2-y,z
1/2+x,1/2+y,1/2+z
1/2-x,-y,1/2+z
1/2+x,1/2-y,1/2-z
1/2-x,y,1/2-z
1/2-x,1/2-y,1/2-z
1/2+x,y,1/2-z
1/2-x,1/2+y,1/2+z
1/2+x,-y,1/2+z
loop_
_atom_site_type_symbol
_atom_site_label
_atom_site_fract_x
_atom_site_fract_y
_atom_site_fract_z
Si Si1 0.825481 0.528153 0.691602
Si Si2 0.836482 0.814555 0.801268
Si Si3 0.173924 0.098276 0.692701
Si Si4 0.325088 0.313432 0.485691
Si Si5 0.828442 0.186910 0.601465
Si Si6 0.824733 0.874419 0.609337
O O1 0.750000 0.545065 0.750000
O O2 0.782088 0.464843 0.674737
O O3 0.773018 0.568558 0.640697
O O4 0.000000 0.534837 0.700617
O O5 0.857155 0.750000 0.789382
O O6 0.750000 0.843554 0.750000
O O7 0.735976 0.822483 0.855322
O O8 0.000000 0.842097 0.807998
O O9 0.250000 0.115297 0.750000
O O10 0.227743 0.142437 0.646807
O O11 0.000000 0.103046 0.702283
O O12 0.500000 0.321665 0.480546
O O13 0.281214 0.250000 0.466857
O O14 0.274845 0.322855 0.548589
O O15 0.247244 0.363290 0.450864
O O16 0.808883 0.250000 0.624528
O O17 0.000000 0.176047 0.585062
O O18 0.000000 0.872155 0.602930
#
# Coordination Sequence:
#
# PCOD8301823 Si02
#       6
#    16  16  16  16  16  16
#     4   9  19  34  51  73 101 135 172 209 252 298
#     4  10  20  32  45  64  92 124 160 207 261 309
#     4   9  18  34  55  79 108 137 165 201 246 298
#     4  10  21  36  53  74 101 133 169 211 258 304
#     4   9  18  34  56  80 105 134 167 203 246 298
#     4  11  21  32  49  71  95 129 173 213 251 299
#
# _framework density 9.2592590000000001
#
# number of rings (size 3 to 8) (size 9 to 14) (size 15 to 20)
#    0.000    2.333    0.000    2.500    0.000    7.667 
#    0.000    0.833    0.000    5.000    0.000    0.000 
#    0.000    0.000    0.000    0.000    0.000    0.000 
#
# Total GULP energy -594983.423329 kJ/mol
# GULP energy per Si atom -12395.487986 kJ/mol
# Density = 0.923818 g / cm^3
# Si number density = 9.259259 Si / 1000 Ang^3
#
#
#
# Elastic Constant Matrix: (Units=GPa)
#
#
# Indices 1 2 3 4 5 6 
#
# 1 64.4149 48.2550 49.2235 0.0000 0.0000 0.0000
# 2 48.2550 114.4674 75.9598 0.0000 0.0000 0.0000
# 3 49.2235 75.9598 111.9786 0.0000 0.0000 0.0000
# 4 0.0000 0.0000 0.0000 37.7238 0.0000 0.0000
# 5 0.0000 0.0000 0.0000 0.0000 33.4375 0.0000
# 6 0.0000 0.0000 0.0000 0.0000 0.0000 16.8609
#
#
#
# Elastic Compliance Matrix: (Units=1/GPa)
#
#
# Indices 1 2 3 4 5 6 
#
# 1 0.025467 -0.006014 -0.007115 0.000000 0.000000 0.000000
# 2 -0.006014 0.017308 -0.009097 0.000000 0.000000 0.000000
# 3 -0.007115 -0.009097 0.018229 0.000000 0.000000 0.000000
# 4 0.000000 0.000000 0.000000 0.026508 0.000000 0.000000
# 5 0.000000 0.000000 0.000000 0.000000 0.029907 0.000000
# 6 0.000000 0.000000 0.000000 0.000000 0.000000 0.059309
#
#
# Mechanical properties :
#
#
# Convention : Reuss Voigt Hill
#
# Bulk Modulus (GPa) = 60.41895 70.85973 65.63934
# Shear Modulus (GPa) = 22.05578 25.43262 23.74420
#
# Velocity S-wave (km/s) = 3.45485 3.70991 3.58465
# Velocity P-wave (km/s) = 6.97221 7.52984 7.25639
#
# Compressibility (1/GPa) = 0.01655110
#
# Stress axis : x y z
#
# Youngs Moduli (GPa) = 39.26667 57.77545 54.85819
#
# Poissons Ratio (x) = 0.34749 0.39031
# Poissons Ratio (y) = 0.23617 0.49905
# Poissons Ratio (z) = 0.27938 0.52559
#
# Static dielectric constant tensor:
#      x y z
#    x 3.516000 0.000000 0.000000 
#    y 0.000000 3.566810 0.000000 
#    z 0.000000 0.000000 3.340140 
# 
# 
# High freq. dielectric constant tensor:
#      x y z
#    x 1.722230 0.000000 0.000000 
#    y 0.000000 1.714710 0.000000 
#    z 0.000000 0.000000 1.705390 
# 
# From -- ./inp_files/57262.got.cif
#   From: 2010.03.12/outbox.ucp.g09.slc.cvg/sg74_29_cif.got.tgz:57262.got - 2010.05.04 20:08:06.
