data_PCOD8301515
_publ_section_title
;
Structure prediction by ZEFSAII (Michael W. Deem and Ramdas Pophale) SiO2 
 PCOD8301515
Probable space group: I M M A
;
_chemical_formula_sum "Si O2"
_cell_formula_units_Z 96
_cell_length_a 25.422371
_cell_length_b 18.321747
_cell_length_c 11.222228
_cell_angle_alpha 90.000000
_cell_angle_beta 90.000000
_cell_angle_gamma 90.000000
_cell_volume 5227.114603
_symmetry_space_group_name_H-M "I M M A"
_symmetry_group_IT_number 74
_symmetry_cell_setting 'orthorhombic'
loop_
_space_group_symop_operation_xyz
x,y,z
-x,1/2-y,z
x,-y,-z
-x,1/2+y,-z
-x,-y,-z
x,1/2+y,-z
-x,y,z
x,1/2-y,z
1/2+x,1/2+y,1/2+z
1/2-x,-y,1/2+z
1/2+x,1/2-y,1/2-z
1/2-x,y,1/2-z
1/2-x,1/2-y,1/2-z
1/2+x,y,1/2-z
1/2-x,1/2+y,1/2+z
1/2+x,-y,1/2+z
loop_
_atom_site_type_symbol
_atom_site_label
_atom_site_fract_x
_atom_site_fract_y
_atom_site_fract_z
Si Si1 0.719633 0.927806 0.936793
Si Si2 0.385773 0.921681 0.291632
Si Si3 0.500000 0.542485 0.313002
Si Si4 0.827690 0.928654 0.809307
Si Si5 0.500000 0.605944 0.575632
Si Si6 0.702712 0.164236 0.839864
Si Si7 0.892046 0.667190 0.968470
O O1 0.775914 0.949114 0.883058
O O2 0.682010 0.907134 0.827599
O O3 0.721132 0.860417 0.028875
O O4 0.696885 0.000000 0.000000
O O5 0.447068 0.926732 0.248338
O O6 0.350024 0.880287 0.194475
O O7 0.381542 0.879514 0.414753
O O8 0.366790 0.003266 0.317652
O O9 0.500000 0.567779 0.448375
O O10 0.500000 0.454107 0.318169
O O11 0.852003 0.856576 0.866352
O O12 0.550187 0.657852 0.586149
O O13 0.690193 0.250000 0.839843
O O14 0.750000 0.144640 0.750000
O O15 0.881075 0.750000 0.003621
#
# Coordination Sequence:
#
# PCOD8301515 Si02
#       7
#    16  16   8  16   8  16  16
#     4  11  22  37  56  84 111 149 191 237 284 341
#     4  11  20  37  59  87 115 152 196 243 287 348
#     4   9  18  32  58  84 112 145 192 242 290 332
#     4  11  22  35  59  81 113 150 193 234 282 345
#     4   9  17  32  50  81 113 146 177 231 284 338
#     4  11  23  39  60  86 119 154 190 239 294 344
#     4  11  21  33  53  83 117 149 183 227 289 344
#
# _framework density 18.365773000000001
#
# number of rings (size 3 to 8) (size 9 to 14) (size 15 to 20)
#    0.000    1.333    3.333    4.250    0.000    2.667 
#    0.000    2.917    0.000    3.000    0.000    0.000 
#    0.000    0.000    0.000    0.000    0.000    0.000 
#
# Total GULP energy -595231.426856 kJ/mol
# GULP energy per Si atom -12400.654726 kJ/mol
# Density = 1.832397 g / cm^3
# Si number density = 18.365773 Si / 1000 Ang^3
#
#
#
# Elastic Constant Matrix: (Units=GPa)
#
#
# Indices 1 2 3 4 5 6 
#
# 1 103.9537 34.8043 39.5566 0.0000 0.0000 0.0000
# 2 34.8043 81.7662 32.5011 0.0000 0.0000 0.0000
# 3 39.5566 32.5011 97.1651 0.0000 0.0000 0.0000
# 4 0.0000 0.0000 0.0000 22.0098 0.0000 0.0000
# 5 0.0000 0.0000 0.0000 0.0000 23.3499 0.0000
# 6 0.0000 0.0000 0.0000 0.0000 0.0000 37.2098
#
#
#
# Elastic Compliance Matrix: (Units=1/GPa)
#
#
# Indices 1 2 3 4 5 6 
#
# 1 0.012302 -0.003744 -0.003756 0.000000 0.000000 0.000000
# 2 -0.003744 0.015245 -0.003575 0.000000 0.000000 0.000000
# 3 -0.003756 -0.003575 0.013017 0.000000 0.000000 0.000000
# 4 0.000000 0.000000 0.000000 0.045434 0.000000 0.000000
# 5 0.000000 0.000000 0.000000 0.000000 0.042827 0.000000
# 6 0.000000 0.000000 0.000000 0.000000 0.000000 0.026875
#
#
# Mechanical properties :
#
#
# Convention : Reuss Voigt Hill
#
# Bulk Modulus (GPa) = 54.30682 55.17878 54.74280
# Shear Modulus (GPa) = 27.17582 28.24877 27.71229
#
# Velocity S-wave (km/s) = 3.85086 3.92614 3.88868
# Velocity P-wave (km/s) = 7.02893 7.11775 7.07348
#
# Compressibility (1/GPa) = 0.01841389
#
# Stress axis : x y z
#
# Youngs Moduli (GPa) = 81.28541 65.59721 76.82375
#
# Poissons Ratio (x) = 0.24557 0.28856
# Poissons Ratio (y) = 0.30429 0.27466
# Poissons Ratio (z) = 0.30532 0.23452
#
# Static dielectric constant tensor:
#      x y z
#    x 3.742590 0.000000 0.000000 
#    y 0.000000 3.300360 0.000000 
#    z 0.000000 0.000000 3.251660 
# 
# 
# High freq. dielectric constant tensor:
#      x y z
#    x 1.718420 0.000000 0.000000 
#    y 0.000000 1.711500 0.000000 
#    z 0.000000 0.000000 1.688020 
# 
# From -- ./inp_files/22501.got.cif
#   From: 2010.03.12/outbox.cif.g09.slc.cpg/sg74_12_cif.got.tgz:22501.got - 2010.04.16 15:46:19.
