data_PCOD8301925
_publ_section_title
;
Structure prediction by ZEFSAII (Michael W. Deem and Ramdas Pophale) SiO2 
 PCOD8301925
Probable space group: P 41
;
_chemical_formula_sum "Si O2"
_cell_formula_units_Z 24
_cell_length_a 9.654787
_cell_length_b 9.654787
_cell_length_c 11.655180
_cell_angle_alpha 90.000000
_cell_angle_beta 90.000000
_cell_angle_gamma 90.000000
_cell_volume 1086.436578
_symmetry_space_group_name_H-M "P 41"
_symmetry_group_IT_number 76
_symmetry_cell_setting 'tetragonal'
loop_
_space_group_symop_operation_xyz
x,y,z
-y,x,1/4+z
-x,-y,1/2+z
y,-x,3/4+z
loop_
_atom_site_type_symbol
_atom_site_label
_atom_site_fract_x
_atom_site_fract_y
_atom_site_fract_z
Si Si1 0.675994 0.160599 0.689390
Si Si2 0.812338 0.976357 0.044524
Si Si3 0.819143 0.604361 0.179310
Si Si4 0.030861 0.192335 0.038342
Si Si5 0.921804 0.322256 0.256766
Si Si6 0.586963 0.493231 0.897985
O O1 0.585962 0.121073 0.800986
O O2 0.664572 0.032241 0.606350
O O3 0.610959 0.297067 0.632453
O O4 0.835859 0.190598 0.722952
O O5 0.748188 0.960915 0.171769
O O6 0.968053 0.038100 0.064528
O O7 0.730011 0.097227 0.982221
O O8 0.659468 0.650394 0.166442
O O9 0.833638 0.463122 0.250746
O O10 0.001359 0.301237 0.137691
O O11 0.196853 0.183158 0.029372
O O12 0.514056 0.498708 0.769989
#
# Coordination Sequence:
#
# PCOD8301925 Si02
#       6
#     4   4   4   4   4   4
#     4  11  25  45  70 103 141 185 234 290 354 426
#     4  11  22  44  72  98 134 186 223 285 354 417
#     4  11  27  43  70  97 140 188 231 286 355 421
#     4  10  24  43  71 101 137 176 225 295 346 413
#     4  11  26  42  69 107 139 172 240 291 346 416
#     4  10  26  49  70  98 145 191 239 289 355 425
#
# _framework density 22.090565000000002
#
# number of rings (size 3 to 8) (size 9 to 14) (size 15 to 20)
#    0.000    1.333    1.667    2.000   18.667    1.333 
#    0.000    0.000    0.000    0.000    0.000    0.000 
#    0.000    0.000    0.000    0.000    0.000    0.000 
#
# Total GULP energy -297367.259385 kJ/mol
# GULP energy per Si atom -12390.302474 kJ/mol
# Density = 2.204029 g / cm^3
# Si number density = 22.090565 Si / 1000 Ang^3
#
#
#
# Elastic Constant Matrix: (Units=GPa)
#
#
# Indices 1 2 3 4 5 6 
#
# 1 67.3007 35.1272 -0.7340 0.0000 0.0000 -0.7920
# 2 35.1272 67.3007 -0.7340 0.0000 0.0000 0.7920
# 3 -0.7340 -0.7340 105.3581 0.0000 0.0000 0.0000
# 4 0.0000 0.0000 0.0000 33.7130 0.0000 0.0000
# 5 0.0000 0.0000 0.0000 0.0000 33.7130 0.0000
# 6 -0.7920 0.7920 0.0000 0.0000 0.0000 27.4248
#
#
#
# Elastic Compliance Matrix: (Units=1/GPa)
#
#
# Indices 1 2 3 4 5 6 
#
# 1 0.020445 -0.010681 0.000068 0.000000 0.000000 0.000899
# 2 -0.010681 0.020445 0.000068 0.000000 0.000000 -0.000899
# 3 0.000068 0.000068 0.009492 0.000000 0.000000 0.000000
# 4 0.000000 0.000000 0.000000 0.029662 0.000000 0.000000
# 5 0.000000 0.000000 0.000000 0.000000 0.029662 0.000000
# 6 0.000899 -0.000899 0.000000 0.000000 0.000000 0.036515
#
#
# Mechanical properties :
#
#
# Convention : Reuss Voigt Hill
#
# Bulk Modulus (GPa) = 34.13861 34.14200 34.14031
# Shear Modulus (GPa) = 28.23657 32.72352 30.48005
#
# Velocity S-wave (km/s) = 3.57910 3.85299 3.71856
# Velocity P-wave (km/s) = 5.70678 5.93995 5.82454
#
# Compressibility (1/GPa) = 0.02929235
#
# Stress axis : x y z
#
# Youngs Moduli (GPa) = 48.91219 48.91219 105.34760
#
# Poissons Ratio (x) = 0.52242 -0.00717
# Poissons Ratio (y) = 0.52242 -0.00717
# Poissons Ratio (z) = -0.00333 -0.00333
#
# Static dielectric constant tensor:
#      x y z
#    x 3.866390 0.000000 0.000000 
#    y 0.000000 3.866390 0.000000 
#    z 0.000000 0.000000 4.595960 
# 
# 
# High freq. dielectric constant tensor:
#      x y z
#    x 1.858270 0.000000 0.000000 
#    y 0.000000 1.858270 0.000000 
#    z 0.000000 0.000000 1.895890 
# 
# From -- ./inp_files/841.got.cif
#   From: 2010.03.12/outbox.cif.g09.slc.cpg/sg76_cif.got.tgz:841.got - 2010.04.16 16:34:25.
