data_PCOD8301451
_publ_section_title
;
Structure prediction by ZEFSAII (Michael W. Deem and Ramdas Pophale) SiO2 
 PCOD8301451
Probable space group: I M M A
;
_chemical_formula_sum "Si O2"
_cell_formula_units_Z 104
_cell_length_a 26.592139
_cell_length_b 19.514152
_cell_length_c 10.280393
_cell_angle_alpha 90.000000
_cell_angle_beta 90.000000
_cell_angle_gamma 90.000000
_cell_volume 5334.732813
_symmetry_space_group_name_H-M "I M M A"
_symmetry_group_IT_number 74
_symmetry_cell_setting 'orthorhombic'
loop_
_space_group_symop_operation_xyz
x,y,z
-x,1/2-y,z
x,-y,-z
-x,1/2+y,-z
-x,-y,-z
x,1/2+y,-z
-x,y,z
x,1/2-y,z
1/2+x,1/2+y,1/2+z
1/2-x,-y,1/2+z
1/2+x,1/2-y,1/2-z
1/2-x,y,1/2-z
1/2-x,1/2-y,1/2-z
1/2+x,y,1/2-z
1/2-x,1/2+y,1/2+z
1/2+x,-y,1/2+z
loop_
_atom_site_type_symbol
_atom_site_label
_atom_site_fract_x
_atom_site_fract_y
_atom_site_fract_z
Si Si1 0.250000 0.516194 0.250000
Si Si2 0.058416 0.169082 0.969944
Si Si3 0.679649 0.669833 0.005347
Si Si4 0.654511 0.542581 0.872401
Si Si5 0.289183 0.881625 0.457624
Si Si6 0.636664 0.325729 0.728832
Si Si7 0.378657 0.559756 0.599838
O O1 0.287206 0.472635 0.159057
O O2 0.282882 0.560339 0.349114
O O3 0.068339 0.250000 0.997231
O O4 0.084798 0.145272 0.833260
O O5 0.000000 0.152668 0.958107
O O6 0.082315 0.122966 0.084888
O O7 0.669431 0.750000 0.981827
O O8 0.651056 0.624490 0.898615
O O9 0.738861 0.654852 0.995388
O O10 0.658842 0.637863 0.142508
O O11 0.618952 0.529468 0.746918
O O12 0.636872 0.500000 0.000000
O O13 0.322773 0.824059 0.387182
O O14 0.321007 0.914363 0.576612
O O15 0.626267 0.250000 0.779106
O O16 0.393976 0.500000 0.500000
#
# Coordination Sequence:
#
# PCOD8301451 Si02
#       7
#     8  16  16  16  16  16  16
#     4  12  20  34  54  80 110 166 210 240 274 340
#     4   9  20  40  66  92 117 147 191 252 314 366
#     4  11  22  34  52  83 122 160 197 240 292 347
#     4  12  24  37  55  81 118 164 206 241 290 349
#     4  11  18  33  53  79 115 154 202 241 282 337
#     4   9  17  31  55  84 111 144 187 236 290 349
#     4  11  24  38  60  87 117 156 205 249 297 351
#
# _framework density 19.494885
#
# number of rings (size 3 to 8) (size 9 to 14) (size 15 to 20)
#    0.000    1.385    4.615    1.385    2.154    2.769 
#    0.000    2.692    0.000    1.385    0.000    2.154 
#    0.000    0.000    0.000    0.000    0.000    0.000 
#
# Total GULP energy -644378.178812 kJ/mol
# GULP energy per Si atom -12391.888054 kJ/mol
# Density = 1.945051 g / cm^3
# Si number density = 19.494885 Si / 1000 Ang^3
#
#
#
# Elastic Constant Matrix: (Units=GPa)
#
#
# Indices 1 2 3 4 5 6 
#
# 1 88.3701 28.0511 33.0444 0.0000 0.0000 0.0000
# 2 28.0511 94.3237 43.0207 0.0000 0.0000 0.0000
# 3 33.0444 43.0207 101.1906 0.0000 0.0000 0.0000
# 4 0.0000 0.0000 0.0000 28.5668 0.0000 0.0000
# 5 0.0000 0.0000 0.0000 0.0000 13.5723 0.0000
# 6 0.0000 0.0000 0.0000 0.0000 0.0000 18.9641
#
#
#
# Elastic Compliance Matrix: (Units=1/GPa)
#
#
# Indices 1 2 3 4 5 6 
#
# 1 0.013333 -0.002455 -0.003310 0.000000 0.000000 0.000000
# 2 -0.002455 0.013604 -0.004982 0.000000 0.000000 0.000000
# 3 -0.003310 -0.004982 0.013081 0.000000 0.000000 0.000000
# 4 0.000000 0.000000 0.000000 0.035006 0.000000 0.000000
# 5 0.000000 0.000000 0.000000 0.000000 0.073680 0.000000
# 6 0.000000 0.000000 0.000000 0.000000 0.000000 0.052731
#
#
# Mechanical properties :
#
#
# Convention : Reuss Voigt Hill
#
# Bulk Modulus (GPa) = 53.98467 54.67966 54.33217
# Shear Modulus (GPa) = 21.82408 24.20520 23.01464
#
# Velocity S-wave (km/s) = 3.34949 3.52748 3.43964
# Velocity P-wave (km/s) = 6.53533 6.68580 6.61100
#
# Compressibility (1/GPa) = 0.01852378
#
# Stress axis : x y z
#
# Youngs Moduli (GPa) = 75.00056 73.50636 76.44481
#
# Poissons Ratio (x) = 0.18049 0.25304
# Poissons Ratio (y) = 0.18416 0.38084
# Poissons Ratio (z) = 0.24826 0.36620
#
# Static dielectric constant tensor:
#      x y z
#    x 3.290060 0.000000 0.000000 
#    y 0.000000 3.659540 0.000000 
#    z 0.000000 0.000000 3.595210 
# 
# 
# High freq. dielectric constant tensor:
#      x y z
#    x 1.714750 0.000000 0.000000 
#    y 0.000000 1.769370 0.000000 
#    z 0.000000 0.000000 1.752000 
# 
# From -- ./inp_files/15216.got.cif
#   From: 2010.03.12/outbox.cif.g09.slc.cpg/sg74_8_cif.got.tgz:15216.got - 2010.04.16 15:46:19.
