data_PCOD8301847
_publ_section_title
;
Structure prediction by ZEFSAII (Michael W. Deem and Ramdas Pophale) SiO2 
 PCOD8301847
Probable space group: P 4
;
_chemical_formula_sum "Si O2"
_cell_formula_units_Z 20
_cell_length_a 11.266688
_cell_length_b 11.266688
_cell_length_c 9.808625
_cell_angle_alpha 90.000000
_cell_angle_beta 90.000000
_cell_angle_gamma 90.000000
_cell_volume 1245.089776
_symmetry_space_group_name_H-M "P 4"
_symmetry_group_IT_number 75
_symmetry_cell_setting 'tetragonal'
loop_
_space_group_symop_operation_xyz
x,y,z
-y,x,z
-x,-y,z
y,-x,z
loop_
_atom_site_type_symbol
_atom_site_label
_atom_site_fract_x
_atom_site_fract_y
_atom_site_fract_z
Si Si1 0.816303 0.059433 0.172160
Si Si2 0.597322 0.090302 0.980367
Si Si3 0.305979 0.471751 0.829155
Si Si4 0.597322 0.090302 0.677943
Si Si5 0.940567 0.816303 0.486151
O O1 0.778545 0.071501 0.329155
O O2 0.924922 0.146900 0.139134
O O3 0.707953 0.098651 0.079524
O O4 0.541639 0.222775 0.963876
O O5 0.637232 0.043915 0.829155
O O6 0.500000 0.000000 0.042317
O O7 0.400921 0.366319 0.829155
O O8 0.222775 0.458361 0.694435
O O9 0.707953 0.098651 0.578786
O O10 0.500000 0.000000 0.615994
O O11 0.075078 0.853099 0.519177
#
# Coordination Sequence:
#
# PCOD8301847 Si02
#       5
#     4   4   4   4   4
#     4   9  19  34  51  73 102 134 162 197 252 304
#     4   9  20  31  52  77 101 123 170 209 242 286
#     4   9  19  34  52  71 102 136 162 199 249 294
#     4   9  20  31  52  77 101 123 170 209 242 286
#     4   9  19  34  51  73 102 134 162 197 252 304
#
# _framework density 16.063098
#
# number of rings (size 3 to 8) (size 9 to 14) (size 15 to 20)
#    1.200    1.800    0.000    1.200    5.600    2.400 
#    0.000    2.000    0.000    0.000    0.000    2.800 
#    0.000    0.000    0.000    0.000    0.000    0.000 
#
# Total GULP energy -247854.585861 kJ/mol
# GULP energy per Si atom -12392.729293 kJ/mol
# Density = 1.602654 g / cm^3
# Si number density = 16.063098 Si / 1000 Ang^3
#
#
#
# Elastic Constant Matrix: (Units=GPa)
#
#
# Indices 1 2 3 4 5 6 
#
# 1 108.3538 53.8466 30.8239 0.0000 0.0000 -3.6219
# 2 53.8466 108.3538 30.8239 0.0000 0.0000 3.6219
# 3 30.8239 30.8239 41.2283 0.0000 0.0000 0.0000
# 4 0.0000 0.0000 0.0000 17.2062 0.0000 0.0000
# 5 0.0000 0.0000 0.0000 0.0000 17.2062 0.0000
# 6 -3.6219 3.6219 0.0000 0.0000 0.0000 22.9931
#
#
#
# Elastic Compliance Matrix: (Units=1/GPa)
#
#
# Indices 1 2 3 4 5 6 
#
# 1 0.013675 -0.005063 -0.006439 0.000000 0.000000 0.002952
# 2 -0.005063 0.013675 -0.006439 0.000000 0.000000 -0.002952
# 3 -0.006439 -0.006439 0.033883 0.000000 0.000000 0.000000
# 4 0.000000 0.000000 0.000000 0.058118 0.000000 0.000000
# 5 0.000000 0.000000 0.000000 0.000000 0.058118 0.000000
# 6 0.002952 -0.002952 0.000000 0.000000 0.000000 0.044421
#
#
# Mechanical properties :
#
#
# Convention : Reuss Voigt Hill
#
# Bulk Modulus (GPa) = 39.44431 54.32493 46.88462
# Shear Modulus (GPa) = 18.78108 20.97722 19.87915
#
# Velocity S-wave (km/s) = 3.42308 3.61768 3.52172
# Velocity P-wave (km/s) = 6.34290 7.16542 6.76667
#
# Compressibility (1/GPa) = 0.02535220
#
# Stress axis : x y z
#
# Youngs Moduli (GPa) = 73.12350 73.12350 29.51300
#
# Poissons Ratio (x) = 0.37022 0.19004
# Poissons Ratio (y) = 0.37022 0.19004
# Poissons Ratio (z) = 0.47085 0.47085
#
# Static dielectric constant tensor:
#      x y z
#    x 2.935990 0.000000 0.000000 
#    y 0.000000 2.935990 0.000000 
#    z 0.000000 0.000000 2.782620 
# 
# 
# High freq. dielectric constant tensor:
#      x y z
#    x 1.617560 0.000000 0.000000 
#    y 0.000000 1.617560 0.000000 
#    z 0.000000 0.000000 1.593540 
# 
# From -- ./inp_files/304.got.cif
#   From: 2010.03.12/outbox.cif.g09.slc.cpg/sg75_cif.got.tgz:304.got - 2010.04.16 16:33:55.
