data_PCOD8301734
_publ_section_title
;
Structure prediction by ZEFSAII (Michael W. Deem and Ramdas Pophale) SiO2 
 PCOD8301734
Probable space group: I M M A
;
_chemical_formula_sum "Si O2"
_cell_formula_units_Z 48
_cell_length_a 15.583056
_cell_length_b 19.118797
_cell_length_c 8.934952
_cell_angle_alpha 90.000000
_cell_angle_beta 90.000000
_cell_angle_gamma 90.000000
_cell_volume 2661.983855
_symmetry_space_group_name_H-M "I M M A"
_symmetry_group_IT_number 74
_symmetry_cell_setting 'orthorhombic'
loop_
_space_group_symop_operation_xyz
x,y,z
-x,1/2-y,z
x,-y,-z
-x,1/2+y,-z
-x,-y,-z
x,1/2+y,-z
-x,y,z
x,1/2-y,z
1/2+x,1/2+y,1/2+z
1/2-x,-y,1/2+z
1/2+x,1/2-y,1/2-z
1/2-x,y,1/2-z
1/2-x,1/2-y,1/2-z
1/2+x,y,1/2-z
1/2-x,1/2+y,1/2+z
1/2+x,-y,1/2+z
loop_
_atom_site_type_symbol
_atom_site_label
_atom_site_fract_x
_atom_site_fract_y
_atom_site_fract_z
Si Si1 0.000000 0.473063 0.832439
Si Si2 0.664281 0.968928 0.836263
Si Si3 0.000000 0.327769 0.704197
Si Si4 0.095316 0.326964 0.415689
O O1 0.916620 0.500402 0.749109
O O2 0.000000 0.388013 0.830187
O O3 0.000000 0.500000 0.000000
O O4 0.750000 0.989844 0.750000
O O5 0.657908 0.884865 0.847294
O O6 0.667690 0.000000 0.000000
O O7 0.916005 0.335746 0.596455
O O8 0.000000 0.250000 0.779190
O O9 0.133611 0.250000 0.379884
O O10 0.000000 0.334252 0.342623
#
# Coordination Sequence:
#
# PCOD8301734 Si02
#       4
#     8  16   8  16
#     4  12  22  38  59  87 116 154 196 243 287 340
#     4  12  22  37  58  86 120 154 193 243 290 342
#     4   8  15  33  62  84 109 153 192 227 291 353
#     4   8  15  32  60  84 108 152 193 229 292 346
#
# _framework density 18.031665
#
# number of rings (size 3 to 8) (size 9 to 14) (size 15 to 20)
#    1.000    1.000    5.000    1.500    0.000    0.667 
#    0.000    1.667    0.000    8.000    0.000    0.000 
#    0.000    0.000    0.000    0.000    0.000    0.000 
#
# Total GULP energy -297358.729951 kJ/mol
# GULP energy per Si atom -12389.947081 kJ/mol
# Density = 1.799062 g / cm^3
# Si number density = 18.031665 Si / 1000 Ang^3
#
#
#
# Elastic Constant Matrix: (Units=GPa)
#
#
# Indices 1 2 3 4 5 6 
#
# 1 111.6149 47.1297 58.1546 0.0000 0.0000 0.0000
# 2 47.1297 159.6212 53.7315 0.0000 0.0000 0.0000
# 3 58.1546 53.7315 111.0483 0.0000 0.0000 0.0000
# 4 0.0000 0.0000 0.0000 29.1322 0.0000 0.0000
# 5 0.0000 0.0000 0.0000 0.0000 26.9824 0.0000
# 6 0.0000 0.0000 0.0000 0.0000 0.0000 50.3945
#
#
#
# Elastic Compliance Matrix: (Units=1/GPa)
#
#
# Indices 1 2 3 4 5 6 
#
# 1 0.012745 -0.001811 -0.005798 0.000000 0.000000 0.000000
# 2 -0.001811 0.007741 -0.002797 0.000000 0.000000 0.000000
# 3 -0.005798 -0.002797 0.013395 0.000000 0.000000 0.000000
# 4 0.000000 0.000000 0.000000 0.034326 0.000000 0.000000
# 5 0.000000 0.000000 0.000000 0.000000 0.037061 0.000000
# 6 0.000000 0.000000 0.000000 0.000000 0.000000 0.019843
#
#
# Mechanical properties :
#
#
# Convention : Reuss Voigt Hill
#
# Bulk Modulus (GPa) = 76.52123 77.81288 77.16705
# Shear Modulus (GPa) = 33.27097 36.18639 34.72868
#
# Velocity S-wave (km/s) = 4.30017 4.48462 4.39336
# Velocity P-wave (km/s) = 8.19662 8.37036 8.28394
#
# Compressibility (1/GPa) = 0.01306827
#
# Stress axis : x y z
#
# Youngs Moduli (GPa) = 78.46096 129.17897 74.65581
#
# Poissons Ratio (x) = 0.23400 0.43286
# Poissons Ratio (y) = 0.14213 0.20881
# Poissons Ratio (z) = 0.45492 0.36132
#
# Static dielectric constant tensor:
#      x y z
#    x 3.035720 0.000000 0.000000 
#    y 0.000000 3.517060 0.000000 
#    z 0.000000 0.000000 3.155230 
# 
# 
# High freq. dielectric constant tensor:
#      x y z
#    x 1.668460 0.000000 0.000000 
#    y 0.000000 1.719870 0.000000 
#    z 0.000000 0.000000 1.667050 
# 
# From -- ./inp_files/8234.got.cif
#   From: 2010.03.12/outbox.cif.g09.slc.cpg/sg74_5_cif.got.tgz:8234.got - 2010.04.16 15:46:19.
