data_PCOD8301574
_publ_section_title
;
Structure prediction by ZEFSAII (Michael W. Deem and Ramdas Pophale) SiO2 
 PCOD8301574
Probable space group: I M M A
;
_chemical_formula_sum "Si O2"
_cell_formula_units_Z 64
_cell_length_a 12.025637
_cell_length_b 14.156017
_cell_length_c 17.941755
_cell_angle_alpha 90.000000
_cell_angle_beta 90.000000
_cell_angle_gamma 90.000000
_cell_volume 3054.316848
_symmetry_space_group_name_H-M "I M M A"
_symmetry_group_IT_number 74
_symmetry_cell_setting 'orthorhombic'
loop_
_space_group_symop_operation_xyz
x,y,z
-x,1/2-y,z
x,-y,-z
-x,1/2+y,-z
-x,-y,-z
x,1/2+y,-z
-x,y,z
x,1/2-y,z
1/2+x,1/2+y,1/2+z
1/2-x,-y,1/2+z
1/2+x,1/2-y,1/2-z
1/2-x,y,1/2-z
1/2-x,1/2-y,1/2-z
1/2+x,y,1/2-z
1/2-x,1/2+y,1/2+z
1/2+x,-y,1/2+z
loop_
_atom_site_type_symbol
_atom_site_label
_atom_site_fract_x
_atom_site_fract_y
_atom_site_fract_z
Si Si1 0.000000 0.145794 0.131172
Si Si2 0.875446 0.895435 0.530563
Si Si3 0.500000 0.893646 0.471633
Si Si4 0.229042 0.147879 0.896387
Si Si5 0.769130 0.947582 0.834435
O O1 0.104537 0.079868 0.149551
O O2 0.000000 0.250000 0.171434
O O3 0.000000 0.171550 0.044178
O O4 0.808678 0.838769 0.467999
O O5 0.811684 0.889811 0.609839
O O6 0.000000 0.854034 0.541210
O O7 0.881156 0.000000 0.500000
O O8 0.394822 0.871359 0.422147
O O9 0.500000 0.000000 0.500000
O O10 0.235256 0.250000 0.854122
O O11 0.259314 0.059640 0.843235
O O12 0.750000 0.916487 0.750000
#
# Coordination Sequence:
#
# PCOD8301574 Si02
#       5
#     8  16   8  16  16
#     4  12  24  41  64  89 117 152 203 256 302 355
#     4   9  19  37  58  83 115 158 204 245 288 339
#     4  12  18  37  65  94 119 149 198 256 305 346
#     4  11  21  37  63  93 123 157 201 250 297 357
#     4  11  24  40  62  89 124 163 197 242 306 365
#
# _framework density 20.953949000000001
#
# number of rings (size 3 to 8) (size 9 to 14) (size 15 to 20)
#    0.000    1.250    5.000    1.875    1.750    1.500 
#    0.000    0.000    0.000    0.000    0.000    0.000 
#    0.000    0.000    0.000    0.000    0.000    0.000 
#
# Total GULP energy -396515.839199 kJ/mol
# GULP energy per Si atom -12391.119975 kJ/mol
# Density = 2.090626 g / cm^3
# Si number density = 20.953949 Si / 1000 Ang^3
#
#
#
# Elastic Constant Matrix: (Units=GPa)
#
#
# Indices 1 2 3 4 5 6 
#
# 1 144.4401 -1.2361 24.3941 0.0000 0.0000 0.0000
# 2 -1.2361 112.1749 -13.3877 0.0000 0.0000 0.0000
# 3 24.3941 -13.3877 85.5882 0.0000 0.0000 0.0000
# 4 0.0000 0.0000 0.0000 12.7703 0.0000 0.0000
# 5 0.0000 0.0000 0.0000 0.0000 1.1435 0.0000
# 6 0.0000 0.0000 0.0000 0.0000 0.0000 -96.0292
#
#
#
# Elastic Compliance Matrix: (Units=1/GPa)
#
#
# Indices 1 2 3 4 5 6 
#
# 1 0.007277 -0.000171 -0.002101 0.000000 0.000000 0.000000
# 2 -0.000171 0.009088 0.001470 0.000000 0.000000 0.000000
# 3 -0.002101 0.001470 0.012513 0.000000 0.000000 0.000000
# 4 0.000000 0.000000 0.000000 0.078306 0.000000 0.000000
# 5 0.000000 0.000000 0.000000 0.000000 0.874507 0.000000
# 6 0.000000 0.000000 0.000000 0.000000 0.000000 -0.010414
#
#
# Mechanical properties :
#
#
# Convention : Reuss Voigt Hill
#
# Bulk Modulus (GPa) = 36.66305 40.19378 38.42842
# Shear Modulus (GPa) = 5.09180 5.73913 5.41547
#
# Velocity S-wave (km/s) = 1.56054 1.65677 1.60937
# Velocity P-wave (km/s) = 4.55873 4.78366 4.67255
#
# Compressibility (1/GPa) = 0.02727542
#
# Stress axis : x y z
#
# Youngs Moduli (GPa) = 137.42693 110.03245 79.91986
#
# Poissons Ratio (x) = 0.01876 0.16788
# Poissons Ratio (y) = 0.02343 -0.11750
# Poissons Ratio (z) = 0.28868 -0.16177
#
# Static dielectric constant tensor:
#      x y z
#    x 4.091050 0.000000 0.000000 
#    y 0.000000 4.070020 0.000000 
#    z 0.000000 0.000000 3.620530 
# 
# 
# High freq. dielectric constant tensor:
#      x y z
#    x 1.828840 0.000000 0.000000 
#    y 0.000000 1.832730 0.000000 
#    z 0.000000 0.000000 1.785480 
# 
# From -- ./inp_files/40731.got.cif
#   From: 2010.03.12/outbox.cif.g09.slc.cpg/sg74_21_cif.got.tgz:40731.got - 2010.04.16 15:46:19.
