data_PCOD8301428
_publ_section_title
;
Structure prediction by ZEFSAII (Michael W. Deem and Ramdas Pophale) SiO2 
 PCOD8301428
Probable space group: I M M A
;
_chemical_formula_sum "Si O2"
_cell_formula_units_Z 80
_cell_length_a 28.765259
_cell_length_b 16.817523
_cell_length_c 7.674118
_cell_angle_alpha 90.000000
_cell_angle_beta 90.000000
_cell_angle_gamma 90.000000
_cell_volume 3712.434430
_symmetry_space_group_name_H-M "I M M A"
_symmetry_group_IT_number 74
_symmetry_cell_setting 'orthorhombic'
loop_
_space_group_symop_operation_xyz
x,y,z
-x,1/2-y,z
x,-y,-z
-x,1/2+y,-z
-x,-y,-z
x,1/2+y,-z
-x,y,z
x,1/2-y,z
1/2+x,1/2+y,1/2+z
1/2-x,-y,1/2+z
1/2+x,1/2-y,1/2-z
1/2-x,y,1/2-z
1/2-x,1/2-y,1/2-z
1/2+x,y,1/2-z
1/2-x,1/2+y,1/2+z
1/2+x,-y,1/2+z
loop_
_atom_site_type_symbol
_atom_site_label
_atom_site_fract_x
_atom_site_fract_y
_atom_site_fract_z
Si Si1 0.395866 0.842890 0.156433
Si Si2 0.706238 0.659490 0.162272
Si Si3 0.619402 0.157673 0.239597
Si Si4 0.295750 0.066584 0.147059
Si Si5 0.446340 0.591641 0.472447
O O1 0.400115 0.750000 0.195506
O O2 0.344421 0.874802 0.215409
O O3 0.433462 0.888377 0.272419
O O4 0.403430 0.859484 0.950679
O O5 0.707286 0.750000 0.218821
O O6 0.750000 0.613665 0.250000
O O7 0.713501 0.649181 0.955708
O O8 0.636348 0.250000 0.248238
O O9 0.660898 0.092333 0.270298
O O10 0.581966 0.144760 0.390634
O O11 0.250000 0.039593 0.250000
O O12 0.308198 0.000000 0.000000
O O13 0.435247 0.500000 0.500000
O O14 0.500000 0.611814 0.502073
#
# Coordination Sequence:
#
# PCOD8301428 Si02
#       5
#    16  16  16  16  16
#     4   9  20  40  64  91 128 172 215 266 327 386
#     4   9  19  36  58  86 121 162 208 254 309 380
#     4  10  24  44  68  97 130 175 224 271 327 395
#     4  11  24  38  59  92 130 172 214 263 323 383
#     4  11  26  43  66  99 130 168 218 276 343 402
#
# _framework density 21.549204
#
# number of rings (size 3 to 8) (size 9 to 14) (size 15 to 20)
#    0.000    2.000    0.000    3.000    8.400    4.800 
#    0.000    4.000    0.000    0.000    0.000    0.000 
#    0.000    0.000    0.000    0.000    0.000    0.000 
#
# Total GULP energy -495529.565300 kJ/mol
# GULP energy per Si atom -12388.239132 kJ/mol
# Density = 2.150016 g / cm^3
# Si number density = 21.549204 Si / 1000 Ang^3
#
#
#
# Elastic Constant Matrix: (Units=GPa)
#
#
# Indices 1 2 3 4 5 6 
#
# 1 86.7607 44.1792 38.4837 0.0000 0.0000 0.0000
# 2 44.1792 79.8140 28.2393 0.0000 0.0000 0.0000
# 3 38.4837 28.2393 78.8088 0.0000 0.0000 0.0000
# 4 0.0000 0.0000 0.0000 31.5962 0.0000 0.0000
# 5 0.0000 0.0000 0.0000 0.0000 39.3046 0.0000
# 6 0.0000 0.0000 0.0000 0.0000 0.0000 16.7564
#
#
#
# Elastic Compliance Matrix: (Units=1/GPa)
#
#
# Indices 1 2 3 4 5 6 
#
# 1 0.018276 -0.007969 -0.006069 0.000000 0.000000 0.000000
# 2 -0.007969 0.017823 -0.002495 0.000000 0.000000 0.000000
# 3 -0.006069 -0.002495 0.016547 0.000000 0.000000 0.000000
# 4 0.000000 0.000000 0.000000 0.031649 0.000000 0.000000
# 5 0.000000 0.000000 0.000000 0.000000 0.025442 0.000000
# 6 0.000000 0.000000 0.000000 0.000000 0.000000 0.059679
#
#
# Mechanical properties :
#
#
# Convention : Reuss Voigt Hill
#
# Bulk Modulus (GPa) = 51.07387 51.90976 51.49182
# Shear Modulus (GPa) = 23.92256 26.49686 25.20971
#
# Velocity S-wave (km/s) = 3.33549 3.51037 3.42404
# Velocity P-wave (km/s) = 6.21180 6.36957 6.29118
#
# Compressibility (1/GPa) = 0.01957948
#
# Stress axis : x y z
#
# Youngs Moduli (GPa) = 54.71752 56.10756 60.43561
#
# Poissons Ratio (x) = 0.44711 0.36678
# Poissons Ratio (y) = 0.43604 0.15079
# Poissons Ratio (z) = 0.33207 0.13999
#
# Static dielectric constant tensor:
#      x y z
#    x 4.008230 0.000000 0.000000 
#    y 0.000000 3.968750 0.000000 
#    z 0.000000 0.000000 3.986600 
# 
# 
# High freq. dielectric constant tensor:
#      x y z
#    x 1.836470 0.000000 0.000000 
#    y 0.000000 1.852550 0.000000 
#    z 0.000000 0.000000 1.838030 
# 
# From -- ./inp_files/14947.got.cif
#   From: 2010.03.12/outbox.cif.g09.slc.cpg/sg74_8_cif.got.tgz:14947.got - 2010.04.16 15:46:19.
