data_PCOD8301683
_publ_section_title
;
Structure prediction by ZEFSAII (Michael W. Deem and Ramdas Pophale) SiO2 
 PCOD8301683
Probable space group: I M M A
;
_chemical_formula_sum "Si O2"
_cell_formula_units_Z 64
_cell_length_a 14.144644
_cell_length_b 22.501411
_cell_length_c 8.972342
_cell_angle_alpha 90.000000
_cell_angle_beta 90.000000
_cell_angle_gamma 90.000000
_cell_volume 2855.667198
_symmetry_space_group_name_H-M "I M M A"
_symmetry_group_IT_number 74
_symmetry_cell_setting 'orthorhombic'
loop_
_space_group_symop_operation_xyz
x,y,z
-x,1/2-y,z
x,-y,-z
-x,1/2+y,-z
-x,-y,-z
x,1/2+y,-z
-x,y,z
x,1/2-y,z
1/2+x,1/2+y,1/2+z
1/2-x,-y,1/2+z
1/2+x,1/2-y,1/2-z
1/2-x,y,1/2-z
1/2-x,1/2-y,1/2-z
1/2+x,y,1/2-z
1/2-x,1/2+y,1/2+z
1/2+x,-y,1/2+z
loop_
_atom_site_type_symbol
_atom_site_label
_atom_site_fract_x
_atom_site_fract_y
_atom_site_fract_z
Si Si1 0.000000 0.181001 0.661812
Si Si2 0.607750 0.002544 0.179180
Si Si3 0.814140 0.383300 0.632536
Si Si4 0.681848 0.615249 0.639133
Si Si5 0.000000 0.180295 0.012665
O O1 0.907138 0.153356 0.583051
O O2 0.000000 0.250000 0.627012
O O3 0.000000 0.166722 0.837376
O O4 0.500000 0.003583 0.230680
O O5 0.653836 0.940596 0.230548
O O6 0.655728 0.056750 0.265468
O O7 0.616171 0.000000 0.000000
O O8 0.750000 0.345135 0.750000
O O9 0.749668 0.403215 0.495759
O O10 0.750000 0.653854 0.750000
O O11 0.592104 0.652502 0.588342
O O12 0.000000 0.250000 0.044576
#
# Coordination Sequence:
#
# PCOD8301683 Si02
#       5
#     8  16  16  16   8
#     4  11  26  50  75 102 145 202 260 309 360 433
#     4  11  23  41  69 101 148 190 231 295 370 445
#     4  12  25  43  71 112 144 191 248 303 365 437
#     4  12  25  45  75 111 151 190 242 305 375 442
#     4  11  26  50  73 104 148 200 255 311 368 431
#
# _framework density 22.411574999999999
#
# number of rings (size 3 to 8) (size 9 to 14) (size 15 to 20)
#    0.000    0.500    7.500    0.750    0.000    3.000 
#    0.000    3.750    0.000    0.000    0.000    0.000 
#    0.000    0.000    0.000    0.000    0.000    0.000 
#
# Total GULP energy -396487.638553 kJ/mol
# GULP energy per Si atom -12390.238705 kJ/mol
# Density = 2.236057 g / cm^3
# Si number density = 22.411575 Si / 1000 Ang^3
#
#
#
# Elastic Constant Matrix: (Units=GPa)
#
#
# Indices 1 2 3 4 5 6 
#
# 1 208.1738 68.5556 70.0058 0.0002 0.0000 0.0000
# 2 68.5556 122.7349 40.1859 0.0003 0.0000 0.0000
# 3 70.0058 40.1859 102.0537 0.0018 0.0004 0.0005
# 4 0.0002 0.0003 0.0018 19.3014 0.0000 0.0000
# 5 0.0000 0.0000 0.0004 0.0000 41.3662 -0.0001
# 6 0.0000 0.0000 0.0005 0.0000 -0.0001 1.7788
#
#
#
# Elastic Compliance Matrix: (Units=1/GPa)
#
#
# Indices 1 2 3 4 5 6 
#
# 1 0.006923 -0.002654 -0.003704 0.000000 0.000000 0.000001
# 2 -0.002654 0.010371 -0.002263 0.000000 0.000000 0.000001
# 3 -0.003704 -0.002263 0.013231 -0.000001 0.000000 -0.000004
# 4 0.000000 0.000000 -0.000001 0.051810 0.000000 -0.000001
# 5 0.000000 0.000000 0.000000 0.000000 0.024174 0.000001
# 6 0.000001 0.000001 -0.000004 -0.000001 0.000001 0.562185
#
#
# Mechanical properties :
#
#
# Convention : Reuss Voigt Hill
#
# Bulk Modulus (GPa) = 75.28743 87.82855 81.55799
# Shear Modulus (GPa) = 7.24255 29.43695 18.33975
#
# Velocity S-wave (km/s) = 1.79962 3.62812 2.86373
# Velocity P-wave (km/s) = 6.16313 7.53823 6.88510
#
# Compressibility (1/GPa) = 0.01328243
#
# Stress axis : x y z
#
# Youngs Moduli (GPa) = 144.43667 96.42004 75.58147
#
# Poissons Ratio (x) = 0.25594 0.27996
# Poissons Ratio (y) = 0.38340 0.17105
# Poissons Ratio (z) = 0.53500 0.21820
#
# Static dielectric constant tensor:
#      x y z
#    x 4.594650 0.000000 0.000000 
#    y 0.000000 3.801880 0.000000 
#    z 0.000000 0.000000 4.091340 
# 
# 
# High freq. dielectric constant tensor:
#      x y z
#    x 1.925870 0.000000 0.000000 
#    y 0.000000 1.853200 0.000000 
#    z 0.000000 0.000000 1.884730 
# 
# From -- ./inp_files/9061.got.cif
#   From: 2010.03.12/outbox.cif.g09.slc.cpg/sg74_5_cif.got.tgz:9061.got - 2010.04.16 15:46:19.
