data_PCOD8301254
_publ_section_title
;
Structure prediction by ZEFSAII (Michael W. Deem and Ramdas Pophale) SiO2 
 PCOD8301254
Probable space group: I M M A
;
_chemical_formula_sum "Si O2"
_cell_formula_units_Z 72
_cell_length_a 13.437465
_cell_length_b 17.406703
_cell_length_c 15.692980
_cell_angle_alpha 90.000000
_cell_angle_beta 90.000000
_cell_angle_gamma 90.000000
_cell_volume 3670.618817
_symmetry_space_group_name_H-M "I M M A"
_symmetry_group_IT_number 74
_symmetry_cell_setting 'orthorhombic'
loop_
_space_group_symop_operation_xyz
x,y,z
-x,1/2-y,z
x,-y,-z
-x,1/2+y,-z
-x,-y,-z
x,1/2+y,-z
-x,y,z
x,1/2-y,z
1/2+x,1/2+y,1/2+z
1/2-x,-y,1/2+z
1/2+x,1/2-y,1/2-z
1/2-x,y,1/2-z
1/2-x,1/2-y,1/2-z
1/2+x,y,1/2-z
1/2-x,1/2+y,1/2+z
1/2+x,-y,1/2+z
loop_
_atom_site_type_symbol
_atom_site_label
_atom_site_fract_x
_atom_site_fract_y
_atom_site_fract_z
Si Si1 0.383128 0.250000 0.910285
Si Si2 0.388104 0.880288 0.406831
Si Si3 0.115989 0.127594 0.450033
Si Si4 0.742447 0.000000 0.500000
Si Si5 0.205109 0.250000 0.342137
Si Si6 0.119173 0.250000 0.781415
Si Si7 0.893884 0.750000 0.956805
O O1 0.500000 0.250000 0.897880
O O2 0.335145 0.250000 0.815051
O O3 0.351751 0.175371 0.964947
O O4 0.500000 0.908915 0.385436
O O5 0.322601 0.955092 0.429263
O O6 0.344833 0.828406 0.328722
O O7 0.388575 0.826623 0.488561
O O8 0.137374 0.176253 0.364429
O O9 0.000000 0.105020 0.452766
O O10 0.184909 0.053580 0.444910
O O11 0.250000 0.250000 0.250000
O O12 0.304147 0.250000 0.395002
O O13 0.000000 0.250000 0.783573
O O14 0.000000 0.750000 0.907329
#
# Coordination Sequence:
#
# PCOD8301254 Si02
#       7
#     8  16  16   8   8   8   8
#     4   8  16  35  61  82 107 145 186 233 281 324
#     4   9  18  32  56  86 117 150 186 234 282 337
#     4  10  22  39  59  83 113 153 193 233 285 346
#     4  12  20  34  58  78 120 162 192 220 280 356
#     4  11  21  39  63  83 106 139 196 252 290 332
#     4   8  15  32  58  89 113 137 185 238 282 328
#     4   9  17  34  57  82 108 141 188 235 287 337
#
# _framework density 19.615221999999999
#
# number of rings (size 3 to 8) (size 9 to 14) (size 15 to 20)
#    0.000    2.444    2.222    3.000    0.000    0.889 
#    0.000    4.444    0.000    2.667    0.000    0.000 
#    0.000    0.000    0.000    0.000    0.000    0.000 
#
# Total GULP energy -446151.099868 kJ/mol
# GULP energy per Si atom -12393.086107 kJ/mol
# Density = 1.957058 g / cm^3
# Si number density = 19.615222 Si / 1000 Ang^3
#
#
#
# Elastic Constant Matrix: (Units=GPa)
#
#
# Indices 1 2 3 4 5 6 
#
# 1 106.0955 56.3543 32.9224 0.0000 0.0000 0.0000
# 2 56.3543 125.7572 35.5982 0.0000 0.0000 0.0000
# 3 32.9224 35.5982 101.3006 0.0001 0.0000 0.0000
# 4 0.0000 0.0000 0.0001 9.5612 0.0000 0.0000
# 5 0.0000 0.0000 0.0000 0.0000 25.8372 0.0000
# 6 0.0000 0.0000 0.0000 0.0000 0.0000 44.9744
#
#
#
# Elastic Compliance Matrix: (Units=1/GPa)
#
#
# Indices 1 2 3 4 5 6 
#
# 1 0.012872 -0.005091 -0.002395 0.000000 0.000000 0.000000
# 2 -0.005091 0.010843 -0.002156 0.000000 0.000000 0.000000
# 3 -0.002395 -0.002156 0.011408 0.000000 0.000000 0.000000
# 4 0.000000 0.000000 0.000000 0.104589 0.000000 0.000000
# 5 0.000000 0.000000 0.000000 0.000000 0.038704 0.000000
# 6 0.000000 0.000000 0.000000 0.000000 0.000000 0.022235
#
#
# Mechanical properties :
#
#
# Convention : Reuss Voigt Hill
#
# Bulk Modulus (GPa) = 63.12800 64.76700 63.94750
# Shear Modulus (GPa) = 22.20114 29.95981 26.08047
#
# Velocity S-wave (km/s) = 3.36792 3.91240 3.65033
# Velocity P-wave (km/s) = 6.88309 7.31434 7.10199
#
# Compressibility (1/GPa) = 0.01584083
#
# Stress axis : x y z
#
# Youngs Moduli (GPa) = 77.68506 92.22259 87.66153
#
# Poissons Ratio (x) = 0.46947 0.20992
# Poissons Ratio (y) = 0.39546 0.18900
# Poissons Ratio (z) = 0.18603 0.19884
#
# Static dielectric constant tensor:
#      x y z
#    x 3.878050 0.000000 0.000000 
#    y 0.000000 3.577610 0.000000 
#    z 0.000000 0.000000 2.883860 
# 
# 
# High freq. dielectric constant tensor:
#      x y z
#    x 1.793780 0.000000 0.000000 
#    y 0.000000 1.749130 0.000000 
#    z 0.000000 0.000000 1.730060 
# 
# From -- ./inp_files/31986.got.cif
#   From: 2010.03.12/outbox.cif.g09.slc.cpg/sg74_16_cif.got.tgz:31986.got - 2010.04.16 15:46:19.
