data_PCOD8301855
_publ_section_title
;
Structure prediction by ZEFSAII (Michael W. Deem and Ramdas Pophale) SiO2 
 PCOD8301855
Probable space group: P 41
;
_chemical_formula_sum "Si O2"
_cell_formula_units_Z 32
_cell_length_a 11.893356
_cell_length_b 11.893356
_cell_length_c 12.169952
_cell_angle_alpha 90.000000
_cell_angle_beta 90.000000
_cell_angle_gamma 90.000000
_cell_volume 1721.463040
_symmetry_space_group_name_H-M "P 41"
_symmetry_group_IT_number 76
_symmetry_cell_setting 'tetragonal'
loop_
_space_group_symop_operation_xyz
x,y,z
-y,x,1/4+z
-x,-y,1/2+z
y,-x,3/4+z
loop_
_atom_site_type_symbol
_atom_site_label
_atom_site_fract_x
_atom_site_fract_y
_atom_site_fract_z
Si Si1 0.010060 0.270337 0.938640
Si Si2 0.698179 0.212995 0.353981
Si Si3 0.102434 0.648063 0.888182
Si Si4 0.226009 0.314585 0.353511
Si Si5 0.938918 0.820260 0.986670
Si Si6 0.082281 0.515730 0.328192
Si Si7 0.856254 0.062850 0.976358
Si Si8 0.552310 0.798223 0.854878
O O1 0.941864 0.384474 0.913540
O O2 0.926457 0.176814 0.984266
O O3 0.067095 0.231697 0.825405
O O4 0.103140 0.289094 0.030665
O O5 0.785632 0.312910 0.321596
O O6 0.720478 0.183131 0.481770
O O7 0.570560 0.257788 0.343020
O O8 0.039695 0.764794 0.918485
O O9 0.026174 0.566620 0.813372
O O10 0.128467 0.579452 0.998240
O O11 0.178737 0.223111 0.438404
O O12 0.183396 0.440530 0.380822
O O13 0.360861 0.305979 0.364321
O O14 0.941328 0.956172 0.982601
O O15 0.944729 0.784440 0.114301
O O16 0.118320 0.560778 0.209121
#
# Coordination Sequence:
#
# PCOD8301855 Si02
#       8
#     4   4   4   4   4   4   4   4
#     4  11  22  37  52  85 125 154 188 225 298 359
#     4  10  21  34  57  84 115 150 188 243 283 334
#     4  10  20  34  57  82 116 147 192 240 285 342
#     4   9  20  36  63  85 105 152 200 247 276 334
#     4  10  19  35  52  84 114 153 194 225 287 343
#     4  10  20  36  60  87 114 151 192 236 295 340
#     4  10  22  33  54  80 121 163 174 232 282 356
#     4  10  18  37  57  83 112 148 198 240 280 336
#
# _framework density 18.588837999999999
#
# number of rings (size 3 to 8) (size 9 to 14) (size 15 to 20)
#    0.000    2.000    1.250    3.750    3.500    3.000 
#    0.000    0.000    0.000    4.500    0.000    0.000 
#    0.000    0.000    0.000    0.000    0.000    0.000 
#
# Total GULP energy -396684.850852 kJ/mol
# GULP energy per Si atom -12396.401589 kJ/mol
# Density = 1.854653 g / cm^3
# Si number density = 18.588838 Si / 1000 Ang^3
#
#
#
# Elastic Constant Matrix: (Units=GPa)
#
#
# Indices 1 2 3 4 5 6 
#
# 1 116.2939 63.8600 39.6054 0.0000 0.0000 -1.5445
# 2 63.8600 116.2939 39.6054 0.0000 0.0000 1.5445
# 3 39.6054 39.6054 86.9387 0.0000 0.0000 0.0000
# 4 0.0000 0.0000 0.0000 24.1360 0.0000 0.0000
# 5 0.0000 0.0000 0.0000 0.0000 24.1360 0.0000
# 6 -1.5445 1.5445 0.0000 0.0000 0.0000 32.9568
#
#
#
# Elastic Compliance Matrix: (Units=1/GPa)
#
#
# Indices 1 2 3 4 5 6 
#
# 1 0.013033 -0.006092 -0.003162 0.000000 0.000000 0.000896
# 2 -0.006092 0.013033 -0.003162 0.000000 0.000000 -0.000896
# 3 -0.003162 -0.003162 0.014383 0.000000 0.000000 0.000000
# 4 0.000000 0.000000 0.000000 0.041432 0.000000 0.000000
# 5 0.000000 0.000000 0.000000 0.000000 0.041432 0.000000
# 6 0.000896 -0.000896 0.000000 0.000000 0.000000 0.030427
#
#
# Mechanical properties :
#
#
# Convention : Reuss Voigt Hill
#
# Bulk Modulus (GPa) = 64.03147 67.29648 65.66397
# Shear Modulus (GPa) = 27.20693 28.00948 27.60820
#
# Velocity S-wave (km/s) = 3.82987 3.88595 3.85801
# Velocity P-wave (km/s) = 7.35379 7.51102 7.43282
#
# Compressibility (1/GPa) = 0.01561732
#
# Stress axis : x y z
#
# Youngs Moduli (GPa) = 76.72956 76.72956 69.52482
#
# Poissons Ratio (x) = 0.46741 0.21984
# Poissons Ratio (y) = 0.46741 0.21984
# Poissons Ratio (z) = 0.24262 0.24262
#
# Static dielectric constant tensor:
#      x y z
#    x 3.473370 0.000000 0.000000 
#    y 0.000000 3.473370 0.000000 
#    z 0.000000 0.000000 3.454790 
# 
# 
# High freq. dielectric constant tensor:
#      x y z
#    x 1.714870 0.000000 0.000000 
#    y 0.000000 1.714870 0.000000 
#    z 0.000000 0.000000 1.717840 
# 
# From -- ./inp_files/937.got.cif
#   From: 2010.03.12/outbox.cif.g09.slc.cpg/sg76_cif.got.tgz:937.got - 2010.04.16 16:34:25.
