data_PCOD8301954
_publ_section_title
;
Structure prediction by ZEFSAII (Michael W. Deem and Ramdas Pophale) SiO2 
 PCOD8301954
Probable space group: P 41
;
_chemical_formula_sum "Si O2"
_cell_formula_units_Z 32
_cell_length_a 9.088040
_cell_length_b 9.088040
_cell_length_c 18.435139
_cell_angle_alpha 90.000000
_cell_angle_beta 90.000000
_cell_angle_gamma 90.000000
_cell_volume 1522.603684
_symmetry_space_group_name_H-M "P 41"
_symmetry_group_IT_number 76
_symmetry_cell_setting 'tetragonal'
loop_
_space_group_symop_operation_xyz
x,y,z
-y,x,1/4+z
-x,-y,1/2+z
y,-x,3/4+z
loop_
_atom_site_type_symbol
_atom_site_label
_atom_site_fract_x
_atom_site_fract_y
_atom_site_fract_z
Si Si1 0.396082 0.065832 0.469680
Si Si2 0.586020 0.813433 0.421234
Si Si3 0.975777 0.087398 0.796607
Si Si4 0.565832 0.896082 0.261112
Si Si5 0.686568 0.913980 0.809558
Si Si6 0.412602 0.524223 0.434184
Si Si7 0.181894 0.912991 0.697289
Si Si8 0.681894 0.587009 0.783502
O O1 0.231287 0.046740 0.498016
O O2 0.390656 0.119416 0.386501
O O3 0.480762 0.180882 0.520048
O O4 0.490060 0.916228 0.474457
O O5 0.619416 0.890656 0.344290
O O6 0.482966 0.674444 0.405933
O O7 0.741367 0.776831 0.460199
O O8 0.073701 0.130733 0.864774
O O9 0.825556 0.017034 0.824859
O O10 0.051795 0.958649 0.750814
O O11 0.546740 0.731287 0.232776
O O12 0.416228 0.990060 0.256335
O O13 0.680881 0.980762 0.210744
O O14 0.723169 0.758633 0.770593
O O15 0.369267 0.426299 0.366017
O O16 0.541351 0.448206 0.479978
#
# Coordination Sequence:
#
# PCOD8301954 Si02
#       8
#     4   4   4   4   4   4   4   4
#     4  11  24  43  69 102 136 184 235 289 353 423
#     4  11  25  43  69 103 138 181 235 296 351 422
#     4  12  24  44  72 100 141 187 236 288 356 433
#     4  11  24  43  69 102 136 184 235 289 353 423
#     4  11  25  43  69 103 138 181 235 296 351 422
#     4  12  24  44  72 100 141 187 236 288 356 433
#     4  12  24  45  68 101 142 182 235 296 358 423
#     4  12  24  45  68 101 142 182 235 296 358 423
#
# _framework density 21.016629999999999
#
# number of rings (size 3 to 8) (size 9 to 14) (size 15 to 20)
#    0.000    0.500    5.000    3.750    3.500    0.000 
#    0.000    0.000    0.000    0.000    0.000    0.000 
#    0.000    0.000    0.000    0.000    0.000    0.000 
#
# Total GULP energy -396904.920071 kJ/mol
# GULP energy per Si atom -12403.278752 kJ/mol
# Density = 2.096880 g / cm^3
# Si number density = 21.016630 Si / 1000 Ang^3
#
#
#
# Elastic Constant Matrix: (Units=GPa)
#
#
# Indices 1 2 3 4 5 6 
#
# 1 124.3372 38.8537 27.8970 0.0000 0.0000 0.0000
# 2 38.8537 124.3372 27.8970 0.0000 0.0000 0.0000
# 3 27.8970 27.8970 73.8343 0.0000 0.0000 0.0000
# 4 0.0000 0.0000 0.0000 25.4656 0.0000 0.0000
# 5 0.0000 0.0000 0.0000 0.0000 25.4656 0.0000
# 6 0.0000 0.0000 0.0000 0.0000 0.0000 42.4080
#
#
#
# Elastic Compliance Matrix: (Units=1/GPa)
#
#
# Indices 1 2 3 4 5 6 
#
# 1 0.009367 -0.002331 -0.002659 0.000000 0.000000 0.000000
# 2 -0.002331 0.009367 -0.002659 0.000000 0.000000 0.000000
# 3 -0.002659 -0.002659 0.015553 0.000000 0.000000 0.000000
# 4 0.000000 0.000000 0.000000 0.039269 0.000000 0.000000
# 5 0.000000 0.000000 0.000000 0.000000 0.039269 0.000000
# 6 0.000000 0.000000 0.000000 0.000000 0.000000 0.023580
#
#
# Mechanical properties :
#
#
# Convention : Reuss Voigt Hill
#
# Bulk Modulus (GPa) = 52.65481 56.86713 54.76097
# Shear Modulus (GPa) = 31.63904 33.85857 32.74880
#
# Velocity S-wave (km/s) = 3.88420 4.01813 3.95173
# Velocity P-wave (km/s) = 6.72490 6.97453 6.85085
#
# Compressibility (1/GPa) = 0.01899162
#
# Stress axis : x y z
#
# Youngs Moduli (GPa) = 106.75223 106.75223 64.29648
#
# Poissons Ratio (x) = 0.24881 0.17095
# Poissons Ratio (y) = 0.24881 0.17095
# Poissons Ratio (z) = 0.28383 0.28383
#
# Static dielectric constant tensor:
#      x y z
#    x 3.882710 0.000000 0.000000 
#    y 0.000000 3.882710 0.000000 
#    z 0.000000 0.000000 3.669470 
# 
# 
# High freq. dielectric constant tensor:
#      x y z
#    x 1.833770 0.000000 0.000000 
#    y 0.000000 1.833770 0.000000 
#    z 0.000000 0.000000 1.819780 
# 
# From -- ./inp_files/1316.got.cif
#   From: 2010.03.12/outbox.cif.g09.slc.cpg/sg76_cif.got.tgz:1316.got - 2010.04.16 16:34:25.
