data_PCOD8301743
_publ_section_title
;
Structure prediction by ZEFSAII (Michael W. Deem and Ramdas Pophale) SiO2 
 PCOD8301743
Probable space group: I M M A
;
_chemical_formula_sum "Si O2"
_cell_formula_units_Z 80
_cell_length_a 8.798305
_cell_length_b 24.774334
_cell_length_c 23.446778
_cell_angle_alpha 90.000000
_cell_angle_beta 90.000000
_cell_angle_gamma 90.000000
_cell_volume 5110.744534
_symmetry_space_group_name_H-M "I M M A"
_symmetry_group_IT_number 74
_symmetry_cell_setting 'orthorhombic'
loop_
_space_group_symop_operation_xyz
x,y,z
-x,1/2-y,z
x,-y,-z
-x,1/2+y,-z
-x,-y,-z
x,1/2+y,-z
-x,y,z
x,1/2-y,z
1/2+x,1/2+y,1/2+z
1/2-x,-y,1/2+z
1/2+x,1/2-y,1/2-z
1/2-x,y,1/2-z
1/2-x,1/2-y,1/2-z
1/2+x,y,1/2-z
1/2-x,1/2+y,1/2+z
1/2+x,-y,1/2+z
loop_
_atom_site_type_symbol
_atom_site_label
_atom_site_fract_x
_atom_site_fract_y
_atom_site_fract_z
Si Si1 0.180724 0.308079 0.504989
Si Si2 0.180072 0.977728 0.409992
Si Si3 0.178934 0.412179 0.809991
Si Si4 0.323902 0.188901 0.864816
Si Si5 0.180005 0.579090 0.525367
O O1 0.243857 0.250000 0.481991
O O2 0.232672 0.316257 0.570147
O O3 0.241220 0.359045 0.467500
O O4 0.000000 0.306204 0.503576
O O5 0.266678 0.956876 0.354913
O O6 0.234709 0.942845 0.464173
O O7 0.000000 0.972878 0.400008
O O8 0.231404 0.039998 0.422907
O O9 0.250000 0.428716 0.750000
O O10 0.227869 0.351639 0.826365
O O11 0.000000 0.414169 0.804953
O O12 0.500000 0.172310 0.860123
O O13 0.298175 0.250000 0.842750
O O14 0.000000 0.578606 0.523945
#
# Coordination Sequence:
#
# PCOD8301743 Si02
#       5
#    16  16  16  16  16
#     4   8  12  20  40  69  94 115 144 179 213 253
#     4   9  16  29  47  66  88 115 150 184 219 266
#     4  12  24  35  47  62  85 117 152 194 232 268
#     4   9  17  31  50  67  86 115 152 191 224 258
#     4   8  13  23  45  69  90 117 145 179 220 264
#
# _framework density 15.653297
#
# number of rings (size 3 to 8) (size 9 to 14) (size 15 to 20)
#    0.000    2.800    2.000    4.200    0.000    0.800 
#    0.000    2.000    0.000    0.000    0.000    0.000 
#    0.000    0.800    0.000    1.400    0.000    2.000 
#
# Total GULP energy -495574.076557 kJ/mol
# GULP energy per Si atom -12389.351914 kJ/mol
# Density = 1.561767 g / cm^3
# Si number density = 15.653297 Si / 1000 Ang^3
#
#
#
# Elastic Constant Matrix: (Units=GPa)
#
#
# Indices 1 2 3 4 5 6 
#
# 1 58.8677 33.6670 32.6362 0.0000 0.0000 0.0000
# 2 33.6670 150.7196 65.4689 0.0000 0.0000 0.0000
# 3 32.6362 65.4689 74.1841 0.0000 0.0000 0.0000
# 4 0.0000 0.0000 0.0000 20.0569 0.0000 0.0000
# 5 0.0000 0.0000 0.0000 0.0000 17.7902 0.0000
# 6 0.0000 0.0000 0.0000 0.0000 0.0000 15.6452
#
#
#
# Elastic Compliance Matrix: (Units=1/GPa)
#
#
# Indices 1 2 3 4 5 6 
#
# 1 0.022596 -0.001183 -0.008897 0.000000 0.000000 0.000000
# 2 -0.001183 0.010821 -0.009030 0.000000 0.000000 0.000000
# 3 -0.008897 -0.009030 0.025363 0.000000 0.000000 0.000000
# 4 0.000000 0.000000 0.000000 0.049858 0.000000 0.000000
# 5 0.000000 0.000000 0.000000 0.000000 0.056211 0.000000
# 6 0.000000 0.000000 0.000000 0.000000 0.000000 0.063917
#
#
# Mechanical properties :
#
#
# Convention : Reuss Voigt Hill
#
# Bulk Modulus (GPa) = 48.63462 60.81284 54.72373
# Shear Modulus (GPa) = 18.25886 20.83174 19.54530
#
# Velocity S-wave (km/s) = 3.41905 3.65200 3.53744
# Velocity P-wave (km/s) = 6.83548 7.53107 7.19169
#
# Compressibility (1/GPa) = 0.02056149
#
# Stress axis : x y z
#
# Youngs Moduli (GPa) = 44.25524 92.41027 39.42750
#
# Poissons Ratio (x) = 0.10930 0.35079
# Poissons Ratio (y) = 0.05234 0.35602
# Poissons Ratio (z) = 0.39374 0.83444
#
# Static dielectric constant tensor:
#      x y z
#    x 2.610090 0.000000 0.000000 
#    y 0.000000 3.628250 0.000000 
#    z 0.000000 0.000000 2.743130 
# 
# 
# High freq. dielectric constant tensor:
#      x y z
#    x 1.565040 0.000000 0.000000 
#    y 0.000000 1.614650 0.000000 
#    z 0.000000 0.000000 1.556210 
# 
# From -- ./inp_files/39757.got.cif
#   From: 2010.03.12/outbox.cif.g09.slc.cpg/sg74_20_cif.got.tgz:39757.got - 2010.04.16 15:46:19.
