data_PCOD8301551
_publ_section_title
;
Structure prediction by ZEFSAII (Michael W. Deem and Ramdas Pophale) SiO2 
 PCOD8301551
Probable space group: I M M A
;
_chemical_formula_sum "Si O2"
_cell_formula_units_Z 112
_cell_length_a 27.943847
_cell_length_b 15.120442
_cell_length_c 12.446248
_cell_angle_alpha 90.000000
_cell_angle_beta 90.000000
_cell_angle_gamma 90.000000
_cell_volume 5258.829999
_symmetry_space_group_name_H-M "I M M A"
_symmetry_group_IT_number 74
_symmetry_cell_setting 'orthorhombic'
loop_
_space_group_symop_operation_xyz
x,y,z
-x,1/2-y,z
x,-y,-z
-x,1/2+y,-z
-x,-y,-z
x,1/2+y,-z
-x,y,z
x,1/2-y,z
1/2+x,1/2+y,1/2+z
1/2-x,-y,1/2+z
1/2+x,1/2-y,1/2-z
1/2-x,y,1/2-z
1/2-x,1/2-y,1/2-z
1/2+x,y,1/2-z
1/2-x,1/2+y,1/2+z
1/2+x,-y,1/2+z
loop_
_atom_site_type_symbol
_atom_site_label
_atom_site_fract_x
_atom_site_fract_y
_atom_site_fract_z
Si Si1 0.218121 0.152437 0.145936
Si Si2 0.303876 0.603622 0.994522
Si Si3 0.555018 0.485436 0.262918
Si Si4 0.195638 0.351226 0.736934
Si Si5 0.647366 0.998653 0.623820
Si Si6 0.945852 0.848359 0.380176
Si Si7 0.101426 0.350618 0.401315
O O1 0.196060 0.250000 0.128947
O O2 0.250000 0.147926 0.250000
O O3 0.250351 0.130330 0.040962
O O4 0.174946 0.085990 0.169494
O O5 0.340994 0.638697 0.903663
O O6 0.307929 0.500000 0.000000
O O7 0.317593 0.643119 0.111052
O O8 0.500000 0.465798 0.295967
O O9 0.590233 0.483224 0.365174
O O10 0.560772 0.583521 0.215952
O O11 0.573718 0.412542 0.180563
O O12 0.189000 0.250000 0.775890
O O13 0.250000 0.383996 0.750000
O O14 0.162801 0.413379 0.811514
O O15 0.661091 0.000000 0.500000
O O16 0.930748 0.750000 0.339522
O O17 0.914410 0.879464 0.479888
O O18 0.000000 0.847872 0.421833
O O19 0.087194 0.250000 0.373935
#
# Coordination Sequence:
#
# PCOD8301551 Si02
#       7
#    16  16  16  16  16  16  16
#     4  11  23  40  63  93 130 168 203 241 296 371
#     4  12  22  36  62  95 134 171 205 247 300 371
#     4  11  24  41  61  85 115 155 206 263 319 377
#     4  11  23  40  64  95 130 168 211 258 310 372
#     4  12  26  43  63  86 116 159 211 268 325 378
#     4   9  18  34  58  89 123 155 189 237 303 377
#     4  11  21  34  57  91 128 163 196 236 297 371
#
# _framework density 21.297514
#
# number of rings (size 3 to 8) (size 9 to 14) (size 15 to 20)
#    0.000    1.000    0.000    9.000    0.000    7.429 
#    0.000    0.000    0.000    0.000    0.000    4.000 
#    0.000    0.000    0.000    0.000    0.000    0.000 
#
# Total GULP energy -694447.192479 kJ/mol
# GULP energy per Si atom -12400.842723 kJ/mol
# Density = 2.124904 g / cm^3
# Si number density = 21.297514 Si / 1000 Ang^3
#
#
#
# Elastic Constant Matrix: (Units=GPa)
#
#
# Indices 1 2 3 4 5 6 
#
# 1 125.8822 40.2140 24.9518 0.0000 0.0000 0.0000
# 2 40.2140 120.7113 30.0626 0.0000 0.0000 0.0000
# 3 24.9518 30.0626 71.2850 0.0000 0.0000 0.0000
# 4 0.0000 0.0000 0.0000 -14.7910 0.0000 0.0000
# 5 0.0000 0.0000 0.0000 0.0000 36.3479 0.0000
# 6 0.0000 0.0000 0.0000 0.0000 0.0000 -493.3864
#
#
#
# Elastic Compliance Matrix: (Units=1/GPa)
#
#
# Indices 1 2 3 4 5 6 
#
# 1 0.009175 -0.002522 -0.002148 0.000000 0.000000 0.000000
# 2 -0.002522 0.009949 -0.003313 0.000000 0.000000 0.000000
# 3 -0.002148 -0.003313 0.016177 0.000000 0.000000 0.000000
# 4 0.000000 0.000000 0.000000 -0.067609 0.000000 0.000000
# 5 0.000000 0.000000 0.000000 0.000000 0.027512 0.000000
# 6 0.000000 0.000000 0.000000 0.000000 0.000000 -0.002027
#
#
# Mechanical properties :
#
#
# Convention : Reuss Voigt Hill
#
# Bulk Modulus (GPa) = 51.71717 56.48169 54.09943
# Shear Modulus (GPa) = 320.71579 -79.52256 120.59662
#
# Velocity S-wave (km/s) = 12.28476 -6.11718 7.53310
# Velocity P-wave (km/s) = 15.01853 4.82860 10.05587
#
# Compressibility (1/GPa) = 0.01933594
#
# Stress axis : x y z
#
# Youngs Moduli (GPa) = 108.98821 100.50792 61.81457
#
# Poissons Ratio (x) = 0.25345 0.13279
# Poissons Ratio (y) = 0.27483 0.20481
# Poissons Ratio (z) = 0.23413 0.33301
#
# Static dielectric constant tensor:
#      x y z
#    x 4.069790 0.000000 0.000000 
#    y 0.000000 4.229740 0.000000 
#    z 0.000000 0.000000 3.685190 
# 
# 
# High freq. dielectric constant tensor:
#      x y z
#    x 1.840580 0.000000 0.000000 
#    y 0.000000 1.850660 0.000000 
#    z 0.000000 0.000000 1.810130 
# 
# From -- ./inp_files/27198.got.cif
#   From: 2010.03.12/outbox.cif.g09.slc.cpg/sg74_14_cif.got.tgz:27198.got - 2010.04.16 15:46:19.
