data_PCOD8301167
_publ_section_title
;
Structure prediction by ZEFSAII (Michael W. Deem and Ramdas Pophale) SiO2 
 PCOD8301167
Probable space group: I M M A
;
_chemical_formula_sum "Si O2"
_cell_formula_units_Z 92
_cell_length_a 19.725589
_cell_length_b 12.877959
_cell_length_c 17.537415
_cell_angle_alpha 90.000000
_cell_angle_beta 90.000000
_cell_angle_gamma 90.000000
_cell_volume 4454.947569
_symmetry_space_group_name_H-M "I M M A"
_symmetry_group_IT_number 74
_symmetry_cell_setting 'orthorhombic'
loop_
_space_group_symop_operation_xyz
x,y,z
-x,1/2-y,z
x,-y,-z
-x,1/2+y,-z
-x,-y,-z
x,1/2+y,-z
-x,y,z
x,1/2-y,z
1/2+x,1/2+y,1/2+z
1/2-x,-y,1/2+z
1/2+x,1/2-y,1/2-z
1/2-x,y,1/2-z
1/2-x,1/2-y,1/2-z
1/2+x,y,1/2-z
1/2-x,1/2+y,1/2+z
1/2+x,-y,1/2+z
loop_
_atom_site_type_symbol
_atom_site_label
_atom_site_fract_x
_atom_site_fract_y
_atom_site_fract_z
Si Si1 0.878730 0.634961 0.647848
Si Si2 0.579593 0.750000 0.365079
Si Si3 0.000000 0.250000 0.605346
Si Si4 0.635447 0.250000 0.800812
Si Si5 0.355698 0.043271 0.584319
Si Si6 0.500000 0.108969 0.033394
Si Si7 0.221001 0.453722 0.667981
Si Si8 0.577432 0.632540 0.683674
O O1 0.845191 0.750000 0.650532
O O2 0.821237 0.549598 0.633060
O O3 0.916962 0.609952 0.726535
O O4 0.933285 0.635909 0.580536
O O5 0.500000 0.750000 0.346177
O O6 0.625272 0.750000 0.289639
O O7 0.597187 0.645620 0.411996
O O8 0.936190 0.250000 0.660047
O O9 0.000000 0.154879 0.550040
O O10 0.675775 0.148079 0.824613
O O11 0.279634 0.073409 0.607843
O O12 0.358780 0.000000 0.500000
O O13 0.378414 0.951884 0.640580
O O14 0.500000 0.000000 0.000000
O O15 0.250000 0.487595 0.750000
O O16 0.500000 0.618531 0.658500
O O17 0.602193 0.750000 0.664462
#
# Coordination Sequence:
#
# PCOD8301167 Si02
#       8
#    16   8   4   8  16   8  16  16
#     4  11  22  42  69  98 138 181 231 275 337 414
#     4  12  25  47  78 101 135 180 230 295 352 416
#     4  12  26  42  70 110 140 168 228 288 358 402
#     4  12  24  46  75 106 134 183 239 280 344 431
#     4  12  28  46  65 102 141 176 232 291 349 403
#     4  12  24  42  66 104 148 175 220 294 348 407
#     4  12  24  43  71  99 136 187 236 277 337 417
#     4  10  21  40  71  99 129 178 226 276 338 412
#
# _framework density 20.651197
#
# number of rings (size 3 to 8) (size 9 to 14) (size 15 to 20)
#    0.000    0.522    5.652    2.348    1.217    4.522 
#    0.000    0.000    0.000    0.000    0.000    0.000 
#    0.000    0.000    0.000    0.000    0.000    0.000 
#
# Total GULP energy -570399.993676 kJ/mol
# GULP energy per Si atom -12399.999863 kJ/mol
# Density = 2.060419 g / cm^3
# Si number density = 20.651197 Si / 1000 Ang^3
#
#
#
# Elastic Constant Matrix: (Units=GPa)
#
#
# Indices 1 2 3 4 5 6 
#
# 1 109.9446 55.2325 21.7341 0.0000 0.0000 0.0000
# 2 55.2325 156.0937 40.4566 0.0000 0.0000 0.0000
# 3 21.7341 40.4566 99.7906 0.0000 0.0000 0.0000
# 4 0.0000 0.0000 0.0000 34.1942 0.0000 0.0000
# 5 0.0000 0.0000 0.0000 0.0000 126.2500 0.0000
# 6 0.0000 0.0000 0.0000 0.0000 0.0000 75.7036
#
#
#
# Elastic Compliance Matrix: (Units=1/GPa)
#
#
# Indices 1 2 3 4 5 6 
#
# 1 0.011138 -0.003701 -0.000925 0.000000 0.000000 0.000000
# 2 -0.003701 0.008389 -0.002595 0.000000 0.000000 0.000000
# 3 -0.000925 -0.002595 0.011274 0.000000 0.000000 0.000000
# 4 0.000000 0.000000 0.000000 0.029245 0.000000 0.000000
# 5 0.000000 0.000000 0.000000 0.000000 0.007921 0.000000
# 6 0.000000 0.000000 0.000000 0.000000 0.000000 0.013209
#
#
# Mechanical properties :
#
#
# Convention : Reuss Voigt Hill
#
# Bulk Modulus (GPa) = 61.13073 66.74171 63.93622
# Shear Modulus (GPa) = 49.47025 63.78993 56.63009
#
# Velocity S-wave (km/s) = 4.89971 5.56384 5.24230
# Velocity P-wave (km/s) = 7.85337 8.58276 8.22615
#
# Compressibility (1/GPa) = 0.01635838
#
# Stress axis : x y z
#
# Youngs Moduli (GPa) = 89.78475 119.21002 88.69613
#
# Poissons Ratio (x) = 0.44122 0.08207
# Poissons Ratio (y) = 0.33231 0.23014
# Poissons Ratio (z) = 0.08307 0.30932
#
# Static dielectric constant tensor:
#      x y z
#    x 3.857900 0.000000 0.000000 
#    y 0.000000 3.990450 0.000000 
#    z 0.000000 0.000000 3.409140 
# 
# 
# High freq. dielectric constant tensor:
#      x y z
#    x 1.810630 0.000000 0.000000 
#    y 0.000000 1.832190 0.000000 
#    z 0.000000 0.000000 1.804420 
# 
# From -- ./inp_files/45187.got.cif
#   From: 2010.03.12/outbox.cif.g09.slc.cpg/sg74_23_cif.got.tgz:45187.got - 2010.04.16 15:46:19.
