data_PCOD8301935
_publ_section_title
;
Structure prediction by ZEFSAII (Michael W. Deem and Ramdas Pophale) SiO2 
 PCOD8301935
Probable space group: P 41
;
_chemical_formula_sum "Si O2"
_cell_formula_units_Z 24
_cell_length_a 15.837687
_cell_length_b 15.837687
_cell_length_c 4.939262
_cell_angle_alpha 90.000000
_cell_angle_beta 90.000000
_cell_angle_gamma 90.000000
_cell_volume 1238.926594
_symmetry_space_group_name_H-M "P 41"
_symmetry_group_IT_number 76
_symmetry_cell_setting 'tetragonal'
loop_
_space_group_symop_operation_xyz
x,y,z
-y,x,1/4+z
-x,-y,1/2+z
y,-x,3/4+z
loop_
_atom_site_type_symbol
_atom_site_label
_atom_site_fract_x
_atom_site_fract_y
_atom_site_fract_z
Si Si1 0.251858 0.810525 0.058480
Si Si2 0.486899 0.057990 0.069648
Si Si3 0.884539 0.049665 0.430839
Si Si4 0.861074 0.652915 0.315692
Si Si5 0.024433 0.755755 0.309148
Si Si6 0.118407 0.701600 0.817490
O O1 0.293175 0.803804 0.355525
O O2 0.182884 0.886444 0.067679
O O3 0.331341 0.826852 0.864947
O O4 0.210265 0.724664 0.940543
O O5 0.553249 0.133406 0.999052
O O6 0.397336 0.103743 0.097873
O O7 0.514495 0.016123 0.351047
O O8 0.971402 0.098268 0.378208
O O9 0.845344 0.015973 0.146219
O O10 0.958136 0.680763 0.322012
O O11 0.103722 0.733185 0.509272
O O12 0.053906 0.757223 0.998983
#
# Coordination Sequence:
#
# PCOD8301935 Si02
#       6
#     4   4   4   4   4   4
#     4  11  25  39  55  77 116 153 192 241 300 340
#     4  12  22  37  62  89 111 143 197 253 301 356
#     4  11  25  34  50  76 105 160 212 253 269 318
#     4  11  22  39  58  79 110 148 187 242 294 357
#     4  11  22  37  53  74 110 143 197 242 292 325
#     4  12  22  40  56  81 110 147 189 241 300 350
#
# _framework density 19.37161
#
# number of rings (size 3 to 8) (size 9 to 14) (size 15 to 20)
#    0.000    0.667    5.000    4.000    4.667    0.000 
#    0.000    0.000    0.000    0.000    0.000    0.000 
#    0.000    2.667    0.000    0.000    0.000    0.000 
#
# Total GULP energy -297503.406673 kJ/mol
# GULP energy per Si atom -12395.975278 kJ/mol
# Density = 1.932752 g / cm^3
# Si number density = 19.371610 Si / 1000 Ang^3
#
#
#
# Elastic Constant Matrix: (Units=GPa)
#
#
# Indices 1 2 3 4 5 6 
#
# 1 90.9910 27.8799 12.2143 0.0000 0.0000 -6.4552
# 2 27.8799 90.9910 12.2143 0.0000 0.0000 6.4552
# 3 12.2143 12.2143 56.1695 0.0000 0.0000 0.0000
# 4 0.0000 0.0000 0.0000 14.4228 0.0000 0.0000
# 5 0.0000 0.0000 0.0000 0.0000 14.4228 0.0000
# 6 -6.4552 6.4552 0.0000 0.0000 0.0000 11.2937
#
#
#
# Elastic Compliance Matrix: (Units=1/GPa)
#
#
# Indices 1 2 3 4 5 6 
#
# 1 0.013375 -0.004569 -0.001915 0.000000 0.000000 0.010256
# 2 -0.004569 0.013375 -0.001915 0.000000 0.000000 -0.010256
# 3 -0.001915 -0.001915 0.018636 0.000000 0.000000 0.000000
# 4 0.000000 0.000000 0.000000 0.069335 0.000000 0.000000
# 5 0.000000 0.000000 0.000000 0.000000 0.069335 0.000000
# 6 0.010256 -0.010256 0.000000 0.000000 0.000000 0.100269
#
#
# Mechanical properties :
#
#
# Convention : Reuss Voigt Hill
#
# Bulk Modulus (GPa) = 34.97914 38.08539 36.53226
# Shear Modulus (GPa) = 16.09530 20.41737 18.25633
#
# Velocity S-wave (km/s) = 2.88561 3.25003 3.07323
# Velocity P-wave (km/s) = 5.40356 5.81263 5.61182
#
# Compressibility (1/GPa) = 0.02858847
#
# Stress axis : x y z
#
# Youngs Moduli (GPa) = 74.76899 74.76899 53.65935
#
# Poissons Ratio (x) = 0.34158 0.10275
# Poissons Ratio (y) = 0.34158 0.10275
# Poissons Ratio (z) = 0.14318 0.14318
#
# Static dielectric constant tensor:
#      x y z
#    x 3.444830 0.000000 0.000000 
#    y 0.000000 3.444830 0.000000 
#    z 0.000000 0.000000 3.817250 
# 
# 
# High freq. dielectric constant tensor:
#      x y z
#    x 1.721570 0.000000 0.000000 
#    y 0.000000 1.721570 0.000000 
#    z 0.000000 0.000000 1.777270 
# 
# From -- ./inp_files/174.got.cif
#   From: 2010.03.12/outbox.cif.g09.slc.cpg/sg76_cif.got.tgz:174.got - 2010.04.16 16:34:25.
