data_PCOD8301054
_publ_section_title
;
Structure prediction by ZEFSAII (Michael W. Deem and Ramdas Pophale) SiO2 
 PCOD8301054
Probable space group: I M M A
;
_chemical_formula_sum "Si O2"
_cell_formula_units_Z 80
_cell_length_a 8.802665
_cell_length_b 24.722238
_cell_length_c 18.364214
_cell_angle_alpha 90.000000
_cell_angle_beta 90.000000
_cell_angle_gamma 90.000000
_cell_volume 3996.449251
_symmetry_space_group_name_H-M "I M M A"
_symmetry_group_IT_number 74
_symmetry_cell_setting 'orthorhombic'
loop_
_space_group_symop_operation_xyz
x,y,z
-x,1/2-y,z
x,-y,-z
-x,1/2+y,-z
-x,-y,-z
x,1/2+y,-z
-x,y,z
x,1/2-y,z
1/2+x,1/2+y,1/2+z
1/2-x,-y,1/2+z
1/2+x,1/2-y,1/2-z
1/2-x,y,1/2-z
1/2-x,1/2-y,1/2-z
1/2+x,y,1/2-z
1/2-x,1/2+y,1/2+z
1/2+x,-y,1/2+z
loop_
_atom_site_type_symbol
_atom_site_label
_atom_site_fract_x
_atom_site_fract_y
_atom_site_fract_z
Si Si1 0.823410 0.687094 0.071304
Si Si2 0.325033 0.004699 0.084290
Si Si3 0.322433 0.397467 0.827327
Si Si4 0.321499 0.402150 0.327188
Si Si5 0.822528 0.687294 0.580165
O O1 0.793557 0.750000 0.086066
O O2 0.753800 0.655803 0.139477
O O3 0.000000 0.673704 0.063369
O O4 0.741755 0.667997 0.997438
O O5 0.500000 0.021380 0.096986
O O6 0.217962 0.050621 0.116683
O O7 0.287215 0.947692 0.120721
O O8 0.285523 0.000000 0.000000
O O9 0.500000 0.386695 0.818076
O O10 0.250000 0.410661 0.750000
O O11 0.500000 0.397103 0.318178
O O12 0.250000 0.417114 0.250000
O O13 0.257091 0.345123 0.355141
O O14 0.786234 0.750000 0.593754
O O15 0.000000 0.674668 0.580714
#
# Coordination Sequence:
#
# PCOD8301054 Si02
#       5
#    16  16  16  16  16
#     4  10  21  38  61  89 120 154 195 243 293 349
#     4  10  22  41  64  89 118 152 193 241 293 351
#     4  11  23  38  59  86 119 158 197 243 296 350
#     4  12  25  40  61  88 121 158 196 242 294 349
#     4  10  21  39  63  89 119 156 197 241 290 346
#
# _framework density 20.017769000000001
#
# number of rings (size 3 to 8) (size 9 to 14) (size 15 to 20)
#    0.000    1.400    0.000    5.400    0.000    8.400 
#    0.000    0.000    0.000    0.000    0.000    0.000 
#    0.000    0.000    0.000    0.000    0.000    0.000 
#
# Total GULP energy -496336.431594 kJ/mol
# GULP energy per Si atom -12408.410790 kJ/mol
# Density = 1.997221 g / cm^3
# Si number density = 20.017769 Si / 1000 Ang^3
#
#
#
# Elastic Constant Matrix: (Units=GPa)
#
#
# Indices 1 2 3 4 5 6 
#
# 1 137.0537 58.7601 60.3583 0.0001 0.0000 0.0000
# 2 58.7601 89.9342 56.0460 0.0000 0.0000 0.0000
# 3 60.3583 56.0460 138.2289 0.0003 0.0001 0.0000
# 4 0.0001 0.0000 0.0003 24.0332 0.0000 0.0000
# 5 0.0000 0.0000 0.0001 0.0000 39.6154 0.0000
# 6 0.0000 0.0000 0.0000 0.0000 0.0000 32.0739
#
#
#
# Elastic Compliance Matrix: (Units=1/GPa)
#
#
# Indices 1 2 3 4 5 6 
#
# 1 0.010729 -0.005473 -0.002466 0.000000 0.000000 0.000000
# 2 -0.005473 0.017671 -0.004775 0.000000 0.000000 0.000000
# 3 -0.002466 -0.004775 0.010247 0.000000 0.000000 0.000000
# 4 0.000000 0.000000 0.000000 0.041609 0.000000 0.000000
# 5 0.000000 0.000000 0.000000 0.000000 0.025243 0.000000
# 6 0.000000 0.000000 0.000000 0.000000 0.000000 0.031178
#
#
# Mechanical properties :
#
#
# Convention : Reuss Voigt Hill
#
# Bulk Modulus (GPa) = 75.64746 79.50503 77.57624
# Shear Modulus (GPa) = 30.02807 31.81466 30.92136
#
# Velocity S-wave (km/s) = 3.87728 3.99095 3.93453
# Velocity P-wave (km/s) = 7.61029 7.81284 7.71223
#
# Compressibility (1/GPa) = 0.01321922
#
# Stress axis : x y z
#
# Youngs Moduli (GPa) = 93.20614 56.58979 97.58949
#
# Poissons Ratio (x) = 0.30974 0.24062
# Poissons Ratio (y) = 0.51015 0.46598
# Poissons Ratio (z) = 0.22981 0.27021
#
# Static dielectric constant tensor:
#      x y z
#    x 3.719700 0.000000 0.000000 
#    y 0.000000 3.664110 0.000000 
#    z 0.000000 0.000000 3.663500 
# 
# 
# High freq. dielectric constant tensor:
#      x y z
#    x 1.792390 0.000000 0.000000 
#    y 0.000000 1.790420 0.000000 
#    z 0.000000 0.000000 1.788830 
# 
# From -- ./inp_files/39727.got.cif
#   From: 2010.03.12/outbox.cif.g09.slc.cpg/sg74_20_cif.got.tgz:39727.got - 2010.04.16 15:46:19.
