data_PCOD8301010
_publ_section_title
;
Structure prediction by ZEFSAII (Michael W. Deem and Ramdas Pophale) SiO2 
 PCOD8301010
Probable space group: I M M A
;
_chemical_formula_sum "Si O2"
_cell_formula_units_Z 80
_cell_length_a 22.859342
_cell_length_b 8.641447
_cell_length_c 19.281703
_cell_angle_alpha 90.000000
_cell_angle_beta 90.000000
_cell_angle_gamma 90.000000
_cell_volume 3808.865043
_symmetry_space_group_name_H-M "I M M A"
_symmetry_group_IT_number 74
_symmetry_cell_setting 'orthorhombic'
loop_
_space_group_symop_operation_xyz
x,y,z
-x,1/2-y,z
x,-y,-z
-x,1/2+y,-z
-x,-y,-z
x,1/2+y,-z
-x,y,z
x,1/2-y,z
1/2+x,1/2+y,1/2+z
1/2-x,-y,1/2+z
1/2+x,1/2-y,1/2-z
1/2-x,y,1/2-z
1/2-x,1/2-y,1/2-z
1/2+x,y,1/2-z
1/2-x,1/2+y,1/2+z
1/2+x,-y,1/2+z
loop_
_atom_site_type_symbol
_atom_site_label
_atom_site_fract_x
_atom_site_fract_y
_atom_site_fract_z
Si Si1 0.761476 0.427043 0.669070
Si Si2 0.160344 0.432938 0.075727
Si Si3 0.432921 0.419596 0.933536
Si Si4 0.067239 0.067255 0.829390
Si Si5 0.617910 0.930361 0.808691
O O1 0.765159 0.250000 0.644011
O O2 0.750000 0.438905 0.750000
O O3 0.710737 0.511985 0.627469
O O4 0.822052 0.514580 0.655587
O O5 0.160452 0.250000 0.071840
O O6 0.097443 0.490074 0.103853
O O7 0.172006 0.500000 0.000000
O O8 0.500000 0.394010 0.951896
O O9 0.404087 0.250000 0.919862
O O10 0.430151 0.529025 0.866213
O O11 0.401790 0.500000 0.000000
O O12 0.070733 0.250000 0.837998
O O13 0.000000 0.010357 0.824494
O O14 0.103223 0.021369 0.761227
O O15 0.619053 0.750000 0.791055
#
# Coordination Sequence:
#
# PCOD8301010 Si02
#       5
#    16  16  16  16  16
#     4  11  23  42  69  95 127 167 210 259 316 377
#     4  12  26  45  70  99 134 171 216 268 325 387
#     4  10  21  38  59  85 122 166 211 261 317 375
#     4  11  24  43  67  96 131 173 221 270 323 383
#     4  12  24  38  63  96 130 167 214 265 318 383
#
# _framework density 21.003633000000001
#
# number of rings (size 3 to 8) (size 9 to 14) (size 15 to 20)
#    0.000    0.800    2.000    6.000    0.000    7.200 
#    0.000    4.000    0.000    0.000    0.000    0.000 
#    0.000    0.000    0.000    0.000    0.000    0.000 
#
# Total GULP energy -496127.657237 kJ/mol
# GULP energy per Si atom -12403.191431 kJ/mol
# Density = 2.095583 g / cm^3
# Si number density = 21.003633 Si / 1000 Ang^3
#
#
#
# Elastic Constant Matrix: (Units=GPa)
#
#
# Indices 1 2 3 4 5 6 
#
# 1 106.5913 47.2643 33.7263 0.0000 0.0000 0.0000
# 2 47.2643 148.1045 44.9441 0.0000 0.0000 0.0000
# 3 33.7263 44.9441 105.2020 0.0000 0.0000 0.0000
# 4 0.0000 0.0000 0.0000 40.2419 0.0000 0.0000
# 5 0.0000 0.0000 0.0000 0.0000 24.6735 0.0000
# 6 0.0000 0.0000 0.0000 0.0000 0.0000 18.9079
#
#
#
# Elastic Compliance Matrix: (Units=1/GPa)
#
#
# Indices 1 2 3 4 5 6 
#
# 1 0.011441 -0.002916 -0.002422 0.000000 0.000000 0.000000
# 2 -0.002916 0.008501 -0.002697 0.000000 0.000000 0.000000
# 3 -0.002422 -0.002697 0.011434 0.000000 0.000000 0.000000
# 4 0.000000 0.000000 0.000000 0.024850 0.000000 0.000000
# 5 0.000000 0.000000 0.000000 0.000000 0.040529 0.000000
# 6 0.000000 0.000000 0.000000 0.000000 0.000000 0.052888
#
#
# Mechanical properties :
#
#
# Convention : Reuss Voigt Hill
#
# Bulk Modulus (GPa) = 65.33355 67.97412 66.65383
# Shear Modulus (GPa) = 29.27138 32.36220 30.81679
#
# Velocity S-wave (km/s) = 3.73719 3.92955 3.83458
# Velocity P-wave (km/s) = 7.05659 7.28160 7.16998
#
# Compressibility (1/GPa) = 0.01530607
#
# Stress axis : x y z
#
# Youngs Moduli (GPa) = 87.40455 117.63279 87.45740
#
# Poissons Ratio (x) = 0.34304 0.21182
# Poissons Ratio (y) = 0.25489 0.23586
# Poissons Ratio (z) = 0.21169 0.31724
#
# Static dielectric constant tensor:
#      x y z
#    x 3.964520 0.000000 0.000000 
#    y 0.000000 4.066690 0.000000 
#    z 0.000000 0.000000 3.819060 
# 
# 
# High freq. dielectric constant tensor:
#      x y z
#    x 1.821550 0.000000 0.000000 
#    y 0.000000 1.839640 0.000000 
#    z 0.000000 0.000000 1.826310 
# 
# From -- ./inp_files/46488.got.cif
#   From: 2010.03.12/outbox.cif.g09.slc.cpg/sg74_24_cif.got.tgz:46488.got - 2010.04.16 15:46:19.
