data_PCOD8301781
_publ_section_title
;
Structure prediction by ZEFSAII (Michael W. Deem and Ramdas Pophale) SiO2 
 PCOD8301781
Probable space group: I M M A
;
_chemical_formula_sum "Si O2"
_cell_formula_units_Z 112
_cell_length_a 19.179913
_cell_length_b 18.483400
_cell_length_c 18.750395
_cell_angle_alpha 90.000000
_cell_angle_beta 90.000000
_cell_angle_gamma 90.000000
_cell_volume 6647.202605
_symmetry_space_group_name_H-M "I M M A"
_symmetry_group_IT_number 74
_symmetry_cell_setting 'orthorhombic'
loop_
_space_group_symop_operation_xyz
x,y,z
-x,1/2-y,z
x,-y,-z
-x,1/2+y,-z
-x,-y,-z
x,1/2+y,-z
-x,y,z
x,1/2-y,z
1/2+x,1/2+y,1/2+z
1/2-x,-y,1/2+z
1/2+x,1/2-y,1/2-z
1/2-x,y,1/2-z
1/2-x,1/2-y,1/2-z
1/2+x,y,1/2-z
1/2-x,1/2+y,1/2+z
1/2+x,-y,1/2+z
loop_
_atom_site_type_symbol
_atom_site_label
_atom_site_fract_x
_atom_site_fract_y
_atom_site_fract_z
Si Si1 0.178890 0.833458 0.409579
Si Si2 0.582599 0.330256 0.192554
Si Si3 0.578294 0.664052 0.966486
Si Si4 0.663669 0.831969 0.383337
Si Si5 0.672845 0.407464 0.761948
Si Si6 0.418231 0.967831 0.428021
Si Si7 0.582025 0.964184 0.717668
O O1 0.159784 0.750000 0.400272
O O2 0.134314 0.866147 0.475934
O O3 0.261463 0.843932 0.421039
O O4 0.157006 0.872735 0.337675
O O5 0.500000 0.324171 0.196150
O O6 0.614439 0.250000 0.208077
O O7 0.609755 0.386981 0.252465
O O8 0.603209 0.358678 0.113277
O O9 0.500000 0.633994 0.982989
O O10 0.576032 0.750000 0.968691
O O11 0.637776 0.750000 0.396046
O O12 0.664774 0.845954 0.298508
O O13 0.610754 0.887530 0.418623
O O14 0.750000 0.440676 0.750000
O O15 0.617521 0.471375 0.760280
O O16 0.500000 0.958152 0.433941
O O17 0.385881 0.000000 0.500000
O O18 0.398244 0.024442 0.365403
O O19 0.500000 0.970963 0.730360
#
# Coordination Sequence:
#
# PCOD8301781 Si02
#       7
#    16  16  16  16  16  16  16
#     4   9  16  27  44  66  91 120 154 187 217 253
#     4   8  14  27  47  67  87 115 151 186 218 257
#     4   8  14  25  41  62  90 122 151 180 216 253
#     4   9  17  30  48  68  89 116 151 186 219 264
#     4   9  17  29  44  64  91 121 148 179 222 266
#     4   9  18  33  50  67  90 116 140 178 234 282
#     4   9  17  30  48  67  87 114 148 183 220 267
#
# _framework density 16.849193
#
# number of rings (size 3 to 8) (size 9 to 14) (size 15 to 20)
#    0.000    3.286    0.000    1.286    0.000    2.571 
#    0.000    5.714    0.000    8.143    0.000    0.000 
#    0.000    0.000    0.000    0.000    0.000    0.000 
#
# Total GULP energy -693950.229796 kJ/mol
# GULP energy per Si atom -12391.968389 kJ/mol
# Density = 1.681084 g / cm^3
# Si number density = 16.849193 Si / 1000 Ang^3
#
#
#
# Elastic Constant Matrix: (Units=GPa)
#
#
# Indices 1 2 3 4 5 6 
#
# 1 27.9462 32.9810 40.4776 0.0000 0.0000 0.0000
# 2 32.9810 93.3454 70.9609 0.0000 0.0000 0.0000
# 3 40.4776 70.9609 123.4369 0.0000 0.0000 0.0000
# 4 0.0000 0.0000 0.0000 20.9274 0.0000 0.0000
# 5 0.0000 0.0000 0.0000 0.0000 16.6429 0.0000
# 6 0.0000 0.0000 0.0000 0.0000 0.0000 18.4319
#
#
#
# Elastic Compliance Matrix: (Units=1/GPa)
#
#
# Indices 1 2 3 4 5 6 
#
# 1 0.077651 -0.014350 -0.017214 0.000000 0.000000 0.000000
# 2 -0.014350 0.021681 -0.007758 0.000000 0.000000 0.000000
# 3 -0.017214 -0.007758 0.018206 0.000000 0.000000 0.000000
# 4 0.000000 0.000000 0.000000 0.047784 0.000000 0.000000
# 5 0.000000 0.000000 0.000000 0.000000 0.060086 0.000000
# 6 0.000000 0.000000 0.000000 0.000000 0.000000 0.054254
#
#
# Mechanical properties :
#
#
# Convention : Reuss Voigt Hill
#
# Bulk Modulus (GPa) = 25.71089 59.28527 42.49808
# Shear Modulus (GPa) = 13.46727 17.88770 15.67749
#
# Velocity S-wave (km/s) = 2.83023 3.26181 3.05365
# Velocity P-wave (km/s) = 5.09635 7.03193 6.14088
#
# Compressibility (1/GPa) = 0.03889403
#
# Stress axis : x y z
#
# Youngs Moduli (GPa) = 12.87810 46.12402 54.92645
#
# Poissons Ratio (x) = 0.66187 0.94551
# Poissons Ratio (y) = 0.18480 0.42613
# Poissons Ratio (z) = 0.22169 0.35784
#
# Static dielectric constant tensor:
#      x y z
#    x 3.075000 0.000000 0.000000 
#    y 0.000000 3.128580 0.000000 
#    z 0.000000 0.000000 3.385950 
# 
# 
# High freq. dielectric constant tensor:
#      x y z
#    x 1.630670 0.000000 0.000000 
#    y 0.000000 1.633350 0.000000 
#    z 0.000000 0.000000 1.649360 
# 
# From -- ./inp_files/44418.got.cif
#   From: 2010.03.12/outbox.cif.g09.slc.cpg/sg74_23_cif.got.tgz:44418.got - 2010.04.16 15:46:19.
