data_PCOD8301194
_publ_section_title
;
Structure prediction by ZEFSAII (Michael W. Deem and Ramdas Pophale) SiO2 
 PCOD8301194
Probable space group: I M M A
;
_chemical_formula_sum "Si O2"
_cell_formula_units_Z 104
_cell_length_a 25.350802
_cell_length_b 8.980376
_cell_length_c 22.089998
_cell_angle_alpha 90.000000
_cell_angle_beta 90.000000
_cell_angle_gamma 90.000000
_cell_volume 5029.003066
_symmetry_space_group_name_H-M "I M M A"
_symmetry_group_IT_number 74
_symmetry_cell_setting 'orthorhombic'
loop_
_space_group_symop_operation_xyz
x,y,z
-x,1/2-y,z
x,-y,-z
-x,1/2+y,-z
-x,-y,-z
x,1/2+y,-z
-x,y,z
x,1/2-y,z
1/2+x,1/2+y,1/2+z
1/2-x,-y,1/2+z
1/2+x,1/2-y,1/2-z
1/2-x,y,1/2-z
1/2-x,1/2-y,1/2-z
1/2+x,y,1/2-z
1/2-x,1/2+y,1/2+z
1/2+x,-y,1/2+z
loop_
_atom_site_type_symbol
_atom_site_label
_atom_site_fract_x
_atom_site_fract_y
_atom_site_fract_z
Si Si1 0.888756 0.925611 0.615640
Si Si2 0.500000 0.077145 0.062387
Si Si3 0.277645 0.421219 0.685044
Si Si4 0.788343 0.573370 0.436664
Si Si5 0.058527 0.578954 0.941710
Si Si6 0.886447 0.077862 0.179284
Si Si7 0.439922 0.575159 0.218420
O O1 0.877242 0.750000 0.614685
O O2 0.947245 0.972907 0.595663
O O3 0.846925 0.009058 0.573632
O O4 0.891909 0.990275 0.683450
O O5 0.500000 0.250000 0.051304
O O6 0.500000 0.000000 0.000000
O O7 0.295187 0.250000 0.677871
O O8 0.250000 0.444173 0.750000
O O9 0.243919 0.467394 0.624856
O O10 0.326884 0.529168 0.689229
O O11 0.766406 0.500000 0.500000
O O12 0.790908 0.750000 0.446237
O O13 0.053652 0.750000 0.957329
O O14 0.100742 0.549208 0.890165
O O15 0.000000 0.516351 0.925345
O O16 0.082680 0.500000 0.000000
O O17 0.893643 0.250000 0.198166
O O18 0.929322 0.976493 0.213505
O O19 0.500000 0.529519 0.200367
O O20 0.431572 0.750000 0.210732
#
# Coordination Sequence:
#
# PCOD8301194 Si02
#       7
#    16   8  16  16  16  16  16
#     4  11  22  39  61  88 122 160 203 251 304 359
#     4  10  22  36  54  82 116 154 193 236 287 342
#     4  10  23  44  66  88 119 159 208 264 317 371
#     4  11  24  42  65  93 126 166 211 262 318 377
#     4   9  19  36  57  84 119 157 194 236 292 355
#     4  11  23  38  61  90 120 155 199 254 310 368
#     4  11  23  38  59  89 125 166 207 248 301 368
#
# _framework density 20.680043999999999
#
# number of rings (size 3 to 8) (size 9 to 14) (size 15 to 20)
#    0.000    1.538    0.769    3.692    0.000    8.615 
#    0.000    4.615    0.000    0.000    0.000    0.000 
#    0.000    0.000    0.000    0.000    0.000    0.000 
#
# Total GULP energy -644525.890669 kJ/mol
# GULP energy per Si atom -12394.728667 kJ/mol
# Density = 2.063298 g / cm^3
# Si number density = 20.680044 Si / 1000 Ang^3
#
#
#
# Elastic Constant Matrix: (Units=GPa)
#
#
# Indices 1 2 3 4 5 6 
#
# 1 67.8119 32.7003 32.3512 0.0000 0.0000 0.0000
# 2 32.7003 54.0587 43.6776 0.0000 0.0000 0.0000
# 3 32.3512 43.6776 120.7899 0.0000 0.0000 0.0000
# 4 0.0000 0.0000 0.0000 41.4438 0.0000 0.0000
# 5 0.0000 0.0000 0.0000 0.0000 18.1044 0.0000
# 6 0.0000 0.0000 0.0000 0.0000 0.0000 31.0113
#
#
#
# Elastic Compliance Matrix: (Units=1/GPa)
#
#
# Indices 1 2 3 4 5 6 
#
# 1 0.021000 -0.011526 -0.001457 0.000000 0.000000 0.000000
# 2 -0.011526 0.032460 -0.008650 0.000000 0.000000 0.000000
# 3 -0.001457 -0.008650 0.011797 0.000000 0.000000 0.000000
# 4 0.000000 0.000000 0.000000 0.024129 0.000000 0.000000
# 5 0.000000 0.000000 0.000000 0.000000 0.055235 0.000000
# 6 0.000000 0.000000 0.000000 0.000000 0.000000 0.032246
#
#
# Mechanical properties :
#
#
# Convention : Reuss Voigt Hill
#
# Bulk Modulus (GPa) = 45.47424 51.12431 48.29927
# Shear Modulus (GPa) = 21.98165 27.04068 24.51117
#
# Velocity S-wave (km/s) = 3.26381 3.61996 3.44649
# Velocity P-wave (km/s) = 6.02001 6.49980 6.26450
#
# Compressibility (1/GPa) = 0.02199047
#
# Stress axis : x y z
#
# Youngs Moduli (GPa) = 47.62003 30.80745 84.76766
#
# Poissons Ratio (x) = 0.35508 0.12347
# Poissons Ratio (y) = 0.54886 0.73328
# Poissons Ratio (z) = 0.06936 0.26650
#
# Static dielectric constant tensor:
#      x y z
#    x 3.688200 0.000000 0.000000 
#    y 0.000000 3.653810 0.000000 
#    z 0.000000 0.000000 4.038430 
# 
# 
# High freq. dielectric constant tensor:
#      x y z
#    x 1.802440 0.000000 0.000000 
#    y 0.000000 1.811030 0.000000 
#    z 0.000000 0.000000 1.825710 
# 
# From -- ./inp_files/55230.got.cif
#   From: 2010.03.12/outbox.cif.g09.slc.cpg/sg74_28_cif.got.tgz:55230.got - 2010.04.16 15:46:19.
