data_PCOD8301651
_publ_section_title
;
Structure prediction by ZEFSAII (Michael W. Deem and Ramdas Pophale) SiO2 
 PCOD8301651
Probable space group: I M M A
;
_chemical_formula_sum "Si O2"
_cell_formula_units_Z 80
_cell_length_a 9.293713
_cell_length_b 17.615778
_cell_length_c 27.608623
_cell_angle_alpha 90.000000
_cell_angle_beta 90.000000
_cell_angle_gamma 90.000000
_cell_volume 4519.972909
_symmetry_space_group_name_H-M "I M M A"
_symmetry_group_IT_number 74
_symmetry_cell_setting 'orthorhombic'
loop_
_space_group_symop_operation_xyz
x,y,z
-x,1/2-y,z
x,-y,-z
-x,1/2+y,-z
-x,-y,-z
x,1/2+y,-z
-x,y,z
x,1/2-y,z
1/2+x,1/2+y,1/2+z
1/2-x,-y,1/2+z
1/2+x,1/2-y,1/2-z
1/2-x,y,1/2-z
1/2-x,1/2-y,1/2-z
1/2+x,y,1/2-z
1/2-x,1/2+y,1/2+z
1/2+x,-y,1/2+z
loop_
_atom_site_type_symbol
_atom_site_label
_atom_site_fract_x
_atom_site_fract_y
_atom_site_fract_z
Si Si1 0.334474 0.099072 0.446008
Si Si2 0.336008 0.439833 0.603201
Si Si3 0.169223 0.016789 0.202597
Si Si4 0.829016 0.166548 0.153591
Si Si5 0.669217 0.837953 0.036221
O O1 0.500000 0.118101 0.458820
O O2 0.277753 0.149555 0.401053
O O3 0.235936 0.117309 0.491355
O O4 0.318157 0.011028 0.432632
O O5 0.500000 0.411186 0.601949
O O6 0.292412 0.462105 0.657862
O O7 0.233197 0.372082 0.585881
O O8 0.250000 0.986389 0.250000
O O9 0.227143 0.102040 0.190394
O O10 0.000000 0.017242 0.212554
O O11 0.772837 0.250000 0.169580
O O12 0.000000 0.162219 0.153209
O O13 0.500000 0.850708 0.036100
O O14 0.711069 0.750000 0.033168
#
# Coordination Sequence:
#
# PCOD8301651 Si02
#       5
#    16  16  16  16  16
#     4   9  17  31  52  74  96 129 170 201 228 272
#     4   9  19  35  53  73  96 125 165 204 234 279
#     4   9  18  32  50  72  95 121 158 201 241 283
#     4   8  14  26  45  69  98 131 164 195 226 267
#     4  11  23  34  46  71 104 131 157 195 243 290
#
# _framework density 17.699221999999999
#
# number of rings (size 3 to 8) (size 9 to 14) (size 15 to 20)
#    0.000    2.800    0.000    4.200    0.000    6.800 
#    0.000    3.000    0.000    1.800    0.000    0.000 
#    0.000    0.000    0.000    0.000    0.000    0.000 
#
# Total GULP energy -495912.331685 kJ/mol
# GULP energy per Si atom -12397.808292 kJ/mol
# Density = 1.765894 g / cm^3
# Si number density = 17.699222 Si / 1000 Ang^3
#
#
#
# Elastic Constant Matrix: (Units=GPa)
#
#
# Indices 1 2 3 4 5 6 
#
# 1 61.2810 35.7926 51.6235 0.0000 0.0000 0.0000
# 2 35.7926 48.8329 41.6962 0.0000 0.0000 0.0000
# 3 51.6235 41.6962 123.7592 0.0000 0.0000 0.0000
# 4 0.0000 0.0000 0.0000 13.6213 0.0000 0.0000
# 5 0.0000 0.0000 0.0000 0.0000 29.6383 0.0000
# 6 0.0000 0.0000 0.0000 0.0000 0.0000 23.3083
#
#
#
# Elastic Compliance Matrix: (Units=1/GPa)
#
#
# Indices 1 2 3 4 5 6 
#
# 1 0.033317 -0.017624 -0.007960 0.000000 0.000000 0.000000
# 2 -0.017624 0.038070 -0.005475 0.000000 0.000000 0.000000
# 3 -0.007960 -0.005475 0.013245 0.000000 0.000000 0.000000
# 4 0.000000 0.000000 0.000000 0.073415 0.000000 0.000000
# 5 0.000000 0.000000 0.000000 0.000000 0.033740 0.000000
# 6 0.000000 0.000000 0.000000 0.000000 0.000000 0.042903
#
#
# Mechanical properties :
#
#
# Convention : Reuss Voigt Hill
#
# Bulk Modulus (GPa) = 44.41394 54.67753 49.54573
# Shear Modulus (GPa) = 16.43045 20.29762 18.36404
#
# Velocity S-wave (km/s) = 3.05013 3.39013 3.22462
# Velocity P-wave (km/s) = 6.12802 6.80321 6.47442
#
# Compressibility (1/GPa) = 0.02251545
#
# Stress axis : x y z
#
# Youngs Moduli (GPa) = 30.01454 26.26717 75.49915
#
# Poissons Ratio (x) = 0.46292 0.60097
# Poissons Ratio (y) = 0.52896 0.41337
# Poissons Ratio (z) = 0.23891 0.14382
#
# Static dielectric constant tensor:
#      x y z
#    x 3.000300 0.000000 0.000000 
#    y 0.000000 3.323330 0.000000 
#    z 0.000000 0.000000 3.223950 
# 
# 
# High freq. dielectric constant tensor:
#      x y z
#    x 1.659530 0.000000 0.000000 
#    y 0.000000 1.673920 0.000000 
#    z 0.000000 0.000000 1.681420 
# 
# From -- ./inp_files/63917.got.cif
#   From: 2010.03.12/outbox.cif.g09.slc.cpg/sg74_32_cif.got.tgz:63917.got - 2010.04.16 15:46:19.
