data_PCOD8301919
_publ_section_title
;
Structure prediction by ZEFSAII (Michael W. Deem and Ramdas Pophale) SiO2 
 PCOD8301919
Probable space group: P 41
;
_chemical_formula_sum "Si O2"
_cell_formula_units_Z 28
_cell_length_a 12.508663
_cell_length_b 12.508663
_cell_length_c 7.968952
_cell_angle_alpha 90.000000
_cell_angle_beta 90.000000
_cell_angle_gamma 90.000000
_cell_volume 1246.875224
_symmetry_space_group_name_H-M "P 41"
_symmetry_group_IT_number 76
_symmetry_cell_setting 'tetragonal'
loop_
_space_group_symop_operation_xyz
x,y,z
-y,x,1/4+z
-x,-y,1/2+z
y,-x,3/4+z
loop_
_atom_site_type_symbol
_atom_site_label
_atom_site_fract_x
_atom_site_fract_y
_atom_site_fract_z
Si Si1 0.055669 0.352675 0.587050
Si Si2 0.593425 0.233428 0.360661
Si Si3 0.466598 0.964397 0.664617
Si Si4 0.599803 0.406020 0.080333
Si Si5 0.126055 0.024168 0.415925
Si Si6 0.203030 0.592568 0.355737
Si Si7 0.783527 0.762976 0.864100
O O1 0.081234 0.442879 0.728420
O O2 0.158576 0.329081 0.473822
O O3 0.965871 0.405939 0.462971
O O4 0.019998 0.246095 0.685632
O O5 0.592131 0.110669 0.299560
O O6 0.568836 0.312494 0.208648
O O7 0.506885 0.252322 0.505357
O O8 0.709729 0.257042 0.441674
O O9 0.426817 0.086301 0.683000
O O10 0.594554 0.518691 0.174819
O O11 0.717612 0.381796 0.008750
O O12 0.136192 0.138439 0.317997
O O13 0.066733 0.050997 0.588160
O O14 0.189647 0.688635 0.224665
#
# Coordination Sequence:
#
# PCOD8301919 Si02
#       7
#     4   4   4   4   4   4   4
#     4  11  22  43  69  99 137 173 231 284 350 410
#     4  12  25  43  70 101 137 178 235 287 349 414
#     4  12  23  42  69 104 131 180 228 294 346 412
#     4  12  27  46  69 101 137 186 231 280 351 434
#     4  10  23  43  66  92 134 180 222 280 343 409
#     4  12  24  44  70  98 141 181 223 291 346 413
#     4  11  22  45  65 101 137 182 224 286 347 416
#
# _framework density 22.456139
#
# number of rings (size 3 to 8) (size 9 to 14) (size 15 to 20)
#    0.000    0.571    4.286    3.429    2.000    1.143 
#    5.143    0.000    0.000    0.000    0.000    0.000 
#    0.000    0.000    0.000    0.000    0.000    0.000 
#
# Total GULP energy -347097.895460 kJ/mol
# GULP energy per Si atom -12396.353409 kJ/mol
# Density = 2.240503 g / cm^3
# Si number density = 22.456139 Si / 1000 Ang^3
#
#
#
# Elastic Constant Matrix: (Units=GPa)
#
#
# Indices 1 2 3 4 5 6 
#
# 1 95.2817 13.1584 30.4490 0.0000 0.0000 -2.4006
# 2 13.1584 95.2817 30.4490 0.0000 0.0000 2.4006
# 3 30.4490 30.4490 74.5353 0.0000 0.0000 0.0000
# 4 0.0000 0.0000 0.0000 39.4060 0.0000 0.0000
# 5 0.0000 0.0000 0.0000 0.0000 39.4060 0.0000
# 6 -2.4006 2.4006 0.0000 0.0000 0.0000 27.4032
#
#
#
# Elastic Compliance Matrix: (Units=1/GPa)
#
#
# Indices 1 2 3 4 5 6 
#
# 1 0.012103 -0.000136 -0.004889 0.000000 0.000000 0.001072
# 2 -0.000136 0.012103 -0.004889 0.000000 0.000000 -0.001072
# 3 -0.004889 -0.004889 0.017411 0.000000 0.000000 0.000000
# 4 0.000000 0.000000 0.000000 0.025377 0.000000 0.000000
# 5 0.000000 0.000000 0.000000 0.000000 0.025377 0.000000
# 6 0.001072 -0.001072 0.000000 0.000000 0.000000 0.036680
#
#
# Mechanical properties :
#
#
# Convention : Reuss Voigt Hill
#
# Bulk Modulus (GPa) = 45.89280 45.91236 45.90258
# Shear Modulus (GPa) = 32.02219 33.97922 33.00070
#
# Velocity S-wave (km/s) = 3.78032 3.89413 3.83765
# Velocity P-wave (km/s) = 6.28772 6.38034 6.33420
#
# Compressibility (1/GPa) = 0.02178991
#
# Stress axis : x y z
#
# Youngs Moduli (GPa) = 82.62197 82.62197 57.43575
#
# Poissons Ratio (x) = 0.01125 0.28079
# Poissons Ratio (y) = 0.01125 0.28079
# Poissons Ratio (z) = 0.40392 0.40392
#
# Static dielectric constant tensor:
#      x y z
#    x 4.161910 0.000000 0.000000 
#    y 0.000000 4.161910 0.000000 
#    z 0.000000 0.000000 3.977050 
# 
# 
# High freq. dielectric constant tensor:
#      x y z
#    x 1.890970 0.000000 0.000000 
#    y 0.000000 1.890970 0.000000 
#    z 0.000000 0.000000 1.876650 
# 
# From -- ./inp_files/640.got.cif
#   From: 2010.03.12/outbox.cif.g09.slc.cpg/sg76_cif.got.tgz:640.got - 2010.04.16 16:34:25.
