data_PCOD8301905
_publ_section_title
;
Structure prediction by ZEFSAII (Michael W. Deem and Ramdas Pophale) SiO2 
 PCOD8301905
Probable space group: P 41
;
_chemical_formula_sum "Si O2"
_cell_formula_units_Z 24
_cell_length_a 9.021049
_cell_length_b 9.021049
_cell_length_c 13.171162
_cell_angle_alpha 90.000000
_cell_angle_beta 90.000000
_cell_angle_gamma 90.000000
_cell_volume 1071.860274
_symmetry_space_group_name_H-M "P 41"
_symmetry_group_IT_number 76
_symmetry_cell_setting 'tetragonal'
loop_
_space_group_symop_operation_xyz
x,y,z
-y,x,1/4+z
-x,-y,1/2+z
y,-x,3/4+z
loop_
_atom_site_type_symbol
_atom_site_label
_atom_site_fract_x
_atom_site_fract_y
_atom_site_fract_z
Si Si1 0.714273 0.686463 0.250000
Si Si2 0.758849 0.002277 0.296914
Si Si3 0.007259 0.254544 0.275309
Si Si4 0.365823 0.374286 0.537516
Si Si5 0.711764 0.329869 0.574643
Si Si6 0.120607 0.493229 0.910709
O O1 0.742460 0.666794 0.130453
O O2 0.538581 0.689180 0.263089
O O3 0.771502 0.552162 0.319163
O O4 0.806497 0.832110 0.282494
O O5 0.898213 0.114010 0.289978
O O6 0.642249 0.026750 0.205703
O O7 0.685937 0.003332 0.409436
O O8 0.979564 0.379909 0.360325
O O9 0.177679 0.211681 0.289986
O O10 0.537981 0.357348 0.561656
O O11 0.341195 0.259205 0.445038
O O12 0.787338 0.456740 0.508508
#
# Coordination Sequence:
#
# PCOD8301905 Si02
#       6
#     4   4   4   4   4   4
#     4  11  23  43  70 107 141 185 243 307 370 432
#     4  12  26  48  69 105 151 191 243 294 374 455
#     4  12  26  48  69 105 151 191 243 294 374 455
#     4  10  22  40  70 106 144 178 250 314 356 432
#     4  11  23  43  70 107 141 185 243 307 370 432
#     4  12  24  42  78 100 138 196 242 306 366 442
#
# _framework density 22.390978
#
# number of rings (size 3 to 8) (size 9 to 14) (size 15 to 20)
#    0.000    0.667    3.333    6.000    2.333    0.000 
#    3.000    1.667    0.000    0.000    0.000    0.000 
#    0.000    0.000    0.000    0.000    0.000    0.000 
#
# Total GULP energy -297395.946913 kJ/mol
# GULP energy per Si atom -12391.497788 kJ/mol
# Density = 2.234002 g / cm^3
# Si number density = 22.390978 Si / 1000 Ang^3
#
#
#
# Elastic Constant Matrix: (Units=GPa)
#
#
# Indices 1 2 3 4 5 6 
#
# 1 73.2139 20.9740 16.8310 0.0000 0.0000 -0.8889
# 2 20.9740 73.2139 16.8310 0.0000 0.0000 0.8889
# 3 16.8310 16.8310 173.4214 0.0000 0.0000 0.0000
# 4 0.0000 0.0000 0.0000 28.8046 0.0000 0.0000
# 5 0.0000 0.0000 0.0000 0.0000 28.8046 0.0000
# 6 -0.8889 0.8889 0.0000 0.0000 0.0000 17.2264
#
#
#
# Elastic Compliance Matrix: (Units=1/GPa)
#
#
# Indices 1 2 3 4 5 6 
#
# 1 0.015087 -0.004089 -0.001067 0.000000 0.000000 0.000990
# 2 -0.004089 0.015087 -0.001067 0.000000 0.000000 -0.000990
# 3 -0.001067 -0.001067 0.005973 0.000000 0.000000 0.000000
# 4 0.000000 0.000000 0.000000 0.034717 0.000000 0.000000
# 5 0.000000 0.000000 0.000000 0.000000 0.034717 0.000000
# 6 0.000990 -0.000990 0.000000 0.000000 0.000000 0.058152
#
#
# Mechanical properties :
#
#
# Convention : Reuss Voigt Hill
#
# Bulk Modulus (GPa) = 42.19254 47.68014 44.93634
# Shear Modulus (GPa) = 27.16188 32.64802 29.90495
#
# Velocity S-wave (km/s) = 3.48670 3.82263 3.65852
# Velocity P-wave (km/s) = 5.92401 6.38936 6.16108
#
# Compressibility (1/GPa) = 0.02370087
#
# Stress axis : x y z
#
# Youngs Moduli (GPa) = 66.28069 66.28069 167.40614
#
# Poissons Ratio (x) = 0.27101 0.17870
# Poissons Ratio (y) = 0.27101 0.17870
# Poissons Ratio (z) = 0.07075 0.07075
#
# Static dielectric constant tensor:
#      x y z
#    x 3.868380 0.000000 0.000000 
#    y 0.000000 3.868380 0.000000 
#    z 0.000000 0.000000 5.034420 
# 
# 
# High freq. dielectric constant tensor:
#      x y z
#    x 1.868750 0.000000 0.000000 
#    y 0.000000 1.868750 0.000000 
#    z 0.000000 0.000000 1.917700 
# 
# From -- ./inp_files/842.got.cif
#   From: 2010.03.12/outbox.cif.g09.slc.cpg/sg76_cif.got.tgz:842.got - 2010.04.16 16:34:25.
