data_PCOD8301604
_publ_section_title
;
Structure prediction by ZEFSAII (Michael W. Deem and Ramdas Pophale) SiO2 
 PCOD8301604
Probable space group: I M M A
;
_chemical_formula_sum "Si O2"
_cell_formula_units_Z 80
_cell_length_a 18.260065
_cell_length_b 8.780675
_cell_length_c 27.717187
_cell_angle_alpha 90.000000
_cell_angle_beta 90.000000
_cell_angle_gamma 90.000000
_cell_volume 4444.054476
_symmetry_space_group_name_H-M "I M M A"
_symmetry_group_IT_number 74
_symmetry_cell_setting 'orthorhombic'
loop_
_space_group_symop_operation_xyz
x,y,z
-x,1/2-y,z
x,-y,-z
-x,1/2+y,-z
-x,-y,-z
x,1/2+y,-z
-x,y,z
x,1/2-y,z
1/2+x,1/2+y,1/2+z
1/2-x,-y,1/2+z
1/2+x,1/2-y,1/2-z
1/2-x,y,1/2-z
1/2-x,1/2-y,1/2-z
1/2+x,y,1/2-z
1/2-x,1/2+y,1/2+z
1/2+x,-y,1/2+z
loop_
_atom_site_type_symbol
_atom_site_label
_atom_site_fract_x
_atom_site_fract_y
_atom_site_fract_z
Si Si1 0.723323 0.429394 0.449995
Si Si2 0.082263 0.072138 0.909169
Si Si3 0.581799 0.431327 0.790883
Si Si4 0.210865 0.430257 0.642301
Si Si5 0.356662 0.071676 0.691682
O O1 0.750987 0.500000 0.500000
O O2 0.727927 0.250000 0.453046
O O3 0.639172 0.477415 0.440903
O O4 0.778052 0.488068 0.408684
O O5 0.099975 0.250000 0.916580
O O6 0.090359 0.028926 0.852789
O O7 0.000000 0.031634 0.925809
O O8 0.500000 0.494381 0.800220
O O9 0.580759 0.250000 0.787112
O O10 0.633390 0.481724 0.835279
O O11 0.612923 0.503416 0.740908
O O12 0.215753 0.250000 0.633621
O O13 0.274366 0.483524 0.679499
O O14 0.355428 0.250000 0.700426
#
# Coordination Sequence:
#
# PCOD8301604 Si02
#       5
#    16  16  16  16  16
#     4  11  22  36  53  70  90 120 160 204 248 293
#     4   9  17  30  49  74 104 134 163 196 232 272
#     4   9  15  23  42  74 105 130 160 199 238 277
#     4   9  17  30  48  71  99 129 162 200 240 282
#     4   8  13  23  42  70 102 134 165 194 225 266
#
# _framework density 18.001579
#
# number of rings (size 3 to 8) (size 9 to 14) (size 15 to 20)
#    0.000    2.800    0.000    4.200    0.000    5.600 
#    0.000    0.000    0.000   10.800    0.000    0.000 
#    0.000    0.000    0.000    0.000    0.000    0.000 
#
# Total GULP energy -495847.222808 kJ/mol
# GULP energy per Si atom -12396.180570 kJ/mol
# Density = 1.796061 g / cm^3
# Si number density = 18.001579 Si / 1000 Ang^3
#
#
#
# Elastic Constant Matrix: (Units=GPa)
#
#
# Indices 1 2 3 4 5 6 
#
# 1 119.7741 26.7001 69.6512 0.0000 0.0000 0.0000
# 2 26.7001 59.1225 40.9571 0.0000 0.0000 0.0000
# 3 69.6512 40.9571 134.4282 0.0000 0.0000 0.0000
# 4 0.0000 0.0000 0.0000 20.2146 0.0000 0.0000
# 5 0.0000 0.0000 0.0000 0.0000 30.0466 0.0000
# 6 0.0000 0.0000 0.0000 0.0000 0.0000 13.8631
#
#
#
# Elastic Compliance Matrix: (Units=1/GPa)
#
#
# Indices 1 2 3 4 5 6 
#
# 1 0.012042 -0.001415 -0.005808 0.000000 0.000000 0.000000
# 2 -0.001415 0.021605 -0.005850 0.000000 0.000000 0.000000
# 3 -0.005808 -0.005850 0.012231 0.000000 0.000000 0.000000
# 4 0.000000 0.000000 0.000000 0.049469 0.000000 0.000000
# 5 0.000000 0.000000 0.000000 0.000000 0.033282 0.000000
# 6 0.000000 0.000000 0.000000 0.000000 0.000000 0.072134
#
#
# Mechanical properties :
#
#
# Convention : Reuss Voigt Hill
#
# Bulk Modulus (GPa) = 50.67716 65.32686 58.00201
# Shear Modulus (GPa) = 21.41458 24.55927 22.98692
#
# Velocity S-wave (km/s) = 3.45279 3.69763 3.57731
# Velocity P-wave (km/s) = 6.64141 7.38906 7.02519
#
# Compressibility (1/GPa) = 0.01973275
#
# Stress axis : x y z
#
# Youngs Moduli (GPa) = 83.04224 46.28514 81.76168
#
# Poissons Ratio (x) = 0.06547 0.47490
# Poissons Ratio (y) = 0.11747 0.47828
# Poissons Ratio (z) = 0.48234 0.27075
#
# Static dielectric constant tensor:
#      x y z
#    x 1.962900 0.000000 0.000000 
#    y 0.000000 2.849020 0.000000 
#    z 0.000000 0.000000 3.378320 
# 
# 
# High freq. dielectric constant tensor:
#      x y z
#    x 1.687320 0.000000 0.000000 
#    y 0.000000 1.648320 0.000000 
#    z 0.000000 0.000000 1.696280 
# 
# From -- ./inp_files/63974.got.cif
#   From: 2010.03.12/outbox.cif.g09.slc.cpg/sg74_32_cif.got.tgz:63974.got - 2010.04.16 15:46:19.
