data_PCOD8301470
_publ_section_title
;
Structure prediction by ZEFSAII (Michael W. Deem and Ramdas Pophale) SiO2 
 PCOD8301470
Probable space group: I M M A
;
_chemical_formula_sum "Si O2"
_cell_formula_units_Z 80
_cell_length_a 26.926425
_cell_length_b 10.200372
_cell_length_c 16.638537
_cell_angle_alpha 90.000000
_cell_angle_beta 90.000000
_cell_angle_gamma 90.000000
_cell_volume 4569.933112
_symmetry_space_group_name_H-M "I M M A"
_symmetry_group_IT_number 74
_symmetry_cell_setting 'orthorhombic'
loop_
_space_group_symop_operation_xyz
x,y,z
-x,1/2-y,z
x,-y,-z
-x,1/2+y,-z
-x,-y,-z
x,1/2+y,-z
-x,y,z
x,1/2-y,z
1/2+x,1/2+y,1/2+z
1/2-x,-y,1/2+z
1/2+x,1/2-y,1/2-z
1/2-x,y,1/2-z
1/2-x,1/2-y,1/2-z
1/2+x,y,1/2-z
1/2-x,1/2+y,1/2+z
1/2+x,-y,1/2+z
loop_
_atom_site_type_symbol
_atom_site_label
_atom_site_fract_x
_atom_site_fract_y
_atom_site_fract_z
Si Si1 0.805343 0.598256 0.238967
Si Si2 0.350143 0.898914 0.433491
Si Si3 0.057738 0.750000 0.603932
Si Si4 0.098369 0.508533 0.318910
Si Si5 0.555407 0.900587 0.340606
Si Si6 0.442743 0.750000 0.086640
O O1 0.808722 0.750000 0.264823
O O2 0.750000 0.542025 0.250000
O O3 0.817673 0.581323 0.145633
O O4 0.843459 0.518039 0.295107
O O5 0.345406 0.750000 0.466020
O O6 0.407385 0.934316 0.413034
O O7 0.330498 0.000000 0.500000
O O8 0.087142 0.626672 0.637986
O O9 0.061563 0.750000 0.508636
O O10 0.000000 0.750000 0.630825
O O11 0.065625 0.513637 0.238047
O O12 0.084213 0.622182 0.380398
O O13 0.500000 0.926510 0.372370
O O14 0.564167 0.750000 0.313797
O O15 0.500000 0.750000 0.114734
#
# Coordination Sequence:
#
# PCOD8301470 Si02
#       6
#    16  16   8  16  16   8
#     4   9  18  37  64  82  99 138 189 230 268 319
#     4   9  18  33  52  77 105 133 168 211 261 312
#     4  11  24  34  47  80 123 151 172 225 286 328
#     4  11  19  35  55  78 105 144 186 227 271 326
#     4   9  16  29  52  75  97 136 183 215 247 311
#     4  11  20  34  55  76 105 151 194 223 268 332
#
# _framework density 17.505725999999999
#
# number of rings (size 3 to 8) (size 9 to 14) (size 15 to 20)
#    0.000    2.200    2.000    3.600    0.000    2.000 
#    7.200    2.500    0.000    0.000    0.000    0.000 
#    0.000    0.000    0.000    0.000    0.000    0.000 
#
# Total GULP energy -495998.064872 kJ/mol
# GULP energy per Si atom -12399.951622 kJ/mol
# Density = 1.746588 g / cm^3
# Si number density = 17.505726 Si / 1000 Ang^3
#
#
#
# Elastic Constant Matrix: (Units=GPa)
#
#
# Indices 1 2 3 4 5 6 
#
# 1 136.0371 42.3084 41.0352 0.0000 0.0000 0.0000
# 2 42.3084 111.3730 52.5729 0.0000 0.0000 0.0000
# 3 41.0352 52.5729 74.5158 0.0000 0.0000 0.0000
# 4 0.0000 0.0000 0.0000 26.8230 0.0000 0.0000
# 5 0.0000 0.0000 0.0000 0.0000 15.5274 0.0000
# 6 0.0000 0.0000 0.0000 0.0000 0.0000 21.1652
#
#
#
# Elastic Compliance Matrix: (Units=1/GPa)
#
#
# Indices 1 2 3 4 5 6 
#
# 1 0.009006 -0.001619 -0.003817 0.000000 0.000000 0.000000
# 2 -0.001619 0.013754 -0.008812 0.000000 0.000000 0.000000
# 3 -0.003817 -0.008812 0.021739 0.000000 0.000000 0.000000
# 4 0.000000 0.000000 0.000000 0.037281 0.000000 0.000000
# 5 0.000000 0.000000 0.000000 0.000000 0.064402 0.000000
# 6 0.000000 0.000000 0.000000 0.000000 0.000000 0.047247
#
#
# Mechanical properties :
#
#
# Convention : Reuss Voigt Hill
#
# Bulk Modulus (GPa) = 62.49149 65.97323 64.23236
# Shear Modulus (GPa) = 22.00128 25.10374 23.55251
#
# Velocity S-wave (km/s) = 3.54899 3.79097 3.67197
# Velocity P-wave (km/s) = 7.25045 7.54522 7.39930
#
# Compressibility (1/GPa) = 0.01600218
#
# Stress axis : x y z
#
# Youngs Moduli (GPa) = 111.03755 72.70870 46.00068
#
# Poissons Ratio (x) = 0.11775 0.17558
# Poissons Ratio (y) = 0.17982 0.40534
# Poissons Ratio (z) = 0.42383 0.64069
#
# Static dielectric constant tensor:
#      x y z
#    x 3.384360 0.000000 0.000000 
#    y 0.000000 3.003170 0.000000 
#    z 0.000000 0.000000 3.092990 
# 
# 
# High freq. dielectric constant tensor:
#      x y z
#    x 1.675920 0.000000 0.000000 
#    y 0.000000 1.658070 0.000000 
#    z 0.000000 0.000000 1.671500 
# 
# From -- ./inp_files/46512.got.cif
#   From: 2010.03.12/outbox.cif.g09.slc.cpg/sg74_24_cif.got.tgz:46512.got - 2010.04.16 15:46:19.
