data_PCOD8301622
_publ_section_title
;
Structure prediction by ZEFSAII (Michael W. Deem and Ramdas Pophale) SiO2 
 PCOD8301622
Probable space group: I M M A
;
_chemical_formula_sum "Si O2"
_cell_formula_units_Z 48
_cell_length_a 12.633114
_cell_length_b 8.753877
_cell_length_c 22.491925
_cell_angle_alpha 90.000000
_cell_angle_beta 90.000000
_cell_angle_gamma 90.000000
_cell_volume 2487.353333
_symmetry_space_group_name_H-M "I M M A"
_symmetry_group_IT_number 74
_symmetry_cell_setting 'orthorhombic'
loop_
_space_group_symop_operation_xyz
x,y,z
-x,1/2-y,z
x,-y,-z
-x,1/2+y,-z
-x,-y,-z
x,1/2+y,-z
-x,y,z
x,1/2-y,z
1/2+x,1/2+y,1/2+z
1/2-x,-y,1/2+z
1/2+x,1/2-y,1/2-z
1/2-x,y,1/2-z
1/2-x,1/2-y,1/2-z
1/2+x,y,1/2-z
1/2-x,1/2+y,1/2+z
1/2+x,-y,1/2+z
loop_
_atom_site_type_symbol
_atom_site_label
_atom_site_fract_x
_atom_site_fract_y
_atom_site_fract_z
Si Si1 0.382872 0.422935 0.850134
Si Si2 0.781835 0.069627 0.062947
Si Si3 0.500000 0.568577 0.617040
Si Si4 0.000000 0.931766 0.748271
O O1 0.500000 0.423268 0.880567
O O2 0.340264 0.250000 0.843543
O O3 0.303970 0.522371 0.888793
O O4 0.395030 0.501289 0.784782
O O5 0.782480 0.250000 0.057321
O O6 0.896661 0.006633 0.082914
O O7 0.750050 0.000000 0.000000
O O8 0.500000 0.750000 0.618577
O O9 0.500000 0.507032 0.684445
O O10 0.000000 0.750000 0.744588
#
# Coordination Sequence:
#
# PCOD8301622 Si02
#       4
#    16  16   8   8
#     4   9  20  38  57  84 117 146 185 232 283 335
#     4  11  22  38  59  83 114 151 191 232 278 332
#     4   9  21  38  58  85 115 150 189 230 277 335
#     4   9  17  36  61  85 112 146 187 230 280 333
#
# _framework density 19.297619999999998
#
# number of rings (size 3 to 8) (size 9 to 14) (size 15 to 20)
#    1.000    1.333    0.000    2.500    0.000    2.000 
#    0.000   15.833    0.000    0.000    0.000    0.000 
#    0.000    0.000    0.000    0.000    0.000    0.000 
#
# Total GULP energy -297487.228416 kJ/mol
# GULP energy per Si atom -12395.301184 kJ/mol
# Density = 1.925370 g / cm^3
# Si number density = 19.297620 Si / 1000 Ang^3
#
#
#
# Elastic Constant Matrix: (Units=GPa)
#
#
# Indices 1 2 3 4 5 6 
#
# 1 57.9909 18.2891 2.6941 0.0000 0.0000 0.0000
# 2 18.2891 84.1941 25.0390 0.0000 0.0000 0.0000
# 3 2.6941 25.0390 79.1650 0.0000 0.0000 0.0000
# 4 0.0000 0.0000 0.0000 28.1611 0.0000 0.0000
# 5 0.0000 0.0000 0.0000 0.0000 31.2278 0.0000
# 6 0.0000 0.0000 0.0000 0.0000 0.0000 23.0274
#
#
#
# Elastic Compliance Matrix: (Units=1/GPa)
#
#
# Indices 1 2 3 4 5 6 
#
# 1 0.018548 -0.004240 0.000710 0.000000 0.000000 0.000000
# 2 -0.004240 0.014080 -0.004309 0.000000 0.000000 0.000000
# 3 0.000710 -0.004309 0.013971 0.000000 0.000000 0.000000
# 4 0.000000 0.000000 0.000000 0.035510 0.000000 0.000000
# 5 0.000000 0.000000 0.000000 0.000000 0.032023 0.000000
# 6 0.000000 0.000000 0.000000 0.000000 0.000000 0.043427
#
#
# Mechanical properties :
#
#
# Convention : Reuss Voigt Hill
#
# Bulk Modulus (GPa) = 32.34142 34.82161 33.58151
# Shear Modulus (GPa) = 27.24147 28.17178 27.70662
#
# Velocity S-wave (km/s) = 3.76127 3.82495 3.79324
# Velocity P-wave (km/s) = 5.97147 6.13113 6.05183
#
# Compressibility (1/GPa) = 0.03092010
#
# Stress axis : x y z
#
# Youngs Moduli (GPa) = 53.91293 71.02311 71.57902
#
# Poissons Ratio (x) = 0.30116 -0.05082
# Poissons Ratio (y) = 0.22861 0.30844
# Poissons Ratio (z) = -0.03828 0.30604
#
# Static dielectric constant tensor:
#      x y z
#    x 3.502050 0.000000 0.000000 
#    y 0.000000 3.384870 0.000000 
#    z 0.000000 0.000000 3.485920 
# 
# 
# High freq. dielectric constant tensor:
#      x y z
#    x 1.744290 0.000000 0.000000 
#    y 0.000000 1.750540 0.000000 
#    z 0.000000 0.000000 1.748100 
# 
# From -- ./inp_files/58073.got.cif
#   From: 2010.03.12/outbox.cif.g09.slc.cpg/sg74_30_cif.got.tgz:58073.got - 2010.04.16 15:46:19.
