data_PCOD8301969
_publ_section_title
;
Structure prediction by ZEFSAII (Michael W. Deem and Ramdas Pophale) SiO2 
 PCOD8301969
Probable space group: P 41
;
_chemical_formula_sum "Si O2"
_cell_formula_units_Z 24
_cell_length_a 11.738608
_cell_length_b 11.738608
_cell_length_c 8.233838
_cell_angle_alpha 90.000000
_cell_angle_beta 90.000000
_cell_angle_gamma 90.000000
_cell_volume 1134.581030
_symmetry_space_group_name_H-M "P 41"
_symmetry_group_IT_number 76
_symmetry_cell_setting 'tetragonal'
loop_
_space_group_symop_operation_xyz
x,y,z
-y,x,1/4+z
-x,-y,1/2+z
y,-x,3/4+z
loop_
_atom_site_type_symbol
_atom_site_label
_atom_site_fract_x
_atom_site_fract_y
_atom_site_fract_z
Si Si1 0.619688 0.754272 0.021720
Si Si2 0.418564 0.683095 0.812173
Si Si3 0.908457 0.483915 0.019097
Si Si4 0.981146 0.326604 0.316229
Si Si5 0.220638 0.786726 0.005321
Si Si6 0.447533 0.697619 0.472352
O O1 0.574165 0.871512 0.099582
O O2 0.627535 0.662438 0.165873
O O3 0.544760 0.691830 0.884047
O O4 0.735960 0.795300 0.935581
O O5 0.417741 0.756509 0.645347
O O6 0.385937 0.554608 0.757433
O O7 0.340355 0.741131 0.943279
O O8 0.992724 0.586130 0.965044
O O9 0.960363 0.395217 0.148306
O O10 0.794696 0.536364 0.091976
O O11 0.874118 0.251245 0.374572
O O12 0.077864 0.232912 0.277629
#
# Coordination Sequence:
#
# PCOD8301969 Si02
#       6
#     4   4   4   4   4   4
#     4  12  23  43  65 107 142 188 229 290 355 438
#     4  12  24  38  64 101 150 180 220 284 351 438
#     4  12  25  44  71  99 143 184 242 285 359 436
#     4  12  26  48  72 104 139 197 244 306 361 426
#     4  12  26  47  70  99 142 181 248 294 356 419
#     4  12  24  36  64 104 142 186 225 271 358 433
#
# _framework density 21.153182999999999
#
# number of rings (size 3 to 8) (size 9 to 14) (size 15 to 20)
#    0.000    0.000    8.333    1.000    4.667    0.000 
#    0.000    1.667    0.000    0.000    0.000    0.000 
#    0.000    0.000    0.000    0.000    0.000    0.000 
#
# Total GULP energy -297491.840672 kJ/mol
# GULP energy per Si atom -12395.493361 kJ/mol
# Density = 2.110504 g / cm^3
# Si number density = 21.153183 Si / 1000 Ang^3
#
#
#
# Elastic Constant Matrix: (Units=GPa)
#
#
# Indices 1 2 3 4 5 6 
#
# 1 76.1044 31.6550 23.2728 0.0000 0.0000 0.3769
# 2 31.6550 76.1044 23.2728 0.0000 0.0000 -0.3769
# 3 23.2728 23.2728 116.2694 0.0000 0.0000 0.0000
# 4 0.0000 0.0000 0.0000 23.9787 0.0000 0.0000
# 5 0.0000 0.0000 0.0000 0.0000 23.9787 0.0000
# 6 0.3769 -0.3769 0.0000 0.0000 0.0000 24.3617
#
#
#
# Elastic Compliance Matrix: (Units=1/GPa)
#
#
# Indices 1 2 3 4 5 6 
#
# 1 0.016331 -0.006173 -0.002033 0.000000 0.000000 -0.000348
# 2 -0.006173 0.016331 -0.002033 0.000000 0.000000 0.000348
# 3 -0.002033 -0.002033 0.009415 0.000000 0.000000 0.000000
# 4 0.000000 0.000000 0.000000 0.041704 0.000000 0.000000
# 5 0.000000 0.000000 0.000000 0.000000 0.041704 0.000000
# 6 -0.000348 0.000348 0.000000 0.000000 0.000000 0.041059
#
#
# Mechanical properties :
#
#
# Convention : Reuss Voigt Hill
#
# Bulk Modulus (GPa) = 46.30078 47.20883 46.75480
# Shear Modulus (GPa) = 25.74399 27.14900 26.44650
#
# Velocity S-wave (km/s) = 3.49238 3.58641 3.53971
# Velocity P-wave (km/s) = 6.18046 6.28616 6.23354
#
# Compressibility (1/GPa) = 0.02159791
#
# Stress axis : x y z
#
# Youngs Moduli (GPa) = 61.23396 61.23396 106.21696
#
# Poissons Ratio (x) = 0.37797 0.21597
# Poissons Ratio (y) = 0.37797 0.21597
# Poissons Ratio (z) = 0.12451 0.12451
#
# Static dielectric constant tensor:
#      x y z
#    x 3.730940 0.000000 0.000000 
#    y 0.000000 3.730940 0.000000 
#    z 0.000000 0.000000 4.375660 
# 
# 
# High freq. dielectric constant tensor:
#      x y z
#    x 1.813690 0.000000 0.000000 
#    y 0.000000 1.813690 0.000000 
#    z 0.000000 0.000000 1.860540 
# 
# From -- ./inp_files/545.got.cif
#   From: 2010.03.12/outbox.cif.g09.slc.cpg/sg76_cif.got.tgz:545.got - 2010.04.16 16:34:25.
