data_PCOD8301678
_publ_section_title
;
Structure prediction by ZEFSAII (Michael W. Deem and Ramdas Pophale) SiO2 
 PCOD8301678
Probable space group: I M M A
;
_chemical_formula_sum "Si O2"
_cell_formula_units_Z 88
_cell_length_a 23.761710
_cell_length_b 16.166633
_cell_length_c 11.177580
_cell_angle_alpha 90.000000
_cell_angle_beta 90.000000
_cell_angle_gamma 90.000000
_cell_volume 4293.832092
_symmetry_space_group_name_H-M "I M M A"
_symmetry_group_IT_number 74
_symmetry_cell_setting 'orthorhombic'
loop_
_space_group_symop_operation_xyz
x,y,z
-x,1/2-y,z
x,-y,-z
-x,1/2+y,-z
-x,-y,-z
x,1/2+y,-z
-x,y,z
x,1/2-y,z
1/2+x,1/2+y,1/2+z
1/2-x,-y,1/2+z
1/2+x,1/2-y,1/2-z
1/2-x,y,1/2-z
1/2-x,1/2-y,1/2-z
1/2+x,y,1/2-z
1/2-x,1/2+y,1/2+z
1/2+x,-y,1/2+z
loop_
_atom_site_type_symbol
_atom_site_label
_atom_site_fract_x
_atom_site_fract_y
_atom_site_fract_z
Si Si1 0.663434 0.250000 0.229059
Si Si2 0.183490 0.500000 0.000000
Si Si3 0.753665 0.750000 0.947058
Si Si4 0.388158 0.581829 0.694061
Si Si5 0.000000 0.151781 0.537449
Si Si6 0.000000 0.848773 0.746897
Si Si7 0.389940 0.942165 0.111641
Si Si8 0.735806 0.111847 0.878658
O O1 0.689890 0.250000 0.098200
O O2 0.706352 0.250000 0.336017
O O3 0.631078 0.163385 0.232964
O O4 0.143799 0.432624 0.067514
O O5 0.226755 0.529421 0.104309
O O6 0.764463 0.830568 0.023698
O O7 0.452122 0.606642 0.675741
O O8 0.385012 0.496838 0.768798
O O9 0.000000 0.126992 0.395472
O O10 0.055703 0.118291 0.606976
O O11 0.000000 0.250000 0.549718
O O12 0.000000 0.750000 0.762271
O O13 0.331002 0.893615 0.101625
O O14 0.397564 0.000000 0.000000
O O15 0.750000 0.149353 0.750000
#
# Coordination Sequence:
#
# PCOD8301678 Si02
#       8
#     8   8   8  16   8   8  16  16
#     4  11  24  41  68 102 136 177 222 298 333 407
#     4  12  26  43  66 101 140 174 226 278 346 414
#     4  11  25  40  64 100 139 177 234 275 351 406
#     4  12  24  44  69  99 137 178 227 285 343 401
#     4  11  26  44  66 104 139 180 226 287 345 407
#     4  11  23  40  73 101 128 176 238 278 334 401
#     4  12  23  40  69 100 140 175 225 284 350 402
#     4  12  25  42  66  99 136 185 226 284 338 417
#
# _framework density 20.494513000000001
#
# number of rings (size 3 to 8) (size 9 to 14) (size 15 to 20)
#    0.000    0.364    7.273    2.182    1.273    0.364 
#    0.000    0.000    2.000    1.091    0.000    0.000 
#    0.000    0.000    0.000    0.000    0.000    0.000 
#
# Total GULP energy -545121.154819 kJ/mol
# GULP energy per Si atom -12389.117155 kJ/mol
# Density = 2.044787 g / cm^3
# Si number density = 20.494513 Si / 1000 Ang^3
#
#
#
# Elastic Constant Matrix: (Units=GPa)
#
#
# Indices 1 2 3 4 5 6 
#
# 1 146.6774 42.9956 36.3184 0.0000 0.0000 0.0000
# 2 42.9956 77.9134 20.1666 0.0000 0.0000 0.0000
# 3 36.3184 20.1666 76.4114 0.0000 0.0000 0.0000
# 4 0.0000 0.0000 0.0000 29.3477 0.0000 0.0000
# 5 0.0000 0.0000 0.0000 0.0000 31.7895 0.0000
# 6 0.0000 0.0000 0.0000 0.0000 0.0000 80.1032
#
#
#
# Elastic Compliance Matrix: (Units=1/GPa)
#
#
# Indices 1 2 3 4 5 6 
#
# 1 0.008769 -0.004036 -0.003103 0.000000 0.000000 0.000000
# 2 -0.004036 0.015633 -0.002208 0.000000 0.000000 0.000000
# 3 -0.003103 -0.002208 0.015144 0.000000 0.000000 0.000000
# 4 0.000000 0.000000 0.000000 0.034074 0.000000 0.000000
# 5 0.000000 0.000000 0.000000 0.000000 0.031457 0.000000
# 6 0.000000 0.000000 0.000000 0.000000 0.000000 0.012484
#
#
# Mechanical properties :
#
#
# Convention : Reuss Voigt Hill
#
# Bulk Modulus (GPa) = 47.95230 55.55147 51.75188
# Shear Modulus (GPa) = 34.91474 41.68286 38.29880
#
# Velocity S-wave (km/s) = 4.13196 4.51472 4.32758
# Velocity P-wave (km/s) = 6.79798 7.37166 7.09062
#
# Compressibility (1/GPa) = 0.02085406
#
# Stress axis : x y z
#
# Youngs Moduli (GPa) = 114.03793 63.96567 66.03081
#
# Poissons Ratio (x) = 0.25816 0.20488
# Poissons Ratio (y) = 0.46025 0.14577
# Poissons Ratio (z) = 0.35383 0.14122
#
# Static dielectric constant tensor:
#      x y z
#    x 3.355330 0.000000 0.000000 
#    y 0.000000 -15.223740 0.000000 
#    z 0.000000 0.000000 3.617110 
# 
# 
# High freq. dielectric constant tensor:
#      x y z
#    x 1.819600 0.000000 0.000000 
#    y 0.000000 1.803850 0.000000 
#    z 0.000000 0.000000 1.787340 
# 
# From -- ./inp_files/20724.got.cif
#   From: 2010.03.12/outbox.cif.g09.slc.cpg/sg74_11_cif.got.tgz:20724.got - 2010.04.16 15:46:19.
