data_PCOD8301245
_publ_section_title
;
Structure prediction by ZEFSAII (Michael W. Deem and Ramdas Pophale) SiO2 
 PCOD8301245
Probable space group: I M M A
;
_chemical_formula_sum "Si O2"
_cell_formula_units_Z 72
_cell_length_a 24.294975
_cell_length_b 25.207819
_cell_length_c 5.186986
_cell_angle_alpha 90.000000
_cell_angle_beta 90.000000
_cell_angle_gamma 90.000000
_cell_volume 3176.631251
_symmetry_space_group_name_H-M "I M M A"
_symmetry_group_IT_number 74
_symmetry_cell_setting 'orthorhombic'
loop_
_space_group_symop_operation_xyz
x,y,z
-x,1/2-y,z
x,-y,-z
-x,1/2+y,-z
-x,-y,-z
x,1/2+y,-z
-x,y,z
x,1/2-y,z
1/2+x,1/2+y,1/2+z
1/2-x,-y,1/2+z
1/2+x,1/2-y,1/2-z
1/2-x,y,1/2-z
1/2-x,1/2-y,1/2-z
1/2+x,y,1/2-z
1/2-x,1/2+y,1/2+z
1/2+x,-y,1/2+z
loop_
_atom_site_type_symbol
_atom_site_label
_atom_site_fract_x
_atom_site_fract_y
_atom_site_fract_z
Si Si1 0.936991 0.336984 0.986253
Si Si2 0.127361 0.808770 0.519079
Si Si3 0.348974 0.000000 0.000000
Si Si4 0.941489 0.549761 0.832463
Si Si5 0.715500 0.899051 0.009049
O O1 0.900322 0.313815 0.759267
O O2 0.000000 0.320607 0.939069
O O3 0.918840 0.314155 0.261772
O O4 0.928557 0.400454 0.985355
O O5 0.154057 0.750000 0.536304
O O6 0.172795 0.853395 0.566608
O O7 0.387324 0.963294 0.825066
O O8 0.310871 0.045957 0.878537
O O9 0.000000 0.561144 0.676639
O O10 0.955227 0.500000 0.000000
O O11 0.750000 0.876569 0.250000
O O12 0.750000 0.911727 0.750000
#
# Coordination Sequence:
#
# PCOD8301245 Si02
#       5
#    16  16   8  16  16
#     4  11  24  44  70 108 148 185 228 281 349 431
#     4  12  26  47  73 101 140 188 237 295 352 411
#     4  12  23  42  72  96 142 176 221 288 348 416
#     4  10  22  38  66 103 143 186 222 268 343 431
#     4  12  28  47  70 100 136 180 240 294 352 405
#
# _framework density 22.665517999999999
#
# number of rings (size 3 to 8) (size 9 to 14) (size 15 to 20)
#    0.000    0.667    2.222    5.000    3.111    3.556 
#    0.000    0.000    0.000    0.000    0.000    0.000 
#    0.000    0.000    0.000    0.000    0.000    0.000 
#
# Total GULP energy -446118.094959 kJ/mol
# GULP energy per Si atom -12392.169304 kJ/mol
# Density = 2.261393 g / cm^3
# Si number density = 22.665518 Si / 1000 Ang^3
#
#
#
# Elastic Constant Matrix: (Units=GPa)
#
#
# Indices 1 2 3 4 5 6 
#
# 1 102.2813 34.3971 24.3037 0.0000 0.0000 0.0000
# 2 34.3971 162.0290 8.4863 0.0000 0.0000 0.0000
# 3 24.3037 8.4863 95.4088 0.0000 0.0000 0.0000
# 4 0.0000 0.0000 0.0000 21.4931 0.0000 0.0000
# 5 0.0000 0.0000 0.0000 0.0000 38.4906 0.0000
# 6 0.0000 0.0000 0.0000 0.0000 0.0000 18.4317
#
#
#
# Elastic Compliance Matrix: (Units=1/GPa)
#
#
# Indices 1 2 3 4 5 6 
#
# 1 0.011155 -0.002230 -0.002643 0.000000 0.000000 0.000000
# 2 -0.002230 0.006646 -0.000023 0.000000 0.000000 0.000000
# 3 -0.002643 -0.000023 0.011157 0.000000 0.000000 0.000000
# 4 0.000000 0.000000 0.000000 0.046526 0.000000 0.000000
# 5 0.000000 0.000000 0.000000 0.000000 0.025980 0.000000
# 6 0.000000 0.000000 0.000000 0.000000 0.000000 0.054254
#
#
# Mechanical properties :
#
#
# Convention : Reuss Voigt Hill
#
# Bulk Modulus (GPa) = 52.17659 54.89925 53.53792
# Shear Modulus (GPa) = 29.08679 35.18523 32.13601
#
# Velocity S-wave (km/s) = 3.58621 3.94428 3.76950
# Velocity P-wave (km/s) = 6.34178 6.70949 6.52822
#
# Compressibility (1/GPa) = 0.01916568
#
# Stress axis : x y z
#
# Youngs Moduli (GPa) = 89.64723 150.46024 89.63320
#
# Poissons Ratio (x) = 0.33547 0.23692
# Poissons Ratio (y) = 0.19988 0.00208
# Poissons Ratio (z) = 0.23695 0.00349
#
# Static dielectric constant tensor:
#      x y z
#    x 4.617090 0.000000 0.000000 
#    y 0.000000 4.354250 0.000000 
#    z 0.000000 0.000000 3.584990 
# 
# 
# High freq. dielectric constant tensor:
#      x y z
#    x 1.907430 0.000000 0.000000 
#    y 0.000000 1.912810 0.000000 
#    z 0.000000 0.000000 1.877120 
# 
# From -- ./inp_files/3758.got.cif
#   From: 2010.03.12/outbox.cif.g09.slc.cpg/sg74_2_cif.got.tgz:3758.got - 2010.04.16 15:46:19.
