data_PCOD8301399
_publ_section_title
;
Structure prediction by ZEFSAII (Michael W. Deem and Ramdas Pophale) SiO2 
 PCOD8301399
Probable space group: I M M A
;
_chemical_formula_sum "Si O2"
_cell_formula_units_Z 72
_cell_length_a 14.726059
_cell_length_b 9.524242
_cell_length_c 26.547184
_cell_angle_alpha 90.000000
_cell_angle_beta 90.000000
_cell_angle_gamma 90.000000
_cell_volume 3723.363336
_symmetry_space_group_name_H-M "I M M A"
_symmetry_group_IT_number 74
_symmetry_cell_setting 'orthorhombic'
loop_
_space_group_symop_operation_xyz
x,y,z
-x,1/2-y,z
x,-y,-z
-x,1/2+y,-z
-x,-y,-z
x,1/2+y,-z
-x,y,z
x,1/2-y,z
1/2+x,1/2+y,1/2+z
1/2-x,-y,1/2+z
1/2+x,1/2-y,1/2-z
1/2-x,y,1/2-z
1/2-x,1/2-y,1/2-z
1/2+x,y,1/2-z
1/2-x,1/2+y,1/2+z
1/2+x,-y,1/2+z
loop_
_atom_site_type_symbol
_atom_site_label
_atom_site_fract_x
_atom_site_fract_y
_atom_site_fract_z
Si Si1 0.000000 0.093653 0.785569
Si Si2 0.000000 0.418601 0.312737
Si Si3 0.103555 0.750000 0.559035
Si Si4 0.166560 0.502261 0.618667
Si Si5 0.000000 0.574422 0.945128
Si Si6 0.863910 0.085335 0.873575
Si Si7 0.100680 0.750000 0.440550
O O1 0.087460 0.074316 0.820202
O O2 0.000000 0.250000 0.760866
O O3 0.000000 0.972925 0.744008
O O4 0.091030 0.480358 0.338152
O O5 0.000000 0.250000 0.313325
O O6 0.163065 0.625496 0.579216
O O7 0.099235 0.750000 0.499977
O O8 0.000000 0.750000 0.581353
O O9 0.266208 0.479428 0.641030
O O10 0.152997 0.379471 0.580062
O O11 0.088302 0.513755 0.915589
O O12 0.000000 0.750000 0.947379
O O13 0.000000 0.500000 0.000000
O O14 0.861977 0.250000 0.891460
O O15 0.000000 0.750000 0.418456
#
# Coordination Sequence:
#
# PCOD8301399 Si02
#       7
#     8   8   8  16   8  16   8
#     4   9  23  45  69  88 117 165 209 272 333 386
#     4  12  25  43  63  94 132 162 213 268 323 391
#     4  11  22  40  56  88 138 174 212 255 312 373
#     4  12  22  40  63  93 129 170 208 265 315 374
#     4  11  24  42  68  95 128 173 216 265 318 375
#     4  10  23  45  66  94 130 163 215 270 320 381
#     4  11  22  36  62  90 124 174 218 251 306 381
#
# _framework density 19.337354999999999
#
# number of rings (size 3 to 8) (size 9 to 14) (size 15 to 20)
#    0.000    1.111    4.444    2.333    3.111    6.222 
#    0.000    3.333    0.000    0.000    0.000    0.000 
#    0.000    0.000    0.000    0.000    0.000    0.000 
#
# Total GULP energy -446003.401667 kJ/mol
# GULP energy per Si atom -12388.983380 kJ/mol
# Density = 1.929334 g / cm^3
# Si number density = 19.337355 Si / 1000 Ang^3
#
#
#
# Elastic Constant Matrix: (Units=GPa)
#
#
# Indices 1 2 3 4 5 6 
#
# 1 164.6767 54.9575 49.5557 0.0000 0.0000 0.0000
# 2 54.9575 160.9859 56.6311 0.0000 0.0000 0.0000
# 3 49.5557 56.6311 100.7709 0.0000 0.0000 0.0000
# 4 0.0000 0.0000 0.0000 42.3605 0.0000 0.0000
# 5 0.0000 0.0000 0.0000 0.0000 11.6158 0.0000
# 6 0.0000 0.0000 0.0000 0.0000 0.0000 33.3609
#
#
#
# Elastic Compliance Matrix: (Units=1/GPa)
#
#
# Indices 1 2 3 4 5 6 
#
# 1 0.007428 -0.001559 -0.002777 0.000000 0.000000 0.000000
# 2 -0.001559 0.008070 -0.003768 0.000000 0.000000 0.000000
# 3 -0.002777 -0.003768 0.013407 0.000000 0.000000 0.000000
# 4 0.000000 0.000000 0.000000 0.023607 0.000000 0.000000
# 5 0.000000 0.000000 0.000000 0.000000 0.086090 0.000000
# 6 0.000000 0.000000 0.000000 0.000000 0.000000 0.029975
#
#
# Mechanical properties :
#
#
# Convention : Reuss Voigt Hill
#
# Bulk Modulus (GPa) = 78.76270 83.19135 80.97703
# Shear Modulus (GPa) = 26.45262 35.15339 30.80300
#
# Velocity S-wave (km/s) = 3.70260 4.26831 3.99548
# Velocity P-wave (km/s) = 7.68754 8.21010 7.95311
#
# Compressibility (1/GPa) = 0.01269637
#
# Stress axis : x y z
#
# Youngs Moduli (GPa) = 134.61741 123.92287 74.58936
#
# Poissons Ratio (x) = 0.19321 0.20713
# Poissons Ratio (y) = 0.20988 0.28107
# Poissons Ratio (z) = 0.37382 0.46697
#
# Static dielectric constant tensor:
#      x y z
#    x 3.951750 0.000000 0.000000 
#    y 0.000000 3.880160 0.000000 
#    z 0.000000 0.000000 3.395070 
# 
# 
# High freq. dielectric constant tensor:
#      x y z
#    x 1.759030 0.000000 0.000000 
#    y 0.000000 1.771970 0.000000 
#    z 0.000000 0.000000 1.748520 
# 
# From -- ./inp_files/66831.got.cif
#   From: 2010.03.12/outbox.cif.g09.slc.cpg/sg74_34_cif.got.tgz:66831.got - 2010.04.16 15:46:19.
