data_PCOD8301694
_publ_section_title
;
Structure prediction by ZEFSAII (Michael W. Deem and Ramdas Pophale) SiO2 
 PCOD8301694
Probable space group: I M M A
;
_chemical_formula_sum "Si O2"
_cell_formula_units_Z 48
_cell_length_a 13.336623
_cell_length_b 12.785770
_cell_length_c 12.502620
_cell_angle_alpha 90.000000
_cell_angle_beta 90.000000
_cell_angle_gamma 90.000000
_cell_volume 2131.934188
_symmetry_space_group_name_H-M "I M M A"
_symmetry_group_IT_number 74
_symmetry_cell_setting 'orthorhombic'
loop_
_space_group_symop_operation_xyz
x,y,z
-x,1/2-y,z
x,-y,-z
-x,1/2+y,-z
-x,-y,-z
x,1/2+y,-z
-x,y,z
x,1/2-y,z
1/2+x,1/2+y,1/2+z
1/2-x,-y,1/2+z
1/2+x,1/2-y,1/2-z
1/2-x,y,1/2-z
1/2-x,1/2-y,1/2-z
1/2+x,y,1/2-z
1/2-x,1/2+y,1/2+z
1/2+x,-y,1/2+z
loop_
_atom_site_type_symbol
_atom_site_label
_atom_site_fract_x
_atom_site_fract_y
_atom_site_fract_z
Si Si1 0.288900 0.133560 0.584500
Si Si2 0.500000 0.131403 0.201499
Si Si3 0.290276 0.076977 0.137833
Si Si4 0.000000 0.455417 0.883211
O O1 0.255627 0.250000 0.617987
O O2 0.281601 0.121573 0.455267
O O3 0.400849 0.114655 0.628802
O O4 0.213338 0.049911 0.637194
O O5 0.500000 0.250000 0.245977
O O6 0.404605 0.113284 0.124245
O O7 0.500000 0.050488 0.299313
O O8 0.250000 0.121658 0.250000
O O9 0.000000 0.500000 0.000000
#
# Coordination Sequence:
#
# PCOD8301694 Si02
#       4
#    16   8  16   8
#     4  11  24  42  68  98 138 180 218 276 341 388
#     4  12  26  44  71  99 130 177 227 282 337 388
#     4  11  23  45  66  99 137 170 231 275 323 408
#     4  12  21  43  63 104 134 169 228 285 317 404
#
# _framework density 22.514766000000002
#
# number of rings (size 3 to 8) (size 9 to 14) (size 15 to 20)
#    0.000    0.667    6.667    1.500    0.000   10.000 
#    0.000    2.500    0.000    0.000    0.000    0.000 
#    0.000    0.000    0.000    0.000    0.000    0.000 
#
# Total GULP energy -297579.612805 kJ/mol
# GULP energy per Si atom -12399.150534 kJ/mol
# Density = 2.246352 g / cm^3
# Si number density = 22.514766 Si / 1000 Ang^3
#
#
#
# Elastic Constant Matrix: (Units=GPa)
#
#
# Indices 1 2 3 4 5 6 
#
# 1 154.9826 55.2083 31.4275 0.0000 0.0000 0.0000
# 2 55.2083 164.9642 8.1537 0.0000 0.0000 0.0000
# 3 31.4275 8.1537 79.3610 0.0000 0.0000 0.0000
# 4 0.0000 0.0000 0.0000 16.4961 0.0000 0.0000
# 5 0.0000 0.0000 0.0000 0.0000 25.5723 0.0000
# 6 0.0000 0.0000 0.0000 0.0000 0.0000 29.5707
#
#
#
# Elastic Compliance Matrix: (Units=1/GPa)
#
#
# Indices 1 2 3 4 5 6 
#
# 1 0.007932 -0.002512 -0.002883 0.000000 0.000000 0.000000
# 2 -0.002512 0.006888 0.000287 0.000000 0.000000 0.000000
# 3 -0.002883 0.000287 0.013713 0.000000 0.000000 0.000000
# 4 0.000000 0.000000 0.000000 0.060620 0.000000 0.000000
# 5 0.000000 0.000000 0.000000 0.000000 0.039105 0.000000
# 6 0.000000 0.000000 0.000000 0.000000 0.000000 0.033817
#
#
# Mechanical properties :
#
#
# Convention : Reuss Voigt Hill
#
# Bulk Modulus (GPa) = 54.59353 65.43186 60.01269
# Shear Modulus (GPa) = 28.02738 34.62905 31.32822
#
# Velocity S-wave (km/s) = 3.53206 3.92606 3.73426
# Velocity P-wave (km/s) = 6.39801 7.04818 6.73095
#
# Compressibility (1/GPa) = 0.01831719
#
# Stress axis : x y z
#
# Youngs Moduli (GPa) = 126.07514 145.17102 72.92441
#
# Poissons Ratio (x) = 0.36467 0.21024
# Poissons Ratio (y) = 0.31670 -0.02093
# Poissons Ratio (z) = 0.36347 -0.04167
#
# Static dielectric constant tensor:
#      x y z
#    x 4.681320 0.000000 0.000000 
#    y 0.000000 4.161710 0.000000 
#    z 0.000000 0.000000 3.988120 
# 
# 
# High freq. dielectric constant tensor:
#      x y z
#    x 1.886160 0.000000 0.000000 
#    y 0.000000 1.889790 0.000000 
#    z 0.000000 0.000000 1.878940 
# 
# From -- ./inp_files/29828.got.cif
#   From: 2010.03.12/outbox.cif.g09.slc.cpg/sg74_15_cif.got.tgz:29828.got - 2010.04.16 15:46:19.
