data_PCOD8301841
_publ_section_title
;
Structure prediction by ZEFSAII (Michael W. Deem and Ramdas Pophale) SiO2 
 PCOD8301841
Probable space group: P 4
;
_chemical_formula_sum "Si O2"
_cell_formula_units_Z 26
_cell_length_a 8.323522
_cell_length_b 8.323522
_cell_length_c 17.020769
_cell_angle_alpha 90.000000
_cell_angle_beta 90.000000
_cell_angle_gamma 90.000000
_cell_volume 1179.216212
_symmetry_space_group_name_H-M "P 4"
_symmetry_group_IT_number 75
_symmetry_cell_setting 'tetragonal'
loop_
_space_group_symop_operation_xyz
x,y,z
-y,x,z
-x,-y,z
y,-x,z
loop_
_atom_site_type_symbol
_atom_site_label
_atom_site_fract_x
_atom_site_fract_y
_atom_site_fract_z
Si Si1 0.752277 0.413987 0.116090
Si Si2 0.470811 0.759673 0.717195
Si Si3 0.755062 0.906589 0.253304
Si Si4 0.475183 0.236568 0.545150
Si Si5 0.500000 0.000000 0.847541
Si Si6 0.928020 0.257055 0.977303
Si Si7 0.923986 0.252495 0.433555
O O1 0.701258 0.598052 0.107369
O O2 0.839817 0.389473 0.199857
O O3 0.884435 0.370996 0.050277
O O4 0.325746 0.639426 0.725510
O O5 0.495225 0.841156 0.631505
O O6 0.422387 0.874201 0.788118
O O7 0.699070 0.895817 0.343155
O O8 0.909788 0.797448 0.233836
O O9 0.639229 0.329231 0.530439
O O10 0.414934 0.099351 0.484919
O O11 0.363663 0.088294 0.898933
O O12 0.110411 0.196098 0.979449
O O13 0.105164 0.196621 0.452141
#
# Coordination Sequence:
#
# PCOD8301841 Si02
#       7
#     4   4   4   4   2   4   4
#     4  11  24  40  59  87 122 160 205 254 302 358
#     4   9  20  38  58  83 116 152 189 235 294 356
#     4   9  19  37  59  83 116 160 207 256 309 360
#     4   9  19  35  54  79 113 152 195 241 292 353
#     4  12  22  38  64  90 112 146 192 240 290 358
#     4  11  24  41  61  87 119 153 192 243 304 367
#     4   9  19  35  55  83 119 158 204 256 306 356
#
# _framework density 22.048542999999999
#
# number of rings (size 3 to 8) (size 9 to 14) (size 15 to 20)
#    0.000    2.154    0.000    4.615    0.000    7.385 
#    0.000    6.154    0.000    1.846    0.000    0.000 
#    0.000    0.000    0.000    0.000    0.000    0.000 
#
# Total GULP energy -322113.240884 kJ/mol
# GULP energy per Si atom -12388.970803 kJ/mol
# Density = 2.199836 g / cm^3
# Si number density = 22.048543 Si / 1000 Ang^3
#
#
#
# Elastic Constant Matrix: (Units=GPa)
#
#
# Indices 1 2 3 4 5 6 
#
# 1 52.1225 27.4848 38.7932 0.0000 0.0000 11.6992
# 2 27.4848 52.1225 38.7932 0.0000 0.0000 -11.6992
# 3 38.7932 38.7932 139.3043 0.0000 0.0000 0.0000
# 4 0.0000 0.0000 0.0000 52.9931 0.0000 0.0000
# 5 0.0000 0.0000 0.0000 0.0000 52.9931 0.0000
# 6 11.6992 -11.6992 0.0000 0.0000 0.0000 29.3113
#
#
#
# Elastic Compliance Matrix: (Units=1/GPa)
#
#
# Indices 1 2 3 4 5 6 
#
# 1 0.041303 -0.024062 -0.004801 0.000000 0.000000 -0.026090
# 2 -0.024062 0.041303 -0.004801 0.000000 0.000000 0.026090
# 3 -0.004801 -0.004801 0.009853 0.000000 0.000000 0.000000
# 4 0.000000 0.000000 0.000000 0.018870 0.000000 0.000000
# 5 0.000000 0.000000 0.000000 0.000000 0.018870 0.000000
# 6 -0.026090 0.026090 0.000000 0.000000 0.000000 0.054943
#
#
# Mechanical properties :
#
#
# Convention : Reuss Voigt Hill
#
# Bulk Modulus (GPa) = 39.79359 50.41017 45.10188
# Shear Modulus (GPa) = 19.16812 36.29136 27.72974
#
# Velocity S-wave (km/s) = 2.95169 4.06146 3.55021
# Velocity P-wave (km/s) = 5.45014 6.70126 6.10782
#
# Compressibility (1/GPa) = 0.02512968
#
# Stress axis : x y z
#
# Youngs Moduli (GPa) = 24.21110 24.21110 101.49594
#
# Poissons Ratio (x) = 0.58258 0.48731
# Poissons Ratio (y) = 0.58258 0.48731
# Poissons Ratio (z) = 0.11624 0.11624
#
# Static dielectric constant tensor:
#      x y z
#    x 3.538090 0.000000 0.000000 
#    y 0.000000 3.538090 0.000000 
#    z 0.000000 0.000000 3.976520 
# 
# 
# High freq. dielectric constant tensor:
#      x y z
#    x 1.871010 0.000000 0.000000 
#    y 0.000000 1.871010 0.000000 
#    z 0.000000 0.000000 1.868460 
# 
# From -- ./inp_files/734.got.cif
#   From: 2010.03.12/outbox.cif.g09.slc.cpg/sg75_cif.got.tgz:734.got - 2010.04.16 16:33:55.
