data_PCOD8301191
_publ_section_title
;
Structure prediction by ZEFSAII (Michael W. Deem and Ramdas Pophale) SiO2 
 PCOD8301191
Probable space group: I M M A
;
_chemical_formula_sum "Si O2"
_cell_formula_units_Z 88
_cell_length_a 8.731951
_cell_length_b 17.946912
_cell_length_c 29.036188
_cell_angle_alpha 90.000000
_cell_angle_beta 90.000000
_cell_angle_gamma 90.000000
_cell_volume 4550.306207
_symmetry_space_group_name_H-M "I M M A"
_symmetry_group_IT_number 74
_symmetry_cell_setting 'orthorhombic'
loop_
_space_group_symop_operation_xyz
x,y,z
-x,1/2-y,z
x,-y,-z
-x,1/2+y,-z
-x,-y,-z
x,1/2+y,-z
-x,y,z
x,1/2-y,z
1/2+x,1/2+y,1/2+z
1/2-x,-y,1/2+z
1/2+x,1/2-y,1/2-z
1/2-x,y,1/2-z
1/2-x,1/2-y,1/2-z
1/2+x,y,1/2-z
1/2-x,1/2+y,1/2+z
1/2+x,-y,1/2+z
loop_
_atom_site_type_symbol
_atom_site_label
_atom_site_fract_x
_atom_site_fract_y
_atom_site_fract_z
Si Si1 0.319019 0.028353 0.700304
Si Si2 0.680881 0.105019 0.144715
Si Si3 0.816946 0.166995 0.856990
Si Si4 0.819275 0.750000 0.699775
Si Si5 0.833226 0.161954 0.955998
Si Si6 0.182622 0.335599 0.055413
O O1 0.500000 0.025095 0.704222
O O2 0.250000 0.013243 0.750000
O O3 0.261801 0.108732 0.681550
O O4 0.263221 0.966477 0.665126
O O5 0.500000 0.094844 0.147967
O O6 0.738331 0.177192 0.172775
O O7 0.732293 0.112268 0.091900
O O8 0.758757 0.250000 0.843228
O O9 0.748046 0.142551 0.907534
O O10 0.000000 0.167326 0.861311
O O11 0.750000 0.750000 0.750000
O O12 0.000000 0.750000 0.704044
O O13 0.855615 0.250000 0.957706
O O14 0.000000 0.123303 0.955184
O O15 0.753927 0.138886 0.004545
O O16 0.227900 0.250000 0.065316
O O17 0.000000 0.345882 0.058288
#
# Coordination Sequence:
#
# PCOD8301191 Si02
#       6
#    16  16  16   8  16  16
#     4  11  23  38  56  79 106 139 177 220 274 322
#     4  11  22  37  53  74 106 144 183 220 264 315
#     4   8  15  31  56  83 109 137 173 218 264 316
#     4  10  22  36  52  72  94 130 178 222 261 306
#     4   7  11  23  47  79 109 135 169 214 260 305
#     4   9  16  28  51  82 110 138 175 219 263 307
#
# _framework density 19.339358000000001
#
# number of rings (size 3 to 8) (size 9 to 14) (size 15 to 20)
#    0.000    2.727    0.909    3.818    0.000    3.273 
#    0.000    0.909    0.000    9.273    0.000    5.091 
#    0.000    0.000    0.000    0.000    0.000    0.000 
#
# Total GULP energy -545178.909552 kJ/mol
# GULP energy per Si atom -12390.429763 kJ/mol
# Density = 1.929534 g / cm^3
# Si number density = 19.339358 Si / 1000 Ang^3
#
#
#
# Elastic Constant Matrix: (Units=GPa)
#
#
# Indices 1 2 3 4 5 6 
#
# 1 36.3357 22.6385 18.5063 0.0000 0.0000 0.0000
# 2 22.6385 88.3010 24.1684 0.0000 0.0000 0.0000
# 3 18.5063 24.1684 71.3993 0.0000 0.0000 0.0000
# 4 0.0000 0.0000 0.0000 15.0191 0.0000 0.0000
# 5 0.0000 0.0000 0.0000 0.0000 18.4431 0.0000
# 6 0.0000 0.0000 0.0000 0.0000 0.0000 17.1288
#
#
#
# Elastic Compliance Matrix: (Units=1/GPa)
#
#
# Indices 1 2 3 4 5 6 
#
# 1 0.035470 -0.007249 -0.006740 0.000000 0.000000 0.000000
# 2 -0.007249 0.013963 -0.002847 0.000000 0.000000 0.000000
# 3 -0.006740 -0.002847 0.016717 0.000000 0.000000 0.000000
# 4 0.000000 0.000000 0.000000 0.066582 0.000000 0.000000
# 5 0.000000 0.000000 0.000000 0.000000 0.054221 0.000000
# 6 0.000000 0.000000 0.000000 0.000000 0.000000 0.058381
#
#
# Mechanical properties :
#
#
# Convention : Reuss Voigt Hill
#
# Bulk Modulus (GPa) = 30.79126 36.29584 33.54355
# Shear Modulus (GPa) = 17.25139 18.83307 18.04223
#
# Velocity S-wave (km/s) = 2.98994 3.12400 3.05770
# Velocity P-wave (km/s) = 5.27975 5.64102 5.46337
#
# Compressibility (1/GPa) = 0.03247675
#
# Stress axis : x y z
#
# Youngs Moduli (GPa) = 28.19257 71.61907 59.82103
#
# Poissons Ratio (x) = 0.51917 0.40319
# Poissons Ratio (y) = 0.20437 0.17034
# Poissons Ratio (z) = 0.19002 0.20393
#
# Static dielectric constant tensor:
#      x y z
#    x 3.095110 0.000000 0.000000 
#    y 0.000000 3.466420 0.000000 
#    z 0.000000 0.000000 3.940490 
# 
# 
# High freq. dielectric constant tensor:
#      x y z
#    x 1.707560 0.000000 0.000000 
#    y 0.000000 1.732020 0.000000 
#    z 0.000000 0.000000 1.775410 
# 
# From -- ./inp_files/70232.got.cif
#   From: 2010.03.12/outbox.cif.g09.slc.cpg/sg74_36_cif.got.tgz:70232.got - 2010.04.16 15:46:19.
