data_PCOD8301533
_publ_section_title
;
Structure prediction by ZEFSAII (Michael W. Deem and Ramdas Pophale) SiO2 
 PCOD8301533
Probable space group: I M M A
;
_chemical_formula_sum "Si O2"
_cell_formula_units_Z 80
_cell_length_a 24.229569
_cell_length_b 9.160317
_cell_length_c 23.542530
_cell_angle_alpha 90.000000
_cell_angle_beta 90.000000
_cell_angle_gamma 90.000000
_cell_volume 5225.277077
_symmetry_space_group_name_H-M "I M M A"
_symmetry_group_IT_number 74
_symmetry_cell_setting 'orthorhombic'
loop_
_space_group_symop_operation_xyz
x,y,z
-x,1/2-y,z
x,-y,-z
-x,1/2+y,-z
-x,-y,-z
x,1/2+y,-z
-x,y,z
x,1/2-y,z
1/2+x,1/2+y,1/2+z
1/2-x,-y,1/2+z
1/2+x,1/2-y,1/2-z
1/2-x,y,1/2-z
1/2-x,1/2-y,1/2-z
1/2+x,y,1/2-z
1/2-x,1/2+y,1/2+z
1/2+x,-y,1/2+z
loop_
_atom_site_type_symbol
_atom_site_label
_atom_site_fract_x
_atom_site_fract_y
_atom_site_fract_z
Si Si1 0.561514 0.920736 0.254427
Si Si2 0.063147 0.417959 0.885422
Si Si3 0.665100 0.922256 0.775230
Si Si4 0.160675 0.576282 0.942104
Si Si5 0.728264 0.577711 0.664919
O O1 0.500000 0.967439 0.235029
O O2 0.569591 0.750000 0.246254
O O3 0.570173 0.964520 0.320019
O O4 0.605869 0.002957 0.214947
O O5 0.081222 0.250000 0.894232
O O6 0.099985 0.522832 0.924257
O O7 0.000000 0.439351 0.904562
O O8 0.656093 0.750000 0.774215
O O9 0.690208 0.982508 0.715936
O O10 0.707758 0.968794 0.825448
O O11 0.159725 0.750000 0.949420
O O12 0.205372 0.522525 0.895351
O O13 0.179307 0.500000 0.000000
O O14 0.724290 0.750000 0.668517
#
# Coordination Sequence:
#
# PCOD8301533 Si02
#       5
#    16  16  16  16  16
#     4   9  17  28  42  64  94 119 139 173 219 257
#     4   9  18  32  46  60  83 115 150 186 219 251
#     4   9  15  28  48  66  84 110 144 178 211 259
#     4  11  21  33  47  63  84 113 147 185 222 257
#     4   8  16  29  45  64  86 110 140 179 221 255
#
# _framework density 15.310192000000001
#
# number of rings (size 3 to 8) (size 9 to 14) (size 15 to 20)
#    0.000    2.800    2.000    3.000    0.000    1.200 
#    0.000    6.000    0.000    0.000    0.000    0.000 
#    0.000    0.800    0.000    1.800    0.000    3.200 
#
# Total GULP energy -495801.372597 kJ/mol
# GULP energy per Si atom -12395.034315 kJ/mol
# Density = 1.527535 g / cm^3
# Si number density = 15.310192 Si / 1000 Ang^3
#
#
#
# Elastic Constant Matrix: (Units=GPa)
#
#
# Indices 1 2 3 4 5 6 
#
# 1 123.1335 41.1174 56.2479 0.0000 0.0000 0.0000
# 2 41.1174 45.3353 29.8078 0.0000 0.0000 0.0000
# 3 56.2479 29.8078 70.3898 0.0000 0.0000 0.0000
# 4 0.0000 0.0000 0.0000 17.9792 0.0000 0.0000
# 5 0.0000 0.0000 0.0000 0.0000 21.2771 0.0000
# 6 0.0000 0.0000 0.0000 0.0000 0.0000 23.7403
#
#
#
# Elastic Compliance Matrix: (Units=1/GPa)
#
#
# Indices 1 2 3 4 5 6 
#
# 1 0.014485 -0.007659 -0.008331 0.000000 0.000000 0.000000
# 2 -0.007659 0.034619 -0.008540 0.000000 0.000000 0.000000
# 3 -0.008331 -0.008540 0.024480 0.000000 0.000000 0.000000
# 4 0.000000 0.000000 0.000000 0.055620 0.000000 0.000000
# 5 0.000000 0.000000 0.000000 0.000000 0.046999 0.000000
# 6 0.000000 0.000000 0.000000 0.000000 0.000000 0.042123
#
#
# Mechanical properties :
#
#
# Convention : Reuss Voigt Hill
#
# Bulk Modulus (GPa) = 40.77632 54.80052 47.78842
# Shear Modulus (GPa) = 18.14485 20.04500 19.09493
#
# Velocity S-wave (km/s) = 3.44633 3.62229 3.53541
# Velocity P-wave (km/s) = 6.52132 7.30519 6.92436
#
# Compressibility (1/GPa) = 0.02452404
#
# Stress axis : x y z
#
# Youngs Moduli (GPa) = 69.03905 28.88554 40.84948
#
# Poissons Ratio (x) = 0.22124 0.34032
# Poissons Ratio (y) = 0.52879 0.34884
# Poissons Ratio (z) = 0.57516 0.24667
#
# Static dielectric constant tensor:
#      x y z
#    x 3.076630 0.000000 0.000000 
#    y 0.000000 2.738880 0.000000 
#    z 0.000000 0.000000 2.846890 
# 
# 
# High freq. dielectric constant tensor:
#      x y z
#    x 1.588460 0.000000 0.000000 
#    y 0.000000 1.575230 0.000000 
#    z 0.000000 0.000000 1.546270 
# 
# From -- ./inp_files/46939.got.cif
#   From: 2010.03.12/outbox.cif.g09.slc.cpg/sg74_24_cif.got.tgz:46939.got - 2010.04.16 15:46:19.
