data_PCOD8301924
_publ_section_title
;
Structure prediction by ZEFSAII (Michael W. Deem and Ramdas Pophale) SiO2 
 PCOD8301924
Probable space group: P 41
;
_chemical_formula_sum "Si O2"
_cell_formula_units_Z 20
_cell_length_a 9.157227
_cell_length_b 9.157227
_cell_length_c 9.833602
_cell_angle_alpha 90.000000
_cell_angle_beta 90.000000
_cell_angle_gamma 90.000000
_cell_volume 824.594791
_symmetry_space_group_name_H-M "P 41"
_symmetry_group_IT_number 76
_symmetry_cell_setting 'tetragonal'
loop_
_space_group_symop_operation_xyz
x,y,z
-y,x,1/4+z
-x,-y,1/2+z
y,-x,3/4+z
loop_
_atom_site_type_symbol
_atom_site_label
_atom_site_fract_x
_atom_site_fract_y
_atom_site_fract_z
Si Si1 0.320794 0.843087 0.935840
Si Si2 0.338131 0.131406 0.389647
Si Si3 0.839301 0.244978 0.177222
Si Si4 0.497901 0.373316 0.919830
Si Si5 0.180502 0.238057 0.632881
O O1 0.496233 0.832320 0.933297
O O2 0.264804 0.840707 0.780754
O O3 0.263935 0.999533 0.990565
O O4 0.250616 0.714976 0.027959
O O5 0.225623 0.124588 0.516483
O O6 0.323586 0.965716 0.334747
O O7 0.773505 0.405497 0.162876
O O8 0.838025 0.164123 0.030690
O O9 0.440489 0.501098 0.821093
O O10 0.658177 0.322387 0.879271
#
# Coordination Sequence:
#
# PCOD8301924 Si02
#       5
#     4   4   4   4   4
#     4  12  29  49  74 109 146 191 240 298 359 430
#     4  12  29  49  74 109 146 191 240 298 359 430
#     4  11  26  47  77 104 149 187 244 294 362 424
#     4  10  24  42  70 108 146 186 236 298 360 418
#     4  11  26  47  77 104 149 187 244 294 362 424
#
# _framework density 24.254339000000002
#
# number of rings (size 3 to 8) (size 9 to 14) (size 15 to 20)
#    0.000    0.800    2.000    2.400   14.000    8.000 
#    0.000    0.000    0.000    0.000    0.000    0.000 
#    0.000    0.000    0.000    0.000    0.000    0.000 
#
# Total GULP energy -247962.000591 kJ/mol
# GULP energy per Si atom -12398.100030 kJ/mol
# Density = 2.419914 g / cm^3
# Si number density = 24.254339 Si / 1000 Ang^3
#
#
#
# Elastic Constant Matrix: (Units=GPa)
#
#
# Indices 1 2 3 4 5 6 
#
# 1 116.5105 39.4003 38.4750 0.0000 0.0000 -1.4125
# 2 39.4003 116.5105 38.4750 0.0000 0.0000 1.4125
# 3 38.4750 38.4750 129.1362 0.0000 0.0000 0.0000
# 4 0.0000 0.0000 0.0000 33.0059 0.0000 0.0000
# 5 0.0000 0.0000 0.0000 0.0000 33.0059 0.0000
# 6 -1.4125 1.4125 0.0000 0.0000 0.0000 28.2342
#
#
#
# Elastic Compliance Matrix: (Units=1/GPa)
#
#
# Indices 1 2 3 4 5 6 
#
# 1 0.010256 -0.002736 -0.002240 0.000000 0.000000 0.000650
# 2 -0.002736 0.010256 -0.002240 0.000000 0.000000 -0.000650
# 3 -0.002240 -0.002240 0.009079 0.000000 0.000000 0.000000
# 4 0.000000 0.000000 0.000000 0.030298 0.000000 0.000000
# 5 0.000000 0.000000 0.000000 0.000000 0.030298 0.000000
# 6 0.000650 -0.000650 0.000000 0.000000 0.000000 0.035483
#
#
# Mechanical properties :
#
#
# Convention : Reuss Voigt Hill
#
# Bulk Modulus (GPa) = 65.97844 66.09532 66.03688
# Shear Modulus (GPa) = 34.44580 35.23631 34.84105
#
# Velocity S-wave (km/s) = 3.77263 3.81567 3.79421
# Velocity P-wave (km/s) = 6.79991 6.83539 6.81767
#
# Compressibility (1/GPa) = 0.01515647
#
# Stress axis : x y z
#
# Youngs Moduli (GPa) = 97.50405 97.50405 110.14680
#
# Poissons Ratio (x) = 0.26680 0.24678
# Poissons Ratio (y) = 0.26680 0.24678
# Poissons Ratio (z) = 0.21845 0.21845
#
# Static dielectric constant tensor:
#      x y z
#    x 4.248770 0.000000 0.000000 
#    y 0.000000 4.248770 0.000000 
#    z 0.000000 0.000000 4.350430 
# 
# 
# High freq. dielectric constant tensor:
#      x y z
#    x 1.966970 0.000000 0.000000 
#    y 0.000000 1.966970 0.000000 
#    z 0.000000 0.000000 1.963020 
# 
# From -- ./inp_files/438.got.cif
#   From: 2010.03.12/outbox.cif.g09.slc.cpg/sg76_cif.got.tgz:438.got - 2010.04.16 16:34:25.
