data_PCOD8301621
_publ_section_title
;
Structure prediction by ZEFSAII (Michael W. Deem and Ramdas Pophale) SiO2 
 PCOD8301621
Probable space group: I M M A
;
_chemical_formula_sum "Si O2"
_cell_formula_units_Z 104
_cell_length_a 24.501361
_cell_length_b 21.271036
_cell_length_c 10.065042
_cell_angle_alpha 90.000000
_cell_angle_beta 90.000000
_cell_angle_gamma 90.000000
_cell_volume 5245.591214
_symmetry_space_group_name_H-M "I M M A"
_symmetry_group_IT_number 74
_symmetry_cell_setting 'orthorhombic'
loop_
_space_group_symop_operation_xyz
x,y,z
-x,1/2-y,z
x,-y,-z
-x,1/2+y,-z
-x,-y,-z
x,1/2+y,-z
-x,y,z
x,1/2-y,z
1/2+x,1/2+y,1/2+z
1/2-x,-y,1/2+z
1/2+x,1/2-y,1/2-z
1/2-x,y,1/2-z
1/2-x,1/2-y,1/2-z
1/2+x,y,1/2-z
1/2-x,1/2+y,1/2+z
1/2+x,-y,1/2+z
loop_
_atom_site_type_symbol
_atom_site_label
_atom_site_fract_x
_atom_site_fract_y
_atom_site_fract_z
Si Si1 0.185198 0.180028 0.032669
Si Si2 0.802945 0.319242 0.574617
Si Si3 0.940844 0.060192 0.668636
Si Si4 0.164005 0.592016 0.185558
Si Si5 0.326524 0.616333 0.806234
Si Si6 0.250000 0.006842 0.250000
Si Si7 0.940543 0.415373 0.379481
O O1 0.159029 0.250000 0.046269
O O2 0.198051 0.152035 0.178154
O O3 0.238289 0.184364 0.941101
O O4 0.149563 0.130735 0.948341
O O5 0.826389 0.250000 0.608897
O O6 0.816225 0.366142 0.692112
O O7 0.826081 0.340042 0.433666
O O8 0.894747 0.064388 0.779870
O O9 0.926031 0.099874 0.534602
O O10 0.000000 0.083935 0.723386
O O11 0.946858 0.988873 0.629525
O O12 0.209992 0.537372 0.160228
O O13 0.291446 0.552169 0.833510
O O14 0.391292 0.605363 0.782245
O O15 0.000000 0.384700 0.341154
#
# Coordination Sequence:
#
# PCOD8301621 Si02
#       7
#    16  16  16  16  16   8  16
#     4  11  24  40  55  80 117 163 196 225 282 348
#     4  11  22  38  59  82 111 159 202 231 274 332
#     4   9  18  34  58  87 117 150 186 230 289 349
#     4  12  22  37  59  86 124 146 186 245 282 347
#     4  12  22  37  59  86 124 146 186 245 282 347
#     4  12  24  34  56  96 122 150 176 230 312 336
#     4   9  18  34  58  87 117 150 186 230 289 349
#
# _framework density 19.826174000000002
#
# number of rings (size 3 to 8) (size 9 to 14) (size 15 to 20)
#    0.000    1.231    6.154    1.846    0.000    4.923 
#    0.000    0.769    0.000    7.385    0.000    0.000 
#    0.000    0.000    0.000    0.000    0.000    0.000 
#
# Total GULP energy -644183.781623 kJ/mol
# GULP energy per Si atom -12388.149647 kJ/mol
# Density = 1.978105 g / cm^3
# Si number density = 19.826174 Si / 1000 Ang^3
#
#
#
# Elastic Constant Matrix: (Units=GPa)
#
#
# Indices 1 2 3 4 5 6 
#
# 1 108.1005 21.4519 11.4871 0.0000 0.0000 0.0000
# 2 21.4519 71.7858 18.3023 0.0000 0.0000 0.0000
# 3 11.4871 18.3023 70.2405 0.0000 0.0000 0.0000
# 4 0.0000 0.0000 0.0000 21.0841 0.0000 0.0000
# 5 0.0000 0.0000 0.0000 0.0000 24.5038 0.0000
# 6 0.0000 0.0000 0.0000 0.0000 0.0000 14.2516
#
#
#
# Elastic Compliance Matrix: (Units=1/GPa)
#
#
# Indices 1 2 3 4 5 6 
#
# 1 0.009888 -0.002723 -0.000907 0.000000 0.000000 0.000000
# 2 -0.002723 0.015672 -0.003638 0.000000 0.000000 0.000000
# 3 -0.000907 -0.003638 0.015333 0.000000 0.000000 0.000000
# 4 0.000000 0.000000 0.000000 0.047429 0.000000 0.000000
# 5 0.000000 0.000000 0.000000 0.000000 0.040810 0.000000
# 6 0.000000 0.000000 0.000000 0.000000 0.000000 0.070168
#
#
# Mechanical properties :
#
#
# Convention : Reuss Voigt Hill
#
# Bulk Modulus (GPa) = 37.94399 39.17882 38.56141
# Shear Modulus (GPa) = 22.45963 25.22694 23.84328
#
# Velocity S-wave (km/s) = 3.36940 3.57095 3.47164
# Velocity P-wave (km/s) = 5.85807 6.06682 5.96336
#
# Compressibility (1/GPa) = 0.02635463
#
# Stress axis : x y z
#
# Youngs Moduli (GPa) = 101.13774 63.80919 65.21810
#
# Poissons Ratio (x) = 0.17378 0.05918
# Poissons Ratio (y) = 0.27543 0.23727
# Poissons Ratio (z) = 0.09177 0.23215
#
# Static dielectric constant tensor:
#      x y z
#    x 4.044660 0.000000 0.000000 
#    y 0.000000 3.811340 0.000000 
#    z 0.000000 0.000000 3.464180 
# 
# 
# High freq. dielectric constant tensor:
#      x y z
#    x 1.767040 0.000000 0.000000 
#    y 0.000000 1.761400 0.000000 
#    z 0.000000 0.000000 1.751390 
# 
# From -- ./inp_files/15368.got.cif
#   From: 2010.03.12/outbox.cif.g09.slc.cpg/sg74_8_cif.got.tgz:15368.got - 2010.04.16 15:46:19.
