data_PCOD8301559
_publ_section_title
;
Structure prediction by ZEFSAII (Michael W. Deem and Ramdas Pophale) SiO2 
 PCOD8301559
Probable space group: I M M A
;
_chemical_formula_sum "Si O2"
_cell_formula_units_Z 96
_cell_length_a 10.620468
_cell_length_b 17.139090
_cell_length_c 24.733138
_cell_angle_alpha 90.000000
_cell_angle_beta 90.000000
_cell_angle_gamma 90.000000
_cell_volume 4502.053325
_symmetry_space_group_name_H-M "I M M A"
_symmetry_group_IT_number 74
_symmetry_cell_setting 'orthorhombic'
loop_
_space_group_symop_operation_xyz
x,y,z
-x,1/2-y,z
x,-y,-z
-x,1/2+y,-z
-x,-y,-z
x,1/2+y,-z
-x,y,z
x,1/2-y,z
1/2+x,1/2+y,1/2+z
1/2-x,-y,1/2+z
1/2+x,1/2-y,1/2-z
1/2-x,y,1/2-z
1/2-x,1/2-y,1/2-z
1/2+x,y,1/2-z
1/2-x,1/2+y,1/2+z
1/2+x,-y,1/2+z
loop_
_atom_site_type_symbol
_atom_site_label
_atom_site_fract_x
_atom_site_fract_y
_atom_site_fract_z
Si Si1 0.144214 0.343117 0.708253
Si Si2 0.761296 0.837528 0.405575
Si Si3 0.500000 0.106248 0.955895
Si Si4 0.000000 0.563696 0.580038
Si Si5 0.356826 0.414572 0.501129
Si Si6 0.234463 0.659975 0.600058
Si Si7 0.860007 0.158683 0.211613
O O1 0.139199 0.250000 0.707485
O O2 0.250000 0.373806 0.750000
O O3 0.195957 0.375359 0.651143
O O4 0.000000 0.373442 0.719888
O O5 0.713358 0.750000 0.396137
O O6 0.651794 0.883928 0.436953
O O7 0.880244 0.839871 0.445275
O O8 0.500000 0.030154 0.916700
O O9 0.500000 0.086257 0.017890
O O10 0.880350 0.600949 0.609846
O O11 0.289467 0.500000 0.500000
O O12 0.500000 0.424223 0.484179
O O13 0.296478 0.356038 0.458117
O O14 0.189026 0.750000 0.601214
O O15 0.331340 0.643013 0.648556
O O16 0.865119 0.250000 0.223761
O O17 0.750000 0.121569 0.250000
O O18 0.000000 0.123263 0.224236
#
# Coordination Sequence:
#
# PCOD8301559 Si02
#       7
#    16  16   8   8  16  16  16
#     4   9  18  33  54  84 119 151 187 240 302 352
#     4  11  21  35  60  89 114 147 195 249 294 343
#     4  11  21  37  57  83 120 156 194 233 290 357
#     4  11  23  35  57  87 118 160 196 233 292 365
#     4  11  24  40  57  81 118 163 196 233 295 363
#     4  11  22  36  59  89 118 149 196 250 297 347
#     4   9  19  35  57  86 120 153 189 243 306 359
#
# _framework density 21.323602999999999
#
# number of rings (size 3 to 8) (size 9 to 14) (size 15 to 20)
#    0.000    1.667    2.500    2.500    1.167    3.333 
#    0.000    1.667    0.000    4.000    0.000    0.000 
#    0.000    0.000    0.000    0.000    0.000    0.000 
#
# Total GULP energy -594907.998191 kJ/mol
# GULP energy per Si atom -12393.916629 kJ/mol
# Density = 2.127507 g / cm^3
# Si number density = 21.323603 Si / 1000 Ang^3
#
#
#
# Elastic Constant Matrix: (Units=GPa)
#
#
# Indices 1 2 3 4 5 6 
#
# 1 122.8437 15.6317 52.0358 0.0000 0.0000 0.0000
# 2 15.6317 53.6156 17.1931 0.0000 0.0000 0.0000
# 3 52.0358 17.1931 118.6010 0.0000 0.0000 0.0000
# 4 0.0000 0.0000 0.0000 10.8695 0.0000 0.0000
# 5 0.0000 0.0000 0.0000 0.0000 40.1889 0.0000
# 6 0.0000 0.0000 0.0000 0.0000 0.0000 22.0193
#
#
#
# Elastic Compliance Matrix: (Units=1/GPa)
#
#
# Indices 1 2 3 4 5 6 
#
# 1 0.010128 -0.001602 -0.004211 0.000000 0.000000 0.000000
# 2 -0.001602 0.019814 -0.002169 0.000000 0.000000 0.000000
# 3 -0.004211 -0.002169 0.010594 0.000000 0.000000 0.000000
# 4 0.000000 0.000000 0.000000 0.092001 0.000000 0.000000
# 5 0.000000 0.000000 0.000000 0.000000 0.024882 0.000000
# 6 0.000000 0.000000 0.000000 0.000000 0.000000 0.045415
#
#
# Mechanical properties :
#
#
# Convention : Reuss Voigt Hill
#
# Bulk Modulus (GPa) = 40.70024 51.64241 46.17132
# Shear Modulus (GPa) = 22.02734 28.62884 25.32809
#
# Velocity S-wave (km/s) = 3.21752 3.66811 3.45018
# Velocity P-wave (km/s) = 5.73861 6.49700 6.12955
#
# Compressibility (1/GPa) = 0.02456988
#
# Stress axis : x y z
#
# Youngs Moduli (GPa) = 98.73354 50.46908 94.39418
#
# Poissons Ratio (x) = 0.08087 0.39754
# Poissons Ratio (y) = 0.15821 0.20477
# Poissons Ratio (z) = 0.41581 0.10948
#
# Static dielectric constant tensor:
#      x y z
#    x 4.086180 0.000000 0.000000 
#    y 0.000000 3.671010 0.000000 
#    z 0.000000 0.000000 3.848750 
# 
# 
# High freq. dielectric constant tensor:
#      x y z
#    x 1.842330 0.000000 0.000000 
#    y 0.000000 1.800150 0.000000 
#    z 0.000000 0.000000 1.834100 
# 
# From -- ./inp_files/58902.got.cif
#   From: 2010.03.12/outbox.cif.g09.slc.cpg/sg74_30_cif.got.tgz:58902.got - 2010.04.16 15:46:19.
