data_PCOD8301777
_publ_section_title
;
Structure prediction by ZEFSAII (Michael W. Deem and Ramdas Pophale) SiO2 
 PCOD8301777
Probable space group: I M M A
;
_chemical_formula_sum "Si O2"
_cell_formula_units_Z 80
_cell_length_a 14.789670
_cell_length_b 24.369503
_cell_length_c 14.750243
_cell_angle_alpha 90.000000
_cell_angle_beta 90.000000
_cell_angle_gamma 90.000000
_cell_volume 5316.236966
_symmetry_space_group_name_H-M "I M M A"
_symmetry_group_IT_number 74
_symmetry_cell_setting 'orthorhombic'
loop_
_space_group_symop_operation_xyz
x,y,z
-x,1/2-y,z
x,-y,-z
-x,1/2+y,-z
-x,-y,-z
x,1/2+y,-z
-x,y,z
x,1/2-y,z
1/2+x,1/2+y,1/2+z
1/2-x,-y,1/2+z
1/2+x,1/2-y,1/2-z
1/2-x,y,1/2-z
1/2-x,1/2-y,1/2-z
1/2+x,y,1/2-z
1/2-x,1/2+y,1/2+z
1/2+x,-y,1/2+z
loop_
_atom_site_type_symbol
_atom_site_label
_atom_site_fract_x
_atom_site_fract_y
_atom_site_fract_z
Si Si1 0.156964 0.481703 0.286998
Si Si2 0.598695 0.446874 0.938229
Si Si3 0.786321 0.609983 0.571569
Si Si4 0.396382 0.313355 0.184056
Si Si5 0.899482 0.894439 0.845898
O O1 0.250000 0.505994 0.250000
O O2 0.107921 0.533533 0.333668
O O3 0.174675 0.434455 0.359595
O O4 0.101060 0.453579 0.205172
O O5 0.500000 0.418890 0.949224
O O6 0.605572 0.500000 0.000000
O O7 0.677352 0.404511 0.970242
O O8 0.829172 0.667780 0.603404
O O9 0.676546 0.609160 0.574904
O O10 0.500000 0.324097 0.153921
O O11 0.377787 0.250000 0.204276
O O12 0.375194 0.345934 0.276319
O O13 0.000000 0.886666 0.888067
#
# Coordination Sequence:
#
# PCOD8301777 Si02
#       5
#    16  16  16  16  16
#     4   8  14  24  38  53  70  91 117 149 181 215
#     4   9  15  23  37  54  71  92 118 148 182 218
#     4   9  16  24  35  52  73  96 120 148 179 212
#     4   9  16  25  37  53  73  97 125 154 181 210
#     4   9  16  25  36  50  70  99 129 151 175 207
#
# _framework density 15.048238
#
# number of rings (size 3 to 8) (size 9 to 14) (size 15 to 20)
#    0.000    3.200    0.000    3.000    0.000    6.400 
#    0.000    0.000    0.000   16.200    0.000    0.000 
#    0.000    0.800    0.000    0.000    0.000    0.400 
#
# Total GULP energy -495551.373285 kJ/mol
# GULP energy per Si atom -12388.784332 kJ/mol
# Density = 1.501399 g / cm^3
# Si number density = 15.048238 Si / 1000 Ang^3
#
#
#
# Elastic Constant Matrix: (Units=GPa)
#
#
# Indices 1 2 3 4 5 6 
#
# 1 106.4590 38.8895 28.0627 0.0000 0.0000 0.0000
# 2 38.8895 47.6135 27.3718 -0.0001 0.0000 0.0001
# 3 28.0627 27.3718 32.5184 0.0001 0.0000 0.0000
# 4 0.0000 -0.0001 0.0001 8.4805 0.0000 0.0000
# 5 0.0000 0.0000 0.0000 0.0000 17.5555 0.0000
# 6 0.0000 0.0001 0.0000 0.0000 0.0000 16.5327
#
#
#
# Elastic Compliance Matrix: (Units=1/GPa)
#
#
# Indices 1 2 3 4 5 6 
#
# 1 0.013745 -0.008540 -0.004673 0.000000 0.000000 0.000000
# 2 -0.008540 0.046000 -0.031350 0.000001 0.000000 0.000000
# 3 -0.004673 -0.031350 0.061173 -0.000001 0.000000 0.000000
# 4 0.000000 0.000001 -0.000001 0.117917 0.000000 0.000000
# 5 0.000000 0.000000 0.000000 0.000000 0.056962 0.000000
# 6 0.000000 0.000000 0.000000 0.000000 0.000000 0.060486
#
#
# Mechanical properties :
#
#
# Convention : Reuss Voigt Hill
#
# Bulk Modulus (GPa) = 31.45472 41.69322 36.57397
# Shear Modulus (GPa) = 10.96475 14.66486 12.81481
#
# Velocity S-wave (km/s) = 2.70226 3.12512 2.92135
# Velocity P-wave (km/s) = 5.53934 6.38658 5.97799
#
# Compressibility (1/GPa) = 0.03179173
#
# Stress axis : x y z
#
# Youngs Moduli (GPa) = 72.75496 21.73919 16.34708
#
# Poissons Ratio (x) = 0.18565 0.07639
# Poissons Ratio (y) = 0.62132 0.51248
# Poissons Ratio (z) = 0.33999 0.68152
#
# Static dielectric constant tensor:
#      x y z
#    x 3.061650 0.000000 0.000000 
#    y 0.000000 2.749590 0.000000 
#    z 0.000000 0.000000 2.779690 
# 
# 
# High freq. dielectric constant tensor:
#      x y z
#    x 1.590630 0.000000 0.000000 
#    y 0.000000 1.537420 0.000000 
#    z 0.000000 0.000000 1.518670 
# 
# From -- ./inp_files/20452.got.cif
#   From: 2010.03.12/outbox.cif.g09.slc.cpg/sg74_11_cif.got.tgz:20452.got - 2010.04.16 15:46:19.
