data_PCOD8301932
_publ_section_title
;
Structure prediction by ZEFSAII (Michael W. Deem and Ramdas Pophale) SiO2 
 PCOD8301932
Probable space group: P 41
;
_chemical_formula_sum "Si O2"
_cell_formula_units_Z 28
_cell_length_a 9.187886
_cell_length_b 9.187886
_cell_length_c 14.311620
_cell_angle_alpha 90.000000
_cell_angle_beta 90.000000
_cell_angle_gamma 90.000000
_cell_volume 1208.147591
_symmetry_space_group_name_H-M "P 41"
_symmetry_group_IT_number 76
_symmetry_cell_setting 'tetragonal'
loop_
_space_group_symop_operation_xyz
x,y,z
-y,x,1/4+z
-x,-y,1/2+z
y,-x,3/4+z
loop_
_atom_site_type_symbol
_atom_site_label
_atom_site_fract_x
_atom_site_fract_y
_atom_site_fract_z
Si Si1 0.529208 0.627611 0.610940
Si Si2 0.105662 0.638694 0.762517
Si Si3 0.846315 0.103248 0.609625
Si Si4 0.341268 0.646314 0.052958
Si Si5 0.138369 0.211452 0.563533
Si Si6 0.198287 0.539803 0.572796
Si Si7 0.440282 0.115237 0.606758
O O1 0.621059 0.723337 0.536478
O O2 0.610874 0.473227 0.628416
O O3 0.549333 0.696355 0.712311
O O4 0.364025 0.599123 0.577215
O O5 0.097112 0.623110 0.649506
O O6 0.026366 0.791687 0.790310
O O7 0.036551 0.510063 0.825051
O O8 0.803960 0.265750 0.576229
O O9 0.771161 0.074370 0.709004
O O10 0.019499 0.117912 0.621310
O O11 0.471394 0.763052 0.049627
O O12 0.184924 0.369723 0.601847
O O13 0.278424 0.109297 0.566924
O O14 0.136698 0.563223 0.468854
#
# Coordination Sequence:
#
# PCOD8301932 Si02
#       7
#     4   4   4   4   4   4   4
#     4  12  22  41  72 108 140 177 240 316 367 416
#     4  11  25  47  68 108 148 186 246 304 370 436
#     4  11  26  47  71 101 145 195 241 295 361 451
#     4  11  21  40  72 104 135 183 240 297 358 431
#     4  12  23  48  73 102 143 192 246 292 366 448
#     4  12  23  44  76 106 149 184 248 316 363 436
#     4  11  24  45  74 103 140 197 243 294 371 446
#
# _framework density 23.175978000000001
#
# number of rings (size 3 to 8) (size 9 to 14) (size 15 to 20)
#    0.000    0.571    5.714    4.286    0.000    1.143 
#    5.143    0.000    0.000    0.000    0.000    0.000 
#    0.000    0.000    0.000    0.000    0.000    0.000 
#
# Total GULP energy -346954.935047 kJ/mol
# GULP energy per Si atom -12391.247680 kJ/mol
# Density = 2.312323 g / cm^3
# Si number density = 23.175978 Si / 1000 Ang^3
#
#
#
# Elastic Constant Matrix: (Units=GPa)
#
#
# Indices 1 2 3 4 5 6 
#
# 1 88.2314 24.2726 2.6079 0.0000 0.0000 1.6744
# 2 24.2726 88.2314 2.6079 0.0000 0.0000 -1.6744
# 3 2.6079 2.6079 114.6287 0.0000 0.0000 0.0000
# 4 0.0000 0.0000 0.0000 28.7375 0.0000 0.0000
# 5 0.0000 0.0000 0.0000 0.0000 28.7375 0.0000
# 6 1.6744 -1.6744 0.0000 0.0000 0.0000 32.1082
#
#
#
# Elastic Compliance Matrix: (Units=1/GPa)
#
#
# Indices 1 2 3 4 5 6 
#
# 1 0.012288 -0.003390 -0.000202 0.000000 0.000000 -0.000818
# 2 -0.003390 0.012288 -0.000202 0.000000 0.000000 0.000818
# 3 -0.000202 -0.000202 0.008733 0.000000 0.000000 0.000000
# 4 0.000000 0.000000 0.000000 0.034798 0.000000 0.000000
# 5 0.000000 0.000000 0.000000 0.000000 0.034798 0.000000
# 6 -0.000818 0.000818 0.000000 0.000000 0.000000 0.031230
#
#
# Mechanical properties :
#
#
# Convention : Reuss Voigt Hill
#
# Bulk Modulus (GPa) = 38.88146 38.89648 38.88897
# Shear Modulus (GPa) = 33.26744 35.35684 34.31214
#
# Velocity S-wave (km/s) = 3.79281 3.91011 3.85191
# Velocity P-wave (km/s) = 5.99947 6.09957 6.04973
#
# Compressibility (1/GPa) = 0.02571920
#
# Stress axis : x y z
#
# Youngs Moduli (GPa) = 81.38081 81.38081 114.50781
#
# Poissons Ratio (x) = 0.27588 0.02318
# Poissons Ratio (y) = 0.27588 0.02318
# Poissons Ratio (z) = 0.01647 0.01647
#
# Static dielectric constant tensor:
#      x y z
#    x 4.169940 0.000000 0.000000 
#    y 0.000000 4.169940 0.000000 
#    z 0.000000 0.000000 4.192190 
# 
# 
# High freq. dielectric constant tensor:
#      x y z
#    x 1.908960 0.000000 0.000000 
#    y 0.000000 1.908960 0.000000 
#    z 0.000000 0.000000 1.920030 
# 
# From -- ./inp_files/1108.got.cif
#   From: 2010.03.12/outbox.cif.g09.slc.cpg/sg76_cif.got.tgz:1108.got - 2010.04.16 16:34:25.
