data_PCOD8301480
_publ_section_title
;
Structure prediction by ZEFSAII (Michael W. Deem and Ramdas Pophale) SiO2 
 PCOD8301480
Probable space group: I M M A
;
_chemical_formula_sum "Si O2"
_cell_formula_units_Z 64
_cell_length_a 13.948767
_cell_length_b 10.298659
_cell_length_c 24.541178
_cell_angle_alpha 90.000000
_cell_angle_beta 90.000000
_cell_angle_gamma 90.000000
_cell_volume 3525.428440
_symmetry_space_group_name_H-M "I M M A"
_symmetry_group_IT_number 74
_symmetry_cell_setting 'orthorhombic'
loop_
_space_group_symop_operation_xyz
x,y,z
-x,1/2-y,z
x,-y,-z
-x,1/2+y,-z
-x,-y,-z
x,1/2+y,-z
-x,y,z
x,1/2-y,z
1/2+x,1/2+y,1/2+z
1/2-x,-y,1/2+z
1/2+x,1/2-y,1/2-z
1/2-x,y,1/2-z
1/2-x,1/2-y,1/2-z
1/2+x,y,1/2-z
1/2-x,1/2+y,1/2+z
1/2+x,-y,1/2+z
loop_
_atom_site_type_symbol
_atom_site_label
_atom_site_fract_x
_atom_site_fract_y
_atom_site_fract_z
Si Si1 0.356298 0.608953 0.269985
Si Si2 0.804954 0.992046 0.119092
Si Si3 0.109809 0.250000 0.941364
Si Si4 0.395935 0.902947 0.153732
Si Si5 0.389149 0.750000 0.570318
O O1 0.398087 0.750000 0.287936
O O2 0.250000 0.629957 0.250000
O O3 0.359155 0.515391 0.322441
O O4 0.411001 0.553154 0.217112
O O5 0.832824 0.126839 0.092746
O O6 0.838076 0.877508 0.079972
O O7 0.689049 0.983750 0.125203
O O8 0.000000 0.250000 0.922171
O O9 0.117368 0.250000 0.005913
O O10 0.500000 0.928785 0.125217
O O11 0.368972 0.750000 0.151808
O O12 0.500000 0.750000 0.589451
#
# Coordination Sequence:
#
# PCOD8301480 Si02
#       5
#    16  16   8  16   8
#     4   8  14  28  51  81 109 136 177 219 255 306
#     4  11  19  37  58  80 110 146 178 219 274 324
#     4  11  22  38  60  79  97 135 192 236 272 321
#     4   9  17  31  56  88 115 140 177 222 262 312
#     4  11  26  40  52  77 111 141 178 232 284 321
#
# _framework density 18.153822999999999
#
# number of rings (size 3 to 8) (size 9 to 14) (size 15 to 20)
#    0.000    2.250    2.500    3.000    0.000    4.000 
#    0.000    6.250    0.000    4.500    0.000    0.000 
#    0.000    0.000    0.000    0.000    0.000    0.000 
#
# Total GULP energy -396464.224550 kJ/mol
# GULP energy per Si atom -12389.507017 kJ/mol
# Density = 1.811250 g / cm^3
# Si number density = 18.153823 Si / 1000 Ang^3
#
#
#
# Elastic Constant Matrix: (Units=GPa)
#
#
# Indices 1 2 3 4 5 6 
#
# 1 142.0059 52.8332 43.7055 0.0000 0.0000 0.0000
# 2 52.8332 112.9698 42.5751 0.0000 0.0000 0.0000
# 3 43.7055 42.5751 73.2336 0.0000 0.0000 0.0000
# 4 0.0000 0.0000 0.0000 -10.3876 0.0000 0.0000
# 5 0.0000 0.0000 0.0000 0.0000 20.3296 0.0000
# 6 0.0000 0.0000 0.0000 0.0000 0.0000 18.3082
#
#
#
# Elastic Compliance Matrix: (Units=1/GPa)
#
#
# Indices 1 2 3 4 5 6 
#
# 1 0.009311 -0.002895 -0.003874 0.000000 0.000000 0.000000
# 2 -0.002895 0.012235 -0.005386 0.000000 0.000000 0.000000
# 3 -0.003874 -0.005386 0.019098 0.000000 0.000000 0.000000
# 4 0.000000 0.000000 0.000000 -0.096269 0.000000 0.000000
# 5 0.000000 0.000000 0.000000 0.000000 0.049189 0.000000
# 6 0.000000 0.000000 0.000000 0.000000 0.000000 0.054620
#
#
# Mechanical properties :
#
#
# Convention : Reuss Voigt Hill
#
# Bulk Modulus (GPa) = 61.21505 67.38191 64.29848
# Shear Modulus (GPa) = 64.15243 18.25641 41.20442
#
# Velocity S-wave (km/s) = 5.95105 3.17464 4.76935
# Velocity P-wave (km/s) = 9.00074 7.11587 8.11323
#
# Compressibility (1/GPa) = 0.01633585
#
# Stress axis : x y z
#
# Youngs Moduli (GPa) = 107.39710 81.73028 52.36144
#
# Poissons Ratio (x) = 0.23658 0.20285
# Poissons Ratio (y) = 0.31087 0.28200
# Poissons Ratio (z) = 0.41607 0.44017
#
# Static dielectric constant tensor:
#      x y z
#    x 3.151040 0.000000 0.000000 
#    y 0.000000 2.899630 0.000000 
#    z 0.000000 0.000000 3.529720 
# 
# 
# High freq. dielectric constant tensor:
#      x y z
#    x 1.716490 0.000000 0.000000 
#    y 0.000000 1.664080 0.000000 
#    z 0.000000 0.000000 1.695530 
# 
# From -- ./inp_files/59520.got.cif
#   From: 2010.03.12/outbox.cif.g09.slc.cpg/sg74_30_cif.got.tgz:59520.got - 2010.04.16 15:46:19.
