data_PCOD8301447
_publ_section_title
;
Structure prediction by ZEFSAII (Michael W. Deem and Ramdas Pophale) SiO2 
 PCOD8301447
Probable space group: I M M A
;
_chemical_formula_sum "Si O2"
_cell_formula_units_Z 64
_cell_length_a 18.464989
_cell_length_b 10.234804
_cell_length_c 17.865475
_cell_angle_alpha 90.000000
_cell_angle_beta 90.000000
_cell_angle_gamma 90.000000
_cell_volume 3376.316499
_symmetry_space_group_name_H-M "I M M A"
_symmetry_group_IT_number 74
_symmetry_cell_setting 'orthorhombic'
loop_
_space_group_symop_operation_xyz
x,y,z
-x,1/2-y,z
x,-y,-z
-x,1/2+y,-z
-x,-y,-z
x,1/2+y,-z
-x,y,z
x,1/2-y,z
1/2+x,1/2+y,1/2+z
1/2-x,-y,1/2+z
1/2+x,1/2-y,1/2-z
1/2-x,y,1/2-z
1/2-x,1/2-y,1/2-z
1/2+x,y,1/2-z
1/2-x,1/2+y,1/2+z
1/2+x,-y,1/2+z
loop_
_atom_site_type_symbol
_atom_site_label
_atom_site_fract_x
_atom_site_fract_y
_atom_site_fract_z
Si Si1 0.583162 0.750000 0.093487
Si Si2 0.186604 0.899456 0.147291
Si Si3 0.150776 0.464444 0.695073
Si Si4 0.207770 0.250000 0.481503
Si Si5 0.798187 0.500000 0.000000
Si Si6 0.815409 0.750000 0.689483
O O1 0.500000 0.750000 0.070273
O O2 0.599037 0.881550 0.140985
O O3 0.626808 0.750000 0.015244
O O4 0.185416 0.750000 0.121372
O O5 0.136612 0.916065 0.220138
O O6 0.267148 0.943349 0.169155
O O7 0.156621 0.992164 0.078255
O O8 0.134766 0.620218 0.695793
O O9 0.246923 0.123121 0.512210
O O10 0.216804 0.250000 0.393109
O O11 0.750000 0.750000 0.750000
#
# Coordination Sequence:
#
# PCOD8301447 Si02
#       6
#     8  16  16   8   8   8
#     4  12  24  40  58  74 108 171 219 233 257 322
#     4  11  18  30  56  79 113 143 178 235 301 347
#     4  11  19  35  53  80 108 147 193 238 281 348
#     4  12  20  33  48  76 111 140 193 233 273 339
#     4  12  18  30  51  80 111 146 162 232 300 354
#     4  12  20  32  55  85 110 142 172 237 316 351
#
# _framework density 18.955570000000002
#
# number of rings (size 3 to 8) (size 9 to 14) (size 15 to 20)
#    0.000    0.500   11.250    0.750    0.000    0.000 
#    0.000    6.250    0.000    0.000    0.000    0.875 
#    0.000    0.000    0.000    0.000    0.000    0.000 
#
# Total GULP energy -396488.769625 kJ/mol
# GULP energy per Si atom -12390.274051 kJ/mol
# Density = 1.891243 g / cm^3
# Si number density = 18.955570 Si / 1000 Ang^3
#
#
#
# Elastic Constant Matrix: (Units=GPa)
#
#
# Indices 1 2 3 4 5 6 
#
# 1 27.7651 13.1324 7.5451 0.0000 0.0000 0.0000
# 2 13.1324 150.6264 21.9184 0.0000 0.0000 0.0000
# 3 7.5451 21.9184 144.2319 0.0000 0.0000 0.0000
# 4 0.0000 0.0000 0.0000 35.6554 0.0000 0.0000
# 5 0.0000 0.0000 0.0000 0.0000 13.4429 0.0000
# 6 0.0000 0.0000 0.0000 0.0000 0.0000 7.9354
#
#
#
# Elastic Compliance Matrix: (Units=1/GPa)
#
#
# Indices 1 2 3 4 5 6 
#
# 1 0.037886 -0.003083 -0.001513 0.000000 0.000000 0.000000
# 2 -0.003083 0.007040 -0.000909 0.000000 0.000000 0.000000
# 3 -0.001513 -0.000909 0.007151 0.000000 0.000000 0.000000
# 4 0.000000 0.000000 0.000000 0.028046 0.000000 0.000000
# 5 0.000000 0.000000 0.000000 0.000000 0.074388 0.000000
# 6 0.000000 0.000000 0.000000 0.000000 0.000000 0.126018
#
#
# Mechanical properties :
#
#
# Convention : Reuss Voigt Hill
#
# Bulk Modulus (GPa) = 24.35063 45.31278 34.83171
# Shear Modulus (GPa) = 16.38124 30.07526 23.22825
#
# Velocity S-wave (km/s) = 2.94290 3.98756 3.50438
# Velocity P-wave (km/s) = 4.94182 6.71993 5.89827
#
# Compressibility (1/GPa) = 0.04106669
#
# Stress axis : x y z
#
# Youngs Moduli (GPa) = 26.39505 142.04680 139.85001
#
# Poissons Ratio (x) = 0.43791 0.21165
# Poissons Ratio (y) = 0.08137 0.12706
# Poissons Ratio (z) = 0.03995 0.12906
#
# Static dielectric constant tensor:
#      x y z
#    x 2.649340 0.000000 0.000000 
#    y 0.000000 3.648620 0.000000 
#    z 0.000000 0.000000 4.097090 
# 
# 
# High freq. dielectric constant tensor:
#      x y z
#    x 1.628550 0.000000 0.000000 
#    y 0.000000 1.761310 0.000000 
#    z 0.000000 0.000000 1.773850 
# 
# From -- ./inp_files/44967.got.cif
#   From: 2010.03.12/outbox.cif.g09.slc.cpg/sg74_23_cif.got.tgz:44967.got - 2010.04.16 15:46:19.
