data_PCOD8301582
_publ_section_title
;
Structure prediction by ZEFSAII (Michael W. Deem and Ramdas Pophale) SiO2 
 PCOD8301582
Probable space group: I M M A
;
_chemical_formula_sum "Si O2"
_cell_formula_units_Z 72
_cell_length_a 8.519089
_cell_length_b 22.659553
_cell_length_c 19.083771
_cell_angle_alpha 90.000000
_cell_angle_beta 90.000000
_cell_angle_gamma 90.000000
_cell_volume 3683.907274
_symmetry_space_group_name_H-M "I M M A"
_symmetry_group_IT_number 74
_symmetry_cell_setting 'orthorhombic'
loop_
_space_group_symop_operation_xyz
x,y,z
-x,1/2-y,z
x,-y,-z
-x,1/2+y,-z
-x,-y,-z
x,1/2+y,-z
-x,y,z
x,1/2-y,z
1/2+x,1/2+y,1/2+z
1/2-x,-y,1/2+z
1/2+x,1/2-y,1/2-z
1/2-x,y,1/2-z
1/2-x,1/2-y,1/2-z
1/2+x,y,1/2-z
1/2-x,1/2+y,1/2+z
1/2+x,-y,1/2+z
loop_
_atom_site_type_symbol
_atom_site_label
_atom_site_fract_x
_atom_site_fract_y
_atom_site_fract_z
Si Si1 0.186762 0.420519 0.827768
Si Si2 0.315146 0.351191 0.422487
Si Si3 0.815862 0.750000 0.672696
Si Si4 0.315069 0.978050 0.923801
Si Si5 0.186199 0.684532 0.074853
O O1 0.250000 0.416878 0.750000
O O2 0.266004 0.475548 0.865359
O O3 0.244663 0.360975 0.866391
O O4 0.000000 0.427457 0.829556
O O5 0.500000 0.342120 0.419633
O O6 0.239008 0.308799 0.365902
O O7 0.271759 0.417912 0.404059
O O8 0.247643 0.335206 0.499325
O O9 0.750000 0.750000 0.750000
O O10 0.000000 0.750000 0.676676
O O11 0.500000 0.967604 0.922570
O O12 0.257821 0.000000 0.000000
O O13 0.249951 0.750000 0.093252
O O14 0.000000 0.684660 0.071663
#
# Coordination Sequence:
#
# PCOD8301582 Si02
#       5
#    16  16   8  16  16
#     4  11  23  40  62  90 126 166 207 255 312 370
#     4  11  21  39  67  95 123 162 209 255 309 373
#     4  12  26  44  64  94 131 166 205 256 315 369
#     4  11  23  39  62  93 127 161 207 261 313 371
#     4   9  18  35  62  92 121 158 205 249 300 366
#
# _framework density 19.544466
#
# number of rings (size 3 to 8) (size 9 to 14) (size 15 to 20)
#    0.000    1.333    3.333    3.000    0.000    2.222 
#    0.000    4.444    0.000    0.000    0.000    0.000 
#    0.000    0.000    0.000    0.000    0.000    0.000 
#
# Total GULP energy -446553.380246 kJ/mol
# GULP energy per Si atom -12404.260562 kJ/mol
# Density = 1.949998 g / cm^3
# Si number density = 19.544466 Si / 1000 Ang^3
#
#
#
# Elastic Constant Matrix: (Units=GPa)
#
#
# Indices 1 2 3 4 5 6 
#
# 1 72.8044 23.2264 34.2662 0.0000 0.0000 0.0000
# 2 23.2264 166.3693 79.6224 0.0000 0.0000 0.0000
# 3 34.2662 79.6224 172.9919 0.0001 0.0000 0.0000
# 4 0.0000 0.0000 0.0001 30.4959 0.0000 0.0000
# 5 0.0000 0.0000 0.0000 0.0000 25.6995 0.0000
# 6 0.0000 0.0000 0.0000 0.0000 0.0000 18.7717
#
#
#
# Elastic Compliance Matrix: (Units=1/GPa)
#
#
# Indices 1 2 3 4 5 6 
#
# 1 0.015247 -0.000876 -0.002617 0.000000 0.000000 0.000000
# 2 -0.000876 0.007759 -0.003398 0.000000 0.000000 0.000000
# 3 -0.002617 -0.003398 0.007863 0.000000 0.000000 0.000000
# 4 0.000000 0.000000 0.000000 0.032791 0.000000 0.000000
# 5 0.000000 0.000000 0.000000 0.000000 0.038911 0.000000
# 6 0.000000 0.000000 0.000000 0.000000 0.000000 0.053272
#
#
# Mechanical properties :
#
#
# Convention : Reuss Voigt Hill
#
# Bulk Modulus (GPa) = 58.52337 76.26618 67.39477
# Shear Modulus (GPa) = 28.51928 33.33010 30.92469
#
# Velocity S-wave (km/s) = 3.82409 4.13407 3.98210
# Velocity P-wave (km/s) = 7.03612 7.86727 7.46327
#
# Compressibility (1/GPa) = 0.01708719
#
# Stress axis : x y z
#
# Youngs Moduli (GPa) = 65.58854 128.87992 127.18103
#
# Poissons Ratio (x) = 0.11292 0.33280
# Poissons Ratio (y) = 0.05747 0.43213
# Poissons Ratio (z) = 0.17163 0.43790
#
# Static dielectric constant tensor:
#      x y z
#    x 3.472320 0.000000 0.000000 
#    y 0.000000 2.685490 0.000000 
#    z 0.000000 0.000000 3.620660 
# 
# 
# High freq. dielectric constant tensor:
#      x y z
#    x 1.753550 0.000000 0.000000 
#    y 0.000000 1.780840 0.000000 
#    z 0.000000 0.000000 1.763930 
# 
# From -- ./inp_files/39469.got.cif
#   From: 2010.03.12/outbox.cif.g09.slc.cpg/sg74_20_cif.got.tgz:39469.got - 2010.04.16 15:46:19.
