data_PCOD8302236
_publ_section_title
;
Structure prediction by ZEFSAII (Michael W. Deem and Ramdas Pophale) SiO2 
 PCOD8302236
Probable space group: I 41
;
_chemical_formula_sum "Si O2"
_cell_formula_units_Z 36
_cell_length_a 8.734737
_cell_length_b 8.734737
_cell_length_c 19.460966
_cell_angle_alpha 90.000000
_cell_angle_beta 90.000000
_cell_angle_gamma 90.000000
_cell_volume 1484.786670
_symmetry_space_group_name_H-M "I 41"
_symmetry_group_IT_number 80
_symmetry_cell_setting 'tetragonal'
loop_
_space_group_symop_operation_xyz
x,y,z
-y,1/2+x,1/4+z
-x,-y,z
y,1/2-x,1/4+z
1/2+x,1/2+y,1/2+z
1/2-y,x,3/4+z
1/2-x,1/2-y,1/2+z
1/2+y,-x,3/4+z
loop_
_atom_site_type_symbol
_atom_site_label
_atom_site_fract_x
_atom_site_fract_y
_atom_site_fract_z
Si Si1 0.249972 0.203785 0.204610
Si Si2 0.234149 0.798289 0.839289
Si Si3 0.828849 0.038018 0.705138
Si Si4 0.500000 0.500000 0.636506
Si Si5 0.034993 0.330559 0.580517
O O1 0.229524 0.384634 0.209474
O O2 0.268093 0.150644 0.283452
O O3 0.398161 0.161959 0.158167
O O4 0.094261 0.125708 0.178726
O O5 0.140795 0.885448 0.779667
O O6 0.144949 0.786907 0.911577
O O7 0.242708 0.621742 0.820388
O O8 0.402411 0.875822 0.843605
O O9 0.000000 0.000000 0.674540
O O10 0.000000 0.500000 0.553542
#
# Coordination Sequence:
#
# PCOD8302236 Si02
#       5
#     8   8   8   4   8
#     4  12  27  49  80 116 157 207 268 326 401 470
#     4  12  29  50  79 116 159 210 271 325 408 471
#     4  12  30  51  79 120 160 212 264 340 400 480
#     4  12  26  50  80 116 158 210 264 336 390 492
#     4  12  26  50  82 114 157 213 266 326 394 489
#
# _framework density 24.245906000000002
#
# number of rings (size 3 to 8) (size 9 to 14) (size 15 to 20)
#    0.000    0.000    5.556    2.667    6.222    0.000 
#    0.000    0.000    0.000    0.000    0.000    0.000 
#    0.000    0.000    0.000    0.000    0.000    0.000 
#
# Total GULP energy -223100.255001 kJ/mol
# GULP energy per Si atom -12394.458611 kJ/mol
# Density = 2.419072 g / cm^3
# Si number density = 24.245906 Si / 1000 Ang^3
#
#
#
# Elastic Constant Matrix: (Units=GPa)
#
#
# Indices 1 2 3 4 5 6 
#
# 1 137.3497 46.2249 50.1450 0.0000 0.0000 -6.2297
# 2 46.2249 137.3497 50.1450 0.0000 0.0000 6.2297
# 3 50.1450 50.1450 121.9446 0.0000 0.0000 0.0000
# 4 0.0000 0.0000 0.0000 30.8512 0.0000 0.0000
# 5 0.0000 0.0000 0.0000 0.0000 30.8512 0.0000
# 6 -6.2297 6.2297 0.0000 0.0000 0.0000 47.0308
#
#
#
# Elastic Compliance Matrix: (Units=1/GPa)
#
#
# Indices 1 2 3 4 5 6 
#
# 1 0.009101 -0.002075 -0.002889 0.000000 0.000000 0.001480
# 2 -0.002075 0.009101 -0.002889 0.000000 0.000000 -0.001480
# 3 -0.002889 -0.002889 0.010576 0.000000 0.000000 0.000000
# 4 0.000000 0.000000 0.000000 0.032414 0.000000 0.000000
# 5 0.000000 0.000000 0.000000 0.000000 0.032414 0.000000
# 6 0.001480 -0.001480 0.000000 0.000000 0.000000 0.021655
#
#
# Mechanical properties :
#
#
# Convention : Reuss Voigt Hill
#
# Bulk Modulus (GPa) = 76.50124 76.63044 76.56584
# Shear Modulus (GPa) = 36.94816 38.42193 37.68504
#
# Velocity S-wave (km/s) = 3.90794 3.98512 3.94672
# Velocity P-wave (km/s) = 7.20995 7.26973 7.23990
#
# Compressibility (1/GPa) = 0.01307168
#
# Stress axis : x y z
#
# Youngs Moduli (GPa) = 109.87743 109.87743 94.54946
#
# Poissons Ratio (x) = 0.22803 0.27316
# Poissons Ratio (y) = 0.22803 0.27316
# Poissons Ratio (z) = 0.31744 0.31744
#
# Static dielectric constant tensor:
#      x y z
#    x 4.700290 0.000000 0.000000 
#    y 0.000000 4.700290 0.000000 
#    z 0.000000 0.000000 4.330630 
# 
# 
# High freq. dielectric constant tensor:
#      x y z
#    x 1.971500 0.000000 0.000000 
#    y 0.000000 1.971500 0.000000 
#    z 0.000000 0.000000 1.956830 
# 
# From -- ./inp_files/1725.got.cif
#   From: 2010.03.12/outbox.cif.g09.slc.cpg/sg80_cif.got.tgz:1725.got - 2010.04.08 20:00:04.
