data_PCOD8302784
_publ_section_title
;
Structure prediction by ZEFSAII (Michael W. Deem and Ramdas Pophale) SiO2 
 PCOD8302784
Probable space group: P 4/M
;
_chemical_formula_sum "Si O2"
_cell_formula_units_Z 36
_cell_length_a 15.389256
_cell_length_b 15.389256
_cell_length_c 7.574463
_cell_angle_alpha 90.000000
_cell_angle_beta 90.000000
_cell_angle_gamma 90.000000
_cell_volume 1793.854014
_symmetry_space_group_name_H-M "P 4/M"
_symmetry_group_IT_number 83
_symmetry_cell_setting 'tetragonal'
loop_
_space_group_symop_operation_xyz
x,y,z
-y,x,z
-x,-y,z
y,-x,z
-x,-y,-z
y,-x,-z
x,y,-z
-y,x,-z
loop_
_atom_site_type_symbol
_atom_site_label
_atom_site_fract_x
_atom_site_fract_y
_atom_site_fract_z
Si Si1 0.754870 0.632070 0.299216
Si Si2 0.630336 0.563183 0.000000
Si Si3 0.991875 0.250576 0.709447
Si Si4 0.826672 0.814449 0.708229
Si Si5 0.570916 0.063475 0.800552
O O1 0.718917 0.633980 0.500000
O O2 0.683451 0.587590 0.175805
O O3 0.775320 0.728912 0.223526
O O4 0.845582 0.578761 0.302963
O O5 0.539948 0.615026 0.000000
O O6 0.987426 0.263508 0.500000
O O7 0.902400 0.212905 0.788998
O O8 0.071857 0.187568 0.761270
O O9 0.008253 0.341482 0.801703
O O10 0.817280 0.815312 0.500000
O O11 0.500000 0.000000 0.710713
O O12 0.543414 0.086483 0.000000
#
# Coordination Sequence:
#
# PCOD8302784 Si02
#       5
#     8   4   8   8   8
#     4  10  21  41  65  89 120 159 199 243 299 356
#     4  11  26  46  65  90 122 153 193 246 302 360
#     4   9  17  31  50  77 114 155 199 242 290 348
#     4   8  16  31  53  82 115 155 199 239 286 343
#     4  10  20  35  55  85 119 151 196 247 301 355
#
# _framework density 20.068524
#
# number of rings (size 3 to 8) (size 9 to 14) (size 15 to 20)
#    0.000    2.556    1.111    2.000    0.000    4.889 
#    2.000    5.556    0.000    0.000    0.000    3.111 
#    0.000    0.000    0.000    0.000    0.000    0.000 
#
# Total GULP energy -446246.306444 kJ/mol
# GULP energy per Si atom -12395.730735 kJ/mol
# Density = 2.002285 g / cm^3
# Si number density = 20.068524 Si / 1000 Ang^3
#
#
#
# Elastic Constant Matrix: (Units=GPa)
#
#
# Indices 1 2 3 4 5 6 
#
# 1 125.3746 85.6171 31.4065 0.0000 0.0000 16.1929
# 2 85.6171 125.3746 31.4065 0.0000 0.0000 -16.1929
# 3 31.4065 31.4065 70.8656 0.0000 0.0000 0.0000
# 4 0.0000 0.0000 0.0000 6.7258 0.0000 0.0000
# 5 0.0000 0.0000 0.0000 0.0000 6.7258 0.0000
# 6 16.1929 -16.1929 0.0000 0.0000 0.0000 36.1755
#
#
#
# Elastic Compliance Matrix: (Units=1/GPa)
#
#
# Indices 1 2 3 4 5 6 
#
# 1 0.022523 -0.017063 -0.002420 0.000000 0.000000 -0.017720
# 2 -0.017063 0.022523 -0.002420 0.000000 0.000000 0.017720
# 3 -0.002420 -0.002420 0.016256 0.000000 0.000000 0.000000
# 4 0.000000 0.000000 0.000000 0.148682 0.000000 0.000000
# 5 0.000000 0.000000 0.000000 0.000000 0.148682 0.000000
# 6 -0.017720 0.017720 0.000000 0.000000 0.000000 0.043506
#
#
# Mechanical properties :
#
#
# Convention : Reuss Voigt Hill
#
# Bulk Modulus (GPa) = 57.15323 68.71946 62.93635
# Shear Modulus (GPa) = 11.06657 21.47106 16.26881
#
# Velocity S-wave (km/s) = 2.35082 3.27446 2.85030
# Velocity P-wave (km/s) = 5.99244 6.97229 6.50085
#
# Compressibility (1/GPa) = 0.01749682
#
# Stress axis : x y z
#
# Youngs Moduli (GPa) = 44.39849 44.39849 61.51578
#
# Poissons Ratio (x) = 0.75759 0.14885
# Poissons Ratio (y) = 0.75759 0.14885
# Poissons Ratio (z) = 0.10743 0.10743
#
# Static dielectric constant tensor:
#      x y z
#    x 3.815890 0.000000 0.000000 
#    y 0.000000 3.815890 0.000000 
#    z 0.000000 0.000000 3.384340 
# 
# 
# High freq. dielectric constant tensor:
#      x y z
#    x 1.778470 0.000000 0.000000 
#    y 0.000000 1.778470 0.000000 
#    z 0.000000 0.000000 1.774890 
# 
# From -- ./inp_files/502.got.cif
#   From: 2010.03.12/outbox.cif.g09.slc.cpg/sg83_1_cif.got.tgz:502.got - 2010.04.08 20:05:18.
