data_PCOD8302109
_publ_section_title
;
Structure prediction by ZEFSAII (Michael W. Deem and Ramdas Pophale) SiO2 
 PCOD8302109
Probable space group: I 4
;
_chemical_formula_sum "Si O2"
_cell_formula_units_Z 48
_cell_length_a 8.244008
_cell_length_b 8.244008
_cell_length_c 32.793204
_cell_angle_alpha 90.000000
_cell_angle_beta 90.000000
_cell_angle_gamma 90.000000
_cell_volume 2228.746426
_symmetry_space_group_name_H-M "I 4"
_symmetry_group_IT_number 79
_symmetry_cell_setting 'tetragonal'
loop_
_space_group_symop_operation_xyz
x,y,z
-y,x,z
-x,-y,z
y,-x,z
1/2+x,1/2+y,1/2+z
1/2-y,1/2+x,1/2+z
1/2-x,1/2-y,1/2+z
1/2+y,1/2-x,1/2+z
loop_
_atom_site_type_symbol
_atom_site_label
_atom_site_fract_x
_atom_site_fract_y
_atom_site_fract_z
Si Si1 0.580266 0.243255 0.567090
Si Si2 0.971809 0.263634 0.841264
Si Si3 0.500000 0.000000 0.269129
Si Si4 0.049616 0.260741 0.197800
Si Si5 0.750954 0.090726 0.495271
Si Si6 0.744500 0.076294 0.402165
Si Si7 0.500000 0.000000 0.631257
O O1 0.700918 0.394351 0.571335
O O2 0.605447 0.153203 0.523910
O O3 0.615535 0.112268 0.602826
O O4 0.999104 0.340372 0.796906
O O5 0.915436 0.397735 0.874367
O O6 0.139775 0.175404 0.847960
O O7 0.342694 0.964078 0.241913
O O8 0.872089 0.186790 0.192786
O O9 0.100086 0.384741 0.161955
O O10 0.691024 0.104158 0.448846
O O11 0.905519 0.203781 0.504500
O O12 0.893559 0.197960 0.392956
#
# Coordination Sequence:
#
# PCOD8302109 Si02
#       7
#     8   8   4   8   8   8   4
#     4  11  23  38  59  88 121 159 203 249 298 356
#     4  11  23  37  56  86 123 160 201 251 303 355
#     4  11  22  40  63  88 120 156 191 236 296 359
#     4  10  22  41  66  92 116 147 190 238 291 358
#     4   9  19  37  60  87 120 159 205 257 308 355
#     4   9  19  37  60  85 117 161 211 257 302 355
#     4  11  22  38  61  86 118 150 183 234 292 345
#
# _framework density 21.536770000000001
#
# number of rings (size 3 to 8) (size 9 to 14) (size 15 to 20)
#    0.000    1.833    0.000    5.000    0.000    2.667 
#    0.000    7.500    0.000   18.500    0.000    0.000 
#    0.000    0.000    0.000    0.000    0.000    0.000 
#
# Total GULP energy -297378.953535 kJ/mol
# GULP energy per Si atom -12390.789731 kJ/mol
# Density = 2.148775 g / cm^3
# Si number density = 21.536770 Si / 1000 Ang^3
#
#
#
# Elastic Constant Matrix: (Units=GPa)
#
#
# Indices 1 2 3 4 5 6 
#
# 1 90.5437 34.7939 50.9359 0.0000 0.0000 -8.7969
# 2 34.7939 90.5437 50.9359 0.0000 0.0000 8.7969
# 3 50.9359 50.9359 146.1599 0.0000 0.0000 0.0000
# 4 0.0000 0.0000 0.0000 30.6931 0.0000 0.0000
# 5 0.0000 0.0000 0.0000 0.0000 30.6931 0.0000
# 6 -8.7969 8.7969 0.0000 0.0000 0.0000 29.8025
#
#
#
# Elastic Compliance Matrix: (Units=1/GPa)
#
#
# Indices 1 2 3 4 5 6 
#
# 1 0.015456 -0.004324 -0.003879 0.000000 0.000000 0.005838
# 2 -0.004324 0.015456 -0.003879 0.000000 0.000000 -0.005838
# 3 -0.003879 -0.003879 0.009546 0.000000 0.000000 0.000000
# 4 0.000000 0.000000 0.000000 0.032581 0.000000 0.000000
# 5 0.000000 0.000000 0.000000 0.000000 0.032581 0.000000
# 6 0.005838 -0.005838 0.000000 0.000000 0.000000 0.037001
#
#
# Mechanical properties :
#
#
# Convention : Reuss Voigt Hill
#
# Bulk Modulus (GPa) = 61.38171 66.73097 64.05634
# Shear Modulus (GPa) = 29.03348 30.94317 29.98833
#
# Velocity S-wave (km/s) = 3.67562 3.79457 3.73557
# Velocity P-wave (km/s) = 6.82468 7.08875 6.95797
#
# Compressibility (1/GPa) = 0.01629150
#
# Stress axis : x y z
#
# Youngs Moduli (GPa) = 64.70139 64.70135 104.76025
#
# Poissons Ratio (x) = 0.27978 0.40639
# Poissons Ratio (y) = 0.27978 0.40639
# Poissons Ratio (z) = 0.25099 0.25099
#
# Static dielectric constant tensor:
#      x y z
#    x 3.885310 0.000000 0.000000 
#    y 0.000000 3.885310 0.000000 
#    z 0.000000 0.000000 3.914060 
# 
# 
# High freq. dielectric constant tensor:
#      x y z
#    x 1.848480 0.000000 0.000000 
#    y 0.000000 1.848480 0.000000 
#    z 0.000000 0.000000 1.852700 
# 
# From -- ./inp_files/2160.got.cif
#   From: 2010.03.12/outbox.cif.g09.slc.cpg/sg79_cif.got.tgz:2160.got - 2010.04.16 16:38:49.
