data_PCOD8302275
_publ_section_title
;
Structure prediction by ZEFSAII (Michael W. Deem and Ramdas Pophale) SiO2 
 PCOD8302275
Probable space group: P -4
;
_chemical_formula_sum "Si O2"
_cell_formula_units_Z 25
_cell_length_a 11.858944
_cell_length_b 11.858944
_cell_length_c 9.427064
_cell_angle_alpha 90.000000
_cell_angle_beta 90.000000
_cell_angle_gamma 90.000000
_cell_volume 1325.770930
_symmetry_space_group_name_H-M "P -4"
_symmetry_group_IT_number 81
_symmetry_cell_setting 'tetragonal'
loop_
_space_group_symop_operation_xyz
x,y,z
y,-x,-z
-x,-y,z
-y,x,-z
loop_
_atom_site_type_symbol
_atom_site_label
_atom_site_fract_x
_atom_site_fract_y
_atom_site_fract_z
Si Si1 0.097862 0.698849 0.095627
Si Si2 0.725869 0.115676 0.084587
Si Si3 0.514534 0.751598 0.401021
Si Si4 0.485378 0.132244 0.121052
Si Si5 0.118910 0.696570 0.426562
Si Si6 0.110279 0.285466 0.595309
Si Si7 0.500000 0.500000 0.500000
O O1 0.174435 0.801718 0.050087
O O2 0.097492 0.674659 0.261326
O O3 0.145693 0.589563 0.017475
O O4 0.975893 0.731078 0.038460
O O5 0.606988 0.181737 0.077088
O O6 0.734799 0.065522 0.244482
O O7 0.564902 0.793605 0.250019
O O8 0.596388 0.799713 0.522150
O O9 0.391235 0.805686 0.418191
O O10 0.508606 0.614749 0.406047
O O11 0.500000 0.000000 0.166883
O O12 0.176791 0.817818 0.454200
O O13 0.997795 0.695337 0.499204
#
# Coordination Sequence:
#
# PCOD8302275 Si02
#       7
#     4   4   4   4   4   4   1
#     4  10  21  37  57  85 114 148 197 238 282 346
#     4   9  20  38  55  78 117 151 188 235 291 346
#     4  11  21  41  61  85 119 155 196 239 303 351
#     4   9  19  39  62  79 112 159 191 230 294 357
#     4  11  22  37  61  90 119 152 201 249 285 354
#     4  10  22  39  59  85 121 158 191 242 302 347
#     4  12  24  40  64  94 120 152 196 250 288 360
#
# _framework density 18.856953000000001
#
# number of rings (size 3 to 8) (size 9 to 14) (size 15 to 20)
#    0.000    1.920    1.600    3.360    0.000    7.040 
#    2.880    3.200    0.000    0.960    0.000    0.000 
#    0.000    0.000    0.000    0.000    0.000    0.000 
#
# Total GULP energy -309893.617173 kJ/mol
# GULP energy per Si atom -12395.744687 kJ/mol
# Density = 1.881403 g / cm^3
# Si number density = 18.856953 Si / 1000 Ang^3
#
#
#
# Elastic Constant Matrix: (Units=GPa)
#
#
# Indices 1 2 3 4 5 6 
#
# 1 84.3370 47.5142 63.0352 0.0000 0.0000 -15.3445
# 2 47.5142 84.3370 63.0352 0.0000 0.0000 15.3445
# 3 63.0352 63.0352 105.2643 0.0000 0.0000 0.0000
# 4 0.0000 0.0000 0.0000 22.6060 0.0000 0.0000
# 5 0.0000 0.0000 0.0000 0.0000 22.6060 0.0000
# 6 -15.3445 15.3445 0.0000 0.0000 0.0000 -10.5083
#
#
#
# Elastic Compliance Matrix: (Units=1/GPa)
#
#
# Indices 1 2 3 4 5 6 
#
# 1 0.014997 0.002747 -0.010626 0.000000 0.000000 -0.017887
# 2 0.002747 0.014997 -0.010626 0.000000 0.000000 0.017887
# 3 -0.010626 -0.010626 0.022226 0.000000 0.000000 0.000000
# 4 0.000000 0.000000 0.000000 0.044236 0.000000 0.000000
# 5 0.000000 0.000000 0.000000 0.000000 0.044236 0.000000
# 6 -0.017887 0.017887 0.000000 0.000000 0.000000 -0.042924
#
#
# Mechanical properties :
#
#
# Convention : Reuss Voigt Hill
#
# Bulk Modulus (GPa) = 65.74041 69.01191 67.37616
# Shear Modulus (GPa) = 35.75371 13.63100 24.69235
#
# Velocity S-wave (km/s) = 4.35909 2.69153 3.62257
# Velocity P-wave (km/s) = 7.76363 6.80707 7.30103
#
# Compressibility (1/GPa) = 0.01521134
#
# Stress axis : x y z
#
# Youngs Moduli (GPa) = 66.68080 66.68080 44.99281
#
# Poissons Ratio (x) = -0.18319 0.47808
# Poissons Ratio (y) = -0.18319 0.47808
# Poissons Ratio (z) = 0.70853 0.70853
#
# Static dielectric constant tensor:
#      x y z
#    x 3.561190 0.000000 0.000000 
#    y 0.000000 3.561190 0.000000 
#    z 0.000000 0.000000 3.791550 
# 
# 
# High freq. dielectric constant tensor:
#      x y z
#    x 1.734950 0.000000 0.000000 
#    y 0.000000 1.734950 0.000000 
#    z 0.000000 0.000000 1.732040 
# 
# From -- ./inp_files/886.got.cif
#   From: 2010.03.12/outbox.cif.g09.slc.cpg/sg81_cif.got.tgz:886.got - 2010.04.08 20:01:38.
