data_PCOD8302908
_publ_section_title
;
Structure prediction by ZEFSAII (Michael W. Deem and Ramdas Pophale) SiO2 
 PCOD8302908
Probable space group: P 4/M
;
_chemical_formula_sum "Si O2"
_cell_formula_units_Z 60
_cell_length_a 10.973818
_cell_length_b 10.973818
_cell_length_c 22.930204
_cell_angle_alpha 90.000000
_cell_angle_beta 90.000000
_cell_angle_gamma 90.000000
_cell_volume 2761.362513
_symmetry_space_group_name_H-M "P 4/M"
_symmetry_group_IT_number 83
_symmetry_cell_setting 'tetragonal'
loop_
_space_group_symop_operation_xyz
x,y,z
-y,x,z
-x,-y,z
y,-x,z
-x,-y,-z
y,-x,-z
x,y,-z
-y,x,-z
loop_
_atom_site_type_symbol
_atom_site_label
_atom_site_fract_x
_atom_site_fract_y
_atom_site_fract_z
Si Si1 0.836059 0.113961 0.566510
Si Si2 0.669433 0.395667 0.061983
Si Si3 0.324976 0.894474 0.880516
Si Si4 0.145268 0.528653 0.712736
Si Si5 0.183484 0.910286 0.000000
Si Si6 0.164827 0.892882 0.778552
Si Si7 0.769407 0.727032 0.673150
Si Si8 0.850301 0.407177 0.848301
O O1 0.797891 0.139838 0.500000
O O2 0.737943 0.182300 0.607054
O O3 0.970129 0.166590 0.579171
O O4 0.663839 0.539328 0.064951
O O5 0.736865 0.340592 0.118932
O O6 0.732702 0.358364 0.000000
O O7 0.251219 0.829526 0.826881
O O8 0.464647 0.854820 0.882571
O O9 0.323285 0.035846 0.862317
O O10 0.260981 0.872199 0.942781
O O11 0.202957 0.639902 0.676227
O O12 0.229434 0.414035 0.693948
O O13 0.165571 0.567298 0.779838
O O14 0.000000 0.500000 0.701510
O O15 0.055343 0.839630 0.000000
O O16 0.206463 0.868059 0.713252
O O17 0.035419 0.833418 0.788435
#
# Coordination Sequence:
#
# PCOD8302908 Si02
#       8
#     8   8   8   8   4   8   8   8
#     4   9  18  36  66 107 148 184 232 291 346 402
#     4   9  21  39  57  80 106 139 194 258 316 384
#     4  11  23  40  58  81 117 158 195 262 342 408
#     4  12  25  45  65  99 136 176 234 295 338 419
#     4  11  26  43  58  84 118 153 206 275 350 444
#     4  11  21  36  62  91 117 157 215 272 338 409
#     4  12  24  41  68  95 139 187 226 279 346 397
#     4  11  23  39  60  83 119 154 208 262 336 400
#
# _framework density 21.728404000000001
#
# number of rings (size 3 to 8) (size 9 to 14) (size 15 to 20)
#    0.000    1.267    2.667    4.800    3.733    5.067 
#    0.000    0.667    0.000    2.400    0.000    0.933 
#    0.000    0.000    0.000    0.000    0.000    0.000 
#
# Total GULP energy -743540.033045 kJ/mol
# GULP energy per Si atom -12392.333884 kJ/mol
# Density = 2.167895 g / cm^3
# Si number density = 21.728404 Si / 1000 Ang^3
#
#
#
# Elastic Constant Matrix: (Units=GPa)
#
#
# Indices 1 2 3 4 5 6 
#
# 1 79.7811 -13.1934 37.8331 0.0000 0.0000 16.4316
# 2 -13.1934 79.7811 37.8331 0.0000 0.0000 -16.4316
# 3 37.8331 37.8331 142.1737 0.0000 0.0000 0.0000
# 4 0.0000 0.0000 0.0000 25.6471 0.0000 0.0000
# 5 0.0000 0.0000 0.0000 0.0000 25.6471 0.0000
# 6 16.4316 -16.4316 0.0000 0.0000 0.0000 7.8574
#
#
#
# Elastic Compliance Matrix: (Units=1/GPa)
#
#
# Indices 1 2 3 4 5 6 
#
# 1 0.031382 -0.009855 -0.005729 0.000000 0.000000 -0.086234
# 2 -0.009855 0.031382 -0.005729 0.000000 0.000000 0.086234
# 3 -0.005729 -0.005729 0.010082 0.000000 0.000000 0.000000
# 4 0.000000 0.000000 0.000000 0.038991 0.000000 0.000000
# 5 0.000000 0.000000 0.000000 0.000000 0.038991 0.000000
# 6 -0.086234 0.086234 0.000000 0.000000 0.000000 0.487939
#
#
# Mechanical properties :
#
#
# Convention : Reuss Voigt Hill
#
# Bulk Modulus (GPa) = 33.08739 47.40907 40.24823
# Shear Modulus (GPa) = 7.23103 27.78118 17.50611
#
# Velocity S-wave (km/s) = 1.82624 3.57958 2.84153
# Velocity P-wave (km/s) = 4.43933 6.24106 5.41565
#
# Compressibility (1/GPa) = 0.03022300
#
# Stress axis : x y z
#
# Youngs Moduli (GPa) = 31.86553 31.86553 99.18236
#
# Poissons Ratio (x) = 0.31402 0.56817
# Poissons Ratio (y) = 0.31402 0.56817
# Poissons Ratio (z) = 0.18254 0.18254
#
# Static dielectric constant tensor:
#      x y z
#    x 4.203640 0.000000 0.000000 
#    y 0.000000 4.203640 0.000000 
#    z 0.000000 0.000000 3.883400 
# 
# 
# High freq. dielectric constant tensor:
#      x y z
#    x 1.864300 0.000000 0.000000 
#    y 0.000000 1.864300 0.000000 
#    z 0.000000 0.000000 1.843300 
# 
# From -- ./inp_files/3051.got.cif
#   From: 2010.03.12/outbox.cif.g09.slc.cpg/sg83_2_cif.got.tgz:3051.got - 2010.04.08 20:05:18.
