data_PCOD8302716
_publ_section_title
;
Structure prediction by ZEFSAII (Michael W. Deem and Ramdas Pophale) SiO2 
 PCOD8302716
Probable space group: P 4/M
;
_chemical_formula_sum "Si O2"
_cell_formula_units_Z 58
_cell_length_a 17.770283
_cell_length_b 17.770283
_cell_length_c 9.171679
_cell_angle_alpha 90.000000
_cell_angle_beta 90.000000
_cell_angle_gamma 90.000000
_cell_volume 2896.259924
_symmetry_space_group_name_H-M "P 4/M"
_symmetry_group_IT_number 83
_symmetry_cell_setting 'tetragonal'
loop_
_space_group_symop_operation_xyz
x,y,z
-y,x,z
-x,-y,z
y,-x,z
-x,-y,-z
y,-x,-z
x,y,-z
-y,x,-z
loop_
_atom_site_type_symbol
_atom_site_label
_atom_site_fract_x
_atom_site_fract_y
_atom_site_fract_z
Si Si1 0.115969 0.365232 0.168671
Si Si2 0.474629 0.619838 0.332285
Si Si3 0.688902 0.980777 0.331999
Si Si4 0.643271 0.812892 0.667920
Si Si5 0.767372 0.506588 0.828666
Si Si6 0.782887 0.208628 0.167794
Si Si7 0.052287 0.839514 0.829310
Si Si8 0.000000 0.000000 0.256684
O O1 0.166549 0.436027 0.212390
O O2 0.157934 0.287958 0.205730
O O3 0.041903 0.368790 0.267915
O O4 0.092561 0.368608 0.000000
O O5 0.412297 0.557293 0.297949
O O6 0.469718 0.645322 0.500000
O O7 0.457537 0.689877 0.228241
O O8 0.707587 0.997235 0.500000
O O9 0.646521 0.902217 0.311857
O O10 0.766447 0.984587 0.243594
O O11 0.636819 0.789072 0.500000
O O12 0.572291 0.781100 0.752138
O O13 0.718235 0.775944 0.732166
O O14 0.761630 0.494014 0.000000
O O15 0.858239 0.160807 0.202895
O O16 0.783221 0.235030 0.000000
O O17 0.009325 0.910691 0.763620
O O18 0.034096 0.837302 0.000000
#
# Coordination Sequence:
#
# PCOD8302716 Si02
#       8
#     8   8   8   8   8   8   8   2
#     4  10  22  39  59  86 117 149 190 240 292 346
#     4   9  20  40  63  88 122 161 195 230 280 343
#     4  10  22  40  60  81 111 151 197 246 294 348
#     4  10  22  40  60  84 115 153 196 241 291 348
#     4  11  24  38  58  91 123 152 192 241 289 342
#     4   9  19  37  60  84 113 151 194 240 288 342
#     4  10  19  33  56  84 114 152 195 238 288 345
#     4  12  21  32  57  90 121 156 197 238 285 352
#
# _framework density 20.025825999999999
#
# number of rings (size 3 to 8) (size 9 to 14) (size 15 to 20)
#    0.000    2.069    0.000    3.103    1.931    5.517 
#    0.000    7.241    0.000    0.000    0.000    0.000 
#    0.000    0.000    0.000    0.000    0.000    0.000 
#
# Total GULP energy -718553.704890 kJ/mol
# GULP energy per Si atom -12388.856981 kJ/mol
# Density = 1.998025 g / cm^3
# Si number density = 20.025826 Si / 1000 Ang^3
#
#
#
# Elastic Constant Matrix: (Units=GPa)
#
#
# Indices 1 2 3 4 5 6 
#
# 1 44.2493 -1.5175 16.3443 0.0000 0.0000 6.7576
# 2 -1.5175 44.2493 16.3443 0.0000 0.0000 -6.7576
# 3 16.3443 16.3443 54.2007 0.0000 0.0000 0.0000
# 4 0.0000 0.0000 0.0000 18.1993 0.0000 0.0000
# 5 0.0000 0.0000 0.0000 0.0000 18.1993 0.0000
# 6 6.7576 -6.7576 0.0000 0.0000 0.0000 22.6529
#
#
#
# Elastic Compliance Matrix: (Units=1/GPa)
#
#
# Indices 1 2 3 4 5 6 
#
# 1 0.027190 0.003229 -0.009173 0.000000 0.000000 -0.007148
# 2 0.003229 0.027190 -0.009173 0.000000 0.000000 0.007148
# 3 -0.009173 -0.009173 0.023982 0.000000 0.000000 0.000000
# 4 0.000000 0.000000 0.000000 0.054947 0.000000 0.000000
# 5 0.000000 0.000000 0.000000 0.000000 0.054947 0.000000
# 6 -0.007148 0.007148 0.000000 0.000000 0.000000 0.048409
#
#
# Mechanical properties :
#
#
# Convention : Reuss Voigt Hill
#
# Bulk Modulus (GPa) = 20.77780 22.78239 21.78010
# Shear Modulus (GPa) = 17.67153 19.24549 18.45851
#
# Velocity S-wave (km/s) = 2.97381 3.10342 3.03930
# Velocity P-wave (km/s) = 4.71056 4.92370 4.81831
#
# Compressibility (1/GPa) = 0.04812829
#
# Stress axis : x y z
#
# Youngs Moduli (GPa) = 36.77861 36.77861 41.69772
#
# Poissons Ratio (x) = -0.11876 0.38249
# Poissons Ratio (y) = -0.11876 0.38249
# Poissons Ratio (z) = 0.33736 0.33736
#
# Static dielectric constant tensor:
#      x y z
#    x 3.986210 0.000000 0.000000 
#    y 0.000000 3.986210 0.000000 
#    z 0.000000 0.000000 3.572020 
# 
# 
# High freq. dielectric constant tensor:
#      x y z
#    x 1.793020 0.000000 0.000000 
#    y 0.000000 1.793020 0.000000 
#    z 0.000000 0.000000 1.767450 
# 
# From -- ./inp_files/1114.got.cif
#   From: 2010.03.12/outbox.cif.g09.slc.cpg/sg83_1_cif.got.tgz:1114.got - 2010.04.08 20:05:18.
