data_PCOD8302374
_publ_section_title
;
Structure prediction by ZEFSAII (Michael W. Deem and Ramdas Pophale) SiO2 
 PCOD8302374
Probable space group: I -4 
;
_chemical_formula_sum "Si O2"
_cell_formula_units_Z 40
_cell_length_a 8.389715
_cell_length_b 8.389715
_cell_length_c 28.490262
_cell_angle_alpha 90.000000
_cell_angle_beta 90.000000
_cell_angle_gamma 90.000000
_cell_volume 2005.353125
_symmetry_space_group_name_H-M "I -4 "
_symmetry_group_IT_number 82
_symmetry_cell_setting 'tetragonal'
loop_
_space_group_symop_operation_xyz
x,y,z
y,-x,-z
-x,-y,z
-y,x,-z
1/2+x,1/2+y,1/2+z
1/2+y,1/2-x,1/2-z
1/2-x,1/2-y,1/2+z
1/2-y,1/2+x,1/2-z
loop_
_atom_site_type_symbol
_atom_site_label
_atom_site_fract_x
_atom_site_fract_y
_atom_site_fract_z
Si Si1 0.271663 0.908531 0.805716
Si Si2 0.500000 0.500000 0.861325
Si Si3 0.257695 0.772304 0.397260
Si Si4 0.410048 0.260906 0.510049
Si Si5 0.242639 0.617679 0.202868
Si Si6 0.500000 0.000000 0.444330
O O1 0.190363 0.821290 0.849985
O O2 0.450288 0.845708 0.802086
O O3 0.191903 0.858024 0.756091
O O4 0.258136 0.101937 0.811623
O O5 0.599335 0.378310 0.892826
O O6 0.625995 0.601796 0.830084
O O7 0.220611 0.642733 0.437256
O O8 0.403180 0.884270 0.410680
O O9 0.305671 0.403468 0.488388
O O10 0.384222 0.105815 0.477478
#
# Coordination Sequence:
#
# PCOD8302374 Si02
#       6
#     8   4   8   8   8   4
#     4   8  15  31  54  75 102 146 187 215 257 327
#     4  10  20  32  53  86 114 134 175 234 282 316
#     4  10  21  36  56  80 106 144 187 221 270 334
#     4   9  20  39  58  75 104 145 184 221 270 336
#     4   8  15  30  51  78 110 139 178 226 261 310
#     4  10  22  38  54  81 114 133 170 238 286 316
#
# _framework density 19.94661
#
# number of rings (size 3 to 8) (size 9 to 14) (size 15 to 20)
#    0.000    3.000    0.000    1.200    0.000    8.000 
#    0.000   10.000    0.000    0.000    0.000    0.000 
#    0.000    0.000    0.000    0.000    0.000    0.000 
#
# Total GULP energy -247875.957250 kJ/mol
# GULP energy per Si atom -12393.797863 kJ/mol
# Density = 1.990121 g / cm^3
# Si number density = 19.946610 Si / 1000 Ang^3
#
#
#
# Elastic Constant Matrix: (Units=GPa)
#
#
# Indices 1 2 3 4 5 6 
#
# 1 75.1392 25.3496 60.7587 0.0000 0.0000 -3.4523
# 2 25.3496 75.1392 60.7587 0.0000 0.0000 3.4523
# 3 60.7587 60.7587 164.3389 0.0000 0.0000 0.0000
# 4 0.0000 0.0000 0.0000 27.3581 0.0000 0.0000
# 5 0.0000 0.0000 0.0000 0.0000 27.3581 0.0000
# 6 -3.4523 3.4523 0.0000 0.0000 0.0000 18.0733
#
#
#
# Elastic Compliance Matrix: (Units=1/GPa)
#
#
# Indices 1 2 3 4 5 6 
#
# 1 0.019314 -0.001317 -0.006654 0.000000 0.000000 0.003941
# 2 -0.001317 0.019314 -0.006654 0.000000 0.000000 -0.003941
# 3 -0.006654 -0.006654 0.011005 0.000000 0.000000 0.000000
# 4 0.000000 0.000000 0.000000 0.036552 0.000000 0.000000
# 5 0.000000 0.000000 0.000000 0.000000 0.036552 0.000000
# 6 0.003941 -0.003941 0.000000 0.000000 0.000000 0.056836
#
#
# Mechanical properties :
#
#
# Convention : Reuss Voigt Hill
#
# Bulk Modulus (GPa) = 49.05653 67.59459 58.32556
# Shear Modulus (GPa) = 23.18906 25.74126 24.46516
#
# Velocity S-wave (km/s) = 3.41333 3.59626 3.50599
# Velocity P-wave (km/s) = 6.33890 7.15580 6.75970
#
# Compressibility (1/GPa) = 0.02038464
#
# Stress axis : x y z
#
# Youngs Moduli (GPa) = 51.77464 51.77460 90.86566
#
# Poissons Ratio (x) = 0.06816 0.60463
# Poissons Ratio (y) = 0.06816 0.60463
# Poissons Ratio (z) = 0.34451 0.34451
#
# Static dielectric constant tensor:
#      x y z
#    x 3.605300 0.000000 0.000000 
#    y 0.000000 3.605300 0.000000 
#    z 0.000000 0.000000 3.963940 
# 
# 
# High freq. dielectric constant tensor:
#      x y z
#    x 1.759330 0.000000 0.000000 
#    y 0.000000 1.759330 0.000000 
#    z 0.000000 0.000000 1.784500 
# 
# From -- ./inp_files/3705.got.cif
#   From: 2010.03.12/outbox.cif.g09.slc.cpg/sg82_2_cif.got.tgz:3705.got - 2010.04.08 20:02:50.
