data_PCOD8302778
_publ_section_title
;
Structure prediction by ZEFSAII (Michael W. Deem and Ramdas Pophale) SiO2 
 PCOD8302778
Probable space group: P 4/M
;
_chemical_formula_sum "Si O2"
_cell_formula_units_Z 48
_cell_length_a 17.842626
_cell_length_b 17.842626
_cell_length_c 8.745810
_cell_angle_alpha 90.000000
_cell_angle_beta 90.000000
_cell_angle_gamma 90.000000
_cell_volume 2784.309972
_symmetry_space_group_name_H-M "P 4/M"
_symmetry_group_IT_number 83
_symmetry_cell_setting 'tetragonal'
loop_
_space_group_symop_operation_xyz
x,y,z
-y,x,z
-x,-y,z
y,-x,z
-x,-y,-z
y,-x,-z
x,y,-z
-y,x,-z
loop_
_atom_site_type_symbol
_atom_site_label
_atom_site_fract_x
_atom_site_fract_y
_atom_site_fract_z
Si Si1 0.189822 0.684481 0.171442
Si Si2 0.413630 0.305749 0.679887
Si Si3 0.798350 0.083487 0.679358
Si Si4 0.310875 0.814919 0.831060
Si Si5 0.425494 0.695583 0.181154
Si Si6 0.084414 0.794697 0.682080
O O1 0.223745 0.615591 0.268185
O O2 0.250308 0.749627 0.167946
O O3 0.115022 0.716259 0.251332
O O4 0.170836 0.656862 0.000000
O O5 0.400650 0.316241 0.500000
O O6 0.500467 0.312086 0.719675
O O7 0.371619 0.370733 0.772171
O O8 0.803769 0.079504 0.500000
O O9 0.717168 0.118208 0.722126
O O10 0.865940 0.135216 0.743043
O O11 0.806447 0.999690 0.745524
O O12 0.388453 0.776514 0.776937
O O13 0.320079 0.849151 0.000000
O O14 0.441403 0.690069 0.000000
O O15 0.087519 0.789703 0.500000
#
# Coordination Sequence:
#
# PCOD8302778 Si02
#       6
#     8   8   8   8   8   8
#     4   9  17  31  49  68  91 125 163 199 237 283
#     4  11  21  33  51  76 101 126 158 198 239 283
#     4   9  17  28  45  68  97 128 160 197 240 285
#     4   8  16  30  48  67  89 120 161 198 231 276
#     4  10  20  35  52  72  99 131 162 195 236 285
#     4   9  17  29  45  69  97 128 162 199 240 286
#
# _framework density 17.239459
#
# number of rings (size 3 to 8) (size 9 to 14) (size 15 to 20)
#    0.000    2.667    0.000    3.500    0.000    6.000 
#    0.000    3.333    0.000    1.000    0.000   11.667 
#    0.000    0.000    0.000    0.000    0.000    0.000 
#
# Total GULP energy -594987.629027 kJ/mol
# GULP energy per Si atom -12395.575605 kJ/mol
# Density = 1.720022 g / cm^3
# Si number density = 17.239459 Si / 1000 Ang^3
#
#
#
# Elastic Constant Matrix: (Units=GPa)
#
#
# Indices 1 2 3 4 5 6 
#
# 1 65.9525 60.1042 15.4490 0.0000 0.0000 -0.7919
# 2 60.1042 65.9525 15.4490 0.0000 0.0000 0.7919
# 3 15.4490 15.4490 48.0986 0.0000 0.0000 0.0000
# 4 0.0000 0.0000 0.0000 23.8482 0.0000 0.0000
# 5 0.0000 0.0000 0.0000 0.0000 23.8482 0.0000
# 6 -0.7919 0.7919 0.0000 0.0000 0.0000 18.6134
#
#
#
# Elastic Compliance Matrix: (Units=1/GPa)
#
#
# Indices 1 2 3 4 5 6 
#
# 1 0.090796 -0.082186 -0.002766 0.000000 0.000000 0.007360
# 2 -0.082186 0.090796 -0.002766 0.000000 0.000000 -0.007360
# 3 -0.002766 -0.002766 0.022567 0.000000 0.000000 0.000000
# 4 0.000000 0.000000 0.000000 0.041932 0.000000 0.000000
# 5 0.000000 0.000000 0.000000 0.000000 0.041932 0.000000
# 6 0.007360 -0.007360 0.000000 0.000000 0.000000 0.054351
#
#
# Mechanical properties :
#
#
# Convention : Reuss Voigt Hill
#
# Bulk Modulus (GPa) = 34.81167 40.22311 37.51739
# Shear Modulus (GPa) = 9.48075 19.19537 14.33806
#
# Velocity S-wave (km/s) = 2.34763 3.34047 2.88705
# Velocity P-wave (km/s) = 5.25218 6.18554 5.73787
#
# Compressibility (1/GPa) = 0.02872600
#
# Stress axis : x y z
#
# Youngs Moduli (GPa) = 11.01365 11.01365 44.31182
#
# Poissons Ratio (x) = 0.90516 0.12256
# Poissons Ratio (y) = 0.90516 0.12256
# Poissons Ratio (z) = 0.03046 0.03046
#
# Static dielectric constant tensor:
#      x y z
#    x 3.306260 0.000000 0.000000 
#    y 0.000000 3.306260 0.000000 
#    z 0.000000 0.000000 3.240050 
# 
# 
# High freq. dielectric constant tensor:
#      x y z
#    x 1.649190 0.000000 0.000000 
#    y 0.000000 1.649190 0.000000 
#    z 0.000000 0.000000 1.667110 
# 
# From -- ./inp_files/918.got.cif
#   From: 2010.03.12/outbox.cif.g09.slc.cpg/sg83_1_cif.got.tgz:918.got - 2010.04.08 20:05:18.
