data_PCOD8302954
_publ_section_title
;
Structure prediction by ZEFSAII (Michael W. Deem and Ramdas Pophale) SiO2 
 PCOD8302954
Probable space group: P 4/M
;
_chemical_formula_sum "Si O2"
_cell_formula_units_Z 44
_cell_length_a 8.650635
_cell_length_b 8.650635
_cell_length_c 27.911828
_cell_angle_alpha 90.000000
_cell_angle_beta 90.000000
_cell_angle_gamma 90.000000
_cell_volume 2088.739387
_symmetry_space_group_name_H-M "P 4/M"
_symmetry_group_IT_number 83
_symmetry_cell_setting 'tetragonal'
loop_
_space_group_symop_operation_xyz
x,y,z
-y,x,z
-x,-y,z
y,-x,z
-x,-y,-z
y,-x,-z
x,y,-z
-y,x,-z
loop_
_atom_site_type_symbol
_atom_site_label
_atom_site_fract_x
_atom_site_fract_y
_atom_site_fract_z
Si Si1 0.769010 0.891344 0.774966
Si Si2 0.386350 0.273887 0.308654
Si Si3 0.390326 0.272266 0.582217
Si Si4 0.879346 0.222082 0.945205
Si Si5 0.611441 0.729338 0.861034
Si Si6 0.898963 0.233638 0.500000
O O1 0.681049 0.858122 0.725350
O O2 0.661642 0.843920 0.819045
O O3 0.927232 0.796744 0.777734
O O4 0.567009 0.296972 0.298142
O O5 0.362206 0.219203 0.363230
O O6 0.570481 0.298069 0.571923
O O7 0.330981 0.138375 0.547516
O O8 0.808409 0.354731 0.912055
O O9 0.060582 0.205136 0.934222
O O10 0.852844 0.272322 0.000000
O O11 0.429848 0.703988 0.856530
O O12 0.079110 0.201348 0.500000
#
# Coordination Sequence:
#
# PCOD8302954 Si02
#       6
#     8   8   8   8   8   4
#     4  11  24  39  56  81 112 145 182 224 270 323
#     4   9  19  37  60  85 111 139 176 223 272 323
#     4   9  19  37  60  83 107 139 181 226 270 321
#     4   9  19  37  60  85 113 145 182 224 270 323
#     4  11  24  39  56  81 112 145 184 230 274 319
#     4  11  24  37  50  76 114 149 182 225 272 318
#
# _framework density 21.065335999999999
#
# number of rings (size 3 to 8) (size 9 to 14) (size 15 to 20)
#    0.000    2.091    0.000    4.364    0.000   12.364 
#    0.000    8.182    0.000    0.000    0.000    0.000 
#    0.000    0.000    0.000    0.000    0.000    0.000 
#
# Total GULP energy -545806.931724 kJ/mol
# GULP energy per Si atom -12404.702994 kJ/mol
# Density = 2.101739 g / cm^3
# Si number density = 21.065336 Si / 1000 Ang^3
#
#
#
# Elastic Constant Matrix: (Units=GPa)
#
#
# Indices 1 2 3 4 5 6 
#
# 1 13.8646 -8.6527 10.0317 0.0000 0.0000 -0.7043
# 2 -8.6527 13.8646 10.0317 0.0000 0.0000 0.7043
# 3 10.0317 10.0317 107.1444 0.0000 0.0000 0.0000
# 4 0.0000 0.0000 0.0000 12.6519 0.0000 0.0000
# 5 0.0000 0.0000 0.0000 0.0000 12.6519 0.0000
# 6 -0.7043 0.7043 0.0000 0.0000 0.0000 34.5379
#
#
#
# Elastic Compliance Matrix: (Units=1/GPa)
#
#
# Indices 1 2 3 4 5 6 
#
# 1 0.172230 0.127763 -0.028088 0.000000 0.000000 0.000907
# 2 0.127763 0.172230 -0.028088 0.000000 0.000000 -0.000907
# 3 -0.028088 -0.028088 0.014593 0.000000 0.000000 0.000000
# 4 0.000000 0.000000 0.000000 0.079039 0.000000 0.000000
# 5 0.000000 0.000000 0.000000 0.000000 0.079039 0.000000
# 6 0.000907 -0.000907 0.000000 0.000000 0.000000 0.028991
#
#
# Mechanical properties :
#
#
# Convention : Reuss Voigt Hill
#
# Bulk Modulus (GPa) = 1.99113 17.52164 9.75639
# Shear Modulus (GPa) = 8.76647 20.19922 14.48284
#
# Velocity S-wave (km/s) = 2.04220 3.09994 2.62491
# Velocity P-wave (km/s) = 2.55109 4.59877 3.71865
#
# Compressibility (1/GPa) = 0.50222734
#
# Stress axis : x y z
#
# Youngs Moduli (GPa) = 5.80620 5.80620 68.52728
#
# Poissons Ratio (x) = -0.74182 1.92476
# Poissons Ratio (y) = -0.74182 1.92476
# Poissons Ratio (z) = 0.16308 0.16308
#
# Static dielectric constant tensor:
#      x y z
#    x 3.669780 0.000000 0.000000 
#    y 0.000000 3.669780 0.000000 
#    z 0.000000 0.000000 3.818040 
# 
# 
# High freq. dielectric constant tensor:
#      x y z
#    x 1.821350 0.000000 0.000000 
#    y 0.000000 1.821350 0.000000 
#    z 0.000000 0.000000 1.836550 
# 
# From -- ./inp_files/3342.got.cif
#   From: 2010.03.12/outbox.cif.g09.slc.cpg/sg83_2_cif.got.tgz:3342.got - 2010.04.08 20:05:18.
