data_PCOD8302859
_publ_section_title
;
Structure prediction by ZEFSAII (Michael W. Deem and Ramdas Pophale) SiO2 
 PCOD8302859
Probable space group: P 4/M
;
_chemical_formula_sum "Si O2"
_cell_formula_units_Z 40
_cell_length_a 14.796355
_cell_length_b 14.796355
_cell_length_c 9.429341
_cell_angle_alpha 90.000000
_cell_angle_beta 90.000000
_cell_angle_gamma 90.000000
_cell_volume 2064.385627
_symmetry_space_group_name_H-M "P 4/M"
_symmetry_group_IT_number 83
_symmetry_cell_setting 'tetragonal'
loop_
_space_group_symop_operation_xyz
x,y,z
-y,x,z
-x,-y,z
y,-x,z
-x,-y,-z
y,-x,-z
x,y,-z
-y,x,-z
loop_
_atom_site_type_symbol
_atom_site_label
_atom_site_fract_x
_atom_site_fract_y
_atom_site_fract_z
Si Si1 0.860717 0.949118 0.500000
Si Si2 0.091847 0.878408 0.000000
Si Si3 0.927155 0.435340 0.158101
Si Si4 0.753730 0.866499 0.743962
Si Si5 0.729365 0.506085 0.836828
Si Si6 0.677721 0.330543 0.331382
O O1 0.800872 0.930379 0.633742
O O2 0.946932 0.885408 0.500000
O O3 0.136684 0.824223 0.128304
O O4 0.982452 0.874916 0.000000
O O5 0.918563 0.339276 0.231087
O O6 0.834541 0.488661 0.155207
O O7 0.000000 0.500000 0.237196
O O8 0.962164 0.415126 0.000000
O O9 0.731829 0.765663 0.691048
O O10 0.681984 0.425989 0.749533
O O11 0.719805 0.595869 0.744593
O O12 0.691175 0.513489 0.000000
O O13 0.661390 0.344845 0.500000
#
# Coordination Sequence:
#
# PCOD8302859 Si02
#       6
#     4   4   8   8   8   8
#     4  11  24  42  61  86 128 171 209 256 312 372
#     4  11  24  40  63  94 124 163 219 274 312 360
#     4   9  19  38  61  91 123 156 201 264 319 361
#     4  11  22  41  63  91 127 168 211 258 314 374
#     4  10  22  38  66  94 125 162 211 265 312 370
#     4  11  23  42  63  91 130 169 206 253 317 385
#
# _framework density 19.376223
#
# number of rings (size 3 to 8) (size 9 to 14) (size 15 to 20)
#    0.000    1.600    2.000    2.400    2.800    5.200 
#    0.000    2.500    0.000    0.000    0.000    0.000 
#    0.000    0.000    0.000    0.000    0.000    0.000 
#
# Total GULP energy -495769.344016 kJ/mol
# GULP energy per Si atom -12394.233600 kJ/mol
# Density = 1.933212 g / cm^3
# Si number density = 19.376223 Si / 1000 Ang^3
#
#
#
# Elastic Constant Matrix: (Units=GPa)
#
#
# Indices 1 2 3 4 5 6 
#
# 1 97.4023 52.9943 47.6655 0.0000 0.0000 15.2835
# 2 52.9943 97.4023 47.6655 0.0000 0.0000 -15.2835
# 3 47.6655 47.6655 152.9869 0.0000 0.0000 0.0000
# 4 0.0000 0.0000 0.0000 -442.5439 0.0000 0.0000
# 5 0.0000 0.0000 0.0000 0.0000 -442.5439 0.0000
# 6 15.2835 -15.2835 0.0000 0.0000 0.0000 28.1143
#
#
#
# Elastic Compliance Matrix: (Units=1/GPa)
#
#
# Indices 1 2 3 4 5 6 
#
# 1 0.022134 -0.013849 -0.002581 0.000000 0.000000 -0.019561
# 2 -0.013849 0.022134 -0.002581 0.000000 0.000000 0.019561
# 3 -0.002581 -0.002581 0.008145 0.000000 0.000000 0.000000
# 4 0.000000 0.000000 0.000000 -0.002260 0.000000 0.000000
# 5 0.000000 0.000000 0.000000 0.000000 -0.002260 0.000000
# 6 -0.019561 0.019561 0.000000 0.000000 0.000000 0.056836
#
#
# Mechanical properties :
#
#
# Convention : Reuss Voigt Hill
#
# Bulk Modulus (GPa) = 69.49237 71.60467 70.54852
# Shear Modulus (GPa) = 33.88691 -158.09695 -62.10502
#
# Velocity S-wave (km/s) = 4.18651 -9.04270 -5.66761
# Velocity P-wave (km/s) = 7.70142 8.48481 2.51796
#
# Compressibility (1/GPa) = 0.01439007
#
# Stress axis : x y z
#
# Youngs Moduli (GPa) = 45.17943 45.17943 122.77345
#
# Poissons Ratio (x) = 0.62567 0.31693
# Poissons Ratio (y) = 0.62567 0.31693
# Poissons Ratio (z) = 0.11663 0.11663
#
# Static dielectric constant tensor:
#      x y z
#    x 3.670130 0.000000 0.000000 
#    y 0.000000 3.670130 0.000000 
#    z 0.000000 0.000000 3.660200 
# 
# 
# High freq. dielectric constant tensor:
#      x y z
#    x 1.761780 0.000000 0.000000 
#    y 0.000000 1.761780 0.000000 
#    z 0.000000 0.000000 1.761700 
# 
# From -- ./inp_files/755.got.cif
#   From: 2010.03.12/outbox.cif.g09.slc.cpg/sg83_1_cif.got.tgz:755.got - 2010.04.08 20:05:18.
