data_PCOD8302537
_publ_section_title
;
Structure prediction by ZEFSAII (Michael W. Deem and Ramdas Pophale) SiO2 
 PCOD8302537
Probable space group: I -4 
;
_chemical_formula_sum "Si O2"
_cell_formula_units_Z 52
_cell_length_a 15.846461
_cell_length_b 15.846461
_cell_length_c 9.746844
_cell_angle_alpha 90.000000
_cell_angle_beta 90.000000
_cell_angle_gamma 90.000000
_cell_volume 2447.533176
_symmetry_space_group_name_H-M "I -4 "
_symmetry_group_IT_number 82
_symmetry_cell_setting 'tetragonal'
loop_
_space_group_symop_operation_xyz
x,y,z
y,-x,-z
-x,-y,z
-y,x,-z
1/2+x,1/2+y,1/2+z
1/2+y,1/2-x,1/2-z
1/2-x,1/2-y,1/2+z
1/2-y,1/2+x,1/2-z
loop_
_atom_site_type_symbol
_atom_site_label
_atom_site_fract_x
_atom_site_fract_y
_atom_site_fract_z
Si Si1 0.611166 0.228089 0.709547
Si Si2 0.868280 0.747927 0.417281
Si Si3 0.049143 0.171425 0.166320
Si Si4 0.495658 0.310395 0.134711
Si Si5 0.500000 0.500000 0.200599
Si Si6 0.116019 0.214853 0.884359
Si Si7 0.146424 0.721498 0.515267
O O1 0.649946 0.148183 0.626259
O O2 0.519569 0.253425 0.653732
O O3 0.674389 0.306853 0.698131
O O4 0.602422 0.203629 0.869803
O O5 0.882127 0.803162 0.279739
O O6 0.946980 0.760735 0.515849
O O7 0.786344 0.775954 0.503436
O O8 0.095832 0.161307 0.021301
O O9 0.003989 0.083248 0.204709
O O10 0.494944 0.412970 0.110195
O O11 0.464942 0.288104 0.286450
O O12 0.587311 0.269424 0.123976
O O13 0.135936 0.312826 0.922725
#
# Coordination Sequence:
#
# PCOD8302537 Si02
#       7
#     8   8   8   8   4   8   8
#     4  11  23  42  65  90 133 180 224 260 335 409
#     4  11  23  40  64  92 126 176 224 262 326 402
#     4  12  24  40  65  96 141 169 213 283 327 406
#     4  12  25  41  68  98 136 171 218 282 329 407
#     4  12  26  40  64 110 140 174 208 270 370 396
#     4  11  26  40  62 100 132 177 224 267 331 399
#     4  11  22  42  66  92 132 179 221 268 329 410
#
# _framework density 21.245882999999999
#
# number of rings (size 3 to 8) (size 9 to 14) (size 15 to 20)
#    0.000    0.615    7.692    0.000    2.154    2.462 
#    0.000    0.000    0.000    5.538    0.000    0.000 
#    0.000    0.000    0.000    0.000    0.000    0.000 
#
# Total GULP energy -322312.697461 kJ/mol
# GULP energy per Si atom -12396.642210 kJ/mol
# Density = 2.119753 g / cm^3
# Si number density = 21.245883 Si / 1000 Ang^3
#
#
#
# Elastic Constant Matrix: (Units=GPa)
#
#
# Indices 1 2 3 4 5 6 
#
# 1 76.5204 42.7779 22.2972 0.0000 0.0000 -6.6672
# 2 42.7779 76.5204 22.2972 0.0000 0.0000 6.6672
# 3 22.2972 22.2972 101.9362 0.0000 0.0000 0.0000
# 4 0.0000 0.0000 0.0000 34.3090 0.0000 0.0000
# 5 0.0000 0.0000 0.0000 0.0000 34.3090 0.0000
# 6 -6.6672 6.6672 0.0000 0.0000 0.0000 46.7131
#
#
#
# Elastic Compliance Matrix: (Units=1/GPa)
#
#
# Indices 1 2 3 4 5 6 
#
# 1 0.020268 -0.011139 -0.001997 0.000000 0.000000 0.004483
# 2 -0.011139 0.020268 -0.001997 0.000000 0.000000 -0.004483
# 3 -0.001997 -0.001997 0.010684 0.000000 0.000000 0.000000
# 4 0.000000 0.000000 0.000000 0.029147 0.000000 0.000000
# 5 0.000000 0.000000 0.000000 0.000000 0.029147 0.000000
# 6 0.004483 -0.004483 0.000000 0.000000 0.000000 0.022687
#
#
# Mechanical properties :
#
#
# Convention : Reuss Voigt Hill
#
# Bulk Modulus (GPa) = 47.72369 47.74682 47.73526
# Shear Modulus (GPa) = 29.50699 34.23987 31.87343
#
# Velocity S-wave (km/s) = 3.73075 4.01883 3.87747
# Velocity P-wave (km/s) = 6.40853 6.63754 6.52404
#
# Compressibility (1/GPa) = 0.02095395
#
# Stress axis : x y z
#
# Youngs Moduli (GPa) = 49.33835 49.33835 93.60141
#
# Poissons Ratio (x) = 0.54960 0.18690
# Poissons Ratio (y) = 0.54960 0.18690
# Poissons Ratio (z) = 0.09852 0.09852
#
# Static dielectric constant tensor:
#      x y z
#    x 3.900660 0.000000 0.000000 
#    y 0.000000 3.900660 0.000000 
#    z 0.000000 0.000000 3.808400 
# 
# 
# High freq. dielectric constant tensor:
#      x y z
#    x 1.816980 0.000000 0.000000 
#    y 0.000000 1.816980 0.000000 
#    z 0.000000 0.000000 1.838590 
# 
# From -- ./inp_files/1091.got.cif
#   From: 2010.03.12/outbox.cif.g09.slc.cpg/sg82_1_cif.got.tgz:1091.got - 2010.04.08 20:02:50.
