data_PCOD8302356
_publ_section_title
;
Structure prediction by ZEFSAII (Michael W. Deem and Ramdas Pophale) SiO2 
 PCOD8302356
Probable space group: I -4 
;
_chemical_formula_sum "Si O2"
_cell_formula_units_Z 46
_cell_length_a 10.808772
_cell_length_b 10.808772
_cell_length_c 19.704889
_cell_angle_alpha 90.000000
_cell_angle_beta 90.000000
_cell_angle_gamma 90.000000
_cell_volume 2302.113357
_symmetry_space_group_name_H-M "I -4 "
_symmetry_group_IT_number 82
_symmetry_cell_setting 'tetragonal'
loop_
_space_group_symop_operation_xyz
x,y,z
y,-x,-z
-x,-y,z
-y,x,-z
1/2+x,1/2+y,1/2+z
1/2+y,1/2-x,1/2-z
1/2-x,1/2-y,1/2+z
1/2-y,1/2+x,1/2-z
loop_
_atom_site_type_symbol
_atom_site_label
_atom_site_fract_x
_atom_site_fract_y
_atom_site_fract_z
Si Si1 0.000000 0.500000 0.483193
Si Si2 0.734527 0.980777 0.429886
Si Si3 0.000000 0.000000 0.500000
Si Si4 0.863169 0.787657 0.932978
Si Si5 0.057867 0.865489 0.835654
Si Si6 0.540532 0.749532 0.575387
Si Si7 0.484028 0.811072 0.224915
O O1 0.956687 0.619045 0.528580
O O2 0.104348 0.553117 0.433637
O O3 0.721439 0.833569 0.433839
O O4 0.716729 0.023988 0.352087
O O5 0.872865 0.017130 0.456034
O O6 0.979499 0.770821 0.882442
O O7 0.777182 0.898122 0.907792
O O8 0.915958 0.818761 0.007117
O O9 0.199251 0.873313 0.863380
O O10 0.056106 0.818864 0.758585
O O11 0.000000 0.000000 0.842365
O O12 0.597826 0.867281 0.267847
#
# Coordination Sequence:
#
# PCOD8302356 Si02
#       7
#     4   8   2   8   8   8   8
#     4  10  22  38  61  92 121 170 202 264 308 382
#     4  11  24  41  63  91 132 169 216 260 324 394
#     4  12  28  44  64  96 136 184 210 264 336 404
#     4  10  18  34  58  90 117 154 201 264 308 366
#     4  10  21  35  59  91 116 156 202 260 312 364
#     4  10  19  32  60  86 125 150 206 253 317 369
#     4  11  23  39  62  89 122 163 209 264 317 381
#
# _framework density 19.981638
#
# number of rings (size 3 to 8) (size 9 to 14) (size 15 to 20)
#    0.000    1.565    3.478    2.087    3.652    2.783 
#    0.000    0.000    0.000    0.000    0.000    1.217 
#    0.000    0.000    0.000    0.000    0.000    0.000 
#
# Total GULP energy -285035.818152 kJ/mol
# GULP energy per Si atom -12392.861659 kJ/mol
# Density = 1.993616 g / cm^3
# Si number density = 19.981638 Si / 1000 Ang^3
#
#
#
# Elastic Constant Matrix: (Units=GPa)
#
#
# Indices 1 2 3 4 5 6 
#
# 1 85.4395 14.0924 33.6875 0.0000 0.0000 2.3973
# 2 14.0924 85.4395 33.6875 0.0000 0.0000 -2.3973
# 3 33.6875 33.6875 86.5142 0.0000 0.0000 0.0000
# 4 0.0000 0.0000 0.0000 29.7071 0.0000 0.0000
# 5 0.0000 0.0000 0.0000 0.0000 29.7071 0.0000
# 6 2.3973 -2.3973 0.0000 0.0000 0.0000 24.0715
#
#
#
# Elastic Compliance Matrix: (Units=1/GPa)
#
#
# Indices 1 2 3 4 5 6 
#
# 1 0.013877 -0.000234 -0.005312 0.000000 0.000000 -0.001405
# 2 -0.000234 0.013877 -0.005312 0.000000 0.000000 0.001405
# 3 -0.005312 -0.005312 0.015696 0.000000 0.000000 0.000000
# 4 0.000000 0.000000 0.000000 0.033662 0.000000 0.000000
# 5 0.000000 0.000000 0.000000 0.000000 0.033662 0.000000
# 6 -0.001405 0.001405 0.000000 0.000000 0.000000 0.041823
#
#
# Mechanical properties :
#
#
# Convention : Reuss Voigt Hill
#
# Bulk Modulus (GPa) = 46.01417 46.70310 46.35863
# Shear Modulus (GPa) = 27.53948 28.42553 27.98250
#
# Velocity S-wave (km/s) = 3.71649 3.77581 3.74627
# Velocity P-wave (km/s) = 6.44163 6.51404 6.47794
#
# Compressibility (1/GPa) = 0.02173244
#
# Stress axis : x y z
#
# Youngs Moduli (GPa) = 72.06286 72.06286 63.71051
#
# Poissons Ratio (x) = 0.01684 0.33846
# Poissons Ratio (y) = 0.01684 0.33846
# Poissons Ratio (z) = 0.38283 0.38283
#
# Static dielectric constant tensor:
#      x y z
#    x 3.570490 0.000000 0.000000 
#    y 0.000000 3.570490 0.000000 
#    z 0.000000 0.000000 3.548130 
# 
# 
# High freq. dielectric constant tensor:
#      x y z
#    x 1.775200 0.000000 0.000000 
#    y 0.000000 1.775200 0.000000 
#    z 0.000000 0.000000 1.759760 
# 
# From -- ./inp_files/2665.got.cif
#   From: 2010.03.12/outbox.cif.g09.slc.cpg/sg82_2_cif.got.tgz:2665.got - 2010.04.08 20:02:50.
