data_PCOD8302013
_publ_section_title
;
Structure prediction by ZEFSAII (Michael W. Deem and Ramdas Pophale) SiO2 
 PCOD8302013
Probable space group: P 43
;
_chemical_formula_sum "Si O2"
_cell_formula_units_Z 24
_cell_length_a 12.304118
_cell_length_b 12.304118
_cell_length_c 7.200799
_cell_angle_alpha 90.000000
_cell_angle_beta 90.000000
_cell_angle_gamma 90.000000
_cell_volume 1090.138464
_symmetry_space_group_name_H-M "P 43"
_symmetry_group_IT_number 78
_symmetry_cell_setting 'tetragonal'
loop_
_space_group_symop_operation_xyz
x,y,z
-y,x,3/4+z
-x,-y,1/2+z
y,-x,1/4+z
loop_
_atom_site_type_symbol
_atom_site_label
_atom_site_fract_x
_atom_site_fract_y
_atom_site_fract_z
Si Si1 0.033999 0.123898 0.575140
Si Si2 0.592079 0.203491 0.476712
Si Si3 0.903506 0.703965 0.558067
Si Si4 0.220648 0.640268 0.821812
Si Si5 0.790904 0.877784 0.775455
Si Si6 0.020099 0.359917 0.459898
O O1 0.115976 0.079825 0.416387
O O2 0.036473 0.251542 0.578489
O O3 0.915425 0.074954 0.526279
O O4 0.477255 0.265221 0.506762
O O5 0.684391 0.291040 0.422305
O O6 0.565038 0.101664 0.333686
O O7 0.621231 0.160113 0.680352
O O8 0.833828 0.812746 0.597451
O O9 0.014500 0.732721 0.449398
O O10 0.931023 0.646812 0.754092
O O11 0.196367 0.707525 0.637855
O O12 0.110190 0.618575 0.947124
#
# Coordination Sequence:
#
# PCOD8302013 Si02
#       6
#     4   4   4   4   4   4
#     4  11  18  33  56  90 140 175 209 266 342 422
#     4  12  26  46  73  98 142 186 239 296 346 416
#     4  10  22  40  64 102 135 185 223 280 355 420
#     4  11  25  47  70 103 140 186 244 290 349 412
#     4  10  19  41  60  96 143 169 234 273 341 432
#     4  10  22  45  65  99 140 177 231 295 347 418
#
# _framework density 22.015554999999999
#
# number of rings (size 3 to 8) (size 9 to 14) (size 15 to 20)
#    0.000    1.333    8.333    0.000    7.000    2.667 
#    3.000    1.667    0.000    0.000    0.000    0.000 
#    0.000    0.000    0.000    0.000    0.000    0.000 
#
# Total GULP energy -297375.092080 kJ/mol
# GULP energy per Si atom -12390.628837 kJ/mol
# Density = 2.196545 g / cm^3
# Si number density = 22.015555 Si / 1000 Ang^3
#
#
#
# Elastic Constant Matrix: (Units=GPa)
#
#
# Indices 1 2 3 4 5 6 
#
# 1 106.7976 43.7949 35.5725 0.0000 0.0000 -1.4447
# 2 43.7949 106.7976 35.5725 0.0000 0.0000 1.4447
# 3 35.5725 35.5725 80.7365 0.0000 0.0000 0.0000
# 4 0.0000 0.0000 0.0000 15.6625 0.0000 0.0000
# 5 0.0000 0.0000 0.0000 0.0000 15.6625 0.0000
# 6 -1.4447 1.4447 0.0000 0.0000 0.0000 10.6845
#
#
#
# Elastic Compliance Matrix: (Units=1/GPa)
#
#
# Indices 1 2 3 4 5 6 
#
# 1 0.012179 -0.003793 -0.003695 0.000000 0.000000 0.002160
# 2 -0.003793 0.012179 -0.003695 0.000000 0.000000 -0.002160
# 3 -0.003695 -0.003695 0.015642 0.000000 0.000000 0.000000
# 4 0.000000 0.000000 0.000000 0.063847 0.000000 0.000000
# 5 0.000000 0.000000 0.000000 0.000000 0.063847 0.000000
# 6 0.002160 -0.002160 0.000000 0.000000 0.000000 0.094178
#
#
# Mechanical properties :
#
#
# Convention : Reuss Voigt Hill
#
# Bulk Modulus (GPa) = 56.70731 58.24575 57.47653
# Shear Modulus (GPa) = 17.23462 20.36134 18.79798
#
# Velocity S-wave (km/s) = 2.80096 3.04445 2.92524
# Velocity P-wave (km/s) = 6.02281 6.23477 6.12971
#
# Compressibility (1/GPa) = 0.01763441
#
# Stress axis : x y z
#
# Youngs Moduli (GPa) = 82.11052 82.11052 63.93085
#
# Poissons Ratio (x) = 0.31142 0.23622
# Poissons Ratio (y) = 0.31142 0.23622
# Poissons Ratio (z) = 0.30339 0.30339
#
# Static dielectric constant tensor:
#      x y z
#    x 3.989430 0.000000 0.000000 
#    y 0.000000 3.989430 0.000000 
#    z 0.000000 0.000000 3.791170 
# 
# 
# High freq. dielectric constant tensor:
#      x y z
#    x 1.851470 0.000000 0.000000 
#    y 0.000000 1.851470 0.000000 
#    z 0.000000 0.000000 1.865970 
# 
# From -- ./inp_files/597.got.cif
#   From: 2010.03.12/outbox.cif.g09.slc.cpg/sg78_cif.got.tgz:597.got - 2010.04.16 16:37:20.
