data_PCOD8302278
_publ_section_title
;
Structure prediction by ZEFSAII (Michael W. Deem and Ramdas Pophale) SiO2 
 PCOD8302278
Probable space group: P -4
;
_chemical_formula_sum "Si O2"
_cell_formula_units_Z 28
_cell_length_a 11.720587
_cell_length_b 11.720587
_cell_length_c 10.498822
_cell_angle_alpha 90.000000
_cell_angle_beta 90.000000
_cell_angle_gamma 90.000000
_cell_volume 1442.245852
_symmetry_space_group_name_H-M "P -4"
_symmetry_group_IT_number 81
_symmetry_cell_setting 'tetragonal'
loop_
_space_group_symop_operation_xyz
x,y,z
y,-x,-z
-x,-y,z
-y,x,-z
loop_
_atom_site_type_symbol
_atom_site_label
_atom_site_fract_x
_atom_site_fract_y
_atom_site_fract_z
Si Si1 0.272264 0.224271 0.632006
Si Si2 0.484379 0.363693 0.702012
Si Si3 0.155785 0.585350 0.804948
Si Si4 0.930536 0.638499 0.691784
Si Si5 0.300962 0.745959 0.639785
Si Si6 0.629503 0.010916 0.603414
Si Si7 0.318001 0.515853 0.022769
O O1 0.359532 0.327247 0.659419
O O2 0.154238 0.253741 0.705012
O O3 0.256519 0.218747 0.480804
O O4 0.308871 0.097352 0.668760
O O5 0.500000 0.500000 0.718152
O O6 0.578359 0.315074 0.603321
O O7 0.514548 0.292724 0.831047
O O8 0.144637 0.476199 0.711685
O O9 0.246190 0.677041 0.755795
O O10 0.029217 0.643858 0.801339
O O11 0.202624 0.547899 0.944568
O O12 0.983594 0.639330 0.550199
O O13 0.318627 0.878679 0.673322
O O14 0.500000 0.000000 0.644179
O O15 0.405966 0.622093 0.039511
#
# Coordination Sequence:
#
# PCOD8302278 Si02
#       7
#     4   4   4   4   4   4   4
#     4  11  23  36  59  88 126 162 202 258 318 377
#     4  12  23  34  56  91 127 154 195 259 321 385
#     4  11  20  39  61  83 120 168 207 256 310 375
#     4  10  21  37  61  87 121 159 215 251 310 377
#     4  11  22  34  59  86 119 166 201 247 317 381
#     4  11  19  37  55  85 130 162 191 258 310 374
#     4  11  20  36  55  82 122 156 195 254 314 365
#
# _framework density 19.414166000000002
#
# number of rings (size 3 to 8) (size 9 to 14) (size 15 to 20)
#    0.000    1.000    7.143    1.714    4.000    0.000 
#    0.000    3.571    0.000    0.000    0.000    0.000 
#    0.000    0.000    0.000    0.000    0.000    0.000 
#
# Total GULP energy -346947.935209 kJ/mol
# GULP energy per Si atom -12390.997686 kJ/mol
# Density = 1.936998 g / cm^3
# Si number density = 19.414166 Si / 1000 Ang^3
#
#
#
# Elastic Constant Matrix: (Units=GPa)
#
#
# Indices 1 2 3 4 5 6 
#
# 1 122.9354 62.9856 24.9511 0.0000 0.0000 -3.0556
# 2 62.9856 122.9354 24.9511 0.0000 0.0000 3.0556
# 3 24.9511 24.9511 37.5179 0.0000 0.0000 0.0000
# 4 0.0000 0.0000 0.0000 20.4341 0.0000 0.0000
# 5 0.0000 0.0000 0.0000 0.0000 20.4341 0.0000
# 6 -3.0556 3.0556 0.0000 0.0000 0.0000 33.8166
#
#
#
# Elastic Compliance Matrix: (Units=1/GPa)
#
#
# Indices 1 2 3 4 5 6 
#
# 1 0.011692 -0.005144 -0.004354 0.000000 0.000000 0.001521
# 2 -0.005144 0.011692 -0.004354 0.000000 0.000000 -0.001521
# 3 -0.004354 -0.004354 0.032446 0.000000 0.000000 0.000000
# 4 0.000000 0.000000 0.000000 0.048938 0.000000 0.000000
# 5 0.000000 0.000000 0.000000 0.000000 0.048938 0.000000
# 6 0.001521 -0.001521 0.000000 0.000000 0.000000 0.029846
#
#
# Mechanical properties :
#
#
# Convention : Reuss Voigt Hill
#
# Bulk Modulus (GPa) = 35.55793 56.57380 46.06586
# Shear Modulus (GPa) = 22.66235 26.30369 24.48302
#
# Velocity S-wave (km/s) = 3.42030 3.68485 3.55504
# Velocity P-wave (km/s) = 5.82693 6.87807 6.37421
#
# Compressibility (1/GPa) = 0.02812313
#
# Stress axis : x y z
#
# Youngs Moduli (GPa) = 85.53217 85.53217 30.82087
#
# Poissons Ratio (x) = 0.43999 0.13420
# Poissons Ratio (y) = 0.43999 0.13420
# Poissons Ratio (z) = 0.37243 0.37243
#
# Static dielectric constant tensor:
#      x y z
#    x 3.607780 0.000000 0.000000 
#    y 0.000000 3.607780 0.000000 
#    z 0.000000 0.000000 3.307730 
# 
# 
# High freq. dielectric constant tensor:
#      x y z
#    x 1.750810 0.000000 0.000000 
#    y 0.000000 1.750810 0.000000 
#    z 0.000000 0.000000 1.724060 
# 
# From -- ./inp_files/1373.got.cif
#   From: 2010.03.12/outbox.cif.g09.slc.cpg/sg81_cif.got.tgz:1373.got - 2010.04.08 20:01:38.
