data_PCOD8302898
_publ_section_title
;
Structure prediction by ZEFSAII (Michael W. Deem and Ramdas Pophale) SiO2 
 PCOD8302898
Probable space group: P 4/M
;
_chemical_formula_sum "Si O2"
_cell_formula_units_Z 64
_cell_length_a 15.008082
_cell_length_b 15.008082
_cell_length_c 18.897063
_cell_angle_alpha 90.000000
_cell_angle_beta 90.000000
_cell_angle_gamma 90.000000
_cell_volume 4256.422191
_symmetry_space_group_name_H-M "P 4/M"
_symmetry_group_IT_number 83
_symmetry_cell_setting 'tetragonal'
loop_
_space_group_symop_operation_xyz
x,y,z
-y,x,z
-x,-y,z
y,-x,z
-x,-y,-z
y,-x,-z
x,y,-z
-y,x,-z
loop_
_atom_site_type_symbol
_atom_site_label
_atom_site_fract_x
_atom_site_fract_y
_atom_site_fract_z
Si Si1 0.405288 0.098039 0.819500
Si Si2 0.397987 0.897785 0.191341
Si Si3 0.872259 0.927473 0.921094
Si Si4 0.742257 0.609944 0.082890
Si Si5 0.408175 0.256961 0.918922
Si Si6 0.083271 0.232667 0.715903
Si Si7 0.782090 0.898513 0.779947
Si Si8 0.858869 0.040533 0.419926
O O1 0.500346 0.118844 0.781840
O O2 0.395116 0.159180 0.887812
O O3 0.323292 0.119054 0.766652
O O4 0.395604 0.995464 0.844545
O O5 0.367955 0.828561 0.130808
O O6 0.333841 0.894844 0.260129
O O7 0.804885 0.887215 0.863266
O O8 0.967129 0.880804 0.910448
O O9 0.835764 0.906141 0.000000
O O10 0.661912 0.671392 0.111824
O O11 0.709239 0.508713 0.094637
O O12 0.765932 0.626137 0.000000
O O13 0.386670 0.246025 0.000000
O O14 0.167818 0.172619 0.732907
O O15 0.998450 0.192172 0.756975
O O16 0.064165 0.223816 0.631889
O O17 0.823800 0.050447 0.500000
O O18 0.891970 0.940233 0.405858
#
# Coordination Sequence:
#
# PCOD8302898 Si02
#       8
#     8   8   8   8   8   8   8   8
#     4   9  19  32  43  56  81 112 150 189 219 249
#     4   9  19  33  44  60  81 113 153 188 217 249
#     4   9  17  28  38  53  84 118 142 177 224 268
#     4   9  17  30  46  63  83 107 138 186 236 278
#     4   9  17  29  45  61  79 104 138 183 237 283
#     4  11  19  28  46  69  90 115 146 176 213 257
#     4  11  19  27  44  66  86 115 151 183 219 266
#     4   9  17  29  45  70 102 126 139 163 208 260
#
# _framework density 15.036102
#
# number of rings (size 3 to 8) (size 9 to 14) (size 15 to 20)
#    0.000    2.500    2.500    1.500    0.000    1.500 
#    0.000    6.250    0.000    0.000    0.000    7.875 
#    0.000    0.000    0.000    0.000    0.000    0.000 
#
# Total GULP energy -793175.399334 kJ/mol
# GULP energy per Si atom -12393.365615 kJ/mol
# Density = 1.500188 g / cm^3
# Si number density = 15.036102 Si / 1000 Ang^3
#
#
#
# Elastic Constant Matrix: (Units=GPa)
#
#
# Indices 1 2 3 4 5 6 
#
# 1 77.4604 44.2814 34.0495 0.0000 0.0000 -2.9357
# 2 44.2814 77.4604 34.0495 0.0000 0.0000 2.9357
# 3 34.0495 34.0495 83.8042 0.0000 0.0000 0.0000
# 4 0.0000 0.0000 0.0000 15.2018 0.0000 0.0000
# 5 0.0000 0.0000 0.0000 0.0000 15.2018 0.0000
# 6 -2.9357 2.9357 0.0000 0.0000 0.0000 20.8723
#
#
#
# Elastic Compliance Matrix: (Units=1/GPa)
#
#
# Indices 1 2 3 4 5 6 
#
# 1 0.020769 -0.010139 -0.004319 0.000000 0.000000 0.004347
# 2 -0.010139 0.020769 -0.004319 0.000000 0.000000 -0.004347
# 3 -0.004319 -0.004319 0.015442 0.000000 0.000000 0.000000
# 4 0.000000 0.000000 0.000000 0.065782 0.000000 0.000000
# 5 0.000000 0.000000 0.000000 0.000000 0.065782 0.000000
# 6 0.004347 -0.004347 0.000000 0.000000 0.000000 0.049133
#
#
# Mechanical properties :
#
#
# Convention : Reuss Voigt Hill
#
# Bulk Modulus (GPa) = 51.47650 51.49843 51.48747
# Shear Modulus (GPa) = 17.74890 18.67815 18.21352
#
# Velocity S-wave (km/s) = 3.43945 3.52834 3.48418
# Velocity P-wave (km/s) = 7.07691 7.13604 7.10654
#
# Compressibility (1/GPa) = 0.01942634
#
# Stress axis : x y z
#
# Youngs Moduli (GPa) = 48.14764 48.14764 64.75778
#
# Poissons Ratio (x) = 0.48819 0.27969
# Poissons Ratio (y) = 0.48819 0.27969
# Poissons Ratio (z) = 0.20795 0.20795
#
# Static dielectric constant tensor:
#      x y z
#    x 2.986400 0.000000 0.000000 
#    y 0.000000 2.986400 0.000000 
#    z 0.000000 0.000000 2.650570 
# 
# 
# High freq. dielectric constant tensor:
#      x y z
#    x 1.573240 0.000000 0.000000 
#    y 0.000000 1.573240 0.000000 
#    z 0.000000 0.000000 1.534610 
# 
# From -- ./inp_files/2734.got.cif
#   From: 2010.03.12/outbox.cif.g09.slc.cpg/sg83_2_cif.got.tgz:2734.got - 2010.04.08 20:05:18.
