data_PCOD8302785
_publ_section_title
;
Structure prediction by ZEFSAII (Michael W. Deem and Ramdas Pophale) SiO2 
 PCOD8302785
Probable space group: P 4/M
;
_chemical_formula_sum "Si O2"
_cell_formula_units_Z 36
_cell_length_a 14.472823
_cell_length_b 14.472823
_cell_length_c 9.640581
_cell_angle_alpha 90.000000
_cell_angle_beta 90.000000
_cell_angle_gamma 90.000000
_cell_volume 2019.341216
_symmetry_space_group_name_H-M "P 4/M"
_symmetry_group_IT_number 83
_symmetry_cell_setting 'tetragonal'
loop_
_space_group_symop_operation_xyz
x,y,z
-y,x,z
-x,-y,z
y,-x,z
-x,-y,-z
y,-x,-z
x,y,-z
-y,x,-z
loop_
_atom_site_type_symbol
_atom_site_label
_atom_site_fract_x
_atom_site_fract_y
_atom_site_fract_z
Si Si1 0.337403 0.949896 0.342988
Si Si2 0.644450 0.872059 0.157444
Si Si3 0.652533 0.507569 0.500000
Si Si4 0.204466 0.461668 0.738106
Si Si5 0.803156 0.730750 0.842838
O O1 0.304697 0.969670 0.500000
O O2 0.431473 0.888836 0.344765
O O3 0.258302 0.891621 0.259893
O O4 0.355820 0.044694 0.264614
O O5 0.547687 0.818213 0.163507
O O6 0.725651 0.803088 0.202927
O O7 0.658069 0.907931 0.000000
O O8 0.587015 0.596203 0.500000
O O9 0.714976 0.508717 0.635530
O O10 0.237465 0.373840 0.830275
O O11 0.835416 0.748936 0.000000
#
# Coordination Sequence:
#
# PCOD8302785 Si02
#       5
#     8   8   4   8   8
#     4  10  22  36  55  85 113 149 188 240 286 336
#     4  11  22  35  59  84 113 153 187 236 292 339
#     4  11  22  36  55  82 122 162 195 232 277 335
#     4  10  20  35  56  79 113 147 189 231 275 337
#     4   9  20  37  54  80 115 149 187 232 283 340
#
# _framework density 17.827596
#
# number of rings (size 3 to 8) (size 9 to 14) (size 15 to 20)
#    1.333    0.556    1.111    3.333    1.556    2.667 
#    0.000    0.000    0.000    0.667    0.000   14.000 
#    0.000    0.000    0.000    0.000    0.000    0.000 
#
# Total GULP energy -446156.838378 kJ/mol
# GULP energy per Si atom -12393.245510 kJ/mol
# Density = 1.778702 g / cm^3
# Si number density = 17.827596 Si / 1000 Ang^3
#
#
#
# Elastic Constant Matrix: (Units=GPa)
#
#
# Indices 1 2 3 4 5 6 
#
# 1 93.2032 47.6502 44.8845 0.0000 0.0000 1.8709
# 2 47.6502 93.2032 44.8845 0.0000 0.0000 -1.8709
# 3 44.8845 44.8845 113.1135 0.0000 0.0000 0.0000
# 4 0.0000 0.0000 0.0000 29.1874 0.0000 0.0000
# 5 0.0000 0.0000 0.0000 0.0000 29.1874 0.0000
# 6 1.8709 -1.8709 0.0000 0.0000 0.0000 19.8811
#
#
#
# Elastic Compliance Matrix: (Units=1/GPa)
#
#
# Indices 1 2 3 4 5 6 
#
# 1 0.015813 -0.006310 -0.003771 0.000000 0.000000 -0.002082
# 2 -0.006310 0.015813 -0.003771 0.000000 0.000000 0.002082
# 3 -0.003771 -0.003771 0.011833 0.000000 0.000000 0.000000
# 4 0.000000 0.000000 0.000000 0.034261 0.000000 0.000000
# 5 0.000000 0.000000 0.000000 0.000000 0.034261 0.000000
# 6 -0.002082 0.002082 0.000000 0.000000 0.000000 0.050691
#
#
# Mechanical properties :
#
#
# Convention : Reuss Voigt Hill
#
# Bulk Modulus (GPa) = 63.46928 63.81757 63.64343
# Shear Modulus (GPa) = 25.55860 26.45789 26.00824
#
# Velocity S-wave (km/s) = 3.79047 3.85658 3.82367
# Velocity P-wave (km/s) = 7.40512 7.46363 7.43443
#
# Compressibility (1/GPa) = 0.01575565
#
# Stress axis : x y z
#
# Youngs Moduli (GPa) = 63.23861 63.23861 84.50762
#
# Poissons Ratio (x) = 0.39906 0.31866
# Poissons Ratio (y) = 0.39906 0.31866
# Poissons Ratio (z) = 0.23846 0.23846
#
# Static dielectric constant tensor:
#      x y z
#    x 3.153740 0.000000 0.000000 
#    y 0.000000 3.153740 0.000000 
#    z 0.000000 0.000000 3.207940 
# 
# 
# High freq. dielectric constant tensor:
#      x y z
#    x 1.677340 0.000000 0.000000 
#    y 0.000000 1.677340 0.000000 
#    z 0.000000 0.000000 1.695430 
# 
# From -- ./inp_files/567.got.cif
#   From: 2010.03.12/outbox.cif.g09.slc.cpg/sg83_1_cif.got.tgz:567.got - 2010.04.08 20:05:18.
