data_PCOD8302019
_publ_section_title
;
Structure prediction by ZEFSAII (Michael W. Deem and Ramdas Pophale) SiO2 
 PCOD8302019
Probable space group: P 43
;
_chemical_formula_sum "Si O2"
_cell_formula_units_Z 20
_cell_length_a 9.847639
_cell_length_b 9.847639
_cell_length_c 10.274625
_cell_angle_alpha 90.000000
_cell_angle_beta 90.000000
_cell_angle_gamma 90.000000
_cell_volume 996.391971
_symmetry_space_group_name_H-M "P 43"
_symmetry_group_IT_number 78
_symmetry_cell_setting 'tetragonal'
loop_
_space_group_symop_operation_xyz
x,y,z
-y,x,3/4+z
-x,-y,1/2+z
y,-x,1/4+z
loop_
_atom_site_type_symbol
_atom_site_label
_atom_site_fract_x
_atom_site_fract_y
_atom_site_fract_z
Si Si1 0.166135 0.777363 0.419010
Si Si2 0.855832 0.144168 0.642188
Si Si3 0.500000 0.095322 0.267188
Si Si4 0.000000 0.638671 0.767189
Si Si5 0.777362 0.166136 0.365366
O O1 0.198740 0.771315 0.265232
O O2 0.187091 0.626692 0.474663
O O3 0.265477 0.869012 0.505227
O O4 0.012523 0.832703 0.431126
O O5 0.771314 0.198740 0.519144
O O6 0.012523 0.167299 0.603249
O O7 0.543747 0.003228 0.144511
O O8 0.626691 0.187093 0.309714
O O9 0.456253 0.003229 0.389867
O O10 0.130989 0.734522 0.779150
#
# Coordination Sequence:
#
# PCOD8302019 Si02
#       5
#     4   4   4   4   4
#     4  11  22  40  67 100 137 170 221 278 342 390
#     4  10  20  38  68 100 128 176 210 282 330 408
#     4  12  26  38  66 106 132 174 228 274 332 408
#     4  12  24  44  66  98 140 182 214 292 334 400
#     4  11  22  40  67 100 137 170 221 278 342 390
#
# _framework density 20.072420000000001
#
# number of rings (size 3 to 8) (size 9 to 14) (size 15 to 20)
#    0.000    0.800    4.000    6.000    0.000    0.000 
#    0.000    0.000    0.000    9.600    0.000    0.000 
#    0.000    0.000    0.000    0.000    0.000    0.000 
#
# Total GULP energy -247962.109487 kJ/mol
# GULP energy per Si atom -12398.105474 kJ/mol
# Density = 2.002673 g / cm^3
# Si number density = 20.072420 Si / 1000 Ang^3
#
#
#
# Elastic Constant Matrix: (Units=GPa)
#
#
# Indices 1 2 3 4 5 6 
#
# 1 114.0846 56.4072 55.2688 0.0000 0.0000 0.0001
# 2 56.4072 114.0846 55.2688 0.0000 0.0000 -0.0001
# 3 55.2688 55.2688 162.1596 0.0000 0.0000 0.0000
# 4 0.0000 0.0000 0.0000 36.4351 0.0000 0.0000
# 5 0.0000 0.0000 0.0000 0.0000 36.4351 0.0000
# 6 0.0001 -0.0001 0.0000 0.0000 0.0000 5.4229
#
#
#
# Elastic Compliance Matrix: (Units=1/GPa)
#
#
# Indices 1 2 3 4 5 6 
#
# 1 0.012433 -0.004904 -0.002566 0.000000 0.000000 0.000000
# 2 -0.004904 0.012433 -0.002566 0.000000 0.000000 0.000000
# 3 -0.002566 -0.002566 0.007916 0.000000 0.000000 0.000000
# 4 0.000000 0.000000 0.000000 0.027446 0.000000 0.000000
# 5 0.000000 0.000000 0.000000 0.000000 0.027446 0.000000
# 6 0.000000 0.000000 0.000000 0.000000 0.000000 0.184402
#
#
# Mechanical properties :
#
#
# Convention : Reuss Voigt Hill
#
# Bulk Modulus (GPa) = 78.68026 80.46872 79.57449
# Shear Modulus (GPa) = 16.86984 30.55090 23.71037
#
# Velocity S-wave (km/s) = 2.90219 3.90556 3.44065
# Velocity P-wave (km/s) = 7.10729 7.77908 7.45076
#
# Compressibility (1/GPa) = 0.01270967
#
# Stress axis : x y z
#
# Youngs Moduli (GPa) = 80.42798 80.42798 126.32626
#
# Poissons Ratio (x) = 0.39445 0.32417
# Poissons Ratio (y) = 0.39445 0.32417
# Poissons Ratio (z) = 0.20639 0.20639
#
# Static dielectric constant tensor:
#      x y z
#    x 3.538600 0.000000 0.000000 
#    y 0.000000 3.538600 0.000000 
#    z 0.000000 0.000000 4.316120 
# 
# 
# High freq. dielectric constant tensor:
#      x y z
#    x 1.756550 0.000000 0.000000 
#    y 0.000000 1.756550 0.000000 
#    z 0.000000 0.000000 1.822480 
# 
# From -- ./inp_files/825.got.cif
#   From: 2010.03.12/outbox.cif.g09.slc.cpg/sg78_cif.got.tgz:825.got - 2010.04.16 16:37:20.
