data_PCOD8302626
_publ_section_title
;
Structure prediction by ZEFSAII (Michael W. Deem and Ramdas Pophale) SiO2 
 PCOD8302626
Probable space group: P 4/M
;
_chemical_formula_sum "Si O2"
_cell_formula_units_Z 64
_cell_length_a 20.348666
_cell_length_b 20.348666
_cell_length_c 9.419984
_cell_angle_alpha 90.000000
_cell_angle_beta 90.000000
_cell_angle_gamma 90.000000
_cell_volume 3900.515894
_symmetry_space_group_name_H-M "P 4/M"
_symmetry_group_IT_number 83
_symmetry_cell_setting 'tetragonal'
loop_
_space_group_symop_operation_xyz
x,y,z
-y,x,z
-x,-y,z
y,-x,z
-x,-y,-z
y,-x,-z
x,y,-z
-y,x,-z
loop_
_atom_site_type_symbol
_atom_site_label
_atom_site_fract_x
_atom_site_fract_y
_atom_site_fract_z
Si Si1 0.817754 0.710980 0.834524
Si Si2 0.380893 0.694253 0.156494
Si Si3 0.490631 0.235885 0.160867
Si Si4 0.080127 0.642815 0.333265
Si Si5 0.502626 0.115326 0.663860
Si Si6 0.620756 0.705940 0.655088
Si Si7 0.194165 0.736478 0.657937
Si Si8 0.066801 0.356632 0.336772
O O1 0.762771 0.655572 0.814119
O O2 0.795063 0.779947 0.760499
O O3 0.883841 0.683133 0.763192
O O4 0.831652 0.725330 0.000000
O O5 0.458922 0.703610 0.165485
O O6 0.362833 0.638109 0.269486
O O7 0.360787 0.668768 0.000000
O O8 0.525467 0.175473 0.238568
O O9 0.426031 0.251966 0.247087
O O10 0.471921 0.217347 0.000000
O O11 0.092332 0.639927 0.500000
O O12 0.089780 0.567836 0.276686
O O13 0.132086 0.696747 0.272439
O O14 0.006706 0.666797 0.296204
O O15 0.495577 0.137331 0.500000
O O16 0.563570 0.065083 0.681100
O O17 0.589535 0.692245 0.500000
O O18 0.687007 0.746012 0.639306
O O19 0.176434 0.764436 0.500000
O O20 0.084212 0.339450 0.500000
#
# Coordination Sequence:
#
# PCOD8302626 Si02
#       8
#     8   8   8   8   8   8   8   8
#     4  10  19  32  47  66  95 124 159 200 236 275
#     4   9  19  33  47  65  90 122 154 190 238 286
#     4  11  20  31  48  68  94 123 154 191 236 287
#     4   9  17  31  48  70  98 128 162 200 235 277
#     4  10  18  30  46  68  96 129 166 198 227 268
#     4  10  19  31  49  71  90 114 152 199 243 281
#     4   9  17  31  49  68  92 121 159 200 237 275
#     4  10  19  30  49  71  96 131 165 195 236 279
#
# _framework density 16.408086000000001
#
# number of rings (size 3 to 8) (size 9 to 14) (size 15 to 20)
#    0.000    2.250    2.500    1.500    0.000    3.500 
#    0.000    1.250    0.000    1.875    0.000    2.625 
#    0.000    0.500    0.000    5.750    0.000    2.250 
#
# Total GULP energy -793105.619840 kJ/mol
# GULP energy per Si atom -12392.275310 kJ/mol
# Density = 1.637074 g / cm^3
# Si number density = 16.408086 Si / 1000 Ang^3
#
#
#
# Elastic Constant Matrix: (Units=GPa)
#
#
# Indices 1 2 3 4 5 6 
#
# 1 54.0037 35.0567 34.6573 0.0000 0.0000 -1.2022
# 2 35.0567 54.0037 34.6573 0.0000 0.0000 1.2022
# 3 34.6573 34.6573 94.8425 0.0000 0.0000 0.0000
# 4 0.0000 0.0000 0.0000 15.4780 0.0000 0.0000
# 5 0.0000 0.0000 0.0000 0.0000 15.4780 0.0000
# 6 -1.2022 1.2022 0.0000 0.0000 0.0000 20.5175
#
#
#
# Elastic Compliance Matrix: (Units=1/GPa)
#
#
# Indices 1 2 3 4 5 6 
#
# 1 0.034432 -0.018742 -0.005734 0.000000 0.000000 0.003116
# 2 -0.018742 0.034432 -0.005734 0.000000 0.000000 -0.003116
# 3 -0.005734 -0.005734 0.014734 0.000000 0.000000 0.000000
# 4 0.000000 0.000000 0.000000 0.064608 0.000000 0.000000
# 5 0.000000 0.000000 0.000000 0.000000 0.064608 0.000000
# 6 0.003116 -0.003116 0.000000 0.000000 0.000000 0.049104
#
#
# Mechanical properties :
#
#
# Convention : Reuss Voigt Hill
#
# Bulk Modulus (GPa) = 43.13886 45.73249 44.43567
# Shear Modulus (GPa) = 15.14858 16.85996 16.00427
#
# Velocity S-wave (km/s) = 3.04178 3.20900 3.12651
# Velocity P-wave (km/s) = 6.21972 6.45466 6.33828
#
# Compressibility (1/GPa) = 0.02318096
#
# Stress axis : x y z
#
# Youngs Moduli (GPa) = 29.04234 29.04234 67.86921
#
# Poissons Ratio (x) = 0.54430 0.38914
# Poissons Ratio (y) = 0.54430 0.38914
# Poissons Ratio (z) = 0.16652 0.16652
#
# Static dielectric constant tensor:
#      x y z
#    x 2.942600 0.000000 0.000000 
#    y 0.000000 2.942600 0.000000 
#    z 0.000000 0.000000 3.264220 
# 
# 
# High freq. dielectric constant tensor:
#      x y z
#    x 1.605500 0.000000 0.000000 
#    y 0.000000 1.605500 0.000000 
#    z 0.000000 0.000000 1.630360 
# 
# From -- ./inp_files/1290.got.cif
#   From: 2010.03.12/outbox.cif.g09.slc.cpg/sg83_1_cif.got.tgz:1290.got - 2010.04.08 20:05:18.
