data_PCOD8302432
_publ_section_title
;
Structure prediction by ZEFSAII (Michael W. Deem and Ramdas Pophale) SiO2 
 PCOD8302432
Probable space group: I -4 
;
_chemical_formula_sum "Si O2"
_cell_formula_units_Z 56
_cell_length_a 14.998015
_cell_length_b 14.998015
_cell_length_c 12.082611
_cell_angle_alpha 90.000000
_cell_angle_beta 90.000000
_cell_angle_gamma 90.000000
_cell_volume 2717.868003
_symmetry_space_group_name_H-M "I -4 "
_symmetry_group_IT_number 82
_symmetry_cell_setting 'tetragonal'
loop_
_space_group_symop_operation_xyz
x,y,z
y,-x,-z
-x,-y,z
-y,x,-z
1/2+x,1/2+y,1/2+z
1/2+y,1/2-x,1/2-z
1/2-x,1/2-y,1/2+z
1/2-y,1/2+x,1/2-z
loop_
_atom_site_type_symbol
_atom_site_label
_atom_site_fract_x
_atom_site_fract_y
_atom_site_fract_z
Si Si1 0.393006 0.909617 0.713756
Si Si2 0.674839 0.847463 0.436428
Si Si3 0.910996 0.171687 0.719482
Si Si4 0.594799 0.763308 0.229006
Si Si5 0.712283 0.757477 0.657368
Si Si6 0.967107 0.877557 0.447700
Si Si7 0.671557 0.036627 0.492271
O O1 0.489622 0.874546 0.746770
O O2 0.316865 0.849908 0.765874
O O3 0.385498 0.905959 0.579638
O O4 0.767000 0.875828 0.380317
O O5 0.604589 0.812390 0.346469
O O6 0.695790 0.772739 0.527758
O O7 0.634369 0.935149 0.496080
O O8 0.847449 0.190037 0.824572
O O9 0.900982 0.070584 0.674844
O O10 0.014349 0.192909 0.744529
O O11 0.687353 0.716556 0.193909
O O12 0.573448 0.836655 0.133185
O O13 0.959358 0.774142 0.471733
O O14 0.069434 0.910282 0.457386
#
# Coordination Sequence:
#
# PCOD8302432 Si02
#       7
#     8   8   8   8   8   8   8
#     4  11  24  43  64  99 130 172 226 281 343 414
#     4  10  21  40  62  94 129 175 221 274 332 407
#     4  10  21  40  63 101 128 173 227 271 350 411
#     4  10  23  39  67  96 135 174 230 278 335 427
#     4  11  22  40  69  94 135 177 219 283 348 405
#     4  11  20  31  63  98 130 161 213 295 335 396
#     4  11  21  41  67  94 133 173 229 279 346 408
#
# _framework density 20.604386000000002
#
# number of rings (size 3 to 8) (size 9 to 14) (size 15 to 20)
#    0.000    1.429    5.714    0.857    2.000    0.000 
#    7.714    0.000    0.000    3.857    0.000    0.000 
#    0.000    0.000    0.000    0.000    0.000    0.000 
#
# Total GULP energy -347112.393416 kJ/mol
# GULP energy per Si atom -12396.871193 kJ/mol
# Density = 2.055749 g / cm^3
# Si number density = 20.604386 Si / 1000 Ang^3
#
#
#
# Elastic Constant Matrix: (Units=GPa)
#
#
# Indices 1 2 3 4 5 6 
#
# 1 96.0827 32.9781 49.9499 0.0000 0.0000 -3.1734
# 2 32.9781 96.0827 49.9499 0.0000 0.0000 3.1734
# 3 49.9499 49.9499 121.7942 0.0000 0.0000 0.0000
# 4 0.0000 0.0000 0.0000 33.6702 0.0000 0.0000
# 5 0.0000 0.0000 0.0000 0.0000 33.6702 0.0000
# 6 -3.1734 3.1734 0.0000 0.0000 0.0000 21.9938
#
#
#
# Elastic Compliance Matrix: (Units=1/GPa)
#
#
# Indices 1 2 3 4 5 6 
#
# 1 0.013716 -0.002364 -0.004656 0.000000 0.000000 0.002320
# 2 -0.002364 0.013716 -0.004656 0.000000 0.000000 -0.002320
# 3 -0.004656 -0.004656 0.012029 0.000000 0.000000 0.000000
# 4 0.000000 0.000000 0.000000 0.029700 0.000000 0.000000
# 5 0.000000 0.000000 0.000000 0.000000 0.029700 0.000000
# 6 0.002320 -0.002320 0.000000 0.000000 0.000000 0.046137
#
#
# Mechanical properties :
#
#
# Convention : Reuss Voigt Hill
#
# Bulk Modulus (GPa) = 62.07059 64.41285 63.24172
# Shear Modulus (GPa) = 28.78214 29.93895 29.36054
#
# Velocity S-wave (km/s) = 3.74156 3.81601 3.77897
# Velocity P-wave (km/s) = 6.98971 7.12359 7.05696
#
# Compressibility (1/GPa) = 0.01611069
#
# Stress axis : x y z
#
# Youngs Moduli (GPa) = 72.90744 72.90744 83.13035
#
# Poissons Ratio (x) = 0.17235 0.38703
# Poissons Ratio (y) = 0.17235 0.38703
# Poissons Ratio (z) = 0.33943 0.33943
#
# Static dielectric constant tensor:
#      x y z
#    x 3.830620 0.000000 0.000000 
#    y 0.000000 3.830620 0.000000 
#    z 0.000000 0.000000 3.957580 
# 
# 
# High freq. dielectric constant tensor:
#      x y z
#    x 1.799180 0.000000 0.000000 
#    y 0.000000 1.799180 0.000000 
#    z 0.000000 0.000000 1.798610 
# 
# From -- ./inp_files/1862.got.cif
#   From: 2010.03.12/outbox.cif.g09.slc.cpg/sg82_1_cif.got.tgz:1862.got - 2010.04.08 20:02:50.
