data_PCOD8302703
_publ_section_title
;
Structure prediction by ZEFSAII (Michael W. Deem and Ramdas Pophale) SiO2 
 PCOD8302703
Probable space group: P 4/M
;
_chemical_formula_sum "Si O2"
_cell_formula_units_Z 64
_cell_length_a 11.724470
_cell_length_b 11.724470
_cell_length_c 24.447134
_cell_angle_alpha 90.000000
_cell_angle_beta 90.000000
_cell_angle_gamma 90.000000
_cell_volume 3360.581192
_symmetry_space_group_name_H-M "P 4/M"
_symmetry_group_IT_number 83
_symmetry_cell_setting 'tetragonal'
loop_
_space_group_symop_operation_xyz
x,y,z
-y,x,z
-x,-y,z
y,-x,z
-x,-y,-z
y,-x,-z
x,y,-z
-y,x,-z
loop_
_atom_site_type_symbol
_atom_site_label
_atom_site_fract_x
_atom_site_fract_y
_atom_site_fract_z
Si Si1 0.976901 0.176095 0.064476
Si Si2 0.456248 0.321632 0.289682
Si Si3 0.396985 0.087344 0.877346
Si Si4 0.539888 0.683233 0.936873
Si Si5 0.994181 0.363521 0.644912
Si Si6 0.602872 0.766882 0.404519
Si Si7 0.606608 0.921382 0.757257
Si Si8 0.637900 0.182623 0.440490
O O1 0.961308 0.304756 0.081712
O O2 0.097063 0.126544 0.086717
O O3 0.977832 0.172224 0.000000
O O4 0.582815 0.363375 0.273382
O O5 0.451903 0.302277 0.354490
O O6 0.431386 0.204818 0.259495
O O7 0.438229 0.212524 0.895779
O O8 0.336174 0.091229 0.816970
O O9 0.500000 0.000000 0.879917
O O10 0.414123 0.633757 0.925249
O O11 0.549087 0.723753 0.000000
O O12 0.879584 0.327355 0.613802
O O13 0.982112 0.318211 0.708271
O O14 0.000000 0.500000 0.650004
O O15 0.103284 0.318844 0.610403
O O16 0.691688 0.689699 0.436720
O O17 0.498699 0.806061 0.442545
O O18 0.500000 0.000000 0.768821
O O19 0.673155 0.130658 0.500000
#
# Coordination Sequence:
#
# PCOD8302703 Si02
#       8
#     8   8   8   8   8   8   8   8
#     4   9  20  40  62  83 111 149 192 237 288 348
#     4  10  19  34  57  81 108 147 189 220 271 343
#     4  11  23  36  56  89 118 146 192 249 298 340
#     4   9  20  38  58  83 122 166 198 232 285 347
#     4   8  18  36  55  69 100 145 186 216 255 322
#     4  10  19  33  50  78 109 136 172 222 268 319
#     4   9  20  38  53  77 111 148 187 236 275 315
#     4  11  21  32  52  80 110 141 173 217 274 333
#
# _framework density 19.044324
#
# number of rings (size 3 to 8) (size 9 to 14) (size 15 to 20)
#    0.000    2.375    1.250    2.250    1.750    5.000 
#    2.250    1.875    0.000    0.375    0.000    0.875 
#    0.000    0.000    0.000    0.000    0.000    0.000 
#
# Total GULP energy -792987.106835 kJ/mol
# GULP energy per Si atom -12390.423544 kJ/mol
# Density = 1.900098 g / cm^3
# Si number density = 19.044324 Si / 1000 Ang^3
#
#
#
# Elastic Constant Matrix: (Units=GPa)
#
#
# Indices 1 2 3 4 5 6 
#
# 1 84.2586 30.2090 39.4859 0.0000 0.0000 2.9149
# 2 30.2090 84.2586 39.4859 0.0000 0.0000 -2.9149
# 3 39.4859 39.4859 101.9289 0.0000 0.0000 0.0000
# 4 0.0000 0.0000 0.0000 -9.7956 0.0000 0.0000
# 5 0.0000 0.0000 0.0000 0.0000 -9.7956 0.0000
# 6 2.9149 -2.9149 0.0000 0.0000 0.0000 11.3198
#
#
#
# Elastic Compliance Matrix: (Units=1/GPa)
#
#
# Indices 1 2 3 4 5 6 
#
# 1 0.015476 -0.003554 -0.004619 0.000000 0.000000 -0.004900
# 2 -0.003554 0.015476 -0.004619 0.000000 0.000000 0.004900
# 3 -0.004619 -0.004619 0.013389 0.000000 0.000000 0.000000
# 4 0.000000 0.000000 0.000000 -0.102087 0.000000 0.000000
# 5 0.000000 0.000000 0.000000 0.000000 -0.102087 0.000000
# 6 -0.004900 0.004900 0.000000 0.000000 0.000000 0.090865
#
#
# Mechanical properties :
#
#
# Convention : Reuss Voigt Hill
#
# Bulk Modulus (GPa) = 53.30583 54.31198 53.80890
# Shear Modulus (GPa) = -134.65559 9.09674 -62.77943
#
# Velocity S-wave (km/s) = -8.41783 2.18792 -5.74774
# Velocity P-wave (km/s) = 8.15038 5.91298 3.96645
#
# Compressibility (1/GPa) = 0.01875967
#
# Stress axis : x y z
#
# Youngs Moduli (GPa) = 64.61504 64.61504 74.68733
#
# Poissons Ratio (x) = 0.22963 0.34495
# Poissons Ratio (y) = 0.22963 0.34495
# Poissons Ratio (z) = 0.29843 0.29843
#
# Static dielectric constant tensor:
#      x y z
#    x 3.415660 0.000000 0.000000 
#    y 0.000000 3.415660 0.000000 
#    z 0.000000 0.000000 3.747750 
# 
# 
# High freq. dielectric constant tensor:
#      x y z
#    x 1.722990 0.000000 0.000000 
#    y 0.000000 1.722990 0.000000 
#    z 0.000000 0.000000 1.744910 
# 
# From -- ./inp_files/3206.got.cif
#   From: 2010.03.12/outbox.cif.g09.slc.cpg/sg83_2_cif.got.tgz:3206.got - 2010.04.08 20:05:18.
