data_PCOD8302533
_publ_section_title
;
Structure prediction by ZEFSAII (Michael W. Deem and Ramdas Pophale) SiO2 
 PCOD8302533
Probable space group: I -4 
;
_chemical_formula_sum "Si O2"
_cell_formula_units_Z 42
_cell_length_a 8.973233
_cell_length_b 8.973233
_cell_length_c 24.697219
_cell_angle_alpha 90.000000
_cell_angle_beta 90.000000
_cell_angle_gamma 90.000000
_cell_volume 1988.593166
_symmetry_space_group_name_H-M "I -4 "
_symmetry_group_IT_number 82
_symmetry_cell_setting 'tetragonal'
loop_
_space_group_symop_operation_xyz
x,y,z
y,-x,-z
-x,-y,z
-y,x,-z
1/2+x,1/2+y,1/2+z
1/2+y,1/2-x,1/2-z
1/2-x,1/2-y,1/2+z
1/2-y,1/2+x,1/2-z
loop_
_atom_site_type_symbol
_atom_site_label
_atom_site_fract_x
_atom_site_fract_y
_atom_site_fract_z
Si Si1 0.677587 0.164131 0.885968
Si Si2 0.313304 0.651109 0.989395
Si Si3 0.727188 0.779510 0.297806
Si Si4 0.670373 0.830779 0.903111
Si Si5 0.500000 0.000000 0.250000
Si Si6 0.159296 0.948632 0.788862
O O1 0.500770 0.183075 0.884220
O O2 0.757624 0.176836 0.827138
O O3 0.727648 0.998244 0.900891
O O4 0.734991 0.282271 0.931054
O O5 0.204447 0.710248 0.035367
O O6 0.474128 0.701193 0.010857
O O7 0.742443 0.781415 0.362971
O O8 0.572171 0.865194 0.285067
O O9 0.865724 0.862013 0.268667
O O10 0.744778 0.605150 0.280066
O O11 0.000000 0.000000 0.813023
#
# Coordination Sequence:
#
# PCOD8302533 Si02
#       6
#     8   8   8   8   2   8
#     4   9  19  37  60  84 118 156 204 254 298 358
#     4   9  18  36  58  88 117 152 200 252 301 360
#     4  11  23  41  61  88 124 159 205 250 312 371
#     4   9  19  38  60  86 115 156 207 249 300 369
#     4  12  24  40  56  88 132 156 188 256 312 378
#     4  11  22  40  62  89 124 164 209 253 310 378
#
# _framework density 21.120460000000001
#
# number of rings (size 3 to 8) (size 9 to 14) (size 15 to 20)
#    0.000    2.095    1.905    1.143    0.000    3.429 
#   13.714    1.905    0.000    0.000    0.000    0.000 
#    0.000    0.000    0.000    0.000    0.000    0.000 
#
# Total GULP energy -260155.835888 kJ/mol
# GULP energy per Si atom -12388.373138 kJ/mol
# Density = 2.107239 g / cm^3
# Si number density = 21.120460 Si / 1000 Ang^3
#
#
#
# Elastic Constant Matrix: (Units=GPa)
#
#
# Indices 1 2 3 4 5 6 
#
# 1 58.6494 14.3178 23.6363 0.0000 0.0000 -16.7608
# 2 14.3178 58.6494 23.6363 0.0000 0.0000 16.7608
# 3 23.6363 23.6363 50.8212 0.0000 0.0000 0.0000
# 4 0.0000 0.0000 0.0000 33.4856 0.0000 0.0000
# 5 0.0000 0.0000 0.0000 0.0000 33.4856 0.0000
# 6 -16.7608 16.7608 0.0000 0.0000 0.0000 -176.5596
#
#
#
# Elastic Compliance Matrix: (Units=1/GPa)
#
#
# Indices 1 2 3 4 5 6 
#
# 1 0.020331 -0.000716 -0.009123 0.000000 0.000000 -0.001998
# 2 -0.000716 0.020331 -0.009123 0.000000 0.000000 0.001998
# 3 -0.009123 -0.009123 0.028163 0.000000 0.000000 0.000000
# 4 0.000000 0.000000 0.000000 0.029864 0.000000 0.000000
# 5 0.000000 0.000000 0.000000 0.000000 0.029864 0.000000
# 6 -0.001998 0.001998 0.000000 0.000000 0.000000 -0.005284
#
#
# Mechanical properties :
#
#
# Convention : Reuss Voigt Hill
#
# Bulk Modulus (GPa) = 32.36061 32.36678 32.36370
# Shear Modulus (GPa) = 29.15630 -14.81568 7.17031
#
# Velocity S-wave (km/s) = 3.71951 -2.65143 1.84454
# Velocity P-wave (km/s) = 5.81391 2.44636 4.46017
#
# Compressibility (1/GPa) = 0.03090176
#
# Stress axis : x y z
#
# Youngs Moduli (GPa) = 49.18656 49.18656 35.50817
#
# Poissons Ratio (x) = 0.03520 0.32393
# Poissons Ratio (y) = 0.03520 0.32393
# Poissons Ratio (z) = 0.44871 0.44871
#
# Static dielectric constant tensor:
#      x y z
#    x 3.750880 0.000000 0.000000 
#    y 0.000000 3.750880 0.000000 
#    z 0.000000 0.000000 4.565260 
# 
# 
# High freq. dielectric constant tensor:
#      x y z
#    x 1.818210 0.000000 0.000000 
#    y 0.000000 1.818210 0.000000 
#    z 0.000000 0.000000 1.822730 
# 
# From -- ./inp_files/3725.got.cif
#   From: 2010.03.12/outbox.cif.g09.slc.cpg/sg82_2_cif.got.tgz:3725.got - 2010.04.08 20:02:50.
