data_PCOD8302947
_publ_section_title
;
Structure prediction by ZEFSAII (Michael W. Deem and Ramdas Pophale) SiO2 
 PCOD8302947
Probable space group: P 4/M
;
_chemical_formula_sum "Si O2"
_cell_formula_units_Z 48
_cell_length_a 8.575664
_cell_length_b 8.575664
_cell_length_c 30.603005
_cell_angle_alpha 90.000000
_cell_angle_beta 90.000000
_cell_angle_gamma 90.000000
_cell_volume 2250.606593
_symmetry_space_group_name_H-M "P 4/M"
_symmetry_group_IT_number 83
_symmetry_cell_setting 'tetragonal'
loop_
_space_group_symop_operation_xyz
x,y,z
-y,x,z
-x,-y,z
y,-x,z
-x,-y,-z
y,-x,-z
x,y,-z
-y,x,-z
loop_
_atom_site_type_symbol
_atom_site_label
_atom_site_fract_x
_atom_site_fract_y
_atom_site_fract_z
Si Si1 0.761148 0.912041 0.826756
Si Si2 0.407655 0.258781 0.000000
Si Si3 0.734381 0.389380 0.500000
Si Si4 0.591689 0.737408 0.243769
Si Si5 0.237659 0.096750 0.074774
Si Si6 0.607510 0.732707 0.657659
Si Si7 0.891242 0.234288 0.419558
O O1 0.631115 0.870102 0.791243
O O2 0.699034 0.883041 0.875866
O O3 0.909848 0.803500 0.819190
O O4 0.588180 0.300768 0.000000
O O5 0.372763 0.155238 0.957283
O O6 0.704885 0.573274 0.500000
O O7 0.835799 0.348161 0.457763
O O8 0.412924 0.697712 0.235957
O O9 0.625221 0.796205 0.292954
O O10 0.083433 0.198813 0.066101
O O11 0.425832 0.702368 0.648722
O O12 0.677546 0.863756 0.626179
O O13 0.074301 0.204249 0.423252
#
# Coordination Sequence:
#
# PCOD8302947 Si02
#       7
#     8   4   4   8   8   8   8
#     4   9  19  35  54  78 107 137 173 218 264 312
#     4  11  24  37  50  76 110 137 166 211 264 314
#     4  11  24  41  62  86 110 141 182 223 264 316
#     4   9  19  35  54  78 109 143 179 221 266 312
#     4   9  19  37  58  77 100 135 177 217 259 311
#     4   9  19  37  58  79 106 143 186 225 263 314
#     4  11  24  39  56  83 116 145 177 221 270 317
#
# _framework density 21.327584000000002
#
# number of rings (size 3 to 8) (size 9 to 14) (size 15 to 20)
#    0.000    2.333    0.000    4.000    0.000   10.667 
#    0.000   10.000    0.000    0.000    0.000    0.000 
#    0.000    0.000    0.000    0.000    0.000    0.000 
#
# Total GULP energy -595290.113883 kJ/mol
# GULP energy per Si atom -12401.877373 kJ/mol
# Density = 2.127904 g / cm^3
# Si number density = 21.327584 Si / 1000 Ang^3
#
#
#
# Elastic Constant Matrix: (Units=GPa)
#
#
# Indices 1 2 3 4 5 6 
#
# 1 18.4153 -9.8218 10.6174 0.0000 0.0000 0.5080
# 2 -9.8218 18.4153 10.6174 0.0000 0.0000 -0.5080
# 3 10.6174 10.6174 112.2573 0.0000 0.0000 0.0000
# 4 0.0000 0.0000 0.0000 3.2245 0.0000 0.0000
# 5 0.0000 0.0000 0.0000 0.0000 3.2245 0.0000
# 6 0.5080 -0.5080 0.0000 0.0000 0.0000 37.4178
#
#
#
# Elastic Compliance Matrix: (Units=1/GPa)
#
#
# Indices 1 2 3 4 5 6 
#
# 1 0.093645 0.058214 -0.014363 0.000000 0.000000 -0.000481
# 2 0.058214 0.093645 -0.014363 0.000000 0.000000 0.000481
# 3 -0.014363 -0.014363 0.011625 0.000000 0.000000 0.000000
# 4 0.000000 0.000000 0.000000 0.310129 0.000000 0.000000
# 5 0.000000 0.000000 0.000000 0.000000 0.310129 0.000000
# 6 -0.000481 0.000481 0.000000 0.000000 0.000000 0.026738
#
#
# Mechanical properties :
#
#
# Convention : Reuss Voigt Hill
#
# Bulk Modulus (GPa) = 3.87761 19.10151 11.48956
# Shear Modulus (GPa) = 5.72803 17.95167 11.83985
#
# Velocity S-wave (km/s) = 1.64060 2.90437 2.35870
# Velocity P-wave (km/s) = 2.32612 4.49698 3.58006
#
# Compressibility (1/GPa) = 0.25789100
#
# Stress axis : x y z
#
# Youngs Moduli (GPa) = 10.67860 10.67860 86.02145
#
# Poissons Ratio (x) = -0.62164 1.23552
# Poissons Ratio (y) = -0.62164 1.23552
# Poissons Ratio (z) = 0.15338 0.15338
#
# Static dielectric constant tensor:
#      x y z
#    x 3.674370 0.000000 0.000000 
#    y 0.000000 3.674370 0.000000 
#    z 0.000000 0.000000 3.895510 
# 
# 
# High freq. dielectric constant tensor:
#      x y z
#    x 1.830980 0.000000 0.000000 
#    y 0.000000 1.830980 0.000000 
#    z 0.000000 0.000000 1.845790 
# 
# From -- ./inp_files/3438.got.cif
#   From: 2010.03.12/outbox.cif.g09.slc.cpg/sg83_2_cif.got.tgz:3438.got - 2010.04.08 20:05:18.
