data_PCOD8302022
_publ_section_title
;
Structure prediction by ZEFSAII (Michael W. Deem and Ramdas Pophale) SiO2 
 PCOD8302022
Probable space group: P 43
;
_chemical_formula_sum "Si O2"
_cell_formula_units_Z 32
_cell_length_a 8.890891
_cell_length_b 8.890891
_cell_length_c 20.280930
_cell_angle_alpha 90.000000
_cell_angle_beta 90.000000
_cell_angle_gamma 90.000000
_cell_volume 1603.165794
_symmetry_space_group_name_H-M "P 43"
_symmetry_group_IT_number 78
_symmetry_cell_setting 'tetragonal'
loop_
_space_group_symop_operation_xyz
x,y,z
-y,x,3/4+z
-x,-y,1/2+z
y,-x,1/4+z
loop_
_atom_site_type_symbol
_atom_site_label
_atom_site_fract_x
_atom_site_fract_y
_atom_site_fract_z
Si Si1 0.826219 0.822843 0.629060
Si Si2 0.326918 0.673082 0.257394
Si Si3 0.320410 0.679590 0.757394
Si Si4 0.665857 0.324390 0.514965
Si Si5 0.822843 0.826219 0.385728
Si Si6 0.324390 0.665857 0.499823
Si Si7 0.326386 0.140510 0.378962
Si Si8 0.326386 0.859490 0.885826
O O1 0.719258 0.766991 0.571036
O O2 0.771078 0.759824 0.698507
O O3 0.995510 0.772624 0.613843
O O4 0.819075 1.000000 0.632394
O O5 0.501099 0.706388 0.269917
O O6 0.280741 0.766991 0.193752
O O7 0.293612 0.498901 0.244870
O O8 0.297228 0.508814 0.781850
O O9 0.491186 0.702773 0.732938
O O10 0.212498 0.724873 0.697736
O O11 0.275127 0.787502 0.817051
O O12 0.771078 0.240177 0.566281
O O13 0.701787 0.264018 0.442154
O O14 0.772624 0.995510 0.400945
O O15 0.264018 0.701787 0.572634
O O16 0.500000 0.091961 0.382394
#
# Coordination Sequence:
#
# PCOD8302022 Si02
#       8
#     4   4   4   4   4   4   4   4
#     4  12  25  39  57  88 126 158 192 238 296 353
#     4  11  22  41  66  88 114 153 202 247 290 346
#     4   9  20  39  64  90 114 151 202 249 290 342
#     4  10  21  40  65  89 114 152 202 248 290 344
#     4  12  25  39  57  88 126 158 192 238 296 353
#     4  10  21  40  65  89 114 152 202 248 290 344
#     4  10  21  39  61  87 120 155 194 241 294 349
#     4  10  21  39  61  87 120 155 194 241 294 349
#
# _framework density 19.960505000000001
#
# number of rings (size 3 to 8) (size 9 to 14) (size 15 to 20)
#    0.000    1.500    0.000    5.250    0.000    9.000 
#    0.000    2.500    0.000    0.000    0.000    0.000 
#    0.000    0.000    0.000    0.000    0.000    0.000 
#
# Total GULP energy -397020.216655 kJ/mol
# GULP energy per Si atom -12406.881770 kJ/mol
# Density = 1.991507 g / cm^3
# Si number density = 19.960505 Si / 1000 Ang^3
#
#
#
# Elastic Constant Matrix: (Units=GPa)
#
#
# Indices 1 2 3 4 5 6 
#
# 1 116.1807 54.7864 45.1787 0.0000 0.0000 0.0000
# 2 54.7864 116.1807 45.1787 0.0000 0.0000 0.0000
# 3 45.1787 45.1787 109.3303 0.0000 0.0000 0.0000
# 4 0.0000 0.0000 0.0000 24.9163 0.0000 0.0000
# 5 0.0000 0.0000 0.0000 0.0000 24.9163 0.0000
# 6 0.0000 0.0000 0.0000 0.0000 0.0000 30.0840
#
#
#
# Elastic Compliance Matrix: (Units=1/GPa)
#
#
# Indices 1 2 3 4 5 6 
#
# 1 0.011886 -0.004402 -0.003092 0.000000 0.000000 0.000000
# 2 -0.004402 0.011886 -0.003092 0.000000 0.000000 0.000000
# 3 -0.003092 -0.003092 0.011702 0.000000 0.000000 0.000000
# 4 0.000000 0.000000 0.000000 0.040134 0.000000 0.000000
# 5 0.000000 0.000000 0.000000 0.000000 0.040134 0.000000
# 6 0.000000 0.000000 0.000000 0.000000 0.000000 0.033240
#
#
# Mechanical properties :
#
#
# Convention : Reuss Voigt Hill
#
# Bulk Modulus (GPa) = 69.93180 70.21992 70.07586
# Shear Modulus (GPa) = 28.58388 29.08651 28.83520
#
# Velocity S-wave (km/s) = 3.78831 3.82147 3.80493
# Velocity P-wave (km/s) = 7.36520 7.39779 7.38152
#
# Compressibility (1/GPa) = 0.01429965
#
# Stress axis : x y z
#
# Youngs Moduli (GPa) = 84.13410 84.13410 85.45303
#
# Poissons Ratio (x) = 0.37039 0.26425
# Poissons Ratio (y) = 0.37039 0.26425
# Poissons Ratio (z) = 0.26018 0.26018
#
# Static dielectric constant tensor:
#      x y z
#    x 3.661500 0.000000 0.000000 
#    y 0.000000 3.661500 0.000000 
#    z 0.000000 0.000000 3.735100 
# 
# 
# High freq. dielectric constant tensor:
#      x y z
#    x 1.782570 0.000000 0.000000 
#    y 0.000000 1.782570 0.000000 
#    z 0.000000 0.000000 1.793660 
# 
# From -- ./inp_files/1503.got.cif
#   From: 2010.03.12/outbox.cif.g09.slc.cpg/sg78_cif.got.tgz:1503.got - 2010.04.16 16:37:20.
