data_PCOD8302030
_publ_section_title
;
Structure prediction by ZEFSAII (Michael W. Deem and Ramdas Pophale) SiO2 
 PCOD8302030
Probable space group: P 43
;
_chemical_formula_sum "Si O2"
_cell_formula_units_Z 28
_cell_length_a 12.034631
_cell_length_b 12.034631
_cell_length_c 7.702619
_cell_angle_alpha 90.000000
_cell_angle_beta 90.000000
_cell_angle_gamma 90.000000
_cell_volume 1115.588359
_symmetry_space_group_name_H-M "P 43"
_symmetry_group_IT_number 78
_symmetry_cell_setting 'tetragonal'
loop_
_space_group_symop_operation_xyz
x,y,z
-y,x,3/4+z
-x,-y,1/2+z
y,-x,1/4+z
loop_
_atom_site_type_symbol
_atom_site_label
_atom_site_fract_x
_atom_site_fract_y
_atom_site_fract_z
Si Si1 0.424197 0.906791 0.192030
Si Si2 0.124298 0.682235 0.932996
Si Si3 0.948178 0.251211 0.059508
Si Si4 0.083565 0.894599 0.132323
Si Si5 0.759769 0.635913 0.117860
Si Si6 0.377704 0.551670 0.477345
Si Si7 0.216375 0.293531 0.243244
O O1 0.555996 0.912183 0.222126
O O2 0.366255 0.840464 0.347735
O O3 0.369365 0.029691 0.209328
O O4 0.388472 0.854423 0.008396
O O5 0.056267 0.726137 0.765638
O O6 0.256038 0.684974 0.902983
O O7 0.101602 0.763465 0.096522
O O8 0.838333 0.189275 0.989594
O O9 0.054106 0.172177 0.018435
O O10 0.958507 0.906708 0.200498
O O11 0.673882 0.533804 0.116791
O O12 0.817179 0.652617 0.929254
O O13 0.398989 0.494480 0.293724
O O14 0.292367 0.651844 0.458031
#
# Coordination Sequence:
#
# PCOD8302030 Si02
#       7
#     4   4   4   4   4   4   4
#     4  12  25  49  79 110 159 209 257 332 405 482
#     4  11  27  49  76 116 160 206 272 336 406 490
#     4  11  25  51  75 115 155 208 269 334 400 486
#     4  12  26  50  81 113 153 208 272 335 408 476
#     4  10  22  46  70 109 153 205 261 321 390 473
#     4  10  22  39  67 105 145 200 254 322 378 467
#     4  10  25  46  74 110 155 202 265 322 395 478
#
# _framework density 25.098866000000001
#
# number of rings (size 3 to 8) (size 9 to 14) (size 15 to 20)
#    0.000    1.143    1.429    4.286    4.000    4.571 
#   12.857    0.000    0.000    0.000    0.000    0.000 
#    0.000    0.000    0.000    0.000    0.000    0.000 
#
# Total GULP energy -347139.064765 kJ/mol
# GULP energy per Si atom -12397.823742 kJ/mol
# Density = 2.504174 g / cm^3
# Si number density = 25.098866 Si / 1000 Ang^3
#
#
#
# Elastic Constant Matrix: (Units=GPa)
#
#
# Indices 1 2 3 4 5 6 
#
# 1 123.5736 30.2171 69.8287 0.0000 0.0000 1.4521
# 2 30.2171 123.5736 69.8287 0.0000 0.0000 -1.4521
# 3 69.8287 69.8287 102.2319 0.0000 0.0000 0.0000
# 4 0.0000 0.0000 0.0000 39.3293 0.0000 0.0000
# 5 0.0000 0.0000 0.0000 0.0000 39.3293 0.0000
# 6 1.4521 -1.4521 0.0000 0.0000 0.0000 28.8455
#
#
#
# Elastic Compliance Matrix: (Units=1/GPa)
#
#
# Indices 1 2 3 4 5 6 
#
# 1 0.013926 0.003198 -0.011696 0.000000 0.000000 -0.000540
# 2 0.003198 0.013926 -0.011696 0.000000 0.000000 0.000540
# 3 -0.011696 -0.011696 0.025760 0.000000 0.000000 0.000000
# 4 0.000000 0.000000 0.000000 0.025426 0.000000 0.000000
# 5 0.000000 0.000000 0.000000 0.000000 0.025426 0.000000
# 6 -0.000540 0.000540 0.000000 0.000000 0.000000 0.034722
#
#
# Mechanical properties :
#
#
# Convention : Reuss Voigt Hill
#
# Bulk Modulus (GPa) = 75.63017 76.56982 76.10000
# Shear Modulus (GPa) = 27.17641 33.46780 30.32210
#
# Velocity S-wave (km/s) = 3.29412 3.65559 3.47955
# Velocity P-wave (km/s) = 6.68331 6.95638 6.82121
#
# Compressibility (1/GPa) = 0.01322224
#
# Stress axis : x y z
#
# Youngs Moduli (GPa) = 71.80792 71.80792 38.82040
#
# Poissons Ratio (x) = -0.22961 0.45405
# Poissons Ratio (y) = -0.22961 0.45405
# Poissons Ratio (z) = 0.83988 0.83988
#
# Static dielectric constant tensor:
#      x y z
#    x 4.767820 0.000000 0.000000 
#    y 0.000000 4.767820 0.000000 
#    z 0.000000 0.000000 4.509100 
# 
# 
# High freq. dielectric constant tensor:
#      x y z
#    x 2.008140 0.000000 0.000000 
#    y 0.000000 2.008140 0.000000 
#    z 0.000000 0.000000 2.003280 
# 
# From -- ./inp_files/637.got.cif
#   From: 2010.03.12/outbox.cif.g09.slc.cpg/sg78_cif.got.tgz:637.got - 2010.04.16 16:37:20.
