data_PCOD8302031
_publ_section_title
;
Structure prediction by ZEFSAII (Michael W. Deem and Ramdas Pophale) SiO2 
 PCOD8302031
Probable space group: P 43
;
_chemical_formula_sum "Si O2"
_cell_formula_units_Z 32
_cell_length_a 8.962945
_cell_length_b 8.962945
_cell_length_c 19.162168
_cell_angle_alpha 90.000000
_cell_angle_beta 90.000000
_cell_angle_gamma 90.000000
_cell_volume 1539.380945
_symmetry_space_group_name_H-M "P 43"
_symmetry_group_IT_number 78
_symmetry_cell_setting 'tetragonal'
loop_
_space_group_symop_operation_xyz
x,y,z
-y,x,3/4+z
-x,-y,1/2+z
y,-x,1/4+z
loop_
_atom_site_type_symbol
_atom_site_label
_atom_site_fract_x
_atom_site_fract_y
_atom_site_fract_z
Si Si1 0.747135 0.718629 0.563560
Si Si2 0.682619 0.141019 0.666393
Si Si3 0.611365 0.555219 0.000104
Si Si4 0.693690 0.860572 0.952244
Si Si5 0.102495 0.892180 0.433643
Si Si6 0.493575 0.947992 0.561240
Si Si7 0.768008 0.278152 0.055731
Si Si8 0.575792 0.443182 0.627004
O O1 0.844896 0.653638 0.499651
O O2 0.852291 0.775686 0.625383
O O3 0.634494 0.848519 0.535689
O O4 0.653043 0.588638 0.598047
O O5 0.692727 0.308364 0.636691
O O6 0.845783 0.061525 0.655237
O O7 0.550417 0.046886 0.627698
O O8 0.715457 0.691520 0.976824
O O9 0.477108 0.517057 0.947026
O O10 0.705854 0.406234 0.006121
O O11 0.545738 0.612463 0.072441
O O12 0.645200 0.851325 0.870994
O O13 0.860143 0.936178 0.953064
O O14 0.568885 0.950449 0.997117
O O15 0.115540 0.805222 0.506577
O O16 0.361664 0.834643 0.583566
#
# Coordination Sequence:
#
# PCOD8302031 Si02
#       8
#     4   4   4   4   4   4   4   4
#     4  11  21  40  69  93 129 177 230 274 338 407
#     4  11  23  39  66  93 137 168 218 279 344 396
#     4  12  21  37  66 104 129 164 221 293 338 382
#     4  11  23  39  66  93 137 168 218 279 344 396
#     4  10  24  42  62  92 128 188 218 262 332 430
#     4  10  22  40  64 100 132 168 226 288 332 418
#     4  11  21  40  69  93 129 177 230 274 338 407
#     4  12  21  37  66 104 129 164 221 293 338 382
#
# _framework density 20.787576999999999
#
# number of rings (size 3 to 8) (size 9 to 14) (size 15 to 20)
#    0.000    1.000    6.250    0.750    3.500    0.000 
#    0.000    0.000   24.750    0.000    0.000    0.000 
#    0.000    0.000    0.000    0.000    0.000    0.000 
#
# Total GULP energy -396437.631254 kJ/mol
# GULP energy per Si atom -12388.675977 kJ/mol
# Density = 2.074026 g / cm^3
# Si number density = 20.787577 Si / 1000 Ang^3
#
#
#
# Elastic Constant Matrix: (Units=GPa)
#
#
# Indices 1 2 3 4 5 6 
#
# 1 89.5212 50.4521 35.2109 0.0000 0.0000 3.5629
# 2 50.4521 89.5212 35.2109 0.0000 0.0000 -3.5629
# 3 35.2109 35.2109 97.6853 0.0000 0.0000 0.0000
# 4 0.0000 0.0000 0.0000 26.4414 0.0000 0.0000
# 5 0.0000 0.0000 0.0000 0.0000 26.4414 0.0000
# 6 3.5629 -3.5629 0.0000 0.0000 0.0000 22.3620
#
#
#
# Elastic Compliance Matrix: (Units=1/GPa)
#
#
# Indices 1 2 3 4 5 6 
#
# 1 0.017544 -0.008817 -0.003146 0.000000 0.000000 -0.004200
# 2 -0.008817 0.017544 -0.003146 0.000000 0.000000 0.004200
# 3 -0.003146 -0.003146 0.012505 0.000000 0.000000 0.000000
# 4 0.000000 0.000000 0.000000 0.037819 0.000000 0.000000
# 5 0.000000 0.000000 0.000000 0.000000 0.037819 0.000000
# 6 -0.004200 0.004200 0.000000 0.000000 0.000000 0.046057
#
#
# Mechanical properties :
#
#
# Convention : Reuss Voigt Hill
#
# Bulk Modulus (GPa) = 57.55116 57.60838 57.57977
# Shear Modulus (GPa) = 24.35479 25.43922 24.89700
#
# Velocity S-wave (km/s) = 3.42658 3.50204 3.46452
# Velocity P-wave (km/s) = 6.58792 6.64270 6.61537
#
# Compressibility (1/GPa) = 0.01737584
#
# Stress axis : x y z
#
# Youngs Moduli (GPa) = 56.99869 56.99869 79.97041
#
# Poissons Ratio (x) = 0.50258 0.25155
# Poissons Ratio (y) = 0.50258 0.25155
# Poissons Ratio (z) = 0.17929 0.17929
#
# Static dielectric constant tensor:
#      x y z
#    x 3.769460 0.000000 0.000000 
#    y 0.000000 3.769460 0.000000 
#    z 0.000000 0.000000 4.123850 
# 
# 
# High freq. dielectric constant tensor:
#      x y z
#    x 1.799540 0.000000 0.000000 
#    y 0.000000 1.799540 0.000000 
#    z 0.000000 0.000000 1.831960 
# 
# From -- ./inp_files/1441.got.cif
#   From: 2010.03.12/outbox.cif.g09.slc.cpg/sg78_cif.got.tgz:1441.got - 2010.04.16 16:37:20.
