data_PCOD8302849
_publ_section_title
;
Structure prediction by ZEFSAII (Michael W. Deem and Ramdas Pophale) SiO2 
 PCOD8302849
Probable space group: P 4/M
;
_chemical_formula_sum "Si O2"
_cell_formula_units_Z 48
_cell_length_a 8.611130
_cell_length_b 8.611130
_cell_length_c 32.935801
_cell_angle_alpha 90.000000
_cell_angle_beta 90.000000
_cell_angle_gamma 90.000000
_cell_volume 2442.241020
_symmetry_space_group_name_H-M "P 4/M"
_symmetry_group_IT_number 83
_symmetry_cell_setting 'tetragonal'
loop_
_space_group_symop_operation_xyz
x,y,z
-y,x,z
-x,-y,z
y,-x,z
-x,-y,-z
y,-x,-z
x,y,-z
-y,x,-z
loop_
_atom_site_type_symbol
_atom_site_label
_atom_site_fract_x
_atom_site_fract_y
_atom_site_fract_z
Si Si1 0.500000 0.000000 0.608046
Si Si2 0.429741 0.745111 0.107035
Si Si3 0.254189 0.050938 0.325770
Si Si4 0.000000 0.500000 0.259852
Si Si5 0.748704 0.554242 0.545239
Si Si6 0.242603 0.924425 0.953810
Si Si7 0.561378 0.253745 0.801524
O O1 0.637211 0.925747 0.634933
O O2 0.415485 0.875348 0.579508
O O3 0.311634 0.603602 0.099358
O O4 0.384644 0.881871 0.075952
O O5 0.416144 0.810784 0.152825
O O6 0.364958 0.077055 0.286954
O O7 0.121814 0.181579 0.325540
O O8 0.121551 0.409534 0.231423
O O9 0.617110 0.681713 0.551169
O O10 0.820895 0.570244 0.500000
O O11 0.099466 0.809211 0.945252
O O12 0.300452 0.905224 0.000000
O O13 0.685075 0.388198 0.794544
#
# Coordination Sequence:
#
# PCOD8302849 Si02
#       7
#     4   8   8   4   8   8   8
#     4  11  19  32  55  76  98 140 183 208 251 315
#     4   9  19  34  51  74 103 131 161 202 249 296
#     4  10  22  37  51  74 107 135 166 213 259 299
#     4  11  20  34  59  78  94 132 173 202 246 311
#     4   9  18  32  50  75 106 136 172 221 265 301
#     4   9  19  35  52  72 101 135 170 207 243 283
#     4   9  19  35  53  76 104 129 159 204 252 297
#
# _framework density 19.65408
#
# number of rings (size 3 to 8) (size 9 to 14) (size 15 to 20)
#    0.000    2.500    0.000    4.250    0.000    4.000 
#    0.000    2.500    0.000   10.000    0.000    7.000 
#    0.000    0.000    0.000    0.000    0.000    0.000 
#
# Total GULP energy -595158.950875 kJ/mol
# GULP energy per Si atom -12399.144810 kJ/mol
# Density = 1.960935 g / cm^3
# Si number density = 19.654080 Si / 1000 Ang^3
#
#
#
# Elastic Constant Matrix: (Units=GPa)
#
#
# Indices 1 2 3 4 5 6 
#
# 1 46.6750 0.4935 33.8948 0.0000 0.0000 -1.9898
# 2 0.4935 46.6750 33.8948 0.0000 0.0000 1.9898
# 3 33.8948 33.8948 130.7591 0.0000 0.0000 0.0000
# 4 0.0000 0.0000 0.0000 20.9255 0.0000 0.0000
# 5 0.0000 0.0000 0.0000 0.0000 20.9255 0.0000
# 6 -1.9898 1.9898 0.0000 0.0000 0.0000 28.8520
#
#
#
# Elastic Compliance Matrix: (Units=1/GPa)
#
#
# Indices 1 2 3 4 5 6 
#
# 1 0.027785 0.006002 -0.008758 0.000000 0.000000 0.001502
# 2 0.006002 0.027785 -0.008758 0.000000 0.000000 -0.001502
# 3 -0.008758 -0.008758 0.012188 0.000000 0.000000 0.000000
# 4 0.000000 0.000000 0.000000 0.047789 0.000000 0.000000
# 5 0.000000 0.000000 0.000000 0.000000 0.047789 0.000000
# 6 0.001502 -0.001502 0.000000 0.000000 0.000000 0.034867
#
#
# Mechanical properties :
#
#
# Convention : Reuss Voigt Hill
#
# Bulk Modulus (GPa) = 22.35605 40.07503 31.21554
# Shear Modulus (GPa) = 21.17370 24.52900 22.85135
#
# Velocity S-wave (km/s) = 3.28581 3.53659 3.41350
# Velocity P-wave (km/s) = 5.07887 6.09188 5.60829
#
# Compressibility (1/GPa) = 0.04473061
#
# Stress axis : x y z
#
# Youngs Moduli (GPa) = 35.99000 35.99000 82.04629
#
# Poissons Ratio (x) = -0.21602 0.71859
# Poissons Ratio (y) = -0.21602 0.71859
# Poissons Ratio (z) = 0.31521 0.31521
#
# Static dielectric constant tensor:
#      x y z
#    x 3.389050 0.000000 0.000000 
#    y 0.000000 3.389050 0.000000 
#    z 0.000000 0.000000 3.643130 
# 
# 
# High freq. dielectric constant tensor:
#      x y z
#    x 1.755870 0.000000 0.000000 
#    y 0.000000 1.755870 0.000000 
#    z 0.000000 0.000000 1.776730 
# 
# From -- ./inp_files/3466.got.cif
#   From: 2010.03.12/outbox.cif.g09.slc.cpg/sg83_2_cif.got.tgz:3466.got - 2010.04.08 20:05:18.
