data_PCOD8302486
_publ_section_title
;
Structure prediction by ZEFSAII (Michael W. Deem and Ramdas Pophale) SiO2 
 PCOD8302486
Probable space group: I -4 
;
_chemical_formula_sum "Si O2"
_cell_formula_units_Z 40
_cell_length_a 15.414360
_cell_length_b 15.414360
_cell_length_c 8.482119
_cell_angle_alpha 90.000000
_cell_angle_beta 90.000000
_cell_angle_gamma 90.000000
_cell_volume 2015.372631
_symmetry_space_group_name_H-M "I -4 "
_symmetry_group_IT_number 82
_symmetry_cell_setting 'tetragonal'
loop_
_space_group_symop_operation_xyz
x,y,z
y,-x,-z
-x,-y,z
-y,x,-z
1/2+x,1/2+y,1/2+z
1/2+y,1/2-x,1/2-z
1/2-x,1/2-y,1/2+z
1/2-y,1/2+x,1/2-z
loop_
_atom_site_type_symbol
_atom_site_label
_atom_site_fract_x
_atom_site_fract_y
_atom_site_fract_z
Si Si1 0.587423 0.580046 0.916320
Si Si2 0.409226 0.108535 0.723605
Si Si3 0.513351 0.616440 0.413255
Si Si4 0.134805 0.261135 0.983527
Si Si5 0.308465 0.264370 0.815331
O O1 0.598167 0.531313 0.751922
O O2 0.648744 0.663880 0.929636
O O3 0.610530 0.512640 0.057761
O O4 0.509964 0.120741 0.766224
O O5 0.392753 0.142649 0.544088
O O6 0.353145 0.169632 0.842978
O O7 0.596475 0.552717 0.441641
O O8 0.548046 0.714745 0.420053
O O9 0.205843 0.263612 0.845717
O O10 0.175487 0.208007 0.132904
#
# Coordination Sequence:
#
# PCOD8302486 Si02
#       5
#     8   8   8   8   8
#     4  11  24  37  61  96 131 168 204 268 334 379
#     4   9  21  40  64  88 118 170 214 255 310 381
#     4  11  21  39  62  93 126 162 212 258 331 392
#     4  10  24  38  65  90 127 167 206 271 314 383
#     4  10  24  40  60  92 127 163 213 264 323 380
#
# _framework density 19.847445
#
# number of rings (size 3 to 8) (size 9 to 14) (size 15 to 20)
#    1.200    0.600    2.000    2.400    8.400    0.000 
#    0.000    0.000    0.000    0.000    0.000    2.800 
#    0.000    0.000    0.000    0.000    0.000    0.000 
#
# Total GULP energy -247789.218445 kJ/mol
# GULP energy per Si atom -12389.460922 kJ/mol
# Density = 1.980227 g / cm^3
# Si number density = 19.847445 Si / 1000 Ang^3
#
#
#
# Elastic Constant Matrix: (Units=GPa)
#
#
# Indices 1 2 3 4 5 6 
#
# 1 84.4891 24.7998 23.5282 0.0000 0.0000 -6.8638
# 2 24.7998 84.4891 23.5282 0.0000 0.0000 6.8638
# 3 23.5282 23.5282 73.4307 0.0000 0.0000 0.0000
# 4 0.0000 0.0000 0.0000 31.7234 0.0000 0.0000
# 5 0.0000 0.0000 0.0000 0.0000 31.7234 0.0000
# 6 -6.8638 6.8638 0.0000 0.0000 0.0000 33.4264
#
#
#
# Elastic Compliance Matrix: (Units=1/GPa)
#
#
# Indices 1 2 3 4 5 6 
#
# 1 0.014099 -0.003485 -0.003401 0.000000 0.000000 0.003611
# 2 -0.003485 0.014099 -0.003401 0.000000 0.000000 -0.003611
# 3 -0.003401 -0.003401 0.015798 0.000000 0.000000 0.000000
# 4 0.000000 0.000000 0.000000 0.031522 0.000000 0.000000
# 5 0.000000 0.000000 0.000000 0.000000 0.031522 0.000000
# 6 0.003611 -0.003611 0.000000 0.000000 0.000000 0.031399
#
#
# Mechanical properties :
#
#
# Convention : Reuss Voigt Hill
#
# Bulk Modulus (GPa) = 42.69388 42.90238 42.79813
# Shear Modulus (GPa) = 29.97221 30.74481 30.35851
#
# Velocity S-wave (km/s) = 3.89025 3.94008 3.91524
# Velocity P-wave (km/s) = 6.46038 6.50860 6.48454
#
# Compressibility (1/GPa) = 0.02342256
#
# Stress axis : x y z
#
# Youngs Moduli (GPa) = 70.92639 70.92639 63.30017
#
# Poissons Ratio (x) = 0.24716 0.21528
# Poissons Ratio (y) = 0.24716 0.21528
# Poissons Ratio (z) = 0.24122 0.24122
#
# Static dielectric constant tensor:
#      x y z
#    x 3.558000 0.000000 0.000000 
#    y 0.000000 3.558000 0.000000 
#    z 0.000000 0.000000 3.393090 
# 
# 
# High freq. dielectric constant tensor:
#      x y z
#    x 1.768210 0.000000 0.000000 
#    y 0.000000 1.768210 0.000000 
#    z 0.000000 0.000000 1.751280 
# 
# From -- ./inp_files/1009.got.cif
#   From: 2010.03.12/outbox.cif.g09.slc.cpg/sg82_1_cif.got.tgz:1009.got - 2010.04.08 20:02:50.
