data_PCOD8302679
_publ_section_title
;
Structure prediction by ZEFSAII (Michael W. Deem and Ramdas Pophale) SiO2 
 PCOD8302679
Probable space group: P 4/M
;
_chemical_formula_sum "Si O2"
_cell_formula_units_Z 36
_cell_length_a 14.092956
_cell_length_b 14.092956
_cell_length_c 11.046418
_cell_angle_alpha 90.000000
_cell_angle_beta 90.000000
_cell_angle_gamma 90.000000
_cell_volume 2193.944641
_symmetry_space_group_name_H-M "P 4/M"
_symmetry_group_IT_number 83
_symmetry_cell_setting 'tetragonal'
loop_
_space_group_symop_operation_xyz
x,y,z
-y,x,z
-x,-y,z
y,-x,z
-x,-y,-z
y,-x,-z
x,y,-z
-y,x,-z
loop_
_atom_site_type_symbol
_atom_site_label
_atom_site_fract_x
_atom_site_fract_y
_atom_site_fract_z
Si Si1 0.645056 0.434846 0.500000
Si Si2 0.392450 0.265895 0.247704
Si Si3 0.115307 0.745009 0.142602
Si Si4 0.596666 0.249297 0.142821
Si Si5 0.257040 0.903060 0.859749
O O1 0.623866 0.547079 0.500000
O O2 0.710458 0.405919 0.387852
O O3 0.326740 0.174685 0.225794
O O4 0.491553 0.239260 0.189104
O O5 0.349130 0.358786 0.183998
O O6 0.156426 0.851033 0.161151
O O7 0.008615 0.744362 0.195863
O O8 0.123708 0.716566 0.000000
O O9 0.658718 0.161601 0.196416
O O10 0.599506 0.246387 0.000000
O O11 0.277462 0.917009 0.000000
#
# Coordination Sequence:
#
# PCOD8302679 Si02
#       5
#     4   8   8   8   8
#     4  11  22  38  52  69  95 134 180 209 253 286
#     4  11  20  33  50  70 100 132 170 209 243 300
#     4   9  17  31  51  77 103 133 166 203 252 299
#     4  10  19  31  48  75 104 133 163 204 251 297
#     4   8  16  29  47  74 107 133 162 199 246 305
#
# _framework density 16.408801
#
# number of rings (size 3 to 8) (size 9 to 14) (size 15 to 20)
#    0.000    2.333    2.222    3.333    0.000    1.778 
#    0.000    6.667    0.000    8.000    0.000    0.000 
#    0.000    7.111    0.000    0.000    0.000    0.000 
#
# Total GULP energy -446245.045750 kJ/mol
# GULP energy per Si atom -12395.695715 kJ/mol
# Density = 1.637145 g / cm^3
# Si number density = 16.408801 Si / 1000 Ang^3
#
#
#
# Elastic Constant Matrix: (Units=GPa)
#
#
# Indices 1 2 3 4 5 6 
#
# 1 135.4018 61.2098 45.7529 0.0000 0.0000 -2.6240
# 2 61.2098 135.4018 45.7529 0.0000 0.0000 2.6240
# 3 45.7529 45.7529 80.5229 0.0000 0.0000 0.0000
# 4 0.0000 0.0000 0.0000 -4.6430 0.0000 0.0000
# 5 0.0000 0.0000 0.0000 0.0000 -4.6430 0.0000
# 6 -2.6240 2.6240 0.0000 0.0000 0.0000 14.0115
#
#
#
# Elastic Compliance Matrix: (Units=1/GPa)
#
#
# Indices 1 2 3 4 5 6 
#
# 1 0.010287 -0.003372 -0.003929 0.000000 0.000000 0.002558
# 2 -0.003372 0.010287 -0.003929 0.000000 0.000000 -0.002558
# 3 -0.003929 -0.003929 0.016884 0.000000 0.000000 0.000000
# 4 0.000000 0.000000 0.000000 -0.215379 0.000000 0.000000
# 5 0.000000 0.000000 0.000000 0.000000 -0.215379 0.000000
# 6 0.002558 -0.002558 0.000000 0.000000 0.000000 0.072328
#
#
# Mechanical properties :
#
#
# Convention : Reuss Voigt Hill
#
# Bulk Modulus (GPa) = 66.67829 72.97309 69.82569
# Shear Modulus (GPa) = -17.03506 14.18583 -1.42462
#
# Velocity S-wave (km/s) = -3.22555 2.94347 -0.93278
# Velocity P-wave (km/s) = 5.18186 7.49136 6.44097
#
# Compressibility (1/GPa) = 0.01499738
#
# Stress axis : x y z
#
# Youngs Moduli (GPa) = 97.20889 97.20889 59.22881
#
# Poissons Ratio (x) = 0.32782 0.23271
# Poissons Ratio (y) = 0.32782 0.23271
# Poissons Ratio (z) = 0.38193 0.38193
#
# Static dielectric constant tensor:
#      x y z
#    x 3.305140 0.000000 0.000000 
#    y 0.000000 3.305140 0.000000 
#    z 0.000000 0.000000 2.815010 
# 
# 
# High freq. dielectric constant tensor:
#      x y z
#    x 1.637140 0.000000 0.000000 
#    y 0.000000 1.637140 0.000000 
#    z 0.000000 0.000000 1.592880 
# 
# From -- ./inp_files/536.got.cif
#   From: 2010.03.12/outbox.cif.g09.slc.cpg/sg83_1_cif.got.tgz:536.got - 2010.04.08 20:05:18.
