data_PCOD8302313
_publ_section_title
;
Structure prediction by ZEFSAII (Michael W. Deem and Ramdas Pophale) SiO2 
 PCOD8302313
Probable space group: P -4
;
_chemical_formula_sum "Si O2"
_cell_formula_units_Z 18
_cell_length_a 9.502936
_cell_length_b 9.502936
_cell_length_c 10.050469
_cell_angle_alpha 90.000000
_cell_angle_beta 90.000000
_cell_angle_gamma 90.000000
_cell_volume 907.615569
_symmetry_space_group_name_H-M "P -4"
_symmetry_group_IT_number 81
_symmetry_cell_setting 'tetragonal'
loop_
_space_group_symop_operation_xyz
x,y,z
y,-x,-z
-x,-y,z
-y,x,-z
loop_
_atom_site_type_symbol
_atom_site_label
_atom_site_fract_x
_atom_site_fract_y
_atom_site_fract_z
Si Si1 0.712712 0.469930 0.526079
Si Si2 0.500000 0.000000 0.069817
Si Si3 0.500000 0.500000 0.000000
Si Si4 0.371832 0.264255 0.184694
Si Si5 0.500000 0.000000 0.636617
Si Si6 0.271481 0.947409 0.857121
Si Si7 0.000000 0.000000 0.000000
O O1 0.615804 0.366933 0.435698
O O2 0.709556 0.381115 0.660246
O O3 0.863305 0.494392 0.457449
O O4 0.473771 0.134175 0.160490
O O5 0.632857 0.036903 0.983803
O O6 0.410925 0.397615 0.094213
O O7 0.212175 0.223376 0.157880
O O8 0.357641 0.001494 0.726785
O O9 0.129863 0.032038 0.897746
#
# Coordination Sequence:
#
# PCOD8302313 Si02
#       7
#     4   2   1   4   2   4   1
#     4  11  24  44  68  95 131 178 227 271 327 397
#     4  11  23  38  66  94 129 167 212 264 336 397
#     4  12  24  36  70 100 128 160 216 278 340 392
#     4  12  23  41  65 100 128 169 217 276 333 393
#     4  11  25  48  66  98 137 179 224 274 334 389
#     4  11  24  42  67  96 137 173 212 276 334 396
#     4  12  24  44  68 106 136 176 224 270 344 400
#
# _framework density 19.832184000000002
#
# number of rings (size 3 to 8) (size 9 to 14) (size 15 to 20)
#    0.000    0.667    6.667    2.000    0.000    1.778 
#    4.000    0.000    0.000    0.000    0.000    0.000 
#    0.000    0.000    0.000    0.000    0.000    0.000 
#
# Total GULP energy -223081.799486 kJ/mol
# GULP energy per Si atom -12393.433305 kJ/mol
# Density = 1.978704 g / cm^3
# Si number density = 19.832184 Si / 1000 Ang^3
#
#
#
# Elastic Constant Matrix: (Units=GPa)
#
#
# Indices 1 2 3 4 5 6 
#
# 1 102.1206 29.6407 24.4056 0.0000 0.0000 -5.8831
# 2 29.6407 102.1206 24.4056 0.0000 0.0000 5.8831
# 3 24.4056 24.4056 73.9073 0.0000 0.0000 0.0000
# 4 0.0000 0.0000 0.0000 23.7521 0.0000 0.0000
# 5 0.0000 0.0000 0.0000 0.0000 23.7521 0.0000
# 6 -5.8831 5.8831 0.0000 0.0000 0.0000 25.6036
#
#
#
# Elastic Compliance Matrix: (Units=1/GPa)
#
#
# Indices 1 2 3 4 5 6 
#
# 1 0.011489 -0.002842 -0.002855 0.000000 0.000000 0.003293
# 2 -0.002842 0.011489 -0.002855 0.000000 0.000000 -0.003293
# 3 -0.002855 -0.002855 0.015416 0.000000 0.000000 0.000000
# 4 0.000000 0.000000 0.000000 0.042102 0.000000 0.000000
# 5 0.000000 0.000000 0.000000 0.000000 0.042102 0.000000
# 6 0.003293 -0.003293 0.000000 0.000000 0.000000 0.040570
#
#
# Mechanical properties :
#
#
# Convention : Reuss Voigt Hill
#
# Bulk Modulus (GPa) = 46.97274 48.33914 47.65594
# Shear Modulus (GPa) = 26.68503 27.93469 27.30986
#
# Velocity S-wave (km/s) = 3.67214 3.75714 3.71488
# Velocity P-wave (km/s) = 6.45879 6.57636 6.51784
#
# Compressibility (1/GPa) = 0.02128895
#
# Stress axis : x y z
#
# Youngs Moduli (GPa) = 87.03674 87.03674 64.86627
#
# Poissons Ratio (x) = 0.24737 0.18523
# Poissons Ratio (y) = 0.24737 0.18523
# Poissons Ratio (z) = 0.24853 0.24853
#
# Static dielectric constant tensor:
#      x y z
#    x 3.733590 0.000000 0.000000 
#    y 0.000000 3.733590 0.000000 
#    z 0.000000 0.000000 3.644140 
# 
# 
# High freq. dielectric constant tensor:
#      x y z
#    x 1.782200 0.000000 0.000000 
#    y 0.000000 1.782200 0.000000 
#    z 0.000000 0.000000 1.773130 
# 
# From -- ./inp_files/1186.got.cif
#   From: 2010.03.12/outbox.cif.g09.slc.cpg/sg81_cif.got.tgz:1186.got - 2010.04.08 20:01:38.
