data_PCOD8302143
_publ_section_title
;
Structure prediction by ZEFSAII (Michael W. Deem and Ramdas Pophale) SiO2 
 PCOD8302143
Probable space group: I 41
;
_chemical_formula_sum "Si O2"
_cell_formula_units_Z 40
_cell_length_a 15.614527
_cell_length_b 15.614527
_cell_length_c 8.584386
_cell_angle_alpha 90.000000
_cell_angle_beta 90.000000
_cell_angle_gamma 90.000000
_cell_volume 2092.988796
_symmetry_space_group_name_H-M "I 41"
_symmetry_group_IT_number 80
_symmetry_cell_setting 'tetragonal'
loop_
_space_group_symop_operation_xyz
x,y,z
-y,1/2+x,1/4+z
-x,-y,z
y,1/2-x,1/4+z
1/2+x,1/2+y,1/2+z
1/2-y,x,3/4+z
1/2-x,1/2-y,1/2+z
1/2+y,-x,3/4+z
loop_
_atom_site_type_symbol
_atom_site_label
_atom_site_fract_x
_atom_site_fract_y
_atom_site_fract_z
Si Si1 0.863704 0.507024 0.493080
Si Si2 0.735334 0.643943 0.396243
Si Si3 0.007024 0.636296 0.011678
Si Si4 0.356057 0.735334 0.608515
Si Si5 0.000000 0.500000 0.752379
Si Si6 0.000000 0.000000 0.002379
O O1 0.787548 0.575499 0.500830
O O2 0.834496 0.410010 0.455842
O O3 0.912983 0.505540 0.655270
O O4 0.926135 0.541091 0.357608
O O5 0.693812 0.709151 0.517924
O O6 0.665504 0.589990 0.298916
O O7 0.005540 0.587017 0.849488
O O8 0.041091 0.573865 0.147150
O O9 0.075499 0.712452 0.003929
O O10 0.306188 0.790849 0.736834
#
# Coordination Sequence:
#
# PCOD8302143 Si02
#       6
#     8   8   8   8   4   4
#     4  10  22  41  60  90 116 167 197 252 298 366
#     4  11  24  40  62  89 126 158 202 255 308 352
#     4  10  22  41  60  90 116 167 197 252 298 366
#     4  11  24  40  62  89 126 158 202 255 308 352
#     4  10  24  38  68  86 120 162 212 242 288 394
#     4  10  16  42  60  74 120 162 200 230 308 370
#
# _framework density 19.111426000000002
#
# number of rings (size 3 to 8) (size 9 to 14) (size 15 to 20)
#    0.000    1.600    4.000    0.000    5.600    0.000 
#    0.000    4.000    0.000    0.000    0.000    0.000 
#    0.000    0.000    0.000    0.000    0.000    0.000 
#
# Total GULP energy -248000.961115 kJ/mol
# GULP energy per Si atom -12400.048056 kJ/mol
# Density = 1.906793 g / cm^3
# Si number density = 19.111426 Si / 1000 Ang^3
#
#
#
# Elastic Constant Matrix: (Units=GPa)
#
#
# Indices 1 2 3 4 5 6 
#
# 1 76.6984 20.0608 57.4202 0.0000 0.0000 1.1783
# 2 20.0608 76.6984 57.4202 0.0000 0.0000 -1.1783
# 3 57.4202 57.4202 129.5314 0.0000 0.0000 0.0000
# 4 0.0000 0.0000 0.0000 28.0923 0.0000 0.0000
# 5 0.0000 0.0000 0.0000 0.0000 28.0923 0.0000
# 6 1.1783 -1.1783 0.0000 0.0000 0.0000 41.1706
#
#
#
# Elastic Compliance Matrix: (Units=1/GPa)
#
#
# Indices 1 2 3 4 5 6 
#
# 1 0.019743 0.002066 -0.009668 0.000000 0.000000 -0.000506
# 2 0.002066 0.019743 -0.009668 0.000000 0.000000 0.000506
# 3 -0.009668 -0.009668 0.016292 0.000000 0.000000 0.000000
# 4 0.000000 0.000000 0.000000 0.035597 0.000000 0.000000
# 5 0.000000 0.000000 0.000000 0.000000 0.035597 0.000000
# 6 -0.000506 0.000506 0.000000 0.000000 0.000000 0.024318
#
#
# Mechanical properties :
#
#
# Convention : Reuss Voigt Hill
#
# Bulk Modulus (GPa) = 47.08365 61.41449 54.24907
# Shear Modulus (GPa) = 25.91887 29.33951 27.62919
#
# Velocity S-wave (km/s) = 3.68665 3.92239 3.80635
# Velocity P-wave (km/s) = 6.54307 7.26073 6.91122
#
# Compressibility (1/GPa) = 0.02123879
#
# Stress axis : x y z
#
# Youngs Moduli (GPa) = 50.64983 50.64983 61.38109
#
# Poissons Ratio (x) = -0.10465 0.59343
# Poissons Ratio (y) = -0.10465 0.59343
# Poissons Ratio (z) = 0.48968 0.48968
#
# Static dielectric constant tensor:
#      x y z
#    x 3.594760 0.000000 0.000000 
#    y 0.000000 3.594760 0.000000 
#    z 0.000000 0.000000 3.332770 
# 
# 
# High freq. dielectric constant tensor:
#      x y z
#    x 1.751880 0.000000 0.000000 
#    y 0.000000 1.751880 0.000000 
#    z 0.000000 0.000000 1.738780 
# 
# From -- ./inp_files/587.got.cif
#   From: 2010.03.12/outbox.cif.g09.slc.cpg/sg80_cif.got.tgz:587.got - 2010.04.08 20:00:04.
