data_PCOD8302215
_publ_section_title
;
Structure prediction by ZEFSAII (Michael W. Deem and Ramdas Pophale) SiO2 
 PCOD8302215
Probable space group: I 41
;
_chemical_formula_sum "Si O2"
_cell_formula_units_Z 48
_cell_length_a 8.603856
_cell_length_b 8.603856
_cell_length_c 27.848762
_cell_angle_alpha 90.000000
_cell_angle_beta 90.000000
_cell_angle_gamma 90.000000
_cell_volume 2061.541871
_symmetry_space_group_name_H-M "I 41"
_symmetry_group_IT_number 80
_symmetry_cell_setting 'tetragonal'
loop_
_space_group_symop_operation_xyz
x,y,z
-y,1/2+x,1/4+z
-x,-y,z
y,1/2-x,1/4+z
1/2+x,1/2+y,1/2+z
1/2-y,x,3/4+z
1/2-x,1/2-y,1/2+z
1/2+y,-x,3/4+z
loop_
_atom_site_type_symbol
_atom_site_label
_atom_site_fract_x
_atom_site_fract_y
_atom_site_fract_z
Si Si1 0.136446 0.890549 0.645180
Si Si2 0.136444 0.390547 0.204706
Si Si3 0.639584 0.105772 0.207926
Si Si4 0.286556 0.854819 0.550105
Si Si5 0.639583 0.605771 0.641960
Si Si6 0.286557 0.354820 0.299781
O O1 0.071604 0.752315 0.678421
O O2 0.215244 0.801997 0.600622
O O3 0.250002 0.000003 0.674942
O O4 0.000000 0.000000 0.626103
O O5 0.071600 0.252310 0.171466
O O6 0.215244 0.301997 0.249264
O O7 0.000000 0.500000 0.223784
O O8 0.713950 0.181003 0.256456
O O9 0.500000 0.000000 0.225825
O O10 0.750000 0.000002 0.174943
O O11 0.458178 0.785982 0.547949
O O12 0.285983 0.041821 0.551936
O O13 0.500000 0.500000 0.624060
O O14 0.713950 0.681005 0.593431
#
# Coordination Sequence:
#
# PCOD8302215 Si02
#       6
#     8   8   8   8   8   8
#     4  12  24  44  73 103 141 191 246 299 371 455
#     4  12  24  44  73 103 141 191 246 299 371 455
#     4  12  26  46  68 107 152 187 240 316 380 440
#     4  11  23  43  76 105 137 191 255 302 362 455
#     4  12  26  46  68 107 152 187 240 316 380 440
#     4  11  23  43  76 105 137 191 255 302 362 455
#
# _framework density 23.283545
#
# number of rings (size 3 to 8) (size 9 to 14) (size 15 to 20)
#    0.000    0.333    3.333    7.000    0.000    0.000 
#    0.000    0.000    0.000    0.000    0.000    0.000 
#    0.000    0.000    0.000    0.000    0.000    0.000 
#
# Total GULP energy -297567.144323 kJ/mol
# GULP energy per Si atom -12398.631013 kJ/mol
# Density = 2.323055 g / cm^3
# Si number density = 23.283545 Si / 1000 Ang^3
#
#
#
# Elastic Constant Matrix: (Units=GPa)
#
#
# Indices 1 2 3 4 5 6 
#
# 1 77.8180 0.8346 16.0604 0.0000 0.0000 -4.6212
# 2 0.8346 77.8180 16.0604 0.0000 0.0000 4.6212
# 3 16.0604 16.0604 153.5600 0.0000 0.0000 0.0000
# 4 0.0000 0.0000 0.0000 40.9653 0.0000 0.0000
# 5 0.0000 0.0000 0.0000 0.0000 40.9653 0.0000
# 6 -4.6212 4.6212 0.0000 0.0000 0.0000 40.5702
#
#
#
# Elastic Compliance Matrix: (Units=1/GPa)
#
#
# Indices 1 2 3 4 5 6 
#
# 1 0.013226 0.000056 -0.001389 0.000000 0.000000 0.001500
# 2 0.000056 0.013226 -0.001389 0.000000 0.000000 -0.001500
# 3 -0.001389 -0.001389 0.006803 0.000000 0.000000 0.000000
# 4 0.000000 0.000000 0.000000 0.024411 0.000000 0.000000
# 5 0.000000 0.000000 0.000000 0.000000 0.024411 0.000000
# 6 0.001500 -0.001500 0.000000 0.000000 0.000000 0.024990
#
#
# Mechanical properties :
#
#
# Convention : Reuss Voigt Hill
#
# Bulk Modulus (GPa) = 35.95929 41.67855 38.81892
# Shear Modulus (GPa) = 41.05738 42.91617 41.98678
#
# Velocity S-wave (km/s) = 4.20380 4.29791 4.25111
# Velocity P-wave (km/s) = 6.24821 6.52446 6.38783
#
# Compressibility (1/GPa) = 0.02780922
#
# Stress axis : x y z
#
# Youngs Moduli (GPa) = 75.61054 75.61056 147.00106
#
# Poissons Ratio (x) = -0.00421 0.20419
# Poissons Ratio (y) = -0.00421 0.20419
# Poissons Ratio (z) = 0.10503 0.10503
#
# Static dielectric constant tensor:
#      x y z
#    x 5.156640 0.000000 0.000000 
#    y 0.000000 5.156640 0.000000 
#    z 0.000000 0.000000 4.399540 
# 
# 
# High freq. dielectric constant tensor:
#      x y z
#    x 1.913420 0.000000 0.000000 
#    y 0.000000 1.913420 0.000000 
#    z 0.000000 0.000000 1.939310 
# 
# From -- ./inp_files/2644.got.cif
#   From: 2010.03.12/outbox.cif.g09.slc.cpg/sg80_cif.got.tgz:2644.got - 2010.04.08 20:00:04.
