data_PCOD8302309
_publ_section_title
;
Structure prediction by ZEFSAII (Michael W. Deem and Ramdas Pophale) SiO2 
 PCOD8302309
Probable space group: P -4
;
_chemical_formula_sum "Si O2"
_cell_formula_units_Z 13
_cell_length_a 7.631121
_cell_length_b 7.631121
_cell_length_c 10.646078
_cell_angle_alpha 90.000000
_cell_angle_beta 90.000000
_cell_angle_gamma 90.000000
_cell_volume 619.963788
_symmetry_space_group_name_H-M "P -4"
_symmetry_group_IT_number 81
_symmetry_cell_setting 'tetragonal'
loop_
_space_group_symop_operation_xyz
x,y,z
y,-x,-z
-x,-y,z
-y,x,-z
loop_
_atom_site_type_symbol
_atom_site_label
_atom_site_fract_x
_atom_site_fract_y
_atom_site_fract_z
Si Si1 0.701090 0.801653 0.375755
Si Si2 0.804664 0.702282 0.643544
Si Si3 0.500000 0.500000 0.000000
Si Si4 0.507205 0.193867 0.810902
O O1 0.771975 0.811207 0.517176
O O2 0.497769 0.752369 0.381843
O O3 0.804127 0.655727 0.296710
O O4 0.727115 0.993508 0.314379
O O5 0.684470 0.769521 0.755809
O O6 0.555546 0.333881 0.917060
O O7 0.500000 0.000000 0.870808
#
# Coordination Sequence:
#
# PCOD8302309 Si02
#       4
#     4   4   1   4
#     4  11  22  39  67 101 136 170 204 254 323 390
#     4  11  22  39  67 101 136 170 204 254 323 390
#     4  12  28  48  66  88 128 168 224 278 312 368
#     4  12  26  45  69  94 125 171 217 266 322 375
#
# _framework density 20.968966000000002
#
# number of rings (size 3 to 8) (size 9 to 14) (size 15 to 20)
#    0.000    0.615    6.154    1.846    0.000    6.769 
#    0.000    0.000    0.000    0.000    0.000    0.000 
#    0.000    0.000    0.000    0.000    0.000    0.000 
#
# Total GULP energy -161285.502328 kJ/mol
# GULP energy per Si atom -12406.577102 kJ/mol
# Density = 2.092124 g / cm^3
# Si number density = 20.968966 Si / 1000 Ang^3
#
#
#
# Elastic Constant Matrix: (Units=GPa)
#
#
# Indices 1 2 3 4 5 6 
#
# 1 116.6439 15.7217 10.9036 0.0000 0.0000 -5.5946
# 2 15.7217 116.6439 10.9036 0.0000 0.0000 5.5946
# 3 10.9036 10.9036 63.0518 0.0000 0.0000 0.0000
# 4 0.0000 0.0000 0.0000 14.3697 0.0000 0.0000
# 5 0.0000 0.0000 0.0000 0.0000 14.3697 0.0000
# 6 -5.5946 5.5946 0.0000 0.0000 0.0000 17.9959
#
#
#
# Elastic Compliance Matrix: (Units=1/GPa)
#
#
# Indices 1 2 3 4 5 6 
#
# 1 0.009019 -0.001243 -0.001345 0.000000 0.000000 0.003190
# 2 -0.001243 0.009019 -0.001345 0.000000 0.000000 -0.003190
# 3 -0.001345 -0.001345 0.016325 0.000000 0.000000 0.000000
# 4 0.000000 0.000000 0.000000 0.069591 0.000000 0.000000
# 5 0.000000 0.000000 0.000000 0.000000 0.069591 0.000000
# 6 0.003190 -0.003190 0.000000 0.000000 0.000000 0.057552
#
#
# Mechanical properties :
#
#
# Convention : Reuss Voigt Hill
#
# Bulk Modulus (GPa) = 37.73767 41.26640 39.50203
# Shear Modulus (GPa) = 20.17790 26.60109 23.38949
#
# Velocity S-wave (km/s) = 3.10542 3.56560 3.34343
# Velocity P-wave (km/s) = 5.55825 6.05589 5.81240
#
# Compressibility (1/GPa) = 0.02649872
#
# Stress axis : x y z
#
# Youngs Moduli (GPa) = 110.87262 110.87262 61.25546
#
# Poissons Ratio (x) = 0.13781 0.08238
# Poissons Ratio (y) = 0.13781 0.08238
# Poissons Ratio (z) = 0.14910 0.14910
#
# Static dielectric constant tensor:
#      x y z
#    x 3.929190 0.000000 0.000000 
#    y 0.000000 3.929190 0.000000 
#    z 0.000000 0.000000 3.502860 
# 
# 
# High freq. dielectric constant tensor:
#      x y z
#    x 1.835400 0.000000 0.000000 
#    y 0.000000 1.835400 0.000000 
#    z 0.000000 0.000000 1.786490 
# 
# From -- ./inp_files/501.got.cif
#   From: 2010.03.12/outbox.cif.g09.slc.cpg/sg81_cif.got.tgz:501.got - 2010.04.08 20:01:38.
