data_PCOD8302067
_publ_section_title
;
Structure prediction by ZEFSAII (Michael W. Deem and Ramdas Pophale) SiO2 
 PCOD8302067
Probable space group: P 43
;
_chemical_formula_sum "Si O2"
_cell_formula_units_Z 20
_cell_length_a 4.877973
_cell_length_b 4.877973
_cell_length_c 32.237576
_cell_angle_alpha 90.000000
_cell_angle_beta 90.000000
_cell_angle_gamma 90.000000
_cell_volume 767.080890
_symmetry_space_group_name_H-M "P 43"
_symmetry_group_IT_number 78
_symmetry_cell_setting 'tetragonal'
loop_
_space_group_symop_operation_xyz
x,y,z
-y,x,3/4+z
-x,-y,1/2+z
y,-x,1/4+z
loop_
_atom_site_type_symbol
_atom_site_label
_atom_site_fract_x
_atom_site_fract_y
_atom_site_fract_z
Si Si1 0.822645 0.689873 0.052710
Si Si2 0.793232 0.807330 0.554643
Si Si3 0.996768 0.463703 0.234285
Si Si4 0.036828 0.024499 0.928899
Si Si5 0.029142 0.524932 0.873449
O O1 0.943546 0.385804 0.053344
O O2 0.627368 0.730727 0.092621
O O3 0.643816 0.738525 0.011195
O O4 0.085412 0.886894 0.053855
O O5 0.607346 0.780064 0.596199
O O6 0.710985 0.143670 0.653785
O O7 0.590789 0.770577 0.515111
O O8 0.122623 0.206647 0.209336
O O9 0.898733 0.704020 0.203413
O O10 0.917994 0.785879 0.899127
#
# Coordination Sequence:
#
# PCOD8302067 Si02
#       5
#     4   4   4   4   4
#     4  11  26  50  79 111 151 208 261 319 380 475
#     4  11  26  50  79 111 151 208 261 319 380 475
#     4  11  28  50  76 115 156 206 262 319 396 462
#     4  12  28  46  76 112 160 202 256 328 392 458
#     4  11  28  50  76 115 156 206 262 319 396 462
#
# _framework density 26.072866999999999
#
# number of rings (size 3 to 8) (size 9 to 14) (size 15 to 20)
#    0.000    0.800    4.000    0.000    5.600   14.400 
#    0.000    0.000    0.000    0.000    0.000    0.000 
#    0.000    0.000    0.000    0.000    0.000    0.000 
#
# Total GULP energy -248009.773852 kJ/mol
# GULP energy per Si atom -12400.488693 kJ/mol
# Density = 2.601352 g / cm^3
# Si number density = 26.072867 Si / 1000 Ang^3
#
#
#
# Elastic Constant Matrix: (Units=GPa)
#
#
# Indices 1 2 3 4 5 6 
#
# 1 118.4780 18.7925 42.4071 0.0000 0.0000 2.0792
# 2 18.7925 118.4780 42.4071 0.0000 0.0000 -2.0792
# 3 42.4071 42.4071 148.4709 0.0000 0.0000 0.0000
# 4 0.0000 0.0000 0.0000 6.1625 0.0000 0.0000
# 5 0.0000 0.0000 0.0000 0.0000 6.1625 0.0000
# 6 2.0792 -2.0792 0.0000 0.0000 0.0000 48.3487
#
#
#
# Elastic Compliance Matrix: (Units=1/GPa)
#
#
# Indices 1 2 3 4 5 6 
#
# 1 0.009448 -0.000602 -0.002527 0.000000 0.000000 -0.000432
# 2 -0.000602 0.009448 -0.002527 0.000000 0.000000 0.000432
# 3 -0.002527 -0.002527 0.008179 0.000000 0.000000 0.000000
# 4 0.000000 0.000000 0.000000 0.162273 0.000000 0.000000
# 5 0.000000 0.000000 0.000000 0.000000 0.162273 0.000000
# 6 -0.000432 0.000432 0.000000 0.000000 0.000000 0.020720
#
#
# Mechanical properties :
#
#
# Convention : Reuss Voigt Hill
#
# Bulk Modulus (GPa) = 63.43525 65.84891 64.64208
# Shear Modulus (GPa) = 12.85660 30.92274 21.88967
#
# Velocity S-wave (km/s) = 2.22300 3.44759 2.90066
# Velocity P-wave (km/s) = 5.56523 6.41548 6.00542
#
# Compressibility (1/GPa) = 0.01576411
#
# Stress axis : x y z
#
# Youngs Moduli (GPa) = 105.84482 105.84482 122.26918
#
# Poissons Ratio (x) = 0.06370 0.30893
# Poissons Ratio (y) = 0.06370 0.30893
# Poissons Ratio (z) = 0.26743 0.26743
#
# Static dielectric constant tensor:
#      x y z
#    x 4.429970 0.000000 0.000000 
#    y 0.000000 4.429970 0.000000 
#    z 0.000000 0.000000 5.218620 
# 
# 
# High freq. dielectric constant tensor:
#      x y z
#    x 2.036880 0.000000 0.000000 
#    y 0.000000 2.036880 0.000000 
#    z 0.000000 0.000000 2.060700 
# 
# From -- ./inp_files/1713.got.cif
#   From: 2010.03.12/outbox.cif.g09.slc.cpg/sg78_cif.got.tgz:1713.got - 2010.04.16 16:37:20.
