data_PCOD8302581
_publ_section_title
;
Structure prediction by ZEFSAII (Michael W. Deem and Ramdas Pophale) SiO2 
 PCOD8302581
Probable space group: I -4 
;
_chemical_formula_sum "Si O2"
_cell_formula_units_Z 40
_cell_length_a 8.598267
_cell_length_b 8.598267
_cell_length_c 24.081270
_cell_angle_alpha 90.000000
_cell_angle_beta 90.000000
_cell_angle_gamma 90.000000
_cell_volume 1780.332997
_symmetry_space_group_name_H-M "I -4 "
_symmetry_group_IT_number 82
_symmetry_cell_setting 'tetragonal'
loop_
_space_group_symop_operation_xyz
x,y,z
y,-x,-z
-x,-y,z
-y,x,-z
1/2+x,1/2+y,1/2+z
1/2+y,1/2-x,1/2-z
1/2-x,1/2-y,1/2+z
1/2-y,1/2+x,1/2-z
loop_
_atom_site_type_symbol
_atom_site_label
_atom_site_fract_x
_atom_site_fract_y
_atom_site_fract_z
Si Si1 0.440057 0.667713 0.203601
Si Si2 0.730061 0.612508 0.993816
Si Si3 0.749596 0.168154 0.116256
Si Si4 0.671091 0.062440 0.903635
Si Si5 0.741928 0.849135 0.177999
O O1 0.500000 0.500000 0.183871
O O2 0.292269 0.714813 0.166489
O O3 0.569235 0.800952 0.195757
O O4 0.392115 0.658464 0.267777
O O5 0.844735 0.686561 0.038868
O O6 0.706038 0.431385 0.006431
O O7 0.807513 0.627479 0.933533
O O8 0.923099 0.204248 0.095229
O O9 0.737259 0.991359 0.135423
O O10 0.705086 0.176078 0.852200
O O11 0.500000 0.000000 0.894270
#
# Coordination Sequence:
#
# PCOD8302581 Si02
#       5
#     8   8   8   8   8
#     4  12  26  48  76 112 150 202 252 310 385 468
#     4  11  26  48  76 110 150 201 253 307 383 460
#     4  12  26  46  77 110 153 199 251 321 379 454
#     4  12  26  49  72 114 151 198 254 316 384 453
#     4  12  27  49  76 111 154 199 255 312 388 463
#
# _framework density 22.467704000000001
#
# number of rings (size 3 to 8) (size 9 to 14) (size 15 to 20)
#    0.000    0.200    4.000    4.800    5.600    1.600 
#    0.000    0.000    0.000    0.000    0.000    0.000 
#    0.000    0.000    0.000    0.000    0.000    0.000 
#
# Total GULP energy -248213.662238 kJ/mol
# GULP energy per Si atom -12410.683112 kJ/mol
# Density = 2.241657 g / cm^3
# Si number density = 22.467704 Si / 1000 Ang^3
#
#
#
# Elastic Constant Matrix: (Units=GPa)
#
#
# Indices 1 2 3 4 5 6 
#
# 1 102.6104 21.0182 46.2408 0.0000 0.0000 7.2627
# 2 21.0182 102.6104 46.2408 0.0000 0.0000 -7.2627
# 3 46.2408 46.2408 149.9608 0.0000 0.0000 0.0000
# 4 0.0000 0.0000 0.0000 43.5935 0.0000 0.0000
# 5 0.0000 0.0000 0.0000 0.0000 43.5935 0.0000
# 6 7.2627 -7.2627 0.0000 0.0000 0.0000 42.3165
#
#
#
# Elastic Compliance Matrix: (Units=1/GPa)
#
#
# Indices 1 2 3 4 5 6 
#
# 1 0.011578 -0.001064 -0.003242 0.000000 0.000000 -0.002170
# 2 -0.001064 0.011578 -0.003242 0.000000 0.000000 0.002170
# 3 -0.003242 -0.003242 0.008668 0.000000 0.000000 0.000000
# 4 0.000000 0.000000 0.000000 0.022939 0.000000 0.000000
# 5 0.000000 0.000000 0.000000 0.000000 0.022939 0.000000
# 6 -0.002170 0.002170 0.000000 0.000000 0.000000 0.024376
#
#
# Mechanical properties :
#
#
# Convention : Reuss Voigt Hill
#
# Bulk Modulus (GPa) = 59.78123 64.68681 62.23402
# Shear Modulus (GPa) = 40.73285 42.01281 41.37283
#
# Velocity S-wave (km/s) = 4.26250 4.32895 4.29585
# Velocity P-wave (km/s) = 7.13376 7.33757 7.23638
#
# Compressibility (1/GPa) = 0.01672766
#
# Stress axis : x y z
#
# Youngs Moduli (GPa) = 86.36955 86.36955 115.36983
#
# Poissons Ratio (x) = 0.09191 0.37403
# Poissons Ratio (y) = 0.09191 0.37403
# Poissons Ratio (z) = 0.28001 0.28001
#
# Static dielectric constant tensor:
#      x y z
#    x 4.104590 0.000000 0.000000 
#    y 0.000000 4.104590 0.000000 
#    z 0.000000 0.000000 4.119850 
# 
# 
# High freq. dielectric constant tensor:
#      x y z
#    x 1.893180 0.000000 0.000000 
#    y 0.000000 1.893180 0.000000 
#    z 0.000000 0.000000 1.896910 
# 
# From -- ./inp_files/3333.got.cif
#   From: 2010.03.12/outbox.cif.g09.slc.cpg/sg82_2_cif.got.tgz:3333.got - 2010.04.08 20:02:50.
