data_PCOD8302474
_publ_section_title
;
Structure prediction by ZEFSAII (Michael W. Deem and Ramdas Pophale) SiO2 
 PCOD8302474
Probable space group: I -4 
;
_chemical_formula_sum "Si O2"
_cell_formula_units_Z 56
_cell_length_a 13.482726
_cell_length_b 13.482726
_cell_length_c 13.189498
_cell_angle_alpha 90.000000
_cell_angle_beta 90.000000
_cell_angle_gamma 90.000000
_cell_volume 2397.638391
_symmetry_space_group_name_H-M "I -4 "
_symmetry_group_IT_number 82
_symmetry_cell_setting 'tetragonal'
loop_
_space_group_symop_operation_xyz
x,y,z
y,-x,-z
-x,-y,z
-y,x,-z
1/2+x,1/2+y,1/2+z
1/2+y,1/2-x,1/2-z
1/2-x,1/2-y,1/2+z
1/2-y,1/2+x,1/2-z
loop_
_atom_site_type_symbol
_atom_site_label
_atom_site_fract_x
_atom_site_fract_y
_atom_site_fract_z
Si Si1 0.091617 0.685140 0.620728
Si Si2 0.762853 0.464898 0.702791
Si Si3 0.210030 0.052004 0.637945
Si Si4 0.075854 0.581079 0.420501
Si Si5 0.351504 0.287920 0.984916
Si Si6 0.932458 0.268708 0.001850
Si Si7 0.605013 0.554503 0.339308
O O1 0.140737 0.602362 0.691078
O O2 0.039186 0.631692 0.525538
O O3 0.170370 0.767672 0.589461
O O4 0.006469 0.737489 0.684158
O O5 0.757404 0.550610 0.617768
O O6 0.666988 0.398976 0.694685
O O7 0.326466 0.082028 0.657880
O O8 0.155968 0.149859 0.590721
O O9 0.166809 0.010004 0.744125
O O10 0.198405 0.962065 0.557833
O O11 0.178232 0.525255 0.442460
O O12 0.000000 0.500000 0.378293
O O13 0.326056 0.171108 0.989954
O O14 0.940795 0.160504 0.052861
O O15 0.500000 0.500000 0.351865
#
# Coordination Sequence:
#
# PCOD8302474 Si02
#       7
#     8   8   8   8   8   8   8
#     4  10  24  41  68 110 139 186 238 300 372 432
#     4  11  26  42  72 104 142 189 239 304 370 434
#     4  11  27  43  75 106 144 194 243 304 372 444
#     4  10  22  45  73 105 141 187 240 302 372 436
#     4  11  24  46  71 106 150 186 243 303 371 446
#     4  11  26  47  71 102 146 191 247 305 366 448
#     4  12  29  47  69 103 145 196 248 299 371 453
#
# _framework density 23.356314000000001
#
# number of rings (size 3 to 8) (size 9 to 14) (size 15 to 20)
#    0.000    1.143    2.857    0.857   14.000    1.143 
#    0.000    0.000    0.000    0.000    0.000    0.000 
#    0.000    0.000    0.000    0.000    0.000    0.000 
#
# Total GULP energy -347073.212389 kJ/mol
# GULP energy per Si atom -12395.471871 kJ/mol
# Density = 2.330315 g / cm^3
# Si number density = 23.356314 Si / 1000 Ang^3
#
#
#
# Elastic Constant Matrix: (Units=GPa)
#
#
# Indices 1 2 3 4 5 6 
#
# 1 97.3089 19.5764 14.2104 0.0000 0.0000 3.0783
# 2 19.5764 97.3089 14.2104 0.0000 0.0000 -3.0783
# 3 14.2104 14.2104 35.9575 0.0000 0.0000 0.0000
# 4 0.0000 0.0000 0.0000 28.4490 0.0000 0.0000
# 5 0.0000 0.0000 0.0000 0.0000 28.4490 0.0000
# 6 3.0783 -3.0783 0.0000 0.0000 0.0000 42.4262
#
#
#
# Elastic Compliance Matrix: (Units=1/GPa)
#
#
# Indices 1 2 3 4 5 6 
#
# 1 0.011202 -0.001737 -0.003741 0.000000 0.000000 -0.000939
# 2 -0.001737 0.011202 -0.003741 0.000000 0.000000 0.000939
# 3 -0.003741 -0.003741 0.030767 0.000000 0.000000 0.000000
# 4 0.000000 0.000000 0.000000 0.035151 0.000000 0.000000
# 5 0.000000 0.000000 0.000000 0.000000 0.035151 0.000000
# 6 -0.000939 0.000939 0.000000 0.000000 0.000000 0.023707
#
#
# Mechanical properties :
#
#
# Convention : Reuss Voigt Hill
#
# Bulk Modulus (GPa) = 28.78957 36.28555 32.53756
# Shear Modulus (GPa) = 28.21775 32.03671 30.12723
#
# Velocity S-wave (km/s) = 3.47960 3.70760 3.59541
# Velocity P-wave (km/s) = 5.33821 5.82218 5.58544
#
# Compressibility (1/GPa) = 0.03473481
#
# Stress axis : x y z
#
# Youngs Moduli (GPa) = 89.27019 89.27019 32.50219
#
# Poissons Ratio (x) = 0.15507 0.12158
# Poissons Ratio (y) = 0.15507 0.12158
# Poissons Ratio (z) = 0.33392 0.33392
#
# Static dielectric constant tensor:
#      x y z
#    x 4.337320 0.000000 0.000000 
#    y 0.000000 4.337320 0.000000 
#    z 0.000000 0.000000 4.266720 
# 
# 
# High freq. dielectric constant tensor:
#      x y z
#    x 1.933580 0.000000 0.000000 
#    y 0.000000 1.933580 0.000000 
#    z 0.000000 0.000000 1.917830 
# 
# From -- ./inp_files/1841.got.cif
#   From: 2010.03.12/outbox.cif.g09.slc.cpg/sg82_1_cif.got.tgz:1841.got - 2010.04.08 20:02:50.
