data_PCOD8302235
_publ_section_title
;
Structure prediction by ZEFSAII (Michael W. Deem and Ramdas Pophale) SiO2 
 PCOD8302235
Probable space group: I 41
;
_chemical_formula_sum "Si O2"
_cell_formula_units_Z 36
_cell_length_a 8.466577
_cell_length_b 8.466577
_cell_length_c 19.750497
_cell_angle_alpha 90.000000
_cell_angle_beta 90.000000
_cell_angle_gamma 90.000000
_cell_volume 1415.773417
_symmetry_space_group_name_H-M "I 41"
_symmetry_group_IT_number 80
_symmetry_cell_setting 'tetragonal'
loop_
_space_group_symop_operation_xyz
x,y,z
-y,1/2+x,1/4+z
-x,-y,z
y,1/2-x,1/4+z
1/2+x,1/2+y,1/2+z
1/2-y,x,3/4+z
1/2-x,1/2-y,1/2+z
1/2+y,-x,3/4+z
loop_
_atom_site_type_symbol
_atom_site_label
_atom_site_fract_x
_atom_site_fract_y
_atom_site_fract_z
Si Si1 0.271288 0.742902 0.958480
Si Si2 0.672694 0.563708 0.491868
Si Si3 0.172695 0.563708 0.082345
Si Si4 0.500000 0.000000 0.162107
Si Si5 0.728712 0.757099 0.115734
O O1 0.192562 0.764559 0.885240
O O2 0.440148 0.653630 0.953849
O O3 0.160060 0.639425 0.007927
O O4 0.294771 0.916010 0.991610
O O5 0.500000 0.500000 0.471178
O O6 0.735442 0.692561 0.438973
O O7 0.660059 0.639425 0.566286
O O8 0.294771 0.416010 0.082604
O O9 0.000000 0.500000 0.103036
O O10 0.440148 0.153630 0.120364
#
# Coordination Sequence:
#
# PCOD8302235 Si02
#       5
#     8   8   8   4   8
#     4  12  27  50  78 118 160 203 271 314 403 461
#     4  12  26  49  85 120 152 210 261 332 392 473
#     4  12  26  49  85 120 152 210 261 332 392 473
#     4  12  32  48  72 120 160 220 252 338 380 476
#     4  12  27  50  78 118 160 203 271 314 403 461
#
# _framework density 25.427796000000001
#
# number of rings (size 3 to 8) (size 9 to 14) (size 15 to 20)
#    0.000    0.000    4.444    4.000    6.222    7.111 
#    0.000    0.000    0.000    0.000    0.000    0.000 
#    0.000    0.000    0.000    0.000    0.000    0.000 
#
# Total GULP energy -223176.792385 kJ/mol
# GULP energy per Si atom -12398.710688 kJ/mol
# Density = 2.536992 g / cm^3
# Si number density = 25.427796 Si / 1000 Ang^3
#
#
#
# Elastic Constant Matrix: (Units=GPa)
#
#
# Indices 1 2 3 4 5 6 
#
# 1 88.5553 23.0848 26.2624 0.0000 0.0000 4.4520
# 2 23.0848 88.5553 26.2624 0.0000 0.0000 -4.4520
# 3 26.2624 26.2624 116.5087 0.0000 0.0000 0.0000
# 4 0.0000 0.0000 0.0000 32.6788 0.0000 0.0000
# 5 0.0000 0.0000 0.0000 0.0000 32.6788 0.0000
# 6 4.4520 -4.4520 0.0000 0.0000 0.0000 59.6534
#
#
#
# Elastic Compliance Matrix: (Units=1/GPa)
#
#
# Indices 1 2 3 4 5 6 
#
# 1 0.012725 -0.002705 -0.002259 0.000000 0.000000 -0.001152
# 2 -0.002705 0.012725 -0.002259 0.000000 0.000000 0.001152
# 3 -0.002259 -0.002259 0.009601 0.000000 0.000000 0.000000
# 4 0.000000 0.000000 0.000000 0.030601 0.000000 0.000000
# 5 0.000000 0.000000 0.000000 0.000000 0.030601 0.000000
# 6 -0.001152 0.001152 0.000000 0.000000 0.000000 0.016935
#
#
# Mechanical properties :
#
#
# Convention : Reuss Voigt Hill
#
# Bulk Modulus (GPa) = 48.52766 49.42648 48.97707
# Shear Modulus (GPa) = 37.17384 39.53619 38.35502
#
# Velocity S-wave (km/s) = 3.82768 3.94743 3.88801
# Velocity P-wave (km/s) = 6.21778 6.34479 6.28161
#
# Compressibility (1/GPa) = 0.02060681
#
# Stress axis : x y z
#
# Youngs Moduli (GPa) = 78.58338 78.58338 104.15276
#
# Poissons Ratio (x) = 0.21259 0.23524
# Poissons Ratio (y) = 0.21259 0.23524
# Poissons Ratio (z) = 0.17749 0.17749
#
# Static dielectric constant tensor:
#      x y z
#    x 4.663610 0.000000 0.000000 
#    y 0.000000 4.663610 0.000000 
#    z 0.000000 0.000000 4.483380 
# 
# 
# High freq. dielectric constant tensor:
#      x y z
#    x 2.012650 0.000000 0.000000 
#    y 0.000000 2.012650 0.000000 
#    z 0.000000 0.000000 2.023010 
# 
# From -- ./inp_files/1736.got.cif
#   From: 2010.03.12/outbox.cif.g09.slc.cpg/sg80_cif.got.tgz:1736.got - 2010.04.08 20:00:04.
