data_PCOD8302393
_publ_section_title
;
Structure prediction by ZEFSAII (Michael W. Deem and Ramdas Pophale) SiO2 
 PCOD8302393
Probable space group: I -4 
;
_chemical_formula_sum "Si O2"
_cell_formula_units_Z 64
_cell_length_a 13.673278
_cell_length_b 13.673278
_cell_length_c 16.599075
_cell_angle_alpha 90.000000
_cell_angle_beta 90.000000
_cell_angle_gamma 90.000000
_cell_volume 3103.338682
_symmetry_space_group_name_H-M "I -4 "
_symmetry_group_IT_number 82
_symmetry_cell_setting 'tetragonal'
loop_
_space_group_symop_operation_xyz
x,y,z
y,-x,-z
-x,-y,z
-y,x,-z
1/2+x,1/2+y,1/2+z
1/2+y,1/2-x,1/2-z
1/2-x,1/2-y,1/2+z
1/2-y,1/2+x,1/2-z
loop_
_atom_site_type_symbol
_atom_site_label
_atom_site_fract_x
_atom_site_fract_y
_atom_site_fract_z
Si Si1 0.763892 0.154926 0.147088
Si Si2 0.167424 0.216850 0.528301
Si Si3 0.325456 0.366522 0.861333
Si Si4 0.556072 0.197379 0.632955
Si Si5 0.265782 0.500920 0.200557
Si Si6 0.848349 0.081445 0.305968
Si Si7 0.854311 0.482349 0.054329
Si Si8 0.196285 0.608517 0.487056
O O1 0.660803 0.213256 0.154061
O O2 0.849523 0.232673 0.124551
O O3 0.778493 0.095730 0.229040
O O4 0.744073 0.079318 0.073709
O O5 0.150428 0.135139 0.457715
O O6 0.140092 0.187060 0.617226
O O7 0.095527 0.307479 0.507845
O O8 0.283035 0.239881 0.530395
O O9 0.383799 0.282511 0.812412
O O10 0.357169 0.468867 0.825525
O O11 0.519022 0.194364 0.724969
O O12 0.572970 0.084114 0.608240
O O13 0.467893 0.238791 0.577703
O O14 0.372038 0.452797 0.216548
O O15 0.219479 0.462719 0.116517
O O16 0.899772 0.576267 0.008216
#
# Coordination Sequence:
#
# PCOD8302393 Si02
#       8
#     8   8   8   8   8   8   8   8
#     4  10  23  46  61  90 133 167 219 271 320 393
#     4  10  20  37  66  91 128 163 206 262 328 382
#     4  10  21  40  63  91 130 167 208 270 323 391
#     4  11  23  39  66  92 127 171 212 267 329 393
#     4  10  22  36  61  95 132 162 206 257 332 399
#     4  11  22  38  65  96 123 173 211 262 324 398
#     4  11  21  40  62  98 129 163 204 270 332 392
#     4  11  22  40  64  91 126 171 212 262 326 397
#
# _framework density 20.622948999999998
#
# number of rings (size 3 to 8) (size 9 to 14) (size 15 to 20)
#    0.000    1.500    5.000    2.250    5.250    0.000 
#    4.500    0.000    0.000    0.000    0.000    0.000 
#    0.000    0.000    0.000    0.000    0.000    0.000 
#
# Total GULP energy -396470.172243 kJ/mol
# GULP energy per Si atom -12389.692883 kJ/mol
# Density = 2.057601 g / cm^3
# Si number density = 20.622949 Si / 1000 Ang^3
#
#
#
# Elastic Constant Matrix: (Units=GPa)
#
#
# Indices 1 2 3 4 5 6 
#
# 1 64.6276 11.4195 35.4860 0.0000 0.0000 -5.6147
# 2 11.4195 64.6276 35.4860 0.0000 0.0000 5.6146
# 3 35.4860 35.4860 121.1445 0.0000 0.0000 0.0000
# 4 0.0000 0.0000 0.0000 32.8127 0.0000 0.0000
# 5 0.0000 0.0000 0.0000 0.0000 32.8127 0.0000
# 6 -5.6147 5.6146 0.0000 0.0000 0.0000 20.9625
#
#
#
# Elastic Compliance Matrix: (Units=1/GPa)
#
#
# Indices 1 2 3 4 5 6 
#
# 1 0.019009 -0.000912 -0.005301 0.000000 0.000000 0.005335
# 2 -0.000912 0.019009 -0.005301 0.000000 0.000000 -0.005335
# 3 -0.005301 -0.005301 0.011360 0.000000 0.000000 0.000000
# 4 0.000000 0.000000 0.000000 0.030476 0.000000 0.000000
# 5 0.000000 0.000000 0.000000 0.000000 0.030476 0.000000
# 6 0.005335 -0.005335 0.000000 0.000000 0.000000 0.050562
#
#
# Mechanical properties :
#
#
# Convention : Reuss Voigt Hill
#
# Bulk Modulus (GPa) = 37.95054 46.13139 42.04096
# Shear Modulus (GPa) = 25.94675 28.51813 27.23244
#
# Velocity S-wave (km/s) = 3.55089 3.72268 3.63780
# Velocity P-wave (km/s) = 5.93749 6.39495 6.17046
#
# Compressibility (1/GPa) = 0.02635009
#
# Stress axis : x y z
#
# Youngs Moduli (GPa) = 52.60787 52.60787 88.02679
#
# Poissons Ratio (x) = 0.04796 0.46663
# Poissons Ratio (y) = 0.04796 0.46663
# Poissons Ratio (z) = 0.27888 0.27888
#
# Static dielectric constant tensor:
#      x y z
#    x 3.657230 0.000000 0.000000 
#    y 0.000000 3.657230 0.000000 
#    z 0.000000 0.000000 3.905870 
# 
# 
# High freq. dielectric constant tensor:
#      x y z
#    x 1.792640 0.000000 0.000000 
#    y 0.000000 1.792640 0.000000 
#    z 0.000000 0.000000 1.809620 
# 
# From -- ./inp_files/2721.got.cif
#   From: 2010.03.12/outbox.cif.g09.slc.cpg/sg82_2_cif.got.tgz:2721.got - 2010.04.08 20:02:50.
