data_PCOD8302926
_publ_section_title
;
Structure prediction by ZEFSAII (Michael W. Deem and Ramdas Pophale) SiO2 
 PCOD8302926
Probable space group: P 4/M
;
_chemical_formula_sum "Si O2"
_cell_formula_units_Z 20
_cell_length_a 9.786721
_cell_length_b 9.786721
_cell_length_c 10.684111
_cell_angle_alpha 90.000000
_cell_angle_beta 90.000000
_cell_angle_gamma 90.000000
_cell_volume 1023.323168
_symmetry_space_group_name_H-M "P 4/M"
_symmetry_group_IT_number 83
_symmetry_cell_setting 'tetragonal'
loop_
_space_group_symop_operation_xyz
x,y,z
-y,x,z
-x,-y,z
y,-x,z
-x,-y,-z
y,-x,-z
x,y,-z
-y,x,-z
loop_
_atom_site_type_symbol
_atom_site_label
_atom_site_fract_x
_atom_site_fract_y
_atom_site_fract_z
Si Si1 0.161936 0.642646 0.761118
Si Si2 0.132085 0.354670 0.856896
Si Si3 0.601136 0.703664 0.500000
O O1 0.204168 0.497810 0.821753
O O2 0.233599 0.761707 0.839000
O O3 0.208470 0.647799 0.618129
O O4 0.999451 0.666744 0.768433
O O5 0.082078 0.358064 0.000000
O O6 0.439115 0.681053 0.500000
#
# Coordination Sequence:
#
# PCOD8302926 Si02
#       3
#     8   8   4
#     4  11  23  40  64  92 127 168 207 262 312 368
#     4  11  23  41  63  95 128 166 214 259 316 377
#     4  11  22  41  65  94 128 163 218 261 311 374
#
# _framework density 19.544167000000002
#
# number of rings (size 3 to 8) (size 9 to 14) (size 15 to 20)
#    0.000    1.000    4.000    4.800    0.000    6.400 
#    0.000    4.000    0.000    2.400    0.000    0.000 
#    0.000    0.000    0.000    0.000    0.000    0.000 
#
# Total GULP energy -248118.191389 kJ/mol
# GULP energy per Si atom -12405.909569 kJ/mol
# Density = 1.949968 g / cm^3
# Si number density = 19.544167 Si / 1000 Ang^3
#
#
#
# Elastic Constant Matrix: (Units=GPa)
#
#
# Indices 1 2 3 4 5 6 
#
# 1 83.8289 55.6039 23.4069 0.0000 0.0000 -3.5631
# 2 55.6039 83.8289 23.4069 0.0000 0.0000 3.5631
# 3 23.4069 23.4069 122.3089 0.0000 0.0000 0.0000
# 4 0.0000 0.0000 0.0000 27.5714 0.0000 0.0000
# 5 0.0000 0.0000 0.0000 0.0000 27.5714 0.0000
# 6 -3.5631 3.5631 0.0000 0.0000 0.0000 39.2644
#
#
#
# Elastic Compliance Matrix: (Units=1/GPa)
#
#
# Indices 1 2 3 4 5 6 
#
# 1 0.021962 -0.014298 -0.001467 0.000000 0.000000 0.003290
# 2 -0.014298 0.021962 -0.001467 0.000000 0.000000 -0.003290
# 3 -0.001467 -0.001467 0.008737 0.000000 0.000000 0.000000
# 4 0.000000 0.000000 0.000000 0.036270 0.000000 0.000000
# 5 0.000000 0.000000 0.000000 0.000000 0.036270 0.000000
# 6 0.003290 -0.003290 0.000000 0.000000 0.000000 0.026066
#
#
# Mechanical properties :
#
#
# Convention : Reuss Voigt Hill
#
# Bulk Modulus (GPa) = 54.94779 54.97800 54.96290
# Shear Modulus (GPa) = 26.06934 31.38469 28.72701
#
# Velocity S-wave (km/s) = 3.65618 4.01163 3.83802
# Velocity P-wave (km/s) = 6.78227 7.04619 6.91549
#
# Compressibility (1/GPa) = 0.01819909
#
# Stress axis : x y z
#
# Youngs Moduli (GPa) = 45.53244 45.53244 114.45019
#
# Poissons Ratio (x) = 0.65102 0.16787
# Poissons Ratio (y) = 0.65102 0.16787
# Poissons Ratio (z) = 0.06679 0.06679
#
# Static dielectric constant tensor:
#      x y z
#    x 3.516040 0.000000 0.000000 
#    y 0.000000 3.516040 0.000000 
#    z 0.000000 0.000000 3.586100 
# 
# 
# High freq. dielectric constant tensor:
#      x y z
#    x 1.762020 0.000000 0.000000 
#    y 0.000000 1.762020 0.000000 
#    z 0.000000 0.000000 1.771810 
# 
# From -- ./inp_files/233.got.cif
#   From: 2010.03.12/outbox.cif.g09.slc.cpg/sg83_1_cif.got.tgz:233.got - 2010.04.08 20:05:18.
