data_PCOD8302742
_publ_section_title
;
Structure prediction by ZEFSAII (Michael W. Deem and Ramdas Pophale) SiO2 
 PCOD8302742
Probable space group: P 4/M
;
_chemical_formula_sum "Si O2"
_cell_formula_units_Z 48
_cell_length_a 17.058044
_cell_length_b 17.058044
_cell_length_c 8.991801
_cell_angle_alpha 90.000000
_cell_angle_beta 90.000000
_cell_angle_gamma 90.000000
_cell_volume 2616.406067
_symmetry_space_group_name_H-M "P 4/M"
_symmetry_group_IT_number 83
_symmetry_cell_setting 'tetragonal'
loop_
_space_group_symop_operation_xyz
x,y,z
-y,x,z
-x,-y,z
y,-x,z
-x,-y,-z
y,-x,-z
x,y,-z
-y,x,-z
loop_
_atom_site_type_symbol
_atom_site_label
_atom_site_fract_x
_atom_site_fract_y
_atom_site_fract_z
Si Si1 0.341461 0.745476 0.676591
Si Si2 0.072401 0.899709 0.323120
Si Si3 0.396533 0.067266 0.676874
Si Si4 0.567927 0.103944 0.323138
Si Si5 0.572106 0.394881 0.171682
Si Si6 0.164238 0.750093 0.677727
O O1 0.341937 0.747912 0.500000
O O2 0.385869 0.821613 0.743218
O O3 0.384242 0.667056 0.726354
O O4 0.252814 0.746052 0.737632
O O5 0.073818 0.897082 0.500000
O O6 0.123852 0.828686 0.257961
O O7 0.982393 0.891626 0.267784
O O8 0.394359 0.069147 0.500000
O O9 0.477868 0.105922 0.733112
O O10 0.324242 0.116656 0.742627
O O11 0.391151 0.976836 0.731218
O O12 0.569564 0.106907 0.500000
O O13 0.607123 0.480038 0.209072
O O14 0.586142 0.374114 0.000000
O O15 0.162529 0.749982 0.500000
#
# Coordination Sequence:
#
# PCOD8302742 Si02
#       6
#     8   8   8   8   8   8
#     4  10  20  29  46  77 103 119 150 203 250 279
#     4   8  14  23  34  50  80 126 168 196 229 276
#     4   8  14  25  38  53  84 128 159 180 219 282
#     4   8  15  26  39  58  88 125 155 181 225 282
#     4   9  20  39  57  70  90 126 164 190 226 290
#     4   9  17  24  36  60  91 122 154 193 238 281
#
# _framework density 18.345776000000001
#
# number of rings (size 3 to 8) (size 9 to 14) (size 15 to 20)
#    0.000    3.333    0.000    2.000    4.667    0.667 
#    0.000    0.833    0.000    0.000    0.000    3.500 
#    0.000    0.000    0.000    1.833    0.000    1.667 
#
# Total GULP energy -594940.125793 kJ/mol
# GULP energy per Si atom -12394.585954 kJ/mol
# Density = 1.830402 g / cm^3
# Si number density = 18.345776 Si / 1000 Ang^3
#
#
#
# Elastic Constant Matrix: (Units=GPa)
#
#
# Indices 1 2 3 4 5 6 
#
# 1 152.8141 102.0299 11.9454 0.0000 0.0000 1.0229
# 2 102.0299 152.8141 11.9454 0.0000 0.0000 -1.0229
# 3 11.9454 11.9454 4.8135 0.0000 0.0000 0.0000
# 4 0.0000 0.0000 0.0000 5.9828 0.0000 0.0000
# 5 0.0000 0.0000 0.0000 0.0000 5.9828 0.0000
# 6 1.0229 -1.0229 0.0000 0.0000 0.0000 38.5271
#
#
#
# Elastic Compliance Matrix: (Units=1/GPa)
#
#
# Indices 1 2 3 4 5 6 
#
# 1 0.012413 -0.007299 -0.012690 0.000000 0.000000 -0.000523
# 2 -0.007299 0.012413 -0.012690 0.000000 0.000000 0.000523
# 3 -0.012690 -0.012690 0.270735 0.000000 0.000000 0.000000
# 4 0.000000 0.000000 0.000000 0.167147 0.000000 0.000000
# 5 0.000000 0.000000 0.000000 0.000000 0.167147 0.000000
# 6 -0.000523 0.000523 0.000000 0.000000 0.000000 0.025984
#
#
# Mechanical properties :
#
#
# Convention : Reuss Voigt Hill
#
# Bulk Modulus (GPa) = 4.34402 62.47588 33.40995
# Shear Modulus (GPa) = 6.26621 22.39993 14.33307
#
# Velocity S-wave (km/s) = 1.85014 3.49805 2.79816
# Velocity P-wave (km/s) = 2.63383 7.10237 5.35634
#
# Compressibility (1/GPa) = 0.23020138
#
# Stress axis : x y z
#
# Youngs Moduli (GPa) = 80.56105 80.56105 3.69365
#
# Poissons Ratio (x) = 0.58804 0.04687
# Poissons Ratio (y) = 0.58804 0.04687
# Poissons Ratio (z) = 1.02234 1.02234
#
# Static dielectric constant tensor:
#      x y z
#    x 3.676350 0.000000 0.000000 
#    y 0.000000 3.676350 0.000000 
#    z 0.000000 0.000000 2.560660 
# 
# 
# High freq. dielectric constant tensor:
#      x y z
#    x 1.724360 0.000000 0.000000 
#    y 0.000000 1.724360 0.000000 
#    z 0.000000 0.000000 1.625350 
# 
# From -- ./inp_files/927.got.cif
#   From: 2010.03.12/outbox.cif.g09.slc.cpg/sg83_1_cif.got.tgz:927.got - 2010.04.08 20:05:18.
