data_PCOD8302538
_publ_section_title
;
Structure prediction by ZEFSAII (Michael W. Deem and Ramdas Pophale) SiO2 
 PCOD8302538
Probable space group: I -4 
;
_chemical_formula_sum "Si O2"
_cell_formula_units_Z 40
_cell_length_a 8.917223
_cell_length_b 8.917223
_cell_length_c 24.247331
_cell_angle_alpha 90.000000
_cell_angle_beta 90.000000
_cell_angle_gamma 90.000000
_cell_volume 1928.071771
_symmetry_space_group_name_H-M "I -4 "
_symmetry_group_IT_number 82
_symmetry_cell_setting 'tetragonal'
loop_
_space_group_symop_operation_xyz
x,y,z
y,-x,-z
-x,-y,z
-y,x,-z
1/2+x,1/2+y,1/2+z
1/2+y,1/2-x,1/2-z
1/2-x,1/2-y,1/2+z
1/2-y,1/2+x,1/2-z
loop_
_atom_site_type_symbol
_atom_site_label
_atom_site_fract_x
_atom_site_fract_y
_atom_site_fract_z
Si Si1 0.844998 0.741126 0.686396
Si Si2 0.947213 0.834341 0.800407
Si Si3 0.843876 0.246511 0.622058
Si Si4 0.918090 0.230239 0.502785
Si Si5 0.336010 0.050201 0.612600
O O1 0.862335 0.838343 0.741863
O O2 0.790217 0.576744 0.703534
O O3 0.712977 0.809642 0.649328
O O4 0.001418 0.734193 0.654359
O O5 0.836857 0.789141 0.849529
O O6 0.000000 0.000000 0.814986
O O7 0.860893 0.306786 0.559349
O O8 0.794716 0.073007 0.620505
O O9 0.904546 0.346379 0.452040
O O10 0.088525 0.182462 0.513755
O O11 0.500000 0.000000 0.632770
#
# Coordination Sequence:
#
# PCOD8302538 Si02
#       5
#     8   8   8   8   8
#     4  12  24  43  67  95 131 176 224 274 331 408
#     4  12  26  43  64  97 134 172 224 278 336 400
#     4  11  22  42  68  96 129 178 225 275 325 402
#     4   9  18  37  66  95 127 169 224 272 321 396
#     4  11  23  41  66  99 135 171 219 281 341 392
#
# _framework density 20.746113000000001
#
# number of rings (size 3 to 8) (size 9 to 14) (size 15 to 20)
#    0.000    1.000    4.000    3.600    0.000    1.600 
#    0.000    0.000    0.000    0.000    0.000    0.000 
#    0.000    0.000    0.000    0.000    0.000    0.000 
#
# Total GULP energy -248097.678890 kJ/mol
# GULP energy per Si atom -12404.883944 kJ/mol
# Density = 2.069889 g / cm^3
# Si number density = 20.746113 Si / 1000 Ang^3
#
#
#
# Elastic Constant Matrix: (Units=GPa)
#
#
# Indices 1 2 3 4 5 6 
#
# 1 70.5612 7.4789 45.1553 0.0000 0.0000 -6.8850
# 2 7.4789 70.5612 45.1553 0.0000 0.0000 6.8850
# 3 45.1553 45.1553 154.8553 0.0000 0.0000 0.0000
# 4 0.0000 0.0000 0.0000 29.8393 0.0000 0.0000
# 5 0.0000 0.0000 0.0000 0.0000 29.8393 0.0000
# 6 -6.8850 6.8850 0.0000 0.0000 0.0000 40.2885
#
#
#
# Elastic Compliance Matrix: (Units=1/GPa)
#
#
# Indices 1 2 3 4 5 6 
#
# 1 0.017903 0.001437 -0.005640 0.000000 0.000000 0.002814
# 2 0.001437 0.017903 -0.005640 0.000000 0.000000 -0.002814
# 3 -0.005640 -0.005640 0.009747 0.000000 0.000000 0.000000
# 4 0.000000 0.000000 0.000000 0.033513 0.000000 0.000000
# 5 0.000000 0.000000 0.000000 0.000000 0.033513 0.000000
# 6 0.002814 -0.002814 0.000000 0.000000 0.000000 0.025783
#
#
# Mechanical properties :
#
#
# Convention : Reuss Voigt Hill
#
# Bulk Modulus (GPa) = 38.65660 54.61742 46.63701
# Shear Modulus (GPa) = 29.99952 33.20595 31.60273
#
# Velocity S-wave (km/s) = 3.80680 4.00507 3.90719
# Velocity P-wave (km/s) = 6.16408 6.91167 6.54855
#
# Compressibility (1/GPa) = 0.02586880
#
# Stress axis : x y z
#
# Youngs Moduli (GPa) = 55.85540 55.85539 102.60007
#
# Poissons Ratio (x) = -0.08025 0.57862
# Poissons Ratio (y) = -0.08025 0.57862
# Poissons Ratio (z) = 0.31500 0.31500
#
# Static dielectric constant tensor:
#      x y z
#    x 3.600440 0.000000 0.000000 
#    y 0.000000 3.600440 0.000000 
#    z 0.000000 0.000000 4.005450 
# 
# 
# High freq. dielectric constant tensor:
#      x y z
#    x 1.802500 0.000000 0.000000 
#    y 0.000000 1.802500 0.000000 
#    z 0.000000 0.000000 1.829330 
# 
# From -- ./inp_files/3324.got.cif
#   From: 2010.03.12/outbox.cif.g09.slc.cpg/sg82_2_cif.got.tgz:3324.got - 2010.04.08 20:02:50.
