data_PCOD8302466
_publ_section_title
;
Structure prediction by ZEFSAII (Michael W. Deem and Ramdas Pophale) SiO2 
 PCOD8302466
Probable space group: I -4 
;
_chemical_formula_sum "Si O2"
_cell_formula_units_Z 50
_cell_length_a 13.586145
_cell_length_b 13.586145
_cell_length_c 10.924853
_cell_angle_alpha 90.000000
_cell_angle_beta 90.000000
_cell_angle_gamma 90.000000
_cell_volume 2016.545812
_symmetry_space_group_name_H-M "I -4 "
_symmetry_group_IT_number 82
_symmetry_cell_setting 'tetragonal'
loop_
_space_group_symop_operation_xyz
x,y,z
y,-x,-z
-x,-y,z
-y,x,-z
1/2+x,1/2+y,1/2+z
1/2+y,1/2-x,1/2-z
1/2-x,1/2-y,1/2+z
1/2-y,1/2+x,1/2-z
loop_
_atom_site_type_symbol
_atom_site_label
_atom_site_fract_x
_atom_site_fract_y
_atom_site_fract_z
Si Si1 0.355235 0.210680 0.334634
Si Si2 0.500000 0.000000 0.750000
Si Si3 0.757473 0.872412 0.970016
Si Si4 0.989277 0.116515 0.380786
Si Si5 0.606786 0.722679 0.083647
Si Si6 0.661692 0.662310 0.708125
Si Si7 0.071314 0.338766 0.084451
O O1 0.340255 0.321542 0.385943
O O2 0.420446 0.216213 0.208696
O O3 0.248216 0.162779 0.307575
O O4 0.406782 0.143546 0.439486
O O5 0.559998 0.072818 0.839691
O O6 0.676415 0.788896 0.000285
O O7 0.808561 0.911292 0.096725
O O8 0.708699 0.963193 0.900417
O O9 0.018833 0.183075 0.499069
O O10 0.056983 0.136245 0.263928
O O11 0.878086 0.154179 0.360493
O O12 0.000000 0.000000 0.406814
O O13 0.654716 0.769733 0.643850
#
# Coordination Sequence:
#
# PCOD8302466 Si02
#       7
#     8   2   8   8   8   8   8
#     4  10  22  43  72 102 139 199 233 312 374 437
#     4  12  28  48  72 114 140 200 252 308 350 452
#     4  10  22  44  67 103 140 200 238 311 373 439
#     4  12  23  40  66 113 144 193 250 311 374 448
#     4  11  22  40  65 105 150 186 250 295 386 441
#     4  10  23  44  73 104 145 188 247 305 381 439
#     4  11  25  48  74 108 145 189 256 293 375 454
#
# _framework density 24.794875000000001
#
# number of rings (size 3 to 8) (size 9 to 14) (size 15 to 20)
#    0.000    1.280    3.200    1.920    2.240    2.560 
#    2.880    1.600    0.000    0.000    0.000    0.000 
#    0.000    0.000    0.000    0.000    0.000    0.000 
#
# Total GULP energy -309721.107988 kJ/mol
# GULP energy per Si atom -12388.844320 kJ/mol
# Density = 2.473844 g / cm^3
# Si number density = 24.794875 Si / 1000 Ang^3
#
#
#
# Elastic Constant Matrix: (Units=GPa)
#
#
# Indices 1 2 3 4 5 6 
#
# 1 58.1029 9.9203 19.1124 0.0000 0.0000 0.3704
# 2 9.9203 58.1029 19.1124 0.0000 0.0000 -0.3704
# 3 19.1124 19.1124 123.5001 0.0000 0.0000 0.0000
# 4 0.0000 0.0000 0.0000 47.5522 0.0000 0.0000
# 5 0.0000 0.0000 0.0000 0.0000 47.5522 0.0000
# 6 0.3704 -0.3704 0.0000 0.0000 0.0000 31.3860
#
#
#
# Elastic Compliance Matrix: (Units=1/GPa)
#
#
# Indices 1 2 3 4 5 6 
#
# 1 0.018430 -0.002329 -0.002492 0.000000 0.000000 -0.000245
# 2 -0.002329 0.018430 -0.002492 0.000000 0.000000 0.000245
# 3 -0.002492 -0.002492 0.008868 0.000000 0.000000 0.000000
# 4 0.000000 0.000000 0.000000 0.021030 0.000000 0.000000
# 5 0.000000 0.000000 0.000000 0.000000 0.021030 0.000000
# 6 -0.000245 0.000245 0.000000 0.000000 0.000000 0.031867
#
#
# Mechanical properties :
#
#
# Convention : Reuss Voigt Hill
#
# Bulk Modulus (GPa) = 32.15068 37.33292 34.74180
# Shear Modulus (GPa) = 34.56723 38.06880 36.31802
#
# Velocity S-wave (km/s) = 3.73785 3.92260 3.83134
# Velocity P-wave (km/s) = 5.62348 5.96701 5.79779
#
# Compressibility (1/GPa) = 0.03110354
#
# Stress axis : x y z
#
# Youngs Moduli (GPa) = 54.26052 54.26052 112.76004
#
# Poissons Ratio (x) = 0.12635 0.28097
# Poissons Ratio (y) = 0.12635 0.28097
# Poissons Ratio (z) = 0.13520 0.13520
#
# Static dielectric constant tensor:
#      x y z
#    x 4.221880 0.000000 0.000000 
#    y 0.000000 4.221880 0.000000 
#    z 0.000000 0.000000 4.834470 
# 
# 
# High freq. dielectric constant tensor:
#      x y z
#    x 1.962680 0.000000 0.000000 
#    y 0.000000 1.962680 0.000000 
#    z 0.000000 0.000000 2.018010 
# 
# From -- ./inp_files/1811.got.cif
#   From: 2010.03.12/outbox.cif.g09.slc.cpg/sg82_1_cif.got.tgz:1811.got - 2010.04.08 20:02:50.
