data_PCOD8302097
_publ_section_title
;
Structure prediction by ZEFSAII (Michael W. Deem and Ramdas Pophale) SiO2 
 PCOD8302097
Probable space group: I 4
;
_chemical_formula_sum "Si O2"
_cell_formula_units_Z 56
_cell_length_a 10.836931
_cell_length_b 10.836931
_cell_length_c 23.064411
_cell_angle_alpha 90.000000
_cell_angle_beta 90.000000
_cell_angle_gamma 90.000000
_cell_volume 2708.663059
_symmetry_space_group_name_H-M "I 4"
_symmetry_group_IT_number 79
_symmetry_cell_setting 'tetragonal'
loop_
_space_group_symop_operation_xyz
x,y,z
-y,x,z
-x,-y,z
y,-x,z
1/2+x,1/2+y,1/2+z
1/2-y,1/2+x,1/2+z
1/2-x,1/2-y,1/2+z
1/2+y,1/2-x,1/2+z
loop_
_atom_site_type_symbol
_atom_site_label
_atom_site_fract_x
_atom_site_fract_y
_atom_site_fract_z
Si Si1 0.797137 0.405645 0.674480
Si Si2 0.624324 0.251416 0.601908
Si Si3 0.192021 0.924977 0.299786
Si Si4 0.553482 0.307519 0.474246
Si Si5 0.960236 0.200859 0.488476
Si Si6 0.565757 0.875464 0.901661
Si Si7 0.355069 0.006031 0.594094
O O1 0.692643 0.366460 0.628577
O O2 0.807405 0.546343 0.655597
O O3 0.760642 0.388724 0.740458
O O4 0.925308 0.337654 0.656584
O O5 0.553036 0.287351 0.543547
O O6 0.708077 0.129532 0.591509
O O7 0.290421 0.888958 0.348526
O O8 0.069181 0.842537 0.304087
O O9 0.650747 0.415074 0.457342
O O10 0.591627 0.183532 0.441115
O O11 0.921441 0.276391 0.545852
O O12 0.096751 0.142401 0.483008
O O13 0.960412 0.300318 0.436658
O O14 0.500000 0.000000 0.878452
O O15 0.500000 0.000000 0.574982
#
# Coordination Sequence:
#
# PCOD8302097 Si02
#       7
#     8   8   8   8   8   8   8
#     4  11  22  38  66  95 127 162 213 269 331 390
#     4  11  20  36  64  96 131 163 204 267 327 397
#     4  11  25  48  72  95 127 172 230 285 334 393
#     4  11  25  42  67 101 137 172 216 272 339 406
#     4  11  23  39  62  93 136 178 221 269 322 390
#     4  12  28  42  69  95 133 177 223 274 333 402
#     4  10  22  34  56  94 133 169 204 256 329 398
#
# _framework density 20.674405
#
# number of rings (size 3 to 8) (size 9 to 14) (size 15 to 20)
#    0.000    1.000    4.286    2.143    6.000    3.143 
#    0.000    0.000    0.000    0.000    0.000    2.000 
#    0.000    0.000    0.000    0.000    0.000    0.000 
#
# Total GULP energy -346892.786459 kJ/mol
# GULP energy per Si atom -12389.028088 kJ/mol
# Density = 2.062735 g / cm^3
# Si number density = 20.674405 Si / 1000 Ang^3
#
#
#
# Elastic Constant Matrix: (Units=GPa)
#
#
# Indices 1 2 3 4 5 6 
#
# 1 72.9182 17.1767 33.1782 0.0000 0.0000 0.0676
# 2 17.1767 72.9182 33.1782 0.0000 0.0000 -0.0676
# 3 33.1782 33.1782 110.0557 0.0000 0.0000 0.0000
# 4 0.0000 0.0000 0.0000 31.1275 0.0000 0.0000
# 5 0.0000 0.0000 0.0000 0.0000 31.1275 0.0000
# 6 0.0676 -0.0676 0.0000 0.0000 0.0000 23.5084
#
#
#
# Elastic Compliance Matrix: (Units=1/GPa)
#
#
# Indices 1 2 3 4 5 6 
#
# 1 0.016104 -0.001836 -0.004301 0.000000 0.000000 -0.000052
# 2 -0.001836 0.016104 -0.004301 0.000000 0.000000 0.000052
# 3 -0.004301 -0.004301 0.011680 0.000000 0.000000 0.000000
# 4 0.000000 0.000000 0.000000 0.032126 0.000000 0.000000
# 5 0.000000 0.000000 0.000000 0.000000 0.032126 0.000000
# 6 -0.000052 0.000052 0.000000 0.000000 0.000000 0.042538
#
#
# Mechanical properties :
#
#
# Convention : Reuss Voigt Hill
#
# Bulk Modulus (GPa) = 43.46000 46.99536 45.22768
# Shear Modulus (GPa) = 27.89800 28.64327 28.27064
#
# Velocity S-wave (km/s) = 3.67740 3.72620 3.70188
# Velocity P-wave (km/s) = 6.25283 6.42598 6.33999
#
# Compressibility (1/GPa) = 0.02300967
#
# Stress axis : x y z
#
# Youngs Moduli (GPa) = 62.09762 62.09762 85.61937
#
# Poissons Ratio (x) = 0.11404 0.36826
# Poissons Ratio (y) = 0.11404 0.36826
# Poissons Ratio (z) = 0.26709 0.26709
#
# Static dielectric constant tensor:
#      x y z
#    x 3.929850 0.000000 0.000000 
#    y 0.000000 3.929850 0.000000 
#    z 0.000000 0.000000 3.543370 
# 
# 
# High freq. dielectric constant tensor:
#      x y z
#    x 1.814160 0.000000 0.000000 
#    y 0.000000 1.814160 0.000000 
#    z 0.000000 0.000000 1.789230 
# 
# From -- ./inp_files/1821.got.cif
#   From: 2010.03.12/outbox.cif.g09.slc.cpg/sg79_cif.got.tgz:1821.got - 2010.04.16 16:38:49.
