data_PCOD8302881
_publ_section_title
;
Structure prediction by ZEFSAII (Michael W. Deem and Ramdas Pophale) SiO2 
 PCOD8302881
Probable space group: P 4/M
;
_chemical_formula_sum "Si O2"
_cell_formula_units_Z 56
_cell_length_a 12.072426
_cell_length_b 12.072426
_cell_length_c 24.534095
_cell_angle_alpha 90.000000
_cell_angle_beta 90.000000
_cell_angle_gamma 90.000000
_cell_volume 3575.684127
_symmetry_space_group_name_H-M "P 4/M"
_symmetry_group_IT_number 83
_symmetry_cell_setting 'tetragonal'
loop_
_space_group_symop_operation_xyz
x,y,z
-y,x,z
-x,-y,z
y,-x,z
-x,-y,-z
y,-x,-z
x,y,-z
-y,x,-z
loop_
_atom_site_type_symbol
_atom_site_label
_atom_site_fract_x
_atom_site_fract_y
_atom_site_fract_z
Si Si1 0.319644 0.540494 0.175446
Si Si2 0.010058 0.624766 0.354220
Si Si3 0.633171 0.234547 0.333841
Si Si4 0.350595 0.395629 0.440170
Si Si5 0.321416 0.539933 0.057498
Si Si6 0.971951 0.179248 0.436678
Si Si7 0.594787 0.784750 0.283354
O O1 0.370374 0.418025 0.182609
O O2 0.259379 0.553906 0.115778
O O3 0.223047 0.561317 0.219767
O O4 0.894079 0.662154 0.328541
O O5 0.000000 0.500000 0.379539
O O6 0.048767 0.710573 0.400750
O O7 0.091393 0.623970 0.302175
O O8 0.659783 0.271587 0.395686
O O9 0.505690 0.261827 0.320027
O O10 0.709190 0.298368 0.291500
O O11 0.472943 0.348756 0.432929
O O12 0.304572 0.363526 0.500000
O O13 0.370873 0.418077 0.057062
O O14 0.251952 0.555514 0.000000
O O15 0.966741 0.213497 0.500000
O O16 0.090886 0.124476 0.423135
#
# Coordination Sequence:
#
# PCOD8302881 Si02
#       7
#     8   8   8   8   8   8   8
#     4   9  15  23  40  66  89 117 154 185 211 250
#     4  10  23  35  44  65  94 121 139 168 226 275
#     4  11  20  32  49  64  89 116 144 182 221 263
#     4   9  17  29  46  67  85 103 134 174 217 262
#     4   7  10  17  30  53  89 122 143 173 218 254
#     4   9  18  36  60  74  78  97 142 191 226 266
#     4  11  20  31  46  66  88 118 151 182 214 261
#
# _framework density 15.661339999999999
#
# number of rings (size 3 to 8) (size 9 to 14) (size 15 to 20)
#    0.000    2.571    2.857    3.000    0.000    1.143 
#    0.000    2.857    0.000    0.000    0.000    0.000 
#    0.000    6.286    0.000    0.000    0.000    0.000 
#
# Total GULP energy -693796.686829 kJ/mol
# GULP energy per Si atom -12389.226551 kJ/mol
# Density = 1.562569 g / cm^3
# Si number density = 15.661340 Si / 1000 Ang^3
#
#
#
# Elastic Constant Matrix: (Units=GPa)
#
#
# Indices 1 2 3 4 5 6 
#
# 1 49.5748 11.3498 27.5641 0.0000 0.0000 -4.3720
# 2 11.3498 49.5748 27.5641 0.0000 0.0000 4.3720
# 3 27.5641 27.5641 138.1230 0.0000 0.0000 0.0000
# 4 0.0000 0.0000 0.0000 13.5509 0.0000 0.0000
# 5 0.0000 0.0000 0.0000 0.0000 13.5509 0.0000
# 6 -4.3720 4.3720 0.0000 0.0000 0.0000 12.1730
#
#
#
# Elastic Compliance Matrix: (Units=1/GPa)
#
#
# Indices 1 2 3 4 5 6 
#
# 1 0.024267 -0.004236 -0.003997 0.000000 0.000000 0.010237
# 2 -0.004236 0.024267 -0.003997 0.000000 0.000000 -0.010237
# 3 -0.003997 -0.003997 0.008835 0.000000 0.000000 0.000000
# 4 0.000000 0.000000 0.000000 0.073796 0.000000 0.000000
# 5 0.000000 0.000000 0.000000 0.000000 0.073796 0.000000
# 6 0.010237 -0.010237 0.000000 0.000000 0.000000 0.089503
#
#
# Mechanical properties :
#
#
# Convention : Reuss Voigt Hill
#
# Bulk Modulus (GPa) = 30.38830 41.13652 35.76241
# Shear Modulus (GPa) = 15.15640 19.24126 17.19883
#
# Velocity S-wave (km/s) = 3.11426 3.50892 3.31746
# Velocity P-wave (km/s) = 5.69008 6.53758 6.12850
#
# Compressibility (1/GPa) = 0.03290740
#
# Stress axis : x y z
#
# Youngs Moduli (GPa) = 41.20873 41.20873 113.18144
#
# Poissons Ratio (x) = 0.17456 0.45243
# Poissons Ratio (y) = 0.17456 0.45243
# Poissons Ratio (z) = 0.16473 0.16473
#
# Static dielectric constant tensor:
#      x y z
#    x 2.783630 0.000000 0.000000 
#    y 0.000000 2.783630 0.000000 
#    z 0.000000 0.000000 3.279280 
# 
# 
# High freq. dielectric constant tensor:
#      x y z
#    x 1.573640 0.000000 0.000000 
#    y 0.000000 1.573640 0.000000 
#    z 0.000000 0.000000 1.596630 
# 
# From -- ./inp_files/3178.got.cif
#   From: 2010.03.12/outbox.cif.g09.slc.cpg/sg83_2_cif.got.tgz:3178.got - 2010.04.08 20:05:18.
