data_PCOD8302669
_publ_section_title
;
Structure prediction by ZEFSAII (Michael W. Deem and Ramdas Pophale) SiO2 
 PCOD8302669
Probable space group: P 4/M
;
_chemical_formula_sum "Si O2"
_cell_formula_units_Z 64
_cell_length_a 19.316548
_cell_length_b 19.316548
_cell_length_c 9.773652
_cell_angle_alpha 90.000000
_cell_angle_beta 90.000000
_cell_angle_gamma 90.000000
_cell_volume 3646.833257
_symmetry_space_group_name_H-M "P 4/M"
_symmetry_group_IT_number 83
_symmetry_cell_setting 'tetragonal'
loop_
_space_group_symop_operation_xyz
x,y,z
-y,x,z
-x,-y,z
y,-x,z
-x,-y,-z
y,-x,-z
x,y,-z
-y,x,-z
loop_
_atom_site_type_symbol
_atom_site_label
_atom_site_fract_x
_atom_site_fract_y
_atom_site_fract_z
Si Si1 0.595271 0.448237 0.337215
Si Si2 0.218635 0.098724 0.339708
Si Si3 0.966252 0.362657 0.661496
Si Si4 0.627593 0.121042 0.336515
Si Si5 0.527752 0.859040 0.337119
Si Si6 0.745111 0.224951 0.338233
Si Si7 0.619925 0.732890 0.663719
Si Si8 0.968137 0.108345 0.155469
O O1 0.592730 0.527491 0.285743
O O2 0.597979 0.447115 0.500000
O O3 0.662381 0.411633 0.276000
O O4 0.207348 0.085671 0.500000
O O5 0.199754 0.177676 0.299421
O O6 0.169824 0.046772 0.258926
O O7 0.297186 0.080838 0.296738
O O8 0.972638 0.366546 0.500000
O O9 0.043968 0.357050 0.721636
O O10 0.928670 0.432856 0.713793
O O11 0.629714 0.121989 0.500000
O O12 0.551318 0.143560 0.283086
O O13 0.686523 0.173182 0.277535
O O14 0.527010 0.856970 0.500000
O O15 0.571422 0.794230 0.279644
O O16 0.736616 0.227951 0.500000
O O17 0.736801 0.302189 0.278008
O O18 0.621141 0.735100 0.500000
O O19 0.045971 0.084401 0.183772
O O20 0.959959 0.134522 0.000000
#
# Coordination Sequence:
#
# PCOD8302669 Si02
#       8
#     8   8   8   8   8   8   8   8
#     4   8  14  21  28  40  58  88 139 193 223 252
#     4  10  19  30  48  71  99 127 150 187 241 287
#     4   9  16  27  38  56  84 114 146 184 225 268
#     4   9  17  24  36  52  75 110 151 186 220 271
#     4   9  15  24  35  49  72 112 151 180 219 270
#     4   9  17  27  35  55  86 114 143 184 233 277
#     4   9  15  22  32  44  68 104 140 177 225 275
#     4   9  20  38  55  71  94 124 158 195 230 270
#
# _framework density 17.549472999999999
#
# number of rings (size 3 to 8) (size 9 to 14) (size 15 to 20)
#    0.000    3.000    1.250    1.125    3.500    2.000 
#    0.000    0.625    0.000    0.000    0.000    0.000 
#    0.000    3.000    0.000    0.000    0.000    0.000 
#
# Total GULP energy -793173.547747 kJ/mol
# GULP energy per Si atom -12393.336684 kJ/mol
# Density = 1.750953 g / cm^3
# Si number density = 17.549473 Si / 1000 Ang^3
#
#
#
# Elastic Constant Matrix: (Units=GPa)
#
#
# Indices 1 2 3 4 5 6 
#
# 1 90.8577 40.8939 12.8259 0.0000 0.0000 2.0179
# 2 40.8939 90.8577 12.8259 0.0000 0.0000 -2.0179
# 3 12.8259 12.8259 12.3550 0.0000 0.0000 0.0000
# 4 0.0000 0.0000 0.0000 4.2590 0.0000 0.0000
# 5 0.0000 0.0000 0.0000 0.0000 4.2590 0.0000
# 6 2.0179 -2.0179 0.0000 0.0000 0.0000 37.1310
#
#
#
# Elastic Compliance Matrix: (Units=1/GPa)
#
#
# Indices 1 2 3 4 5 6 
#
# 1 0.014808 -0.005295 -0.009875 0.000000 0.000000 -0.001092
# 2 -0.005295 0.014808 -0.009875 0.000000 0.000000 0.001092
# 3 -0.009875 -0.009875 0.101443 0.000000 0.000000 0.000000
# 4 0.000000 0.000000 0.000000 0.234797 0.000000 0.000000
# 5 0.000000 0.000000 0.000000 0.000000 0.234797 0.000000
# 6 -0.001092 0.001092 0.000000 0.000000 0.000000 0.027050
#
#
# Mechanical properties :
#
#
# Convention : Reuss Voigt Hill
#
# Bulk Modulus (GPa) = 12.35074 36.35131 24.35102
# Shear Modulus (GPa) = 7.09437 17.63142 12.36290
#
# Velocity S-wave (km/s) = 2.01278 3.17309 2.65705
# Velocity P-wave (km/s) = 3.52911 5.84665 4.82897
#
# Compressibility (1/GPa) = 0.08096682
#
# Stress axis : x y z
#
# Youngs Moduli (GPa) = 67.53214 67.53214 9.85777
#
# Poissons Ratio (x) = 0.35758 0.09735
# Poissons Ratio (y) = 0.35758 0.09735
# Poissons Ratio (z) = 0.66691 0.66691
#
# Static dielectric constant tensor:
#      x y z
#    x 3.521430 0.000000 0.000000 
#    y 0.000000 3.521430 0.000000 
#    z 0.000000 0.000000 2.383950 
# 
# 
# High freq. dielectric constant tensor:
#      x y z
#    x 1.694230 0.000000 0.000000 
#    y 0.000000 1.694230 0.000000 
#    z 0.000000 0.000000 1.572930 
# 
# From -- ./inp_files/2033.got.cif
#   From: 2010.03.12/outbox.cif.g09.slc.cpg/sg83_2_cif.got.tgz:2033.got - 2010.04.08 20:05:18.
