data_PCOD8302614
_publ_section_title
;
Structure prediction by ZEFSAII (Michael W. Deem and Ramdas Pophale) SiO2 
 PCOD8302614
Probable space group: P 4/M
;
_chemical_formula_sum "Si O2"
_cell_formula_units_Z 32
_cell_length_a 12.436918
_cell_length_b 12.436918
_cell_length_c 10.939336
_cell_angle_alpha 90.000000
_cell_angle_beta 90.000000
_cell_angle_gamma 90.000000
_cell_volume 1692.062901
_symmetry_space_group_name_H-M "P 4/M"
_symmetry_group_IT_number 83
_symmetry_cell_setting 'tetragonal'
loop_
_space_group_symop_operation_xyz
x,y,z
-y,x,z
-x,-y,z
y,-x,z
-x,-y,-z
y,-x,-z
x,y,-z
-y,x,-z
loop_
_atom_site_type_symbol
_atom_site_label
_atom_site_fract_x
_atom_site_fract_y
_atom_site_fract_z
Si Si1 0.274549 0.131864 0.254530
Si Si2 0.119097 0.490625 0.735519
Si Si3 0.763664 0.299307 0.000000
Si Si4 0.184473 0.462584 0.000000
Si Si5 0.723495 0.099828 0.361124
O O1 0.394541 0.176060 0.291979
O O2 0.182750 0.180050 0.340283
O O3 0.268466 0.002354 0.269458
O O4 0.255207 0.167686 0.114896
O O5 0.111627 0.463480 0.879490
O O6 0.167718 0.387161 0.664984
O O7 0.000000 0.500000 0.682401
O O8 0.642307 0.258069 0.000000
O O9 0.746211 0.427756 0.000000
O O10 0.728283 0.058720 0.500000
#
# Coordination Sequence:
#
# PCOD8302614 Si02
#       5
#     8   8   4   4   8
#     4  10  22  37  56  87 111 148 192 233 286 336
#     4   9  19  34  57  83 109 145 193 238 279 331
#     4  10  20  35  60  84 115 146 183 240 290 340
#     4  10  17  33  56  85 112 143 183 234 292 336
#     4  11  22  37  58  81 116 155 191 236 276 335
#
# _framework density 18.911826000000001
#
# number of rings (size 3 to 8) (size 9 to 14) (size 15 to 20)
#    0.000    2.000    2.500    1.125    0.000   10.250 
#    0.000    1.250    0.000    2.250    0.000    1.750 
#    0.000    0.000    0.000    0.000    0.000    0.000 
#
# Total GULP energy -396459.776109 kJ/mol
# GULP energy per Si atom -12389.368003 kJ/mol
# Density = 1.886878 g / cm^3
# Si number density = 18.911826 Si / 1000 Ang^3
#
#
#
# Elastic Constant Matrix: (Units=GPa)
#
#
# Indices 1 2 3 4 5 6 
#
# 1 87.3898 45.3914 29.8381 0.0000 0.0000 1.5604
# 2 45.3914 87.3898 29.8381 0.0000 0.0000 -1.5604
# 3 29.8381 29.8381 87.9615 0.0000 0.0000 0.0000
# 4 0.0000 0.0000 0.0000 23.6078 0.0000 0.0000
# 5 0.0000 0.0000 0.0000 0.0000 23.6078 0.0000
# 6 1.5604 -1.5604 0.0000 0.0000 0.0000 23.5284
#
#
#
# Elastic Compliance Matrix: (Units=1/GPa)
#
#
# Indices 1 2 3 4 5 6 
#
# 1 0.016407 -0.007521 -0.003014 0.000000 0.000000 -0.001587
# 2 -0.007521 0.016407 -0.003014 0.000000 0.000000 0.001587
# 3 -0.003014 -0.003014 0.013414 0.000000 0.000000 0.000000
# 4 0.000000 0.000000 0.000000 0.042359 0.000000 0.000000
# 5 0.000000 0.000000 0.000000 0.000000 0.042359 0.000000
# 6 -0.001587 0.001587 0.000000 0.000000 0.000000 0.042712
#
#
# Mechanical properties :
#
#
# Convention : Reuss Voigt Hill
#
# Bulk Modulus (GPa) = 52.27839 52.54180 52.41009
# Shear Modulus (GPa) = 24.13903 24.66038 24.39971
#
# Velocity S-wave (km/s) = 3.57655 3.61496 3.59581
# Velocity P-wave (km/s) = 6.69020 6.72806 6.70916
#
# Compressibility (1/GPa) = 0.01912836
#
# Stress axis : x y z
#
# Youngs Moduli (GPa) = 60.94921 60.94921 74.55133
#
# Poissons Ratio (x) = 0.45841 0.22472
# Poissons Ratio (y) = 0.45841 0.22472
# Poissons Ratio (z) = 0.18372 0.18372
#
# Static dielectric constant tensor:
#      x y z
#    x 3.468080 0.000000 0.000000 
#    y 0.000000 3.468080 0.000000 
#    z 0.000000 0.000000 3.423280 
# 
# 
# High freq. dielectric constant tensor:
#      x y z
#    x 1.724040 0.000000 0.000000 
#    y 0.000000 1.724040 0.000000 
#    z 0.000000 0.000000 1.734410 
# 
# From -- ./inp_files/1567.got.cif
#   From: 2010.03.12/outbox.cif.g09.slc.cpg/sg83_1_cif.got.tgz:1567.got - 2010.04.08 20:05:18.
