data_PCOD8302655
_publ_section_title
;
Structure prediction by ZEFSAII (Michael W. Deem and Ramdas Pophale) SiO2 
 PCOD8302655
Probable space group: P 4/M
;
_chemical_formula_sum "Si O2"
_cell_formula_units_Z 64
_cell_length_a 20.261417
_cell_length_b 20.261417
_cell_length_c 9.590894
_cell_angle_alpha 90.000000
_cell_angle_beta 90.000000
_cell_angle_gamma 90.000000
_cell_volume 3937.301940
_symmetry_space_group_name_H-M "P 4/M"
_symmetry_group_IT_number 83
_symmetry_cell_setting 'tetragonal'
loop_
_space_group_symop_operation_xyz
x,y,z
-y,x,z
-x,-y,z
y,-x,z
-x,-y,-z
y,-x,-z
x,y,-z
-y,x,-z
loop_
_atom_site_type_symbol
_atom_site_label
_atom_site_fract_x
_atom_site_fract_y
_atom_site_fract_z
Si Si1 0.474665 0.395773 0.653022
Si Si2 0.722882 0.851903 0.657097
Si Si3 0.502060 0.284804 0.156114
Si Si4 0.635208 0.767187 0.157480
Si Si5 0.171844 0.263671 0.341911
Si Si6 0.734927 0.651169 0.836306
Si Si7 0.916606 0.820275 0.839779
Si Si8 0.067615 0.813874 0.159897
O O1 0.547949 0.421922 0.674733
O O2 0.467308 0.364254 0.500000
O O3 0.462083 0.341484 0.766410
O O4 0.703041 0.873342 0.500000
O O5 0.659159 0.823472 0.736785
O O6 0.777493 0.795933 0.653236
O O7 0.752098 0.914001 0.741470
O O8 0.445172 0.228855 0.165568
O O9 0.574820 0.270707 0.217720
O O10 0.513378 0.309007 0.000000
O O11 0.669163 0.695369 0.193397
O O12 0.657630 0.784999 0.000000
O O13 0.154286 0.286494 0.500000
O O14 0.203688 0.322927 0.253973
O O15 0.106686 0.239084 0.260834
O O16 0.753392 0.652647 0.000000
O O17 0.877229 0.887357 0.806436
O O18 0.992890 0.835015 0.809092
O O19 0.904995 0.798457 0.000000
O O20 0.077132 0.791233 0.000000
#
# Coordination Sequence:
#
# PCOD8302655 Si02
#       8
#     8   8   8   8   8   8   8   8
#     4   9  18  30  40  52  76 111 145 175 212 263
#     4   9  17  29  45  64  86 115 152 189 221 255
#     4  10  19  29  43  64  85 107 140 183 230 276
#     4   9  17  29  44  62  86 114 144 182 227 272
#     4   9  17  29  45  64  86 115 152 189 221 255
#     4   9  17  29  44  62  86 114 144 182 227 272
#     4   9  17  29  46  69  97 127 155 181 210 246
#     4   9  17  29  46  69  97 127 155 181 210 246
#
# _framework density 16.254787
#
# number of rings (size 3 to 8) (size 9 to 14) (size 15 to 20)
#    0.000    2.875    0.000    1.875    0.000    6.250 
#    0.000    4.375    0.000    0.000    0.000    4.375 
#    0.000    7.000    0.000    0.000    0.000    0.000 
#
# Total GULP energy -793030.730802 kJ/mol
# GULP energy per Si atom -12391.105169 kJ/mol
# Density = 1.621779 g / cm^3
# Si number density = 16.254787 Si / 1000 Ang^3
#
#
#
# Elastic Constant Matrix: (Units=GPa)
#
#
# Indices 1 2 3 4 5 6 
#
# 1 59.5901 33.6203 36.0807 0.0000 0.0000 1.8373
# 2 33.6203 59.5901 36.0807 0.0000 0.0000 -1.8373
# 3 36.0807 36.0807 80.7775 0.0000 0.0000 0.0000
# 4 0.0000 0.0000 0.0000 8.1637 0.0000 0.0000
# 5 0.0000 0.0000 0.0000 0.0000 8.1637 0.0000
# 6 1.8373 -1.8373 0.0000 0.0000 0.0000 7.4910
#
#
#
# Elastic Compliance Matrix: (Units=1/GPa)
#
#
# Indices 1 2 3 4 5 6 
#
# 1 0.028145 -0.011746 -0.007325 0.000000 0.000000 -0.009784
# 2 -0.011746 0.028145 -0.007325 0.000000 0.000000 0.009784
# 3 -0.007325 -0.007325 0.018923 0.000000 0.000000 0.000000
# 4 0.000000 0.000000 0.000000 0.122494 0.000000 0.000000
# 5 0.000000 0.000000 0.000000 0.000000 0.122494 0.000000
# 6 -0.009784 0.009784 0.000000 0.000000 0.000000 0.138294
#
#
# Mechanical properties :
#
#
# Convention : Reuss Voigt Hill
#
# Bulk Modulus (GPa) = 44.59939 45.72460 45.16200
# Shear Modulus (GPa) = 9.63836 11.04205 10.34021
#
# Velocity S-wave (km/s) = 2.43771 2.60919 2.52490
# Velocity P-wave (km/s) = 5.95151 6.10476 6.02862
#
# Compressibility (1/GPa) = 0.02242183
#
# Stress axis : x y z
#
# Youngs Moduli (GPa) = 35.53037 35.53037 52.84460
#
# Poissons Ratio (x) = 0.41733 0.38709
# Poissons Ratio (y) = 0.41733 0.38709
# Poissons Ratio (z) = 0.26026 0.26026
#
# Static dielectric constant tensor:
#      x y z
#    x 2.957460 0.000000 0.000000 
#    y 0.000000 2.957460 0.000000 
#    z 0.000000 0.000000 3.289070 
# 
# 
# High freq. dielectric constant tensor:
#      x y z
#    x 1.598550 0.000000 0.000000 
#    y 0.000000 1.598550 0.000000 
#    z 0.000000 0.000000 1.634040 
# 
# From -- ./inp_files/1265.got.cif
#   From: 2010.03.12/outbox.cif.g09.slc.cpg/sg83_1_cif.got.tgz:1265.got - 2010.04.08 20:05:18.
