data_PCOD8302807
_publ_section_title
;
Structure prediction by ZEFSAII (Michael W. Deem and Ramdas Pophale) SiO2 
 PCOD8302807
Probable space group: P 4/M
;
_chemical_formula_sum "Si O2"
_cell_formula_units_Z 52
_cell_length_a 17.365607
_cell_length_b 17.365607
_cell_length_c 8.202210
_cell_angle_alpha 90.000000
_cell_angle_beta 90.000000
_cell_angle_gamma 90.000000
_cell_volume 2473.493770
_symmetry_space_group_name_H-M "P 4/M"
_symmetry_group_IT_number 83
_symmetry_cell_setting 'tetragonal'
loop_
_space_group_symop_operation_xyz
x,y,z
-y,x,z
-x,-y,z
y,-x,z
-x,-y,-z
y,-x,-z
x,y,-z
-y,x,-z
loop_
_atom_site_type_symbol
_atom_site_label
_atom_site_fract_x
_atom_site_fract_y
_atom_site_fract_z
Si Si1 0.923092 0.460647 0.187658
Si Si2 0.026928 0.710123 0.812941
Si Si3 0.212312 0.443899 0.684397
Si Si4 0.862749 0.164382 0.317501
Si Si5 0.076727 0.098679 0.000000
Si Si6 0.515987 0.376724 0.190848
Si Si7 0.849903 0.709736 0.187484
O O1 0.928738 0.369664 0.208298
O O2 0.847772 0.487641 0.283192
O O3 0.000000 0.500000 0.260472
O O4 0.914184 0.485991 0.000000
O O5 0.073151 0.770541 0.703160
O O6 0.938907 0.700814 0.754331
O O7 0.030218 0.738259 0.000000
O O8 0.204266 0.416260 0.500000
O O9 0.297593 0.475529 0.713289
O O10 0.193867 0.370895 0.797175
O O11 0.874154 0.129307 0.500000
O O12 0.774418 0.194020 0.297298
O O13 0.863961 0.101042 0.172415
O O14 0.986609 0.107818 0.000000
O O15 0.584969 0.434561 0.239163
O O16 0.518247 0.359215 0.000000
O O17 0.846542 0.735808 0.000000
#
# Coordination Sequence:
#
# PCOD8302807 Si02
#       7
#     8   8   8   8   4   8   8
#     4  10  20  40  65  91 121 164 216 262 318 390
#     4  10  21  40  67  91 122 168 214 269 332 394
#     4  12  25  38  60  98 138 172 212 265 330 397
#     4  12  25  41  64  96 129 167 218 273 331 395
#     4  11  24  44  66  90 123 165 213 266 328 394
#     4   9  20  42  70  95 122 167 224 274 324 385
#     4  11  22  42  67  89 124 170 221 272 328 389
#
# _framework density 21.022894999999998
#
# number of rings (size 3 to 8) (size 9 to 14) (size 15 to 20)
#    0.000    1.308    3.077    3.231    0.000    5.846 
#    0.000    3.077    0.000    0.000    0.000    0.000 
#    0.000    0.000    0.000    0.000    0.000    0.000 
#
# Total GULP energy -644807.173655 kJ/mol
# GULP energy per Si atom -12400.137955 kJ/mol
# Density = 2.097505 g / cm^3
# Si number density = 21.022895 Si / 1000 Ang^3
#
#
#
# Elastic Constant Matrix: (Units=GPa)
#
#
# Indices 1 2 3 4 5 6 
#
# 1 102.3323 25.9088 29.9620 0.0000 0.0000 5.1317
# 2 25.9088 102.3323 29.9620 0.0000 0.0000 -5.1317
# 3 29.9620 29.9620 110.2236 0.0000 0.0000 0.0000
# 4 0.0000 0.0000 0.0000 15.4435 0.0000 0.0000
# 5 0.0000 0.0000 0.0000 0.0000 15.4435 0.0000
# 6 5.1317 -5.1317 0.0000 0.0000 0.0000 33.7070
#
#
#
# Elastic Compliance Matrix: (Units=1/GPa)
#
#
# Indices 1 2 3 4 5 6 
#
# 1 0.011145 -0.002213 -0.002428 0.000000 0.000000 -0.002034
# 2 -0.002213 0.011145 -0.002428 0.000000 0.000000 0.002034
# 3 -0.002428 -0.002428 0.010393 0.000000 0.000000 0.000000
# 4 0.000000 0.000000 0.000000 0.064752 0.000000 0.000000
# 5 0.000000 0.000000 0.000000 0.000000 0.064752 0.000000
# 6 -0.002034 0.002034 0.000000 0.000000 0.000000 0.030287
#
#
# Mechanical properties :
#
#
# Convention : Reuss Voigt Hill
#
# Bulk Modulus (GPa) = 53.92300 54.06155 53.99228
# Shear Modulus (GPa) = 23.49693 28.18914 25.84304
#
# Velocity S-wave (km/s) = 3.34680 3.66577 3.50991
# Velocity P-wave (km/s) = 6.37496 6.60973 6.49341
#
# Compressibility (1/GPa) = 0.01854496
#
# Stress axis : x y z
#
# Youngs Moduli (GPa) = 89.72428 89.72428 96.22305
#
# Poissons Ratio (x) = 0.19855 0.23364
# Poissons Ratio (y) = 0.19855 0.23364
# Poissons Ratio (z) = 0.21786 0.21786
#
# Static dielectric constant tensor:
#      x y z
#    x 3.782710 0.000000 0.000000 
#    y 0.000000 3.782710 0.000000 
#    z 0.000000 0.000000 3.671200 
# 
# 
# High freq. dielectric constant tensor:
#      x y z
#    x 1.826050 0.000000 0.000000 
#    y 0.000000 1.826050 0.000000 
#    z 0.000000 0.000000 1.814290 
# 
# From -- ./inp_files/974.got.cif
#   From: 2010.03.12/outbox.cif.g09.slc.cpg/sg83_1_cif.got.tgz:974.got - 2010.04.08 20:05:18.
