data_PCOD8302529
_publ_section_title
;
Structure prediction by ZEFSAII (Michael W. Deem and Ramdas Pophale) SiO2 
 PCOD8302529
Probable space group: I -4 
;
_chemical_formula_sum "Si O2"
_cell_formula_units_Z 32
_cell_length_a 9.291959
_cell_length_b 9.291959
_cell_length_c 17.834095
_cell_angle_alpha 90.000000
_cell_angle_beta 90.000000
_cell_angle_gamma 90.000000
_cell_volume 1539.804716
_symmetry_space_group_name_H-M "I -4 "
_symmetry_group_IT_number 82
_symmetry_cell_setting 'tetragonal'
loop_
_space_group_symop_operation_xyz
x,y,z
y,-x,-z
-x,-y,z
-y,x,-z
1/2+x,1/2+y,1/2+z
1/2+y,1/2-x,1/2-z
1/2-x,1/2-y,1/2+z
1/2-y,1/2+x,1/2-z
loop_
_atom_site_type_symbol
_atom_site_label
_atom_site_fract_x
_atom_site_fract_y
_atom_site_fract_z
Si Si1 0.345114 0.458641 0.190208
Si Si2 0.096306 0.643365 0.171106
Si Si3 0.684499 0.399317 0.963700
Si Si4 0.289556 0.423752 0.479446
O O1 0.500000 0.500000 0.225088
O O2 0.261431 0.596444 0.154519
O O3 0.239639 0.398112 0.253994
O O4 0.373691 0.345320 0.124040
O O5 0.034923 0.741067 0.104418
O O6 0.000000 0.500000 0.180503
O O7 0.568364 0.318811 0.016839
O O8 0.843328 0.339971 0.978861
O O9 0.322789 0.569603 0.524221
#
# Coordination Sequence:
#
# PCOD8302529 Si02
#       4
#     8   8   8   8
#     4  12  23  39  69  96 126 167 223 272 316 397
#     4  12  24  44  67  96 127 181 221 265 332 396
#     4  11  21  42  66  95 127 173 223 262 328 392
#     4  11  26  40  62  99 135 167 217 276 326 383
#
# _framework density 20.781855
#
# number of rings (size 3 to 8) (size 9 to 14) (size 15 to 20)
#    0.000    0.500    7.500    1.500    3.500    0.000 
#    0.000    0.000    0.000    3.750    0.000    0.000 
#    0.000    0.000    0.000    0.000    0.000    0.000 
#
# Total GULP energy -198361.014951 kJ/mol
# GULP energy per Si atom -12397.563434 kJ/mol
# Density = 2.073455 g / cm^3
# Si number density = 20.781855 Si / 1000 Ang^3
#
#
#
# Elastic Constant Matrix: (Units=GPa)
#
#
# Indices 1 2 3 4 5 6 
#
# 1 81.9994 18.8007 29.4866 0.0000 0.0000 -11.8827
# 2 18.8007 81.9994 29.4866 0.0000 0.0000 11.8827
# 3 29.4866 29.4866 134.9863 0.0000 0.0000 0.0000
# 4 0.0000 0.0000 0.0000 35.5306 0.0000 0.0000
# 5 0.0000 0.0000 0.0000 0.0000 35.5306 0.0000
# 6 -11.8827 11.8827 0.0000 0.0000 0.0000 33.0437
#
#
#
# Elastic Compliance Matrix: (Units=1/GPa)
#
#
# Indices 1 2 3 4 5 6 
#
# 1 0.014836 -0.003462 -0.002485 0.000000 0.000000 0.006580
# 2 -0.003462 0.014836 -0.002485 0.000000 0.000000 -0.006580
# 3 -0.002485 -0.002485 0.008494 0.000000 0.000000 0.000000
# 4 0.000000 0.000000 0.000000 0.028145 0.000000 0.000000
# 5 0.000000 0.000000 0.000000 0.000000 0.028145 0.000000
# 6 0.006580 -0.006580 0.000000 0.000000 0.000000 0.034995
#
#
# Mechanical properties :
#
#
# Convention : Reuss Voigt Hill
#
# Bulk Modulus (GPa) = 46.94019 50.50366 48.72193
# Shear Modulus (GPa) = 32.59177 35.56837 34.08007
#
# Velocity S-wave (km/s) = 3.96445 4.14153 4.05396
# Velocity P-wave (km/s) = 6.60242 6.87199 6.73855
#
# Compressibility (1/GPa) = 0.02130371
#
# Stress axis : x y z
#
# Youngs Moduli (GPa) = 67.40435 67.40435 117.73518
#
# Poissons Ratio (x) = 0.23333 0.29253
# Poissons Ratio (y) = 0.23333 0.29253
# Poissons Ratio (z) = 0.16747 0.16747
#
# Static dielectric constant tensor:
#      x y z
#    x 3.916390 0.000000 0.000000 
#    y 0.000000 3.916390 0.000000 
#    z 0.000000 0.000000 3.759200 
# 
# 
# High freq. dielectric constant tensor:
#      x y z
#    x 1.810150 0.000000 0.000000 
#    y 0.000000 1.810150 0.000000 
#    z 0.000000 0.000000 1.818640 
# 
# From -- ./inp_files/2878.got.cif
#   From: 2010.03.12/outbox.cif.g09.slc.cpg/sg82_2_cif.got.tgz:2878.got - 2010.04.08 20:02:50.
