data_PCOD8302865
_publ_section_title
;
Structure prediction by ZEFSAII (Michael W. Deem and Ramdas Pophale) SiO2 
 PCOD8302865
Probable space group: P 4/M
;
_chemical_formula_sum "Si O2"
_cell_formula_units_Z 32
_cell_length_a 8.287726
_cell_length_b 8.287726
_cell_length_c 21.764345
_cell_angle_alpha 90.000000
_cell_angle_beta 90.000000
_cell_angle_gamma 90.000000
_cell_volume 1494.914555
_symmetry_space_group_name_H-M "P 4/M"
_symmetry_group_IT_number 83
_symmetry_cell_setting 'tetragonal'
loop_
_space_group_symop_operation_xyz
x,y,z
-y,x,z
-x,-y,z
y,-x,z
-x,-y,-z
y,-x,-z
x,y,-z
-y,x,-z
loop_
_atom_site_type_symbol
_atom_site_label
_atom_site_fract_x
_atom_site_fract_y
_atom_site_fract_z
Si Si1 0.755835 0.432073 0.068484
Si Si2 0.000000 0.500000 0.398452
Si Si3 0.746789 0.919458 0.693596
Si Si4 0.070461 0.260751 0.500000
Si Si5 0.927237 0.253743 0.832036
O O1 0.693624 0.611478 0.078005
O O2 0.891708 0.394814 0.119162
O O3 0.829166 0.410728 0.000000
O O4 0.879848 0.397414 0.354056
O O5 0.099214 0.373290 0.440487
O O6 0.680209 0.902297 0.762916
O O7 0.896011 0.801583 0.681738
O O8 0.195961 0.114163 0.500000
O O9 0.107702 0.195657 0.842905
#
# Coordination Sequence:
#
# PCOD8302865 Si02
#       5
#     8   4   8   4   8
#     4   9  19  35  52  72 103 143 184 226 276 334
#     4  11  20  32  62  90 105 140 188 220 255 310
#     4   9  19  36  56  80 111 144 180 223 271 324
#     4  10  22  40  60  84 116 150 184 220 258 306
#     4   9  19  34  52  77 107 138 177 228 278 323
#
# _framework density 21.405905000000001
#
# number of rings (size 3 to 8) (size 9 to 14) (size 15 to 20)
#    0.000    2.625    0.000    3.750    0.000    8.000 
#    0.000    3.750    0.000   30.750    0.000    0.000 
#    0.000    0.000    0.000    0.000    0.000    0.000 
#
# Total GULP energy -396666.281554 kJ/mol
# GULP energy per Si atom -12395.821299 kJ/mol
# Density = 2.135718 g / cm^3
# Si number density = 21.405905 Si / 1000 Ang^3
#
#
#
# Elastic Constant Matrix: (Units=GPa)
#
#
# Indices 1 2 3 4 5 6 
#
# 1 70.2328 24.3634 52.0009 0.0000 0.0000 -4.0763
# 2 24.3634 70.2328 52.0009 0.0000 0.0000 4.0763
# 3 52.0009 52.0009 167.9549 0.0000 0.0000 0.0000
# 4 0.0000 0.0000 0.0000 21.7323 0.0000 0.0000
# 5 0.0000 0.0000 0.0000 0.0000 21.7323 0.0000
# 6 -4.0763 4.0763 0.0000 0.0000 0.0000 29.7907
#
#
#
# Elastic Compliance Matrix: (Units=1/GPa)
#
#
# Indices 1 2 3 4 5 6 
#
# 1 0.019186 -0.003159 -0.004962 0.000000 0.000000 0.003057
# 2 -0.003159 0.019186 -0.004962 0.000000 0.000000 -0.003057
# 3 -0.004962 -0.004962 0.009027 0.000000 0.000000 0.000000
# 4 0.000000 0.000000 0.000000 0.046015 0.000000 0.000000
# 5 0.000000 0.000000 0.000000 0.000000 0.046015 0.000000
# 6 0.003057 -0.003057 0.000000 0.000000 0.000000 0.034404
#
#
# Mechanical properties :
#
#
# Convention : Reuss Voigt Hill
#
# Bulk Modulus (GPa) = 47.09932 62.79455 54.94694
# Shear Modulus (GPa) = 24.14594 26.65474 25.40034
#
# Velocity S-wave (km/s) = 3.36222 3.53257 3.44845
# Velocity P-wave (km/s) = 6.09290 6.78510 6.44830
#
# Compressibility (1/GPa) = 0.02123173
#
# Stress axis : x y z
#
# Youngs Moduli (GPa) = 52.12258 52.12258 110.78356
#
# Poissons Ratio (x) = 0.16465 0.54971
# Poissons Ratio (y) = 0.16465 0.54971
# Poissons Ratio (z) = 0.25864 0.25864
#
# Static dielectric constant tensor:
#      x y z
#    x 3.652260 0.000000 0.000000 
#    y 0.000000 3.652260 0.000000 
#    z 0.000000 0.000000 4.135940 
# 
# 
# High freq. dielectric constant tensor:
#      x y z
#    x 1.819700 0.000000 0.000000 
#    y 0.000000 1.819700 0.000000 
#    z 0.000000 0.000000 1.860810 
# 
# From -- ./inp_files/3068.got.cif
#   From: 2010.03.12/outbox.cif.g09.slc.cpg/sg83_2_cif.got.tgz:3068.got - 2010.04.08 20:05:18.
