data_PCOD8302489
_publ_section_title
;
Structure prediction by ZEFSAII (Michael W. Deem and Ramdas Pophale) SiO2 
 PCOD8302489
Probable space group: I -4 
;
_chemical_formula_sum "Si O2"
_cell_formula_units_Z 34
_cell_length_a 8.846067
_cell_length_b 8.846067
_cell_length_c 19.194155
_cell_angle_alpha 90.000000
_cell_angle_beta 90.000000
_cell_angle_gamma 90.000000
_cell_volume 1501.998318
_symmetry_space_group_name_H-M "I -4 "
_symmetry_group_IT_number 82
_symmetry_cell_setting 'tetragonal'
loop_
_space_group_symop_operation_xyz
x,y,z
y,-x,-z
-x,-y,z
-y,x,-z
1/2+x,1/2+y,1/2+z
1/2+y,1/2-x,1/2-z
1/2-x,1/2-y,1/2+z
1/2-y,1/2+x,1/2-z
loop_
_atom_site_type_symbol
_atom_site_label
_atom_site_fract_x
_atom_site_fract_y
_atom_site_fract_z
Si Si1 0.318513 0.339981 0.176286
Si Si2 0.770123 0.216920 0.064384
Si Si3 0.168472 0.822439 0.704305
Si Si4 0.953482 0.338640 0.452889
Si Si5 0.500000 0.500000 0.500000
O O1 0.242034 0.204081 0.219476
O O2 0.496061 0.311547 0.180292
O O3 0.275883 0.504624 0.206374
O O4 0.254116 0.338389 0.097497
O O5 0.758573 0.220298 0.148074
O O6 0.752599 0.388526 0.035785
O O7 0.927676 0.132525 0.047314
O O8 0.630348 0.132691 0.026586
O O9 0.000000 0.500000 0.419377
#
# Coordination Sequence:
#
# PCOD8302489 Si02
#       5
#     8   8   8   8   2
#     4  10  24  42  67  96 132 179 225 279 336 410
#     4  11  24  43  67 100 130 178 224 288 339 409
#     4  10  24  44  65  97 133 176 227 279 339 404
#     4  11  23  43  70 101 135 181 227 283 348 412
#     4  12  24  40  64 100 136 164 228 286 344 404
#
# _framework density 22.636510999999999
#
# number of rings (size 3 to 8) (size 9 to 14) (size 15 to 20)
#    0.000    1.412    2.353    1.412    6.588    6.588 
#    4.235    0.000    0.000    0.000    0.000    0.000 
#    0.000    0.000    0.000    0.000    0.000    0.000 
#
# Total GULP energy -210774.562985 kJ/mol
# GULP energy per Si atom -12398.503705 kJ/mol
# Density = 2.258499 g / cm^3
# Si number density = 22.636511 Si / 1000 Ang^3
#
#
#
# Elastic Constant Matrix: (Units=GPa)
#
#
# Indices 1 2 3 4 5 6 
#
# 1 91.9935 19.1332 41.4223 0.0000 0.0000 -2.0076
# 2 19.1332 91.9935 41.4223 0.0000 0.0000 2.0076
# 3 41.4223 41.4223 94.4985 0.0000 0.0000 0.0000
# 4 0.0000 0.0000 0.0000 35.9220 0.0000 0.0000
# 5 0.0000 0.0000 0.0000 0.0000 35.9220 0.0000
# 6 -2.0076 2.0076 0.0000 0.0000 0.0000 32.4546
#
#
#
# Elastic Compliance Matrix: (Units=1/GPa)
#
#
# Indices 1 2 3 4 5 6 
#
# 1 0.013569 -0.000203 -0.005859 0.000000 0.000000 0.000852
# 2 -0.000203 0.013569 -0.005859 0.000000 0.000000 -0.000852
# 3 -0.005859 -0.005859 0.015719 0.000000 0.000000 0.000000
# 4 0.000000 0.000000 0.000000 0.027838 0.000000 0.000000
# 5 0.000000 0.000000 0.000000 0.000000 0.027838 0.000000
# 6 0.000852 -0.000852 0.000000 0.000000 0.000000 0.030918
#
#
# Mechanical properties :
#
#
# Convention : Reuss Voigt Hill
#
# Bulk Modulus (GPa) = 52.58838 53.60457 53.09648
# Shear Modulus (GPa) = 31.32216 32.62691 31.97454
#
# Velocity S-wave (km/s) = 3.72385 3.80062 3.76243
# Velocity P-wave (km/s) = 6.46309 6.55680 6.51011
#
# Compressibility (1/GPa) = 0.01901561
#
# Stress axis : x y z
#
# Youngs Moduli (GPa) = 73.69590 73.69590 63.61823
#
# Poissons Ratio (x) = 0.01493 0.37275
# Poissons Ratio (y) = 0.01493 0.37275
# Poissons Ratio (z) = 0.43180 0.43180
#
# Static dielectric constant tensor:
#      x y z
#    x 4.036820 0.000000 0.000000 
#    y 0.000000 4.036820 0.000000 
#    z 0.000000 0.000000 3.784690 
# 
# 
# High freq. dielectric constant tensor:
#      x y z
#    x 1.894300 0.000000 0.000000 
#    y 0.000000 1.894300 0.000000 
#    z 0.000000 0.000000 1.878410 
# 
# From -- ./inp_files/2960.got.cif
#   From: 2010.03.12/outbox.cif.g09.slc.cpg/sg82_2_cif.got.tgz:2960.got - 2010.04.08 20:02:50.
