data_PCOD8302688
_publ_section_title
;
Structure prediction by ZEFSAII (Michael W. Deem and Ramdas Pophale) SiO2 
 PCOD8302688
Probable space group: P 4/M
;
_chemical_formula_sum "Si O2"
_cell_formula_units_Z 48
_cell_length_a 15.079081
_cell_length_b 15.079081
_cell_length_c 13.494289
_cell_angle_alpha 90.000000
_cell_angle_beta 90.000000
_cell_angle_gamma 90.000000
_cell_volume 3068.313672
_symmetry_space_group_name_H-M "P 4/M"
_symmetry_group_IT_number 83
_symmetry_cell_setting 'tetragonal'
loop_
_space_group_symop_operation_xyz
x,y,z
-y,x,z
-x,-y,z
y,-x,z
-x,-y,-z
y,-x,-z
x,y,-z
-y,x,-z
loop_
_atom_site_type_symbol
_atom_site_label
_atom_site_fract_x
_atom_site_fract_y
_atom_site_fract_z
Si Si1 0.741318 0.431624 0.301145
Si Si2 0.064508 0.583330 0.385947
Si Si3 0.719421 0.617061 0.383772
Si Si4 0.534189 0.641743 0.112499
Si Si5 0.933092 0.879930 0.382134
Si Si6 0.690622 0.097576 0.617755
O O1 0.846503 0.421674 0.320495
O O2 0.697872 0.515213 0.358700
O O3 0.687696 0.345307 0.334103
O O4 0.724952 0.446162 0.184011
O O5 0.095386 0.596003 0.500000
O O6 0.000000 0.500000 0.376072
O O7 0.000610 0.661712 0.345656
O O8 0.713049 0.633102 0.500000
O O9 0.819813 0.633106 0.342851
O O10 0.435858 0.604947 0.133053
O O11 0.542332 0.675948 0.000000
O O12 0.935574 0.880765 0.500000
O O13 0.885914 0.790855 0.344369
O O14 0.034561 0.881050 0.342209
O O15 0.682113 0.095988 0.500000
#
# Coordination Sequence:
#
# PCOD8302688 Si02
#       6
#     8   8   8   8   8   8
#     4  12  21  33  50  73  96 128 163 204 247 284
#     4  10  19  32  46  62  94 137 170 191 222 281
#     4  11  22  32  44  68 103 135 167 197 234 287
#     4   9  18  35  55  73  94 122 159 203 252 301
#     4   8  14  24  38  56  78 107 152 208 250 267
#     4   9  18  30  42  59  87 130 173 200 224 274
#
# _framework density 15.643772
#
# number of rings (size 3 to 8) (size 9 to 14) (size 15 to 20)
#    0.000    2.167    3.333    2.500    2.333    0.333 
#    0.000    0.833    0.000    0.500    0.000    0.000 
#    0.000    0.000    0.000    0.000    0.000    1.667 
#
# Total GULP energy -594764.488347 kJ/mol
# GULP energy per Si atom -12390.926841 kJ/mol
# Density = 1.560817 g / cm^3
# Si number density = 15.643772 Si / 1000 Ang^3
#
#
#
# Elastic Constant Matrix: (Units=GPa)
#
#
# Indices 1 2 3 4 5 6 
#
# 1 91.2381 26.1446 30.6441 0.0000 0.0000 -5.3713
# 2 26.1446 91.2381 30.6441 0.0000 0.0000 5.3713
# 3 30.6441 30.6441 61.7999 0.0000 0.0000 0.0000
# 4 0.0000 0.0000 0.0000 15.0175 0.0000 0.0000
# 5 0.0000 0.0000 0.0000 0.0000 15.0175 0.0000
# 6 -5.3713 5.3713 0.0000 0.0000 0.0000 21.3157
#
#
#
# Elastic Compliance Matrix: (Units=1/GPa)
#
#
# Indices 1 2 3 4 5 6 
#
# 1 0.013762 -0.002267 -0.005700 0.000000 0.000000 0.004039
# 2 -0.002267 0.013762 -0.005700 0.000000 0.000000 -0.004039
# 3 -0.005700 -0.005700 0.021834 0.000000 0.000000 0.000000
# 4 0.000000 0.000000 0.000000 0.066589 0.000000 0.000000
# 5 0.000000 0.000000 0.000000 0.000000 0.066589 0.000000
# 6 0.004039 -0.004039 0.000000 0.000000 0.000000 0.048949
#
#
# Mechanical properties :
#
#
# Convention : Reuss Voigt Hill
#
# Bulk Modulus (GPa) = 45.40403 46.57127 45.98765
# Shear Modulus (GPa) = 18.78562 20.72638 19.75600
#
# Velocity S-wave (km/s) = 3.46907 3.64386 3.55754
# Velocity P-wave (km/s) = 6.71808 6.89479 6.80701
#
# Compressibility (1/GPa) = 0.02202448
#
# Stress axis : x y z
#
# Youngs Moduli (GPa) = 72.66284 72.66284 45.79993
#
# Poissons Ratio (x) = 0.16472 0.26106
# Poissons Ratio (y) = 0.16472 0.26106
# Poissons Ratio (z) = 0.41418 0.41418
#
# Static dielectric constant tensor:
#      x y z
#    x 3.210790 0.000000 0.000000 
#    y 0.000000 3.210790 0.000000 
#    z 0.000000 0.000000 2.544500 
# 
# 
# High freq. dielectric constant tensor:
#      x y z
#    x 1.609310 0.000000 0.000000 
#    y 0.000000 1.609310 0.000000 
#    z 0.000000 0.000000 1.530920 
# 
# From -- ./inp_files/1821.got.cif
#   From: 2010.03.12/outbox.cif.g09.slc.cpg/sg83_1_cif.got.tgz:1821.got - 2010.04.08 20:05:18.
