data_PCOD8302821
_publ_section_title
;
Structure prediction by ZEFSAII (Michael W. Deem and Ramdas Pophale) SiO2 
 PCOD8302821
Probable space group: P 4/M
;
_chemical_formula_sum "Si O2"
_cell_formula_units_Z 32
_cell_length_a 15.282682
_cell_length_b 15.282682
_cell_length_c 7.439354
_cell_angle_alpha 90.000000
_cell_angle_beta 90.000000
_cell_angle_gamma 90.000000
_cell_volume 1737.538266
_symmetry_space_group_name_H-M "P 4/M"
_symmetry_group_IT_number 83
_symmetry_cell_setting 'tetragonal'
loop_
_space_group_symop_operation_xyz
x,y,z
-y,x,z
-x,-y,z
y,-x,z
-x,-y,-z
y,-x,-z
x,y,-z
-y,x,-z
loop_
_atom_site_type_symbol
_atom_site_label
_atom_site_fract_x
_atom_site_fract_y
_atom_site_fract_z
Si Si1 0.977044 0.402299 0.793971
Si Si2 0.787480 0.332544 0.793131
Si Si3 0.021733 0.268039 0.500000
Si Si4 0.830832 0.199787 0.500000
Si Si5 0.378819 0.564301 0.213358
O O1 0.873342 0.391546 0.768915
O O2 0.000000 0.500000 0.728969
O O3 0.026987 0.330378 0.674790
O O4 0.006244 0.387625 0.000000
O O5 0.793070 0.244229 0.679341
O O6 0.707905 0.389482 0.712835
O O7 0.772761 0.305451 0.000000
O O8 0.099907 0.198900 0.500000
O O9 0.935634 0.207663 0.500000
O O10 0.383173 0.464224 0.283127
O O11 0.376889 0.563489 0.000000
#
# Coordination Sequence:
#
# PCOD8302821 Si02
#       5
#     8   8   4   4   8
#     4   9  18  33  54  79 106 136 168 207 256 302
#     4   9  18  33  51  73 102 132 166 207 248 297
#     4  10  21  37  54  76 104 132 168 213 255 305
#     4  10  22  37  54  75  98 128 166 210 261 307
#     4   8  14  26  45  69  99 135 169 199 234 280
#
# _framework density 18.416862999999999
#
# number of rings (size 3 to 8) (size 9 to 14) (size 15 to 20)
#    0.000    3.000    0.000    1.125    0.000    3.250 
#    0.000    6.250    0.000    1.500    0.000    7.000 
#    0.000    0.000    0.000    0.000    0.000    0.000 
#
# Total GULP energy -396727.351976 kJ/mol
# GULP energy per Si atom -12397.729749 kJ/mol
# Density = 1.837494 g / cm^3
# Si number density = 18.416863 Si / 1000 Ang^3
#
#
#
# Elastic Constant Matrix: (Units=GPa)
#
#
# Indices 1 2 3 4 5 6 
#
# 1 124.8724 77.7713 44.4546 0.0000 0.0000 -16.0444
# 2 77.7713 124.8724 44.4546 0.0000 0.0000 16.0444
# 3 44.4546 44.4546 81.2536 0.0000 0.0000 0.0000
# 4 0.0000 0.0000 0.0000 12.8303 0.0000 0.0000
# 5 0.0000 0.0000 0.0000 0.0000 12.8303 0.0000
# 6 -16.0444 16.0444 0.0000 0.0000 0.0000 34.5813
#
#
#
# Elastic Compliance Matrix: (Units=1/GPa)
#
#
# Indices 1 2 3 4 5 6 
#
# 1 0.018768 -0.012275 -0.003553 0.000000 0.000000 0.014403
# 2 -0.012275 0.018768 -0.003553 0.000000 0.000000 -0.014403
# 3 -0.003553 -0.003553 0.016195 0.000000 0.000000 0.000000
# 4 0.000000 0.000000 0.000000 0.077940 0.000000 0.000000
# 5 0.000000 0.000000 0.000000 0.000000 0.077940 0.000000
# 6 0.014403 -0.014403 0.000000 0.000000 0.000000 0.042282
#
#
# Mechanical properties :
#
#
# Convention : Reuss Voigt Hill
#
# Bulk Modulus (GPa) = 66.79623 73.81770 70.30697
# Shear Modulus (GPa) = 16.91217 23.00290 19.95754
#
# Velocity S-wave (km/s) = 3.03363 3.53797 3.29546
# Velocity P-wave (km/s) = 6.97269 7.54044 7.26211
#
# Compressibility (1/GPa) = 0.01497090
#
# Stress axis : x y z
#
# Youngs Moduli (GPa) = 53.28107 53.28107 61.74929
#
# Poissons Ratio (x) = 0.65402 0.21937
# Poissons Ratio (y) = 0.65402 0.21937
# Poissons Ratio (z) = 0.18929 0.18929
#
# Static dielectric constant tensor:
#      x y z
#    x 3.361120 0.000000 0.000000 
#    y 0.000000 3.361120 0.000000 
#    z 0.000000 0.000000 3.471860 
# 
# 
# High freq. dielectric constant tensor:
#      x y z
#    x 1.704470 0.000000 0.000000 
#    y 0.000000 1.704470 0.000000 
#    z 0.000000 0.000000 1.717650 
# 
# From -- ./inp_files/461.got.cif
#   From: 2010.03.12/outbox.cif.g09.slc.cpg/sg83_1_cif.got.tgz:461.got - 2010.04.08 20:05:18.
