data_PCOD8302939
_publ_section_title
;
Structure prediction by ZEFSAII (Michael W. Deem and Ramdas Pophale) SiO2 
 PCOD8302939
Probable space group: P 4/M
;
_chemical_formula_sum "Si O2"
_cell_formula_units_Z 44
_cell_length_a 8.638069
_cell_length_b 8.638069
_cell_length_c 28.330682
_cell_angle_alpha 90.000000
_cell_angle_beta 90.000000
_cell_angle_gamma 90.000000
_cell_volume 2113.928856
_symmetry_space_group_name_H-M "P 4/M"
_symmetry_group_IT_number 83
_symmetry_cell_setting 'tetragonal'
loop_
_space_group_symop_operation_xyz
x,y,z
-y,x,z
-x,-y,z
y,-x,z
-x,-y,-z
y,-x,-z
x,y,-z
-y,x,-z
loop_
_atom_site_type_symbol
_atom_site_label
_atom_site_fract_x
_atom_site_fract_y
_atom_site_fract_z
Si Si1 0.766406 0.900510 0.766142
Si Si2 0.891982 0.230055 0.500000
Si Si3 0.736050 0.400225 0.314276
Si Si4 0.890889 0.233743 0.602074
Si Si5 0.581891 0.740038 0.053010
Si Si6 0.912218 0.237119 0.126802
O O1 0.632809 0.837577 0.732219
O O2 0.706525 0.883048 0.819730
O O3 0.920370 0.801341 0.756095
O O4 0.854033 0.312040 0.550241
O O5 0.072565 0.200883 0.500000
O O6 0.700739 0.580901 0.314510
O O7 0.837282 0.358599 0.359923
O O8 0.073130 0.201588 0.608392
O O9 0.405957 0.692816 0.061229
O O10 0.625997 0.870776 0.090756
O O11 0.605158 0.805118 0.000000
O O12 0.089153 0.195058 0.117470
#
# Coordination Sequence:
#
# PCOD8302939 Si02
#       6
#     8   4   8   8   8   8
#     4   9  19  37  58  77  98 127 165 208 254 303
#     4   7  12  26  50  79 104 124 156 205 252 293
#     4  11  24  37  48  70 105 139 170 205 247 296
#     4   9  17  32  56  81 102 128 165 208 252 297
#     4   9  19  35  52  72 102 139 175 208 243 288
#     4   9  19  35  54  78 105 129 159 205 257 304
#
# _framework density 20.814323999999999
#
# number of rings (size 3 to 8) (size 9 to 14) (size 15 to 20)
#    0.000    2.818    0.000    3.818    0.000    7.273 
#    0.000    9.091    0.000    4.364    0.000    0.000 
#    0.000    0.000    0.000    0.000    0.000    0.000 
#
# Total GULP energy -545399.347828 kJ/mol
# GULP energy per Si atom -12395.439723 kJ/mol
# Density = 2.076695 g / cm^3
# Si number density = 20.814324 Si / 1000 Ang^3
#
#
#
# Elastic Constant Matrix: (Units=GPa)
#
#
# Indices 1 2 3 4 5 6 
#
# 1 13.7458 -5.6161 11.1242 0.0000 0.0000 1.5507
# 2 -5.6161 13.7458 11.1242 0.0000 0.0000 -1.5507
# 3 11.1242 11.1242 119.9865 0.0000 0.0000 0.0000
# 4 0.0000 0.0000 0.0000 -0.3023 0.0000 0.0000
# 5 0.0000 0.0000 0.0000 0.0000 -0.3023 0.0000
# 6 1.5507 -1.5507 0.0000 0.0000 0.0000 41.0669
#
#
#
# Elastic Compliance Matrix: (Units=1/GPa)
#
#
# Indices 1 2 3 4 5 6 
#
# 1 0.108394 0.056432 -0.015281 0.000000 0.000000 -0.001962
# 2 0.056432 0.108394 -0.015281 0.000000 0.000000 0.001962
# 3 -0.015281 -0.015281 0.011168 0.000000 0.000000 0.000000
# 4 0.000000 0.000000 0.000000 -3.307937 0.000000 0.000000
# 5 0.000000 0.000000 0.000000 0.000000 -3.307937 0.000000
# 6 -0.001962 0.001962 0.000000 0.000000 0.000000 0.024499
#
#
# Mechanical properties :
#
#
# Convention : Reuss Voigt Hill
#
# Bulk Modulus (GPa) = 3.57533 20.08253 11.82893
# Shear Modulus (GPa) = -0.79090 16.81551 8.01231
#
# Velocity S-wave (km/s) = -0.61709 2.84541 1.96412
# Velocity P-wave (km/s) = 1.10169 4.52377 3.29228
#
# Compressibility (1/GPa) = 0.27969412
#
# Stress axis : x y z
#
# Youngs Moduli (GPa) = 9.22560 9.22560 89.54301
#
# Poissons Ratio (x) = -0.52062 1.36834
# Poissons Ratio (y) = -0.52062 1.36834
# Poissons Ratio (z) = 0.14098 0.14098
#
# Static dielectric constant tensor:
#      x y z
#    x 3.464650 0.000000 0.000000 
#    y 0.000000 3.464650 0.000000 
#    z 0.000000 0.000000 4.007400 
# 
# 
# High freq. dielectric constant tensor:
#      x y z
#    x 1.794940 0.000000 0.000000 
#    y 0.000000 1.794940 0.000000 
#    z 0.000000 0.000000 1.830880 
# 
# From -- ./inp_files/3347.got.cif
#   From: 2010.03.12/outbox.cif.g09.slc.cpg/sg83_2_cif.got.tgz:3347.got - 2010.04.08 20:05:18.
