data_PCOD8302545
_publ_section_title
;
Structure prediction by ZEFSAII (Michael W. Deem and Ramdas Pophale) SiO2 
 PCOD8302545
Probable space group: I -4 
;
_chemical_formula_sum "Si O2"
_cell_formula_units_Z 34
_cell_length_a 9.138217
_cell_length_b 9.138217
_cell_length_c 18.416014
_cell_angle_alpha 90.000000
_cell_angle_beta 90.000000
_cell_angle_gamma 90.000000
_cell_volume 1537.866264
_symmetry_space_group_name_H-M "I -4 "
_symmetry_group_IT_number 82
_symmetry_cell_setting 'tetragonal'
loop_
_space_group_symop_operation_xyz
x,y,z
y,-x,-z
-x,-y,z
-y,x,-z
1/2+x,1/2+y,1/2+z
1/2+y,1/2-x,1/2-z
1/2-x,1/2-y,1/2+z
1/2-y,1/2+x,1/2-z
loop_
_atom_site_type_symbol
_atom_site_label
_atom_site_fract_x
_atom_site_fract_y
_atom_site_fract_z
Si Si1 0.507907 0.837255 0.071963
Si Si2 0.819321 0.265313 0.057588
Si Si3 0.577349 0.784202 0.225376
Si Si4 0.500000 0.500000 0.500000
Si Si5 0.592689 0.192425 0.716355
O O1 0.349104 0.779482 0.050797
O O2 0.571610 0.745607 0.139544
O O3 0.500000 0.000000 0.104693
O O4 0.613343 0.841849 0.003435
O O5 0.862712 0.341170 0.133333
O O6 0.923583 0.124254 0.048852
O O7 0.418015 0.813047 0.257895
O O8 0.643237 0.641482 0.264182
O O9 0.419735 0.175904 0.729156
#
# Coordination Sequence:
#
# PCOD8302545 Si02
#       5
#     8   8   8   2   8
#     4  12  25  45  75 102 146 184 237 300 346 428
#     4  12  28  48  71 110 142 192 237 293 365 425
#     4  11  22  45  71 102 133 184 235 288 349 404
#     4  12  28  44  84 100 140 196 238 284 364 432
#     4  11  28  46  70 101 144 186 234 294 351 418
#
# _framework density 22.108552
#
# number of rings (size 3 to 8) (size 9 to 14) (size 15 to 20)
#    0.000    0.471    7.059    0.000    9.882    1.412 
#    0.000    0.000    0.000    0.000    0.000    0.000 
#    0.000    0.000    0.000    0.000    0.000    0.000 
#
# Total GULP energy -210827.252072 kJ/mol
# GULP energy per Si atom -12401.603063 kJ/mol
# Density = 2.205823 g / cm^3
# Si number density = 22.108552 Si / 1000 Ang^3
#
#
#
# Elastic Constant Matrix: (Units=GPa)
#
#
# Indices 1 2 3 4 5 6 
#
# 1 82.3803 18.2704 33.3241 0.0000 0.0000 7.8830
# 2 18.2704 82.3803 33.3241 0.0000 0.0000 -7.8830
# 3 33.3241 33.3241 157.4347 0.0000 0.0000 0.0000
# 4 0.0000 0.0000 0.0000 29.9451 0.0000 0.0000
# 5 0.0000 0.0000 0.0000 0.0000 29.9451 0.0000
# 6 7.8830 -7.8830 0.0000 0.0000 0.0000 43.4507
#
#
#
# Elastic Compliance Matrix: (Units=1/GPa)
#
#
# Indices 1 2 3 4 5 6 
#
# 1 0.013941 -0.002386 -0.002446 0.000000 0.000000 -0.002962
# 2 -0.002386 0.013941 -0.002446 0.000000 0.000000 0.002962
# 3 -0.002446 -0.002446 0.007387 0.000000 0.000000 0.000000
# 4 0.000000 0.000000 0.000000 0.033394 0.000000 0.000000
# 5 0.000000 0.000000 0.000000 0.000000 0.033394 0.000000
# 6 -0.002962 0.002962 0.000000 0.000000 0.000000 0.024089
#
#
# Mechanical properties :
#
#
# Convention : Reuss Voigt Hill
#
# Bulk Modulus (GPa) = 48.27700 54.67027 51.47363
# Shear Modulus (GPa) = 33.87381 36.48663 35.18022
#
# Velocity S-wave (km/s) = 3.91853 4.06685 3.99337
# Velocity P-wave (km/s) = 6.50822 6.84354 6.67799
#
# Compressibility (1/GPa) = 0.02071380
#
# Stress axis : x y z
#
# Youngs Moduli (GPa) = 71.73199 71.73199 135.36841
#
# Poissons Ratio (x) = 0.17114 0.33109
# Poissons Ratio (y) = 0.17114 0.33109
# Poissons Ratio (z) = 0.17544 0.17544
#
# Static dielectric constant tensor:
#      x y z
#    x 4.042050 0.000000 0.000000 
#    y 0.000000 4.042050 0.000000 
#    z 0.000000 0.000000 3.984680 
# 
# 
# High freq. dielectric constant tensor:
#      x y z
#    x 1.869750 0.000000 0.000000 
#    y 0.000000 1.869750 0.000000 
#    z 0.000000 0.000000 1.882590 
# 
# From -- ./inp_files/2952.got.cif
#   From: 2010.03.12/outbox.cif.g09.slc.cpg/sg82_2_cif.got.tgz:2952.got - 2010.04.08 20:02:50.
