data_PCOD8302514
_publ_section_title
;
Structure prediction by ZEFSAII (Michael W. Deem and Ramdas Pophale) SiO2 
 PCOD8302514
Probable space group: I -4 
;
_chemical_formula_sum "Si O2"
_cell_formula_units_Z 56
_cell_length_a 13.942912
_cell_length_b 13.942912
_cell_length_c 14.522351
_cell_angle_alpha 90.000000
_cell_angle_beta 90.000000
_cell_angle_gamma 90.000000
_cell_volume 2823.214670
_symmetry_space_group_name_H-M "I -4 "
_symmetry_group_IT_number 82
_symmetry_cell_setting 'tetragonal'
loop_
_space_group_symop_operation_xyz
x,y,z
y,-x,-z
-x,-y,z
-y,x,-z
1/2+x,1/2+y,1/2+z
1/2+y,1/2-x,1/2-z
1/2-x,1/2-y,1/2+z
1/2-y,1/2+x,1/2-z
loop_
_atom_site_type_symbol
_atom_site_label
_atom_site_fract_x
_atom_site_fract_y
_atom_site_fract_z
Si Si1 0.999671 0.300784 0.252311
Si Si2 0.207606 0.184059 0.661966
Si Si3 0.402162 0.401167 0.454772
Si Si4 0.322037 0.677957 0.221660
Si Si5 0.285121 0.224920 0.969540
Si Si6 0.524219 0.606280 0.247581
Si Si7 0.933404 0.416043 0.097432
O O1 0.898169 0.277280 0.299469
O O2 0.991920 0.327449 0.143196
O O3 0.070077 0.210479 0.253882
O O4 0.041710 0.387488 0.310263
O O5 0.240097 0.281462 0.711511
O O6 0.212924 0.201086 0.553242
O O7 0.099220 0.156049 0.680631
O O8 0.369764 0.509131 0.480482
O O9 0.316180 0.328227 0.470140
O O10 0.433473 0.399305 0.349419
O O11 0.292523 0.704679 0.118513
O O12 0.434880 0.678039 0.239251
O O13 0.372657 0.146040 0.972798
O O14 0.500000 0.500000 0.210902
O O15 0.000000 0.500000 0.050823
#
# Coordination Sequence:
#
# PCOD8302514 Si02
#       7
#     8   8   8   8   8   8   8
#     4  11  18  35  66  97 125 168 212 287 346 380
#     4  12  24  42  65  95 141 177 226 278 341 412
#     4  11  22  40  69 105 132 161 233 290 345 389
#     4  11  24  42  66  96 142 177 225 281 339 412
#     4  11  26  41  62 101 138 182 220 279 350 407
#     4  12  23  42  70  98 133 182 222 280 341 403
#     4  11  19  36  63  98 132 163 222 280 348 400
#
# _framework density 19.835545
#
# number of rings (size 3 to 8) (size 9 to 14) (size 15 to 20)
#    0.000    0.714    8.571    0.857    0.000    3.429 
#    0.000    0.000    0.000    0.000    0.000    0.000 
#    0.000    0.000    0.000    0.000    0.000    0.000 
#
# Total GULP energy -347164.530280 kJ/mol
# GULP energy per Si atom -12398.733224 kJ/mol
# Density = 1.979040 g / cm^3
# Si number density = 19.835545 Si / 1000 Ang^3
#
#
#
# Elastic Constant Matrix: (Units=GPa)
#
#
# Indices 1 2 3 4 5 6 
#
# 1 90.8138 33.2163 31.1884 0.0000 0.0000 2.9313
# 2 33.2163 90.8138 31.1884 0.0000 0.0000 -2.9312
# 3 31.1884 31.1884 93.7762 0.0000 0.0000 0.0000
# 4 0.0000 0.0000 0.0000 23.9482 0.0000 0.0000
# 5 0.0000 0.0000 0.0000 0.0000 23.9482 0.0000
# 6 2.9313 -2.9312 0.0000 0.0000 0.0000 29.1550
#
#
#
# Elastic Compliance Matrix: (Units=1/GPa)
#
#
# Indices 1 2 3 4 5 6 
#
# 1 0.013612 -0.003930 -0.003220 0.000000 0.000000 -0.001764
# 2 -0.003930 0.013612 -0.003220 0.000000 0.000000 0.001764
# 3 -0.003220 -0.003220 0.012806 0.000000 0.000000 0.000000
# 4 0.000000 0.000000 0.000000 0.041757 0.000000 0.000000
# 5 0.000000 0.000000 0.000000 0.000000 0.041757 0.000000
# 6 -0.001764 0.001764 0.000000 0.000000 0.000000 0.034654
#
#
# Mechanical properties :
#
#
# Convention : Reuss Voigt Hill
#
# Bulk Modulus (GPa) = 51.84230 51.84334 51.84282
# Shear Modulus (GPa) = 26.97367 27.39767 27.18567
#
# Velocity S-wave (km/s) = 3.69164 3.72054 3.70611
# Velocity P-wave (km/s) = 6.66061 6.68205 6.67134
#
# Compressibility (1/GPa) = 0.01928927
#
# Stress axis : x y z
#
# Youngs Moduli (GPa) = 73.46629 73.46630 78.09109
#
# Poissons Ratio (x) = 0.28870 0.25146
# Poissons Ratio (y) = 0.28870 0.25146
# Poissons Ratio (z) = 0.23657 0.23657
#
# Static dielectric constant tensor:
#      x y z
#    x 3.847960 0.000000 0.000000 
#    y 0.000000 3.847960 0.000000 
#    z 0.000000 0.000000 3.446500 
# 
# 
# High freq. dielectric constant tensor:
#      x y z
#    x 1.779840 0.000000 0.000000 
#    y 0.000000 1.779840 0.000000 
#    z 0.000000 0.000000 1.753530 
# 
# From -- ./inp_files/2314.got.cif
#   From: 2010.03.12/outbox.cif.g09.slc.cpg/sg82_2_cif.got.tgz:2314.got - 2010.04.08 20:02:50.
