data_PCOD8302199
_publ_section_title
;
Structure prediction by ZEFSAII (Michael W. Deem and Ramdas Pophale) SiO2 
 PCOD8302199
Probable space group: I 41
;
_chemical_formula_sum "Si O2"
_cell_formula_units_Z 48
_cell_length_a 11.059276
_cell_length_b 11.059276
_cell_length_c 16.926376
_cell_angle_alpha 90.000000
_cell_angle_beta 90.000000
_cell_angle_gamma 90.000000
_cell_volume 2070.224182
_symmetry_space_group_name_H-M "I 41"
_symmetry_group_IT_number 80
_symmetry_cell_setting 'tetragonal'
loop_
_space_group_symop_operation_xyz
x,y,z
-y,1/2+x,1/4+z
-x,-y,z
y,1/2-x,1/4+z
1/2+x,1/2+y,1/2+z
1/2-y,x,3/4+z
1/2-x,1/2-y,1/2+z
1/2+y,-x,3/4+z
loop_
_atom_site_type_symbol
_atom_site_label
_atom_site_fract_x
_atom_site_fract_y
_atom_site_fract_z
Si Si1 0.833419 0.331441 0.584730
Si Si2 0.000000 0.500000 0.082028
Si Si3 0.666581 0.331441 0.225128
Si Si4 0.000000 0.500000 0.477830
Si Si5 0.934505 0.778037 0.913748
Si Si6 0.273980 0.226020 0.279929
Si Si7 0.721963 0.565495 0.646110
O O1 0.751950 0.248050 0.529929
O O2 0.893988 0.250000 0.654929
O O3 0.931749 0.403366 0.533416
O O4 0.746148 0.426090 0.628882
O O5 0.079111 0.416269 0.141917
O O6 0.096634 0.568251 0.026443
O O7 0.753853 0.426090 0.180977
O O8 0.916269 0.579111 0.417942
O O9 0.889454 0.709343 0.835478
O O10 0.853991 0.728433 0.984911
O O11 0.290657 0.110546 0.224381
O O12 0.146009 0.228434 0.324948
#
# Coordination Sequence:
#
# PCOD8302199 Si02
#       7
#     8   4   8   4   8   8   8
#     4  12  27  48  73 109 151 197 254 308 373 450
#     4  12  26  45  73 106 148 200 240 312 376 441
#     4  12  27  48  73 109 151 197 254 308 373 450
#     4  12  26  45  73 106 148 200 240 312 376 441
#     4  11  24  43  70 107 148 190 249 302 375 442
#     4  10  24  43  72 109 146 198 244 308 372 450
#     4  11  24  43  70 107 148 190 249 302 375 442
#
# _framework density 23.185897000000001
#
# number of rings (size 3 to 8) (size 9 to 14) (size 15 to 20)
#    0.000    0.667    6.667    0.000    4.667    2.667 
#    0.000    0.000    0.000    0.000    0.000    0.000 
#    0.000    0.000    0.000    0.000    0.000    0.000 
#
# Total GULP energy -297383.417932 kJ/mol
# GULP energy per Si atom -12390.975747 kJ/mol
# Density = 2.313312 g / cm^3
# Si number density = 23.185897 Si / 1000 Ang^3
#
#
#
# Elastic Constant Matrix: (Units=GPa)
#
#
# Indices 1 2 3 4 5 6 
#
# 1 75.8872 22.6234 33.7787 0.0000 0.0000 0.0000
# 2 22.6234 75.8872 33.7787 0.0000 0.0000 0.0000
# 3 33.7787 33.7787 114.0497 0.0000 0.0000 0.0000
# 4 0.0000 0.0000 0.0000 18.0191 0.0000 0.0000
# 5 0.0000 0.0000 0.0000 0.0000 18.0191 0.0000
# 6 0.0000 0.0000 0.0000 0.0000 0.0000 46.2272
#
#
#
# Elastic Compliance Matrix: (Units=1/GPa)
#
#
# Indices 1 2 3 4 5 6 
#
# 1 0.015757 -0.003018 -0.003773 0.000000 0.000000 0.000000
# 2 -0.003018 0.015757 -0.003773 0.000000 0.000000 0.000000
# 3 -0.003773 -0.003773 0.011003 0.000000 0.000000 0.000000
# 4 0.000000 0.000000 0.000000 0.055497 0.000000 0.000000
# 5 0.000000 0.000000 0.000000 0.000000 0.055497 0.000000
# 6 0.000000 0.000000 0.000000 0.000000 0.000000 0.021632
#
#
# Mechanical properties :
#
#
# Convention : Reuss Voigt Hill
#
# Bulk Modulus (GPa) = 46.75367 49.57619 48.16493
# Shear Modulus (GPa) = 24.58233 28.16267 26.37250
#
# Velocity S-wave (km/s) = 3.25965 3.48896 3.37625
# Velocity P-wave (km/s) = 5.86307 6.13669 6.00143
#
# Compressibility (1/GPa) = 0.02138870
#
# Stress axis : x y z
#
# Youngs Moduli (GPa) = 63.46581 63.46581 90.88472
#
# Poissons Ratio (x) = 0.19154 0.34289
# Poissons Ratio (y) = 0.19154 0.34289
# Poissons Ratio (z) = 0.23945 0.23945
#
# Static dielectric constant tensor:
#      x y z
#    x 4.216430 0.000000 0.000000 
#    y 0.000000 4.216430 0.000000 
#    z 0.000000 0.000000 4.656780 
# 
# 
# High freq. dielectric constant tensor:
#      x y z
#    x 1.910850 0.000000 0.000000 
#    y 0.000000 1.910850 0.000000 
#    z 0.000000 0.000000 1.942910 
# 
# From -- ./inp_files/1544.got.cif
#   From: 2010.03.12/outbox.cif.g09.slc.cpg/sg80_cif.got.tgz:1544.got - 2010.04.08 20:00:04.
