data_PCOD8302550
_publ_section_title
;
Structure prediction by ZEFSAII (Michael W. Deem and Ramdas Pophale) SiO2 
 PCOD8302550
Probable space group: I -4 
;
_chemical_formula_sum "Si O2"
_cell_formula_units_Z 40
_cell_length_a 11.706937
_cell_length_b 11.706937
_cell_length_c 13.967444
_cell_angle_alpha 90.000000
_cell_angle_beta 90.000000
_cell_angle_gamma 90.000000
_cell_volume 1914.271358
_symmetry_space_group_name_H-M "I -4 "
_symmetry_group_IT_number 82
_symmetry_cell_setting 'tetragonal'
loop_
_space_group_symop_operation_xyz
x,y,z
y,-x,-z
-x,-y,z
-y,x,-z
1/2+x,1/2+y,1/2+z
1/2+y,1/2-x,1/2-z
1/2-x,1/2-y,1/2+z
1/2-y,1/2+x,1/2-z
loop_
_atom_site_type_symbol
_atom_site_label
_atom_site_fract_x
_atom_site_fract_y
_atom_site_fract_z
Si Si1 0.923607 0.392333 0.993812
Si Si2 0.072176 0.103505 0.264621
Si Si3 0.826432 0.043855 0.534361
Si Si4 0.342348 0.479995 0.444537
Si Si5 0.957843 0.328240 0.784324
O O1 0.966113 0.332398 0.897581
O O2 0.000000 0.500000 0.023237
O O3 0.793298 0.430280 0.984074
O O4 0.945120 0.289528 0.067469
O O5 0.056723 0.195470 0.350412
O O6 0.015543 0.130722 0.163517
O O7 0.204656 0.075495 0.253265
O O8 0.000000 0.000000 0.310119
O O9 0.917040 0.137070 0.496915
O O10 0.371064 0.582409 0.520005
O O11 0.861016 0.417757 0.753727
#
# Coordination Sequence:
#
# PCOD8302550 Si02
#       5
#     8   8   8   8   8
#     4  12  26  45  69 102 141 175 228 281 339 402
#     4  12  23  44  70 101 133 179 230 273 340 414
#     4  11  26  46  70  99 138 182 224 281 344 404
#     4  11  23  45  71 100 134 180 227 281 338 397
#     4  11  23  41  69 102 129 174 230 283 326 394
#
# _framework density 20.895679999999999
#
# number of rings (size 3 to 8) (size 9 to 14) (size 15 to 20)
#    0.000    0.600    8.000    1.200    2.800    1.600 
#    3.600    0.000    0.000    0.000    0.000    0.000 
#    0.000    0.000    0.000    0.000    0.000    0.000 
#
# Total GULP energy -247919.445429 kJ/mol
# GULP energy per Si atom -12395.972271 kJ/mol
# Density = 2.084812 g / cm^3
# Si number density = 20.895680 Si / 1000 Ang^3
#
#
#
# Elastic Constant Matrix: (Units=GPa)
#
#
# Indices 1 2 3 4 5 6 
#
# 1 118.7648 40.4781 11.8233 0.0000 0.0000 2.1633
# 2 40.4781 118.7648 11.8233 0.0000 0.0000 -2.1633
# 3 11.8233 11.8233 96.6252 0.0000 0.0000 0.0000
# 4 0.0000 0.0000 0.0000 11.1762 0.0000 0.0000
# 5 0.0000 0.0000 0.0000 0.0000 11.1762 0.0000
# 6 2.1633 -2.1633 0.0000 0.0000 0.0000 17.4341
#
#
#
# Elastic Compliance Matrix: (Units=1/GPa)
#
#
# Indices 1 2 3 4 5 6 
#
# 1 0.009629 -0.003233 -0.000783 0.000000 0.000000 -0.001596
# 2 -0.003233 0.009629 -0.000783 0.000000 0.000000 0.001596
# 3 -0.000783 -0.000783 0.010541 0.000000 0.000000 0.000000
# 4 0.000000 0.000000 0.000000 0.089475 0.000000 0.000000
# 5 0.000000 0.000000 0.000000 0.000000 0.089476 0.000000
# 6 -0.001596 0.001596 0.000000 0.000000 0.000000 0.057755
#
#
# Mechanical properties :
#
#
# Convention : Reuss Voigt Hill
#
# Bulk Modulus (GPa) = 49.49965 51.37825 50.43895
# Shear Modulus (GPa) = 17.67814 25.95932 21.81873
#
# Velocity S-wave (km/s) = 2.91180 3.52849 3.23487
# Velocity P-wave (km/s) = 5.91989 6.42197 6.17604
#
# Compressibility (1/GPa) = 0.02020216
#
# Stress axis : x y z
#
# Youngs Moduli (GPa) = 103.85459 103.85461 94.86953
#
# Poissons Ratio (x) = 0.33575 0.07425
# Poissons Ratio (y) = 0.33575 0.07425
# Poissons Ratio (z) = 0.08128 0.08128
#
# Static dielectric constant tensor:
#      x y z
#    x 3.801450 0.000000 0.000000 
#    y 0.000000 3.801450 0.000000 
#    z 0.000000 0.000000 3.891260 
# 
# 
# High freq. dielectric constant tensor:
#      x y z
#    x 1.814550 0.000000 0.000000 
#    y 0.000000 1.814550 0.000000 
#    z 0.000000 0.000000 1.831680 
# 
# From -- ./inp_files/2190.got.cif
#   From: 2010.03.12/outbox.cif.g09.slc.cpg/sg82_2_cif.got.tgz:2190.got - 2010.04.08 20:02:50.
