data_PCOD8302907
_publ_section_title
;
Structure prediction by ZEFSAII (Michael W. Deem and Ramdas Pophale) SiO2 
 PCOD8302907
Probable space group: P 4/M
;
_chemical_formula_sum "Si O2"
_cell_formula_units_Z 48
_cell_length_a 13.632291
_cell_length_b 13.632291
_cell_length_c 12.783028
_cell_angle_alpha 90.000000
_cell_angle_beta 90.000000
_cell_angle_gamma 90.000000
_cell_volume 2375.589716
_symmetry_space_group_name_H-M "P 4/M"
_symmetry_group_IT_number 83
_symmetry_cell_setting 'tetragonal'
loop_
_space_group_symop_operation_xyz
x,y,z
-y,x,z
-x,-y,z
y,-x,z
-x,-y,-z
y,-x,-z
x,y,-z
-y,x,-z
loop_
_atom_site_type_symbol
_atom_site_label
_atom_site_fract_x
_atom_site_fract_y
_atom_site_fract_z
Si Si1 0.134317 0.087192 0.118805
Si Si2 0.544779 0.343709 0.500000
Si Si3 0.103871 0.877770 0.500000
Si Si4 0.449383 0.652785 0.880975
Si Si5 0.252445 0.153609 0.309579
Si Si6 0.020246 0.385983 0.619158
Si Si7 0.371189 0.764320 0.307298
O O1 0.212002 0.138067 0.193406
O O2 0.028237 0.132774 0.141401
O O3 0.166460 0.108288 0.000000
O O4 0.619878 0.433657 0.500000
O O5 0.559658 0.276494 0.398689
O O6 0.146811 0.832671 0.395073
O O7 0.988684 0.862703 0.500000
O O8 0.378663 0.560840 0.859240
O O9 0.421031 0.741125 0.803996
O O10 0.437381 0.689815 0.000000
O O11 0.289868 0.265596 0.314848
O O12 0.337637 0.075941 0.330465
O O13 0.032694 0.348615 0.500000
O O14 0.118088 0.359054 0.683563
O O15 0.000000 0.500000 0.622969
#
# Coordination Sequence:
#
# PCOD8302907 Si02
#       7
#     8   4   4   8   8   8   8
#     4   9  18  35  59  85 116 152 198 261 317 357
#     4  11  25  40  63  97 126 153 209 283 333 380
#     4  11  21  34  57  84 117 150 201 272 316 353
#     4   9  20  41  70 100 128 161 211 275 334 390
#     4  12  24  37  60  87 121 166 215 255 302 389
#     4  11  26  43  60  87 133 176 212 258 327 392
#     4  12  24  39  68  92 128 175 218 262 325 396
#
# _framework density 20.205507999999998
#
# number of rings (size 3 to 8) (size 9 to 14) (size 15 to 20)
#    0.000    1.333    1.667    5.500    4.667    3.333 
#    0.000    0.833    0.000    1.000    0.000    0.000 
#    0.000    0.000    0.000    0.000    0.000    0.000 
#
# Total GULP energy -595386.070421 kJ/mol
# GULP energy per Si atom -12403.876467 kJ/mol
# Density = 2.015952 g / cm^3
# Si number density = 20.205508 Si / 1000 Ang^3
#
#
#
# Elastic Constant Matrix: (Units=GPa)
#
#
# Indices 1 2 3 4 5 6 
#
# 1 63.1584 2.7661 25.9117 0.0000 0.0000 1.5992
# 2 2.7661 63.1584 25.9117 0.0000 0.0000 -1.5992
# 3 25.9117 25.9117 120.1459 0.0000 0.0000 0.0000
# 4 0.0000 0.0000 0.0000 27.6333 0.0000 0.0000
# 5 0.0000 0.0000 0.0000 0.0000 27.6333 0.0000
# 6 1.5992 -1.5992 0.0000 0.0000 0.0000 33.5736
#
#
#
# Elastic Compliance Matrix: (Units=1/GPa)
#
#
# Indices 1 2 3 4 5 6 
#
# 1 0.017433 0.000833 -0.003939 0.000000 0.000000 -0.000791
# 2 0.000833 0.017433 -0.003939 0.000000 0.000000 0.000791
# 3 -0.003939 -0.003939 0.010022 0.000000 0.000000 0.000000
# 4 0.000000 0.000000 0.000000 0.036188 0.000000 0.000000
# 5 0.000000 0.000000 0.000000 0.000000 0.036188 0.000000
# 6 -0.000791 0.000791 0.000000 0.000000 0.000000 0.029861
#
#
# Mechanical properties :
#
#
# Convention : Reuss Voigt Hill
#
# Bulk Modulus (GPa) = 32.47146 39.51573 35.99360
# Shear Modulus (GPa) = 29.15748 30.55960 29.85854
#
# Velocity S-wave (km/s) = 3.80287 3.89323 3.84831
# Velocity P-wave (km/s) = 5.94877 6.30944 6.13176
#
# Compressibility (1/GPa) = 0.03079627
#
# Stress axis : x y z
#
# Youngs Moduli (GPa) = 57.36274 57.36274 99.77675
#
# Poissons Ratio (x) = -0.04776 0.39305
# Poissons Ratio (y) = -0.04776 0.39305
# Poissons Ratio (z) = 0.22597 0.22597
#
# Static dielectric constant tensor:
#      x y z
#    x 3.620760 0.000000 0.000000 
#    y 0.000000 3.620760 0.000000 
#    z 0.000000 0.000000 3.679710 
# 
# 
# High freq. dielectric constant tensor:
#      x y z
#    x 1.787110 0.000000 0.000000 
#    y 0.000000 1.787110 0.000000 
#    z 0.000000 0.000000 1.792240 
# 
# From -- ./inp_files/1857.got.cif
#   From: 2010.03.12/outbox.cif.g09.slc.cpg/sg83_1_cif.got.tgz:1857.got - 2010.04.08 20:05:18.
