data_PCOD8302213
_publ_section_title
;
Structure prediction by ZEFSAII (Michael W. Deem and Ramdas Pophale) SiO2 
 PCOD8302213
Probable space group: I 41
;
_chemical_formula_sum "Si O2"
_cell_formula_units_Z 44
_cell_length_a 8.054321
_cell_length_b 8.054321
_cell_length_c 29.753515
_cell_angle_alpha 90.000000
_cell_angle_beta 90.000000
_cell_angle_gamma 90.000000
_cell_volume 1930.172607
_symmetry_space_group_name_H-M "I 41"
_symmetry_group_IT_number 80
_symmetry_cell_setting 'tetragonal'
loop_
_space_group_symop_operation_xyz
x,y,z
-y,1/2+x,1/4+z
-x,-y,z
y,1/2-x,1/4+z
1/2+x,1/2+y,1/2+z
1/2-y,x,3/4+z
1/2-x,1/2-y,1/2+z
1/2+y,-x,3/4+z
loop_
_atom_site_type_symbol
_atom_site_label
_atom_site_fract_x
_atom_site_fract_y
_atom_site_fract_z
Si Si1 0.500000 0.500000 0.503181
Si Si2 0.293683 0.277990 0.859132
Si Si3 0.803049 0.328607 0.471001
Si Si4 0.804568 0.968667 0.449686
Si Si5 0.000000 0.500000 0.545380
Si Si6 0.346138 0.376784 0.281363
Si Si7 0.500000 0.500000 0.648872
O O1 0.657137 0.464517 0.471326
O O2 0.528571 0.667272 0.532678
O O3 0.246302 0.397057 0.901146
O O4 0.431235 0.358373 0.827356
O O5 0.136528 0.236335 0.826703
O O6 0.360733 0.096251 0.871554
O O7 0.916982 0.353354 0.515476
O O8 0.918070 0.355071 0.428125
O O9 0.723147 0.145642 0.463910
O O10 0.743646 0.841231 0.487730
O O11 0.000000 0.000000 0.450847
O O12 0.500000 0.500000 0.279865
#
# Coordination Sequence:
#
# PCOD8302213 Si02
#       7
#     4   8   8   8   4   8   4
#     4  12  23  46  79 104 152 202 246 311 382 457
#     4  12  24  43  74 109 148 190 253 319 371 468
#     4  11  23  43  77 103 146 202 241 312 382 451
#     4  12  24  48  74 110 151 192 255 314 379 462
#     4  11  22  40  73 114 140 196 258 299 383 452
#     4  12  27  50  74 109 151 199 255 313 388 464
#     4  11  23  44  70 106 142 196 254 302 387 449
#
# _framework density 22.795888999999999
#
# number of rings (size 3 to 8) (size 9 to 14) (size 15 to 20)
#    0.000    0.364    6.364    2.727    0.000    0.000 
#    6.545    2.727    0.000    0.000    0.000    0.000 
#    0.000    0.000    0.000    0.000    0.000    0.000 
#
# Total GULP energy -272686.134623 kJ/mol
# GULP energy per Si atom -12394.824301 kJ/mol
# Density = 2.274400 g / cm^3
# Si number density = 22.795889 Si / 1000 Ang^3
#
#
#
# Elastic Constant Matrix: (Units=GPa)
#
#
# Indices 1 2 3 4 5 6 
#
# 1 104.6123 25.4318 50.6464 0.0000 0.0000 -2.0976
# 2 25.4318 104.6123 50.6464 0.0000 0.0000 2.0976
# 3 50.6464 50.6464 178.9246 0.0000 0.0000 0.0000
# 4 0.0000 0.0000 0.0000 6.5658 0.0000 0.0000
# 5 0.0000 0.0000 0.0000 0.0000 6.5658 0.0000
# 6 -2.0976 2.0976 0.0000 0.0000 0.0000 36.8887
#
#
#
# Elastic Compliance Matrix: (Units=1/GPa)
#
#
# Indices 1 2 3 4 5 6 
#
# 1 0.011266 -0.001401 -0.002792 0.000000 0.000000 0.000720
# 2 -0.001401 0.011266 -0.002792 0.000000 0.000000 -0.000720
# 3 -0.002792 -0.002792 0.007170 0.000000 0.000000 0.000000
# 4 0.000000 0.000000 0.000000 0.152304 0.000000 0.000000
# 5 0.000000 0.000000 0.000000 0.000000 0.152304 0.000000
# 6 0.000720 -0.000720 0.000000 0.000000 0.000000 0.027191
#
#
# Mechanical properties :
#
#
# Convention : Reuss Voigt Hill
#
# Bulk Modulus (GPa) = 63.57335 71.28869 67.43102
# Shear Modulus (GPa) = 13.13319 27.43238 20.28278
#
# Velocity S-wave (km/s) = 2.40286 3.47276 2.98611
# Velocity P-wave (km/s) = 5.97050 6.88626 6.44467
#
# Compressibility (1/GPa) = 0.01572986
#
# Stress axis : x y z
#
# Youngs Moduli (GPa) = 88.76197 88.76197 139.47562
#
# Poissons Ratio (x) = 0.12439 0.38946
# Poissons Ratio (y) = 0.12439 0.38946
# Poissons Ratio (z) = 0.24785 0.24785
#
# Static dielectric constant tensor:
#      x y z
#    x 4.320570 0.000000 0.000000 
#    y 0.000000 4.320570 0.000000 
#    z 0.000000 0.000000 4.301870 
# 
# 
# High freq. dielectric constant tensor:
#      x y z
#    x 1.898250 0.000000 0.000000 
#    y 0.000000 1.898250 0.000000 
#    z 0.000000 0.000000 1.906690 
# 
# From -- ./inp_files/2590.got.cif
#   From: 2010.03.12/outbox.cif.g09.slc.cpg/sg80_cif.got.tgz:2590.got - 2010.04.08 20:00:04.
