data_PCOD8302365
_publ_section_title
;
Structure prediction by ZEFSAII (Michael W. Deem and Ramdas Pophale) SiO2 
 PCOD8302365
Probable space group: I -4 
;
_chemical_formula_sum "Si O2"
_cell_formula_units_Z 64
_cell_length_a 11.447732
_cell_length_b 11.447732
_cell_length_c 26.348335
_cell_angle_alpha 90.000000
_cell_angle_beta 90.000000
_cell_angle_gamma 90.000000
_cell_volume 3452.964266
_symmetry_space_group_name_H-M "I -4 "
_symmetry_group_IT_number 82
_symmetry_cell_setting 'tetragonal'
loop_
_space_group_symop_operation_xyz
x,y,z
y,-x,-z
-x,-y,z
-y,x,-z
1/2+x,1/2+y,1/2+z
1/2+y,1/2-x,1/2-z
1/2-x,1/2-y,1/2+z
1/2-y,1/2+x,1/2-z
loop_
_atom_site_type_symbol
_atom_site_label
_atom_site_fract_x
_atom_site_fract_y
_atom_site_fract_z
Si Si1 0.851543 0.762024 0.961538
Si Si2 0.419475 0.657078 0.346314
Si Si3 0.700687 0.797000 0.234022
Si Si4 0.402690 0.673825 0.638498
Si Si5 0.624180 0.233303 0.447458
Si Si6 0.135694 0.473349 0.816165
Si Si7 0.362808 0.016553 0.432173
Si Si8 0.410481 0.837578 0.733143
O O1 0.797447 0.845236 0.916821
O O2 0.805985 0.628005 0.959892
O O3 0.989781 0.754354 0.960054
O O4 0.821225 0.806611 0.017167
O O5 0.369931 0.694923 0.292175
O O6 0.560583 0.667369 0.340018
O O7 0.373479 0.533638 0.366512
O O8 0.366769 0.746733 0.387275
O O9 0.582856 0.790387 0.202495
O O10 0.676747 0.854920 0.288737
O O11 0.740774 0.663152 0.237297
O O12 0.407607 0.790471 0.674369
O O13 0.683551 0.105404 0.455332
O O14 0.165926 0.456058 0.874186
O O15 0.000000 0.500000 0.804862
O O16 0.500000 0.000000 0.439019
O O17 0.537099 0.846064 0.759946
#
# Coordination Sequence:
#
# PCOD8302365 Si02
#       8
#     8   8   8   8   8   8   8   8
#     4  10  20  34  60  84 112 146 182 230 284 338
#     4  10  20  33  57  86 113 141 181 239 292 334
#     4  12  19  34  54  85 113 148 185 230 281 342
#     4  10  20  37  56  82 111 147 188 235 286 337
#     4  10  19  35  56  86 116 139 181 232 286 332
#     4  11  20  32  57  91 119 142 181 231 295 346
#     4   9  19  33  52  81 115 144 175 223 279 337
#     4  11  24  40  55  74 114 163 200 233 277 335
#
# _framework density 18.534801000000002
#
# number of rings (size 3 to 8) (size 9 to 14) (size 15 to 20)
#    0.000    1.625    3.750    2.250    1.750    1.250 
#    0.000    1.250    5.500    0.375    0.000    0.000 
#    0.000    0.000    0.000    0.000    0.000    0.000 
#
# Total GULP energy -396433.481034 kJ/mol
# GULP energy per Si atom -12388.546282 kJ/mol
# Density = 1.849261 g / cm^3
# Si number density = 18.534801 Si / 1000 Ang^3
#
#
#
# Elastic Constant Matrix: (Units=GPa)
#
#
# Indices 1 2 3 4 5 6 
#
# 1 91.5140 19.3570 30.5415 0.0000 0.0000 12.8007
# 2 19.3570 91.5140 30.5415 0.0000 0.0000 -12.8006
# 3 30.5415 30.5415 70.6499 0.0000 0.0000 0.0000
# 4 0.0000 0.0000 0.0000 20.6996 0.0000 0.0000
# 5 0.0000 0.0000 0.0000 0.0000 20.6996 0.0000
# 6 12.8007 -12.8006 0.0000 0.0000 0.0000 31.4497
#
#
#
# Elastic Compliance Matrix: (Units=1/GPa)
#
#
# Indices 1 2 3 4 5 6 
#
# 1 0.014018 -0.002179 -0.005118 0.000000 0.000000 -0.006593
# 2 -0.002179 0.014018 -0.005118 0.000000 0.000000 0.006593
# 3 -0.005118 -0.005118 0.018579 0.000000 0.000000 0.000000
# 4 0.000000 0.000000 0.000000 0.048310 0.000000 0.000000
# 5 0.000000 0.000000 0.000000 0.000000 0.048310 0.000000
# 6 -0.006593 0.006593 0.000000 0.000000 0.000000 0.037164
#
#
# Mechanical properties :
#
#
# Convention : Reuss Voigt Hill
#
# Bulk Modulus (GPa) = 45.90183 46.06199 45.98191
# Shear Modulus (GPa) = 23.53022 26.11897 24.82459
#
# Velocity S-wave (km/s) = 3.56689 3.75798 3.66368
# Velocity P-wave (km/s) = 6.46395 6.61328 6.53904
#
# Compressibility (1/GPa) = 0.02178562
#
# Stress axis : x y z
#
# Youngs Moduli (GPa) = 71.33433 71.33433 53.82344
#
# Poissons Ratio (x) = 0.15546 0.27547
# Poissons Ratio (y) = 0.15546 0.27547
# Poissons Ratio (z) = 0.36509 0.36509
#
# Static dielectric constant tensor:
#      x y z
#    x 3.496970 0.000000 0.000000 
#    y 0.000000 3.496970 0.000000 
#    z 0.000000 0.000000 3.346840 
# 
# 
# High freq. dielectric constant tensor:
#      x y z
#    x 1.710570 0.000000 0.000000 
#    y 0.000000 1.710570 0.000000 
#    z 0.000000 0.000000 1.710820 
# 
# From -- ./inp_files/3812.got.cif
#   From: 2010.03.12/outbox.cif.g09.slc.cpg/sg82_2_cif.got.tgz:3812.got - 2010.04.08 20:02:50.
