data_PCOD8302841
_publ_section_title
;
Structure prediction by ZEFSAII (Michael W. Deem and Ramdas Pophale) SiO2 
 PCOD8302841
Probable space group: P 4/M
;
_chemical_formula_sum "Si O2"
_cell_formula_units_Z 40
_cell_length_a 15.253006
_cell_length_b 15.253006
_cell_length_c 7.835999
_cell_angle_alpha 90.000000
_cell_angle_beta 90.000000
_cell_angle_gamma 90.000000
_cell_volume 1823.078016
_symmetry_space_group_name_H-M "P 4/M"
_symmetry_group_IT_number 83
_symmetry_cell_setting 'tetragonal'
loop_
_space_group_symop_operation_xyz
x,y,z
-y,x,z
-x,-y,z
y,-x,z
-x,-y,-z
y,-x,-z
x,y,-z
-y,x,-z
loop_
_atom_site_type_symbol
_atom_site_label
_atom_site_fract_x
_atom_site_fract_y
_atom_site_fract_z
Si Si1 0.218888 0.483238 0.689545
Si Si2 0.626693 0.905495 0.809371
Si Si3 0.101607 0.329057 0.798942
Si Si4 0.498366 0.646548 0.000000
Si Si5 0.187020 0.147793 0.189522
Si Si6 0.049305 0.867558 0.500000
O O1 0.261582 0.488143 0.500000
O O2 0.140130 0.553409 0.696099
O O3 0.172689 0.389928 0.709214
O O4 0.293437 0.499333 0.830928
O O5 0.708348 0.837592 0.815697
O O6 0.652097 0.002207 0.735932
O O7 0.588597 0.918004 0.000000
O O8 0.132195 0.231377 0.748179
O O9 0.109166 0.342057 0.000000
O O10 0.412063 0.586041 0.000000
O O11 0.181108 0.068635 0.323423
O O12 0.155159 0.117538 0.000000
O O13 0.949352 0.887440 0.500000
#
# Coordination Sequence:
#
# PCOD8302841 Si02
#       6
#     8   8   8   4   8   4
#     4  12  26  42  72 107 137 172 223 276 336 413
#     4  10  21  40  66  97 137 184 230 281 340 397
#     4  10  21  40  66  97 137 184 230 281 340 397
#     4  11  28  54  79  98 138 180 211 274 338 403
#     4  10  23  41  65  92 128 179 231 279 327 402
#     4  11  24  40  60  90 130 174 223 282 340 398
#
# _framework density 21.940912999999998
#
# number of rings (size 3 to 8) (size 9 to 14) (size 15 to 20)
#    0.000    1.400    2.000    1.800    5.600    6.400 
#    0.000    2.000    0.000    0.000    0.000    0.000 
#    0.000    0.000    0.000    0.000    0.000    0.000 
#
# Total GULP energy -495781.259827 kJ/mol
# GULP energy per Si atom -12394.531496 kJ/mol
# Density = 2.189097 g / cm^3
# Si number density = 21.940913 Si / 1000 Ang^3
#
#
#
# Elastic Constant Matrix: (Units=GPa)
#
#
# Indices 1 2 3 4 5 6 
#
# 1 80.8262 11.1012 23.1171 0.0000 0.0000 -2.5060
# 2 11.1012 80.8262 23.1171 0.0000 0.0000 2.5060
# 3 23.1171 23.1171 107.8323 0.0000 0.0000 0.0000
# 4 0.0000 0.0000 0.0000 20.7716 0.0000 0.0000
# 5 0.0000 0.0000 0.0000 0.0000 20.7716 0.0000
# 6 -2.5060 2.5060 0.0000 0.0000 0.0000 42.8605
#
#
#
# Elastic Compliance Matrix: (Units=1/GPa)
#
#
# Indices 1 2 3 4 5 6 
#
# 1 0.013298 -0.001105 -0.002614 0.000000 0.000000 0.000842
# 2 -0.001105 0.013298 -0.002614 0.000000 0.000000 -0.000842
# 3 -0.002614 -0.002614 0.010394 0.000000 0.000000 0.000000
# 4 0.000000 0.000000 0.000000 0.048143 0.000000 0.000000
# 5 0.000000 0.000000 0.000000 0.000000 0.048143 0.000000
# 6 0.000842 -0.000842 0.000000 0.000000 0.000000 0.023430
#
#
# Mechanical properties :
#
#
# Convention : Reuss Voigt Hill
#
# Bulk Modulus (GPa) = 41.11096 42.68392 41.89744
# Shear Modulus (GPa) = 28.17245 31.02405 29.59825
#
# Velocity S-wave (km/s) = 3.58720 3.76437 3.67686
# Velocity P-wave (km/s) = 5.99459 6.19599 6.09612
#
# Compressibility (1/GPa) = 0.02432441
#
# Stress axis : x y z
#
# Youngs Moduli (GPa) = 75.20108 75.20108 96.20575
#
# Poissons Ratio (x) = 0.08309 0.25147
# Poissons Ratio (y) = 0.08309 0.25147
# Poissons Ratio (z) = 0.19657 0.19657
#
# Static dielectric constant tensor:
#      x y z
#    x 3.931860 0.000000 0.000000 
#    y 0.000000 3.931860 0.000000 
#    z 0.000000 0.000000 3.566050 
# 
# 
# High freq. dielectric constant tensor:
#      x y z
#    x 1.862170 0.000000 0.000000 
#    y 0.000000 1.862170 0.000000 
#    z 0.000000 0.000000 1.863050 
# 
# From -- ./inp_files/760.got.cif
#   From: 2010.03.12/outbox.cif.g09.slc.cpg/sg83_1_cif.got.tgz:760.got - 2010.04.08 20:05:18.
