data_PCOD8302556
_publ_section_title
;
Structure prediction by ZEFSAII (Michael W. Deem and Ramdas Pophale) SiO2 
 PCOD8302556
Probable space group: I -4 
;
_chemical_formula_sum "Si O2"
_cell_formula_units_Z 48
_cell_length_a 9.108845
_cell_length_b 9.108845
_cell_length_c 27.905994
_cell_angle_alpha 90.000000
_cell_angle_beta 90.000000
_cell_angle_gamma 90.000000
_cell_volume 2315.389825
_symmetry_space_group_name_H-M "I -4 "
_symmetry_group_IT_number 82
_symmetry_cell_setting 'tetragonal'
loop_
_space_group_symop_operation_xyz
x,y,z
y,-x,-z
-x,-y,z
-y,x,-z
1/2+x,1/2+y,1/2+z
1/2+y,1/2-x,1/2-z
1/2-x,1/2-y,1/2+z
1/2-y,1/2+x,1/2-z
loop_
_atom_site_type_symbol
_atom_site_label
_atom_site_fract_x
_atom_site_fract_y
_atom_site_fract_z
Si Si1 0.786700 0.609032 0.305634
Si Si2 0.603066 0.774431 0.120628
Si Si3 0.397172 0.300953 0.482372
Si Si4 0.889526 0.174418 0.477610
Si Si5 0.788456 0.608521 0.194344
Si Si6 0.217855 0.600265 0.622384
O O1 0.750147 0.627763 0.249910
O O2 0.804637 0.437715 0.318594
O O3 0.650179 0.676918 0.334484
O O4 0.937299 0.692898 0.318601
O O5 0.631780 0.681407 0.072777
O O6 0.653097 0.673782 0.164782
O O7 0.431900 0.808240 0.125413
O O8 0.692213 0.926196 0.123045
O O9 0.308936 0.431229 0.507824
O O10 0.338800 0.152840 0.506958
O O11 0.363541 0.303916 0.426249
O O12 0.066195 0.166530 0.478998
#
# Coordination Sequence:
#
# PCOD8302556 Si02
#       6
#     8   8   8   8   8   8
#     4   9  21  42  66  94 126 161 206 258 313 374
#     4  11  24  41  62  91 128 166 207 258 311 366
#     4  11  24  41  62  90 126 166 208 253 306 366
#     4  11  24  41  62  90 126 166 208 253 306 366
#     4   9  21  42  66  94 126 161 206 258 313 374
#     4  11  24  41  62  91 128 166 207 258 311 366
#
# _framework density 20.73085
#
# number of rings (size 3 to 8) (size 9 to 14) (size 15 to 20)
#    0.000    1.667    3.333    1.000    4.667    3.333 
#    0.000    5.000    0.000    0.000    0.000    0.000 
#    0.000    0.000    0.000    0.000    0.000    0.000 
#
# Total GULP energy -297572.875881 kJ/mol
# GULP energy per Si atom -12398.869828 kJ/mol
# Density = 2.068367 g / cm^3
# Si number density = 20.730850 Si / 1000 Ang^3
#
#
#
# Elastic Constant Matrix: (Units=GPa)
#
#
# Indices 1 2 3 4 5 6 
#
# 1 54.6715 34.6684 43.1293 0.0000 0.0000 -0.1388
# 2 34.6684 54.6715 43.1293 0.0000 0.0000 0.1388
# 3 43.1293 43.1293 114.2703 0.0000 0.0000 0.0000
# 4 0.0000 0.0000 0.0000 39.8304 0.0000 0.0000
# 5 0.0000 0.0000 0.0000 0.0000 39.8304 0.0000
# 6 -0.1388 0.1388 0.0000 0.0000 0.0000 39.5986
#
#
#
# Elastic Compliance Matrix: (Units=1/GPa)
#
#
# Indices 1 2 3 4 5 6 
#
# 1 0.033803 -0.016192 -0.006647 0.000000 0.000000 0.000175
# 2 -0.016192 0.033803 -0.006647 0.000000 0.000000 -0.000175
# 3 -0.006647 -0.006647 0.013769 0.000000 0.000000 0.000000
# 4 0.000000 0.000000 0.000000 0.025106 0.000000 0.000000
# 5 0.000000 0.000000 0.000000 0.000000 0.025106 0.000000
# 6 0.000175 -0.000175 0.000000 0.000000 0.000000 0.025255
#
#
# Mechanical properties :
#
#
# Convention : Reuss Voigt Hill
#
# Bulk Modulus (GPa) = 44.63726 51.71859 48.17792
# Shear Modulus (GPa) = 22.39332 30.69763 26.54548
#
# Velocity S-wave (km/s) = 3.29019 3.85225 3.58226
# Velocity P-wave (km/s) = 6.00103 6.69240 6.35613
#
# Compressibility (1/GPa) = 0.02240281
#
# Stress axis : x y z
#
# Youngs Moduli (GPa) = 29.58336 29.58339 72.62839
#
# Poissons Ratio (x) = 0.47901 0.48276
# Poissons Ratio (y) = 0.47901 0.48276
# Poissons Ratio (z) = 0.19664 0.19664
#
# Static dielectric constant tensor:
#      x y z
#    x 3.762400 0.000000 0.000000 
#    y 0.000000 3.762400 0.000000 
#    z 0.000000 0.000000 3.651210 
# 
# 
# High freq. dielectric constant tensor:
#      x y z
#    x 1.813400 0.000000 0.000000 
#    y 0.000000 1.813400 0.000000 
#    z 0.000000 0.000000 1.810010 
# 
# From -- ./inp_files/4041.got.cif
#   From: 2010.03.12/outbox.cif.g09.slc.cpg/sg82_3_cif.got.tgz:4041.got - 2010.04.08 20:02:50.
