data_PCOD8302640
_publ_section_title
;
Structure prediction by ZEFSAII (Michael W. Deem and Ramdas Pophale) SiO2 
 PCOD8302640
Probable space group: P 4/M
;
_chemical_formula_sum "Si O2"
_cell_formula_units_Z 52
_cell_length_a 17.230833
_cell_length_b 17.230833
_cell_length_c 9.681881
_cell_angle_alpha 90.000000
_cell_angle_beta 90.000000
_cell_angle_gamma 90.000000
_cell_volume 2874.566017
_symmetry_space_group_name_H-M "P 4/M"
_symmetry_group_IT_number 83
_symmetry_cell_setting 'tetragonal'
loop_
_space_group_symop_operation_xyz
x,y,z
-y,x,z
-x,-y,z
y,-x,z
-x,-y,-z
y,-x,-z
x,y,-z
-y,x,-z
loop_
_atom_site_type_symbol
_atom_site_label
_atom_site_fract_x
_atom_site_fract_y
_atom_site_fract_z
Si Si1 0.926425 0.306788 0.349101
Si Si2 0.803081 0.578104 0.157377
Si Si3 0.891252 0.931898 0.000000
Si Si4 0.072026 0.294094 0.838329
Si Si5 0.711382 0.313937 0.848847
Si Si6 0.205194 0.572042 0.659164
Si Si7 0.830930 0.187522 0.783853
O O1 0.966642 0.307615 0.500000
O O2 0.876703 0.384512 0.328472
O O3 0.869016 0.231525 0.346773
O O4 0.987602 0.305193 0.225728
O O5 0.882784 0.625281 0.176065
O O6 0.729694 0.632357 0.192380
O O7 0.804060 0.509699 0.266761
O O8 0.797600 0.546752 0.000000
O O9 0.843753 0.904521 0.867563
O O10 0.975956 0.893929 0.000000
O O11 0.115714 0.226458 0.750697
O O12 0.066211 0.269073 0.000000
O O13 0.727249 0.378820 0.733976
O O14 0.780354 0.251227 0.865380
O O15 0.702796 0.353365 0.000000
O O16 0.229420 0.559895 0.500000
#
# Coordination Sequence:
#
# PCOD8302640 Si02
#       7
#     8   8   4   8   8   8   8
#     4  10  23  36  50  74 106 144 179 216 269 327
#     4   9  19  35  55  82 109 136 174 220 270 315
#     4  11  20  28  46  78 102 126 166 219 276 318
#     4  10  20  34  56  80 102 133 178 227 272 319
#     4   9  17  33  57  79 101 135 175 218 262 308
#     4  10  21  35  52  78 110 144 179 212 258 321
#     4  10  18  33  53  73 101 130 175 224 266 312
#
# _framework density 18.089687000000001
#
# number of rings (size 3 to 8) (size 9 to 14) (size 15 to 20)
#    0.000    2.231    1.538    2.308    1.077    3.692 
#    0.000    6.154    0.000    0.462    0.000    6.462 
#    0.000    0.000    0.000    0.000    0.000    0.000 
#
# Total GULP energy -644532.228119 kJ/mol
# GULP energy per Si atom -12394.850541 kJ/mol
# Density = 1.804851 g / cm^3
# Si number density = 18.089687 Si / 1000 Ang^3
#
#
#
# Elastic Constant Matrix: (Units=GPa)
#
#
# Indices 1 2 3 4 5 6 
#
# 1 90.1376 39.4919 58.7818 0.0000 0.0000 -2.8951
# 2 39.4919 90.1376 58.7818 0.0000 0.0000 2.8951
# 3 58.7818 58.7818 109.3203 0.0000 0.0000 0.0000
# 4 0.0000 0.0000 0.0000 19.8075 0.0000 0.0000
# 5 0.0000 0.0000 0.0000 0.0000 19.8075 0.0000
# 6 -2.8951 2.8951 0.0000 0.0000 0.0000 19.0459
#
#
#
# Elastic Compliance Matrix: (Units=1/GPa)
#
#
# Indices 1 2 3 4 5 6 
#
# 1 0.017575 -0.002519 -0.008096 0.000000 0.000000 0.003054
# 2 -0.002519 0.017575 -0.008096 0.000000 0.000000 -0.003054
# 3 -0.008096 -0.008096 0.017854 0.000000 0.000000 0.000000
# 4 0.000000 0.000000 0.000000 0.050486 0.000000 0.000000
# 5 0.000000 0.000000 0.000000 0.000000 0.050486 0.000000
# 6 0.003054 -0.003054 0.000000 0.000000 0.000000 0.053433
#
#
# Mechanical properties :
#
#
# Convention : Reuss Voigt Hill
#
# Bulk Modulus (GPa) = 64.17135 67.07847 65.62491
# Shear Modulus (GPa) = 19.99790 20.56819 20.28305
#
# Velocity S-wave (km/s) = 3.32849 3.37562 3.35214
# Velocity P-wave (km/s) = 7.09386 7.23565 7.16510
#
# Compressibility (1/GPa) = 0.01558328
#
# Stress axis : x y z
#
# Youngs Moduli (GPa) = 56.89744 56.89744 56.01000
#
# Poissons Ratio (x) = 0.14331 0.45346
# Poissons Ratio (y) = 0.14331 0.45346
# Poissons Ratio (z) = 0.46064 0.46064
#
# Static dielectric constant tensor:
#      x y z
#    x 3.276110 0.000000 0.000000 
#    y 0.000000 3.276110 0.000000 
#    z 0.000000 0.000000 3.252020 
# 
# 
# High freq. dielectric constant tensor:
#      x y z
#    x 1.695190 0.000000 0.000000 
#    y 0.000000 1.695190 0.000000 
#    z 0.000000 0.000000 1.689930 
# 
# From -- ./inp_files/1020.got.cif
#   From: 2010.03.12/outbox.cif.g09.slc.cpg/sg83_1_cif.got.tgz:1020.got - 2010.04.08 20:05:18.
