data_PCOD8302650
_publ_section_title
;
Structure prediction by ZEFSAII (Michael W. Deem and Ramdas Pophale) SiO2 
 PCOD8302650
Probable space group: P 4/M
;
_chemical_formula_sum "Si O2"
_cell_formula_units_Z 64
_cell_length_a 18.068340
_cell_length_b 18.068340
_cell_length_c 13.549443
_cell_angle_alpha 90.000000
_cell_angle_beta 90.000000
_cell_angle_gamma 90.000000
_cell_volume 4423.417694
_symmetry_space_group_name_H-M "P 4/M"
_symmetry_group_IT_number 83
_symmetry_cell_setting 'tetragonal'
loop_
_space_group_symop_operation_xyz
x,y,z
-y,x,z
-x,-y,z
y,-x,z
-x,-y,-z
y,-x,-z
x,y,-z
-y,x,-z
loop_
_atom_site_type_symbol
_atom_site_label
_atom_site_fract_x
_atom_site_fract_y
_atom_site_fract_z
Si Si1 0.425651 0.411120 0.117535
Si Si2 0.085391 0.192765 0.884184
Si Si3 0.194968 0.071033 0.198507
Si Si4 0.306987 0.299699 0.117310
Si Si5 0.652918 0.148509 0.882654
Si Si6 0.499921 0.083133 0.882777
Si Si7 0.884595 0.961135 0.611741
Si Si8 0.865422 0.339077 0.882628
O O1 0.509003 0.396939 0.154600
O O2 0.373090 0.348526 0.163043
O O3 0.423582 0.409011 0.000000
O O4 0.147926 0.140498 0.838459
O O5 0.097248 0.278078 0.848975
O O6 0.003690 0.166188 0.854327
O O7 0.096353 0.186745 0.000000
O O8 0.182299 0.061502 0.315808
O O9 0.281858 0.080839 0.173698
O O10 0.230479 0.331937 0.158683
O O11 0.318164 0.216363 0.152044
O O12 0.308195 0.303423 0.000000
O O13 0.573790 0.121995 0.838746
O O14 0.648012 0.148672 0.000000
O O15 0.423398 0.120761 0.847617
O O16 0.500000 0.000000 0.842869
O O17 0.503823 0.085463 0.000000
O O18 0.855965 0.951575 0.500000
O O19 0.954390 0.908052 0.631465
O O20 0.878360 0.330478 0.000000
#
# Coordination Sequence:
#
# PCOD8302650 Si02
#       8
#     8   8   8   8   8   8   8   8
#     4   8  14  22  32  48  68  92 130 179 218 247
#     4  11  21  30  41  60  91 123 149 178 208 255
#     4  12  20  31  45  63  87 117 147 177 220 261
#     4   9  16  24  35  50  71 102 138 174 216 251
#     4   9  17  29  40  52  75 112 151 182 211 244
#     4   9  17  28  41  54  71 106 152 187 213 244
#     4   9  18  34  51  66  84 108 144 187 225 260
#     4  10  19  29  40  59  87 115 145 184 219 254
#
# _framework density 14.468450000000001
#
# number of rings (size 3 to 8) (size 9 to 14) (size 15 to 20)
#    0.000    2.375    2.500    2.625    1.750    2.250 
#    0.000    0.625    0.000    0.000    0.000    0.000 
#    0.000    5.500    0.000    0.000    0.000    0.000 
#
# Total GULP energy -793268.685733 kJ/mol
# GULP energy per Si atom -12394.823215 kJ/mol
# Density = 1.443552 g / cm^3
# Si number density = 14.468450 Si / 1000 Ang^3
#
#
#
# Elastic Constant Matrix: (Units=GPa)
#
#
# Indices 1 2 3 4 5 6 
#
# 1 90.4228 36.7274 18.0069 0.0000 0.0000 3.6907
# 2 36.7274 90.4228 18.0069 0.0000 0.0000 -3.6907
# 3 18.0069 18.0069 36.8821 0.0000 0.0000 0.0000
# 4 0.0000 0.0000 0.0000 6.8396 0.0000 0.0000
# 5 0.0000 0.0000 0.0000 0.0000 6.8396 0.0000
# 6 3.6907 -3.6907 0.0000 0.0000 0.0000 29.9597
#
#
#
# Elastic Compliance Matrix: (Units=1/GPa)
#
#
# Indices 1 2 3 4 5 6 
#
# 1 0.014036 -0.004909 -0.004456 0.000000 0.000000 -0.002334
# 2 -0.004909 0.014036 -0.004456 0.000000 0.000000 0.002334
# 3 -0.004456 -0.004456 0.031464 0.000000 0.000000 0.000000
# 4 0.000000 0.000000 0.000000 0.146206 0.000000 0.000000
# 5 0.000000 0.000000 0.000000 0.000000 0.146206 0.000000
# 6 -0.002334 0.002334 0.000000 0.000000 0.000000 0.033953
#
#
# Mechanical properties :
#
#
# Convention : Reuss Voigt Hill
#
# Bulk Modulus (GPa) = 31.35364 40.35669 35.85517
# Shear Modulus (GPa) = 11.78761 18.39357 15.09059
#
# Velocity S-wave (km/s) = 2.85741 3.56938 3.23305
# Velocity P-wave (km/s) = 5.70997 6.70379 6.22674
#
# Compressibility (1/GPa) = 0.03189422
#
# Stress axis : x y z
#
# Youngs Moduli (GPa) = 71.24741 71.24741 31.78189
#
# Poissons Ratio (x) = 0.34974 0.14162
# Poissons Ratio (y) = 0.34974 0.14162
# Poissons Ratio (z) = 0.31748 0.31748
#
# Static dielectric constant tensor:
#      x y z
#    x 3.043150 0.000000 0.000000 
#    y 0.000000 3.043150 0.000000 
#    z 0.000000 0.000000 2.252900 
# 
# 
# High freq. dielectric constant tensor:
#      x y z
#    x 1.565480 0.000000 0.000000 
#    y 0.000000 1.565480 0.000000 
#    z 0.000000 0.000000 1.465860 
# 
# From -- ./inp_files/2049.got.cif
#   From: 2010.03.12/outbox.cif.g09.slc.cpg/sg83_2_cif.got.tgz:2049.got - 2010.04.08 20:05:18.
