data_PCOD8302341
_publ_section_title
;
Structure prediction by ZEFSAII (Michael W. Deem and Ramdas Pophale) SiO2 
 PCOD8302341
Probable space group: I -4 
;
_chemical_formula_sum "Si O2"
_cell_formula_units_Z 48
_cell_length_a 12.157122
_cell_length_b 12.157122
_cell_length_c 17.043453
_cell_angle_alpha 90.000000
_cell_angle_beta 90.000000
_cell_angle_gamma 90.000000
_cell_volume 2518.947623
_symmetry_space_group_name_H-M "I -4 "
_symmetry_group_IT_number 82
_symmetry_cell_setting 'tetragonal'
loop_
_space_group_symop_operation_xyz
x,y,z
y,-x,-z
-x,-y,z
-y,x,-z
1/2+x,1/2+y,1/2+z
1/2+y,1/2-x,1/2-z
1/2-x,1/2-y,1/2+z
1/2-y,1/2+x,1/2-z
loop_
_atom_site_type_symbol
_atom_site_label
_atom_site_fract_x
_atom_site_fract_y
_atom_site_fract_z
Si Si1 0.657829 0.574003 0.765699
Si Si2 0.022439 0.319621 0.623389
Si Si3 0.319625 0.977561 0.876617
Si Si4 0.500000 0.000000 0.499996
Si Si5 0.500000 0.000000 0.750000
Si Si6 0.500000 0.000000 0.250000
Si Si7 0.749999 0.749993 0.155599
Si Si8 0.842171 0.925998 0.765710
O O1 0.717669 0.556347 0.850632
O O2 0.735967 0.643169 0.709623
O O3 0.542799 0.637414 0.778049
O O4 0.637415 0.457199 0.721944
O O5 0.975713 0.390516 0.550946
O O6 0.035663 0.396270 0.698901
O O7 0.142955 0.271156 0.601558
O O8 0.271184 0.857035 0.898447
O O9 0.396264 0.964360 0.801100
O O10 0.217660 0.056335 0.850645
O O11 0.390517 0.024288 0.949061
O O12 0.735976 0.643174 0.209643
#
# Coordination Sequence:
#
# PCOD8302341 Si02
#       8
#     8   8   8   4   2   2   8   8
#     4   9  18  31  53  84 108 134 182 238 269 304
#     4  10  19  35  52  80 109 143 180 223 271 321
#     4  10  19  35  52  80 109 143 180 223 271 321
#     4  10  24  34  52  78 120 150 176 210 276 342
#     4  10  16  30  56  78 100 134 188 230 252 298
#     4  10  16  30  56  78 100 134 188 230 252 298
#     4  10  18  32  58  82 106 136 186 238 266 306
#     4   9  18  31  53  84 108 134 182 238 269 304
#
# _framework density 19.055577
#
# number of rings (size 3 to 8) (size 9 to 14) (size 15 to 20)
#    0.000    2.333    3.333    0.000    0.000    0.000 
#    0.000    5.000    0.000    0.000    0.000    0.000 
#    0.000    0.000    0.000    0.000    0.000    0.000 
#
# Total GULP energy -297438.695308 kJ/mol
# GULP energy per Si atom -12393.278971 kJ/mol
# Density = 1.901221 g / cm^3
# Si number density = 19.055577 Si / 1000 Ang^3
#
#
#
# Elastic Constant Matrix: (Units=GPa)
#
#
# Indices 1 2 3 4 5 6 
#
# 1 87.3067 30.6047 33.4139 0.0000 0.0000 -4.3737
# 2 30.6047 87.3067 33.4139 0.0000 0.0000 4.3737
# 3 33.4139 33.4139 74.6328 0.0000 0.0000 0.0000
# 4 0.0000 0.0000 0.0000 22.4236 0.0000 0.0000
# 5 0.0000 0.0000 0.0000 0.0000 22.4236 0.0000
# 6 -4.3737 4.3737 0.0000 0.0000 0.0000 33.9423
#
#
#
# Elastic Compliance Matrix: (Units=1/GPa)
#
#
# Indices 1 2 3 4 5 6 
#
# 1 0.014679 -0.003315 -0.005088 0.000000 0.000000 0.002319
# 2 -0.003315 0.014679 -0.005088 0.000000 0.000000 -0.002319
# 3 -0.005088 -0.005088 0.017955 0.000000 0.000000 0.000000
# 4 0.000000 0.000000 0.000000 0.044596 0.000000 0.000000
# 5 0.000000 0.000000 0.000000 0.000000 0.044596 0.000000
# 6 0.002319 -0.002319 0.000000 0.000000 0.000000 0.030059
#
#
# Mechanical properties :
#
#
# Convention : Reuss Voigt Hill
#
# Bulk Modulus (GPa) = 49.18374 49.34570 49.26472
# Shear Modulus (GPa) = 24.95968 25.87882 25.41925
#
# Velocity S-wave (km/s) = 3.62309 3.68920 3.65629
# Velocity P-wave (km/s) = 6.58552 6.64069 6.61317
#
# Compressibility (1/GPa) = 0.02033192
#
# Stress axis : x y z
#
# Youngs Moduli (GPa) = 68.12347 68.12347 55.69505
#
# Poissons Ratio (x) = 0.22580 0.28338
# Poissons Ratio (y) = 0.22580 0.28338
# Poissons Ratio (z) = 0.34662 0.34662
#
# Static dielectric constant tensor:
#      x y z
#    x 3.703230 0.000000 0.000000 
#    y 0.000000 3.703230 0.000000 
#    z 0.000000 0.000000 2.993130 
# 
# 
# High freq. dielectric constant tensor:
#      x y z
#    x 1.754990 0.000000 0.000000 
#    y 0.000000 1.754990 0.000000 
#    z 0.000000 0.000000 1.679600 
# 
# From -- ./inp_files/3107.got.cif
#   From: 2010.03.12/outbox.cif.g09.slc.cpg/sg82_2_cif.got.tgz:3107.got - 2010.04.08 20:02:50.
