data_PCOD8302229
_publ_section_title
;
Structure prediction by ZEFSAII (Michael W. Deem and Ramdas Pophale) SiO2 
 PCOD8302229
Probable space group: I 41
;
_chemical_formula_sum "Si O2"
_cell_formula_units_Z 56
_cell_length_a 15.085100
_cell_length_b 15.085100
_cell_length_c 12.298844
_cell_angle_alpha 90.000000
_cell_angle_beta 90.000000
_cell_angle_gamma 90.000000
_cell_volume 2798.727917
_symmetry_space_group_name_H-M "I 41"
_symmetry_group_IT_number 80
_symmetry_cell_setting 'tetragonal'
loop_
_space_group_symop_operation_xyz
x,y,z
-y,1/2+x,1/4+z
-x,-y,z
y,1/2-x,1/4+z
1/2+x,1/2+y,1/2+z
1/2-y,x,3/4+z
1/2-x,1/2-y,1/2+z
1/2+y,-x,3/4+z
loop_
_atom_site_type_symbol
_atom_site_label
_atom_site_fract_x
_atom_site_fract_y
_atom_site_fract_z
Si Si1 0.000000 0.000000 0.753011
Si Si2 0.618476 0.272213 0.960145
Si Si3 0.840852 0.952243 0.457585
Si Si4 0.726460 0.388460 0.103940
Si Si5 0.160050 0.916247 0.839229
Si Si6 0.500000 0.000000 0.048882
Si Si7 0.166271 0.580729 0.473596
Si Si8 0.165841 0.456608 0.851234
O O1 0.009046 0.087936 0.679680
O O2 0.913526 0.006041 0.831298
O O3 0.599225 0.323495 0.850710
O O4 0.706225 0.304596 0.024922
O O5 0.631472 0.171556 0.921418
O O6 0.539287 0.289092 0.042566
O O7 0.749989 0.911722 0.409743
O O8 0.886167 0.870092 0.516530
O O9 0.811081 0.025519 0.543817
O O10 0.911059 0.992534 0.371708
O O11 0.829642 0.387794 0.138281
O O12 0.679179 0.384878 0.218049
O O13 0.244753 0.950284 0.909726
O O14 0.413186 0.991924 0.970064
#
# Coordination Sequence:
#
# PCOD8302229 Si02
#       8
#     4   8   8   8   8   4   8   8
#     4  12  23  42  69  98 140 180 231 286 347 426
#     4  12  20  38  67  99 132 169 224 296 350 411
#     4  12  22  41  72 101 128 173 238 295 346 410
#     4  12  20  38  67  99 132 169 224 296 350 411
#     4  12  25  39  62 101 141 179 224 286 360 422
#     4  12  23  42  69  98 140 180 231 286 347 426
#     4  12  25  39  62 101 141 179 224 286 360 422
#     4  12  22  41  72 101 128 173 238 295 346 410
#
# _framework density 20.009091000000002
#
# number of rings (size 3 to 8) (size 9 to 14) (size 15 to 20)
#    0.000    0.000    8.571    3.857    0.000    0.000 
#    0.000    4.286    0.000    0.000    0.000    0.000 
#    0.000    0.000    0.000    0.000    0.000    0.000 
#
# Total GULP energy -347047.890715 kJ/mol
# GULP energy per Si atom -12394.567526 kJ/mol
# Density = 1.996355 g / cm^3
# Si number density = 20.009091 Si / 1000 Ang^3
#
#
#
# Elastic Constant Matrix: (Units=GPa)
#
#
# Indices 1 2 3 4 5 6 
#
# 1 90.3014 40.7639 34.1046 0.0000 0.0000 5.0365
# 2 40.7639 90.3014 34.1046 0.0000 0.0000 -5.0365
# 3 34.1046 34.1046 59.7022 0.0000 0.0000 0.0000
# 4 0.0000 0.0000 0.0000 31.2059 0.0000 0.0000
# 5 0.0000 0.0000 0.0000 0.0000 31.2059 0.0000
# 6 5.0365 -5.0365 0.0000 0.0000 0.0000 34.6013
#
#
#
# Elastic Compliance Matrix: (Units=1/GPa)
#
#
# Indices 1 2 3 4 5 6 
#
# 1 0.015830 -0.004972 -0.006202 0.000000 0.000000 -0.003028
# 2 -0.004972 0.015830 -0.006202 0.000000 0.000000 0.003028
# 3 -0.006202 -0.006202 0.023836 0.000000 0.000000 0.000000
# 4 0.000000 0.000000 0.000000 0.032045 0.000000 0.000000
# 5 0.000000 0.000000 0.000000 0.000000 0.032045 0.000000
# 6 -0.003028 0.003028 0.000000 0.000000 0.000000 0.029782
#
#
# Mechanical properties :
#
#
# Convention : Reuss Voigt Hill
#
# Bulk Modulus (GPa) = 48.21197 50.91678 49.56438
# Shear Modulus (GPa) = 26.17297 28.15809 27.16553
#
# Velocity S-wave (km/s) = 3.62063 3.75542 3.68864
# Velocity P-wave (km/s) = 6.45182 6.65630 6.55486
#
# Compressibility (1/GPa) = 0.02074174
#
# Stress axis : x y z
#
# Youngs Moduli (GPa) = 63.17106 63.17106 41.95339
#
# Poissons Ratio (x) = 0.31411 0.26021
# Poissons Ratio (y) = 0.31411 0.26021
# Poissons Ratio (z) = 0.39181 0.39181
#
# Static dielectric constant tensor:
#      x y z
#    x 3.821810 0.000000 0.000000 
#    y 0.000000 3.821810 0.000000 
#    z 0.000000 0.000000 3.703480 
# 
# 
# High freq. dielectric constant tensor:
#      x y z
#    x 1.775350 0.000000 0.000000 
#    y 0.000000 1.775350 0.000000 
#    z 0.000000 0.000000 1.776020 
# 
# From -- ./inp_files/1068.got.cif
#   From: 2010.03.12/outbox.cif.g09.slc.cpg/sg80_cif.got.tgz:1068.got - 2010.04.08 20:00:04.
