data_PCOD8302428
_publ_section_title
;
Structure prediction by ZEFSAII (Michael W. Deem and Ramdas Pophale) SiO2 
 PCOD8302428
Probable space group: I -4 
;
_chemical_formula_sum "Si O2"
_cell_formula_units_Z 36
_cell_length_a 12.333298
_cell_length_b 12.333298
_cell_length_c 9.163413
_cell_angle_alpha 90.000000
_cell_angle_beta 90.000000
_cell_angle_gamma 90.000000
_cell_volume 1393.848947
_symmetry_space_group_name_H-M "I -4 "
_symmetry_group_IT_number 82
_symmetry_cell_setting 'tetragonal'
loop_
_space_group_symop_operation_xyz
x,y,z
y,-x,-z
-x,-y,z
-y,x,-z
1/2+x,1/2+y,1/2+z
1/2+y,1/2-x,1/2-z
1/2-x,1/2-y,1/2+z
1/2-y,1/2+x,1/2-z
loop_
_atom_site_type_symbol
_atom_site_label
_atom_site_fract_x
_atom_site_fract_y
_atom_site_fract_z
Si Si1 0.191746 0.756246 0.197544
Si Si2 0.500000 0.000000 0.250000
Si Si3 0.353287 0.423432 0.550778
Si Si4 0.265991 0.970554 0.315233
Si Si5 0.500000 0.000000 0.750000
Si Si6 0.729484 0.024886 0.638828
O O1 0.273286 0.849484 0.248442
O O2 0.253138 0.640919 0.220978
O O3 0.080295 0.776862 0.284485
O O4 0.159016 0.767706 0.025955
O O5 0.611745 0.985769 0.338793
O O6 0.365093 0.529499 0.444699
O O7 0.309776 0.456148 0.710494
O O8 0.217637 0.972008 0.478070
O O9 0.598740 0.019996 0.639436
#
# Coordination Sequence:
#
# PCOD8302428 Si02
#       6
#     8   2   8   8   2   8
#     4  10  23  40  63  92 129 167 205 264 330 380
#     4  12  26  40  60  90 122 152 212 270 306 376
#     4   9  20  41  65  90 124 166 209 258 320 385
#     4  11  24  41  65  93 123 169 218 265 320 388
#     4   8  18  40  64  86 130 172 208 266 330 376
#     4  10  21  39  62  92 124 164 211 258 316 390
#
# _framework density 25.827760999999999
#
# number of rings (size 3 to 8) (size 9 to 14) (size 15 to 20)
#    0.000    2.000    0.000    2.000    0.000   12.444 
#    0.000    0.000    0.000    0.000    0.000    0.000 
#    0.000    0.000    0.000    0.000    0.000    0.000 
#
# Total GULP energy -223067.454236 kJ/mol
# GULP energy per Si atom -12392.636346 kJ/mol
# Density = 2.576898 g / cm^3
# Si number density = 25.827761 Si / 1000 Ang^3
#
#
#
# Elastic Constant Matrix: (Units=GPa)
#
#
# Indices 1 2 3 4 5 6 
#
# 1 88.1512 18.3899 15.4772 0.0000 0.0000 9.1979
# 2 18.3899 88.1512 15.4772 0.0000 0.0000 -9.1979
# 3 15.4772 15.4772 130.8381 0.0000 0.0000 0.0000
# 4 0.0000 0.0000 0.0000 26.0063 0.0000 0.0000
# 5 0.0000 0.0000 0.0000 0.0000 26.0063 0.0000
# 6 9.1979 -9.1979 0.0000 0.0000 0.0000 36.2167
#
#
#
# Elastic Compliance Matrix: (Units=1/GPa)
#
#
# Indices 1 2 3 4 5 6 
#
# 1 0.012542 -0.002822 -0.001150 0.000000 0.000000 -0.003902
# 2 -0.002822 0.012542 -0.001150 0.000000 0.000000 0.003902
# 3 -0.001150 -0.001150 0.007915 0.000000 0.000000 0.000000
# 4 0.000000 0.000000 0.000000 0.038452 0.000000 0.000000
# 5 0.000000 0.000000 0.000000 0.000000 0.038452 0.000000
# 6 -0.003902 0.003902 0.000000 0.000000 0.000000 0.029593
#
#
# Mechanical properties :
#
#
# Convention : Reuss Voigt Hill
#
# Bulk Modulus (GPa) = 43.94439 45.09210 44.51825
# Shear Modulus (GPa) = 31.78143 34.83227 33.30685
#
# Velocity S-wave (km/s) = 3.51167 3.67636 3.59496
# Velocity P-wave (km/s) = 5.78738 5.95966 5.87415
#
# Compressibility (1/GPa) = 0.02275603
#
# Stress axis : x y z
#
# Youngs Moduli (GPa) = 79.73334 79.73334 126.34133
#
# Poissons Ratio (x) = 0.22498 0.14527
# Poissons Ratio (y) = 0.22498 0.14527
# Poissons Ratio (z) = 0.09168 0.09168
#
# Static dielectric constant tensor:
#      x y z
#    x 4.641520 0.000000 0.000000 
#    y 0.000000 4.641520 0.000000 
#    z 0.000000 0.000000 4.206510 
# 
# 
# High freq. dielectric constant tensor:
#      x y z
#    x 2.035250 0.000000 0.000000 
#    y 0.000000 2.035250 0.000000 
#    z 0.000000 0.000000 2.017000 
# 
# From -- ./inp_files/871.got.cif
#   From: 2010.03.12/outbox.cif.g09.slc.cpg/sg82_1_cif.got.tgz:871.got - 2010.04.08 20:02:50.
