data_PCOD8302788
_publ_section_title
;
Structure prediction by ZEFSAII (Michael W. Deem and Ramdas Pophale) SiO2 
 PCOD8302788
Probable space group: P 4/M
;
_chemical_formula_sum "Si O2"
_cell_formula_units_Z 52
_cell_length_a 16.835116
_cell_length_b 16.835116
_cell_length_c 9.615369
_cell_angle_alpha 90.000000
_cell_angle_beta 90.000000
_cell_angle_gamma 90.000000
_cell_volume 2725.198754
_symmetry_space_group_name_H-M "P 4/M"
_symmetry_group_IT_number 83
_symmetry_cell_setting 'tetragonal'
loop_
_space_group_symop_operation_xyz
x,y,z
-y,x,z
-x,-y,z
y,-x,z
-x,-y,-z
y,-x,-z
x,y,-z
-y,x,-z
loop_
_atom_site_type_symbol
_atom_site_label
_atom_site_fract_x
_atom_site_fract_y
_atom_site_fract_z
Si Si1 0.081571 0.381597 0.333185
Si Si2 0.909420 0.797884 0.649837
Si Si3 0.869864 0.002096 0.000000
Si Si4 0.931126 0.199364 0.746826
Si Si5 0.193682 0.491253 0.161012
Si Si6 0.500866 0.625444 0.164840
Si Si7 0.926953 0.369715 0.838420
O O1 0.072743 0.395973 0.500000
O O2 0.104449 0.291169 0.296498
O O3 0.152835 0.431051 0.267354
O O4 0.999658 0.404367 0.253663
O O5 0.868082 0.809458 0.500000
O O6 0.865388 0.861665 0.747886
O O7 0.005011 0.809526 0.622403
O O8 0.814103 0.997441 0.867048
O O9 0.920660 0.921893 0.000000
O O10 0.896386 0.286974 0.771111
O O11 0.283678 0.501679 0.216493
O O12 0.149351 0.574852 0.173667
O O13 0.190705 0.461009 0.000000
O O14 0.421725 0.579337 0.218792
O O15 0.502023 0.624871 0.000000
O O16 0.953482 0.361393 0.000000
#
# Coordination Sequence:
#
# PCOD8302788 Si02
#       7
#     8   8   4   8   8   8   8
#     4  10  22  39  56  76 106 146 187 225 273 324
#     4  10  22  37  53  74 104 143 185 227 269 322
#     4  11  20  32  50  76 105 139 189 226 269 327
#     4  11  20  35  53  75 107 144 181 225 275 322
#     4  10  20  35  56  85 111 135 177 224 268 324
#     4   8  15  30  54  82 113 143 170 209 264 325
#     4  10  21  35  55  80 110 144 181 226 275 325
#
# _framework density 19.081175999999999
#
# number of rings (size 3 to 8) (size 9 to 14) (size 15 to 20)
#    0.000    2.077    2.308    1.846    0.000    4.615 
#    1.385    2.308    0.000    0.923    0.000    1.077 
#    0.000    0.000    0.000    0.000    0.000    0.000 
#
# Total GULP energy -644249.353818 kJ/mol
# GULP energy per Si atom -12389.410650 kJ/mol
# Density = 1.903775 g / cm^3
# Si number density = 19.081176 Si / 1000 Ang^3
#
#
#
# Elastic Constant Matrix: (Units=GPa)
#
#
# Indices 1 2 3 4 5 6 
#
# 1 126.2305 68.3864 33.9864 0.0000 0.0000 0.9602
# 2 68.3864 126.2305 33.9864 0.0000 0.0000 -0.9602
# 3 33.9864 33.9864 73.7360 0.0000 0.0000 0.0000
# 4 0.0000 0.0000 0.0000 8.7565 0.0000 0.0000
# 5 0.0000 0.0000 0.0000 0.0000 8.7565 0.0000
# 6 0.9602 -0.9602 0.0000 0.0000 0.0000 24.5081
#
#
#
# Elastic Compliance Matrix: (Units=1/GPa)
#
#
# Indices 1 2 3 4 5 6 
#
# 1 0.011717 -0.005593 -0.002823 0.000000 0.000000 -0.000678
# 2 -0.005593 0.011717 -0.002823 0.000000 0.000000 0.000678
# 3 -0.002823 -0.002823 0.016164 0.000000 0.000000 0.000000
# 4 0.000000 0.000000 0.000000 0.114201 0.000000 0.000000
# 5 0.000000 0.000000 0.000000 0.000000 0.114201 0.000000
# 6 -0.000678 0.000678 0.000000 0.000000 0.000000 0.040856
#
#
# Mechanical properties :
#
#
# Convention : Reuss Voigt Hill
#
# Bulk Modulus (GPa) = 58.40658 66.54616 62.47637
# Shear Modulus (GPa) = 14.83495 21.06005 17.94750
#
# Velocity S-wave (km/s) = 2.79133 3.32581 3.07023
# Velocity P-wave (km/s) = 6.40817 7.04976 6.73661
#
# Compressibility (1/GPa) = 0.01712136
#
# Stress axis : x y z
#
# Youngs Moduli (GPa) = 85.34402 85.34402 61.86577
#
# Poissons Ratio (x) = 0.47734 0.17463
# Poissons Ratio (y) = 0.47734 0.17463
# Poissons Ratio (z) = 0.24091 0.24091
#
# Static dielectric constant tensor:
#      x y z
#    x 3.467860 0.000000 0.000000 
#    y 0.000000 3.467860 0.000000 
#    z 0.000000 0.000000 3.442870 
# 
# 
# High freq. dielectric constant tensor:
#      x y z
#    x 1.739000 0.000000 0.000000 
#    y 0.000000 1.739000 0.000000 
#    z 0.000000 0.000000 1.731870 
# 
# From -- ./inp_files/1012.got.cif
#   From: 2010.03.12/outbox.cif.g09.slc.cpg/sg83_1_cif.got.tgz:1012.got - 2010.04.08 20:05:18.
