data_PCOD8302678
_publ_section_title
;
Structure prediction by ZEFSAII (Michael W. Deem and Ramdas Pophale) SiO2 
 PCOD8302678
Probable space group: P 4/M
;
_chemical_formula_sum "Si O2"
_cell_formula_units_Z 64
_cell_length_a 19.900030
_cell_length_b 19.900030
_cell_length_c 9.258607
_cell_angle_alpha 90.000000
_cell_angle_beta 90.000000
_cell_angle_gamma 90.000000
_cell_volume 3666.512013
_symmetry_space_group_name_H-M "P 4/M"
_symmetry_group_IT_number 83
_symmetry_cell_setting 'tetragonal'
loop_
_space_group_symop_operation_xyz
x,y,z
-y,x,z
-x,-y,z
y,-x,z
-x,-y,-z
y,-x,-z
x,y,-z
-y,x,-z
loop_
_atom_site_type_symbol
_atom_site_label
_atom_site_fract_x
_atom_site_fract_y
_atom_site_fract_z
Si Si1 0.932252 0.359312 0.672707
Si Si2 0.227788 0.459737 0.662533
Si Si3 0.423152 0.424089 0.163496
Si Si4 0.493724 0.104287 0.166618
Si Si5 0.206705 0.697830 0.329621
Si Si6 0.936740 0.642409 0.167891
Si Si7 0.804907 0.687052 0.667378
Si Si8 0.304698 0.586972 0.663488
O O1 0.940224 0.362748 0.500000
O O2 0.921391 0.434559 0.731089
O O3 0.871119 0.308802 0.718698
O O4 0.998697 0.328644 0.746913
O O5 0.198539 0.472714 0.500000
O O6 0.178123 0.484777 0.785914
O O7 0.241664 0.380159 0.682613
O O8 0.293572 0.506456 0.683889
O O9 0.500269 0.407302 0.200156
O O10 0.383727 0.371164 0.260323
O O11 0.405688 0.407746 0.000000
O O12 0.561287 0.059730 0.184255
O O13 0.469595 0.104432 0.000000
O O14 0.210356 0.702165 0.500000
O O15 0.248362 0.762954 0.271608
O O16 0.241304 0.628687 0.275355
O O17 0.871524 0.676955 0.238105
O O18 0.939243 0.663081 0.000000
O O19 0.825560 0.697536 0.500000
O O20 0.316548 0.606817 0.500000
#
# Coordination Sequence:
#
# PCOD8302678 Si02
#       8
#     8   8   8   8   8   8   8   8
#     4  11  20  33  52  74 101 135 171 207 251 303
#     4   9  17  30  48  68  93 125 163 200 243 298
#     4   9  20  37  49  59  82 116 157 208 263 317
#     4  10  19  31  47  69 100 132 163 205 249 288
#     4   9  19  34  51  73 103 130 162 208 252 295
#     4  10  21  35  50  73 103 132 168 213 251 293
#     4   9  18  34  54  72  95 133 169 201 248 301
#     4  10  19  31  49  72  94 118 156 209 254 296
#
# _framework density 17.455282
#
# number of rings (size 3 to 8) (size 9 to 14) (size 15 to 20)
#    0.000    2.375    1.250    1.875    1.750    4.000 
#    0.000    2.500    0.000    0.000    0.000    0.000 
#    0.000    0.500    0.000    5.750    0.000    2.250 
#
# Total GULP energy -792906.626569 kJ/mol
# GULP energy per Si atom -12389.166040 kJ/mol
# Density = 1.741555 g / cm^3
# Si number density = 17.455282 Si / 1000 Ang^3
#
#
#
# Elastic Constant Matrix: (Units=GPa)
#
#
# Indices 1 2 3 4 5 6 
#
# 1 74.6295 29.2353 37.1857 0.0000 0.0000 2.2571
# 2 29.2353 74.6295 37.1857 0.0000 0.0000 -2.2571
# 3 37.1857 37.1857 73.3312 0.0000 0.0000 0.0000
# 4 0.0000 0.0000 0.0000 15.1827 0.0000 0.0000
# 5 0.0000 0.0000 0.0000 0.0000 15.1827 0.0000
# 6 2.2571 -2.2571 0.0000 0.0000 0.0000 16.2062
#
#
#
# Elastic Compliance Matrix: (Units=1/GPa)
#
#
# Indices 1 2 3 4 5 6 
#
# 1 0.018728 -0.003611 -0.007666 0.000000 0.000000 -0.003111
# 2 -0.003611 0.018728 -0.007666 0.000000 0.000000 0.003111
# 3 -0.007666 -0.007666 0.021411 0.000000 0.000000 0.000000
# 4 0.000000 0.000000 0.000000 0.065864 0.000000 0.000000
# 5 0.000000 0.000000 0.000000 0.000000 0.065864 0.000000
# 6 -0.003111 0.003111 0.000000 0.000000 0.000000 0.062571
#
#
# Mechanical properties :
#
#
# Convention : Reuss Voigt Hill
#
# Bulk Modulus (GPa) = 47.65936 47.75597 47.70766
# Shear Modulus (GPa) = 16.77598 17.24655 17.01126
#
# Velocity S-wave (km/s) = 3.10350 3.14672 3.12519
# Velocity P-wave (km/s) = 6.34076 6.37345 6.35713
#
# Compressibility (1/GPa) = 0.02098224
#
# Stress axis : x y z
#
# Youngs Moduli (GPa) = 53.39683 53.39683 46.70471
#
# Poissons Ratio (x) = 0.19281 0.35802
# Poissons Ratio (y) = 0.19281 0.35802
# Poissons Ratio (z) = 0.40932 0.40932
#
# Static dielectric constant tensor:
#      x y z
#    x 3.146740 0.000000 0.000000 
#    y 0.000000 3.146740 0.000000 
#    z 0.000000 0.000000 3.171060 
# 
# 
# High freq. dielectric constant tensor:
#      x y z
#    x 1.652190 0.000000 0.000000 
#    y 0.000000 1.652190 0.000000 
#    z 0.000000 0.000000 1.669360 
# 
# From -- ./inp_files/1322.got.cif
#   From: 2010.03.12/outbox.cif.g09.slc.cpg/sg83_1_cif.got.tgz:1322.got - 2010.04.08 20:05:18.
