data_PCOD8302108
_publ_section_title
;
Structure prediction by ZEFSAII (Michael W. Deem and Ramdas Pophale) SiO2 
 PCOD8302108
Probable space group: I 4
;
_chemical_formula_sum "Si O2"
_cell_formula_units_Z 60
_cell_length_a 11.569362
_cell_length_b 11.569362
_cell_length_c 21.288728
_cell_angle_alpha 90.000000
_cell_angle_beta 90.000000
_cell_angle_gamma 90.000000
_cell_volume 2849.499161
_symmetry_space_group_name_H-M "I 4"
_symmetry_group_IT_number 79
_symmetry_cell_setting 'tetragonal'
loop_
_space_group_symop_operation_xyz
x,y,z
-y,x,z
-x,-y,z
y,-x,z
1/2+x,1/2+y,1/2+z
1/2-y,1/2+x,1/2+z
1/2-x,1/2-y,1/2+z
1/2+y,1/2-x,1/2+z
loop_
_atom_site_type_symbol
_atom_site_label
_atom_site_fract_x
_atom_site_fract_y
_atom_site_fract_z
Si Si1 0.677960 0.169762 0.514250
Si Si2 0.672922 0.955955 0.892644
Si Si3 0.126796 0.857782 0.427247
Si Si4 0.403935 0.666154 0.620405
Si Si5 0.320371 0.855299 0.717388
Si Si6 0.804020 0.754157 0.849039
Si Si7 0.000000 0.500000 0.791788
Si Si8 0.038306 0.188000 0.610226
O O1 0.582333 0.129980 0.462295
O O2 0.797282 0.209009 0.479880
O O3 0.628799 0.277109 0.553778
O O4 0.710993 0.061537 0.559197
O O5 0.787288 0.882876 0.875726
O O6 0.699080 0.090759 0.888160
O O7 0.579630 0.923905 0.838689
O O8 0.171076 0.807485 0.360923
O O9 0.991785 0.838989 0.434979
O O10 0.343573 0.541853 0.625387
O O11 0.355310 0.744514 0.676599
O O12 0.237312 0.819882 0.774584
O O13 0.247284 0.949154 0.678066
O O14 0.434055 0.912719 0.746266
O O15 0.911432 0.135748 0.601924
#
# Coordination Sequence:
#
# PCOD8302108 Si02
#       8
#     8   8   8   8   8   8   4   8
#     4  10  22  40  66  94 130 173 212 275 333 392
#     4  10  24  42  65  98 134 177 221 272 338 402
#     4  10  22  40  65  95 129 171 222 279 334 394
#     4  10  24  43  65  95 130 176 224 275 321 397
#     4  10  24  41  68  92 133 174 221 278 336 399
#     4  10  24  40  66  98 132 177 219 277 330 409
#     4  10  24  44  64  96 140 172 212 288 332 398
#     4  10  22  42  68  99 130 174 226 282 326 392
#
# _framework density 21.056331
#
# number of rings (size 3 to 8) (size 9 to 14) (size 15 to 20)
#    0.000    2.000    0.000    0.800   16.800    2.400 
#    0.000    4.000    0.000    0.000    0.000    0.000 
#    0.000    0.000    0.000    0.000    0.000    0.000 
#
# Total GULP energy -371858.455829 kJ/mol
# GULP energy per Si atom -12395.281861 kJ/mol
# Density = 2.100841 g / cm^3
# Si number density = 21.056331 Si / 1000 Ang^3
#
#
#
# Elastic Constant Matrix: (Units=GPa)
#
#
# Indices 1 2 3 4 5 6 
#
# 1 85.9819 46.5860 44.3307 0.0000 0.0000 -1.6420
# 2 46.5860 85.9819 44.3307 0.0000 0.0000 1.6420
# 3 44.3307 44.3307 143.7088 0.0000 0.0000 0.0000
# 4 0.0000 0.0000 0.0000 35.0072 0.0000 0.0000
# 5 0.0000 0.0000 0.0000 0.0000 35.0072 0.0000
# 6 -1.6420 1.6420 0.0000 0.0000 0.0000 31.5366
#
#
#
# Elastic Compliance Matrix: (Units=1/GPa)
#
#
# Indices 1 2 3 4 5 6 
#
# 1 0.017499 -0.007995 -0.002932 0.000000 0.000000 0.001327
# 2 -0.007995 0.017499 -0.002932 0.000000 0.000000 -0.001327
# 3 -0.002932 -0.002932 0.008767 0.000000 0.000000 0.000000
# 4 0.000000 0.000000 0.000000 0.028566 0.000000 0.000000
# 5 0.000000 0.000000 0.000000 0.000000 0.028566 0.000000
# 6 0.001327 -0.001327 0.000000 0.000000 0.000000 0.031847
#
#
# Mechanical properties :
#
#
# Convention : Reuss Voigt Hill
#
# Bulk Modulus (GPa) = 62.31182 65.12973 63.72077
# Shear Modulus (GPa) = 30.15490 32.33853 31.24672
#
# Velocity S-wave (km/s) = 3.78842 3.92319 3.85640
# Velocity P-wave (km/s) = 6.98522 7.17776 7.08215
#
# Compressibility (1/GPa) = 0.01604832
#
# Stress axis : x y z
#
# Youngs Moduli (GPa) = 57.14590 57.14590 114.06044
#
# Poissons Ratio (x) = 0.45688 0.33440
# Poissons Ratio (y) = 0.45688 0.33440
# Poissons Ratio (z) = 0.16754 0.16754
#
# Static dielectric constant tensor:
#      x y z
#    x 3.805430 0.000000 0.000000 
#    y 0.000000 3.805430 0.000000 
#    z 0.000000 0.000000 4.040900 
# 
# 
# High freq. dielectric constant tensor:
#      x y z
#    x 1.820730 0.000000 0.000000 
#    y 0.000000 1.820730 0.000000 
#    z 0.000000 0.000000 1.838930 
# 
# From -- ./inp_files/1887.got.cif
#   From: 2010.03.12/outbox.cif.g09.slc.cpg/sg79_cif.got.tgz:1887.got - 2010.04.16 16:38:49.
