data_PCOD8302786
_publ_section_title
;
Structure prediction by ZEFSAII (Michael W. Deem and Ramdas Pophale) SiO2 
 PCOD8302786
Probable space group: P 4/M
;
_chemical_formula_sum "Si O2"
_cell_formula_units_Z 40
_cell_length_a 15.574502
_cell_length_b 15.574502
_cell_length_c 9.036424
_cell_angle_alpha 90.000000
_cell_angle_beta 90.000000
_cell_angle_gamma 90.000000
_cell_volume 2191.921205
_symmetry_space_group_name_H-M "P 4/M"
_symmetry_group_IT_number 83
_symmetry_cell_setting 'tetragonal'
loop_
_space_group_symop_operation_xyz
x,y,z
-y,x,z
-x,-y,z
y,-x,z
-x,-y,-z
y,-x,-z
x,y,-z
-y,x,-z
loop_
_atom_site_type_symbol
_atom_site_label
_atom_site_fract_x
_atom_site_fract_y
_atom_site_fract_z
Si Si1 0.420099 0.054811 0.172512
Si Si2 0.380791 0.572578 0.170292
Si Si3 0.782611 0.361961 0.670580
Si Si4 0.152577 0.827137 0.673171
Si Si5 0.012656 0.232877 0.174281
O O1 0.421247 0.147447 0.248951
O O2 0.500000 0.000000 0.234748
O O3 0.332736 0.004213 0.208385
O O4 0.431171 0.072017 0.000000
O O5 0.384037 0.471773 0.206196
O O6 0.311815 0.618098 0.272510
O O7 0.356046 0.587359 0.000000
O O8 0.788274 0.384991 0.500000
O O9 0.800263 0.262453 0.701449
O O10 0.142006 0.847962 0.500000
O O11 0.211182 0.896985 0.752759
O O12 0.059333 0.826243 0.749280
O O13 0.013877 0.213610 0.000000
#
# Coordination Sequence:
#
# PCOD8302786 Si02
#       5
#     8   8   8   8   8
#     4   9  19  36  56  78 105 138 176 217 260 306
#     4   9  19  36  56  77 103 138 179 220 261 306
#     4  10  21  35  53  79 109 140 173 212 260 313
#     4  10  21  37  54  75 107 141 171 208 260 315
#     4  10  20  35  56  80 104 133 175 220 257 301
#
# _framework density 18.248830999999999
#
# number of rings (size 3 to 8) (size 9 to 14) (size 15 to 20)
#    0.000    2.400    0.000    2.400    0.000    6.400 
#    0.000    9.000    0.000    0.000    0.000    0.000 
#    0.000    0.000    0.000    0.000    0.000    0.000 
#
# Total GULP energy -496151.927879 kJ/mol
# GULP energy per Si atom -12403.798197 kJ/mol
# Density = 1.820730 g / cm^3
# Si number density = 18.248831 Si / 1000 Ang^3
#
#
#
# Elastic Constant Matrix: (Units=GPa)
#
#
# Indices 1 2 3 4 5 6 
#
# 1 86.5562 44.0066 49.0888 0.0000 0.0000 -12.5995
# 2 44.0066 86.5562 49.0888 0.0000 0.0000 12.5995
# 3 49.0888 49.0888 82.1417 0.0000 0.0000 0.0000
# 4 0.0000 0.0000 0.0000 30.3495 0.0000 0.0000
# 5 0.0000 0.0000 0.0000 0.0000 30.3495 0.0000
# 6 -12.5995 12.5995 0.0000 0.0000 0.0000 31.1202
#
#
#
# Elastic Compliance Matrix: (Units=1/GPa)
#
#
# Indices 1 2 3 4 5 6 
#
# 1 0.022412 -0.008502 -0.008313 0.000000 0.000000 0.012516
# 2 -0.008502 0.022412 -0.008313 0.000000 0.000000 -0.012516
# 3 -0.008313 -0.008313 0.022110 0.000000 0.000000 0.000000
# 4 0.000000 0.000000 0.000000 0.032949 0.000000 0.000000
# 5 0.000000 0.000000 0.000000 0.000000 0.032949 0.000000
# 6 0.012516 -0.012516 0.000000 0.000000 0.000000 0.042268
#
#
# Mechanical properties :
#
#
# Convention : Reuss Voigt Hill
#
# Bulk Modulus (GPa) = 59.95704 59.95805 59.95754
# Shear Modulus (GPa) = 21.65292 25.90187 23.77739
#
# Velocity S-wave (km/s) = 3.44835 3.77154 3.61356
# Velocity P-wave (km/s) = 6.98437 7.20369 7.09488
#
# Compressibility (1/GPa) = 0.01667861
#
# Stress axis : x y z
#
# Youngs Moduli (GPa) = 44.61865 44.61865 45.22911
#
# Poissons Ratio (x) = 0.37936 0.37598
# Poissons Ratio (y) = 0.37936 0.37598
# Poissons Ratio (z) = 0.37090 0.37090
#
# Static dielectric constant tensor:
#      x y z
#    x 3.352770 0.000000 0.000000 
#    y 0.000000 3.352770 0.000000 
#    z 0.000000 0.000000 3.408980 
# 
# 
# High freq. dielectric constant tensor:
#      x y z
#    x 1.708490 0.000000 0.000000 
#    y 0.000000 1.708490 0.000000 
#    z 0.000000 0.000000 1.714550 
# 
# From -- ./inp_files/620.got.cif
#   From: 2010.03.12/outbox.cif.g09.slc.cpg/sg83_1_cif.got.tgz:620.got - 2010.04.08 20:05:18.
