data_PCOD8302253
_publ_section_title
;
Structure prediction by ZEFSAII (Michael W. Deem and Ramdas Pophale) SiO2 
 PCOD8302253
Probable space group: P -4
;
_chemical_formula_sum "Si O2"
_cell_formula_units_Z 25
_cell_length_a 11.612067
_cell_length_b 11.612067
_cell_length_c 12.045259
_cell_angle_alpha 90.000000
_cell_angle_beta 90.000000
_cell_angle_gamma 90.000000
_cell_volume 1624.183928
_symmetry_space_group_name_H-M "P -4"
_symmetry_group_IT_number 81
_symmetry_cell_setting 'tetragonal'
loop_
_space_group_symop_operation_xyz
x,y,z
y,-x,-z
-x,-y,z
-y,x,-z
loop_
_atom_site_type_symbol
_atom_site_label
_atom_site_fract_x
_atom_site_fract_y
_atom_site_fract_z
Si Si1 0.992418 0.195419 0.112482
Si Si2 0.994810 0.821860 0.872405
Si Si3 0.820093 0.628132 0.502334
Si Si4 0.994438 0.239721 0.629619
Si Si5 0.359017 0.185970 0.511319
Si Si6 0.368620 0.995395 0.689922
Si Si7 0.000000 0.000000 0.500000
O O1 0.017701 0.293642 0.200812
O O2 0.870783 0.135154 0.138051
O O3 0.082617 0.092710 0.119314
O O4 0.996376 0.250617 0.987875
O O5 0.016472 0.750000 0.761853
O O6 0.695172 0.686639 0.516370
O O7 0.803543 0.492627 0.518071
O O8 0.883303 0.655276 0.385735
O O9 0.900258 0.677918 0.598661
O O10 0.875512 0.291341 0.587291
O O11 0.012698 0.110312 0.580990
O O12 0.337871 0.112276 0.623381
O O13 0.500000 0.000000 0.728442
#
# Coordination Sequence:
#
# PCOD8302253 Si02
#       7
#     4   4   4   4   4   4   1
#     4   9  16  29  41  65  91 123 147 179 216 265
#     4   9  18  25  44  66  94 117 147 180 220 267
#     4  10  20  32  47  67  92 121 152 193 232 272
#     4  11  19  30  44  76  96 119 151 187 226 275
#     4  10  20  32  47  67  92 121 152 193 232 272
#     4   9  18  31  48  66  87 116 154 190 223 267
#     4  12  20  24  52  74  92 132 148 176 226 280
#
# _framework density 15.392344
#
# number of rings (size 3 to 8) (size 9 to 14) (size 15 to 20)
#    0.000    2.240    1.600    5.280    4.480    0.320 
#    0.000    1.600    0.000    0.000    0.000    0.000 
#    0.000    0.000    0.000   16.960    0.000    0.000 
#
# Total GULP energy -309832.058293 kJ/mol
# GULP energy per Si atom -12393.282332 kJ/mol
# Density = 1.535731 g / cm^3
# Si number density = 15.392344 Si / 1000 Ang^3
#
#
#
# Elastic Constant Matrix: (Units=GPa)
#
#
# Indices 1 2 3 4 5 6 
#
# 1 72.7826 22.4132 28.6180 0.0000 0.0000 -0.8041
# 2 22.4132 72.7826 28.6180 0.0000 0.0000 0.8041
# 3 28.6180 28.6180 124.3489 0.0000 0.0000 0.0000
# 4 0.0000 0.0000 0.0000 10.0117 0.0000 0.0000
# 5 0.0000 0.0000 0.0000 0.0000 10.0117 0.0000
# 6 -0.8041 0.8041 0.0000 0.0000 0.0000 21.0814
#
#
#
# Elastic Compliance Matrix: (Units=1/GPa)
#
#
# Indices 1 2 3 4 5 6 
#
# 1 0.016035 -0.003843 -0.002806 0.000000 0.000000 0.000758
# 2 -0.003843 0.016035 -0.002806 0.000000 0.000000 -0.000758
# 3 -0.002806 -0.002806 0.009333 0.000000 0.000000 0.000000
# 4 0.000000 0.000000 0.000000 0.099883 0.000000 0.000000
# 5 0.000000 0.000000 0.000000 0.000000 0.099883 0.000000
# 6 0.000758 -0.000758 0.000000 0.000000 0.000000 0.047493
#
#
# Mechanical properties :
#
#
# Convention : Reuss Voigt Hill
#
# Bulk Modulus (GPa) = 44.45749 47.69027 46.07388
# Shear Modulus (GPa) = 15.86957 20.90529 18.38743
#
# Velocity S-wave (km/s) = 3.21441 3.68932 3.46002
# Velocity P-wave (km/s) = 6.53622 7.01416 6.77940
#
# Compressibility (1/GPa) = 0.02249340
#
# Stress axis : x y z
#
# Youngs Moduli (GPa) = 62.36514 62.36514 107.14246
#
# Poissons Ratio (x) = 0.23967 0.30062
# Poissons Ratio (y) = 0.23967 0.30062
# Poissons Ratio (z) = 0.17499 0.17499
#
# Static dielectric constant tensor:
#      x y z
#    x 2.869820 0.000000 0.000000 
#    y 0.000000 2.869820 0.000000 
#    z 0.000000 0.000000 3.102560 
# 
# 
# High freq. dielectric constant tensor:
#      x y z
#    x 1.575070 0.000000 0.000000 
#    y 0.000000 1.575070 0.000000 
#    z 0.000000 0.000000 1.589320 
# 
# From -- ./inp_files/1345.got.cif
#   From: 2010.03.12/outbox.cif.g09.slc.cpg/sg81_cif.got.tgz:1345.got - 2010.04.08 20:01:38.
