data_PCOD8302658
_publ_section_title
;
Structure prediction by ZEFSAII (Michael W. Deem and Ramdas Pophale) SiO2 
 PCOD8302658
Probable space group: P 4/M
;
_chemical_formula_sum "Si O2"
_cell_formula_units_Z 44
_cell_length_a 14.586190
_cell_length_b 14.586190
_cell_length_c 12.881027
_cell_angle_alpha 90.000000
_cell_angle_beta 90.000000
_cell_angle_gamma 90.000000
_cell_volume 2740.527872
_symmetry_space_group_name_H-M "P 4/M"
_symmetry_group_IT_number 83
_symmetry_cell_setting 'tetragonal'
loop_
_space_group_symop_operation_xyz
x,y,z
-y,x,z
-x,-y,z
y,-x,z
-x,-y,-z
y,-x,-z
x,y,-z
-y,x,-z
loop_
_atom_site_type_symbol
_atom_site_label
_atom_site_fract_x
_atom_site_fract_y
_atom_site_fract_z
Si Si1 0.324527 0.798816 0.876953
Si Si2 0.065021 0.865052 0.618199
Si Si3 0.125429 0.752298 0.807291
Si Si4 0.633283 0.554632 0.123146
Si Si5 0.605714 0.001669 0.122358
Si Si6 0.945908 0.139356 0.000000
O O1 0.233573 0.759962 0.823175
O O2 0.406040 0.731087 0.839422
O O3 0.348865 0.901923 0.841709
O O4 0.309578 0.794508 0.000000
O O5 0.080383 0.833100 0.500000
O O6 0.102777 0.786894 0.692642
O O7 0.958103 0.880142 0.640629
O O8 0.071027 0.807367 0.894751
O O9 0.085161 0.649641 0.817628
O O10 0.549354 0.618857 0.164079
O O11 0.630807 0.554675 0.000000
O O12 0.500000 0.000000 0.153362
O O13 0.619336 0.987707 0.000000
O O14 0.052260 0.118492 0.000000
#
# Coordination Sequence:
#
# PCOD8302658 Si02
#       6
#     8   8   8   8   8   4
#     4  10  19  29  45  65  94 130 166 196 237 292
#     4   9  18  32  50  71  94 122 160 204 243 279
#     4  12  20  31  48  67  98 128 162 197 234 293
#     4   8  15  27  43  61  85 118 162 207 243 279
#     4  10  21  33  44  65 100 135 164 197 240 294
#     4  11  20  28  43  66  96 125 155 190 230 274
#
# _framework density 16.055302000000001
#
# number of rings (size 3 to 8) (size 9 to 14) (size 15 to 20)
#    0.000    2.091    1.818    4.364    2.545    1.455 
#    0.000    0.000    0.000    0.545    0.000    0.000 
#    0.000    0.000    0.000    2.000    0.000    0.909 
#
# Total GULP energy -545475.799282 kJ/mol
# GULP energy per Si atom -12397.177256 kJ/mol
# Density = 1.601876 g / cm^3
# Si number density = 16.055302 Si / 1000 Ang^3
#
#
#
# Elastic Constant Matrix: (Units=GPa)
#
#
# Indices 1 2 3 4 5 6 
#
# 1 87.6820 30.2456 15.6216 0.0000 0.0000 0.7856
# 2 30.2456 87.6820 15.6216 0.0000 0.0000 -0.7856
# 3 15.6216 15.6216 47.8261 0.0000 0.0000 0.0000
# 4 0.0000 0.0000 0.0000 33.7221 0.0000 0.0000
# 5 0.0000 0.0000 0.0000 0.0000 33.7221 0.0000
# 6 0.7856 -0.7856 0.0000 0.0000 0.0000 31.3534
#
#
#
# Elastic Compliance Matrix: (Units=1/GPa)
#
#
# Indices 1 2 3 4 5 6 
#
# 1 0.013353 -0.004070 -0.003032 0.000000 0.000000 -0.000437
# 2 -0.004070 0.013353 -0.003032 0.000000 0.000000 0.000437
# 3 -0.003032 -0.003032 0.022890 0.000000 0.000000 0.000000
# 4 0.000000 0.000000 0.000000 0.029654 0.000000 0.000000
# 5 0.000000 0.000000 0.000000 0.000000 0.029654 0.000000
# 6 -0.000437 0.000437 0.000000 0.000000 0.000000 0.031916
#
#
# Mechanical properties :
#
#
# Convention : Reuss Voigt Hill
#
# Bulk Modulus (GPa) = 34.09776 38.46308 36.28042
# Shear Modulus (GPa) = 29.26305 30.53963 29.90134
#
# Velocity S-wave (km/s) = 4.27387 4.36610 4.32023
# Velocity P-wave (km/s) = 6.75562 7.03034 6.89435
#
# Compressibility (1/GPa) = 0.02932744
#
# Stress axis : x y z
#
# Youngs Moduli (GPa) = 74.89067 74.89067 43.68737
#
# Poissons Ratio (x) = 0.30478 0.13247
# Poissons Ratio (y) = 0.30478 0.13247
# Poissons Ratio (z) = 0.22708 0.22708
#
# Static dielectric constant tensor:
#      x y z
#    x 3.203770 0.000000 0.000000 
#    y 0.000000 3.203770 0.000000 
#    z 0.000000 0.000000 2.610970 
# 
# 
# High freq. dielectric constant tensor:
#      x y z
#    x 1.622680 0.000000 0.000000 
#    y 0.000000 1.622680 0.000000 
#    z 0.000000 0.000000 1.555970 
# 
# From -- ./inp_files/1742.got.cif
#   From: 2010.03.12/outbox.cif.g09.slc.cpg/sg83_1_cif.got.tgz:1742.got - 2010.04.08 20:05:18.
