data_PCOD8302848
_publ_section_title
;
Structure prediction by ZEFSAII (Michael W. Deem and Ramdas Pophale) SiO2 
 PCOD8302848
Probable space group: P 4/M
;
_chemical_formula_sum "Si O2"
_cell_formula_units_Z 44
_cell_length_a 8.389631
_cell_length_b 8.389631
_cell_length_c 30.511336
_cell_angle_alpha 90.000000
_cell_angle_beta 90.000000
_cell_angle_gamma 90.000000
_cell_volume 2147.568098
_symmetry_space_group_name_H-M "P 4/M"
_symmetry_group_IT_number 83
_symmetry_cell_setting 'tetragonal'
loop_
_space_group_symop_operation_xyz
x,y,z
-y,x,z
-x,-y,z
y,-x,z
-x,-y,-z
y,-x,-z
x,y,-z
-y,x,-z
loop_
_atom_site_type_symbol
_atom_site_label
_atom_site_fract_x
_atom_site_fract_y
_atom_site_fract_z
Si Si1 0.252194 0.067845 0.859566
Si Si2 0.574449 0.246618 0.374943
Si Si3 0.757969 0.561661 0.000000
Si Si4 0.000000 0.500000 0.694264
Si Si5 0.000000 0.500000 0.072146
Si Si6 0.757353 0.095874 0.550209
Si Si7 0.252239 0.069532 0.761870
O O1 0.381770 0.100328 0.896808
O O2 0.325115 0.088808 0.810751
O O3 0.192087 0.888584 0.865930
O O4 0.696288 0.392805 0.372316
O O5 0.609754 0.153357 0.420157
O O6 0.602000 0.122972 0.335262
O O7 0.618488 0.691042 0.000000
O O8 0.868824 0.589456 0.957553
O O9 0.895611 0.384623 0.725316
O O10 0.704219 0.116976 0.500000
O O11 0.912426 0.202759 0.560428
O O12 0.192747 0.889705 0.755271
#
# Coordination Sequence:
#
# PCOD8302848 Si02
#       7
#     8   8   4   4   4   8   8
#     4   9  18  33  53  79 106 129 165 220 270 313
#     4  11  24  38  53  79 112 144 178 218 265 312
#     4  10  22  36  48  70 106 142 178 218 256 304
#     4  12  21  36  56  76 104 144 182 215 252 310
#     4  11  19  32  55  76  98 139 180 211 261 318
#     4   9  19  38  63  87 109 136 174 218 262 313
#     4   9  19  35  55  79 105 134 171 216 266 315
#
# _framework density 20.488292999999999
#
# number of rings (size 3 to 8) (size 9 to 14) (size 15 to 20)
#    0.000    2.091    0.000    5.455    0.000    0.727 
#    0.000    5.000    0.000    4.364    0.000   15.273 
#    0.000    0.000    0.000    0.000    0.000    0.000 
#
# Total GULP energy -545592.442816 kJ/mol
# GULP energy per Si atom -12399.828246 kJ/mol
# Density = 2.044166 g / cm^3
# Si number density = 20.488293 Si / 1000 Ang^3
#
#
#
# Elastic Constant Matrix: (Units=GPa)
#
#
# Indices 1 2 3 4 5 6 
#
# 1 57.5616 2.2310 38.0840 0.0000 0.0000 -6.4703
# 2 2.2310 57.5616 38.0840 0.0000 0.0000 6.4703
# 3 38.0840 38.0840 144.4874 0.0000 0.0000 0.0000
# 4 0.0000 0.0000 0.0000 24.9696 0.0000 0.0000
# 5 0.0000 0.0000 0.0000 0.0000 24.9696 0.0000
# 6 -6.4703 6.4703 0.0000 0.0000 0.0000 26.4562
#
#
#
# Elastic Compliance Matrix: (Units=1/GPa)
#
#
# Indices 1 2 3 4 5 6 
#
# 1 0.022174 0.003004 -0.006637 0.000000 0.000000 0.004688
# 2 0.003004 0.022174 -0.006637 0.000000 0.000000 -0.004688
# 3 -0.006637 -0.006637 0.010420 0.000000 0.000000 0.000000
# 4 0.000000 0.000000 0.000000 0.040049 0.000000 0.000000
# 5 0.000000 0.000000 0.000000 0.000000 0.040049 0.000000
# 6 0.004688 -0.004688 0.000000 0.000000 0.000000 0.040091
#
#
# Mechanical properties :
#
#
# Convention : Reuss Voigt Hill
#
# Bulk Modulus (GPa) = 29.21375 46.26762 37.74069
# Shear Modulus (GPa) = 24.16579 27.35987 25.76283
#
# Velocity S-wave (km/s) = 3.43810 3.65826 3.54989
# Velocity P-wave (km/s) = 5.48183 6.36202 5.93826
#
# Compressibility (1/GPa) = 0.03423046
#
# Stress axis : x y z
#
# Youngs Moduli (GPa) = 45.09762 45.09762 95.97335
#
# Poissons Ratio (x) = -0.13550 0.63693
# Poissons Ratio (y) = -0.13550 0.63693
# Poissons Ratio (z) = 0.29929 0.29929
#
# Static dielectric constant tensor:
#      x y z
#    x 3.509440 0.000000 0.000000 
#    y 0.000000 3.509440 0.000000 
#    z 0.000000 0.000000 3.812860 
# 
# 
# High freq. dielectric constant tensor:
#      x y z
#    x 1.788700 0.000000 0.000000 
#    y 0.000000 1.788700 0.000000 
#    z 0.000000 0.000000 1.815680 
# 
# From -- ./inp_files/3397.got.cif
#   From: 2010.03.12/outbox.cif.g09.slc.cpg/sg83_2_cif.got.tgz:3397.got - 2010.04.08 20:05:18.
