data_PCOD8302568
_publ_section_title
;
Structure prediction by ZEFSAII (Michael W. Deem and Ramdas Pophale) SiO2 
 PCOD8302568
Probable space group: I -4 
;
_chemical_formula_sum "Si O2"
_cell_formula_units_Z 40
_cell_length_a 11.026022
_cell_length_b 11.026022
_cell_length_c 12.626734
_cell_angle_alpha 90.000000
_cell_angle_beta 90.000000
_cell_angle_gamma 90.000000
_cell_volume 1535.071967
_symmetry_space_group_name_H-M "I -4 "
_symmetry_group_IT_number 82
_symmetry_cell_setting 'tetragonal'
loop_
_space_group_symop_operation_xyz
x,y,z
y,-x,-z
-x,-y,z
-y,x,-z
1/2+x,1/2+y,1/2+z
1/2+y,1/2-x,1/2-z
1/2-x,1/2-y,1/2+z
1/2-y,1/2+x,1/2-z
loop_
_atom_site_type_symbol
_atom_site_label
_atom_site_fract_x
_atom_site_fract_y
_atom_site_fract_z
Si Si1 0.126280 0.163047 0.855060
Si Si2 0.706377 0.353362 0.073846
Si Si3 0.850155 0.699124 0.652330
Si Si4 0.759809 0.420832 0.300412
Si Si5 0.500000 0.500000 0.000000
Si Si6 0.500000 0.000000 0.750000
Si Si7 0.000000 0.500000 0.750000
Si Si8 0.000000 0.000000 0.000000
O O1 0.209133 0.270973 0.905295
O O2 0.090620 0.204901 0.736445
O O3 0.194967 0.034315 0.852701
O O4 0.012859 0.124964 0.929490
O O5 0.757908 0.428303 0.172300
O O6 0.564043 0.391023 0.066472
O O7 0.771224 0.392910 0.965444
O O8 0.704310 0.702879 0.658784
O O9 0.896907 0.563599 0.678114
O O10 0.902896 0.430854 0.325886
#
# Coordination Sequence:
#
# PCOD8302568 Si02
#       8
#     8   8   8   8   2   2   2   2
#     4  11  26  49  78 110 149 195 263 317 377 461
#     4  11  26  47  72 115 149 205 249 310 386 451
#     4  11  27  50  73 115 156 203 259 311 384 465
#     4  11  24  48  78 111 153 195 261 319 377 454
#     4  12  28  42  72 108 156 202 248 306 380 472
#     4  12  20  46  76 112 148 194 244 338 360 448
#     4  12  32  50  72 104 166 208 244 322 376 456
#     4  12  28  50  80 106 144 204 244 330 384 446
#
# _framework density 26.057407999999999
#
# number of rings (size 3 to 8) (size 9 to 14) (size 15 to 20)
#    0.000    0.800    4.000    2.400   11.200    2.400 
#    0.000    0.000    0.000    0.000    0.000    0.000 
#    0.000    0.000    0.000    0.000    0.000    0.000 
#
# Total GULP energy -247822.233357 kJ/mol
# GULP energy per Si atom -12391.111668 kJ/mol
# Density = 2.599810 g / cm^3
# Si number density = 26.057408 Si / 1000 Ang^3
#
#
#
# Elastic Constant Matrix: (Units=GPa)
#
#
# Indices 1 2 3 4 5 6 
#
# 1 105.4745 50.7729 21.6938 0.0000 0.0000 -7.4785
# 2 50.7729 105.4745 21.6938 0.0000 0.0000 7.4785
# 3 21.6938 21.6938 140.1134 0.0000 0.0000 0.0000
# 4 0.0000 0.0000 0.0000 24.3424 0.0000 0.0000
# 5 0.0000 0.0000 0.0000 0.0000 24.3424 0.0000
# 6 -7.4785 7.4785 0.0000 0.0000 0.0000 59.7339
#
#
#
# Elastic Compliance Matrix: (Units=1/GPa)
#
#
# Indices 1 2 3 4 5 6 
#
# 1 0.012808 -0.006121 -0.001035 0.000000 0.000000 0.002370
# 2 -0.006121 0.012808 -0.001035 0.000000 0.000000 -0.002370
# 3 -0.001035 -0.001035 0.007458 0.000000 0.000000 0.000000
# 4 0.000000 0.000000 0.000000 0.041081 0.000000 0.000000
# 5 0.000000 0.000000 0.000000 0.000000 0.041081 0.000000
# 6 0.002370 -0.002370 0.000000 0.000000 0.000000 0.017334
#
#
# Mechanical properties :
#
#
# Convention : Reuss Voigt Hill
#
# Bulk Modulus (GPa) = 59.91186 59.93150 59.92168
# Shear Modulus (GPa) = 32.35896 38.81053 35.58474
#
# Velocity S-wave (km/s) = 3.52779 3.86349 3.69945
# Velocity P-wave (km/s) = 6.29570 6.55376 6.42603
#
# Compressibility (1/GPa) = 0.01669119
#
# Stress axis : x y z
#
# Youngs Moduli (GPa) = 78.07429 78.07430 134.08938
#
# Poissons Ratio (x) = 0.47787 0.13884
# Poissons Ratio (y) = 0.47787 0.13884
# Poissons Ratio (z) = 0.08084 0.08084
#
# Static dielectric constant tensor:
#      x y z
#    x 4.752600 0.000000 0.000000 
#    y 0.000000 4.752600 0.000000 
#    z 0.000000 0.000000 4.762190 
# 
# 
# High freq. dielectric constant tensor:
#      x y z
#    x 2.043910 0.000000 0.000000 
#    y 0.000000 2.043910 0.000000 
#    z 0.000000 0.000000 2.033180 
# 
# From -- ./inp_files/2250.got.cif
#   From: 2010.03.12/outbox.cif.g09.slc.cpg/sg82_2_cif.got.tgz:2250.got - 2010.04.08 20:02:50.
