data_PCOD8302660
_publ_section_title
;
Structure prediction by ZEFSAII (Michael W. Deem and Ramdas Pophale) SiO2 
 PCOD8302660
Probable space group: P 4/M
;
_chemical_formula_sum "Si O2"
_cell_formula_units_Z 40
_cell_length_a 15.105466
_cell_length_b 15.105466
_cell_length_c 9.946270
_cell_angle_alpha 90.000000
_cell_angle_beta 90.000000
_cell_angle_gamma 90.000000
_cell_volume 2269.491182
_symmetry_space_group_name_H-M "P 4/M"
_symmetry_group_IT_number 83
_symmetry_cell_setting 'tetragonal'
loop_
_space_group_symop_operation_xyz
x,y,z
-y,x,z
-x,-y,z
y,-x,z
-x,-y,-z
y,-x,-z
x,y,-z
-y,x,-z
loop_
_atom_site_type_symbol
_atom_site_label
_atom_site_fract_x
_atom_site_fract_y
_atom_site_fract_z
Si Si1 0.619162 0.724809 0.342357
Si Si2 0.249634 0.423511 0.339111
Si Si3 0.949249 0.584835 0.658613
Si Si4 0.929374 0.126152 0.152300
Si Si5 0.901996 0.281389 0.655956
O O1 0.618336 0.708733 0.500000
O O2 0.684212 0.650735 0.278460
O O3 0.519081 0.715872 0.287114
O O4 0.651641 0.823210 0.308440
O O5 0.247575 0.420552 0.500000
O O6 0.150182 0.405843 0.283001
O O7 0.943419 0.570615 0.500000
O O8 0.000000 0.500000 0.721575
O O9 0.004963 0.672693 0.693624
O O10 0.881812 0.033513 0.178900
O O11 0.887515 0.194530 0.256072
O O12 0.912146 0.158128 0.000000
O O13 0.898747 0.253599 0.500000
#
# Coordination Sequence:
#
# PCOD8302660 Si02
#       5
#     8   8   8   8   8
#     4   9  17  27  40  64  96 127 166 205 243 290
#     4   9  16  26  39  59  93 133 164 198 243 295
#     4   9  15  26  42  62  94 130 156 187 245 303
#     4   9  20  38  53  66  94 135 166 189 235 301
#     4  10  19  29  48  77  99 121 162 210 244 281
#
# _framework density 17.625095999999999
#
# number of rings (size 3 to 8) (size 9 to 14) (size 15 to 20)
#    0.000    2.800    2.000    0.600    2.800    1.200 
#    0.000    3.000    0.000    0.600    0.000    1.400 
#    0.000    0.000    0.000    1.800    0.000    2.000 
#
# Total GULP energy -495838.028402 kJ/mol
# GULP energy per Si atom -12395.950710 kJ/mol
# Density = 1.758498 g / cm^3
# Si number density = 17.625096 Si / 1000 Ang^3
#
#
#
# Elastic Constant Matrix: (Units=GPa)
#
#
# Indices 1 2 3 4 5 6 
#
# 1 104.7822 48.9836 17.0849 0.0000 0.0000 11.1430
# 2 48.9836 104.7822 17.0849 0.0000 0.0000 -11.1430
# 3 17.0849 17.0849 27.5054 0.0000 0.0000 0.0000
# 4 0.0000 0.0000 0.0000 8.1427 0.0000 0.0000
# 5 0.0000 0.0000 0.0000 0.0000 8.1427 0.0000
# 6 11.1430 -11.1430 0.0000 0.0000 0.0000 26.6508
#
#
#
# Elastic Compliance Matrix: (Units=1/GPa)
#
#
# Indices 1 2 3 4 5 6 
#
# 1 0.014530 -0.006985 -0.004686 0.000000 0.000000 -0.008995
# 2 -0.006985 0.014530 -0.004686 0.000000 0.000000 0.008995
# 3 -0.004686 -0.004686 0.042179 0.000000 0.000000 0.000000
# 4 0.000000 0.000000 0.000000 0.122810 0.000000 0.000000
# 5 0.000000 0.000000 0.000000 0.000000 0.122810 0.000000
# 6 -0.008995 0.008995 0.000000 0.000000 0.000000 0.045044
#
#
# Mechanical properties :
#
#
# Convention : Reuss Voigt Hill
#
# Bulk Modulus (GPa) = 25.95895 44.81961 35.38928
# Shear Modulus (GPa) = 12.27120 18.84832 15.55976
#
# Velocity S-wave (km/s) = 2.64149 3.27372 2.97445
# Velocity P-wave (km/s) = 4.90547 6.30669 5.64969
#
# Compressibility (1/GPa) = 0.03852236
#
# Stress axis : x y z
#
# Youngs Moduli (GPa) = 68.82515 68.82515 23.70876
#
# Poissons Ratio (x) = 0.48073 0.11111
# Poissons Ratio (y) = 0.48073 0.11111
# Poissons Ratio (z) = 0.32255 0.32255
#
# Static dielectric constant tensor:
#      x y z
#    x 3.420610 0.000000 0.000000 
#    y 0.000000 3.420610 0.000000 
#    z 0.000000 0.000000 2.585010 
# 
# 
# High freq. dielectric constant tensor:
#      x y z
#    x 1.691310 0.000000 0.000000 
#    y 0.000000 1.691310 0.000000 
#    z 0.000000 0.000000 1.598920 
# 
# From -- ./inp_files/660.got.cif
#   From: 2010.03.12/outbox.cif.g09.slc.cpg/sg83_1_cif.got.tgz:660.got - 2010.04.08 20:05:18.
