data_PCOD8302982
_publ_section_title
;
Structure prediction by ZEFSAII (Michael W. Deem and Ramdas Pophale) SiO2 
 PCOD8302982
Probable space group: P 4/M
;
_chemical_formula_sum "Si O2"
_cell_formula_units_Z 32
_cell_length_a 8.297907
_cell_length_b 8.297907
_cell_length_c 21.948149
_cell_angle_alpha 90.000000
_cell_angle_beta 90.000000
_cell_angle_gamma 90.000000
_cell_volume 1511.245519
_symmetry_space_group_name_H-M "P 4/M"
_symmetry_group_IT_number 83
_symmetry_cell_setting 'tetragonal'
loop_
_space_group_symop_operation_xyz
x,y,z
-y,x,z
-x,-y,z
y,-x,z
-x,-y,-z
y,-x,-z
x,y,-z
-y,x,-z
loop_
_atom_site_type_symbol
_atom_site_label
_atom_site_fract_x
_atom_site_fract_y
_atom_site_fract_z
Si Si1 0.076456 0.253830 0.000000
Si Si2 0.906169 0.246820 0.569410
Si Si3 0.256444 0.925329 0.131049
Si Si4 0.000000 0.500000 0.227347
Si Si5 0.755697 0.425242 0.324741
O O1 0.102909 0.345601 0.935298
O O2 0.195384 0.105052 0.000000
O O3 0.883934 0.304777 0.500000
O O4 0.850889 0.393368 0.612363
O O5 0.091106 0.203695 0.582679
O O6 0.383174 0.892921 0.184667
O O7 0.196589 0.108862 0.137406
O O8 0.121996 0.604405 0.268871
O O9 0.698381 0.608745 0.321231
#
# Coordination Sequence:
#
# PCOD8302982 Si02
#       5
#     4   8   8   4   8
#     4   7  12  27  50  76 104 130 164 218 274 319
#     4   9  19  38  64  90 112 136 172 220 270 319
#     4   9  18  33  54  78 104 136 175 220 271 323
#     4  12  22  35  53  76 106 144 186 224 262 312
#     4  11  24  39  54  77 111 148 184 223 269 319
#
# _framework density 21.174588
#
# number of rings (size 3 to 8) (size 9 to 14) (size 15 to 20)
#    0.000    2.375    0.000    5.250    0.000    1.500 
#    0.000    6.875    0.000    0.000    0.000    0.000 
#    0.000   16.000    0.000    0.000    0.000    0.000 
#
# Total GULP energy -396577.058733 kJ/mol
# GULP energy per Si atom -12393.033085 kJ/mol
# Density = 2.112639 g / cm^3
# Si number density = 21.174588 Si / 1000 Ang^3
#
#
#
# Elastic Constant Matrix: (Units=GPa)
#
#
# Indices 1 2 3 4 5 6 
#
# 1 59.4819 12.1241 47.6120 0.0000 0.0000 7.3737
# 2 12.1241 59.4819 47.6120 0.0000 0.0000 -7.3737
# 3 47.6120 47.6120 182.8337 0.0000 0.0000 0.0000
# 4 0.0000 0.0000 0.0000 21.9058 0.0000 0.0000
# 5 0.0000 0.0000 0.0000 0.0000 21.9058 0.0000
# 6 7.3737 -7.3737 0.0000 0.0000 0.0000 28.3295
#
#
#
# Elastic Compliance Matrix: (Units=1/GPa)
#
#
# Indices 1 2 3 4 5 6 
#
# 1 0.022171 -0.000807 -0.005563 0.000000 0.000000 -0.005981
# 2 -0.000807 0.022171 -0.005563 0.000000 0.000000 0.005981
# 3 -0.005563 -0.005563 0.008367 0.000000 0.000000 0.000000
# 4 0.000000 0.000000 0.000000 0.045650 0.000000 0.000000
# 5 0.000000 0.000000 0.000000 0.000000 0.045650 0.000000
# 6 -0.005981 0.005981 0.000000 0.000000 0.000000 0.038412
#
#
# Mechanical properties :
#
#
# Convention : Reuss Voigt Hill
#
# Bulk Modulus (GPa) = 34.67306 57.38820 46.03063
# Shear Modulus (GPa) = 23.15854 27.39150 25.27502
#
# Velocity S-wave (km/s) = 3.31069 3.60057 3.45867
# Velocity P-wave (km/s) = 5.56998 6.66684 6.14294
#
# Compressibility (1/GPa) = 0.02884083
#
# Stress axis : x y z
#
# Youngs Moduli (GPa) = 45.10404 45.10404 119.51778
#
# Poissons Ratio (x) = 0.03642 0.66492
# Poissons Ratio (y) = 0.03642 0.66492
# Poissons Ratio (z) = 0.25093 0.25093
#
# Static dielectric constant tensor:
#      x y z
#    x 3.507730 0.000000 0.000000 
#    y 0.000000 3.507730 0.000000 
#    z 0.000000 0.000000 4.199750 
# 
# 
# High freq. dielectric constant tensor:
#      x y z
#    x 1.807670 0.000000 0.000000 
#    y 0.000000 1.807670 0.000000 
#    z 0.000000 0.000000 1.852400 
# 
# From -- ./inp_files/3078.got.cif
#   From: 2010.03.12/outbox.cif.g09.slc.cpg/sg83_2_cif.got.tgz:3078.got - 2010.04.08 20:05:18.
