data_PCOD8302600
_publ_section_title
;
Structure prediction by ZEFSAII (Michael W. Deem and Ramdas Pophale) SiO2 
 PCOD8302600
Probable space group: I -4 
;
_chemical_formula_sum "Si O2"
_cell_formula_units_Z 40
_cell_length_a 18.789536
_cell_length_b 18.789536
_cell_length_c 4.884567
_cell_angle_alpha 90.000000
_cell_angle_beta 90.000000
_cell_angle_gamma 90.000000
_cell_volume 1724.480080
_symmetry_space_group_name_H-M "I -4 "
_symmetry_group_IT_number 82
_symmetry_cell_setting 'tetragonal'
loop_
_space_group_symop_operation_xyz
x,y,z
y,-x,-z
-x,-y,z
-y,x,-z
1/2+x,1/2+y,1/2+z
1/2+y,1/2-x,1/2-z
1/2-x,1/2-y,1/2+z
1/2-y,1/2+x,1/2-z
loop_
_atom_site_type_symbol
_atom_site_label
_atom_site_fract_x
_atom_site_fract_y
_atom_site_fract_z
Si Si1 0.121861 0.113835 0.293475
Si Si2 0.113163 0.378629 0.456394
Si Si3 0.255611 0.203926 0.188904
Si Si4 0.668036 0.031422 0.061152
Si Si5 0.959338 0.833199 0.795938
O O1 0.195840 0.143651 0.178869
O O2 0.103713 0.152742 0.578910
O O3 0.131728 0.029749 0.333877
O O4 0.058794 0.128062 0.079259
O O5 0.170430 0.325711 0.582606
O O6 0.046112 0.377599 0.664275
O O7 0.144619 0.457271 0.427102
O O8 0.092201 0.348811 0.160418
O O9 0.268714 0.231017 0.496323
O O10 0.750306 0.030357 0.144592
#
# Coordination Sequence:
#
# PCOD8302600 Si02
#       5
#     8   8   8   8   8
#     4  12  26  45  73 103 146 191 232 302 356 429
#     4  12  26  45  73 103 146 191 232 302 356 429
#     4  12  24  44  72 106 134 184 250 288 354 410
#     4  12  26  47  71 106 146 187 243 294 362 427
#     4  12  26  47  71 106 146 187 243 294 362 427
#
# _framework density 23.195395999999999
#
# number of rings (size 3 to 8) (size 9 to 14) (size 15 to 20)
#    0.000    0.000    2.000    9.600    0.000    4.800 
#    0.000    0.000    0.000    0.000    0.000    0.000 
#    0.000    0.000    0.000    0.000    0.000    0.000 
#
# Total GULP energy -248181.573851 kJ/mol
# GULP energy per Si atom -12409.078693 kJ/mol
# Density = 2.314260 g / cm^3
# Si number density = 23.195396 Si / 1000 Ang^3
#
#
#
# Elastic Constant Matrix: (Units=GPa)
#
#
# Indices 1 2 3 4 5 6 
#
# 1 92.8389 37.6729 26.7294 0.0000 0.0000 5.9663
# 2 37.6729 92.8389 26.7294 0.0000 0.0000 -5.9663
# 3 26.7294 26.7294 114.1210 0.0000 0.0000 0.0000
# 4 0.0000 0.0000 0.0000 38.0184 0.0000 0.0000
# 5 0.0000 0.0000 0.0000 0.0000 38.0184 0.0000
# 6 5.9663 -5.9663 0.0000 0.0000 0.0000 19.8222
#
#
#
# Elastic Compliance Matrix: (Units=1/GPa)
#
#
# Indices 1 2 3 4 5 6 
#
# 1 0.013932 -0.005457 -0.001985 0.000000 0.000000 -0.005836
# 2 -0.005457 0.013932 -0.001985 0.000000 0.000000 0.005836
# 3 -0.001985 -0.001985 0.009693 0.000000 0.000000 0.000000
# 4 0.000000 0.000000 0.000000 0.026303 0.000000 0.000000
# 5 0.000000 0.000000 0.000000 0.000000 0.026303 0.000000
# 6 -0.005836 0.005836 0.000000 0.000000 0.000000 0.053962
#
#
# Mechanical properties :
#
#
# Convention : Reuss Voigt Hill
#
# Bulk Modulus (GPa) = 53.46816 53.56247 53.51531
# Shear Modulus (GPa) = 29.54846 33.08295 31.31570
#
# Velocity S-wave (km/s) = 3.57304 3.78070 3.67833
# Velocity P-wave (km/s) = 6.33430 6.49617 6.41575
#
# Compressibility (1/GPa) = 0.01870272
#
# Stress axis : x y z
#
# Youngs Moduli (GPa) = 71.77541 71.77541 103.17241
#
# Poissons Ratio (x) = 0.39169 0.20480
# Poissons Ratio (y) = 0.39169 0.20480
# Poissons Ratio (z) = 0.14248 0.14248
#
# Static dielectric constant tensor:
#      x y z
#    x 4.145260 0.000000 0.000000 
#    y 0.000000 4.145260 0.000000 
#    z 0.000000 0.000000 4.311410 
# 
# 
# High freq. dielectric constant tensor:
#      x y z
#    x 1.923880 0.000000 0.000000 
#    y 0.000000 1.923880 0.000000 
#    z 0.000000 0.000000 1.931260 
# 
# From -- ./inp_files/210.got.cif
#   From: 2010.03.12/outbox.cif.g09.slc.cpg/sg82_1_cif.got.tgz:210.got - 2010.04.08 20:02:50.
