data_PCOD8302112
_publ_section_title
;
Structure prediction by ZEFSAII (Michael W. Deem and Ramdas Pophale) SiO2 
 PCOD8302112
Probable space group: I 4
;
_chemical_formula_sum "Si O2"
_cell_formula_units_Z 36
_cell_length_a 12.430748
_cell_length_b 12.430748
_cell_length_c 9.236727
_cell_angle_alpha 90.000000
_cell_angle_beta 90.000000
_cell_angle_gamma 90.000000
_cell_volume 1427.291346
_symmetry_space_group_name_H-M "I 4"
_symmetry_group_IT_number 79
_symmetry_cell_setting 'tetragonal'
loop_
_space_group_symop_operation_xyz
x,y,z
-y,x,z
-x,-y,z
y,-x,z
1/2+x,1/2+y,1/2+z
1/2-y,1/2+x,1/2+z
1/2-x,1/2-y,1/2+z
1/2+y,1/2-x,1/2+z
loop_
_atom_site_type_symbol
_atom_site_label
_atom_site_fract_x
_atom_site_fract_y
_atom_site_fract_z
Si Si1 0.925747 0.160087 0.656090
Si Si2 0.000000 0.500000 0.994193
Si Si3 0.535042 0.769986 0.584574
Si Si4 0.770575 0.465282 0.905404
Si Si5 0.733405 0.676184 0.434046
O O1 0.864379 0.242298 0.764976
O O2 0.051608 0.139536 0.685076
O O3 0.938746 0.209404 0.493137
O O4 0.010353 0.396563 0.096509
O O5 0.103771 0.507226 0.891729
O O6 0.547637 0.721519 0.745394
O O7 0.636262 0.754206 0.477176
O O8 0.432124 0.709251 0.521511
O O9 0.763367 0.345034 0.978696
#
# Coordination Sequence:
#
# PCOD8302112 Si02
#       5
#     8   4   8   8   8
#     4  11  25  47  71 102 150 199 246 309 386 455
#     4  10  24  48  70 106 154 194 238 322 398 448
#     4  11  25  44  73 105 146 192 256 314 377 468
#     4  11  26  42  74 110 141 194 254 316 372 467
#     4  11  25  45  73 104 146 200 244 313 389 453
#
# _framework density 25.222598999999999
#
# number of rings (size 3 to 8) (size 9 to 14) (size 15 to 20)
#    0.000    1.111    2.222    2.000    9.333    5.778 
#    0.000    0.000    0.000    0.000    0.000    0.000 
#    0.000    0.000    0.000    0.000    0.000    0.000 
#
# Total GULP energy -223003.544695 kJ/mol
# GULP energy per Si atom -12389.085816 kJ/mol
# Density = 2.516519 g / cm^3
# Si number density = 25.222599 Si / 1000 Ang^3
#
#
#
# Elastic Constant Matrix: (Units=GPa)
#
#
# Indices 1 2 3 4 5 6 
#
# 1 59.3592 19.2846 15.1450 0.0000 0.0000 1.0879
# 2 19.2846 59.3592 15.1450 0.0000 0.0000 -1.0879
# 3 15.1450 15.1450 149.6407 0.0000 0.0000 0.0000
# 4 0.0000 0.0000 0.0000 29.5335 0.0000 0.0000
# 5 0.0000 0.0000 0.0000 0.0000 29.5335 0.0000
# 6 1.0879 -1.0879 0.0000 0.0000 0.0000 45.2361
#
#
#
# Elastic Compliance Matrix: (Units=1/GPa)
#
#
# Indices 1 2 3 4 5 6 
#
# 1 0.019109 -0.005877 -0.001339 0.000000 0.000000 -0.000601
# 2 -0.005877 0.019109 -0.001339 0.000000 0.000000 0.000601
# 3 -0.001339 -0.001339 0.006954 0.000000 0.000000 0.000000
# 4 0.000000 0.000000 0.000000 0.033860 0.000000 0.000000
# 5 0.000000 0.000000 0.000000 0.000000 0.033860 0.000000
# 6 -0.000601 0.000601 0.000000 0.000000 0.000000 0.022135
#
#
# Mechanical properties :
#
#
# Convention : Reuss Voigt Hill
#
# Bulk Modulus (GPa) = 35.63807 40.83425 38.23616
# Shear Modulus (GPa) = 30.96156 35.44625 33.20391
#
# Velocity S-wave (km/s) = 3.50742 3.75285 3.63221
# Velocity P-wave (km/s) = 5.52836 5.91635 5.72564
#
# Compressibility (1/GPa) = 0.02805988
#
# Stress axis : x y z
#
# Youngs Moduli (GPa) = 52.33220 52.33220 143.80756
#
# Poissons Ratio (x) = 0.30758 0.19258
# Poissons Ratio (y) = 0.30758 0.19258
# Poissons Ratio (z) = 0.07008 0.07008
#
# Static dielectric constant tensor:
#      x y z
#    x 4.574050 0.000000 0.000000 
#    y 0.000000 4.574050 0.000000 
#    z 0.000000 0.000000 4.259190 
# 
# 
# High freq. dielectric constant tensor:
#      x y z
#    x 2.012150 0.000000 0.000000 
#    y 0.000000 2.012150 0.000000 
#    z 0.000000 0.000000 1.990870 
# 
# From -- ./inp_files/488.got.cif
#   From: 2010.03.12/outbox.cif.g09.slc.cpg/sg79_cif.got.tgz:488.got - 2010.04.16 16:38:49.
