data_PCOD8302114
_publ_section_title
;
Structure prediction by ZEFSAII (Michael W. Deem and Ramdas Pophale) SiO2 
 PCOD8302114
Probable space group: I 4
;
_chemical_formula_sum "Si O2"
_cell_formula_units_Z 48
_cell_length_a 19.636501
_cell_length_b 19.636501
_cell_length_c 6.472134
_cell_angle_alpha 90.000000
_cell_angle_beta 90.000000
_cell_angle_gamma 90.000000
_cell_volume 2495.604203
_symmetry_space_group_name_H-M "I 4"
_symmetry_group_IT_number 79
_symmetry_cell_setting 'tetragonal'
loop_
_space_group_symop_operation_xyz
x,y,z
-y,x,z
-x,-y,z
y,-x,z
1/2+x,1/2+y,1/2+z
1/2-y,1/2+x,1/2+z
1/2-x,1/2-y,1/2+z
1/2+y,1/2-x,1/2+z
loop_
_atom_site_type_symbol
_atom_site_label
_atom_site_fract_x
_atom_site_fract_y
_atom_site_fract_z
Si Si1 0.820318 0.228862 0.506110
Si Si2 0.179186 0.315437 0.657098
Si Si3 0.738259 0.589838 0.394255
Si Si4 0.153132 0.874638 0.157645
Si Si5 0.897187 0.041572 0.498254
Si Si6 0.270770 0.562516 0.293521
O O1 0.745843 0.232717 0.609294
O O2 0.840146 0.297962 0.385158
O O3 0.877247 0.217286 0.678056
O O4 0.817099 0.164033 0.355616
O O5 0.193267 0.374770 0.489227
O O6 0.101109 0.289698 0.667086
O O7 0.674131 0.596997 0.549620
O O8 0.756195 0.511312 0.356980
O O9 0.121562 0.944029 0.256548
O O10 0.212776 0.894119 0.998922
O O11 0.838135 0.061718 0.656021
O O12 0.962983 0.087866 0.542294
#
# Coordination Sequence:
#
# PCOD8302114 Si02
#       6
#     8   8   8   8   8   8
#     4  11  19  37  60  85 114 151 195 246 305 348
#     4  11  21  37  60  85 117 152 197 256 310 357
#     4  11  24  38  59  91 119 155 207 253 309 368
#     4  11  20  36  56  82 117 160 195 246 291 354
#     4  11  23  36  53  82 124 172 207 235 285 362
#     4  12  23  38  58  84 121 159 202 252 308 362
#
# _framework density 19.233816999999998
#
# number of rings (size 3 to 8) (size 9 to 14) (size 15 to 20)
#    0.000    0.833    5.000    4.000    0.000    1.333 
#    0.000    1.667    0.000    0.000    0.000    3.500 
#    0.000    0.000    0.000    0.000    0.000    0.000 
#
# Total GULP energy -297521.755723 kJ/mol
# GULP energy per Si atom -12396.739822 kJ/mol
# Density = 1.919004 g / cm^3
# Si number density = 19.233817 Si / 1000 Ang^3
#
#
#
# Elastic Constant Matrix: (Units=GPa)
#
#
# Indices 1 2 3 4 5 6 
#
# 1 107.2294 50.7758 43.2114 0.0000 0.0000 0.6719
# 2 50.7758 107.2294 43.2114 0.0000 0.0000 -0.6719
# 3 43.2114 43.2114 103.3058 0.0000 0.0000 0.0000
# 4 0.0000 0.0000 0.0000 29.6276 0.0000 0.0000
# 5 0.0000 0.0000 0.0000 0.0000 29.6276 0.0000
# 6 0.6719 -0.6719 0.0000 0.0000 0.0000 26.8157
#
#
#
# Elastic Compliance Matrix: (Units=1/GPa)
#
#
# Indices 1 2 3 4 5 6 
#
# 1 0.012965 -0.004759 -0.003433 0.000000 0.000000 -0.000444
# 2 -0.004759 0.012965 -0.003433 0.000000 0.000000 0.000444
# 3 -0.003433 -0.003433 0.012552 0.000000 0.000000 0.000000
# 4 0.000000 0.000000 0.000000 0.033752 0.000000 0.000000
# 5 0.000000 0.000000 0.000000 0.000000 0.033752 0.000000
# 6 -0.000444 0.000444 0.000000 0.000000 0.000000 0.037314
#
#
# Mechanical properties :
#
#
# Convention : Reuss Voigt Hill
#
# Bulk Modulus (GPa) = 65.64284 65.79577 65.71930
# Shear Modulus (GPa) = 29.13294 29.25193 29.19243
#
# Velocity S-wave (km/s) = 3.89610 3.90405 3.90008
# Velocity P-wave (km/s) = 7.37851 7.38950 7.38401
#
# Compressibility (1/GPa) = 0.01523395
#
# Stress axis : x y z
#
# Youngs Moduli (GPa) = 77.12882 77.12882 79.67083
#
# Poissons Ratio (x) = 0.36705 0.27348
# Poissons Ratio (y) = 0.36705 0.27348
# Poissons Ratio (z) = 0.26476 0.26476
#
# Static dielectric constant tensor:
#      x y z
#    x 3.425650 0.000000 0.000000 
#    y 0.000000 3.425650 0.000000 
#    z 0.000000 0.000000 3.837390 
# 
# 
# High freq. dielectric constant tensor:
#      x y z
#    x 1.722740 0.000000 0.000000 
#    y 0.000000 1.722740 0.000000 
#    z 0.000000 0.000000 1.771460 
# 
# From -- ./inp_files/216.got.cif
#   From: 2010.03.12/outbox.cif.g09.slc.cpg/sg79_cif.got.tgz:216.got - 2010.04.16 16:38:49.
