data_PCOD8302952
_publ_section_title
;
Structure prediction by ZEFSAII (Michael W. Deem and Ramdas Pophale) SiO2 
 PCOD8302952
Probable space group: P 4/M
;
_chemical_formula_sum "Si O2"
_cell_formula_units_Z 44
_cell_length_a 8.598534
_cell_length_b 8.598534
_cell_length_c 27.959720
_cell_angle_alpha 90.000000
_cell_angle_beta 90.000000
_cell_angle_gamma 90.000000
_cell_volume 2067.195941
_symmetry_space_group_name_H-M "P 4/M"
_symmetry_group_IT_number 83
_symmetry_cell_setting 'tetragonal'
loop_
_space_group_symop_operation_xyz
x,y,z
-y,x,z
-x,-y,z
y,-x,z
-x,-y,-z
y,-x,-z
x,y,-z
-y,x,-z
loop_
_atom_site_type_symbol
_atom_site_label
_atom_site_fract_x
_atom_site_fract_y
_atom_site_fract_z
Si Si1 0.729054 0.389469 0.781267
Si Si2 0.732233 0.388322 0.500000
Si Si3 0.382648 0.274081 0.327762
Si Si4 0.887514 0.230725 0.587488
Si Si5 0.733123 0.397397 0.054216
Si Si6 0.902373 0.236814 0.136142
O O1 0.703160 0.570755 0.791698
O O2 0.780933 0.359862 0.726756
O O3 0.865355 0.330552 0.815539
O O4 0.704980 0.571599 0.500000
O O5 0.831352 0.347239 0.546611
O O6 0.564710 0.294784 0.338384
O O7 0.310271 0.142190 0.361287
O O8 0.070216 0.205073 0.582347
O O9 0.700612 0.577718 0.063939
O O10 0.866761 0.340764 0.089754
O O11 0.791246 0.371777 0.000000
O O12 0.082978 0.201120 0.135137
#
# Coordination Sequence:
#
# PCOD8302952 Si02
#       6
#     8   4   8   8   8   8
#     4   9  19  37  60  83 107 139 183 232 274 317
#     4  11  24  41  62  86 110 141 186 235 276 320
#     4   9  19  37  60  85 111 141 182 229 274 322
#     4  11  24  39  56  83 118 151 183 222 270 325
#     4   9  19  37  60  83 105 133 175 225 272 321
#     4  11  24  37  50  76 114 149 180 219 268 322
#
# _framework density 21.284869
#
# number of rings (size 3 to 8) (size 9 to 14) (size 15 to 20)
#    0.000    2.091    0.000    4.364    0.000   12.364 
#    0.000    8.182    0.000    0.000    0.000    0.000 
#    0.000    0.000    0.000    0.000    0.000    0.000 
#
# Total GULP energy -545798.183958 kJ/mol
# GULP energy per Si atom -12404.504181 kJ/mol
# Density = 2.123642 g / cm^3
# Si number density = 21.284869 Si / 1000 Ang^3
#
#
#
# Elastic Constant Matrix: (Units=GPa)
#
#
# Indices 1 2 3 4 5 6 
#
# 1 14.6867 -9.0956 9.8067 0.0000 0.0000 -1.6095
# 2 -9.0956 14.6867 9.8067 0.0000 0.0000 1.6095
# 3 9.8067 9.8067 111.3794 0.0000 0.0000 0.0000
# 4 0.0000 0.0000 0.0000 7.3538 0.0000 0.0000
# 5 0.0000 0.0000 0.0000 0.0000 7.3538 0.0000
# 6 -1.6095 1.6095 0.0000 0.0000 0.0000 35.5132
#
#
#
# Elastic Compliance Matrix: (Units=1/GPa)
#
#
# Indices 1 2 3 4 5 6 
#
# 1 0.150545 0.108238 -0.022785 0.000000 0.000000 0.001917
# 2 0.108238 0.150545 -0.022785 0.000000 0.000000 -0.001917
# 3 -0.022785 -0.022785 0.012991 0.000000 0.000000 0.000000
# 4 0.000000 0.000000 0.000000 0.135984 0.000000 0.000000
# 5 0.000000 0.000000 0.000000 0.000000 0.135984 0.000000
# 6 0.001917 -0.001917 0.000000 0.000000 0.000000 0.028332
#
#
# Mechanical properties :
#
#
# Convention : Reuss Voigt Hill
#
# Bulk Modulus (GPa) = 2.27574 17.97647 10.12611
# Shear Modulus (GPa) = 7.86759 18.72652 13.29705
#
# Velocity S-wave (km/s) = 1.92467 2.96937 2.50215
# Velocity P-wave (km/s) = 2.45166 4.49669 3.62152
#
# Compressibility (1/GPa) = 0.43941678
#
# Stress axis : x y z
#
# Youngs Moduli (GPa) = 6.64251 6.64251 76.97830
#
# Poissons Ratio (x) = -0.71897 1.75397
# Poissons Ratio (y) = -0.71897 1.75397
# Poissons Ratio (z) = 0.15135 0.15135
#
# Static dielectric constant tensor:
#      x y z
#    x 3.694210 0.000000 0.000000 
#    y 0.000000 3.694210 0.000000 
#    z 0.000000 0.000000 3.864400 
# 
# 
# High freq. dielectric constant tensor:
#      x y z
#    x 1.830410 0.000000 0.000000 
#    y 0.000000 1.830410 0.000000 
#    z 0.000000 0.000000 1.845810 
# 
# From -- ./inp_files/3358.got.cif
#   From: 2010.03.12/outbox.cif.g09.slc.cpg/sg83_2_cif.got.tgz:3358.got - 2010.04.08 20:05:18.
