data_PCOD8302364
_publ_section_title
;
Structure prediction by ZEFSAII (Michael W. Deem and Ramdas Pophale) SiO2 
 PCOD8302364
Probable space group: I -4 
;
_chemical_formula_sum "Si O2"
_cell_formula_units_Z 60
_cell_length_a 14.757428
_cell_length_b 14.757428
_cell_length_c 13.365062
_cell_angle_alpha 90.000000
_cell_angle_beta 90.000000
_cell_angle_gamma 90.000000
_cell_volume 2910.665671
_symmetry_space_group_name_H-M "I -4 "
_symmetry_group_IT_number 82
_symmetry_cell_setting 'tetragonal'
loop_
_space_group_symop_operation_xyz
x,y,z
y,-x,-z
-x,-y,z
-y,x,-z
1/2+x,1/2+y,1/2+z
1/2+y,1/2-x,1/2-z
1/2-x,1/2-y,1/2+z
1/2-y,1/2+x,1/2-z
loop_
_atom_site_type_symbol
_atom_site_label
_atom_site_fract_x
_atom_site_fract_y
_atom_site_fract_z
Si Si1 0.955771 0.379088 0.203814
Si Si2 0.384692 0.751984 0.851921
Si Si3 0.497446 0.646689 0.993865
Si Si4 0.426428 0.168090 0.524660
Si Si5 0.188664 0.931154 0.312909
Si Si6 0.632328 0.033195 0.204034
Si Si7 0.961634 0.877164 0.051235
Si Si8 0.000000 0.000000 0.227771
O O1 0.890371 0.465519 0.211614
O O2 0.903716 0.289689 0.240427
O O3 0.993276 0.373449 0.092050
O O4 0.355967 0.828004 0.932135
O O5 0.307176 0.677017 0.833001
O O6 0.474424 0.703757 0.895383
O O7 0.518054 0.716019 0.084749
O O8 0.585727 0.587367 0.971292
O O9 0.442779 0.127359 0.413940
O O10 0.431870 0.275363 0.535745
O O11 0.261629 0.956531 0.229423
O O12 0.084487 0.962040 0.291555
O O13 0.569503 0.100331 0.270824
O O14 0.961217 0.914718 0.164431
O O15 0.063808 0.890418 0.012053
#
# Coordination Sequence:
#
# PCOD8302364 Si02
#       8
#     8   8   8   8   8   8   8   4
#     4   9  20  37  59  83 110 147 189 242 306 369
#     4  10  21  37  58  87 115 147 198 257 309 366
#     4   9  18  34  56  81 113 152 188 233 300 371
#     4  11  22  39  61  87 119 153 205 262 311 377
#     4  11  21  37  60  90 124 159 207 259 317 390
#     4  11  26  44  62  87 124 175 220 261 317 390
#     4   9  19  35  56  82 112 155 198 243 309 377
#     4  10  19  34  61  90 126 160 194 254 328 396
#
# _framework density 20.61384
#
# number of rings (size 3 to 8) (size 9 to 14) (size 15 to 20)
#    0.000    2.133    0.000    4.800    0.000    7.467 
#    0.000    8.000    0.000    0.000    0.000    0.000 
#    0.000    0.000    0.000    0.000    0.000    0.000 
#
# Total GULP energy -371769.540608 kJ/mol
# GULP energy per Si atom -12392.318020 kJ/mol
# Density = 2.056692 g / cm^3
# Si number density = 20.613840 Si / 1000 Ang^3
#
#
#
# Elastic Constant Matrix: (Units=GPa)
#
#
# Indices 1 2 3 4 5 6 
#
# 1 85.8663 28.1986 26.5472 0.0000 0.0000 -7.6892
# 2 28.1986 85.8663 26.5472 0.0000 0.0000 7.6892
# 3 26.5472 26.5472 96.8912 0.0000 0.0000 0.0000
# 4 0.0000 0.0000 0.0000 26.5042 0.0000 0.0000
# 5 0.0000 0.0000 0.0000 0.0000 26.5042 0.0000
# 6 -7.6892 7.6892 0.0000 0.0000 0.0000 19.9645
#
#
#
# Elastic Compliance Matrix: (Units=1/GPa)
#
#
# Indices 1 2 3 4 5 6 
#
# 1 0.014687 -0.004639 -0.002753 0.000000 0.000000 0.007443
# 2 -0.004639 0.014687 -0.002753 0.000000 0.000000 -0.007443
# 3 -0.002753 -0.002753 0.011830 0.000000 0.000000 0.000000
# 4 0.000000 0.000000 0.000000 0.037730 0.000000 0.000000
# 5 0.000000 0.000000 0.000000 0.000000 0.037730 0.000000
# 6 0.007443 -0.007443 0.000000 0.000000 0.000000 0.055822
#
#
# Mechanical properties :
#
#
# Convention : Reuss Voigt Hill
#
# Bulk Modulus (GPa) = 47.81538 47.91220 47.86379
# Shear Modulus (GPa) = 25.03170 27.08329 26.05749
#
# Velocity S-wave (km/s) = 3.48848 3.62863 3.55924
# Velocity P-wave (km/s) = 6.28269 6.39133 6.33724
#
# Compressibility (1/GPa) = 0.02091377
#
# Stress axis : x y z
#
# Youngs Moduli (GPa) = 68.08727 68.08727 84.53418
#
# Poissons Ratio (x) = 0.31583 0.23274
# Poissons Ratio (y) = 0.31583 0.23274
# Poissons Ratio (z) = 0.18746 0.18746
#
# Static dielectric constant tensor:
#      x y z
#    x 3.718500 0.000000 0.000000 
#    y 0.000000 3.718500 0.000000 
#    z 0.000000 0.000000 3.896970 
# 
# 
# High freq. dielectric constant tensor:
#      x y z
#    x 1.799710 0.000000 0.000000 
#    y 0.000000 1.799710 0.000000 
#    z 0.000000 0.000000 1.812380 
# 
# From -- ./inp_files/2342.got.cif
#   From: 2010.03.12/outbox.cif.g09.slc.cpg/sg82_2_cif.got.tgz:2342.got - 2010.04.08 20:02:50.
