data_PCOD8302113
_publ_section_title
;
Structure prediction by ZEFSAII (Michael W. Deem and Ramdas Pophale) SiO2 
 PCOD8302113
Probable space group: I 4
;
_chemical_formula_sum "Si O2"
_cell_formula_units_Z 36
_cell_length_a 12.833373
_cell_length_b 12.833373
_cell_length_c 9.464834
_cell_angle_alpha 90.000000
_cell_angle_beta 90.000000
_cell_angle_gamma 90.000000
_cell_volume 1558.815214
_symmetry_space_group_name_H-M "I 4"
_symmetry_group_IT_number 79
_symmetry_cell_setting 'tetragonal'
loop_
_space_group_symop_operation_xyz
x,y,z
-y,x,z
-x,-y,z
y,-x,z
1/2+x,1/2+y,1/2+z
1/2-y,1/2+x,1/2+z
1/2-x,1/2-y,1/2+z
1/2+y,1/2-x,1/2+z
loop_
_atom_site_type_symbol
_atom_site_label
_atom_site_fract_x
_atom_site_fract_y
_atom_site_fract_z
Si Si1 0.231656 0.535780 0.659350
Si Si2 0.349504 0.682629 0.484087
Si Si3 0.000000 0.500000 0.571544
Si Si4 0.081855 0.143538 0.691128
Si Si5 0.592132 0.801210 0.954022
O O1 0.254486 0.647130 0.585338
O O2 0.306903 0.452065 0.583157
O O3 0.107291 0.512055 0.660296
O O4 0.264684 0.542981 0.824961
O O5 0.347893 0.595271 0.360213
O O6 0.337277 0.792925 0.405013
O O7 0.014492 0.397806 0.476734
O O8 0.119865 0.240847 0.599115
O O9 0.961017 0.140245 0.646843
#
# Coordination Sequence:
#
# PCOD8302113 Si02
#       5
#     8   8   4   8   8
#     4  11  25  44  72 103 142 184 241 295 351 426
#     4  11  24  45  71 101 140 191 229 294 362 417
#     4  10  26  46  68 106 146 188 226 300 364 412
#     4  11  25  46  69  96 138 188 230 289 359 422
#     4  11  26  42  74 105 137 186 243 292 350 429
#
# _framework density 23.094462
#
# number of rings (size 3 to 8) (size 9 to 14) (size 15 to 20)
#    0.000    1.111    2.222    2.000    9.333    4.000 
#    0.000    0.000    0.000    0.000    0.000    0.000 
#    0.000    0.000    0.000    0.000    0.000    0.000 
#
# Total GULP energy -223019.331931 kJ/mol
# GULP energy per Si atom -12389.962885 kJ/mol
# Density = 2.304190 g / cm^3
# Si number density = 23.094462 Si / 1000 Ang^3
#
#
#
# Elastic Constant Matrix: (Units=GPa)
#
#
# Indices 1 2 3 4 5 6 
#
# 1 75.5706 47.1659 48.0179 0.0000 0.0000 -5.0004
# 2 47.1659 75.5706 48.0179 0.0000 0.0000 5.0004
# 3 48.0179 48.0179 164.4789 0.0000 0.0000 0.0000
# 4 0.0000 0.0000 0.0000 25.6428 0.0000 0.0000
# 5 0.0000 0.0000 0.0000 0.0000 25.6428 0.0000
# 6 -5.0004 5.0004 0.0000 0.0000 0.0000 30.3997
#
#
#
# Elastic Compliance Matrix: (Units=1/GPa)
#
#
# Indices 1 2 3 4 5 6 
#
# 1 0.023965 -0.013405 -0.003083 0.000000 0.000000 0.006147
# 2 -0.013405 0.023965 -0.003083 0.000000 0.000000 -0.006147
# 3 -0.003083 -0.003083 0.007880 0.000000 0.000000 0.000000
# 4 0.000000 0.000000 0.000000 0.038997 0.000000 0.000000
# 5 0.000000 0.000000 0.000000 0.000000 0.038997 0.000000
# 6 0.006147 -0.006147 0.000000 0.000000 0.000000 0.034917
#
#
# Mechanical properties :
#
#
# Convention : Reuss Voigt Hill
#
# Bulk Modulus (GPa) = 59.99522 66.89147 63.44335
# Shear Modulus (GPa) = 23.42821 27.83163 25.62992
#
# Velocity S-wave (km/s) = 3.18850 3.47525 3.33496
# Velocity P-wave (km/s) = 6.29206 6.71791 6.50847
#
# Compressibility (1/GPa) = 0.01666800
#
# Stress axis : x y z
#
# Youngs Moduli (GPa) = 41.72813 41.72813 126.90712
#
# Poissons Ratio (x) = 0.55936 0.39123
# Poissons Ratio (y) = 0.55936 0.39123
# Poissons Ratio (z) = 0.12864 0.12864
#
# Static dielectric constant tensor:
#      x y z
#    x 4.055980 0.000000 0.000000 
#    y 0.000000 4.055980 0.000000 
#    z 0.000000 0.000000 3.918080 
# 
# 
# High freq. dielectric constant tensor:
#      x y z
#    x 1.910510 0.000000 0.000000 
#    y 0.000000 1.910510 0.000000 
#    z 0.000000 0.000000 1.914480 
# 
# From -- ./inp_files/510.got.cif
#   From: 2010.03.12/outbox.cif.g09.slc.cpg/sg79_cif.got.tgz:510.got - 2010.04.16 16:38:49.
