data_PCOD8302045
_publ_section_title
;
Structure prediction by ZEFSAII (Michael W. Deem and Ramdas Pophale) SiO2 
 PCOD8302045
Probable space group: P 43
;
_chemical_formula_sum "Si O2"
_cell_formula_units_Z 28
_cell_length_a 11.114411
_cell_length_b 11.114411
_cell_length_c 10.208613
_cell_angle_alpha 90.000000
_cell_angle_beta 90.000000
_cell_angle_gamma 90.000000
_cell_volume 1261.071310
_symmetry_space_group_name_H-M "P 43"
_symmetry_group_IT_number 78
_symmetry_cell_setting 'tetragonal'
loop_
_space_group_symop_operation_xyz
x,y,z
-y,x,3/4+z
-x,-y,1/2+z
y,-x,1/4+z
loop_
_atom_site_type_symbol
_atom_site_label
_atom_site_fract_x
_atom_site_fract_y
_atom_site_fract_z
Si Si1 0.313875 0.720562 0.213860
Si Si2 0.018422 0.282034 0.067304
Si Si3 0.575179 0.823409 0.675022
Si Si4 0.408013 0.252579 0.700995
Si Si5 0.987611 0.638391 0.847851
Si Si6 0.912120 0.036417 0.167274
Si Si7 0.478578 0.602680 0.797965
O O1 0.266124 0.853597 0.247213
O O2 0.245593 0.620577 0.297547
O O3 0.455866 0.717934 0.243870
O O4 0.281845 0.687906 0.064616
O O5 0.020734 0.373313 0.190434
O O6 0.976429 0.156773 0.123188
O O7 0.921775 0.326442 0.962383
O O8 0.447595 0.884755 0.651170
O O9 0.554707 0.725749 0.789825
O O10 0.370532 0.339414 0.581649
O O11 0.401899 0.116384 0.651984
O O12 0.957037 0.770277 0.899462
O O13 0.935547 0.024133 0.324193
O O14 0.483494 0.534727 0.658798
#
# Coordination Sequence:
#
# PCOD8302045 Si02
#       7
#     4   4   4   4   4   4   4
#     4  12  27  48  77 110 155 196 255 324 388 464
#     4  11  25  49  69 107 147 198 251 314 376 460
#     4  12  27  43  77 103 147 199 244 306 392 447
#     4  12  26  50  73 112 151 194 257 324 385 466
#     4  11  26  48  71 105 152 193 251 314 380 455
#     4  10  24  45  72 101 145 188 251 301 366 441
#     4  12  27  45  75 108 147 194 249 307 387 461
#
# _framework density 22.203344000000001
#
# number of rings (size 3 to 8) (size 9 to 14) (size 15 to 20)
#    0.000    0.571    2.857    4.286   12.000    0.000 
#    0.000    0.000    0.000    0.000    0.000    0.000 
#    0.000    0.000    0.000    0.000    0.000    0.000 
#
# Total GULP energy -347235.132727 kJ/mol
# GULP energy per Si atom -12401.254740 kJ/mol
# Density = 2.215281 g / cm^3
# Si number density = 22.203344 Si / 1000 Ang^3
#
#
#
# Elastic Constant Matrix: (Units=GPa)
#
#
# Indices 1 2 3 4 5 6 
#
# 1 91.2677 47.0757 31.2960 0.0000 0.0000 6.8010
# 2 47.0757 91.2677 31.2960 0.0000 0.0000 -6.8010
# 3 31.2960 31.2960 87.8772 0.0000 0.0000 0.0000
# 4 0.0000 0.0000 0.0000 42.8920 0.0000 0.0000
# 5 0.0000 0.0000 0.0000 0.0000 42.8920 0.0000
# 6 6.8010 -6.8010 0.0000 0.0000 0.0000 30.9772
#
#
#
# Elastic Compliance Matrix: (Units=1/GPa)
#
#
# Indices 1 2 3 4 5 6 
#
# 1 0.016443 -0.007826 -0.003069 0.000000 0.000000 -0.005328
# 2 -0.007826 0.016443 -0.003069 0.000000 0.000000 0.005328
# 3 -0.003069 -0.003069 0.013565 0.000000 0.000000 0.000000
# 4 0.000000 0.000000 0.000000 0.023314 0.000000 0.000000
# 5 0.000000 0.000000 0.000000 0.000000 0.023314 0.000000
# 6 -0.005328 0.005328 0.000000 0.000000 0.000000 0.034621
#
#
# Mechanical properties :
#
#
# Convention : Reuss Voigt Hill
#
# Bulk Modulus (GPa) = 53.98417 54.41647 54.20032
# Shear Modulus (GPa) = 30.90196 34.06854 32.48525
#
# Velocity S-wave (km/s) = 3.73469 3.92138 3.82917
# Velocity P-wave (km/s) = 6.55466 6.71300 6.63430
#
# Compressibility (1/GPa) = 0.01852395
#
# Stress axis : x y z
#
# Youngs Moduli (GPa) = 60.81743 60.81743 73.71758
#
# Poissons Ratio (x) = 0.47595 0.22622
# Poissons Ratio (y) = 0.47595 0.22622
# Poissons Ratio (z) = 0.18663 0.18663
#
# Static dielectric constant tensor:
#      x y z
#    x 4.066290 0.000000 0.000000 
#    y 0.000000 4.066290 0.000000 
#    z 0.000000 0.000000 4.382810 
# 
# 
# High freq. dielectric constant tensor:
#      x y z
#    x 1.883510 0.000000 0.000000 
#    y 0.000000 1.883510 0.000000 
#    z 0.000000 0.000000 1.879190 
# 
# From -- ./inp_files/640.got.cif
#   From: 2010.03.12/outbox.cif.g09.slc.cpg/sg78_cif.got.tgz:640.got - 2010.04.16 16:37:20.
