data_PCOD8302808
_publ_section_title
;
Structure prediction by ZEFSAII (Michael W. Deem and Ramdas Pophale) SiO2 
 PCOD8302808
Probable space group: P 4/M
;
_chemical_formula_sum "Si O2"
_cell_formula_units_Z 40
_cell_length_a 14.777034
_cell_length_b 14.777034
_cell_length_c 8.886749
_cell_angle_alpha 90.000000
_cell_angle_beta 90.000000
_cell_angle_gamma 90.000000
_cell_volume 1940.517033
_symmetry_space_group_name_H-M "P 4/M"
_symmetry_group_IT_number 83
_symmetry_cell_setting 'tetragonal'
loop_
_space_group_symop_operation_xyz
x,y,z
-y,x,z
-x,-y,z
y,-x,z
-x,-y,-z
y,-x,-z
x,y,-z
-y,x,-z
loop_
_atom_site_type_symbol
_atom_site_label
_atom_site_fract_x
_atom_site_fract_y
_atom_site_fract_z
Si Si1 0.562146 0.082927 0.675237
Si Si2 0.204484 0.601646 0.669908
Si Si3 0.574439 0.619958 0.822843
Si Si4 0.218400 0.106817 0.324048
Si Si5 0.079971 0.243481 0.820812
O O1 0.589447 0.071523 0.500000
O O2 0.499880 0.170700 0.703875
O O3 0.652210 0.091567 0.773174
O O4 0.500000 0.000000 0.728756
O O5 0.237433 0.610139 0.500000
O O6 0.291479 0.626836 0.768564
O O7 0.126010 0.674884 0.700605
O O8 0.470821 0.622680 0.762374
O O9 0.575681 0.618391 0.000000
O O10 0.193045 0.100858 0.500000
O O11 0.162380 0.186288 0.245966
O O12 0.199008 0.011541 0.244181
O O13 0.079624 0.236856 0.000000
#
# Coordination Sequence:
#
# PCOD8302808 Si02
#       5
#     8   8   8   8   8
#     4  10  20  41  66  90 124 166 209 251 304 373
#     4  10  22  38  62  91 119 158 213 263 303 364
#     4   9  20  38  56  79 119 166 205 248 312 378
#     4  11  24  46  69  92 126 172 217 262 319 385
#     4  12  26  43  66 101 133 164 209 268 325 381
#
# _framework density 20.613060999999998
#
# number of rings (size 3 to 8) (size 9 to 14) (size 15 to 20)
#    0.000    1.600    2.000    3.000    2.800    4.000 
#    0.000    3.000    0.000    0.000    0.000    0.000 
#    0.000    0.000    0.000    0.000    0.000    0.000 
#
# Total GULP energy -496015.488170 kJ/mol
# GULP energy per Si atom -12400.387204 kJ/mol
# Density = 2.056614 g / cm^3
# Si number density = 20.613061 Si / 1000 Ang^3
#
#
#
# Elastic Constant Matrix: (Units=GPa)
#
#
# Indices 1 2 3 4 5 6 
#
# 1 91.9061 25.6159 46.2442 0.0000 0.0000 -7.5607
# 2 25.6159 91.9061 46.2442 0.0000 0.0000 7.5607
# 3 46.2442 46.2442 115.7903 0.0000 0.0000 0.0000
# 4 0.0000 0.0000 0.0000 29.0961 0.0000 0.0000
# 5 0.0000 0.0000 0.0000 0.0000 29.0961 0.0000
# 6 -7.5607 7.5607 0.0000 0.0000 0.0000 28.6530
#
#
#
# Elastic Compliance Matrix: (Units=1/GPa)
#
#
# Indices 1 2 3 4 5 6 
#
# 1 0.014230 -0.001821 -0.004956 0.000000 0.000000 0.004235
# 2 -0.001821 0.014230 -0.004956 0.000000 0.000000 -0.004235
# 3 -0.004956 -0.004956 0.012595 0.000000 0.000000 0.000000
# 4 0.000000 0.000000 0.000000 0.034369 0.000000 0.000000
# 5 0.000000 0.000000 0.000000 0.000000 0.034369 0.000000
# 6 0.004235 -0.004235 0.000000 0.000000 0.000000 0.037136
#
#
# Mechanical properties :
#
#
# Convention : Reuss Voigt Hill
#
# Bulk Modulus (GPa) = 56.85186 59.53458 58.19322
# Shear Modulus (GPa) = 28.36744 29.46892 28.91818
#
# Velocity S-wave (km/s) = 3.71373 3.78514 3.74960
# Velocity P-wave (km/s) = 6.78450 6.93164 6.85846
#
# Compressibility (1/GPa) = 0.01758957
#
# Stress axis : x y z
#
# Youngs Moduli (GPa) = 70.27230 70.27230 79.39664
#
# Poissons Ratio (x) = 0.12796 0.39349
# Poissons Ratio (y) = 0.12796 0.39349
# Poissons Ratio (z) = 0.34827 0.34827
#
# Static dielectric constant tensor:
#      x y z
#    x 3.800070 0.000000 0.000000 
#    y 0.000000 3.800070 0.000000 
#    z 0.000000 0.000000 3.578170 
# 
# 
# High freq. dielectric constant tensor:
#      x y z
#    x 1.811720 0.000000 0.000000 
#    y 0.000000 1.811720 0.000000 
#    z 0.000000 0.000000 1.796370 
# 
# From -- ./inp_files/633.got.cif
#   From: 2010.03.12/outbox.cif.g09.slc.cpg/sg83_1_cif.got.tgz:633.got - 2010.04.08 20:05:18.
