data_PCOD8302455
_publ_section_title
;
Structure prediction by ZEFSAII (Michael W. Deem and Ramdas Pophale) SiO2 
 PCOD8302455
Probable space group: I -4 
;
_chemical_formula_sum "Si O2"
_cell_formula_units_Z 40
_cell_length_a 8.777912
_cell_length_b 8.777912
_cell_length_c 23.925051
_cell_angle_alpha 90.000000
_cell_angle_beta 90.000000
_cell_angle_gamma 90.000000
_cell_volume 1843.466787
_symmetry_space_group_name_H-M "I -4 "
_symmetry_group_IT_number 82
_symmetry_cell_setting 'tetragonal'
loop_
_space_group_symop_operation_xyz
x,y,z
y,-x,-z
-x,-y,z
-y,x,-z
1/2+x,1/2+y,1/2+z
1/2+y,1/2-x,1/2-z
1/2-x,1/2-y,1/2+z
1/2-y,1/2+x,1/2-z
loop_
_atom_site_type_symbol
_atom_site_label
_atom_site_fract_x
_atom_site_fract_y
_atom_site_fract_z
Si Si1 0.353774 0.569414 0.717574
Si Si2 0.702360 0.694616 0.078293
Si Si3 0.590676 0.842038 0.966397
Si Si4 0.882107 0.639312 0.680339
Si Si5 0.022325 0.824618 0.109734
O O1 0.500000 0.500000 0.750257
O O2 0.284990 0.437322 0.676604
O O3 0.224256 0.620725 0.759886
O O4 0.414101 0.696039 0.673641
O O5 0.708880 0.516716 0.060545
O O6 0.591557 0.738110 0.130711
O O7 0.869417 0.732028 0.100278
O O8 0.644762 0.795862 0.027570
O O9 0.743509 0.852190 0.929572
O O10 0.500000 0.000000 0.971973
O O11 0.000000 0.500000 0.678186
O O12 0.000000 0.000000 0.091883
#
# Coordination Sequence:
#
# PCOD8302455 Si02
#       5
#     8   8   8   8   8
#     4  11  22  42  68 104 132 177 242 284 351 427
#     4  11  24  45  65 100 144 183 232 295 363 431
#     4  10  25  43  67 106 141 181 239 299 365 431
#     4  12  23  44  71 101 140 187 236 295 356 435
#     4  10  22  40  73  99 134 180 239 289 352 439
#
# _framework density 21.698250000000002
#
# number of rings (size 3 to 8) (size 9 to 14) (size 15 to 20)
#    0.000    1.200    6.000    0.600    5.600    3.600 
#    3.600    0.000    0.000    0.000    0.000    0.000 
#    0.000    0.000    0.000    0.000    0.000    0.000 
#
# Total GULP energy -247789.066471 kJ/mol
# GULP energy per Si atom -12389.453324 kJ/mol
# Density = 2.164886 g / cm^3
# Si number density = 21.698250 Si / 1000 Ang^3
#
#
#
# Elastic Constant Matrix: (Units=GPa)
#
#
# Indices 1 2 3 4 5 6 
#
# 1 96.9141 25.2696 50.9514 0.0000 0.0000 12.4831
# 2 25.2696 96.9141 50.9514 0.0000 0.0000 -12.4831
# 3 50.9514 50.9514 163.9954 0.0000 0.0000 0.0000
# 4 0.0000 0.0000 0.0000 28.9698 0.0000 0.0000
# 5 0.0000 0.0000 0.0000 0.0000 28.9698 0.0000
# 6 12.4831 -12.4831 0.0000 0.0000 0.0000 27.0820
#
#
#
# Elastic Compliance Matrix: (Units=1/GPa)
#
#
# Indices 1 2 3 4 5 6 
#
# 1 0.013838 -0.002791 -0.003432 0.000000 0.000000 -0.007665
# 2 -0.002791 0.013838 -0.003432 0.000000 0.000000 0.007665
# 3 -0.003432 -0.003432 0.008230 0.000000 0.000000 0.000000
# 4 0.000000 0.000000 0.000000 0.034519 0.000000 0.000000
# 5 0.000000 0.000000 0.000000 0.000000 0.034519 0.000000
# 6 -0.007665 0.007665 0.000000 0.000000 0.000000 0.043991
#
#
# Mechanical properties :
#
#
# Convention : Reuss Voigt Hill
#
# Bulk Modulus (GPa) = 60.25710 68.01871 64.13791
# Shear Modulus (GPa) = 28.77255 32.38105 30.57680
#
# Velocity S-wave (km/s) = 3.64542 3.86727 3.75798
# Velocity P-wave (km/s) = 6.74904 7.16635 6.96083
#
# Compressibility (1/GPa) = 0.01659555
#
# Stress axis : x y z
#
# Youngs Moduli (GPa) = 72.26571 72.26570 121.50136
#
# Poissons Ratio (x) = 0.20169 0.41701
# Poissons Ratio (y) = 0.20169 0.41701
# Poissons Ratio (z) = 0.24802 0.24802
#
# Static dielectric constant tensor:
#      x y z
#    x 4.094740 0.000000 0.000000 
#    y 0.000000 4.094740 0.000000 
#    z 0.000000 0.000000 4.012900 
# 
# 
# High freq. dielectric constant tensor:
#      x y z
#    x 1.850240 0.000000 0.000000 
#    y 0.000000 1.850240 0.000000 
#    z 0.000000 0.000000 1.858410 
# 
# From -- ./inp_files/3336.got.cif
#   From: 2010.03.12/outbox.cif.g09.slc.cpg/sg82_2_cif.got.tgz:3336.got - 2010.04.08 20:02:50.
