data_PCOD8302441
_publ_section_title
;
Structure prediction by ZEFSAII (Michael W. Deem and Ramdas Pophale) SiO2 
 PCOD8302441
Probable space group: I -4 
;
_chemical_formula_sum "Si O2"
_cell_formula_units_Z 32
_cell_length_a 10.149601
_cell_length_b 10.149601
_cell_length_c 12.768309
_cell_angle_alpha 90.000000
_cell_angle_beta 90.000000
_cell_angle_gamma 90.000000
_cell_volume 1315.319697
_symmetry_space_group_name_H-M "I -4 "
_symmetry_group_IT_number 82
_symmetry_cell_setting 'tetragonal'
loop_
_space_group_symop_operation_xyz
x,y,z
y,-x,-z
-x,-y,z
-y,x,-z
1/2+x,1/2+y,1/2+z
1/2+y,1/2-x,1/2-z
1/2-x,1/2-y,1/2+z
1/2-y,1/2+x,1/2-z
loop_
_atom_site_type_symbol
_atom_site_label
_atom_site_fract_x
_atom_site_fract_y
_atom_site_fract_z
Si Si1 0.500000 0.000000 0.993915
Si Si2 0.740084 0.940498 0.373701
Si Si3 0.000000 0.000000 0.500000
Si Si4 0.000000 0.000000 0.000000
Si Si5 0.975643 0.320400 0.192413
Si Si6 0.686340 0.417778 0.664951
O O1 0.475352 0.128394 0.065910
O O2 0.368398 0.982685 0.923648
O O3 0.880361 0.949058 0.429475
O O4 0.689566 0.791009 0.374125
O O5 0.752904 0.993527 0.255728
O O6 0.866030 0.992718 0.069401
O O7 0.847303 0.405202 0.227473
O O8 0.943079 0.166008 0.200400
#
# Coordination Sequence:
#
# PCOD8302441 Si02
#       6
#     4   8   2   2   8   8
#     4  10  21  47  70 106 142 212 252 314 380 462
#     4  12  27  45  75 109 156 195 258 319 400 453
#     4  12  30  44  72 122 156 200 242 332 384 478
#     4  12  30  52  76 114 148 212 270 324 396 474
#     4   9  22  42  75 101 147 205 255 304 379 461
#     4  12  27  47  75 109 151 197 258 322 385 472
#
# _framework density 24.328686999999999
#
# number of rings (size 3 to 8) (size 9 to 14) (size 15 to 20)
#    0.000    1.250    0.000    5.250   14.000    2.000 
#    0.000    0.000    0.000    0.000    0.000    0.000 
#    0.000    0.000    0.000    0.000    0.000    0.000 
#
# Total GULP energy -198412.207415 kJ/mol
# GULP energy per Si atom -12400.762963 kJ/mol
# Density = 2.427331 g / cm^3
# Si number density = 24.328687 Si / 1000 Ang^3
#
#
#
# Elastic Constant Matrix: (Units=GPa)
#
#
# Indices 1 2 3 4 5 6 
#
# 1 106.4285 11.2874 58.5930 0.0000 0.0000 -13.8617
# 2 11.2874 106.4285 58.5930 0.0000 0.0000 13.8617
# 3 58.5930 58.5930 159.6315 0.0000 0.0000 0.0000
# 4 0.0000 0.0000 0.0000 35.3043 0.0000 0.0000
# 5 0.0000 0.0000 0.0000 0.0000 35.3044 0.0000
# 6 -13.8617 13.8617 0.0000 0.0000 0.0000 46.7756
#
#
#
# Elastic Compliance Matrix: (Units=1/GPa)
#
#
# Indices 1 2 3 4 5 6 
#
# 1 0.012445 0.000941 -0.004913 0.000000 0.000000 0.003409
# 2 0.000941 0.012445 -0.004913 0.000000 0.000000 -0.003409
# 3 -0.004913 -0.004913 0.009871 0.000000 0.000000 0.000000
# 4 0.000000 0.000000 0.000000 0.028325 0.000000 0.000000
# 5 0.000000 0.000000 0.000000 0.000000 0.028325 0.000000
# 6 0.003409 -0.003409 0.000000 0.000000 0.000000 0.023399
#
#
# Mechanical properties :
#
#
# Convention : Reuss Voigt Hill
#
# Bulk Modulus (GPa) = 58.85727 69.93724 64.39725
# Shear Modulus (GPa) = 36.16727 39.74455 37.95591
#
# Velocity S-wave (km/s) = 3.85984 4.04623 3.95413
# Velocity P-wave (km/s) = 6.64150 7.11607 6.88288
#
# Compressibility (1/GPa) = 0.01699026
#
# Stress axis : x y z
#
# Youngs Moduli (GPa) = 80.35190 80.35190 101.30236
#
# Poissons Ratio (x) = -0.07562 0.49775
# Poissons Ratio (y) = -0.07562 0.49775
# Poissons Ratio (z) = 0.39481 0.39481
#
# Static dielectric constant tensor:
#      x y z
#    x 4.295590 0.000000 0.000000 
#    y 0.000000 4.295590 0.000000 
#    z 0.000000 0.000000 4.478360 
# 
# 
# High freq. dielectric constant tensor:
#      x y z
#    x 1.965570 0.000000 0.000000 
#    y 0.000000 1.965570 0.000000 
#    z 0.000000 0.000000 1.976620 
# 
# From -- ./inp_files/1569.got.cif
#   From: 2010.03.12/outbox.cif.g09.slc.cpg/sg82_1_cif.got.tgz:1569.got - 2010.04.08 20:02:50.
