data_PCOD8302710
_publ_section_title
;
Structure prediction by ZEFSAII (Michael W. Deem and Ramdas Pophale) SiO2 
 PCOD8302710
Probable space group: P 4/M
;
_chemical_formula_sum "Si O2"
_cell_formula_units_Z 40
_cell_length_a 12.353390
_cell_length_b 12.353390
_cell_length_c 13.318854
_cell_angle_alpha 90.000000
_cell_angle_beta 90.000000
_cell_angle_gamma 90.000000
_cell_volume 2032.540290
_symmetry_space_group_name_H-M "P 4/M"
_symmetry_group_IT_number 83
_symmetry_cell_setting 'tetragonal'
loop_
_space_group_symop_operation_xyz
x,y,z
-y,x,z
-x,-y,z
y,-x,z
-x,-y,-z
y,-x,-z
x,y,-z
-y,x,-z
loop_
_atom_site_type_symbol
_atom_site_label
_atom_site_fract_x
_atom_site_fract_y
_atom_site_fract_z
Si Si1 0.291148 0.998235 0.387488
Si Si2 0.395471 0.792502 0.695011
Si Si3 0.005355 0.174003 0.189296
Si Si4 0.924444 0.601699 0.113993
Si Si5 0.377038 0.234494 0.384751
O O1 0.243056 0.991109 0.500000
O O2 0.192280 0.991187 0.309476
O O3 0.358308 0.107364 0.371253
O O4 0.374631 0.900536 0.369614
O O5 0.401952 0.820841 0.813140
O O6 0.504610 0.736359 0.656571
O O7 0.297078 0.710011 0.681881
O O8 0.110363 0.103320 0.159069
O O9 0.007298 0.288050 0.131370
O O10 0.000000 0.500000 0.139253
O O11 0.882423 0.596776 0.000000
O O12 0.366200 0.271502 0.500000
#
# Coordination Sequence:
#
# PCOD8302710 Si02
#       5
#     8   8   8   8   8
#     4  10  19  33  54  80 113 152 192 231 276 336
#     4  11  22  38  57  83 116 149 187 236 284 333
#     4  10  21  36  55  83 118 150 182 228 286 344
#     4  10  22  40  61  83 108 146 197 244 284 329
#     4  11  22  36  58  86 116 152 190 229 278 338
#
# _framework density 19.679805999999999
#
# number of rings (size 3 to 8) (size 9 to 14) (size 15 to 20)
#    0.000    1.600    0.000    7.200    0.000    5.200 
#    0.000    6.000    0.000    0.000    0.000    1.400 
#    0.000    0.000    0.000    0.000    0.000    0.000 
#
# Total GULP energy -496133.536444 kJ/mol
# GULP energy per Si atom -12403.338411 kJ/mol
# Density = 1.963501 g / cm^3
# Si number density = 19.679806 Si / 1000 Ang^3
#
#
#
# Elastic Constant Matrix: (Units=GPa)
#
#
# Indices 1 2 3 4 5 6 
#
# 1 117.1870 49.4514 42.8723 0.0000 0.0000 -4.4478
# 2 49.4514 117.1870 42.8723 0.0000 0.0000 4.4478
# 3 42.8723 42.8723 105.3070 0.0000 0.0000 0.0000
# 4 0.0000 0.0000 0.0000 19.5851 0.0000 0.0000
# 5 0.0000 0.0000 0.0000 0.0000 19.5851 0.0000
# 6 -4.4478 4.4478 0.0000 0.0000 0.0000 15.2425
#
#
#
# Elastic Compliance Matrix: (Units=1/GPa)
#
#
# Indices 1 2 3 4 5 6 
#
# 1 0.011471 -0.003880 -0.003091 0.000000 0.000000 0.004480
# 2 -0.003880 0.011471 -0.003091 0.000000 0.000000 -0.004480
# 3 -0.003091 -0.003091 0.012012 0.000000 0.000000 0.000000
# 4 0.000000 0.000000 0.000000 0.051059 0.000000 0.000000
# 5 0.000000 0.000000 0.000000 0.000000 0.051059 0.000000
# 6 0.004480 -0.004480 0.000000 0.000000 0.000000 0.068220
#
#
# Mechanical properties :
#
#
# Convention : Reuss Voigt Hill
#
# Bulk Modulus (GPa) = 67.41792 67.78592 67.60192
# Shear Modulus (GPa) = 21.70512 24.51491 23.11001
#
# Velocity S-wave (km/s) = 3.32462 3.53326 3.43052
# Velocity P-wave (km/s) = 7.00494 7.15293 7.07932
#
# Compressibility (1/GPa) = 0.01483285
#
# Stress axis : x y z
#
# Youngs Moduli (GPa) = 87.17314 87.17314 83.24686
#
# Poissons Ratio (x) = 0.33825 0.25728
# Poissons Ratio (y) = 0.33825 0.25728
# Poissons Ratio (z) = 0.26941 0.26941
#
# Static dielectric constant tensor:
#      x y z
#    x 3.485760 0.000000 0.000000 
#    y 0.000000 3.485760 0.000000 
#    z 0.000000 0.000000 3.647690 
# 
# 
# High freq. dielectric constant tensor:
#      x y z
#    x 1.761850 0.000000 0.000000 
#    y 0.000000 1.761850 0.000000 
#    z 0.000000 0.000000 1.764360 
# 
# From -- ./inp_files/2269.got.cif
#   From: 2010.03.12/outbox.cif.g09.slc.cpg/sg83_2_cif.got.tgz:2269.got - 2010.04.08 20:05:18.
