data_PCOD8302434
_publ_section_title
;
Structure prediction by ZEFSAII (Michael W. Deem and Ramdas Pophale) SiO2 
 PCOD8302434
Probable space group: I -4 
;
_chemical_formula_sum "Si O2"
_cell_formula_units_Z 44
_cell_length_a 14.023124
_cell_length_b 14.023124
_cell_length_c 10.813732
_cell_angle_alpha 90.000000
_cell_angle_beta 90.000000
_cell_angle_gamma 90.000000
_cell_volume 2126.498843
_symmetry_space_group_name_H-M "I -4 "
_symmetry_group_IT_number 82
_symmetry_cell_setting 'tetragonal'
loop_
_space_group_symop_operation_xyz
x,y,z
y,-x,-z
-x,-y,z
-y,x,-z
1/2+x,1/2+y,1/2+z
1/2+y,1/2-x,1/2-z
1/2-x,1/2-y,1/2+z
1/2-y,1/2+x,1/2-z
loop_
_atom_site_type_symbol
_atom_site_label
_atom_site_fract_x
_atom_site_fract_y
_atom_site_fract_z
Si Si1 0.500000 0.500000 0.500000
Si Si2 0.197726 0.955771 0.560958
Si Si3 0.609181 0.767764 0.494629
Si Si4 0.080820 0.818322 0.900270
Si Si5 0.539404 0.855537 0.738413
Si Si6 0.000000 0.000000 0.500000
Si Si7 0.885495 0.235285 0.620211
O O1 0.538210 0.423950 0.401569
O O2 0.268441 0.981877 0.670692
O O3 0.092594 0.999689 0.589529
O O4 0.182585 0.841615 0.548930
O O5 0.235034 0.006390 0.434711
O O6 0.500530 0.752462 0.450159
O O7 0.674756 0.673102 0.509788
O O8 0.602432 0.820356 0.625054
O O9 0.661481 0.837635 0.398025
O O10 0.111966 0.788237 0.764190
O O11 0.438054 0.898928 0.693728
#
# Coordination Sequence:
#
# PCOD8302434 Si02
#       7
#     2   8   8   8   8   2   8
#     4   8  20  42  64  94 132 168 214 272 330 384
#     4  10  21  41  64 100 126 169 215 275 330 379
#     4  11  24  44  66  96 128 174 217 265 333 392
#     4  10  23  42  65  96 130 168 216 268 328 389
#     4  11  23  43  68  93 130 173 225 270 317 402
#     4   8  20  38  64 100 134 156 222 280 332 374
#     4  11  23  42  66  96 130 168 221 271 327 388
#
# _framework density 20.691288
#
# number of rings (size 3 to 8) (size 9 to 14) (size 15 to 20)
#    0.000    1.636    3.636    0.000    2.545    5.818 
#    9.818    0.000    0.000    0.000    0.000    0.000 
#    0.000    0.000    0.000    0.000    0.000    0.000 
#
# Total GULP energy -272641.357258 kJ/mol
# GULP energy per Si atom -12392.788966 kJ/mol
# Density = 2.064419 g / cm^3
# Si number density = 20.691288 Si / 1000 Ang^3
#
#
#
# Elastic Constant Matrix: (Units=GPa)
#
#
# Indices 1 2 3 4 5 6 
#
# 1 100.7703 44.2309 28.9430 0.0000 0.0000 5.4899
# 2 44.2309 100.7703 28.9430 0.0000 0.0000 -5.4899
# 3 28.9430 28.9430 77.8240 0.0000 0.0000 0.0000
# 4 0.0000 0.0000 0.0000 30.8881 0.0000 0.0000
# 5 0.0000 0.0000 0.0000 0.0000 30.8881 0.0000
# 6 5.4899 -5.4899 0.0000 0.0000 0.0000 31.6563
#
#
#
# Elastic Compliance Matrix: (Units=1/GPa)
#
#
# Indices 1 2 3 4 5 6 
#
# 1 0.013201 -0.005102 -0.003012 0.000000 0.000000 -0.003174
# 2 -0.005102 0.013201 -0.003012 0.000000 0.000000 0.003174
# 3 -0.003012 -0.003012 0.015090 0.000000 0.000000 0.000000
# 4 0.000000 0.000000 0.000000 0.032375 0.000000 0.000000
# 5 0.000000 0.000000 0.000000 0.000000 0.032375 0.000000
# 6 -0.003174 0.003174 0.000000 0.000000 0.000000 0.032690
#
#
# Mechanical properties :
#
#
# Convention : Reuss Voigt Hill
#
# Bulk Modulus (GPa) = 51.97599 53.73313 52.85456
# Shear Modulus (GPa) = 29.83337 30.50302 30.16820
#
# Velocity S-wave (km/s) = 3.80127 3.84369 3.82254
# Velocity P-wave (km/s) = 6.66637 6.76195 6.71433
#
# Compressibility (1/GPa) = 0.01923965
#
# Stress axis : x y z
#
# Youngs Moduli (GPa) = 75.75148 75.75148 66.26961
#
# Poissons Ratio (x) = 0.38649 0.19961
# Poissons Ratio (y) = 0.38649 0.19961
# Poissons Ratio (z) = 0.22816 0.22816
#
# Static dielectric constant tensor:
#      x y z
#    x 3.971660 0.000000 0.000000 
#    y 0.000000 3.971660 0.000000 
#    z 0.000000 0.000000 3.351220 
# 
# 
# High freq. dielectric constant tensor:
#      x y z
#    x 1.817970 0.000000 0.000000 
#    y 0.000000 1.817970 0.000000 
#    z 0.000000 0.000000 1.778400 
# 
# From -- ./inp_files/1731.got.cif
#   From: 2010.03.12/outbox.cif.g09.slc.cpg/sg82_1_cif.got.tgz:1731.got - 2010.04.08 20:02:50.
