data_PCOD8302828
_publ_section_title
;
Structure prediction by ZEFSAII (Michael W. Deem and Ramdas Pophale) SiO2 
 PCOD8302828
Probable space group: P 4/M
;
_chemical_formula_sum "Si O2"
_cell_formula_units_Z 32
_cell_length_a 13.887427
_cell_length_b 13.887427
_cell_length_c 8.654913
_cell_angle_alpha 90.000000
_cell_angle_beta 90.000000
_cell_angle_gamma 90.000000
_cell_volume 1669.191962
_symmetry_space_group_name_H-M "P 4/M"
_symmetry_group_IT_number 83
_symmetry_cell_setting 'tetragonal'
loop_
_space_group_symop_operation_xyz
x,y,z
-y,x,z
-x,-y,z
y,-x,z
-x,-y,-z
y,-x,-z
x,y,-z
-y,x,-z
loop_
_atom_site_type_symbol
_atom_site_label
_atom_site_fract_x
_atom_site_fract_y
_atom_site_fract_z
Si Si1 0.126755 0.907663 0.670412
Si Si2 0.758329 0.761829 0.174569
Si Si3 0.095973 0.609012 0.681392
Si Si4 0.598971 0.106284 0.182165
O O1 0.165924 0.876998 0.500000
O O2 0.184640 0.860658 0.810357
O O3 0.020289 0.867360 0.687620
O O4 0.681885 0.815913 0.283086
O O5 0.792508 0.653824 0.224135
O O6 0.719429 0.764685 0.000000
O O7 0.091380 0.592258 0.500000
O O8 0.121676 0.509736 0.764564
O O9 0.989940 0.644801 0.737489
O O10 0.603270 0.088107 0.000000
#
# Coordination Sequence:
#
# PCOD8302828 Si02
#       4
#     8   8   8   8
#     4   9  18  31  46  68 101 138 173 211 255 305
#     4  11  22  34  52  77 104 138 177 218 265 315
#     4  11  22  36  57  82 110 143 179 223 271 320
#     4  10  21  38  58  80 110 144 181 224 267 319
#
# _framework density 19.170953000000001
#
# number of rings (size 3 to 8) (size 9 to 14) (size 15 to 20)
#    0.000    1.750    0.000    7.500    0.000    9.000 
#    0.000    1.250    0.000    0.750    0.000    5.250 
#    0.000    0.000    0.000    0.000    0.000    0.000 
#
# Total GULP energy -396461.283013 kJ/mol
# GULP energy per Si atom -12389.415094 kJ/mol
# Density = 1.912732 g / cm^3
# Si number density = 19.170953 Si / 1000 Ang^3
#
#
#
# Elastic Constant Matrix: (Units=GPa)
#
#
# Indices 1 2 3 4 5 6 
#
# 1 45.6898 26.0755 23.5564 0.0000 0.0000 -1.0227
# 2 26.0755 45.6898 23.5564 0.0000 0.0000 1.0227
# 3 23.5564 23.5564 46.3133 0.0000 0.0000 0.0000
# 4 0.0000 0.0000 0.0000 26.1286 0.0000 0.0000
# 5 0.0000 0.0000 0.0000 0.0000 26.1286 0.0000
# 6 -1.0227 1.0227 0.0000 0.0000 0.0000 34.0170
#
#
#
# Elastic Compliance Matrix: (Units=1/GPa)
#
#
# Indices 1 2 3 4 5 6 
#
# 1 0.036032 -0.015112 -0.010640 0.000000 0.000000 0.001538
# 2 -0.015112 0.036032 -0.010640 0.000000 0.000000 -0.001538
# 3 -0.010640 -0.010640 0.032416 0.000000 0.000000 0.000000
# 4 0.000000 0.000000 0.000000 0.038272 0.000000 0.000000
# 5 0.000000 0.000000 0.000000 0.000000 0.038272 0.000000
# 6 0.001538 -0.001538 0.000000 0.000000 0.000000 0.029490
#
#
# Mechanical properties :
#
#
# Convention : Reuss Voigt Hill
#
# Bulk Modulus (GPa) = 31.55191 31.56328 31.55759
# Shear Modulus (GPa) = 17.01471 21.55516 19.28493
#
# Velocity S-wave (km/s) = 2.98237 3.35679 3.17511
# Velocity P-wave (km/s) = 5.32478 5.61462 5.47162
#
# Compressibility (1/GPa) = 0.03169381
#
# Stress axis : x y z
#
# Youngs Moduli (GPa) = 27.75338 27.75338 30.84890
#
# Poissons Ratio (x) = 0.41941 0.32824
# Poissons Ratio (y) = 0.41941 0.32824
# Poissons Ratio (z) = 0.29531 0.29531
#
# Static dielectric constant tensor:
#      x y z
#    x 3.572990 0.000000 0.000000 
#    y 0.000000 3.572990 0.000000 
#    z 0.000000 0.000000 3.578660 
# 
# 
# High freq. dielectric constant tensor:
#      x y z
#    x 1.734640 0.000000 0.000000 
#    y 0.000000 1.734640 0.000000 
#    z 0.000000 0.000000 1.753150 
# 
# From -- ./inp_files/432.got.cif
#   From: 2010.03.12/outbox.cif.g09.slc.cpg/sg83_1_cif.got.tgz:432.got - 2010.04.08 20:05:18.
