data_PCOD8302744
_publ_section_title
;
Structure prediction by ZEFSAII (Michael W. Deem and Ramdas Pophale) SiO2 
 PCOD8302744
Probable space group: P 4/M
;
_chemical_formula_sum "Si O2"
_cell_formula_units_Z 64
_cell_length_a 18.800466
_cell_length_b 18.800466
_cell_length_c 10.008285
_cell_angle_alpha 90.000000
_cell_angle_beta 90.000000
_cell_angle_gamma 90.000000
_cell_volume 3537.503614
_symmetry_space_group_name_H-M "P 4/M"
_symmetry_group_IT_number 83
_symmetry_cell_setting 'tetragonal'
loop_
_space_group_symop_operation_xyz
x,y,z
-y,x,z
-x,-y,z
y,-x,z
-x,-y,-z
y,-x,-z
x,y,-z
-y,x,-z
loop_
_atom_site_type_symbol
_atom_site_label
_atom_site_fract_x
_atom_site_fract_y
_atom_site_fract_z
Si Si1 0.200674 0.576604 0.847549
Si Si2 0.798905 0.074392 0.647596
Si Si3 0.170196 0.772261 0.350613
Si Si4 0.915513 0.362474 0.653860
Si Si5 0.287262 0.282955 0.153461
Si Si6 0.116184 0.996230 0.852548
Si Si7 0.636511 0.079604 0.346436
Si Si8 0.583271 0.198500 0.153346
O O1 0.134722 0.591408 0.749415
O O2 0.267761 0.628975 0.818140
O O3 0.227989 0.496401 0.824743
O O4 0.173839 0.587340 0.000000
O O5 0.805950 0.041219 0.500000
O O6 0.849215 0.144273 0.663660
O O7 0.820518 0.011134 0.747088
O O8 0.718729 0.098759 0.674490
O O9 0.200719 0.758086 0.500000
O O10 0.101847 0.721702 0.325647
O O11 0.230610 0.758237 0.243048
O O12 0.901455 0.384663 0.500000
O O13 0.997240 0.376877 0.692123
O O14 0.263848 0.363641 0.189162
O O15 0.268714 0.265998 0.000000
O O16 0.066838 0.927874 0.830546
O O17 0.149916 0.995238 0.000000
O O18 0.613294 0.093442 0.500000
O O19 0.592563 0.130013 0.247975
O O20 0.594861 0.173796 0.000000
#
# Coordination Sequence:
#
# PCOD8302744 Si02
#       8
#     8   8   8   8   8   8   8   8
#     4   9  19  35  54  77 104 135 171 209 250 297
#     4  10  20  31  49  73  95 123 161 210 262 306
#     4   9  17  31  50  70  95 127 163 208 252 293
#     4   9  19  34  51  72 102 136 170 205 248 301
#     4   9  17  32  53  75 100 130 166 205 246 295
#     4   9  20  37  50  63  90 127 166 210 259 312
#     4  10  21  35  50  73 105 136 167 209 256 303
#     4  10  20  34  54  78 104 135 170 210 252 299
#
# _framework density 18.091854000000001
#
# number of rings (size 3 to 8) (size 9 to 14) (size 15 to 20)
#    0.000    2.625    1.250    0.375    1.750    3.000 
#    0.000    3.125    0.000    0.375    0.000    2.625 
#    0.000    0.000    0.000    7.375    0.000    7.750 
#
# Total GULP energy -793189.445211 kJ/mol
# GULP energy per Si atom -12393.585081 kJ/mol
# Density = 1.805068 g / cm^3
# Si number density = 18.091854 Si / 1000 Ang^3
#
#
#
# Elastic Constant Matrix: (Units=GPa)
#
#
# Indices 1 2 3 4 5 6 
#
# 1 65.6911 51.2261 42.4243 0.0000 0.0000 -3.3996
# 2 51.2261 65.6911 42.4243 0.0000 0.0000 3.3996
# 3 42.4243 42.4243 81.2707 0.0000 0.0000 0.0000
# 4 0.0000 0.0000 0.0000 22.6928 0.0000 0.0000
# 5 0.0000 0.0000 0.0000 0.0000 22.6928 0.0000
# 6 -3.3996 3.3996 0.0000 0.0000 0.0000 19.7597
#
#
#
# Elastic Compliance Matrix: (Units=1/GPa)
#
#
# Indices 1 2 3 4 5 6 
#
# 1 0.044492 -0.030723 -0.007188 0.000000 0.000000 0.012940
# 2 -0.030723 0.044492 -0.007188 0.000000 0.000000 -0.012940
# 3 -0.007188 -0.007188 0.019809 0.000000 0.000000 0.000000
# 4 0.000000 0.000000 0.000000 0.044067 0.000000 0.000000
# 5 0.000000 0.000000 0.000000 0.000000 0.044067 0.000000
# 6 0.012940 -0.012940 0.000000 0.000000 0.000000 0.055061
#
#
# Mechanical properties :
#
#
# Convention : Reuss Voigt Hill
#
# Bulk Modulus (GPa) = 53.77392 53.86694 53.82043
# Shear Modulus (GPa) = 14.35203 18.13427 16.24315
#
# Velocity S-wave (km/s) = 2.81959 3.16942 2.99961
# Velocity P-wave (km/s) = 6.35511 6.57513 6.46606
#
# Compressibility (1/GPa) = 0.01859637
#
# Stress axis : x y z
#
# Youngs Moduli (GPa) = 22.47589 22.47589 50.48270
#
# Poissons Ratio (x) = 0.69052 0.36286
# Poissons Ratio (y) = 0.69052 0.36286
# Poissons Ratio (z) = 0.16155 0.16155
#
# Static dielectric constant tensor:
#      x y z
#    x 3.234400 0.000000 0.000000 
#    y 0.000000 3.234400 0.000000 
#    z 0.000000 0.000000 3.466200 
# 
# 
# High freq. dielectric constant tensor:
#      x y z
#    x 1.683620 0.000000 0.000000 
#    y 0.000000 1.683620 0.000000 
#    z 0.000000 0.000000 1.710070 
# 
# From -- ./inp_files/1308.got.cif
#   From: 2010.03.12/outbox.cif.g09.slc.cpg/sg83_1_cif.got.tgz:1308.got - 2010.04.08 20:05:18.
