data_PCOD8302758
_publ_section_title
;
Structure prediction by ZEFSAII (Michael W. Deem and Ramdas Pophale) SiO2 
 PCOD8302758
Probable space group: P 4/M
;
_chemical_formula_sum "Si O2"
_cell_formula_units_Z 48
_cell_length_a 10.805303
_cell_length_b 10.805303
_cell_length_c 23.712603
_cell_angle_alpha 90.000000
_cell_angle_beta 90.000000
_cell_angle_gamma 90.000000
_cell_volume 2768.554836
_symmetry_space_group_name_H-M "P 4/M"
_symmetry_group_IT_number 83
_symmetry_cell_setting 'tetragonal'
loop_
_space_group_symop_operation_xyz
x,y,z
-y,x,z
-x,-y,z
y,-x,z
-x,-y,-z
y,-x,-z
x,y,-z
-y,x,-z
loop_
_atom_site_type_symbol
_atom_site_label
_atom_site_fract_x
_atom_site_fract_y
_atom_site_fract_z
Si Si1 0.630705 0.655514 0.936828
Si Si2 0.019353 0.351213 0.212164
Si Si3 0.683494 0.417136 0.723669
Si Si4 0.232860 0.724451 0.827014
Si Si5 0.034040 0.799938 0.437977
Si Si6 0.062998 0.627371 0.332732
O O1 0.485174 0.671001 0.927379
O O2 0.702227 0.740103 0.892535
O O3 0.666751 0.698537 0.000000
O O4 0.915901 0.271408 0.178827
O O5 0.008742 0.317488 0.278427
O O6 0.000000 0.500000 0.203451
O O7 0.151652 0.303216 0.191868
O O8 0.662001 0.561296 0.712233
O O9 0.722026 0.391430 0.788607
O O10 0.791418 0.378593 0.681313
O O11 0.045112 0.736599 0.500000
O O12 0.050097 0.704953 0.388407
O O13 0.900627 0.859848 0.431704
O O14 0.000000 0.500000 0.348839
#
# Coordination Sequence:
#
# PCOD8302758 Si02
#       6
#     8   8   8   8   8   8
#     4   9  17  30  52  80 104 136 188 241 281 323
#     4  10  22  35  52  83 111 144 184 228 269 339
#     4  10  20  33  53  78 106 141 177 214 273 334
#     4  11  20  35  53  73 115 147 180 225 283 320
#     4   9  20  37  56  78 103 137 182 222 257 311
#     4  10  21  33  54  80 112 134 172 222 270 318
#
# _framework density 17.337564
#
# number of rings (size 3 to 8) (size 9 to 14) (size 15 to 20)
#    0.000    2.167    0.000    6.000    7.000    2.000 
#    0.000    0.833    0.000    3.000    0.000    2.333 
#    0.000    0.000    0.000    0.000    0.000    0.000 
#
# Total GULP energy -594966.115937 kJ/mol
# GULP energy per Si atom -12395.127415 kJ/mol
# Density = 1.729810 g / cm^3
# Si number density = 17.337564 Si / 1000 Ang^3
#
#
#
# Elastic Constant Matrix: (Units=GPa)
#
#
# Indices 1 2 3 4 5 6 
#
# 1 87.3998 47.2304 69.4694 0.0000 0.0000 1.0885
# 2 47.2304 87.3998 69.4694 0.0000 0.0000 -1.0885
# 3 69.4694 69.4694 169.1137 0.0000 0.0000 0.0000
# 4 0.0000 0.0000 0.0000 23.5474 0.0000 0.0000
# 5 0.0000 0.0000 0.0000 0.0000 23.5474 0.0000
# 6 1.0885 -1.0885 0.0000 0.0000 0.0000 21.8733
#
#
#
# Elastic Compliance Matrix: (Units=1/GPa)
#
#
# Indices 1 2 3 4 5 6 
#
# 1 0.018928 -0.006034 -0.005297 0.000000 0.000000 -0.001242
# 2 -0.006034 0.018928 -0.005297 0.000000 0.000000 0.001242
# 3 -0.005297 -0.005297 0.010265 0.000000 0.000000 0.000000
# 4 0.000000 0.000000 0.000000 0.042468 0.000000 0.000000
# 5 0.000000 0.000000 0.000000 0.000000 0.042468 0.000000
# 6 -0.001242 0.001242 0.000000 0.000000 0.000000 0.045842
#
#
# Mechanical properties :
#
#
# Convention : Reuss Voigt Hill
#
# Bulk Modulus (GPa) = 67.26750 79.58352 73.42551
# Shear Modulus (GPa) = 23.03012 24.30988 23.67000
#
# Velocity S-wave (km/s) = 3.64859 3.74859 3.69893
# Velocity P-wave (km/s) = 7.52546 8.04599 7.79007
#
# Compressibility (1/GPa) = 0.01486602
#
# Stress axis : x y z
#
# Youngs Moduli (GPa) = 52.83212 52.83212 97.42114
#
# Poissons Ratio (x) = 0.31879 0.51600
# Poissons Ratio (y) = 0.31879 0.51600
# Poissons Ratio (z) = 0.27983 0.27983
#
# Static dielectric constant tensor:
#      x y z
#    x 3.241280 0.000000 0.000000 
#    y 0.000000 3.241280 0.000000 
#    z 0.000000 0.000000 3.232580 
# 
# 
# High freq. dielectric constant tensor:
#      x y z
#    x 1.664360 0.000000 0.000000 
#    y 0.000000 1.664360 0.000000 
#    z 0.000000 0.000000 1.664960 
# 
# From -- ./inp_files/2620.got.cif
#   From: 2010.03.12/outbox.cif.g09.slc.cpg/sg83_2_cif.got.tgz:2620.got - 2010.04.08 20:05:18.
