data_PCOD8302689
_publ_section_title
;
Structure prediction by ZEFSAII (Michael W. Deem and Ramdas Pophale) SiO2 
 PCOD8302689
Probable space group: P 4/M
;
_chemical_formula_sum "Si O2"
_cell_formula_units_Z 64
_cell_length_a 20.343388
_cell_length_b 20.343388
_cell_length_c 9.173881
_cell_angle_alpha 90.000000
_cell_angle_beta 90.000000
_cell_angle_gamma 90.000000
_cell_volume 3796.642167
_symmetry_space_group_name_H-M "P 4/M"
_symmetry_group_IT_number 83
_symmetry_cell_setting 'tetragonal'
loop_
_space_group_symop_operation_xyz
x,y,z
-y,x,z
-x,-y,z
y,-x,z
-x,-y,-z
y,-x,-z
x,y,-z
-y,x,-z
loop_
_atom_site_type_symbol
_atom_site_label
_atom_site_fract_x
_atom_site_fract_y
_atom_site_fract_z
Si Si1 0.316721 0.209624 0.333720
Si Si2 0.993657 0.731593 0.666489
Si Si3 0.762829 0.692794 0.159690
Si Si4 0.573844 0.145900 0.173076
Si Si5 0.444315 0.129584 0.674251
Si Si6 0.119401 0.209570 0.159007
Si Si7 0.395772 0.005351 0.172155
Si Si8 0.192503 0.117790 0.338752
O O1 0.327034 0.229701 0.500000
O O2 0.297936 0.278818 0.254624
O O3 0.383627 0.175724 0.274628
O O4 0.260641 0.155525 0.313810
O O5 0.988291 0.706210 0.500000
O O6 0.923252 0.751491 0.725238
O O7 0.024446 0.675755 0.768376
O O8 0.040467 0.794933 0.677879
O O9 0.802321 0.630011 0.225195
O O10 0.813622 0.751656 0.142737
O O11 0.734935 0.674206 0.000000
O O12 0.509355 0.165395 0.264628
O O13 0.592453 0.070739 0.213702
O O14 0.562310 0.151698 0.000000
O O15 0.445962 0.121201 0.500000
O O16 0.444363 0.056853 0.748832
O O17 0.136988 0.137837 0.222383
O O18 0.084993 0.202963 0.000000
O O19 0.401259 0.016777 0.000000
O O20 0.165492 0.134234 0.500000
#
# Coordination Sequence:
#
# PCOD8302689 Si02
#       8
#     8   8   8   8   8   8   8   8
#     4   9  18  33  49  69  97 124 160 205 242 281
#     4  11  20  32  51  72  97 125 160 202 246 296
#     4   9  18  33  50  70  96 125 163 204 241 286
#     4  10  21  36  49  69 101 135 169 205 242 287
#     4  11  22  35  49  72 102 134 172 207 241 291
#     4  10  19  32  49  72  95 120 157 200 248 296
#     4  11  21  34  49  68  99 137 171 206 244 283
#     4   9  18  33  49  68  93 122 156 199 247 292
#
# _framework density 16.857001
#
# number of rings (size 3 to 8) (size 9 to 14) (size 15 to 20)
#    0.000    2.000    2.500    1.875    0.000    5.500 
#    0.000    0.000    0.000    0.375    0.000    2.625 
#    0.000    0.500    0.000    5.500    0.000    4.000 
#
# Total GULP energy -793179.225083 kJ/mol
# GULP energy per Si atom -12393.425392 kJ/mol
# Density = 1.681863 g / cm^3
# Si number density = 16.857001 Si / 1000 Ang^3
#
#
#
# Elastic Constant Matrix: (Units=GPa)
#
#
# Indices 1 2 3 4 5 6 
#
# 1 50.2412 30.6362 34.2677 0.0000 0.0000 -1.5489
# 2 30.6362 50.2412 34.2677 0.0000 0.0000 1.5489
# 3 34.2677 34.2677 71.9250 0.0000 0.0000 0.0000
# 4 0.0000 0.0000 0.0000 24.2013 0.0000 0.0000
# 5 0.0000 0.0000 0.0000 0.0000 24.2013 0.0000
# 6 -1.5489 1.5489 0.0000 0.0000 0.0000 19.4492
#
#
#
# Elastic Compliance Matrix: (Units=1/GPa)
#
#
# Indices 1 2 3 4 5 6 
#
# 1 0.036197 -0.015461 -0.009880 0.000000 0.000000 0.004114
# 2 -0.015461 0.036197 -0.009880 0.000000 0.000000 -0.004114
# 3 -0.009880 -0.009880 0.023317 0.000000 0.000000 0.000000
# 4 0.000000 0.000000 0.000000 0.041320 0.000000 0.000000
# 5 0.000000 0.000000 0.000000 0.000000 0.041320 0.000000
# 6 0.004114 -0.004114 0.000000 0.000000 0.000000 0.052071
#
#
# Mechanical properties :
#
#
# Convention : Reuss Voigt Hill
#
# Bulk Modulus (GPa) = 39.56983 41.19452 40.38217
# Shear Modulus (GPa) = 16.16626 18.45271 17.30949
#
# Velocity S-wave (km/s) = 3.10017 3.31216 3.20792
# Velocity P-wave (km/s) = 6.02823 6.25443 6.14237
#
# Compressibility (1/GPa) = 0.02527178
#
# Stress axis : x y z
#
# Youngs Moduli (GPa) = 27.62669 27.62669 42.88650
#
# Poissons Ratio (x) = 0.42712 0.42370
# Poissons Ratio (y) = 0.42712 0.42370
# Poissons Ratio (z) = 0.27294 0.27294
#
# Static dielectric constant tensor:
#      x y z
#    x 3.066190 0.000000 0.000000 
#    y 0.000000 3.066190 0.000000 
#    z 0.000000 0.000000 3.397010 
# 
# 
# High freq. dielectric constant tensor:
#      x y z
#    x 1.624010 0.000000 0.000000 
#    y 0.000000 1.624010 0.000000 
#    z 0.000000 0.000000 1.659310 
# 
# From -- ./inp_files/1293.got.cif
#   From: 2010.03.12/outbox.cif.g09.slc.cpg/sg83_1_cif.got.tgz:1293.got - 2010.04.08 20:05:18.
