data_PCOD8302663
_publ_section_title
;
Structure prediction by ZEFSAII (Michael W. Deem and Ramdas Pophale) SiO2 
 PCOD8302663
Probable space group: P 4/M
;
_chemical_formula_sum "Si O2"
_cell_formula_units_Z 56
_cell_length_a 18.696798
_cell_length_b 18.696798
_cell_length_c 9.546670
_cell_angle_alpha 90.000000
_cell_angle_beta 90.000000
_cell_angle_gamma 90.000000
_cell_volume 3337.231871
_symmetry_space_group_name_H-M "P 4/M"
_symmetry_group_IT_number 83
_symmetry_cell_setting 'tetragonal'
loop_
_space_group_symop_operation_xyz
x,y,z
-y,x,z
-x,-y,z
y,-x,z
-x,-y,-z
y,-x,-z
x,y,-z
-y,x,-z
loop_
_atom_site_type_symbol
_atom_site_label
_atom_site_fract_x
_atom_site_fract_y
_atom_site_fract_z
Si Si1 0.225996 0.791567 0.336730
Si Si2 0.068900 0.453045 0.837822
Si Si3 0.419119 0.423045 0.833334
Si Si4 0.152494 0.587783 0.840653
Si Si5 0.930682 0.691648 0.662292
Si Si6 0.707162 0.330778 0.162359
Si Si7 0.290340 0.088894 0.338940
O O1 0.239187 0.777871 0.500000
O O2 0.248993 0.871727 0.294110
O O3 0.276480 0.738820 0.251311
O O4 0.142750 0.774776 0.296881
O O5 0.137714 0.504123 0.808302
O O6 0.077419 0.381415 0.748317
O O7 0.000000 0.500000 0.794174
O O8 0.064165 0.430144 0.000000
O O9 0.497879 0.400231 0.778533
O O10 0.360417 0.367592 0.777887
O O11 0.420853 0.420150 0.000000
O O12 0.235330 0.605857 0.814685
O O13 0.103171 0.637887 0.746468
O O14 0.129834 0.604428 0.000000
O O15 0.922655 0.670404 0.500000
O O16 0.006651 0.730906 0.690571
O O17 0.703169 0.308288 0.000000
O O18 0.310399 0.101011 0.500000
#
# Coordination Sequence:
#
# PCOD8302663 Si02
#       7
#     8   8   8   8   8   8   8
#     4   9  19  34  48  67  94 119 149 189 230 274
#     4  10  19  30  45  69 101 130 153 187 233 274
#     4   8  14  25  42  64  87 112 148 193 233 265
#     4   9  17  29  44  66  95 125 155 188 226 270
#     4  10  20  32  49  71  93 123 159 193 229 277
#     4   9  17  29  47  68  90 119 155 191 228 275
#     4   9  17  31  50  66  87 122 156 186 225 273
#
# _framework density 16.780373000000001
#
# number of rings (size 3 to 8) (size 9 to 14) (size 15 to 20)
#    0.000    2.857    1.429    0.429    0.000    2.571 
#    0.000    2.857    0.000    1.286    0.000    4.000 
#    0.000    0.000    0.000    8.429    0.000    8.857 
#
# Total GULP energy -694039.004324 kJ/mol
# GULP energy per Si atom -12393.553649 kJ/mol
# Density = 1.674218 g / cm^3
# Si number density = 16.780373 Si / 1000 Ang^3
#
#
#
# Elastic Constant Matrix: (Units=GPa)
#
#
# Indices 1 2 3 4 5 6 
#
# 1 108.5401 69.4530 38.0615 0.0000 0.0000 -6.0405
# 2 69.4530 108.5401 38.0615 0.0000 0.0000 6.0405
# 3 38.0615 38.0615 39.8096 0.0000 0.0000 0.0000
# 4 0.0000 0.0000 0.0000 19.4324 0.0000 0.0000
# 5 0.0000 0.0000 0.0000 0.0000 19.4324 0.0000
# 6 -6.0405 6.0405 0.0000 0.0000 0.0000 25.7335
#
#
#
# Elastic Compliance Matrix: (Units=1/GPa)
#
#
# Indices 1 2 3 4 5 6 
#
# 1 0.018545 -0.009040 -0.009087 0.000000 0.000000 0.006475
# 2 -0.009040 0.018545 -0.009087 0.000000 0.000000 -0.006475
# 3 -0.009087 -0.009087 0.042496 0.000000 0.000000 0.000000
# 4 0.000000 0.000000 0.000000 0.051460 0.000000 0.000000
# 5 0.000000 0.000000 0.000000 0.000000 0.051460 0.000000
# 6 0.006475 -0.006475 0.000000 0.000000 0.000000 0.041900
#
#
# Mechanical properties :
#
#
# Convention : Reuss Voigt Hill
#
# Bulk Modulus (GPa) = 39.75158 60.89353 50.32255
# Shear Modulus (GPa) = 17.40820 20.34060 18.87440
#
# Velocity S-wave (km/s) = 3.22439 3.48539 3.35743
# Velocity P-wave (km/s) = 6.13213 7.25015 6.71445
#
# Compressibility (1/GPa) = 0.02515624
#
# Stress axis : x y z
#
# Youngs Moduli (GPa) = 53.92319 53.92319 23.53170
#
# Poissons Ratio (x) = 0.48748 0.21384
# Poissons Ratio (y) = 0.48748 0.21384
# Poissons Ratio (z) = 0.49001 0.49001
#
# Static dielectric constant tensor:
#      x y z
#    x 3.283110 0.000000 0.000000 
#    y 0.000000 3.283110 0.000000 
#    z 0.000000 0.000000 3.021150 
# 
# 
# High freq. dielectric constant tensor:
#      x y z
#    x 1.640140 0.000000 0.000000 
#    y 0.000000 1.640140 0.000000 
#    z 0.000000 0.000000 1.629300 
# 
# From -- ./inp_files/1981.got.cif
#   From: 2010.03.12/outbox.cif.g09.slc.cpg/sg83_1_cif.got.tgz:1981.got - 2010.04.08 20:05:18.
