data_PCOD8302241
_publ_section_title
;
Structure prediction by ZEFSAII (Michael W. Deem and Ramdas Pophale) SiO2 
 PCOD8302241
Probable space group: P -4
;
_chemical_formula_sum "Si O2"
_cell_formula_units_Z 16
_cell_length_a 10.133787
_cell_length_b 10.133787
_cell_length_c 6.866159
_cell_angle_alpha 90.000000
_cell_angle_beta 90.000000
_cell_angle_gamma 90.000000
_cell_volume 705.110853
_symmetry_space_group_name_H-M "P -4"
_symmetry_group_IT_number 81
_symmetry_cell_setting 'tetragonal'
loop_
_space_group_symop_operation_xyz
x,y,z
y,-x,-z
-x,-y,z
-y,x,-z
loop_
_atom_site_type_symbol
_atom_site_label
_atom_site_fract_x
_atom_site_fract_y
_atom_site_fract_z
Si Si1 0.665443 0.230269 0.892895
Si Si2 0.654634 0.498790 0.785170
Si Si3 0.750500 0.212339 0.303210
Si Si4 0.987857 0.645969 0.424116
O O1 0.718169 0.350853 0.754141
O O2 0.634509 0.101133 0.770066
O O3 0.535593 0.301573 0.990064
O O4 0.763437 0.188463 0.069725
O O5 0.500000 0.500000 0.744208
O O6 0.718138 0.609332 0.643192
O O7 0.747480 0.073889 0.418937
O O8 0.869553 0.301985 0.370163
O O9 0.000000 0.500000 0.515433
#
# Coordination Sequence:
#
# PCOD8302241 Si02
#       4
#     4   4   4   4
#     4  10  20  40  73  99 139 181 241 300 370 419
#     4  10  16  41  68 105 134 174 239 304 360 417
#     4  10  27  43  70 104 148 192 235 308 356 453
#     4  12  26  46  67 109 149 189 245 298 375 441
#
# _framework density 22.691466999999999
#
# number of rings (size 3 to 8) (size 9 to 14) (size 15 to 20)
#    1.500    0.000    2.500    3.000    3.500    3.500 
#    0.000    1.250    0.000    0.000    0.000    0.000 
#    0.000    0.000    0.000    0.000    0.000    0.000 
#
# Total GULP energy -198210.535144 kJ/mol
# GULP energy per Si atom -12388.158447 kJ/mol
# Density = 2.263982 g / cm^3
# Si number density = 22.691467 Si / 1000 Ang^3
#
#
#
# Elastic Constant Matrix: (Units=GPa)
#
#
# Indices 1 2 3 4 5 6 
#
# 1 113.6415 36.1043 32.5105 0.0000 0.0000 3.0200
# 2 36.1043 113.6415 32.5105 0.0000 0.0000 -3.0200
# 3 32.5105 32.5105 63.6946 0.0000 0.0000 0.0000
# 4 0.0000 0.0000 0.0000 20.8557 0.0000 0.0000
# 5 0.0000 0.0000 0.0000 0.0000 20.8557 0.0000
# 6 3.0200 -3.0200 0.0000 0.0000 0.0000 34.6204
#
#
#
# Elastic Compliance Matrix: (Units=1/GPa)
#
#
# Indices 1 2 3 4 5 6 
#
# 1 0.010782 -0.002203 -0.004379 0.000000 0.000000 -0.001133
# 2 -0.002203 0.010782 -0.004379 0.000000 0.000000 0.001133
# 3 -0.004379 -0.004379 0.020170 0.000000 0.000000 0.000000
# 4 0.000000 0.000000 0.000000 0.047949 0.000000 0.000000
# 5 0.000000 0.000000 0.000000 0.000000 0.047949 0.000000
# 6 -0.001133 0.001133 0.000000 0.000000 0.000000 0.029082
#
#
# Mechanical properties :
#
#
# Convention : Reuss Voigt Hill
#
# Bulk Modulus (GPa) = 50.47238 54.80314 52.63776
# Shear Modulus (GPa) = 25.60944 27.92318 26.76631
#
# Velocity S-wave (km/s) = 3.36310 3.51174 3.43822
# Velocity P-wave (km/s) = 6.11324 6.37549 6.24575
#
# Compressibility (1/GPa) = 0.01981282
#
# Stress axis : x y z
#
# Youngs Moduli (GPa) = 92.74428 92.74428 49.57827
#
# Poissons Ratio (x) = 0.20431 0.21710
# Poissons Ratio (y) = 0.20431 0.21710
# Poissons Ratio (z) = 0.40613 0.40613
#
# Static dielectric constant tensor:
#      x y z
#    x 3.900690 0.000000 0.000000 
#    y 0.000000 3.900690 0.000000 
#    z 0.000000 0.000000 3.959910 
# 
# 
# High freq. dielectric constant tensor:
#      x y z
#    x 1.879200 0.000000 0.000000 
#    y 0.000000 1.879200 0.000000 
#    z 0.000000 0.000000 1.891620 
# 
# From -- ./inp_files/607.got.cif
#   From: 2010.03.12/outbox.cif.g09.slc.cpg/sg81_cif.got.tgz:607.got - 2010.04.08 20:01:38.
