data_PCOD8302797
_publ_section_title
;
Structure prediction by ZEFSAII (Michael W. Deem and Ramdas Pophale) SiO2 
 PCOD8302797
Probable space group: P 4/M
;
_chemical_formula_sum "Si O2"
_cell_formula_units_Z 36
_cell_length_a 14.864336
_cell_length_b 14.864336
_cell_length_c 8.659923
_cell_angle_alpha 90.000000
_cell_angle_beta 90.000000
_cell_angle_gamma 90.000000
_cell_volume 1913.396865
_symmetry_space_group_name_H-M "P 4/M"
_symmetry_group_IT_number 83
_symmetry_cell_setting 'tetragonal'
loop_
_space_group_symop_operation_xyz
x,y,z
-y,x,z
-x,-y,z
y,-x,z
-x,-y,-z
y,-x,-z
x,y,-z
-y,x,-z
loop_
_atom_site_type_symbol
_atom_site_label
_atom_site_fract_x
_atom_site_fract_y
_atom_site_fract_z
Si Si1 0.934483 0.754144 0.182939
Si Si2 0.126056 0.778686 0.316992
Si Si3 0.448012 0.913799 0.181444
Si Si4 0.200332 0.589873 0.329504
Si Si5 0.433608 0.367724 0.500000
O O1 0.853851 0.819312 0.226357
O O2 0.910473 0.653882 0.243903
O O3 0.022397 0.788795 0.271640
O O4 0.951753 0.756315 0.000000
O O5 0.139699 0.790108 0.500000
O O6 0.163578 0.682504 0.256593
O O7 0.503608 0.825142 0.227342
O O8 0.500000 0.000000 0.251943
O O9 0.444570 0.920847 0.000000
O O10 0.156653 0.577365 0.500000
O O11 0.309448 0.592600 0.347248
O O12 0.540516 0.380318 0.500000
#
# Coordination Sequence:
#
# PCOD8302797 Si02
#       5
#     8   8   8   8   4
#     4  11  24  40  62  86 120 163 200 247 304 368
#     4  11  23  40  59  90 119 155 203 254 301 353
#     4  10  20  36  58  86 119 153 192 244 301 356
#     4   9  21  34  59  87 115 152 196 246 295 348
#     4   9  20  38  59  86 122 159 196 237 299 362
#
# _framework density 18.814706999999999
#
# number of rings (size 3 to 8) (size 9 to 14) (size 15 to 20)
#    0.667    1.222    2.222    1.333    3.111    3.556 
#    0.000    2.222    0.000    0.000    0.000    1.556 
#    0.000    0.000    0.000    0.000    0.000    0.000 
#
# Total GULP energy -446305.111496 kJ/mol
# GULP energy per Si atom -12397.364208 kJ/mol
# Density = 1.877188 g / cm^3
# Si number density = 18.814707 Si / 1000 Ang^3
#
#
#
# Elastic Constant Matrix: (Units=GPa)
#
#
# Indices 1 2 3 4 5 6 
#
# 1 112.5222 51.1941 13.5391 0.0000 0.0000 -4.5303
# 2 51.1941 112.5222 13.5391 0.0000 0.0000 4.5303
# 3 13.5391 13.5391 30.0023 0.0000 0.0000 0.0000
# 4 0.0000 0.0000 0.0000 24.8643 0.0000 0.0000
# 5 0.0000 0.0000 0.0000 0.0000 24.8643 0.0000
# 6 -4.5303 4.5303 0.0000 0.0000 0.0000 33.7531
#
#
#
# Elastic Compliance Matrix: (Units=1/GPa)
#
#
# Indices 1 2 3 4 5 6 
#
# 1 0.011618 -0.005017 -0.002979 0.000000 0.000000 0.002233
# 2 -0.005017 0.011618 -0.002979 0.000000 0.000000 -0.002233
# 3 -0.002979 -0.002979 0.036019 0.000000 0.000000 0.000000
# 4 0.000000 0.000000 0.000000 0.040218 0.000000 0.000000
# 5 0.000000 0.000000 0.000000 0.000000 0.040218 0.000000
# 6 0.002233 -0.002233 0.000000 0.000000 0.000000 0.030226
#
#
# Mechanical properties :
#
#
# Convention : Reuss Voigt Hill
#
# Bulk Modulus (GPa) = 26.80540 45.73235 36.26888
# Shear Modulus (GPa) = 24.47338 28.48130 26.47734
#
# Velocity S-wave (km/s) = 3.61051 3.89495 3.75543
# Velocity P-wave (km/s) = 5.62664 6.67735 6.17439
#
# Compressibility (1/GPa) = 0.03730591
#
# Stress axis : x y z
#
# Youngs Moduli (GPa) = 86.07174 86.07174 27.76295
#
# Poissons Ratio (x) = 0.43186 0.08270
# Poissons Ratio (y) = 0.43186 0.08270
# Poissons Ratio (z) = 0.25638 0.25638
#
# Static dielectric constant tensor:
#      x y z
#    x 3.459320 0.000000 0.000000 
#    y 0.000000 3.459320 0.000000 
#    z 0.000000 0.000000 3.202020 
# 
# 
# High freq. dielectric constant tensor:
#      x y z
#    x 1.735400 0.000000 0.000000 
#    y 0.000000 1.735400 0.000000 
#    z 0.000000 0.000000 1.711080 
# 
# From -- ./inp_files/513.got.cif
#   From: 2010.03.12/outbox.cif.g09.slc.cpg/sg83_1_cif.got.tgz:513.got - 2010.04.08 20:05:18.
