data_PCOD8302630
_publ_section_title
;
Structure prediction by ZEFSAII (Michael W. Deem and Ramdas Pophale) SiO2 
 PCOD8302630
Probable space group: P 4/M
;
_chemical_formula_sum "Si O2"
_cell_formula_units_Z 64
_cell_length_a 20.618100
_cell_length_b 20.618100
_cell_length_c 9.077742
_cell_angle_alpha 90.000000
_cell_angle_beta 90.000000
_cell_angle_gamma 90.000000
_cell_volume 3859.003023
_symmetry_space_group_name_H-M "P 4/M"
_symmetry_group_IT_number 83
_symmetry_cell_setting 'tetragonal'
loop_
_space_group_symop_operation_xyz
x,y,z
-y,x,z
-x,-y,z
y,-x,z
-x,-y,-z
y,-x,-z
x,y,-z
-y,x,-z
loop_
_atom_site_type_symbol
_atom_site_label
_atom_site_fract_x
_atom_site_fract_y
_atom_site_fract_z
Si Si1 0.852981 0.581099 0.827386
Si Si2 0.766180 0.682875 0.666963
Si Si3 0.115464 0.220045 0.341334
Si Si4 0.687259 0.785929 0.174791
Si Si5 0.996221 0.245882 0.162053
Si Si6 0.783853 0.878269 0.666015
Si Si7 0.133074 0.565275 0.171872
Si Si8 0.996490 0.604716 0.164352
O O1 0.794817 0.619556 0.748096
O O2 0.837910 0.505595 0.798178
O O3 0.925341 0.596453 0.759132
O O4 0.851217 0.599344 0.000000
O O5 0.745807 0.664322 0.500000
O O6 0.821788 0.735672 0.667523
O O7 0.704198 0.716274 0.748849
O O8 0.080365 0.230973 0.500000
O O9 0.142312 0.147044 0.329978
O O10 0.070524 0.234976 0.204314
O O11 0.739303 0.840121 0.218670
O O12 0.617614 0.814284 0.231145
O O13 0.688639 0.775073 0.000000
O O14 0.952206 0.210455 0.282032
O O15 0.981314 0.321452 0.162611
O O16 0.984680 0.216549 0.000000
O O17 0.755117 0.873315 0.500000
O O18 0.059101 0.569468 0.240922
O O19 0.123144 0.579758 0.000000
O O20 0.986626 0.576397 0.000000
#
# Coordination Sequence:
#
# PCOD8302630 Si02
#       8
#     8   8   8   8   8   8   8   8
#     4  10  18  30  50  71  96 132 166 196 235 279
#     4  10  20  33  47  67  96 127 161 201 243 283
#     4   9  19  33  47  64  89 120 154 193 240 287
#     4  10  18  31  50  71  94 122 163 206 239 276
#     4  11  19  29  49  72  92 118 157 198 237 282
#     4  10  20  33  48  68  93 123 154 193 246 293
#     4   9  17  29  47  72  99 127 162 201 235 276
#     4   9  16  27  43  69  97 126 161 195 230 271
#
# _framework density 16.584595
#
# number of rings (size 3 to 8) (size 9 to 14) (size 15 to 20)
#    0.000    2.250    2.500    2.625    0.000    4.000 
#    0.000    1.250    0.000    1.125    0.000    2.625 
#    0.000    0.500    0.000    5.750    0.000    2.250 
#
# Total GULP energy -793009.721713 kJ/mol
# GULP energy per Si atom -12390.776902 kJ/mol
# Density = 1.654685 g / cm^3
# Si number density = 16.584595 Si / 1000 Ang^3
#
#
#
# Elastic Constant Matrix: (Units=GPa)
#
#
# Indices 1 2 3 4 5 6 
#
# 1 61.8052 35.3874 27.9524 0.0000 0.0000 -1.4800
# 2 35.3874 61.8052 27.9524 0.0000 0.0000 1.4800
# 3 27.9524 27.9524 70.6030 0.0000 0.0000 0.0000
# 4 0.0000 0.0000 0.0000 15.2845 0.0000 0.0000
# 5 0.0000 0.0000 0.0000 0.0000 15.2845 0.0000
# 6 -1.4800 1.4800 0.0000 0.0000 0.0000 21.9626
#
#
#
# Elastic Compliance Matrix: (Units=1/GPa)
#
#
# Indices 1 2 3 4 5 6 
#
# 1 0.025732 -0.012409 -0.005275 0.000000 0.000000 0.002570
# 2 -0.012409 0.025732 -0.005275 0.000000 0.000000 -0.002570
# 3 -0.005275 -0.005275 0.018340 0.000000 0.000000 0.000000
# 4 0.000000 0.000000 0.000000 0.065426 0.000000 0.000000
# 5 0.000000 0.000000 0.000000 0.000000 0.065426 0.000000
# 6 0.002570 -0.002570 0.000000 0.000000 0.000000 0.045878
#
#
# Mechanical properties :
#
#
# Convention : Reuss Voigt Hill
#
# Bulk Modulus (GPa) = 41.86316 41.86642 41.86479
# Shear Modulus (GPa) = 16.64373 17.36774 17.00573
#
# Velocity S-wave (km/s) = 3.17135 3.23959 3.20565
# Velocity P-wave (km/s) = 6.22149 6.26835 6.24496
#
# Compressibility (1/GPa) = 0.02388735
#
# Stress axis : x y z
#
# Youngs Moduli (GPa) = 38.86203 38.86203 54.52496
#
# Poissons Ratio (x) = 0.48225 0.28760
# Poissons Ratio (y) = 0.48225 0.28760
# Poissons Ratio (z) = 0.20498 0.20498
#
# Static dielectric constant tensor:
#      x y z
#    x 3.087600 0.000000 0.000000 
#    y 0.000000 3.087600 0.000000 
#    z 0.000000 0.000000 3.065610 
# 
# 
# High freq. dielectric constant tensor:
#      x y z
#    x 1.617860 0.000000 0.000000 
#    y 0.000000 1.617860 0.000000 
#    z 0.000000 0.000000 1.624710 
# 
# From -- ./inp_files/1289.got.cif
#   From: 2010.03.12/outbox.cif.g09.slc.cpg/sg83_1_cif.got.tgz:1289.got - 2010.04.08 20:05:18.
