data_PCOD8302440
_publ_section_title
;
Structure prediction by ZEFSAII (Michael W. Deem and Ramdas Pophale) SiO2 
 PCOD8302440
Probable space group: I -4 
;
_chemical_formula_sum "Si O2"
_cell_formula_units_Z 56
_cell_length_a 13.853366
_cell_length_b 13.853366
_cell_length_c 12.878893
_cell_angle_alpha 90.000000
_cell_angle_beta 90.000000
_cell_angle_gamma 90.000000
_cell_volume 2471.662403
_symmetry_space_group_name_H-M "I -4 "
_symmetry_group_IT_number 82
_symmetry_cell_setting 'tetragonal'
loop_
_space_group_symop_operation_xyz
x,y,z
y,-x,-z
-x,-y,z
-y,x,-z
1/2+x,1/2+y,1/2+z
1/2+y,1/2-x,1/2-z
1/2-x,1/2-y,1/2+z
1/2-y,1/2+x,1/2-z
loop_
_atom_site_type_symbol
_atom_site_label
_atom_site_fract_x
_atom_site_fract_y
_atom_site_fract_z
Si Si1 0.063535 0.653758 0.615760
Si Si2 0.776936 0.487903 0.673349
Si Si3 0.199344 0.012198 0.647178
Si Si4 0.040410 0.401164 0.410471
Si Si5 0.323360 0.338998 0.983133
Si Si6 0.874416 0.258114 0.012594
Si Si7 0.587620 0.568482 0.343644
O O1 0.161741 0.592341 0.612668
O O2 0.989614 0.611317 0.531419
O O3 0.089468 0.763177 0.589026
O O4 0.011794 0.658702 0.726331
O O5 0.767086 0.581967 0.601932
O O6 0.670689 0.448624 0.701873
O O7 0.315471 0.003884 0.660356
O O8 0.166791 0.113281 0.596452
O O9 0.146965 0.007702 0.757561
O O10 0.169974 0.926404 0.570133
O O11 0.000000 0.500000 0.363130
O O12 0.156518 0.406352 0.408843
O O13 0.264870 0.240282 0.999163
O O14 0.910193 0.156231 0.058284
O O15 0.500000 0.500000 0.380252
#
# Coordination Sequence:
#
# PCOD8302440 Si02
#       7
#     8   8   8   8   8   8   8
#     4  11  23  42  69 112 135 183 235 301 361 418
#     4  12  26  41  74 101 146 183 240 297 357 429
#     4  10  25  43  74 104 138 190 237 303 358 422
#     4  10  21  46  71 105 140 177 236 298 371 421
#     4  10  23  45  70 103 142 176 241 294 364 414
#     4  11  25  45  67  98 145 187 233 293 352 436
#     4  12  29  48  67 103 145 197 247 282 360 439
#
# _framework density 22.656815999999999
#
# number of rings (size 3 to 8) (size 9 to 14) (size 15 to 20)
#    0.000    1.143    2.857    1.714   12.000    0.000 
#    5.143    0.000    0.000    0.000    0.000    0.000 
#    0.000    0.000    0.000    0.000    0.000    0.000 
#
# Total GULP energy -347277.749209 kJ/mol
# GULP energy per Si atom -12402.776757 kJ/mol
# Density = 2.260525 g / cm^3
# Si number density = 22.656816 Si / 1000 Ang^3
#
#
#
# Elastic Constant Matrix: (Units=GPa)
#
#
# Indices 1 2 3 4 5 6 
#
# 1 119.3827 38.4998 17.4238 0.0000 0.0000 5.4839
# 2 38.4998 119.3827 17.4238 0.0000 0.0000 -5.4839
# 3 17.4238 17.4238 59.8115 0.0000 0.0000 0.0000
# 4 0.0000 0.0000 0.0000 23.5985 0.0000 0.0000
# 5 0.0000 0.0000 0.0000 0.0000 23.5985 0.0000
# 6 5.4839 -5.4839 0.0000 0.0000 0.0000 39.0070
#
#
#
# Elastic Compliance Matrix: (Units=1/GPa)
#
#
# Indices 1 2 3 4 5 6 
#
# 1 0.009686 -0.002917 -0.001972 0.000000 0.000000 -0.001772
# 2 -0.002917 0.009686 -0.001972 0.000000 0.000000 0.001772
# 3 -0.001972 -0.001972 0.017868 0.000000 0.000000 0.000000
# 4 0.000000 0.000000 0.000000 0.042376 0.000000 0.000000
# 5 0.000000 0.000000 0.000000 0.000000 0.042376 0.000000
# 6 -0.001772 0.001772 0.000000 0.000000 0.000000 0.026135
#
#
# Mechanical properties :
#
#
# Convention : Reuss Voigt Hill
#
# Bulk Modulus (GPa) = 42.51959 49.47461 45.99710
# Shear Modulus (GPa) = 29.46572 32.25610 30.86091
#
# Velocity S-wave (km/s) = 3.61019 3.77726 3.69467
# Velocity P-wave (km/s) = 6.01544 6.39590 6.20859
#
# Compressibility (1/GPa) = 0.02351857
#
# Stress axis : x y z
#
# Youngs Moduli (GPa) = 103.23704 103.23703 55.96578
#
# Poissons Ratio (x) = 0.30118 0.11036
# Poissons Ratio (y) = 0.30118 0.11036
# Poissons Ratio (z) = 0.20357 0.20357
#
# Static dielectric constant tensor:
#      x y z
#    x 4.234060 0.000000 0.000000 
#    y 0.000000 4.234060 0.000000 
#    z 0.000000 0.000000 3.696370 
# 
# 
# High freq. dielectric constant tensor:
#      x y z
#    x 1.906470 0.000000 0.000000 
#    y 0.000000 1.906470 0.000000 
#    z 0.000000 0.000000 1.875140 
# 
# From -- ./inp_files/1842.got.cif
#   From: 2010.03.12/outbox.cif.g09.slc.cpg/sg82_1_cif.got.tgz:1842.got - 2010.04.08 20:02:50.
