data_PCOD8302242
_publ_section_title
;
Structure prediction by ZEFSAII (Michael W. Deem and Ramdas Pophale) SiO2 
 PCOD8302242
Probable space group: P -4
;
_chemical_formula_sum "Si O2"
_cell_formula_units_Z 22
_cell_length_a 9.992494
_cell_length_b 9.992494
_cell_length_c 12.969249
_cell_angle_alpha 90.000000
_cell_angle_beta 90.000000
_cell_angle_gamma 90.000000
_cell_volume 1294.978687
_symmetry_space_group_name_H-M "P -4"
_symmetry_group_IT_number 81
_symmetry_cell_setting 'tetragonal'
loop_
_space_group_symop_operation_xyz
x,y,z
y,-x,-z
-x,-y,z
-y,x,-z
loop_
_atom_site_type_symbol
_atom_site_label
_atom_site_fract_x
_atom_site_fract_y
_atom_site_fract_z
Si Si1 0.843804 0.001320 0.252912
Si Si2 0.215643 0.010439 0.028572
Si Si3 0.148016 0.491340 0.285887
Si Si4 0.147079 0.236863 0.398786
Si Si5 0.000000 0.500000 0.087114
Si Si6 0.830341 0.246491 0.385462
O O1 0.760852 0.967095 0.150214
O O2 0.810192 0.899410 0.344092
O O3 0.797332 0.143647 0.294675
O O4 0.000000 0.000000 0.221760
O O5 0.363216 0.004449 0.978158
O O6 0.129568 0.135481 0.985562
O O7 0.209529 0.352645 0.326056
O O8 0.225945 0.615619 0.336795
O O9 0.000000 0.500000 0.335102
O O10 0.133239 0.496284 0.160741
O O11 0.214601 0.249561 0.510458
O O12 0.987626 0.241351 0.410633
#
# Coordination Sequence:
#
# PCOD8302242 Si02
#       6
#     4   4   4   4   2   4
#     4  10  18  27  47  76 104 130 169 222 268 312
#     4  11  20  33  54  81 106 136 184 243 279 318
#     4   8  18  30  47  69 106 140 170 203 263 333
#     4  10  17  29  48  77 104 136 167 208 266 325
#     4  10  20  36  52  76 116 146 186 222 296 334
#     4  10  17  29  48  77 104 136 167 208 266 325
#
# _framework density 16.988696000000001
#
# number of rings (size 3 to 8) (size 9 to 14) (size 15 to 20)
#    0.545    1.636    3.636    2.182    0.000    0.000 
#    0.000    1.818    0.000    1.091    0.000    2.545 
#    0.000    0.000    0.000    0.000    0.000    0.000 
#
# Total GULP energy -272569.326265 kJ/mol
# GULP energy per Si atom -12389.514830 kJ/mol
# Density = 1.695003 g / cm^3
# Si number density = 16.988696 Si / 1000 Ang^3
#
#
#
# Elastic Constant Matrix: (Units=GPa)
#
#
# Indices 1 2 3 4 5 6 
#
# 1 71.6778 16.0537 22.2789 0.0000 0.0000 -2.8326
# 2 16.0537 71.6778 22.2789 0.0000 0.0000 2.8326
# 3 22.2789 22.2789 107.1519 0.0000 0.0000 0.0000
# 4 0.0000 0.0000 0.0000 25.5980 0.0000 0.0000
# 5 0.0000 0.0000 0.0000 0.0000 25.5980 0.0000
# 6 -2.8326 2.8326 0.0000 0.0000 0.0000 7.0603
#
#
#
# Elastic Compliance Matrix: (Units=1/GPa)
#
#
# Indices 1 2 3 4 5 6 
#
# 1 0.015744 -0.003000 -0.002650 0.000000 0.000000 0.007520
# 2 -0.003000 0.015744 -0.002650 0.000000 0.000000 -0.007520
# 3 -0.002650 -0.002650 0.010434 0.000000 0.000000 0.000000
# 4 0.000000 0.000000 0.000000 0.039066 0.000000 0.000000
# 5 0.000000 0.000000 0.000000 0.000000 0.039066 0.000000
# 6 0.007520 -0.007520 0.000000 0.000000 0.000000 0.147670
#
#
# Mechanical properties :
#
#
# Convention : Reuss Voigt Hill
#
# Bulk Modulus (GPa) = 39.48859 41.30339 40.39599
# Shear Modulus (GPa) = 17.07861 24.31099 20.69480
#
# Velocity S-wave (km/s) = 3.17407 3.78697 3.49399
# Velocity P-wave (km/s) = 6.06032 6.59444 6.33301
#
# Compressibility (1/GPa) = 0.02532377
#
# Stress axis : x y z
#
# Youngs Moduli (GPa) = 63.51643 63.51643 95.83679
#
# Poissons Ratio (x) = 0.19054 0.25394
# Poissons Ratio (y) = 0.19054 0.25394
# Poissons Ratio (z) = 0.16830 0.16830
#
# Static dielectric constant tensor:
#      x y z
#    x 2.974690 0.000000 0.000000 
#    y 0.000000 2.974690 0.000000 
#    z 0.000000 0.000000 3.192740 
# 
# 
# High freq. dielectric constant tensor:
#      x y z
#    x 1.618800 0.000000 0.000000 
#    y 0.000000 1.618800 0.000000 
#    z 0.000000 0.000000 1.670480 
# 
# From -- ./inp_files/1623.got.cif
#   From: 2010.03.12/outbox.cif.g09.slc.cpg/sg81_cif.got.tgz:1623.got - 2010.04.08 20:01:38.
