data_PCOD8302091
_publ_section_title
;
Structure prediction by ZEFSAII (Michael W. Deem and Ramdas Pophale) SiO2 
 PCOD8302091
Probable space group: I 4
;
_chemical_formula_sum "Si O2"
_cell_formula_units_Z 44
_cell_length_a 14.130762
_cell_length_b 14.130762
_cell_length_c 7.978473
_cell_angle_alpha 90.000000
_cell_angle_beta 90.000000
_cell_angle_gamma 90.000000
_cell_volume 1593.129000
_symmetry_space_group_name_H-M "I 4"
_symmetry_group_IT_number 79
_symmetry_cell_setting 'tetragonal'
loop_
_space_group_symop_operation_xyz
x,y,z
-y,x,z
-x,-y,z
y,-x,z
1/2+x,1/2+y,1/2+z
1/2-y,1/2+x,1/2+z
1/2-x,1/2-y,1/2+z
1/2+y,1/2-x,1/2+z
loop_
_atom_site_type_symbol
_atom_site_label
_atom_site_fract_x
_atom_site_fract_y
_atom_site_fract_z
Si Si1 0.120705 0.232733 0.399990
Si Si2 0.693609 0.930381 0.279780
Si Si3 0.379295 0.267267 0.287396
Si Si4 0.500000 0.000000 0.843693
Si Si5 0.930381 0.306391 0.907606
Si Si6 0.385770 0.395811 0.593693
O O1 0.144570 0.208123 0.593693
O O2 0.178524 0.325084 0.330737
O O3 0.153213 0.148423 0.273670
O O4 0.006620 0.251411 0.393577
O O5 0.678524 0.825084 0.356649
O O6 0.589661 0.970005 0.231677
O O7 0.743841 0.921072 0.093693
O O8 0.493380 0.248589 0.293809
O O9 0.346787 0.351577 0.413717
O O10 0.589661 0.970005 0.955708
O O11 0.493617 0.368716 0.593693
#
# Coordination Sequence:
#
# PCOD8302091 Si02
#       6
#     8   8   8   4   8   8
#     4  10  21  36  63  95 128 160 202 247 306 363
#     4   9  16  29  54  90 130 161 193 239 299 369
#     4  10  21  36  63  95 128 160 202 247 306 363
#     4   8  14  20  44  86 122 172 198 222 284 358
#     4   9  16  29  54  90 130 161 193 239 299 369
#     4  11  26  48  68  83 112 164 218 259 294 354
#
# _framework density 27.618604999999999
#
# number of rings (size 3 to 8) (size 9 to 14) (size 15 to 20)
#    0.000    2.364    1.818    0.545    2.545    5.818 
#    0.000    3.636    0.000    0.000    0.000    0.000 
#    0.000    0.000    0.000    0.000    0.000    0.000 
#
# Total GULP energy -272623.842024 kJ/mol
# GULP energy per Si atom -12391.992819 kJ/mol
# Density = 2.755574 g / cm^3
# Si number density = 27.618605 Si / 1000 Ang^3
#
#
#
# Elastic Constant Matrix: (Units=GPa)
#
#
# Indices 1 2 3 4 5 6 
#
# 1 -132.9636 302.9750 53.9381 0.0000 0.0000 106.9171
# 2 302.9750 -132.9636 53.9381 0.0000 0.0000 -106.9171
# 3 53.9381 53.9381 187.5239 0.0000 0.0000 0.0000
# 4 0.0000 0.0000 0.0000 24.4319 0.0000 0.0000
# 5 0.0000 0.0000 0.0000 0.0000 24.4319 0.0000
# 6 106.9171 -106.9171 0.0000 0.0000 0.0000 2.6407
#
#
#
# Elastic Compliance Matrix: (Units=1/GPa)
#
#
# Indices 1 2 3 4 5 6 
#
# 1 0.003543 0.003653 -0.002070 0.000000 0.000000 0.004452
# 2 0.003653 0.003543 -0.002070 0.000000 0.000000 -0.004452
# 3 -0.002070 -0.002070 0.006523 0.000000 0.000000 0.000000
# 4 0.000000 0.000000 0.000000 0.040930 0.000000 0.000000
# 5 0.000000 0.000000 0.000000 0.000000 0.040930 0.000000
# 6 0.004452 -0.004452 0.000000 0.000000 0.000000 0.018154
#
#
# Mechanical properties :
#
#
# Convention : Reuss Voigt Hill
#
# Bulk Modulus (GPa) = 79.14372 82.58880 80.86626
# Shear Modulus (GPa) = 42.08500 -22.31606 9.88447
#
# Velocity S-wave (km/s) = 3.90781 -2.84563 1.89385
# Velocity P-wave (km/s) = 7.00568 4.37852 5.84170
#
# Compressibility (1/GPa) = 0.01263524
#
# Stress axis : x y z
#
# Youngs Moduli (GPa) = 282.27953 282.27953 153.29889
#
# Poissons Ratio (x) = -1.03104 0.31726
# Poissons Ratio (y) = -1.03104 0.31726
# Poissons Ratio (z) = 0.58420 0.58420
#
# Static dielectric constant tensor:
#      x y z
#    x 5.693610 0.000000 0.000000 
#    y 0.000000 5.693610 0.000000 
#    z 0.000000 0.000000 4.503830 
# 
# 
# High freq. dielectric constant tensor:
#      x y z
#    x 2.161000 0.000000 0.000000 
#    y 0.000000 2.161000 0.000000 
#    z 0.000000 0.000000 2.087260 
# 
# From -- ./inp_files/649.got.cif
#   From: 2010.03.12/outbox.cif.g09.slc.cpg/sg79_cif.got.tgz:649.got - 2010.04.16 16:38:49.
