data_PCOD8302627
_publ_section_title
;
Structure prediction by ZEFSAII (Michael W. Deem and Ramdas Pophale) SiO2 
 PCOD8302627
Probable space group: P 4/M
;
_chemical_formula_sum "Si O2"
_cell_formula_units_Z 48
_cell_length_a 17.950694
_cell_length_b 17.950694
_cell_length_c 8.354195
_cell_angle_alpha 90.000000
_cell_angle_beta 90.000000
_cell_angle_gamma 90.000000
_cell_volume 2691.950660
_symmetry_space_group_name_H-M "P 4/M"
_symmetry_group_IT_number 83
_symmetry_cell_setting 'tetragonal'
loop_
_space_group_symop_operation_xyz
x,y,z
-y,x,z
-x,-y,z
y,-x,z
-x,-y,-z
y,-x,-z
x,y,-z
-y,x,-z
loop_
_atom_site_type_symbol
_atom_site_label
_atom_site_fract_x
_atom_site_fract_y
_atom_site_fract_z
Si Si1 0.084347 0.796028 0.309378
Si Si2 0.681204 0.194546 0.316182
Si Si3 0.695560 0.799633 0.186991
Si Si4 0.917404 0.798592 0.309976
Si Si5 0.413432 0.303561 0.314210
Si Si6 0.426520 0.696278 0.183397
O O1 0.084423 0.789663 0.500000
O O2 0.116209 0.718775 0.234076
O O3 0.133407 0.866012 0.246296
O O4 0.000735 0.806795 0.242080
O O5 0.656024 0.190047 0.500000
O O6 0.746980 0.254111 0.297969
O O7 0.717630 0.116160 0.257410
O O8 0.610282 0.222009 0.213931
O O9 0.611368 0.776547 0.237147
O O10 0.708766 0.784610 0.000000
O O11 0.917380 0.803012 0.500000
O O12 0.393674 0.306627 0.500000
O O13 0.369402 0.369527 0.225513
O O14 0.501014 0.313860 0.291610
O O15 0.450322 0.690331 0.000000
#
# Coordination Sequence:
#
# PCOD8302627 Si02
#       6
#     8   8   8   8   8   8
#     4   9  16  29  46  69  97 129 163 201 242 288
#     4   9  16  30  49  70  93 125 164 201 236 282
#     4  10  18  30  47  69  93 124 162 202 240 282
#     4   8  15  26  46  71  97 126 163 202 240 283
#     4  11  21  35  53  74  98 129 162 196 235 283
#     4  11  21  34  51  75 102 129 158 196 239 284
#
# _framework density 17.830936000000001
#
# number of rings (size 3 to 8) (size 9 to 14) (size 15 to 20)
#    0.000    2.333    0.000    8.000    0.000    0.667 
#    0.000    7.500    0.000    1.000    0.000   11.667 
#    0.000    0.000    0.000    0.000    0.000    0.000 
#
# Total GULP energy -594862.349519 kJ/mol
# GULP energy per Si atom -12392.965615 kJ/mol
# Density = 1.779035 g / cm^3
# Si number density = 17.830936 Si / 1000 Ang^3
#
#
#
# Elastic Constant Matrix: (Units=GPa)
#
#
# Indices 1 2 3 4 5 6 
#
# 1 78.9704 69.0986 14.1305 0.0000 0.0000 -0.4333
# 2 69.0986 78.9704 14.1305 0.0000 0.0000 0.4333
# 3 14.1305 14.1305 61.0580 0.0000 0.0000 0.0000
# 4 0.0000 0.0000 0.0000 15.5972 0.0000 0.0000
# 5 0.0000 0.0000 0.0000 0.0000 15.5972 0.0000
# 6 -0.4333 0.4333 0.0000 0.0000 0.0000 19.5124
#
#
#
# Elastic Compliance Matrix: (Units=1/GPa)
#
#
# Indices 1 2 3 4 5 6 
#
# 1 0.054281 -0.047215 -0.001635 0.000000 0.000000 0.002254
# 2 -0.047215 0.054281 -0.001635 0.000000 0.000000 -0.002254
# 3 -0.001635 -0.001635 0.017135 0.000000 0.000000 0.000000
# 4 0.000000 0.000000 0.000000 0.064114 0.000000 0.000000
# 5 0.000000 0.000000 0.000000 0.000000 0.064114 0.000000
# 6 0.002254 -0.002254 0.000000 0.000000 0.000000 0.051350
#
#
# Mechanical properties :
#
#
# Convention : Reuss Voigt Hill
#
# Bulk Modulus (GPa) = 40.44434 45.96868 43.20651
# Shear Modulus (GPa) = 12.06311 18.25064 15.15688
#
# Velocity S-wave (km/s) = 2.60384 3.20275 2.91869
# Velocity P-wave (km/s) = 5.63660 6.28594 5.97011
#
# Compressibility (1/GPa) = 0.02472534
#
# Stress axis : x y z
#
# Youngs Moduli (GPa) = 18.42274 18.42274 58.36104
#
# Poissons Ratio (x) = 0.86983 0.09543
# Poissons Ratio (y) = 0.86983 0.09543
# Poissons Ratio (z) = 0.03012 0.03012
#
# Static dielectric constant tensor:
#      x y z
#    x 3.494640 0.000000 0.000000 
#    y 0.000000 3.494640 0.000000 
#    z 0.000000 0.000000 3.112980 
# 
# 
# High freq. dielectric constant tensor:
#      x y z
#    x 1.672530 0.000000 0.000000 
#    y 0.000000 1.672530 0.000000 
#    z 0.000000 0.000000 1.685910 
# 
# From -- ./inp_files/941.got.cif
#   From: 2010.03.12/outbox.cif.g09.slc.cpg/sg83_1_cif.got.tgz:941.got - 2010.04.08 20:05:18.
