data_PCOD8302020
_publ_section_title
;
Structure prediction by ZEFSAII (Michael W. Deem and Ramdas Pophale) SiO2 
 PCOD8302020
Probable space group: P 43
;
_chemical_formula_sum "Si O2"
_cell_formula_units_Z 28
_cell_length_a 12.425310
_cell_length_b 12.425310
_cell_length_c 10.209820
_cell_angle_alpha 90.000000
_cell_angle_beta 90.000000
_cell_angle_gamma 90.000000
_cell_volume 1576.277045
_symmetry_space_group_name_H-M "P 43"
_symmetry_group_IT_number 78
_symmetry_cell_setting 'tetragonal'
loop_
_space_group_symop_operation_xyz
x,y,z
-y,x,3/4+z
-x,-y,1/2+z
y,-x,1/4+z
loop_
_atom_site_type_symbol
_atom_site_label
_atom_site_fract_x
_atom_site_fract_y
_atom_site_fract_z
Si Si1 0.097244 0.642963 0.156900
Si Si2 0.269044 0.821348 0.101934
Si Si3 0.243282 0.835807 0.539865
Si Si4 0.981757 0.086319 0.291124
Si Si5 0.694554 0.954937 0.688154
Si Si6 0.265974 0.878136 0.822869
Si Si7 0.134034 0.411086 0.072016
O O1 0.173827 0.743913 0.140389
O O2 0.082246 0.625038 0.312458
O O3 0.152148 0.536236 0.098702
O O4 0.988160 0.665975 0.077242
O O5 0.375162 0.798942 0.191861
O O6 0.230360 0.945221 0.135010
O O7 0.299813 0.806868 0.948985
O O8 0.202270 0.959306 0.538424
O O9 0.141847 0.760825 0.502588
O O10 0.286579 0.812961 0.687634
O O11 0.341865 0.819323 0.442586
O O12 0.991835 0.038599 0.145715
O O13 0.860245 0.099253 0.337243
O O14 0.614354 0.006234 0.797935
#
# Coordination Sequence:
#
# PCOD8302020 Si02
#       7
#     4   4   4   4   4   4   4
#     4  11  21  36  56  81 119 156 196 233 284 357
#     4   9  20  38  54  78 112 153 186 231 288 340
#     4  11  20  35  54  81 115 149 195 234 279 351
#     4  10  21  27  45  74 106 149 182 225 265 334
#     4   9  20  36  56  84 115 150 187 240 290 341
#     4  10  22  31  49  80 112 148 189 231 287 335
#     4  10  22  35  58  80 111 157 189 234 289 340
#
# _framework density 17.763376000000001
#
# number of rings (size 3 to 8) (size 9 to 14) (size 15 to 20)
#    0.857    1.143    1.429    3.429    8.000    0.000 
#    0.000    0.000    0.000    0.000    0.000    6.000 
#    0.000    0.000    0.000    0.000    0.000    0.000 
#
# Total GULP energy -346903.387213 kJ/mol
# GULP energy per Si atom -12389.406686 kJ/mol
# Density = 1.772295 g / cm^3
# Si number density = 17.763376 Si / 1000 Ang^3
#
#
#
# Elastic Constant Matrix: (Units=GPa)
#
#
# Indices 1 2 3 4 5 6 
#
# 1 51.9839 3.5718 20.4427 0.0000 0.0000 5.9833
# 2 3.5718 51.9839 20.4427 0.0000 0.0000 -5.9833
# 3 20.4427 20.4427 117.1021 0.0000 0.0000 0.0000
# 4 0.0000 0.0000 0.0000 16.9703 0.0000 0.0000
# 5 0.0000 0.0000 0.0000 0.0000 16.9703 0.0000
# 6 5.9833 -5.9833 0.0000 0.0000 0.0000 6.0594
#
#
#
# Elastic Compliance Matrix: (Units=1/GPa)
#
#
# Indices 1 2 3 4 5 6 
#
# 1 0.023989 -0.003336 -0.003605 0.000000 0.000000 -0.026982
# 2 -0.003336 0.023989 -0.003605 0.000000 0.000000 0.026982
# 3 -0.003605 -0.003605 0.009798 0.000000 0.000000 0.000000
# 4 0.000000 0.000000 0.000000 0.058927 0.000000 0.000000
# 5 0.000000 0.000000 0.000000 0.000000 0.058927 0.000000
# 6 -0.026982 0.026982 0.000000 0.000000 0.000000 0.218320
#
#
# Mechanical properties :
#
#
# Convention : Reuss Voigt Hill
#
# Bulk Modulus (GPa) = 27.26048 34.44270 30.85159
# Shear Modulus (GPa) = 11.70215 19.77417 15.73816
#
# Velocity S-wave (km/s) = 2.56945 3.34008 2.97979
# Velocity P-wave (km/s) = 4.91758 5.85719 5.40783
#
# Compressibility (1/GPa) = 0.03668314
#
# Stress axis : x y z
#
# Youngs Moduli (GPa) = 41.68502 41.68502 102.05769
#
# Poissons Ratio (x) = 0.13907 0.36797
# Poissons Ratio (y) = 0.13907 0.36797
# Poissons Ratio (z) = 0.15029 0.15029
#
# Static dielectric constant tensor:
#      x y z
#    x 2.896940 0.000000 0.000000 
#    y 0.000000 2.896940 0.000000 
#    z 0.000000 0.000000 3.725610 
# 
# 
# High freq. dielectric constant tensor:
#      x y z
#    x 1.643660 0.000000 0.000000 
#    y 0.000000 1.643660 0.000000 
#    z 0.000000 0.000000 1.714890 
# 
# From -- ./inp_files/912.got.cif
#   From: 2010.03.12/outbox.cif.g09.slc.cpg/sg78_cif.got.tgz:912.got - 2010.04.16 16:37:20.
