data_PCOD8302291
_publ_section_title
;
Structure prediction by ZEFSAII (Michael W. Deem and Ramdas Pophale) SiO2 
 PCOD8302291
Probable space group: P -4
;
_chemical_formula_sum "Si O2"
_cell_formula_units_Z 18
_cell_length_a 11.355269
_cell_length_b 11.355269
_cell_length_c 6.360564
_cell_angle_alpha 90.000000
_cell_angle_beta 90.000000
_cell_angle_gamma 90.000000
_cell_volume 820.144696
_symmetry_space_group_name_H-M "P -4"
_symmetry_group_IT_number 81
_symmetry_cell_setting 'tetragonal'
loop_
_space_group_symop_operation_xyz
x,y,z
y,-x,-z
-x,-y,z
-y,x,-z
loop_
_atom_site_type_symbol
_atom_site_label
_atom_site_fract_x
_atom_site_fract_y
_atom_site_fract_z
Si Si1 0.725530 0.407045 0.329915
Si Si2 0.029569 0.223752 0.728686
Si Si3 0.191702 0.755935 0.982442
Si Si4 0.190548 0.337794 0.407153
Si Si5 0.500000 0.500000 0.500000
Si Si6 0.000000 0.000000 0.500000
O O1 0.801492 0.520123 0.402093
O O2 0.735131 0.300611 0.496155
O O3 0.589239 0.443087 0.333772
O O4 0.760335 0.361666 0.097944
O O5 0.072974 0.311459 0.543430
O O6 0.931400 0.284490 0.876091
O O7 0.959390 0.112223 0.634745
O O8 0.140807 0.169761 0.850605
O O9 0.290386 0.811961 0.829979
#
# Coordination Sequence:
#
# PCOD8302291 Si02
#       6
#     4   4   4   4   1   1
#     4   9  21  39  65  92 130 168 216 262 322 384
#     4  11  23  39  65  94 125 166 217 264 327 381
#     4  11  23  40  65  97 125 166 216 268 317 388
#     4  10  22  42  63  92 130 169 211 266 322 382
#     4   8  16  40  66  96 128 178 216 264 322 384
#     4  12  20  42  72  84 122 172 208 270 304 392
#
# _framework density 21.947344999999999
#
# number of rings (size 3 to 8) (size 9 to 14) (size 15 to 20)
#    0.000    1.778    2.222    1.333    0.000    7.111 
#    0.000    7.778    0.000    0.000    0.000    0.000 
#    0.000    0.000    0.000    0.000    0.000    0.000 
#
# Total GULP energy -223132.141702 kJ/mol
# GULP energy per Si atom -12396.230095 kJ/mol
# Density = 2.189739 g / cm^3
# Si number density = 21.947345 Si / 1000 Ang^3
#
#
#
# Elastic Constant Matrix: (Units=GPa)
#
#
# Indices 1 2 3 4 5 6 
#
# 1 104.5912 37.8013 52.0525 0.0000 0.0000 0.0381
# 2 37.8013 104.5912 52.0525 0.0000 0.0000 -0.0381
# 3 52.0525 52.0525 116.8216 0.0000 0.0000 0.0000
# 4 0.0000 0.0000 0.0000 36.8158 0.0000 0.0000
# 5 0.0000 0.0000 0.0000 0.0000 36.8158 0.0000
# 6 0.0381 -0.0381 0.0000 0.0000 0.0000 31.5299
#
#
#
# Elastic Compliance Matrix: (Units=1/GPa)
#
#
# Indices 1 2 3 4 5 6 
#
# 1 0.012694 -0.002278 -0.004641 0.000000 0.000000 -0.000018
# 2 -0.002278 0.012694 -0.004641 0.000000 0.000000 0.000018
# 3 -0.004641 -0.004641 0.012696 0.000000 0.000000 0.000000
# 4 0.000000 0.000000 0.000000 0.027162 0.000000 0.000000
# 5 0.000000 0.000000 0.000000 0.000000 0.027162 0.000000
# 6 -0.000018 0.000018 0.000000 0.000000 0.000000 0.031716
#
#
# Mechanical properties :
#
#
# Convention : Reuss Voigt Hill
#
# Bulk Modulus (GPa) = 66.82879 67.75737 67.29308
# Shear Modulus (GPa) = 32.84432 33.30548 33.07490
#
# Velocity S-wave (km/s) = 3.87267 3.89976 3.88624
# Velocity P-wave (km/s) = 7.10721 7.15662 7.13196
#
# Compressibility (1/GPa) = 0.01496361
#
# Stress axis : x y z
#
# Youngs Moduli (GPa) = 78.77630 78.77630 78.76540
#
# Poissons Ratio (x) = 0.17947 0.36556
# Poissons Ratio (y) = 0.17947 0.36556
# Poissons Ratio (z) = 0.36561 0.36561
#
# Static dielectric constant tensor:
#      x y z
#    x 3.842140 0.000000 0.000000 
#    y 0.000000 3.842140 0.000000 
#    z 0.000000 0.000000 3.979350 
# 
# 
# High freq. dielectric constant tensor:
#      x y z
#    x 1.858010 0.000000 0.000000 
#    y 0.000000 1.858010 0.000000 
#    z 0.000000 0.000000 1.864970 
# 
# From -- ./inp_files/228.got.cif
#   From: 2010.03.12/outbox.cif.g09.slc.cpg/sg81_cif.got.tgz:228.got - 2010.04.08 20:01:38.
