data_PCOD8302827
_publ_section_title
;
Structure prediction by ZEFSAII (Michael W. Deem and Ramdas Pophale) SiO2 
 PCOD8302827
Probable space group: P 4/M
;
_chemical_formula_sum "Si O2"
_cell_formula_units_Z 48
_cell_length_a 16.974629
_cell_length_b 16.974629
_cell_length_c 8.600233
_cell_angle_alpha 90.000000
_cell_angle_beta 90.000000
_cell_angle_gamma 90.000000
_cell_volume 2478.054191
_symmetry_space_group_name_H-M "P 4/M"
_symmetry_group_IT_number 83
_symmetry_cell_setting 'tetragonal'
loop_
_space_group_symop_operation_xyz
x,y,z
-y,x,z
-x,-y,z
y,-x,z
-x,-y,-z
y,-x,-z
x,y,-z
-y,x,-z
loop_
_atom_site_type_symbol
_atom_site_label
_atom_site_fract_x
_atom_site_fract_y
_atom_site_fract_z
Si Si1 0.502789 0.803581 0.181722
Si Si2 0.366590 0.087373 0.681205
Si Si3 0.501794 0.375276 0.815409
Si Si4 0.194405 0.913102 0.323522
Si Si5 0.090239 0.377723 0.677157
Si Si6 0.797417 0.922689 0.821407
O O1 0.569266 0.847632 0.279298
O O2 0.496736 0.714244 0.247037
O O3 0.421013 0.848868 0.209457
O O4 0.523802 0.804818 0.000000
O O5 0.344575 0.089776 0.500000
O O6 0.289087 0.108195 0.778257
O O7 0.398097 0.999939 0.724501
O O8 0.579219 0.423029 0.756387
O O9 0.502866 0.374031 0.000000
O O10 0.167553 0.897377 0.500000
O O11 0.285821 0.894009 0.301210
O O12 0.147530 0.857984 0.206454
O O13 0.177306 0.003630 0.283521
O O14 0.105539 0.404915 0.500000
O O15 0.799500 0.948373 0.000000
#
# Coordination Sequence:
#
# PCOD8302827 Si02
#       6
#     8   8   8   8   8   8
#     4  11  21  31  53  87 111 134 178 231 278 325
#     4  10  21  38  56  75 107 150 186 219 270 336
#     4   8  16  33  53  73 103 140 173 210 262 321
#     4  10  21  39  59  80 111 152 190 224 276 341
#     4   9  20  37  55  75 105 146 185 218 263 328
#     4  11  22  37  58  85 113 142 185 239 283 319
#
# _framework density 19.370035000000001
#
# number of rings (size 3 to 8) (size 9 to 14) (size 15 to 20)
#    0.000    2.167    0.000    5.000    0.000    7.667 
#    0.000    3.333    0.000    3.000    0.000    4.667 
#    0.000    0.000    0.000    0.000    0.000    0.000 
#
# Total GULP energy -595297.287683 kJ/mol
# GULP energy per Si atom -12402.026827 kJ/mol
# Density = 1.932595 g / cm^3
# Si number density = 19.370035 Si / 1000 Ang^3
#
#
#
# Elastic Constant Matrix: (Units=GPa)
#
#
# Indices 1 2 3 4 5 6 
#
# 1 111.8956 73.0130 22.5348 0.0000 0.0000 27.2755
# 2 73.0130 111.8956 22.5348 0.0000 0.0000 -27.2755
# 3 22.5348 22.5348 54.4798 0.0000 0.0000 0.0000
# 4 0.0000 0.0000 0.0000 29.0093 0.0000 0.0000
# 5 0.0000 0.0000 0.0000 0.0000 29.0093 0.0000
# 6 27.2755 -27.2755 0.0000 0.0000 0.0000 -123.7877
#
#
#
# Elastic Compliance Matrix: (Units=1/GPa)
#
#
# Indices 1 2 3 4 5 6 
#
# 1 0.012830 -0.006815 -0.002488 0.000000 0.000000 0.004329
# 2 -0.006815 0.012830 -0.002488 0.000000 0.000000 -0.004329
# 3 -0.002488 -0.002488 0.020414 0.000000 0.000000 0.000000
# 4 0.000000 0.000000 0.000000 0.034472 0.000000 0.000000
# 5 0.000000 0.000000 0.000000 0.000000 0.034472 0.000000
# 6 0.004329 -0.004329 0.000000 0.000000 0.000000 -0.006171
#
#
# Mechanical properties :
#
#
# Convention : Reuss Voigt Hill
#
# Bulk Modulus (GPa) = 44.46177 57.15959 50.81068
# Shear Modulus (GPa) = 35.73337 -2.47460 16.62939
#
# Velocity S-wave (km/s) = 4.29974 -1.13151 2.93321
# Velocity P-wave (km/s) = 6.90320 5.27885 6.14493
#
# Compressibility (1/GPa) = 0.02249123
#
# Stress axis : x y z
#
# Youngs Moduli (GPa) = 77.94274 77.94274 48.98714
#
# Poissons Ratio (x) = 0.53122 0.12187
# Poissons Ratio (y) = 0.53122 0.12187
# Poissons Ratio (z) = 0.19391 0.19391
#
# Static dielectric constant tensor:
#      x y z
#    x 3.600320 0.000000 0.000000 
#    y 0.000000 3.600320 0.000000 
#    z 0.000000 0.000000 3.361700 
# 
# 
# High freq. dielectric constant tensor:
#      x y z
#    x 1.755180 0.000000 0.000000 
#    y 0.000000 1.755180 0.000000 
#    z 0.000000 0.000000 1.742890 
# 
# From -- ./inp_files/899.got.cif
#   From: 2010.03.12/outbox.cif.g09.slc.cpg/sg83_1_cif.got.tgz:899.got - 2010.04.08 20:05:18.
