data_PCOD8302636
_publ_section_title
;
Structure prediction by ZEFSAII (Michael W. Deem and Ramdas Pophale) SiO2 
 PCOD8302636
Probable space group: P 4/M
;
_chemical_formula_sum "Si O2"
_cell_formula_units_Z 64
_cell_length_a 19.479952
_cell_length_b 19.479952
_cell_length_c 9.175828
_cell_angle_alpha 90.000000
_cell_angle_beta 90.000000
_cell_angle_gamma 90.000000
_cell_volume 3481.937962
_symmetry_space_group_name_H-M "P 4/M"
_symmetry_group_IT_number 83
_symmetry_cell_setting 'tetragonal'
loop_
_space_group_symop_operation_xyz
x,y,z
-y,x,z
-x,-y,z
y,-x,z
-x,-y,-z
y,-x,-z
x,y,-z
-y,x,-z
loop_
_atom_site_type_symbol
_atom_site_label
_atom_site_fract_x
_atom_site_fract_y
_atom_site_fract_z
Si Si1 0.022404 0.655202 0.827030
Si Si2 0.162615 0.875734 0.330730
Si Si3 0.275666 0.786845 0.827650
Si Si4 0.556722 0.592053 0.173409
Si Si5 0.553475 0.858697 0.826728
Si Si6 0.796427 0.972839 0.330627
Si Si7 0.274511 0.631712 0.173971
Si Si8 0.122201 0.400799 0.172348
O O1 0.076523 0.597991 0.775343
O O2 0.042493 0.727711 0.758652
O O3 0.948700 0.630659 0.767169
O O4 0.023085 0.664265 0.000000
O O5 0.179372 0.865471 0.500000
O O6 0.215816 0.831139 0.240842
O O7 0.085630 0.851924 0.293186
O O8 0.169836 0.955013 0.284015
O O9 0.270382 0.709462 0.768357
O O10 0.350215 0.816199 0.781928
O O11 0.266212 0.790437 0.000000
O O12 0.477756 0.593449 0.227507
O O13 0.596808 0.656997 0.238998
O O14 0.558130 0.594730 0.000000
O O15 0.589143 0.790069 0.765395
O O16 0.476505 0.864502 0.761362
O O17 0.550259 0.855497 0.000000
O O18 0.776854 0.972526 0.500000
O O19 0.275982 0.631405 0.000000
O O20 0.116025 0.407472 0.000000
#
# Coordination Sequence:
#
# PCOD8302636 Si02
#       8
#     8   8   8   8   8   8   8   8
#     4  10  18  32  52  74  99 133 168 203 245 291
#     4  10  21  37  55  75  99 129 162 199 243 294
#     4  10  19  32  50  76 102 128 165 206 248 293
#     4   8  14  23  34  51  83 127 163 191 236 294
#     4   9  17  27  42  68  99 130 167 206 244 290
#     4  10  21  36  55  76 100 130 164 201 245 296
#     4   9  17  25  39  64  95 128 161 204 247 287
#     4   9  17  28  46  70  98 131 166 204 246 292
#
# _framework density 18.380568
#
# number of rings (size 3 to 8) (size 9 to 14) (size 15 to 20)
#    0.000    2.625    1.250    1.500    1.750    3.250 
#    0.000    1.250    0.000    2.250    0.000    1.750 
#    0.000    0.000    0.000    1.375    0.000    1.750 
#
# Total GULP energy -793529.782347 kJ/mol
# GULP energy per Si atom -12398.902849 kJ/mol
# Density = 1.833873 g / cm^3
# Si number density = 18.380568 Si / 1000 Ang^3
#
#
#
# Elastic Constant Matrix: (Units=GPa)
#
#
# Indices 1 2 3 4 5 6 
#
# 1 141.2233 73.9908 23.4776 0.0000 0.0000 0.2661
# 2 73.9908 141.2233 23.4776 0.0000 0.0000 -0.2661
# 3 23.4776 23.4776 14.0237 0.0000 0.0000 0.0000
# 4 0.0000 0.0000 0.0000 13.6718 0.0000 0.0000
# 5 0.0000 0.0000 0.0000 0.0000 13.6718 0.0000
# 6 0.2661 -0.2661 0.0000 0.0000 0.0000 38.7466
#
#
#
# Elastic Compliance Matrix: (Units=1/GPa)
#
#
# Indices 1 2 3 4 5 6 
#
# 1 0.011097 -0.003777 -0.012255 0.000000 0.000000 -0.000102
# 2 -0.003777 0.011097 -0.012255 0.000000 0.000000 0.000102
# 3 -0.012255 -0.012255 0.112342 0.000000 0.000000 0.000000
# 4 0.000000 0.000000 0.000000 0.073143 0.000000 0.000000
# 5 0.000000 0.000000 0.000000 0.000000 0.073143 0.000000
# 6 -0.000102 0.000102 0.000000 0.000000 0.000000 0.025810
#
#
# Mechanical properties :
#
#
# Convention : Reuss Voigt Hill
#
# Bulk Modulus (GPa) = 12.82685 59.81804 36.32245
# Shear Modulus (GPa) = 12.84697 24.91963 18.88330
#
# Velocity S-wave (km/s) = 2.64662 3.68606 3.20871
# Velocity P-wave (km/s) = 4.04142 7.12256 5.79068
#
# Compressibility (1/GPa) = 0.07796145
#
# Stress axis : x y z
#
# Youngs Moduli (GPa) = 90.11052 90.11052 8.90139
#
# Poissons Ratio (x) = 0.34036 0.10909
# Poissons Ratio (y) = 0.34036 0.10909
# Poissons Ratio (z) = 1.10433 1.10433
#
# Static dielectric constant tensor:
#      x y z
#    x 3.663140 0.000000 0.000000 
#    y 0.000000 3.663140 0.000000 
#    z 0.000000 0.000000 2.799090 
# 
# 
# High freq. dielectric constant tensor:
#      x y z
#    x 1.728380 0.000000 0.000000 
#    y 0.000000 1.728380 0.000000 
#    z 0.000000 0.000000 1.644440 
# 
# From -- ./inp_files/2026.got.cif
#   From: 2010.03.12/outbox.cif.g09.slc.cpg/sg83_2_cif.got.tgz:2026.got - 2010.04.08 20:05:18.
