data_PCOD8302776
_publ_section_title
;
Structure prediction by ZEFSAII (Michael W. Deem and Ramdas Pophale) SiO2 
 PCOD8302776
Probable space group: P 4/M
;
_chemical_formula_sum "Si O2"
_cell_formula_units_Z 40
_cell_length_a 13.653162
_cell_length_b 13.653162
_cell_length_c 11.090924
_cell_angle_alpha 90.000000
_cell_angle_beta 90.000000
_cell_angle_gamma 90.000000
_cell_volume 2067.446195
_symmetry_space_group_name_H-M "P 4/M"
_symmetry_group_IT_number 83
_symmetry_cell_setting 'tetragonal'
loop_
_space_group_symop_operation_xyz
x,y,z
-y,x,z
-x,-y,z
y,-x,z
-x,-y,-z
y,-x,-z
x,y,-z
-y,x,-z
loop_
_atom_site_type_symbol
_atom_site_label
_atom_site_fract_x
_atom_site_fract_y
_atom_site_fract_z
Si Si1 0.549548 0.202960 0.500000
Si Si2 0.241175 0.234310 0.247405
Si Si3 0.919313 0.862733 0.366393
Si Si4 0.617491 0.917225 0.138505
Si Si5 0.586199 0.124919 0.242150
Si Si6 0.267311 0.669832 0.500000
O O1 0.566798 0.132859 0.385217
O O2 0.445719 0.255658 0.500000
O O3 0.620383 0.296866 0.500000
O O4 0.127020 0.205214 0.264679
O O5 0.297404 0.164454 0.154716
O O6 0.219818 0.345985 0.202575
O O7 0.292016 0.217955 0.377020
O O8 0.895511 0.821796 0.500000
O O9 0.033483 0.867983 0.347815
O O10 0.515255 0.864285 0.170441
O O11 0.631983 0.016588 0.216374
O O12 0.617138 0.949502 0.000000
#
# Coordination Sequence:
#
# PCOD8302776 Si02
#       6
#     4   8   8   8   8   4
#     4  10  20  37  59  90 117 154 179 231 302 352
#     4  11  20  36  57  84 112 149 186 238 287 347
#     4   9  17  29  47  76 114 148 176 215 275 342
#     4  11  24  40  59  82 112 158 202 242 284 327
#     4  10  22  38  59  87 119 145 191 238 291 346
#     4  10  20  34  56  86 118 141 190 228 290 355
#
# _framework density 19.347542000000001
#
# number of rings (size 3 to 8) (size 9 to 14) (size 15 to 20)
#    0.000    1.800    3.000    3.000    0.000    4.200 
#    0.000    0.000    0.000    0.600    0.000    5.600 
#    0.000    0.000    0.000    0.000    0.000    0.000 
#
# Total GULP energy -495603.273113 kJ/mol
# GULP energy per Si atom -12390.081828 kJ/mol
# Density = 1.930351 g / cm^3
# Si number density = 19.347542 Si / 1000 Ang^3
#
#
#
# Elastic Constant Matrix: (Units=GPa)
#
#
# Indices 1 2 3 4 5 6 
#
# 1 74.5735 37.9573 36.9899 0.0000 0.0000 0.8991
# 2 37.9573 74.5735 36.9899 0.0000 0.0000 -0.8991
# 3 36.9899 36.9899 95.2057 0.0000 0.0000 0.0000
# 4 0.0000 0.0000 0.0000 20.9071 0.0000 0.0000
# 5 0.0000 0.0000 0.0000 0.0000 20.9071 0.0000
# 6 0.8991 -0.8991 0.0000 0.0000 0.0000 33.1321
#
#
#
# Elastic Compliance Matrix: (Units=1/GPa)
#
#
# Indices 1 2 3 4 5 6 
#
# 1 0.019641 -0.007706 -0.004637 0.000000 0.000000 -0.000742
# 2 -0.007706 0.019641 -0.004637 0.000000 0.000000 0.000742
# 3 -0.004637 -0.004637 0.014107 0.000000 0.000000 0.000000
# 4 0.000000 0.000000 0.000000 0.047831 0.000000 0.000000
# 5 0.000000 0.000000 0.000000 0.000000 0.047831 0.000000
# 6 -0.000742 0.000742 0.000000 0.000000 0.000000 0.030223
#
#
# Mechanical properties :
#
#
# Convention : Reuss Voigt Hill
#
# Bulk Modulus (GPa) = 51.47073 52.02521 51.74797
# Shear Modulus (GPa) = 22.75743 23.81696 23.28719
#
# Velocity S-wave (km/s) = 3.43336 3.51238 3.47309
# Velocity P-wave (km/s) = 6.50986 6.58766 6.54888
#
# Compressibility (1/GPa) = 0.01942852
#
# Stress axis : x y z
#
# Youngs Moduli (GPa) = 50.91424 50.91424 70.88792
#
# Poissons Ratio (x) = 0.39234 0.32871
# Poissons Ratio (y) = 0.39234 0.32871
# Poissons Ratio (z) = 0.23609 0.23609
#
# Static dielectric constant tensor:
#      x y z
#    x 3.619730 0.000000 0.000000 
#    y 0.000000 3.619730 0.000000 
#    z 0.000000 0.000000 3.353630 
# 
# 
# High freq. dielectric constant tensor:
#      x y z
#    x 1.754140 0.000000 0.000000 
#    y 0.000000 1.754140 0.000000 
#    z 0.000000 0.000000 1.731710 
# 
# From -- ./inp_files/727.got.cif
#   From: 2010.03.12/outbox.cif.g09.slc.cpg/sg83_1_cif.got.tgz:727.got - 2010.04.08 20:05:18.
