data_PCOD8302442
_publ_section_title
;
Structure prediction by ZEFSAII (Michael W. Deem and Ramdas Pophale) SiO2 
 PCOD8302442
Probable space group: I -4 
;
_chemical_formula_sum "Si O2"
_cell_formula_units_Z 64
_cell_length_a 11.089457
_cell_length_b 11.089457
_cell_length_c 25.473725
_cell_angle_alpha 90.000000
_cell_angle_beta 90.000000
_cell_angle_gamma 90.000000
_cell_volume 3132.658246
_symmetry_space_group_name_H-M "I -4 "
_symmetry_group_IT_number 82
_symmetry_cell_setting 'tetragonal'
loop_
_space_group_symop_operation_xyz
x,y,z
y,-x,-z
-x,-y,z
-y,x,-z
1/2+x,1/2+y,1/2+z
1/2+y,1/2-x,1/2-z
1/2-x,1/2-y,1/2+z
1/2-y,1/2+x,1/2-z
loop_
_atom_site_type_symbol
_atom_site_label
_atom_site_fract_x
_atom_site_fract_y
_atom_site_fract_z
Si Si1 0.965331 0.127472 0.348744
Si Si2 0.719485 0.970661 0.035651
Si Si3 0.231876 0.265365 0.608688
Si Si4 0.626670 0.706778 0.940658
Si Si5 0.135250 0.955490 0.839925
Si Si6 0.311122 0.099463 0.517671
Si Si7 0.324872 0.375056 0.429962
Si Si8 0.501091 0.198281 0.755016
O O1 0.821821 0.136046 0.361886
O O2 0.043949 0.129160 0.401965
O O3 0.002707 0.236979 0.311281
O O4 0.000000 0.000000 0.321617
O O5 0.821902 0.039938 0.069737
O O6 0.663106 0.868473 0.074315
O O7 0.621639 0.066490 0.015065
O O8 0.788809 0.900846 0.989820
O O9 0.313652 0.335273 0.652362
O O10 0.312400 0.180586 0.570358
O O11 0.542206 0.808746 0.968372
O O12 0.730529 0.775880 0.908146
O O13 0.689720 0.623096 0.984171
O O14 0.204285 0.009344 0.790526
O O15 0.184781 0.009316 0.894114
O O16 0.000000 0.000000 0.830726
O O17 0.620110 0.118171 0.751809
#
# Coordination Sequence:
#
# PCOD8302442 Si02
#       8
#     8   8   8   8   8   8   8   8
#     4  11  25  45  66  88 128 174 219 274 327 399
#     4  11  19  35  55  88 132 171 204 263 316 384
#     4  11  21  39  58  94 128 170 223 254 325 396
#     4  10  23  37  56  87 122 172 223 255 315 383
#     4  12  22  37  67  95 125 167 208 265 332 403
#     4  10  22  36  56  86 128 172 216 262 309 379
#     4  11  21  34  55  90 130 165 205 254 324 380
#     4  11  24  45  70  98 129 156 209 285 346 395
#
# _framework density 20.429935
#
# number of rings (size 3 to 8) (size 9 to 14) (size 15 to 20)
#    0.000    1.125    6.250    1.125    3.500    0.500 
#    0.000    0.000    0.000    0.000    0.000    0.000 
#    0.000    0.000    0.000    0.000    0.000    0.000 
#
# Total GULP energy -396736.968530 kJ/mol
# GULP energy per Si atom -12398.030267 kJ/mol
# Density = 2.038344 g / cm^3
# Si number density = 20.429935 Si / 1000 Ang^3
#
#
#
# Elastic Constant Matrix: (Units=GPa)
#
#
# Indices 1 2 3 4 5 6 
#
# 1 103.0152 40.8523 30.5791 0.0000 0.0000 -2.2992
# 2 40.8523 103.0152 30.5791 0.0000 0.0000 2.2992
# 3 30.5791 30.5791 71.7344 0.0000 0.0000 0.0000
# 4 0.0000 0.0000 0.0000 26.2999 0.0000 0.0000
# 5 0.0000 0.0000 0.0000 0.0000 26.2999 0.0000
# 6 -2.2992 2.2992 0.0000 0.0000 0.0000 24.9438
#
#
#
# Elastic Compliance Matrix: (Units=1/GPa)
#
#
# Indices 1 2 3 4 5 6 
#
# 1 0.012343 -0.003854 -0.003619 0.000000 0.000000 0.001493
# 2 -0.003854 0.012343 -0.003619 0.000000 0.000000 -0.001493
# 3 -0.003619 -0.003619 0.017026 0.000000 0.000000 0.000000
# 4 0.000000 0.000000 0.000000 0.038023 0.000000 0.000000
# 5 0.000000 0.000000 0.000000 0.000000 0.038023 0.000000
# 6 0.001493 -0.001493 0.000000 0.000000 0.000000 0.040365
#
#
# Mechanical properties :
#
#
# Convention : Reuss Voigt Hill
#
# Bulk Modulus (GPa) = 51.20644 53.53174 52.36909
# Shear Modulus (GPa) = 26.76430 27.22567 26.99498
#
# Velocity S-wave (km/s) = 3.62339 3.65449 3.63897
# Velocity P-wave (km/s) = 6.52872 6.63826 6.58372
#
# Compressibility (1/GPa) = 0.01952879
#
# Stress axis : x y z
#
# Youngs Moduli (GPa) = 81.01628 81.01628 58.73516
#
# Poissons Ratio (x) = 0.31224 0.21255
# Poissons Ratio (y) = 0.31224 0.21255
# Poissons Ratio (z) = 0.29318 0.29318
#
# Static dielectric constant tensor:
#      x y z
#    x 3.706760 0.000000 0.000000 
#    y 0.000000 3.706760 0.000000 
#    z 0.000000 0.000000 3.515880 
# 
# 
# High freq. dielectric constant tensor:
#      x y z
#    x 1.799810 0.000000 0.000000 
#    y 0.000000 1.799810 0.000000 
#    z 0.000000 0.000000 1.777340 
# 
# From -- ./inp_files/3563.got.cif
#   From: 2010.03.12/outbox.cif.g09.slc.cpg/sg82_2_cif.got.tgz:3563.got - 2010.04.08 20:02:50.
