data_PCOD8302167
_publ_section_title
;
Structure prediction by ZEFSAII (Michael W. Deem and Ramdas Pophale) SiO2 
 PCOD8302167
Probable space group: I 41
;
_chemical_formula_sum "Si O2"
_cell_formula_units_Z 52
_cell_length_a 17.991516
_cell_length_b 17.991516
_cell_length_c 8.569627
_cell_angle_alpha 90.000000
_cell_angle_beta 90.000000
_cell_angle_gamma 90.000000
_cell_volume 2773.942395
_symmetry_space_group_name_H-M "I 41"
_symmetry_group_IT_number 80
_symmetry_cell_setting 'tetragonal'
loop_
_space_group_symop_operation_xyz
x,y,z
-y,1/2+x,1/4+z
-x,-y,z
y,1/2-x,1/4+z
1/2+x,1/2+y,1/2+z
1/2-y,x,3/4+z
1/2-x,1/2-y,1/2+z
1/2+y,-x,3/4+z
loop_
_atom_site_type_symbol
_atom_site_label
_atom_site_fract_x
_atom_site_fract_y
_atom_site_fract_z
Si Si1 0.218405 0.945663 0.418940
Si Si2 0.051981 0.181339 0.281052
Si Si3 0.500000 0.500000 0.170526
Si Si4 0.870172 0.422865 0.745231
Si Si5 0.905425 0.614202 0.103554
Si Si6 0.046963 0.242724 0.952327
Si Si7 0.831581 0.935088 0.180384
O O1 0.298835 0.922360 0.356917
O O2 0.162620 0.875877 0.437667
O O3 0.233810 0.980940 0.588016
O O4 0.172019 0.996137 0.297604
O O5 0.085383 0.246705 0.388857
O O6 0.124209 0.130005 0.266081
O O7 0.982632 0.139746 0.358276
O O8 0.017907 0.209553 0.116790
O O9 0.557162 0.449430 0.073285
O O10 0.456664 0.442119 0.276472
O O11 0.817998 0.600251 0.124655
O O12 0.950723 0.627496 0.265105
O O13 0.905752 0.683935 0.987958
#
# Coordination Sequence:
#
# PCOD8302167 Si02
#       7
#     8   8   4   8   8   8   8
#     4  11  22  41  61  87 118 156 200 255 298 358
#     4   9  20  38  58  87 122 161 197 244 299 361
#     4  12  20  34  68  90 110 154 210 244 306 360
#     4  11  23  39  63  88 117 155 202 251 306 361
#     4  10  21  37  58  91 119 160 199 244 301 358
#     4  10  20  38  59  87 126 154 199 245 296 361
#     4   9  20  36  58  85 127 154 197 246 295 361
#
# _framework density 18.745884
#
# number of rings (size 3 to 8) (size 9 to 14) (size 15 to 20)
#    0.000    1.846    3.077    0.923    0.000    2.462 
#    0.000   13.846    0.000    0.000    0.000    0.000 
#    0.000    0.000    0.000    0.000    0.000    0.000 
#
# Total GULP energy -322226.742066 kJ/mol
# GULP energy per Si atom -12393.336233 kJ/mol
# Density = 1.870322 g / cm^3
# Si number density = 18.745884 Si / 1000 Ang^3
#
#
#
# Elastic Constant Matrix: (Units=GPa)
#
#
# Indices 1 2 3 4 5 6 
#
# 1 104.0468 60.5383 49.8700 0.0000 0.0000 -0.7440
# 2 60.5383 104.0468 49.8700 0.0000 0.0000 0.7440
# 3 49.8700 49.8700 87.3769 0.0000 0.0000 0.0000
# 4 0.0000 0.0000 0.0000 24.4918 0.0000 0.0000
# 5 0.0000 0.0000 0.0000 0.0000 24.4918 0.0000
# 6 -0.7440 0.7440 0.0000 0.0000 0.0000 29.3583
#
#
#
# Elastic Compliance Matrix: (Units=1/GPa)
#
#
# Indices 1 2 3 4 5 6 
#
# 1 0.016146 -0.006858 -0.005301 0.000000 0.000000 0.000583
# 2 -0.006858 0.016146 -0.005301 0.000000 0.000000 -0.000583
# 3 -0.005301 -0.005301 0.017496 0.000000 0.000000 0.000000
# 4 0.000000 0.000000 0.000000 0.040830 0.000000 0.000000
# 5 0.000000 0.000000 0.000000 0.000000 0.040830 0.000000
# 6 0.000583 -0.000583 0.000000 0.000000 0.000000 0.034091
#
#
# Mechanical properties :
#
#
# Convention : Reuss Voigt Hill
#
# Bulk Modulus (GPa) = 67.25993 68.44744 67.85369
# Shear Modulus (GPa) = 24.34069 24.68118 24.51094
#
# Velocity S-wave (km/s) = 3.60732 3.63246 3.61991
# Velocity P-wave (km/s) = 7.30124 7.36109 7.33122
#
# Compressibility (1/GPa) = 0.01486769
#
# Stress axis : x y z
#
# Youngs Moduli (GPa) = 61.93376 61.93376 57.15519
#
# Poissons Ratio (x) = 0.42472 0.30300
# Poissons Ratio (y) = 0.42472 0.30300
# Poissons Ratio (z) = 0.32834 0.32834
#
# Static dielectric constant tensor:
#      x y z
#    x 3.412910 0.000000 0.000000 
#    y 0.000000 3.412910 0.000000 
#    z 0.000000 0.000000 3.712510 
# 
# 
# High freq. dielectric constant tensor:
#      x y z
#    x 1.721420 0.000000 0.000000 
#    y 0.000000 1.721420 0.000000 
#    z 0.000000 0.000000 1.743830 
# 
# From -- ./inp_files/696.got.cif
#   From: 2010.03.12/outbox.cif.g09.slc.cpg/sg80_cif.got.tgz:696.got - 2010.04.08 20:00:04.
