data_PCOD8302345
_publ_section_title
;
Structure prediction by ZEFSAII (Michael W. Deem and Ramdas Pophale) SiO2 
 PCOD8302345
Probable space group: I -4 
;
_chemical_formula_sum "Si O2"
_cell_formula_units_Z 56
_cell_length_a 11.915219
_cell_length_b 11.915219
_cell_length_c 20.731008
_cell_angle_alpha 90.000000
_cell_angle_beta 90.000000
_cell_angle_gamma 90.000000
_cell_volume 2943.231869
_symmetry_space_group_name_H-M "I -4 "
_symmetry_group_IT_number 82
_symmetry_cell_setting 'tetragonal'
loop_
_space_group_symop_operation_xyz
x,y,z
y,-x,-z
-x,-y,z
-y,x,-z
1/2+x,1/2+y,1/2+z
1/2+y,1/2-x,1/2-z
1/2-x,1/2-y,1/2+z
1/2-y,1/2+x,1/2-z
loop_
_atom_site_type_symbol
_atom_site_label
_atom_site_fract_x
_atom_site_fract_y
_atom_site_fract_z
Si Si1 0.625928 0.957437 0.510115
Si Si2 0.120907 0.034883 0.157378
Si Si3 0.663758 0.644767 0.434564
Si Si4 0.049683 0.147497 0.470120
Si Si5 0.100408 0.234666 0.070174
Si Si6 0.753677 0.635572 0.888741
Si Si7 0.529580 0.178584 0.243780
O O1 0.637821 0.865530 0.568159
O O2 0.653918 0.907266 0.439934
O O3 0.500000 0.000000 0.507394
O O4 0.717320 0.056159 0.522556
O O5 0.132418 0.165737 0.135209
O O6 0.221751 0.008916 0.205843
O O7 0.128409 0.961995 0.092157
O O8 0.000000 0.000000 0.189318
O O9 0.659098 0.680400 0.508441
O O10 0.736127 0.533046 0.434062
O O11 0.727828 0.730890 0.386816
O O12 0.124899 0.110654 0.409299
O O13 0.919110 0.106357 0.467811
O O14 0.769046 0.576491 0.821215
O O15 0.411425 0.118298 0.228473
#
# Coordination Sequence:
#
# PCOD8302345 Si02
#       7
#     8   8   8   8   8   8   8
#     4  10  21  35  58  93 117 150 194 244 301 354
#     4  10  21  38  57  85 118 147 196 239 294 360
#     4  10  17  32  57  88 118 149 182 245 307 351
#     4   9  19  40  56  82 119 154 198 238 284 355
#     4  10  19  31  58  89 116 147 189 245 303 351
#     4  10  21  37  59  83 118 162 191 240 294 347
#     4  11  24  42  59  85 119 156 199 243 288 350
#
# _framework density 19.026703000000001
#
# number of rings (size 3 to 8) (size 9 to 14) (size 15 to 20)
#    0.000    2.000    2.857    0.857    2.000    0.000 
#   23.143    0.000    0.000    0.000    0.000    0.000 
#    0.000    0.000    0.000    0.000    0.000    0.000 
#
# Total GULP energy -346891.609229 kJ/mol
# GULP energy per Si atom -12388.986044 kJ/mol
# Density = 1.898340 g / cm^3
# Si number density = 19.026703 Si / 1000 Ang^3
#
#
#
# Elastic Constant Matrix: (Units=GPa)
#
#
# Indices 1 2 3 4 5 6 
#
# 1 102.8297 42.2528 27.8370 0.0000 0.0000 0.3948
# 2 42.2528 102.8297 27.8370 0.0000 0.0000 -0.3948
# 3 27.8370 27.8370 55.3983 0.0000 0.0000 0.0000
# 4 0.0000 0.0000 0.0000 24.3373 0.0000 0.0000
# 5 0.0000 0.0000 0.0000 0.0000 24.3373 0.0000
# 6 0.3948 -0.3948 0.0000 0.0000 0.0000 28.1532
#
#
#
# Elastic Compliance Matrix: (Units=1/GPa)
#
#
# Indices 1 2 3 4 5 6 
#
# 1 0.012525 -0.003986 -0.004291 0.000000 0.000000 -0.000232
# 2 -0.003986 0.012525 -0.004291 0.000000 0.000000 0.000232
# 3 -0.004291 -0.004291 0.022363 0.000000 0.000000 0.000000
# 4 0.000000 0.000000 0.000000 0.041089 0.000000 0.000000
# 5 0.000000 0.000000 0.000000 0.000000 0.041089 0.000000
# 6 -0.000232 0.000232 0.000000 0.000000 0.000000 0.035526
#
#
# Mechanical properties :
#
#
# Convention : Reuss Voigt Hill
#
# Bulk Modulus (GPa) = 44.88668 50.76789 47.82729
# Shear Modulus (GPa) = 25.29349 26.24098 25.76723
#
# Velocity S-wave (km/s) = 3.65001 3.71774 3.68403
# Velocity P-wave (km/s) = 6.43475 6.72080 6.57933
#
# Compressibility (1/GPa) = 0.02227832
#
# Stress axis : x y z
#
# Youngs Moduli (GPa) = 79.83978 79.83977 44.71612
#
# Poissons Ratio (x) = 0.31823 0.19187
# Poissons Ratio (y) = 0.31823 0.19187
# Poissons Ratio (z) = 0.34258 0.34258
#
# Static dielectric constant tensor:
#      x y z
#    x 3.726440 0.000000 0.000000 
#    y 0.000000 3.726440 0.000000 
#    z 0.000000 0.000000 3.084080 
# 
# 
# High freq. dielectric constant tensor:
#      x y z
#    x 1.751740 0.000000 0.000000 
#    y 0.000000 1.751740 0.000000 
#    z 0.000000 0.000000 1.687920 
# 
# From -- ./inp_files/3121.got.cif
#   From: 2010.03.12/outbox.cif.g09.slc.cpg/sg82_2_cif.got.tgz:3121.got - 2010.04.08 20:02:50.
