data_PCOD8302161
_publ_section_title
;
Structure prediction by ZEFSAII (Michael W. Deem and Ramdas Pophale) SiO2 
 PCOD8302161
Probable space group: I 41
;
_chemical_formula_sum "Si O2"
_cell_formula_units_Z 40
_cell_length_a 14.140440
_cell_length_b 14.140440
_cell_length_c 8.772199
_cell_angle_alpha 90.000000
_cell_angle_beta 90.000000
_cell_angle_gamma 90.000000
_cell_volume 1754.019115
_symmetry_space_group_name_H-M "I 41"
_symmetry_group_IT_number 80
_symmetry_cell_setting 'tetragonal'
loop_
_space_group_symop_operation_xyz
x,y,z
-y,1/2+x,1/4+z
-x,-y,z
y,1/2-x,1/4+z
1/2+x,1/2+y,1/2+z
1/2-y,x,3/4+z
1/2-x,1/2-y,1/2+z
1/2+y,-x,3/4+z
loop_
_atom_site_type_symbol
_atom_site_label
_atom_site_fract_x
_atom_site_fract_y
_atom_site_fract_z
Si Si1 0.075628 0.651906 0.947210
Si Si2 0.270340 0.496642 0.616512
Si Si3 0.496643 0.270338 0.198357
Si Si4 0.348094 0.924375 0.867663
Si Si5 0.583895 0.916105 0.657433
O O1 0.025228 0.673880 0.785720
O O2 0.170215 0.592753 0.922716
O O3 0.099839 0.750000 0.032436
O O4 0.008774 0.586038 0.050508
O O5 0.250002 0.452223 0.782435
O O6 0.173880 0.525229 0.529156
O O7 0.329789 0.592749 0.642152
O O8 0.323794 0.416970 0.515900
O O9 0.416970 0.323797 0.298959
O O10 0.413960 0.991232 0.764367
#
# Coordination Sequence:
#
# PCOD8302161 Si02
#       5
#     8   8   8   8   8
#     4  10  20  36  59  84 117 154 185 230 285 337
#     4  11  22  35  58  88 116 149 189 235 282 336
#     4  11  22  35  58  88 116 149 189 235 282 336
#     4  10  20  36  59  84 117 154 185 230 285 337
#     4  10  21  40  58  80 116 156 192 226 281 344
#
# _framework density 22.804769
#
# number of rings (size 3 to 8) (size 9 to 14) (size 15 to 20)
#    0.000    1.600    0.000    8.400    0.000    6.400 
#    0.000    4.000    0.000   64.800    0.000    0.000 
#    0.000    0.000    0.000    0.000    0.000    0.000 
#
# Total GULP energy -247981.562881 kJ/mol
# GULP energy per Si atom -12399.078144 kJ/mol
# Density = 2.275286 g / cm^3
# Si number density = 22.804769 Si / 1000 Ang^3
#
#
#
# Elastic Constant Matrix: (Units=GPa)
#
#
# Indices 1 2 3 4 5 6 
#
# 1 76.7214 43.8169 45.5237 0.0000 0.0000 0.0005
# 2 43.8169 76.7214 45.5237 0.0000 0.0000 -0.0005
# 3 45.5237 45.5237 204.4636 0.0000 0.0000 0.0000
# 4 0.0000 0.0000 0.0000 16.9461 0.0000 0.0000
# 5 0.0000 0.0000 0.0000 0.0000 16.9461 0.0000
# 6 0.0005 -0.0005 0.0000 0.0000 0.0000 26.9251
#
#
#
# Elastic Compliance Matrix: (Units=1/GPa)
#
#
# Indices 1 2 3 4 5 6 
#
# 1 0.020182 -0.010209 -0.002221 0.000000 0.000000 -0.000001
# 2 -0.010209 0.020182 -0.002221 0.000000 0.000000 0.000001
# 3 -0.002221 -0.002221 0.005880 0.000000 0.000000 0.000000
# 4 0.000000 0.000000 0.000000 0.059011 0.000000 0.000000
# 5 0.000000 0.000000 0.000000 0.000000 0.059011 0.000000
# 6 -0.000001 0.000001 0.000000 0.000000 0.000000 0.037140
#
#
# Mechanical properties :
#
#
# Convention : Reuss Voigt Hill
#
# Bulk Modulus (GPa) = 59.01729 69.73722 64.37725
# Shear Modulus (GPa) = 21.15479 27.03295 24.09387
#
# Velocity S-wave (km/s) = 3.04903 3.44671 3.25395
# Velocity P-wave (km/s) = 6.19121 6.81808 6.51219
#
# Compressibility (1/GPa) = 0.01694419
#
# Stress axis : x y z
#
# Youngs Moduli (GPa) = 49.54857 49.54857 170.07776
#
# Poissons Ratio (x) = 0.50583 0.37767
# Poissons Ratio (y) = 0.50583 0.37767
# Poissons Ratio (z) = 0.11003 0.11003
#
# Static dielectric constant tensor:
#      x y z
#    x 3.915790 0.000000 0.000000 
#    y 0.000000 3.915790 0.000000 
#    z 0.000000 0.000000 4.596890 
# 
# 
# High freq. dielectric constant tensor:
#      x y z
#    x 1.879320 0.000000 0.000000 
#    y 0.000000 1.879320 0.000000 
#    z 0.000000 0.000000 1.919510 
# 
# From -- ./inp_files/605.got.cif
#   From: 2010.03.12/outbox.cif.g09.slc.cpg/sg80_cif.got.tgz:605.got - 2010.04.08 20:00:04.
