data_PCOD8302979
_publ_section_title
;
Structure prediction by ZEFSAII (Michael W. Deem and Ramdas Pophale) SiO2 
 PCOD8302979
Probable space group: P 4/M
;
_chemical_formula_sum "Si O2"
_cell_formula_units_Z 36
_cell_length_a 8.351836
_cell_length_b 8.351836
_cell_length_c 23.371738
_cell_angle_alpha 90.000000
_cell_angle_beta 90.000000
_cell_angle_gamma 90.000000
_cell_volume 1630.252687
_symmetry_space_group_name_H-M "P 4/M"
_symmetry_group_IT_number 83
_symmetry_cell_setting 'tetragonal'
loop_
_space_group_symop_operation_xyz
x,y,z
-y,x,z
-x,-y,z
y,-x,z
-x,-y,-z
y,-x,-z
x,y,-z
-y,x,-z
loop_
_atom_site_type_symbol
_atom_site_label
_atom_site_fract_x
_atom_site_fract_y
_atom_site_fract_z
Si Si1 0.593658 0.747335 0.228143
Si Si2 0.242305 0.102479 0.000000
Si Si3 0.245703 0.095788 0.667944
Si Si4 0.391485 0.261109 0.435073
Si Si5 0.754247 0.897211 0.123482
O O1 0.408613 0.704094 0.229973
O O2 0.630958 0.857899 0.282436
O O3 0.625940 0.846846 0.170602
O O4 0.329271 0.138359 0.939163
O O5 0.083058 0.204578 0.000000
O O6 0.328995 0.122757 0.606605
O O7 0.089115 0.204600 0.673932
O O8 0.577550 0.292738 0.423147
O O9 0.365329 0.202146 0.500000
O O10 0.916148 0.794962 0.130730
#
# Coordination Sequence:
#
# PCOD8302979 Si02
#       5
#     8   4   8   8   8
#     4  11  24  39  54  75 105 141 180 221 267 319
#     4   7  12  26  50  79 108 136 168 211 260 309
#     4  11  24  39  56  81 110 139 176 223 270 315
#     4   9  19  37  60  85 113 145 180 216 256 307
#     4   9  17  32  56  83 108 136 174 218 263 313
#
# _framework density 22.082467999999999
#
# number of rings (size 3 to 8) (size 9 to 14) (size 15 to 20)
#    0.000    2.333    0.000    4.667    0.000   10.667 
#    0.000    4.444    0.000    5.333    0.000    0.000 
#    0.000    0.000    0.000    0.000    0.000    0.000 
#
# Total GULP energy -446305.976471 kJ/mol
# GULP energy per Si atom -12397.388235 kJ/mol
# Density = 2.203221 g / cm^3
# Si number density = 22.082468 Si / 1000 Ang^3
#
#
#
# Elastic Constant Matrix: (Units=GPa)
#
#
# Indices 1 2 3 4 5 6 
#
# 1 18.2212 -8.9864 7.6241 0.0000 0.0000 -0.0890
# 2 -8.9864 18.2212 7.6241 0.0000 0.0000 0.0890
# 3 7.6241 7.6241 149.5118 0.0000 0.0000 0.0000
# 4 0.0000 0.0000 0.0000 -5.2054 0.0000 0.0000
# 5 0.0000 0.0000 0.0000 0.0000 -5.2054 0.0000
# 6 -0.0890 0.0890 0.0000 0.0000 0.0000 30.4047
#
#
#
# Elastic Compliance Matrix: (Units=1/GPa)
#
#
# Indices 1 2 3 4 5 6 
#
# 1 0.077498 0.040743 -0.006030 0.000000 0.000000 0.000108
# 2 0.040743 0.077498 -0.006030 0.000000 0.000000 -0.000108
# 3 -0.006030 -0.006030 0.007303 0.000000 0.000000 0.000000
# 4 0.000000 0.000000 0.000000 -0.192108 0.000000 0.000000
# 5 0.000000 0.000000 0.000000 0.000000 -0.192108 0.000000
# 6 0.000108 -0.000108 0.000000 0.000000 0.000000 0.032890
#
#
# Mechanical properties :
#
#
# Convention : Reuss Voigt Hill
#
# Bulk Modulus (GPa) = 4.55234 22.05312 13.30273
# Shear Modulus (GPa) = -28.87302 15.97827 -6.44738
#
# Velocity S-wave (km/s) = -3.61987 2.69285 -1.71056
# Velocity P-wave (km/s) = 3.92496 4.43587 1.46145
#
# Compressibility (1/GPa) = 0.21966715
#
# Stress axis : x y z
#
# Youngs Moduli (GPa) = 12.90355 12.90355 136.92312
#
# Poissons Ratio (x) = -0.52573 0.82558
# Poissons Ratio (y) = -0.52573 0.82558
# Poissons Ratio (z) = 0.07780 0.07780
#
# Static dielectric constant tensor:
#      x y z
#    x 3.721210 0.000000 0.000000 
#    y 0.000000 3.721210 0.000000 
#    z 0.000000 0.000000 4.308450 
# 
# 
# High freq. dielectric constant tensor:
#      x y z
#    x 1.852830 0.000000 0.000000 
#    y 0.000000 1.852830 0.000000 
#    z 0.000000 0.000000 1.889120 
# 
# From -- ./inp_files/2845.got.cif
#   From: 2010.03.12/outbox.cif.g09.slc.cpg/sg83_2_cif.got.tgz:2845.got - 2010.04.08 20:05:18.
