data_PCOD8302220
_publ_section_title
;
Structure prediction by ZEFSAII (Michael W. Deem and Ramdas Pophale) SiO2 
 PCOD8302220
Probable space group: I 41
;
_chemical_formula_sum "Si O2"
_cell_formula_units_Z 40
_cell_length_a 15.524342
_cell_length_b 15.524342
_cell_length_c 6.874067
_cell_angle_alpha 90.000000
_cell_angle_beta 90.000000
_cell_angle_gamma 90.000000
_cell_volume 1656.685855
_symmetry_space_group_name_H-M "I 41"
_symmetry_group_IT_number 80
_symmetry_cell_setting 'tetragonal'
loop_
_space_group_symop_operation_xyz
x,y,z
-y,1/2+x,1/4+z
-x,-y,z
y,1/2-x,1/4+z
1/2+x,1/2+y,1/2+z
1/2-y,x,3/4+z
1/2-x,1/2-y,1/2+z
1/2+y,-x,3/4+z
loop_
_atom_site_type_symbol
_atom_site_label
_atom_site_fract_x
_atom_site_fract_y
_atom_site_fract_z
Si Si1 0.829960 0.656147 0.258290
Si Si2 0.547772 0.128033 0.328728
Si Si3 0.374253 0.057227 0.408953
Si Si4 0.367263 0.768321 0.661382
Si Si5 0.011213 0.286561 0.452366
O O1 0.742370 0.660594 0.377981
O O2 0.834449 0.569246 0.125645
O O3 0.916293 0.644985 0.388731
O O4 0.446654 0.131141 0.385101
O O5 0.610847 0.178152 0.470277
O O6 0.552364 0.170244 0.113539
O O7 0.583545 0.032491 0.349845
O O8 0.293236 0.069911 0.270161
O O9 0.318566 0.685989 0.577578
O O10 0.455580 0.747969 0.774080
#
# Coordination Sequence:
#
# PCOD8302220 Si02
#       5
#     8   8   8   8   8
#     4  12  25  45  75 114 153 203 258 316 390 463
#     4  11  25  49  70 111 149 200 254 316 385 451
#     4  11  24  45  76 103 156 197 252 320 382 456
#     4  12  29  47  77 112 150 202 255 315 380 462
#     4  12  25  48  76 110 152 202 254 318 381 454
#
# _framework density 24.144589
#
# number of rings (size 3 to 8) (size 9 to 14) (size 15 to 20)
#    0.000    0.400    2.000    6.000    8.400    0.000 
#    7.200    0.000    0.000    0.000    0.000    0.000 
#    0.000    0.000    0.000    0.000    0.000    0.000 
#
# Total GULP energy -247830.508399 kJ/mol
# GULP energy per Si atom -12391.525420 kJ/mol
# Density = 2.408963 g / cm^3
# Si number density = 24.144589 Si / 1000 Ang^3
#
#
#
# Elastic Constant Matrix: (Units=GPa)
#
#
# Indices 1 2 3 4 5 6 
#
# 1 77.7300 10.0911 31.6114 0.0000 0.0000 8.7374
# 2 10.0911 77.7300 31.6114 0.0000 0.0000 -8.7374
# 3 31.6114 31.6114 117.0420 0.0000 0.0000 0.0000
# 4 0.0000 0.0000 0.0000 49.2972 0.0000 0.0000
# 5 0.0000 0.0000 0.0000 0.0000 49.2972 0.0000
# 6 8.7374 -8.7374 0.0000 0.0000 0.0000 25.0542
#
#
#
# Elastic Compliance Matrix: (Units=1/GPa)
#
#
# Indices 1 2 3 4 5 6 
#
# 1 0.015192 -0.001057 -0.003818 0.000000 0.000000 -0.005666
# 2 -0.001057 0.015192 -0.003818 0.000000 0.000000 0.005666
# 3 -0.003818 -0.003818 0.010606 0.000000 0.000000 0.000000
# 4 0.000000 0.000000 0.000000 0.020285 0.000000 0.000000
# 5 0.000000 0.000000 0.000000 0.000000 0.020285 0.000000
# 6 -0.005666 0.005666 0.000000 0.000000 0.000000 0.043866
#
#
# Mechanical properties :
#
#
# Convention : Reuss Voigt Hill
#
# Bulk Modulus (GPa) = 42.36270 46.56997 44.46633
# Shear Modulus (GPa) = 33.18329 38.00892 35.59611
#
# Velocity S-wave (km/s) = 3.71125 3.97195 3.84381
# Velocity P-wave (km/s) = 5.99567 6.35335 6.17710
#
# Compressibility (1/GPa) = 0.02360567
#
# Stress axis : x y z
#
# Youngs Moduli (GPa) = 65.82512 65.82512 94.28486
#
# Poissons Ratio (x) = 0.06955 0.35995
# Poissons Ratio (y) = 0.06955 0.35995
# Poissons Ratio (z) = 0.25130 0.25130
#
# Static dielectric constant tensor:
#      x y z
#    x 4.511120 0.000000 0.000000 
#    y 0.000000 4.511120 0.000000 
#    z 0.000000 0.000000 4.566320 
# 
# 
# High freq. dielectric constant tensor:
#      x y z
#    x 1.962860 0.000000 0.000000 
#    y 0.000000 1.962860 0.000000 
#    z 0.000000 0.000000 1.970830 
# 
# From -- ./inp_files/185.got.cif
#   From: 2010.03.12/outbox.cif.g09.slc.cpg/sg80_cif.got.tgz:185.got - 2010.04.08 20:00:04.
