data_PCOD8302192
_publ_section_title
;
Structure prediction by ZEFSAII (Michael W. Deem and Ramdas Pophale) SiO2 
 PCOD8302192
Probable space group: I 41
;
_chemical_formula_sum "Si O2"
_cell_formula_units_Z 64
_cell_length_a 10.820608
_cell_length_b 10.820608
_cell_length_c 27.573731
_cell_angle_alpha 90.000000
_cell_angle_beta 90.000000
_cell_angle_gamma 90.000000
_cell_volume 3228.485666
_symmetry_space_group_name_H-M "I 41"
_symmetry_group_IT_number 80
_symmetry_cell_setting 'tetragonal'
loop_
_space_group_symop_operation_xyz
x,y,z
-y,1/2+x,1/4+z
-x,-y,z
y,1/2-x,1/4+z
1/2+x,1/2+y,1/2+z
1/2-y,x,3/4+z
1/2-x,1/2-y,1/2+z
1/2+y,-x,3/4+z
loop_
_atom_site_type_symbol
_atom_site_label
_atom_site_fract_x
_atom_site_fract_y
_atom_site_fract_z
Si Si1 0.570046 0.627467 0.775040
Si Si2 0.681702 0.943557 0.690916
Si Si3 0.549779 0.633939 0.886755
Si Si4 0.307553 0.714899 0.925445
Si Si5 0.429954 0.872533 0.375509
Si Si6 0.807553 0.714899 0.725104
Si Si7 0.633939 0.450221 0.013793
Si Si8 0.556443 0.181702 0.709633
O O1 0.500000 0.500000 0.762639
O O2 0.595947 0.641128 0.831887
O O3 0.704122 0.627055 0.749709
O O4 0.488900 0.744110 0.756983
O O5 0.767765 0.857619 0.723843
O O6 0.560462 0.862099 0.676696
O O7 0.755890 0.988900 0.643566
O O8 0.637901 0.060462 0.723853
O O9 0.500000 0.500000 0.901824
O O10 0.431955 0.722198 0.894031
O O11 0.664450 0.669568 0.920767
O O12 0.204122 0.627055 0.900839
O O13 0.267765 0.857618 0.926706
O O14 0.330432 0.664450 0.979782
O O15 0.404053 0.858872 0.318662
O O16 0.500000 0.000000 0.387909
O O17 0.931955 0.722198 0.756517
O O18 0.500000 0.500000 0.998725
#
# Coordination Sequence:
#
# PCOD8302192 Si02
#       8
#     8   8   8   8   8   8   8   8
#     4  10  23  35  62  89 115 156 196 243 294 357
#     4   9  20  40  63  80 118 159 194 240 294 341
#     4  11  22  36  58  92 122 152 191 251 300 340
#     4  11  20  38  60  84 121 155 195 241 293 350
#     4  10  23  35  62  89 115 156 196 243 294 357
#     4  11  20  38  60  84 121 155 195 241 293 350
#     4  11  22  36  58  92 122 152 191 251 300 340
#     4   9  20  40  63  80 118 159 194 240 294 341
#
# _framework density 19.823533000000001
#
# number of rings (size 3 to 8) (size 9 to 14) (size 15 to 20)
#    0.000    1.750    2.500    1.500    3.500    2.000 
#    0.000    1.250   38.500    0.000    0.000    0.000 
#    0.000    0.000    0.000    0.000    0.000    0.000 
#
# Total GULP energy -396734.148549 kJ/mol
# GULP energy per Si atom -12397.942142 kJ/mol
# Density = 1.977841 g / cm^3
# Si number density = 19.823533 Si / 1000 Ang^3
#
#
#
# Elastic Constant Matrix: (Units=GPa)
#
#
# Indices 1 2 3 4 5 6 
#
# 1 82.3045 21.4173 29.9267 0.0000 0.0000 2.0747
# 2 21.4173 82.3045 29.9267 0.0000 0.0000 -2.0747
# 3 29.9267 29.9267 104.5759 0.0000 0.0000 0.0000
# 4 0.0000 0.0000 0.0000 21.9968 0.0000 0.0000
# 5 0.0000 0.0000 0.0000 0.0000 21.9968 0.0000
# 6 2.0747 -2.0747 0.0000 0.0000 0.0000 32.8159
#
#
#
# Elastic Compliance Matrix: (Units=1/GPa)
#
#
# Indices 1 2 3 4 5 6 
#
# 1 0.014022 -0.002473 -0.003305 0.000000 0.000000 -0.001043
# 2 -0.002473 0.014022 -0.003305 0.000000 0.000000 0.001043
# 3 -0.003305 -0.003305 0.011454 0.000000 0.000000 0.000000
# 4 0.000000 0.000000 0.000000 0.045461 0.000000 0.000000
# 5 0.000000 0.000000 0.000000 0.000000 0.045461 0.000000
# 6 -0.001043 0.001043 0.000000 0.000000 0.000000 0.030605
#
#
# Mechanical properties :
#
#
# Convention : Reuss Voigt Hill
#
# Bulk Modulus (GPa) = 46.87965 47.96962 47.42463
# Shear Modulus (GPa) = 26.83836 27.88950 27.36393
#
# Velocity S-wave (km/s) = 3.68348 3.75492 3.71937
# Velocity P-wave (km/s) = 6.46456 6.56126 6.51309
#
# Compressibility (1/GPa) = 0.02133122
#
# Stress axis : x y z
#
# Youngs Moduli (GPa) = 71.31882 71.31882 87.30652
#
# Poissons Ratio (x) = 0.17639 0.28853
# Poissons Ratio (y) = 0.17639 0.28853
# Poissons Ratio (z) = 0.23569 0.23569
#
# Static dielectric constant tensor:
#      x y z
#    x 3.819230 0.000000 0.000000 
#    y 0.000000 3.819230 0.000000 
#    z 0.000000 0.000000 3.319830 
# 
# 
# High freq. dielectric constant tensor:
#      x y z
#    x 1.783800 0.000000 0.000000 
#    y 0.000000 1.783800 0.000000 
#    z 0.000000 0.000000 1.747190 
# 
# From -- ./inp_files/2126.got.cif
#   From: 2010.03.12/outbox.cif.g09.slc.cpg/sg80_cif.got.tgz:2126.got - 2010.04.08 20:00:04.
