data_PCOD8302014
_publ_section_title
;
Structure prediction by ZEFSAII (Michael W. Deem and Ramdas Pophale) SiO2 
 PCOD8302014
Probable space group: P 43
;
_chemical_formula_sum "Si O2"
_cell_formula_units_Z 24
_cell_length_a 11.245390
_cell_length_b 11.245390
_cell_length_c 8.132518
_cell_angle_alpha 90.000000
_cell_angle_beta 90.000000
_cell_angle_gamma 90.000000
_cell_volume 1028.428437
_symmetry_space_group_name_H-M "P 43"
_symmetry_group_IT_number 78
_symmetry_cell_setting 'tetragonal'
loop_
_space_group_symop_operation_xyz
x,y,z
-y,x,3/4+z
-x,-y,1/2+z
y,-x,1/4+z
loop_
_atom_site_type_symbol
_atom_site_label
_atom_site_fract_x
_atom_site_fract_y
_atom_site_fract_z
Si Si1 0.859929 0.207410 0.981720
Si Si2 0.890366 0.491392 0.413341
Si Si3 0.971095 0.659207 0.681247
Si Si4 0.893054 0.076362 0.539001
Si Si5 0.689070 0.786092 0.405501
Si Si6 0.362510 0.467320 0.801326
O O1 0.748918 0.120824 0.018778
O O2 0.824198 0.304013 0.844467
O O3 0.973052 0.134691 0.919184
O O4 0.902239 0.275109 0.146902
O O5 0.917730 0.616331 0.504823
O O6 0.872526 0.399735 0.561287
O O7 0.776481 0.497484 0.291004
O O8 0.002886 0.449168 0.305375
O O9 0.799441 0.183583 0.562063
O O10 0.026890 0.114770 0.601432
O O11 0.635576 0.653204 0.408560
O O12 0.424242 0.438724 0.627897
#
# Coordination Sequence:
#
# PCOD8302014 Si02
#       6
#     4   4   4   4   4   4
#     4  11  21  41  66  96 140 176 218 276 339 409
#     4  11  25  45  68 100 137 180 227 281 339 409
#     4  12  25  46  67 104 140 179 228 277 346 412
#     4  10  20  34  60  95 135 175 210 262 333 407
#     4  10  21  40  68  94 136 177 219 276 341 398
#     4  10  22  44  67  93 128 171 232 284 332 389
#
# _framework density 23.336580000000001
#
# number of rings (size 3 to 8) (size 9 to 14) (size 15 to 20)
#    0.000    1.333    5.000    1.000    2.333    2.667 
#    9.000    0.000    0.000    0.000    0.000    0.000 
#    0.000    0.000    0.000    0.000    0.000    0.000 
#
# Total GULP energy -297471.597550 kJ/mol
# GULP energy per Si atom -12394.649898 kJ/mol
# Density = 2.328346 g / cm^3
# Si number density = 23.336580 Si / 1000 Ang^3
#
#
#
# Elastic Constant Matrix: (Units=GPa)
#
#
# Indices 1 2 3 4 5 6 
#
# 1 88.6332 28.2533 15.1220 0.0000 0.0000 3.2372
# 2 28.2533 88.6332 15.1220 0.0000 0.0000 -3.2372
# 3 15.1220 15.1220 28.9990 0.0000 0.0000 0.0000
# 4 0.0000 0.0000 0.0000 30.8518 0.0000 0.0000
# 5 0.0000 0.0000 0.0000 0.0000 30.8518 0.0000
# 6 3.2372 -3.2372 0.0000 0.0000 0.0000 39.0502
#
#
#
# Elastic Compliance Matrix: (Units=1/GPa)
#
#
# Indices 1 2 3 4 5 6 
#
# 1 0.013300 -0.003410 -0.005157 0.000000 0.000000 -0.001385
# 2 -0.003410 0.013300 -0.005157 0.000000 0.000000 0.001385
# 3 -0.005157 -0.005157 0.039862 0.000000 0.000000 0.000000
# 4 0.000000 0.000000 0.000000 0.032413 0.000000 0.000000
# 5 0.000000 0.000000 0.000000 0.000000 0.032413 0.000000
# 6 -0.001385 0.001385 0.000000 0.000000 0.000000 0.025838
#
#
# Mechanical properties :
#
#
# Convention : Reuss Voigt Hill
#
# Bulk Modulus (GPa) = 25.63228 35.91777 30.77502
# Shear Modulus (GPa) = 25.30623 30.00198 27.65411
#
# Velocity S-wave (km/s) = 3.29660 3.58944 3.44613
# Velocity P-wave (km/s) = 5.04952 5.70994 5.38986
#
# Compressibility (1/GPa) = 0.03901331
#
# Stress axis : x y z
#
# Youngs Moduli (GPa) = 75.18787 75.18787 25.08627
#
# Poissons Ratio (x) = 0.25641 0.12937
# Poissons Ratio (y) = 0.25641 0.12937
# Poissons Ratio (z) = 0.38775 0.38775
#
# Static dielectric constant tensor:
#      x y z
#    x 4.306320 0.000000 0.000000 
#    y 0.000000 4.306320 0.000000 
#    z 0.000000 0.000000 3.924960 
# 
# 
# High freq. dielectric constant tensor:
#      x y z
#    x 1.926100 0.000000 0.000000 
#    y 0.000000 1.926100 0.000000 
#    z 0.000000 0.000000 1.890740 
# 
# From -- ./inp_files/579.got.cif
#   From: 2010.03.12/outbox.cif.g09.slc.cpg/sg78_cif.got.tgz:579.got - 2010.04.16 16:37:20.
