data_PCOD8302481
_publ_section_title
;
Structure prediction by ZEFSAII (Michael W. Deem and Ramdas Pophale) SiO2 
 PCOD8302481
Probable space group: I -4 
;
_chemical_formula_sum "Si O2"
_cell_formula_units_Z 40
_cell_length_a 9.975082
_cell_length_b 9.975082
_cell_length_c 19.420732
_cell_angle_alpha 90.000000
_cell_angle_beta 90.000000
_cell_angle_gamma 90.000000
_cell_volume 1932.406742
_symmetry_space_group_name_H-M "I -4 "
_symmetry_group_IT_number 82
_symmetry_cell_setting 'tetragonal'
loop_
_space_group_symop_operation_xyz
x,y,z
y,-x,-z
-x,-y,z
-y,x,-z
1/2+x,1/2+y,1/2+z
1/2+y,1/2-x,1/2-z
1/2-x,1/2-y,1/2+z
1/2-y,1/2+x,1/2-z
loop_
_atom_site_type_symbol
_atom_site_label
_atom_site_fract_x
_atom_site_fract_y
_atom_site_fract_z
Si Si1 0.872074 0.165104 0.482270
Si Si2 0.598296 0.251968 0.328045
Si Si3 0.000000 0.500000 0.750000
Si Si4 0.834881 0.872098 0.017729
Si Si5 0.598364 0.251997 0.828039
Si Si6 0.500000 0.500000 0.750000
Si Si7 0.000000 0.500000 0.250000
O O1 0.749986 0.249989 0.517497
O O2 0.904361 0.236307 0.410230
O O3 0.008605 0.171739 0.527714
O O4 0.595596 0.263672 0.410236
O O5 0.749964 0.249918 0.300276
O O6 0.514234 0.374005 0.298937
O O7 0.524463 0.120009 0.302617
O O8 0.991375 0.828268 0.027719
O O9 0.514223 0.373984 0.798929
O O10 0.524665 0.119963 0.802616
#
# Coordination Sequence:
#
# PCOD8302481 Si02
#       7
#     8   8   2   8   8   4   2
#     4  10  23  44  65  97 131 171 223 270 324 385
#     4  11  24  41  66  99 134 171 220 267 330 390
#     4  12  24  44  64 106 136 172 212 270 336 400
#     4  10  23  44  65  97 131 171 223 270 324 385
#     4  11  24  41  66  99 134 171 220 267 330 390
#     4  12  20  40  66  92 136 172 208 274 316 392
#     4  12  24  44  64 106 136 172 212 270 336 400
#
# _framework density 20.699576
#
# number of rings (size 3 to 8) (size 9 to 14) (size 15 to 20)
#    0.000    1.200    4.000    2.400    0.000    7.200 
#    7.200    0.000    0.000    0.000    0.000    0.000 
#    0.000    0.000    0.000    0.000    0.000    0.000 
#
# Total GULP energy -247980.831229 kJ/mol
# GULP energy per Si atom -12399.041561 kJ/mol
# Density = 2.065246 g / cm^3
# Si number density = 20.699576 Si / 1000 Ang^3
#
#
#
# Elastic Constant Matrix: (Units=GPa)
#
#
# Indices 1 2 3 4 5 6 
#
# 1 148.3265 69.6551 36.3105 0.0000 0.0000 -0.5256
# 2 69.6551 148.3265 36.3105 0.0000 0.0000 0.5256
# 3 36.3105 36.3105 80.1244 0.0000 0.0000 0.0000
# 4 0.0000 0.0000 0.0000 34.3502 0.0000 0.0000
# 5 0.0000 0.0000 0.0000 0.0000 34.3502 0.0000
# 6 -0.5256 0.5256 0.0000 0.0000 0.0000 36.5531
#
#
#
# Elastic Compliance Matrix: (Units=1/GPa)
#
#
# Indices 1 2 3 4 5 6 
#
# 1 0.009058 -0.003655 -0.002449 0.000000 0.000000 0.000183
# 2 -0.003655 0.009058 -0.002449 0.000000 0.000000 -0.000183
# 3 -0.002449 -0.002449 0.014700 0.000000 0.000000 0.000000
# 4 0.000000 0.000000 0.000000 0.029112 0.000000 0.000000
# 5 0.000000 0.000000 0.000000 0.000000 0.029112 0.000000
# 6 0.000183 -0.000183 0.000000 0.000000 0.000000 0.027363
#
#
# Mechanical properties :
#
#
# Convention : Reuss Voigt Hill
#
# Bulk Modulus (GPa) = 63.64582 73.48107 68.56344
# Shear Modulus (GPa) = 35.52510 36.68411 36.10460
#
# Velocity S-wave (km/s) = 4.14723 4.21434 4.18092
# Velocity P-wave (km/s) = 7.33122 7.69784 7.51677
#
# Compressibility (1/GPa) = 0.01571195
#
# Stress axis : x y z
#
# Youngs Moduli (GPa) = 110.39437 110.39437 68.02743
#
# Poissons Ratio (x) = 0.40350 0.16658
# Poissons Ratio (y) = 0.40350 0.16658
# Poissons Ratio (z) = 0.27032 0.27032
#
# Static dielectric constant tensor:
#      x y z
#    x 3.932200 0.000000 0.000000 
#    y 0.000000 3.932200 0.000000 
#    z 0.000000 0.000000 3.428540 
# 
# 
# High freq. dielectric constant tensor:
#      x y z
#    x 1.824490 0.000000 0.000000 
#    y 0.000000 1.824490 0.000000 
#    z 0.000000 0.000000 1.788350 
# 
# From -- ./inp_files/3430.got.cif
#   From: 2010.03.12/outbox.cif.g09.slc.cpg/sg82_2_cif.got.tgz:3430.got - 2010.04.08 20:02:50.
