data_PCOD8302620
_publ_section_title
;
Structure prediction by ZEFSAII (Michael W. Deem and Ramdas Pophale) SiO2 
 PCOD8302620
Probable space group: P 4/M
;
_chemical_formula_sum "Si O2"
_cell_formula_units_Z 32
_cell_length_a 14.844229
_cell_length_b 14.844229
_cell_length_c 8.929347
_cell_angle_alpha 90.000000
_cell_angle_beta 90.000000
_cell_angle_gamma 90.000000
_cell_volume 1967.591743
_symmetry_space_group_name_H-M "P 4/M"
_symmetry_group_IT_number 83
_symmetry_cell_setting 'tetragonal'
loop_
_space_group_symop_operation_xyz
x,y,z
-y,x,z
-x,-y,z
y,-x,z
-x,-y,-z
y,-x,-z
x,y,-z
-y,x,-z
loop_
_atom_site_type_symbol
_atom_site_label
_atom_site_fract_x
_atom_site_fract_y
_atom_site_fract_z
Si Si1 0.283318 0.255088 0.830909
Si Si2 0.887647 0.785911 0.322384
Si Si3 0.930738 0.215685 0.829664
Si Si4 0.621423 0.420728 0.325057
O O1 0.193081 0.280024 0.735168
O O2 0.294549 0.145771 0.827747
O O3 0.372142 0.299111 0.763136
O O4 0.269502 0.289753 0.000000
O O5 0.889410 0.788089 0.500000
O O6 0.871091 0.886661 0.254992
O O7 0.982269 0.749329 0.259406
O O8 0.956501 0.189749 0.000000
O O9 0.622709 0.525644 0.280389
O O10 0.638708 0.409149 0.500000
#
# Coordination Sequence:
#
# PCOD8302620 Si02
#       4
#     8   8   8   8
#     4   9  19  32  48  70 100 133 160 199 247 289
#     4  10  18  29  47  70  95 129 170 205 239 284
#     4   9  18  31  45  67  99 131 163 203 246 284
#     4   9  18  33  54  79 103 125 154 197 245 291
#
# _framework density 16.263535999999998
#
# number of rings (size 3 to 8) (size 9 to 14) (size 15 to 20)
#    1.500    1.250    0.000    3.750    0.000    1.500 
#    0.000    3.750    0.000    1.500    0.000   10.500 
#    0.000    0.000    0.000    0.000    0.000    0.000 
#
# Total GULP energy -396433.129136 kJ/mol
# GULP energy per Si atom -12388.535285 kJ/mol
# Density = 1.622652 g / cm^3
# Si number density = 16.263536 Si / 1000 Ang^3
#
#
#
# Elastic Constant Matrix: (Units=GPa)
#
#
# Indices 1 2 3 4 5 6 
#
# 1 21.8797 8.9002 11.9157 0.0000 0.0000 1.8744
# 2 8.9002 21.8797 11.9157 0.0000 0.0000 -1.8744
# 3 11.9157 11.9157 106.2104 0.0000 0.0000 0.0000
# 4 0.0000 0.0000 0.0000 27.1500 0.0000 0.0000
# 5 0.0000 0.0000 0.0000 0.0000 27.1500 0.0000
# 6 1.8744 -1.8744 0.0000 0.0000 0.0000 24.3549
#
#
#
# Elastic Compliance Matrix: (Units=1/GPa)
#
#
# Indices 1 2 3 4 5 6 
#
# 1 0.057188 -0.021608 -0.003992 0.000000 0.000000 -0.006064
# 2 -0.021608 0.057188 -0.003992 0.000000 0.000000 0.006064
# 3 -0.003992 -0.003992 0.010311 0.000000 0.000000 0.000000
# 4 0.000000 0.000000 0.000000 0.036832 0.000000 0.000000
# 5 0.000000 0.000000 0.000000 0.000000 0.036832 0.000000
# 6 -0.006064 0.006064 0.000000 0.000000 0.000000 0.041993
#
#
# Mechanical properties :
#
#
# Convention : Reuss Voigt Hill
#
# Bulk Modulus (GPa) = 15.26649 23.93700 19.60174
# Shear Modulus (GPa) = 15.55879 23.54688 19.55283
#
# Velocity S-wave (km/s) = 3.09636 3.80917 3.47111
# Velocity P-wave (km/s) = 4.71069 5.83922 5.30505
#
# Compressibility (1/GPa) = 0.06550295
#
# Stress axis : x y z
#
# Youngs Moduli (GPa) = 17.48626 17.48626 96.98468
#
# Poissons Ratio (x) = 0.37785 0.38713
# Poissons Ratio (y) = 0.37785 0.38713
# Poissons Ratio (z) = 0.06980 0.06980
#
# Static dielectric constant tensor:
#      x y z
#    x 2.832540 0.000000 0.000000 
#    y 0.000000 2.832540 0.000000 
#    z 0.000000 0.000000 3.073090 
# 
# 
# High freq. dielectric constant tensor:
#      x y z
#    x 1.597610 0.000000 0.000000 
#    y 0.000000 1.597610 0.000000 
#    z 0.000000 0.000000 1.642690 
# 
# From -- ./inp_files/426.got.cif
#   From: 2010.03.12/outbox.cif.g09.slc.cpg/sg83_1_cif.got.tgz:426.got - 2010.04.08 20:05:18.
