data_PCOD8302572
_publ_section_title
;
Structure prediction by ZEFSAII (Michael W. Deem and Ramdas Pophale) SiO2 
 PCOD8302572
Probable space group: I -4 
;
_chemical_formula_sum "Si O2"
_cell_formula_units_Z 36
_cell_length_a 11.592617
_cell_length_b 11.592617
_cell_length_c 12.043030
_cell_angle_alpha 90.000000
_cell_angle_beta 90.000000
_cell_angle_gamma 90.000000
_cell_volume 1618.447976
_symmetry_space_group_name_H-M "I -4 "
_symmetry_group_IT_number 82
_symmetry_cell_setting 'tetragonal'
loop_
_space_group_symop_operation_xyz
x,y,z
y,-x,-z
-x,-y,z
-y,x,-z
1/2+x,1/2+y,1/2+z
1/2+y,1/2-x,1/2-z
1/2-x,1/2-y,1/2+z
1/2-y,1/2+x,1/2-z
loop_
_atom_site_type_symbol
_atom_site_label
_atom_site_fract_x
_atom_site_fract_y
_atom_site_fract_z
Si Si1 0.249321 0.017512 0.096590
Si Si2 0.487076 0.330585 0.034741
Si Si3 0.500000 0.500000 0.500000
Si Si4 0.000000 0.500000 0.250000
Si Si5 0.839584 0.284606 0.696201
Si Si6 0.645003 0.142546 0.595288
O O1 0.276111 0.130374 0.173080
O O2 0.326652 0.914530 0.149390
O O3 0.293557 0.043099 0.971753
O O4 0.112531 0.991890 0.081209
O O5 0.558682 0.292659 0.142297
O O6 0.387326 0.426738 0.058352
O O7 0.424839 0.218356 0.993868
O O8 0.044758 0.397394 0.323946
O O9 0.715800 0.230890 0.670788
#
# Coordination Sequence:
#
# PCOD8302572 Si02
#       6
#     8   8   2   2   8   8
#     4  12  26  48  71 107 142 194 244 304 365 441
#     4   9  20  41  67 100 138 180 226 295 354 433
#     4  12  28  48  76 100 158 188 244 304 372 432
#     4  12  28  40  64  94 132 180 232 304 376 422
#     4  11  25  42  74 101 139 191 240 293 364 442
#     4  11  25  43  67  99 140 180 239 301 365 440
#
# _framework density 22.243532999999999
#
# number of rings (size 3 to 8) (size 9 to 14) (size 15 to 20)
#    0.000    1.111    2.222    2.667    3.111   11.111 
#    0.000    0.000    0.000    0.000    0.000    0.000 
#    0.000    0.000    0.000    0.000    0.000    0.000 
#
# Total GULP energy -223080.716127 kJ/mol
# GULP energy per Si atom -12393.373118 kJ/mol
# Density = 2.219291 g / cm^3
# Si number density = 22.243533 Si / 1000 Ang^3
#
#
#
# Elastic Constant Matrix: (Units=GPa)
#
#
# Indices 1 2 3 4 5 6 
#
# 1 90.2406 21.6127 17.4377 0.0000 0.0000 6.1204
# 2 21.6127 90.2407 17.4377 0.0001 0.0000 -6.1204
# 3 17.4377 17.4377 48.5402 0.0000 0.0000 0.0000
# 4 0.0000 0.0001 0.0000 -112.9828 0.0001 0.0000
# 5 0.0000 0.0000 0.0000 0.0001 -112.9828 0.0000
# 6 6.1204 -6.1204 0.0000 0.0000 0.0000 29.4672
#
#
#
# Elastic Compliance Matrix: (Units=1/GPa)
#
#
# Indices 1 2 3 4 5 6 
#
# 1 0.012600 -0.002532 -0.003617 0.000000 0.000000 -0.003143
# 2 -0.002532 0.012600 -0.003617 0.000000 0.000000 0.003143
# 3 -0.003617 -0.003617 0.023200 0.000000 0.000000 0.000000
# 4 0.000000 0.000000 0.000000 -0.008851 0.000000 0.000000
# 5 0.000000 0.000000 0.000000 0.000000 -0.008851 0.000000
# 6 -0.003143 0.003143 0.000000 0.000000 0.000000 0.035242
#
#
# Mechanical properties :
#
#
# Convention : Reuss Voigt Hill
#
# Bulk Modulus (GPa) = 34.63955 37.99972 36.31964
# Shear Modulus (GPa) = 52.57949 -27.79746 12.39101
#
# Velocity S-wave (km/s) = 4.86718 -3.53893 2.36278
# Velocity P-wave (km/s) = 6.86968 0.64954 4.87927
#
# Compressibility (1/GPa) = 0.02886873
#
# Stress axis : x y z
#
# Youngs Moduli (GPa) = 79.36535 79.36538 43.10320
#
# Poissons Ratio (x) = 0.20095 0.15590
# Poissons Ratio (y) = 0.20095 0.15590
# Poissons Ratio (z) = 0.28705 0.28705
#
# Static dielectric constant tensor:
#      x y z
#    x 4.459890 0.000000 0.000000 
#    y 0.000000 4.459890 0.000000 
#    z 0.000000 0.000000 3.797950 
# 
# 
# High freq. dielectric constant tensor:
#      x y z
#    x 1.888910 0.000000 0.000000 
#    y 0.000000 1.888910 0.000000 
#    z 0.000000 0.000000 1.857110 
# 
# From -- ./inp_files/1605.got.cif
#   From: 2010.03.12/outbox.cif.g09.slc.cpg/sg82_1_cif.got.tgz:1605.got - 2010.04.08 20:02:50.
