data_PCOD8302738
_publ_section_title
;
Structure prediction by ZEFSAII (Michael W. Deem and Ramdas Pophale) SiO2 
 PCOD8302738
Probable space group: P 4/M
;
_chemical_formula_sum "Si O2"
_cell_formula_units_Z 40
_cell_length_a 15.125839
_cell_length_b 15.125839
_cell_length_c 8.970918
_cell_angle_alpha 90.000000
_cell_angle_beta 90.000000
_cell_angle_gamma 90.000000
_cell_volume 2052.465349
_symmetry_space_group_name_H-M "P 4/M"
_symmetry_group_IT_number 83
_symmetry_cell_setting 'tetragonal'
loop_
_space_group_symop_operation_xyz
x,y,z
-y,x,z
-x,-y,z
y,-x,z
-x,-y,-z
y,-x,-z
x,y,-z
-y,x,-z
loop_
_atom_site_type_symbol
_atom_site_label
_atom_site_fract_x
_atom_site_fract_y
_atom_site_fract_z
Si Si1 0.748115 0.579691 0.175982
Si Si2 0.949723 0.591470 0.826688
Si Si3 0.066365 0.880008 0.323319
Si Si4 0.729345 0.383440 0.176214
Si Si5 0.899868 0.310887 0.324130
O O1 0.848892 0.588169 0.235312
O O2 0.705892 0.484666 0.219194
O O3 0.683648 0.655693 0.242968
O O4 0.750415 0.589306 0.000000
O O5 0.000000 0.500000 0.800196
O O6 0.002271 0.663271 0.730366
O O7 0.951261 0.617942 0.000000
O O8 0.060332 0.882584 0.500000
O O9 0.115195 0.790732 0.273689
O O10 0.965149 0.881342 0.261440
O O11 0.825179 0.367144 0.244329
O O12 0.737594 0.372405 0.000000
O O13 0.893217 0.324929 0.500000
#
# Coordination Sequence:
#
# PCOD8302738 Si02
#       5
#     8   8   8   8   8
#     4   9  19  35  59  84 106 143 184 226 276 326
#     4  10  19  36  57  77 108 145 176 214 271 325
#     4   8  16  32  50  69 101 142 178 213 259 317
#     4  10  20  38  58  80 110 142 185 230 276 331
#     4  11  22  33  53  84 110 140 181 225 272 322
#
# _framework density 19.488755999999999
#
# number of rings (size 3 to 8) (size 9 to 14) (size 15 to 20)
#    0.000    2.400    2.000    1.200    2.800    0.800 
#    0.000    3.000    0.000    0.000    0.000    7.000 
#    0.000    0.000    0.000    0.000    0.000    0.000 
#
# Total GULP energy -495779.747251 kJ/mol
# GULP energy per Si atom -12394.493681 kJ/mol
# Density = 1.944440 g / cm^3
# Si number density = 19.488756 Si / 1000 Ang^3
#
#
#
# Elastic Constant Matrix: (Units=GPa)
#
#
# Indices 1 2 3 4 5 6 
#
# 1 112.0973 53.7370 19.5795 0.0000 0.0000 4.2684
# 2 53.7370 112.0973 19.5795 0.0000 0.0000 -4.2684
# 3 19.5795 19.5795 25.8799 0.0000 0.0000 0.0000
# 4 0.0000 0.0000 0.0000 17.3916 0.0000 0.0000
# 5 0.0000 0.0000 0.0000 0.0000 17.3916 0.0000
# 6 4.2684 -4.2684 0.0000 0.0000 0.0000 35.0331
#
#
#
# Elastic Compliance Matrix: (Units=1/GPa)
#
#
# Indices 1 2 3 4 5 6 
#
# 1 0.012394 -0.005052 -0.005554 0.000000 0.000000 -0.002126
# 2 -0.005052 0.012394 -0.005554 0.000000 0.000000 0.002126
# 3 -0.005554 -0.005554 0.047044 0.000000 0.000000 0.000000
# 4 0.000000 0.000000 0.000000 0.057499 0.000000 0.000000
# 5 0.000000 0.000000 0.000000 0.000000 0.057499 0.000000
# 6 -0.002126 0.002126 0.000000 0.000000 0.000000 0.029062
#
#
# Mechanical properties :
#
#
# Convention : Reuss Voigt Hill
#
# Bulk Modulus (GPa) = 25.30984 48.42959 36.86972
# Shear Modulus (GPa) = 19.12891 24.44182 21.78536
#
# Velocity S-wave (km/s) = 3.13635 3.54524 3.34704
# Velocity P-wave (km/s) = 5.11181 6.45463 5.82207
#
# Compressibility (1/GPa) = 0.03951032
#
# Stress axis : x y z
#
# Youngs Moduli (GPa) = 80.68564 80.68564 21.25647
#
# Poissons Ratio (x) = 0.40763 0.11807
# Poissons Ratio (y) = 0.40763 0.11807
# Poissons Ratio (z) = 0.44816 0.44816
#
# Static dielectric constant tensor:
#      x y z
#    x 3.835990 0.000000 0.000000 
#    y 0.000000 3.835990 0.000000 
#    z 0.000000 0.000000 3.058450 
# 
# 
# High freq. dielectric constant tensor:
#      x y z
#    x 1.766880 0.000000 0.000000 
#    y 0.000000 1.766880 0.000000 
#    z 0.000000 0.000000 1.709540 
# 
# From -- ./inp_files/632.got.cif
#   From: 2010.03.12/outbox.cif.g09.slc.cpg/sg83_1_cif.got.tgz:632.got - 2010.04.08 20:05:18.
