data_PCOD8302054
_publ_section_title
;
Structure prediction by ZEFSAII (Michael W. Deem and Ramdas Pophale) SiO2 
 PCOD8302054
Probable space group: P 43
;
_chemical_formula_sum "Si O2"
_cell_formula_units_Z 28
_cell_length_a 14.273708
_cell_length_b 14.273708
_cell_length_c 6.525613
_cell_angle_alpha 90.000000
_cell_angle_beta 90.000000
_cell_angle_gamma 90.000000
_cell_volume 1329.520171
_symmetry_space_group_name_H-M "P 43"
_symmetry_group_IT_number 78
_symmetry_cell_setting 'tetragonal'
loop_
_space_group_symop_operation_xyz
x,y,z
-y,x,3/4+z
-x,-y,1/2+z
y,-x,1/4+z
loop_
_atom_site_type_symbol
_atom_site_label
_atom_site_fract_x
_atom_site_fract_y
_atom_site_fract_z
Si Si1 0.465553 0.233145 0.903940
Si Si2 0.097217 0.579341 0.825375
Si Si3 0.745210 0.991205 0.814092
Si Si4 0.278500 0.858065 0.965838
Si Si5 0.804862 0.162627 0.071540
Si Si6 0.549710 0.099214 0.227884
Si Si7 0.670783 0.287033 0.802812
O O1 0.402044 0.186022 0.723527
O O2 0.558291 0.289472 0.833598
O O3 0.505516 0.146786 0.031662
O O4 0.396044 0.299683 0.031524
O O5 0.136029 0.496757 0.684709
O O6 0.063466 0.659708 0.671117
O O7 0.012135 0.539552 0.959479
O O8 0.719685 0.049838 0.608954
O O9 0.813746 0.909072 0.740465
O O10 0.788082 0.059844 0.981183
O O11 0.305454 0.767271 0.093727
O O12 0.186599 0.839052 0.824082
O O13 0.342740 0.873743 0.762606
O O14 0.729069 0.238919 0.986863
#
# Coordination Sequence:
#
# PCOD8302054 Si02
#       7
#     4   4   4   4   4   4   4
#     4  12  25  43  68  95 139 177 226 284 340 417
#     4  12  22  37  66 100 128 170 221 280 346 391
#     4  11  25  41  66  98 132 181 224 276 338 405
#     4  11  22  44  68  95 139 170 226 285 334 405
#     4  11  24  45  65  98 136 175 227 275 337 404
#     4  12  21  37  65 100 128 165 220 280 342 391
#     4  11  25  45  66  98 132 180 224 278 343 409
#
# _framework density 21.060230000000001
#
# number of rings (size 3 to 8) (size 9 to 14) (size 15 to 20)
#    0.000    0.571    5.714    3.429    2.000    2.286 
#    2.571    1.429    0.000    0.000    0.000    0.000 
#    0.000    0.000    0.000    0.000    0.000    0.000 
#
# Total GULP energy -346953.604621 kJ/mol
# GULP energy per Si atom -12391.200165 kJ/mol
# Density = 2.101230 g / cm^3
# Si number density = 21.060230 Si / 1000 Ang^3
#
#
#
# Elastic Constant Matrix: (Units=GPa)
#
#
# Indices 1 2 3 4 5 6 
#
# 1 90.3809 44.9631 30.8434 0.0000 0.0000 -1.1185
# 2 44.9631 90.3809 30.8434 0.0000 0.0000 1.1185
# 3 30.8434 30.8434 106.5534 0.0000 0.0000 0.0000
# 4 0.0000 0.0000 0.0000 27.6582 0.0000 0.0000
# 5 0.0000 0.0000 0.0000 0.0000 27.6582 0.0000
# 6 -1.1185 1.1185 0.0000 0.0000 0.0000 19.4163
#
#
#
# Elastic Compliance Matrix: (Units=1/GPa)
#
#
# Indices 1 2 3 4 5 6 
#
# 1 0.015296 -0.006784 -0.002464 0.000000 0.000000 0.001272
# 2 -0.006784 0.015296 -0.002464 0.000000 0.000000 -0.001272
# 3 -0.002464 -0.002464 0.010811 0.000000 0.000000 0.000000
# 4 0.000000 0.000000 0.000000 0.036156 0.000000 0.000000
# 5 0.000000 0.000000 0.000000 0.000000 0.036156 0.000000
# 6 0.001272 -0.001272 0.000000 0.000000 0.000000 0.051650
#
#
# Mechanical properties :
#
#
# Convention : Reuss Voigt Hill
#
# Bulk Modulus (GPa) = 55.61974 55.62390 55.62182
# Shear Modulus (GPa) = 25.66981 26.99089 26.33035
#
# Velocity S-wave (km/s) = 3.49503 3.58383 3.53971
# Velocity P-wave (km/s) = 6.53866 6.60260 6.57071
#
# Compressibility (1/GPa) = 0.01797923
#
# Stress axis : x y z
#
# Youngs Moduli (GPa) = 65.37666 65.37666 92.49561
#
# Poissons Ratio (x) = 0.44355 0.22789
# Poissons Ratio (y) = 0.44355 0.22789
# Poissons Ratio (z) = 0.16107 0.16107
#
# Static dielectric constant tensor:
#      x y z
#    x 3.819940 0.000000 0.000000 
#    y 0.000000 3.819940 0.000000 
#    z 0.000000 0.000000 3.906560 
# 
# 
# High freq. dielectric constant tensor:
#      x y z
#    x 1.816180 0.000000 0.000000 
#    y 0.000000 1.816180 0.000000 
#    z 0.000000 0.000000 1.842450 
# 
# From -- ./inp_files/228.got.cif
#   From: 2010.03.12/outbox.cif.g09.slc.cpg/sg78_cif.got.tgz:228.got - 2010.04.16 16:37:20.
