data_PCOD8302818
_publ_section_title
;
Structure prediction by ZEFSAII (Michael W. Deem and Ramdas Pophale) SiO2 
 PCOD8302818
Probable space group: P 4/M
;
_chemical_formula_sum "Si O2"
_cell_formula_units_Z 52
_cell_length_a 17.760854
_cell_length_b 17.760854
_cell_length_c 7.783431
_cell_angle_alpha 90.000000
_cell_angle_beta 90.000000
_cell_angle_gamma 90.000000
_cell_volume 2455.267235
_symmetry_space_group_name_H-M "P 4/M"
_symmetry_group_IT_number 83
_symmetry_cell_setting 'tetragonal'
loop_
_space_group_symop_operation_xyz
x,y,z
-y,x,z
-x,-y,z
y,-x,z
-x,-y,-z
y,-x,-z
x,y,-z
-y,x,-z
loop_
_atom_site_type_symbol
_atom_site_label
_atom_site_fract_x
_atom_site_fract_y
_atom_site_fract_z
Si Si1 0.927298 0.456257 0.296055
Si Si2 0.026158 0.705306 0.703952
Si Si3 0.215015 0.451556 0.705064
Si Si4 0.862279 0.166244 0.303479
Si Si5 0.930275 0.900120 0.000000
Si Si6 0.515751 0.381377 0.295752
Si Si7 0.857532 0.698646 0.304409
O O1 0.928423 0.462052 0.500000
O O2 0.933765 0.370732 0.232561
O O3 0.848463 0.490162 0.227566
O O4 0.000000 0.500000 0.221502
O O5 0.024687 0.710691 0.500000
O O6 0.080393 0.771902 0.771189
O O7 0.941072 0.709540 0.779919
O O8 0.219949 0.451534 0.500000
O O9 0.297199 0.473161 0.781181
O O10 0.190295 0.369357 0.778311
O O11 0.881778 0.141983 0.500000
O O12 0.774769 0.192620 0.294016
O O13 0.862395 0.094716 0.178319
O O14 0.018043 0.895649 0.000000
O O15 0.583827 0.435930 0.232729
O O16 0.516462 0.378182 0.500000
O O17 0.873864 0.675113 0.500000
#
# Coordination Sequence:
#
# PCOD8302818 Si02
#       7
#     8   8   8   8   4   8   8
#     4   9  14  22  37  61  92 126 165 209 257 314
#     4   9  16  27  44  66  96 133 168 208 267 325
#     4   9  15  22  37  60  89 126 169 218 264 315
#     4  10  21  36  55  80 108 139 179 227 275 324
#     4  11  24  40  58  80 105 139 183 224 272 334
#     4   8  14  23  32  45  74 120 167 207 254 309
#     4   9  16  27  43  65  95 128 163 211 267 318
#
# _framework density 21.178957
#
# number of rings (size 3 to 8) (size 9 to 14) (size 15 to 20)
#    0.000    2.846    1.538    1.385    0.000    3.077 
#    0.000    6.923    0.000    0.000    0.000    1.615 
#    0.000    0.000    0.000    0.000    0.000    5.385 
#
# Total GULP energy -644261.036366 kJ/mol
# GULP energy per Si atom -12389.635315 kJ/mol
# Density = 2.113075 g / cm^3
# Si number density = 21.178957 Si / 1000 Ang^3
#
#
#
# Elastic Constant Matrix: (Units=GPa)
#
#
# Indices 1 2 3 4 5 6 
#
# 1 158.8509 57.3891 3.4193 0.0000 0.0000 3.7055
# 2 57.3891 158.8509 3.4193 0.0000 0.0000 -3.7055
# 3 3.4193 3.4193 36.6480 0.0000 0.0000 0.0000
# 4 0.0000 0.0000 0.0000 -2.7529 0.0000 0.0000
# 5 0.0000 0.0000 0.0000 0.0000 -2.7529 0.0000
# 6 3.7055 -3.7055 0.0000 0.0000 0.0000 40.0481
#
#
#
# Elastic Compliance Matrix: (Units=1/GPa)
#
#
# Indices 1 2 3 4 5 6 
#
# 1 0.007281 -0.002642 -0.000433 0.000000 0.000000 -0.000918
# 2 -0.002642 0.007281 -0.000433 0.000000 0.000000 0.000918
# 3 -0.000433 -0.000433 0.027367 0.000000 0.000000 0.000000
# 4 0.000000 0.000000 0.000000 -0.363248 0.000000 0.000000
# 5 0.000000 0.000000 0.000000 0.000000 -0.363248 0.000000
# 6 -0.000918 0.000918 0.000000 0.000000 0.000000 0.025140
#
#
# Mechanical properties :
#
#
# Convention : Reuss Voigt Hill
#
# Bulk Modulus (GPa) = 28.64283 53.64502 41.14392
# Shear Modulus (GPa) = -7.80306 26.24991 9.22342
#
# Velocity S-wave (km/s) = -1.92155 3.52438 2.08913
# Velocity P-wave (km/s) = 2.93776 6.47658 5.02874
#
# Compressibility (1/GPa) = 0.03491275
#
# Stress axis : x y z
#
# Youngs Moduli (GPa) = 137.35155 137.35155 36.53984
#
# Poissons Ratio (x) = 0.36294 0.01581
# Poissons Ratio (y) = 0.36294 0.01581
# Poissons Ratio (z) = 0.05944 0.05944
#
# Static dielectric constant tensor:
#      x y z
#    x 4.028980 0.000000 0.000000 
#    y 0.000000 4.028980 0.000000 
#    z 0.000000 0.000000 3.236460 
# 
# 
# High freq. dielectric constant tensor:
#      x y z
#    x 1.832340 0.000000 0.000000 
#    y 0.000000 1.832340 0.000000 
#    z 0.000000 0.000000 1.771250 
# 
# From -- ./inp_files/976.got.cif
#   From: 2010.03.12/outbox.cif.g09.slc.cpg/sg83_1_cif.got.tgz:976.got - 2010.04.08 20:05:18.
