data_PCOD8302923
_publ_section_title
;
Structure prediction by ZEFSAII (Michael W. Deem and Ramdas Pophale) SiO2 
 PCOD8302923
Probable space group: P 4/M
;
_chemical_formula_sum "Si O2"
_cell_formula_units_Z 40
_cell_length_a 14.898827
_cell_length_b 14.898827
_cell_length_c 8.607229
_cell_angle_alpha 90.000000
_cell_angle_beta 90.000000
_cell_angle_gamma 90.000000
_cell_volume 1910.590053
_symmetry_space_group_name_H-M "P 4/M"
_symmetry_group_IT_number 83
_symmetry_cell_setting 'tetragonal'
loop_
_space_group_symop_operation_xyz
x,y,z
-y,x,z
-x,-y,z
y,-x,z
-x,-y,-z
y,-x,-z
x,y,-z
-y,x,-z
loop_
_atom_site_type_symbol
_atom_site_label
_atom_site_fract_x
_atom_site_fract_y
_atom_site_fract_z
Si Si1 0.890085 0.302954 0.678996
Si Si2 0.054226 0.416044 0.318274
Si Si3 0.743894 0.576102 0.683981
Si Si4 0.075845 0.876973 0.180320
Si Si5 0.278230 0.612862 0.818553
O O1 0.866484 0.321100 0.500000
O O2 0.875606 0.198661 0.718188
O O3 0.825083 0.364643 0.781201
O O4 0.993719 0.328275 0.716935
O O5 0.065404 0.432891 0.500000
O O6 0.154827 0.406447 0.249763
O O7 0.000000 0.500000 0.244714
O O8 0.743732 0.563111 0.500000
O O9 0.701543 0.487935 0.762723
O O10 0.683014 0.660239 0.727355
O O11 0.970908 0.879064 0.223158
O O12 0.088461 0.854357 0.000000
O O13 0.297765 0.621051 0.000000
#
# Coordination Sequence:
#
# PCOD8302923 Si02
#       5
#     8   8   8   8   8
#     4  11  22  38  62  92 123 164 213 264 314 374
#     4   9  18  37  64  92 122 154 199 257 307 356
#     4  11  23  44  71  97 126 168 215 265 320 380
#     4   9  20  39  58  81 121 168 209 258 322 382
#     4  12  26  44  64  95 133 168 210 265 325 387
#
# _framework density 20.935942000000001
#
# number of rings (size 3 to 8) (size 9 to 14) (size 15 to 20)
#    0.000    1.600    2.000    3.600    2.800    1.200 
#    0.000    7.000    0.000    0.000    0.000    0.000 
#    0.000    0.000    0.000    0.000    0.000    0.000 
#
# Total GULP energy -496063.357300 kJ/mol
# GULP energy per Si atom -12401.583933 kJ/mol
# Density = 2.088829 g / cm^3
# Si number density = 20.935942 Si / 1000 Ang^3
#
#
#
# Elastic Constant Matrix: (Units=GPa)
#
#
# Indices 1 2 3 4 5 6 
#
# 1 93.5864 26.8275 17.1229 0.0000 0.0000 5.2389
# 2 26.8275 93.5864 17.1229 0.0000 0.0000 -5.2389
# 3 17.1229 17.1229 48.2041 0.0000 0.0000 0.0000
# 4 0.0000 0.0000 0.0000 28.2839 0.0000 0.0000
# 5 0.0000 0.0000 0.0000 0.0000 28.2839 0.0000
# 6 5.2389 -5.2389 0.0000 0.0000 0.0000 33.9135
#
#
#
# Elastic Compliance Matrix: (Units=1/GPa)
#
#
# Indices 1 2 3 4 5 6 
#
# 1 0.012295 -0.003057 -0.003281 0.000000 0.000000 -0.002371
# 2 -0.003057 0.012295 -0.003281 0.000000 0.000000 0.002371
# 3 -0.003281 -0.003281 0.023076 0.000000 0.000000 0.000000
# 4 0.000000 0.000000 0.000000 0.035356 0.000000 0.000000
# 5 0.000000 0.000000 0.000000 0.000000 0.035356 0.000000
# 6 -0.002371 0.002371 0.000000 0.000000 0.000000 0.030219
#
#
# Mechanical properties :
#
#
# Convention : Reuss Voigt Hill
#
# Bulk Modulus (GPa) = 35.17857 39.72483 37.45170
# Shear Modulus (GPa) = 28.19891 29.71650 28.95770
#
# Velocity S-wave (km/s) = 3.67401 3.77158 3.72312
# Velocity P-wave (km/s) = 5.90231 6.16296 6.03404
#
# Compressibility (1/GPa) = 0.02842640
#
# Stress axis : x y z
#
# Youngs Moduli (GPa) = 81.33579 81.33579 43.33434
#
# Poissons Ratio (x) = 0.24862 0.14220
# Poissons Ratio (y) = 0.24862 0.14220
# Poissons Ratio (z) = 0.26690 0.26690
#
# Static dielectric constant tensor:
#      x y z
#    x 3.813790 0.000000 0.000000 
#    y 0.000000 3.813790 0.000000 
#    z 0.000000 0.000000 3.488470 
# 
# 
# High freq. dielectric constant tensor:
#      x y z
#    x 1.825070 0.000000 0.000000 
#    y 0.000000 1.825070 0.000000 
#    z 0.000000 0.000000 1.798220 
# 
# From -- ./inp_files/662.got.cif
#   From: 2010.03.12/outbox.cif.g09.slc.cpg/sg83_1_cif.got.tgz:662.got - 2010.04.08 20:05:18.
