data_PCOD8302599
_publ_section_title
;
Structure prediction by ZEFSAII (Michael W. Deem and Ramdas Pophale) SiO2 
 PCOD8302599
Probable space group: I -4 
;
_chemical_formula_sum "Si O2"
_cell_formula_units_Z 52
_cell_length_a 21.706589
_cell_length_b 21.706589
_cell_length_c 5.146938
_cell_angle_alpha 90.000000
_cell_angle_beta 90.000000
_cell_angle_gamma 90.000000
_cell_volume 2425.113690
_symmetry_space_group_name_H-M "I -4 "
_symmetry_group_IT_number 82
_symmetry_cell_setting 'tetragonal'
loop_
_space_group_symop_operation_xyz
x,y,z
y,-x,-z
-x,-y,z
-y,x,-z
1/2+x,1/2+y,1/2+z
1/2+y,1/2-x,1/2-z
1/2-x,1/2-y,1/2+z
1/2-y,1/2+x,1/2-z
loop_
_atom_site_type_symbol
_atom_site_label
_atom_site_fract_x
_atom_site_fract_y
_atom_site_fract_z
Si Si1 0.400378 0.829865 0.974022
Si Si2 0.044773 0.077989 0.099268
Si Si3 0.233995 0.713494 0.507617
Si Si4 0.215357 0.919696 0.007768
Si Si5 0.724075 0.026531 0.502818
Si Si6 0.000000 0.000000 0.500000
Si Si7 0.589370 0.904755 0.025654
Si Si8 0.500000 0.000000 0.250000
O O1 0.453221 0.777941 0.950321
O O2 0.402262 0.856286 0.264436
O O3 0.335735 0.797545 0.917714
O O4 0.410571 0.883667 0.763540
O O5 0.073826 0.144736 0.075980
O O6 0.054747 0.040522 0.364782
O O7 0.968967 0.077033 0.103371
O O8 0.232294 0.752536 0.771466
O O9 0.270281 0.650950 0.569988
O O10 0.256694 0.940807 0.767999
O O11 0.229433 0.958973 0.266452
O O12 0.655965 0.048910 0.430848
O O13 0.547554 0.964673 0.064281
#
# Coordination Sequence:
#
# PCOD8302599 Si02
#       8
#     8   8   8   8   8   2   8   2
#     4  12  26  45  69  96 143 181 239 286 352 400
#     4   9  22  42  71 103 139 172 226 285 360 422
#     4  12  26  48  71  99 139 190 236 288 346 423
#     4  12  26  46  72 103 140 184 230 288 352 416
#     4  12  25  43  69  99 138 185 230 290 346 409
#     4   8  18  44  68 102 144 176 206 304 354 428
#     4  12  24  43  66  99 137 183 230 296 342 419
#     4  12  28  38  76 106 136 190 248 282 380 414
#
# _framework density 21.442295000000001
#
# number of rings (size 3 to 8) (size 9 to 14) (size 15 to 20)
#    0.000    0.769    4.615    2.769    6.462    3.077 
#    0.000    0.000    0.000    0.000    0.000    0.000 
#    0.000    0.000    0.000    0.000    0.000    0.000 
#
# Total GULP energy -322338.128921 kJ/mol
# GULP energy per Si atom -12397.620343 kJ/mol
# Density = 2.139349 g / cm^3
# Si number density = 21.442295 Si / 1000 Ang^3
#
#
#
# Elastic Constant Matrix: (Units=GPa)
#
#
# Indices 1 2 3 4 5 6 
#
# 1 99.9860 40.3955 15.8407 0.0000 0.0000 -11.2388
# 2 40.3955 99.9860 15.8407 0.0000 0.0000 11.2388
# 3 15.8407 15.8407 92.5448 0.0000 0.0000 0.0000
# 4 0.0000 0.0000 0.0000 21.3290 0.0000 0.0000
# 5 0.0000 0.0000 0.0000 0.0000 21.3290 0.0000
# 6 -11.2388 11.2388 0.0000 0.0000 0.0000 23.7947
#
#
#
# Elastic Compliance Matrix: (Units=1/GPa)
#
#
# Indices 1 2 3 4 5 6 
#
# 1 0.013914 -0.006505 -0.001268 0.000000 0.000000 0.009644
# 2 -0.006505 0.013914 -0.001268 0.000000 0.000000 -0.009644
# 3 -0.001268 -0.001268 0.011240 0.000000 0.000000 0.000000
# 4 0.000000 0.000000 0.000000 0.046885 0.000000 0.000000
# 5 0.000000 0.000000 0.000000 0.000000 0.046885 0.000000
# 6 0.009644 -0.009644 0.000000 0.000000 0.000000 0.051137
#
#
# Mechanical properties :
#
#
# Convention : Reuss Voigt Hill
#
# Bulk Modulus (GPa) = 47.65100 48.51896 48.08498
# Shear Modulus (GPa) = 23.91747 27.98653 25.95200
#
# Velocity S-wave (km/s) = 3.34343 3.61668 3.48274
# Velocity P-wave (km/s) = 6.09720 6.33382 6.21664
#
# Compressibility (1/GPa) = 0.02098592
#
# Stress axis : x y z
#
# Youngs Moduli (GPa) = 71.86817 71.86817 88.96989
#
# Poissons Ratio (x) = 0.46748 0.11284
# Poissons Ratio (y) = 0.46748 0.11284
# Poissons Ratio (z) = 0.09115 0.09115
#
# Static dielectric constant tensor:
#      x y z
#    x 3.834440 0.000000 0.000000 
#    y 0.000000 3.834440 0.000000 
#    z 0.000000 0.000000 4.173200 
# 
# 
# High freq. dielectric constant tensor:
#      x y z
#    x 1.837560 0.000000 0.000000 
#    y 0.000000 1.837560 0.000000 
#    z 0.000000 0.000000 1.859590 
# 
# From -- ./inp_files/397.got.cif
#   From: 2010.03.12/outbox.cif.g09.slc.cpg/sg82_1_cif.got.tgz:397.got - 2010.04.08 20:02:50.
