data_PCOD8302696
_publ_section_title
;
Structure prediction by ZEFSAII (Michael W. Deem and Ramdas Pophale) SiO2 
 PCOD8302696
Probable space group: P 4/M
;
_chemical_formula_sum "Si O2"
_cell_formula_units_Z 56
_cell_length_a 19.073558
_cell_length_b 19.073558
_cell_length_c 9.447749
_cell_angle_alpha 90.000000
_cell_angle_beta 90.000000
_cell_angle_gamma 90.000000
_cell_volume 3437.096894
_symmetry_space_group_name_H-M "P 4/M"
_symmetry_group_IT_number 83
_symmetry_cell_setting 'tetragonal'
loop_
_space_group_symop_operation_xyz
x,y,z
-y,x,z
-x,-y,z
y,-x,z
-x,-y,-z
y,-x,-z
x,y,-z
-y,x,-z
loop_
_atom_site_type_symbol
_atom_site_label
_atom_site_fract_x
_atom_site_fract_y
_atom_site_fract_z
Si Si1 0.288721 0.787837 0.841481
Si Si2 0.200619 0.700945 0.335467
Si Si3 0.922483 0.626547 0.840563
Si Si4 0.501032 0.917381 0.657102
Si Si5 0.401396 0.563678 0.000000
Si Si6 0.917061 0.365663 0.165912
Si Si7 0.405221 0.430656 0.500000
Si Si8 0.656536 0.350065 0.248477
O O1 0.228456 0.775647 0.724093
O O2 0.310162 0.868487 0.826953
O O3 0.350911 0.729655 0.813812
O O4 0.260003 0.774396 0.000000
O O5 0.181961 0.705168 0.500000
O O6 0.129913 0.690534 0.246529
O O7 0.262653 0.643096 0.306664
O O8 0.893435 0.570941 0.728307
O O9 0.001245 0.652156 0.805859
O O10 0.921855 0.594628 0.000000
O O11 0.509855 0.883517 0.500000
O O12 0.561594 0.893910 0.762875
O O13 0.500000 0.000000 0.642474
O O14 0.404072 0.479570 0.000000
O O15 0.357375 0.589717 0.865947
O O16 0.899315 0.367820 0.000000
O O17 0.485149 0.403065 0.500000
O O18 0.362315 0.401890 0.367011
#
# Coordination Sequence:
#
# PCOD8302696 Si02
#       8
#     8   8   8   8   4   8   4   8
#     4   9  18  35  54  72 101 133 166 207 253 301
#     4  10  20  35  52  72 102 133 168 210 255 303
#     4   9  18  33  51  75 102 132 170 209 253 311
#     4   9  17  30  46  68 101 131 162 204 253 305
#     4  11  22  36  54  74  96 124 166 224 271 314
#     4  10  19  32  52  74 100 134 169 209 257 307
#     4  11  22  38  56  70  92 128 168 222 273 314
#     4  10  19  38  51  72  97 125 167 207 262 312
#
# _framework density 16.292819999999999
#
# number of rings (size 3 to 8) (size 9 to 14) (size 15 to 20)
#    0.857    1.429    1.429    2.143    1.000    4.000 
#    5.143    0.000    0.000    0.000    0.000    0.000 
#    0.000    0.571    0.000    6.571    0.000    2.571 
#
# Total GULP energy -693754.676514 kJ/mol
# GULP energy per Si atom -12388.476366 kJ/mol
# Density = 1.625574 g / cm^3
# Si number density = 16.292820 Si / 1000 Ang^3
#
#
#
# Elastic Constant Matrix: (Units=GPa)
#
#
# Indices 1 2 3 4 5 6 
#
# 1 70.0297 27.3852 41.0241 0.0000 0.0000 -0.4710
# 2 27.3852 70.0297 41.0241 0.0000 0.0000 0.4710
# 3 41.0241 41.0241 137.9385 0.0000 0.0000 0.0000
# 4 0.0000 0.0000 0.0000 21.8001 0.0000 0.0000
# 5 0.0000 0.0000 0.0000 0.0000 21.8001 0.0000
# 6 -0.4710 0.4710 0.0000 0.0000 0.0000 17.5307
#
#
#
# Elastic Compliance Matrix: (Units=1/GPa)
#
#
# Indices 1 2 3 4 5 6 
#
# 1 0.018580 -0.004884 -0.004073 0.000000 0.000000 0.000630
# 2 -0.004884 0.018580 -0.004073 0.000000 0.000000 -0.000630
# 3 -0.004073 -0.004073 0.009673 0.000000 0.000000 0.000000
# 4 0.000000 0.000000 0.000000 0.045871 0.000000 0.000000
# 5 0.000000 0.000000 0.000000 0.000000 0.045871 0.000000
# 6 0.000630 -0.000630 0.000000 0.000000 0.000000 0.057077
#
#
# Mechanical properties :
#
#
# Convention : Reuss Voigt Hill
#
# Bulk Modulus (GPa) = 48.14307 55.20718 51.67513
# Shear Modulus (GPa) = 21.86880 23.46383 22.66632
#
# Velocity S-wave (km/s) = 3.66763 3.79903 3.73391
# Velocity P-wave (km/s) = 6.89551 7.29393 7.09752
#
# Compressibility (1/GPa) = 0.02077142
#
# Stress axis : x y z
#
# Youngs Moduli (GPa) = 53.82166 53.82166 103.38586
#
# Poissons Ratio (x) = 0.26285 0.42113
# Poissons Ratio (y) = 0.26285 0.42113
# Poissons Ratio (z) = 0.21923 0.21923
#
# Static dielectric constant tensor:
#      x y z
#    x 2.860160 0.000000 0.000000 
#    y 0.000000 2.860160 0.000000 
#    z 0.000000 0.000000 4.075060 
# 
# 
# High freq. dielectric constant tensor:
#      x y z
#    x 1.598970 0.000000 0.000000 
#    y 0.000000 1.598970 0.000000 
#    z 0.000000 0.000000 1.649230 
# 
# From -- ./inp_files/1238.got.cif
#   From: 2010.03.12/outbox.cif.g09.slc.cpg/sg83_1_cif.got.tgz:1238.got - 2010.04.08 20:05:18.
