data_PCOD8302203
_publ_section_title
;
Structure prediction by ZEFSAII (Michael W. Deem and Ramdas Pophale) SiO2 
 PCOD8302203
Probable space group: I 41
;
_chemical_formula_sum "Si O2"
_cell_formula_units_Z 40
_cell_length_a 8.847923
_cell_length_b 8.847923
_cell_length_c 25.426729
_cell_angle_alpha 90.000000
_cell_angle_beta 90.000000
_cell_angle_gamma 90.000000
_cell_volume 1990.550331
_symmetry_space_group_name_H-M "I 41"
_symmetry_group_IT_number 80
_symmetry_cell_setting 'tetragonal'
loop_
_space_group_symop_operation_xyz
x,y,z
-y,1/2+x,1/4+z
-x,-y,z
y,1/2-x,1/4+z
1/2+x,1/2+y,1/2+z
1/2-y,x,3/4+z
1/2-x,1/2-y,1/2+z
1/2+y,-x,3/4+z
loop_
_atom_site_type_symbol
_atom_site_label
_atom_site_fract_x
_atom_site_fract_y
_atom_site_fract_z
Si Si1 0.658753 0.674227 0.571130
Si Si2 0.000000 0.000000 0.155764
Si Si3 0.500000 0.500000 0.208750
Si Si4 0.158753 0.674227 0.043384
Si Si5 0.661354 0.545904 0.108178
Si Si6 0.661354 0.045904 0.006335
O O1 0.637668 0.557046 0.619358
O O2 0.500000 0.750000 0.557257
O O3 0.785935 0.793465 0.586782
O O4 0.715544 0.581910 0.520409
O O5 0.055267 0.860586 0.192848
O O6 0.442953 0.637668 0.245155
O O7 0.639414 0.555267 0.171666
O O8 0.215544 0.581910 0.094104
O O9 0.285935 0.793465 0.027732
O O10 0.500000 0.500000 0.081813
O O11 0.500000 0.000000 0.032700
#
# Coordination Sequence:
#
# PCOD8302203 Si02
#       6
#     8   4   4   8   8   8
#     4  12  22  46  66  97 139 176 231 290 339 415
#     4  10  26  38  68 103 131 180 228 278 358 400
#     4  10  26  38  68 103 131 180 228 278 358 400
#     4  12  22  46  66  97 139 176 231 290 339 415
#     4  10  25  42  68  96 133 179 230 275 352 410
#     4  10  25  42  68  96 133 179 230 275 352 410
#
# _framework density 20.094947000000001
#
# number of rings (size 3 to 8) (size 9 to 14) (size 15 to 20)
#    1.200    0.000    4.000    1.200    5.600    0.000 
#    0.000    0.000    0.000    0.000    0.000    0.000 
#    0.000    0.000    0.000    0.000    0.000    0.000 
#
# Total GULP energy -247895.122057 kJ/mol
# GULP energy per Si atom -12394.756103 kJ/mol
# Density = 2.004921 g / cm^3
# Si number density = 20.094947 Si / 1000 Ang^3
#
#
#
# Elastic Constant Matrix: (Units=GPa)
#
#
# Indices 1 2 3 4 5 6 
#
# 1 120.3175 60.3721 54.0609 0.0000 0.0000 -5.6969
# 2 60.3721 120.3175 54.0609 0.0000 0.0000 5.6969
# 3 54.0609 54.0609 116.8606 0.0000 0.0000 0.0000
# 4 0.0000 0.0000 0.0000 43.0823 0.0000 0.0000
# 5 0.0000 0.0000 0.0000 0.0000 43.0823 0.0000
# 6 -5.6969 5.6969 0.0000 0.0000 0.0000 56.3201
#
#
#
# Elastic Compliance Matrix: (Units=1/GPa)
#
#
# Indices 1 2 3 4 5 6 
#
# 1 0.012331 -0.004678 -0.003540 0.000000 0.000000 0.001720
# 2 -0.004678 0.012331 -0.003540 0.000000 0.000000 -0.001720
# 3 -0.003540 -0.003540 0.011833 0.000000 0.000000 0.000000
# 4 0.000000 0.000000 0.000000 0.023211 0.000000 0.000000
# 5 0.000000 0.000000 0.000000 0.000000 0.023211 0.000000
# 6 0.001720 -0.001720 0.000000 0.000000 0.000000 0.018104
#
#
# Mechanical properties :
#
#
# Convention : Reuss Voigt Hill
#
# Bulk Modulus (GPa) = 77.05783 77.16483 77.11133
# Shear Modulus (GPa) = 38.80069 41.09706 39.94887
#
# Velocity S-wave (km/s) = 4.39893 4.52723 4.46354
# Velocity P-wave (km/s) = 8.01442 8.11241 8.06357
#
# Compressibility (1/GPa) = 0.01297727
#
# Stress axis : x y z
#
# Youngs Moduli (GPa) = 81.09764 81.09763 84.51142
#
# Poissons Ratio (x) = 0.37938 0.29919
# Poissons Ratio (y) = 0.37938 0.29919
# Poissons Ratio (z) = 0.28711 0.28711
#
# Static dielectric constant tensor:
#      x y z
#    x 3.649150 0.000000 0.000000 
#    y 0.000000 3.649150 0.000000 
#    z 0.000000 0.000000 3.611050 
# 
# 
# High freq. dielectric constant tensor:
#      x y z
#    x 1.785670 0.000000 0.000000 
#    y 0.000000 1.785670 0.000000 
#    z 0.000000 0.000000 1.776600 
# 
# From -- ./inp_files/2321.got.cif
#   From: 2010.03.12/outbox.cif.g09.slc.cpg/sg80_cif.got.tgz:2321.got - 2010.04.08 20:00:04.
