data_PCOD8302257
_publ_section_title
;
Structure prediction by ZEFSAII (Michael W. Deem and Ramdas Pophale) SiO2 
 PCOD8302257
Probable space group: P -4
;
_chemical_formula_sum "Si O2"
_cell_formula_units_Z 25
_cell_length_a 11.777273
_cell_length_b 11.777273
_cell_length_c 9.262362
_cell_angle_alpha 90.000000
_cell_angle_beta 90.000000
_cell_angle_gamma 90.000000
_cell_volume 1284.728134
_symmetry_space_group_name_H-M "P -4"
_symmetry_group_IT_number 81
_symmetry_cell_setting 'tetragonal'
loop_
_space_group_symop_operation_xyz
x,y,z
y,-x,-z
-x,-y,z
-y,x,-z
loop_
_atom_site_type_symbol
_atom_site_label
_atom_site_fract_x
_atom_site_fract_y
_atom_site_fract_z
Si Si1 0.500000 0.500000 0.500000
Si Si2 0.272969 0.374962 0.855047
Si Si3 0.712323 0.875460 0.393647
Si Si4 0.506173 0.341426 0.740856
Si Si5 0.279659 0.863599 0.411315
Si Si6 0.262550 0.633816 0.881742
Si Si7 0.123505 0.499757 0.409486
O O1 0.547293 0.393262 0.589054
O O2 0.394140 0.409593 0.786975
O O3 0.191578 0.317165 0.738812
O O4 0.224384 0.500683 0.904453
O O5 0.294128 0.270820 0.969251
O O6 0.801537 0.824778 0.508852
O O7 0.701793 0.812019 0.237626
O O8 0.587169 0.868576 0.459035
O O9 0.750177 0.005956 0.372805
O O10 0.603514 0.359319 0.854174
O O11 0.473656 0.209689 0.719490
O O12 0.377307 0.850127 0.528049
O O13 0.000000 0.500000 0.336590
#
# Coordination Sequence:
#
# PCOD8302257 Si02
#       7
#     1   4   4   4   4   4   4
#     4  12  20  24  54  88 116 156 210 252 308 360
#     4  12  23  37  57  92 134 169 204 251 311 387
#     4  11  23  41  65  91 122 163 212 264 315 368
#     4  12  20  32  54  88 124 163 206 250 312 375
#     4  11  23  41  65  91 122 163 212 264 315 368
#     4  12  23  37  57  92 134 169 204 251 311 387
#     4  10  20  35  58  89 118 151 202 258 312 366
#
# _framework density 19.459368999999999
#
# number of rings (size 3 to 8) (size 9 to 14) (size 15 to 20)
#    0.000    0.640    8.000    1.920    0.000    0.320 
#    0.000    3.200    0.000    0.000    0.000    0.000 
#    0.000    0.000    0.000    0.000    0.000    0.000 
#
# Total GULP energy -309761.547703 kJ/mol
# GULP energy per Si atom -12390.461908 kJ/mol
# Density = 1.941508 g / cm^3
# Si number density = 19.459369 Si / 1000 Ang^3
#
#
#
# Elastic Constant Matrix: (Units=GPa)
#
#
# Indices 1 2 3 4 5 6 
#
# 1 102.3683 10.9098 25.7860 0.0000 0.0000 3.7783
# 2 10.9098 102.3683 25.7860 0.0000 0.0000 -3.7783
# 3 25.7860 25.7860 68.5650 0.0000 0.0000 0.0000
# 4 0.0000 0.0000 0.0000 11.4340 0.0000 0.0000
# 5 0.0000 0.0000 0.0000 0.0000 11.4340 0.0000
# 6 3.7783 -3.7783 0.0000 0.0000 0.0000 17.5410
#
#
#
# Elastic Compliance Matrix: (Units=1/GPa)
#
#
# Indices 1 2 3 4 5 6 
#
# 1 0.010892 -0.000240 -0.004006 0.000000 0.000000 -0.002398
# 2 -0.000240 0.010892 -0.004006 0.000000 0.000000 0.002398
# 3 -0.004006 -0.004006 0.017598 0.000000 0.000000 0.000000
# 4 0.000000 0.000000 0.000000 0.087459 0.000000 0.000000
# 5 0.000000 0.000000 0.000000 0.000000 0.087459 0.000000
# 6 -0.002398 0.002398 0.000000 0.000000 0.000000 0.058042
#
#
# Mechanical properties :
#
#
# Convention : Reuss Voigt Hill
#
# Bulk Modulus (GPa) = 43.71111 44.25169 43.98140
# Shear Modulus (GPa) = 16.86509 22.13645 19.50077
#
# Velocity S-wave (km/s) = 2.94714 3.37645 3.16907
# Velocity P-wave (km/s) = 5.83887 6.16364 6.00345
#
# Compressibility (1/GPa) = 0.02287748
#
# Stress axis : x y z
#
# Youngs Moduli (GPa) = 91.81212 91.81212 56.82544
#
# Poissons Ratio (x) = 0.02206 0.22763
# Poissons Ratio (y) = 0.02206 0.22763
# Poissons Ratio (z) = 0.36779 0.36779
#
# Static dielectric constant tensor:
#      x y z
#    x 3.571820 0.000000 0.000000 
#    y 0.000000 3.571820 0.000000 
#    z 0.000000 0.000000 3.492480 
# 
# 
# High freq. dielectric constant tensor:
#      x y z
#    x 1.746860 0.000000 0.000000 
#    y 0.000000 1.746860 0.000000 
#    z 0.000000 0.000000 1.754660 
# 
# From -- ./inp_files/859.got.cif
#   From: 2010.03.12/outbox.cif.g09.slc.cpg/sg81_cif.got.tgz:859.got - 2010.04.08 20:01:38.
