data_PCOD8302047
_publ_section_title
;
Structure prediction by ZEFSAII (Michael W. Deem and Ramdas Pophale) SiO2 
 PCOD8302047
Probable space group: P 43
;
_chemical_formula_sum "Si O2"
_cell_formula_units_Z 28
_cell_length_a 11.354835
_cell_length_b 11.354835
_cell_length_c 8.345714
_cell_angle_alpha 90.000000
_cell_angle_beta 90.000000
_cell_angle_gamma 90.000000
_cell_volume 1076.031917
_symmetry_space_group_name_H-M "P 43"
_symmetry_group_IT_number 78
_symmetry_cell_setting 'tetragonal'
loop_
_space_group_symop_operation_xyz
x,y,z
-y,x,3/4+z
-x,-y,1/2+z
y,-x,1/4+z
loop_
_atom_site_type_symbol
_atom_site_label
_atom_site_fract_x
_atom_site_fract_y
_atom_site_fract_z
Si Si1 0.744106 0.648287 0.393460
Si Si2 0.630927 0.884215 0.505084
Si Si3 0.751187 0.209667 0.304073
Si Si4 0.562149 0.621424 0.988835
Si Si5 0.939999 0.115887 0.823267
Si Si6 0.977181 0.558050 0.543698
Si Si7 0.014829 0.257701 0.299605
O O1 0.659650 0.745762 0.479120
O O2 0.792375 0.684476 0.221110
O O3 0.672570 0.527210 0.373486
O O4 0.859737 0.629005 0.497114
O O5 0.747434 0.956372 0.543045
O O6 0.573574 0.936910 0.343129
O O7 0.550439 0.917457 0.661516
O O8 0.710516 0.328650 0.211206
O O9 0.713444 0.095289 0.202527
O O10 0.889619 0.201610 0.345088
O O11 0.605199 0.497283 0.064983
O O12 0.927676 0.060377 0.649764
O O13 0.832683 0.088579 0.941161
O O14 0.021310 0.624513 0.702964
#
# Coordination Sequence:
#
# PCOD8302047 Si02
#       7
#     4   4   4   4   4   4   4
#     4  11  26  51  77 115 162 216 273 340 407 496
#     4  12  27  51  78 118 167 216 269 347 414 490
#     4  11  27  48  83 116 166 207 278 342 419 494
#     4  10  24  51  79 112 151 214 280 332 400 481
#     4  12  25  54  82 117 165 215 271 335 414 509
#     4  12  28  48  80 116 168 214 273 336 418 490
#     4  12  25  51  77 122 161 222 268 334 422 508
#
# _framework density 26.021533000000002
#
# number of rings (size 3 to 8) (size 9 to 14) (size 15 to 20)
#    0.000    0.571    4.286    1.714    6.000    4.571 
#    7.714    0.000    0.000    0.000    0.000    0.000 
#    0.000    0.000    0.000    0.000    0.000    0.000 
#
# Total GULP energy -347227.320138 kJ/mol
# GULP energy per Si atom -12400.975719 kJ/mol
# Density = 2.596231 g / cm^3
# Si number density = 26.021533 Si / 1000 Ang^3
#
#
#
# Elastic Constant Matrix: (Units=GPa)
#
#
# Indices 1 2 3 4 5 6 
#
# 1 106.2102 25.6252 40.8715 0.0000 0.0000 -2.1386
# 2 25.6252 106.2102 40.8715 0.0000 0.0000 2.1386
# 3 40.8715 40.8715 92.5164 0.0000 0.0000 0.0000
# 4 0.0000 0.0000 0.0000 49.0458 0.0000 0.0000
# 5 0.0000 0.0000 0.0000 0.0000 49.0458 0.0000
# 6 -2.1386 2.1386 0.0000 0.0000 0.0000 42.1154
#
#
#
# Elastic Compliance Matrix: (Units=1/GPa)
#
#
# Indices 1 2 3 4 5 6 
#
# 1 0.011445 -0.000998 -0.004615 0.000000 0.000000 0.000632
# 2 -0.000998 0.011445 -0.004615 0.000000 0.000000 -0.000632
# 3 -0.004615 -0.004615 0.014887 0.000000 0.000000 0.000000
# 4 0.000000 0.000000 0.000000 0.020389 0.000000 0.000000
# 5 0.000000 0.000000 0.000000 0.000000 0.020389 0.000000
# 6 0.000632 -0.000632 0.000000 0.000000 0.000000 0.023808
#
#
# Mechanical properties :
#
#
# Convention : Reuss Voigt Hill
#
# Bulk Modulus (GPa) = 57.73798 57.74148 57.73973
# Shear Modulus (GPa) = 38.88248 41.21263 40.04756
#
# Velocity S-wave (km/s) = 3.86974 3.98400 3.92729
# Velocity P-wave (km/s) = 6.49640 6.58795 6.54233
#
# Compressibility (1/GPa) = 0.01731962
#
# Stress axis : x y z
#
# Youngs Moduli (GPa) = 87.37606 87.37606 67.17452
#
# Poissons Ratio (x) = 0.08720 0.31002
# Poissons Ratio (y) = 0.08720 0.31002
# Poissons Ratio (z) = 0.40325 0.40325
#
# Static dielectric constant tensor:
#      x y z
#    x 4.836190 0.000000 0.000000 
#    y 0.000000 4.836190 0.000000 
#    z 0.000000 0.000000 4.714740 
# 
# 
# High freq. dielectric constant tensor:
#      x y z
#    x 2.050210 0.000000 0.000000 
#    y 0.000000 2.050210 0.000000 
#    z 0.000000 0.000000 2.041110 
# 
# From -- ./inp_files/649.got.cif
#   From: 2010.03.12/outbox.cif.g09.slc.cpg/sg78_cif.got.tgz:649.got - 2010.04.16 16:37:20.
