data_PCOD8302891
_publ_section_title
;
Structure prediction by ZEFSAII (Michael W. Deem and Ramdas Pophale) SiO2 
 PCOD8302891
Probable space group: P 4/M
;
_chemical_formula_sum "Si O2"
_cell_formula_units_Z 64
_cell_length_a 12.218433
_cell_length_b 12.218433
_cell_length_c 22.801855
_cell_angle_alpha 90.000000
_cell_angle_beta 90.000000
_cell_angle_gamma 90.000000
_cell_volume 3404.091327
_symmetry_space_group_name_H-M "P 4/M"
_symmetry_group_IT_number 83
_symmetry_cell_setting 'tetragonal'
loop_
_space_group_symop_operation_xyz
x,y,z
-y,x,z
-x,-y,z
y,-x,z
-x,-y,-z
y,-x,-z
x,y,-z
-y,x,-z
loop_
_atom_site_type_symbol
_atom_site_label
_atom_site_fract_x
_atom_site_fract_y
_atom_site_fract_z
Si Si1 0.118178 0.251027 0.566975
Si Si2 0.779296 0.620171 0.232937
Si Si3 0.608939 0.780882 0.820716
Si Si4 0.505462 0.176514 0.565449
Si Si5 0.457711 0.669803 0.339795
Si Si6 0.287916 0.097623 0.624232
Si Si7 0.982738 0.373638 0.745990
Si Si8 0.580231 0.661776 0.934141
O O1 0.135822 0.208575 0.500000
O O2 0.108138 0.382816 0.567315
O O3 0.213990 0.205627 0.610264
O O4 0.999145 0.219516 0.592184
O O5 0.756903 0.518627 0.190125
O O6 0.687539 0.708585 0.219761
O O7 0.771916 0.572271 0.299049
O O8 0.900661 0.672928 0.231009
O O9 0.634476 0.905803 0.803478
O O10 0.627874 0.753031 0.889341
O O11 0.462643 0.195867 0.500000
O O12 0.538328 0.293990 0.592607
O O13 0.410220 0.116490 0.600837
O O14 0.369868 0.578613 0.324825
O O15 0.300899 0.068689 0.693196
O O16 0.000000 0.500000 0.726499
O O17 0.451523 0.643578 0.923832
O O18 0.601520 0.705042 0.000000
#
# Coordination Sequence:
#
# PCOD8302891 Si02
#       8
#     8   8   8   8   8   8   8   8
#     4  11  24  40  63  84 105 142 188 236 297 363
#     4  11  21  36  57  85 117 149 193 236 295 345
#     4  11  20  34  60  86 121 158 194 240 283 340
#     4  11  23  38  57  79 106 143 182 224 285 357
#     4  11  22  33  52  82 111 142 182 230 287 348
#     4  12  24  42  62  83 113 143 185 242 299 352
#     4  10  24  37  55  85 115 157 196 233 293 354
#     4   9  17  30  53  91 132 166 199 237 286 338
#
# _framework density 18.800906999999999
#
# number of rings (size 3 to 8) (size 9 to 14) (size 15 to 20)
#    0.000    1.250    2.500    5.625    3.500    3.000 
#    0.000    1.250    0.000    4.500    0.000    0.000 
#    0.000    0.000    0.000    1.125    0.000    0.000 
#
# Total GULP energy -793207.955679 kJ/mol
# GULP energy per Si atom -12393.874307 kJ/mol
# Density = 1.875812 g / cm^3
# Si number density = 18.800907 Si / 1000 Ang^3
#
#
#
# Elastic Constant Matrix: (Units=GPa)
#
#
# Indices 1 2 3 4 5 6 
#
# 1 85.8957 20.7828 37.0517 0.0000 0.0000 -4.8626
# 2 20.7828 85.8957 37.0517 0.0000 0.0000 4.8626
# 3 37.0517 37.0517 120.1428 0.0000 0.0000 0.0000
# 4 0.0000 0.0000 0.0000 24.8594 0.0000 0.0000
# 5 0.0000 0.0000 0.0000 0.0000 24.8594 0.0000
# 6 -4.8626 4.8626 0.0000 0.0000 0.0000 23.4930
#
#
#
# Elastic Compliance Matrix: (Units=1/GPa)
#
#
# Indices 1 2 3 4 5 6 
#
# 1 0.013889 -0.001959 -0.003679 0.000000 0.000000 0.003280
# 2 -0.001959 0.013889 -0.003679 0.000000 0.000000 -0.003280
# 3 -0.003679 -0.003679 0.010593 0.000000 0.000000 0.000000
# 4 0.000000 0.000000 0.000000 0.040226 0.000000 0.000000
# 5 0.000000 0.000000 0.000000 0.000000 0.040226 0.000000
# 6 0.003280 -0.003280 0.000000 0.000000 0.000000 0.043924
#
#
# Mechanical properties :
#
#
# Convention : Reuss Voigt Hill
#
# Bulk Modulus (GPa) = 50.66984 53.52298 52.09641
# Shear Modulus (GPa) = 26.60149 27.77888 27.19018
#
# Velocity S-wave (km/s) = 3.76560 3.84803 3.80704
# Velocity P-wave (km/s) = 6.77610 6.94790 6.86254
#
# Compressibility (1/GPa) = 0.01973561
#
# Stress axis : x y z
#
# Youngs Moduli (GPa) = 72.00084 72.00084 94.40512
#
# Poissons Ratio (x) = 0.14106 0.34732
# Poissons Ratio (y) = 0.14106 0.34732
# Poissons Ratio (z) = 0.26489 0.26489
#
# Static dielectric constant tensor:
#      x y z
#    x 3.407460 0.000000 0.000000 
#    y 0.000000 3.407460 0.000000 
#    z 0.000000 0.000000 3.364490 
# 
# 
# High freq. dielectric constant tensor:
#      x y z
#    x 1.719310 0.000000 0.000000 
#    y 0.000000 1.719310 0.000000 
#    z 0.000000 0.000000 1.712900 
# 
# From -- ./inp_files/3237.got.cif
#   From: 2010.03.12/outbox.cif.g09.slc.cpg/sg83_2_cif.got.tgz:3237.got - 2010.04.08 20:05:18.
