data_PCOD8302473
_publ_section_title
;
Structure prediction by ZEFSAII (Michael W. Deem and Ramdas Pophale) SiO2 
 PCOD8302473
Probable space group: I -4 
;
_chemical_formula_sum "Si O2"
_cell_formula_units_Z 58
_cell_length_a 17.218735
_cell_length_b 17.218735
_cell_length_c 9.155633
_cell_angle_alpha 90.000000
_cell_angle_beta 90.000000
_cell_angle_gamma 90.000000
_cell_volume 2714.506339
_symmetry_space_group_name_H-M "I -4 "
_symmetry_group_IT_number 82
_symmetry_cell_setting 'tetragonal'
loop_
_space_group_symop_operation_xyz
x,y,z
y,-x,-z
-x,-y,z
-y,x,-z
1/2+x,1/2+y,1/2+z
1/2+y,1/2-x,1/2-z
1/2-x,1/2-y,1/2+z
1/2-y,1/2+x,1/2-z
loop_
_atom_site_type_symbol
_atom_site_label
_atom_site_fract_x
_atom_site_fract_y
_atom_site_fract_z
Si Si1 0.767053 0.988720 0.924112
Si Si2 0.436593 0.696716 0.265627
Si Si3 0.543381 0.697785 0.003544
Si Si4 0.522652 0.589760 0.747531
Si Si5 0.164519 0.461670 0.157136
Si Si6 0.500000 0.000000 0.750000
Si Si7 0.286540 0.839942 0.896219
Si Si8 0.788438 0.208733 0.605512
O O1 0.855027 0.974313 0.863634
O O2 0.754201 0.080386 0.935341
O O3 0.701016 0.952679 0.819609
O O4 0.758030 0.952133 0.084304
O O5 0.402016 0.612020 0.299238
O O6 0.369344 0.740538 0.174994
O O7 0.515106 0.689333 0.169927
O O8 0.509264 0.625181 0.909785
O O9 0.516109 0.779586 0.937345
O O10 0.636456 0.694091 0.002332
O O11 0.500000 0.500000 0.737319
O O12 0.154998 0.378630 0.082251
O O13 0.079905 0.502758 0.157267
O O14 0.271533 0.815717 0.729736
O O15 0.251394 0.776520 0.007600
#
# Coordination Sequence:
#
# PCOD8302473 Si02
#       8
#     8   8   8   8   8   2   8   8
#     4  11  25  43  63 100 133 166 223 272 321 392
#     4  11  24  40  63  93 135 167 216 265 322 385
#     4  10  22  45  61  98 129 169 219 269 316 399
#     4  10  24  39  63  92 132 179 218 258 318 384
#     4  11  22  43  71  92 126 165 223 273 325 390
#     4  12  20  40  76  94 112 172 212 278 324 384
#     4  12  24  44  66  96 129 173 220 266 331 393
#     4  11  25  43  65  96 128 173 218 260 334 389
#
# _framework density 21.366682000000001
#
# number of rings (size 3 to 8) (size 9 to 14) (size 15 to 20)
#    0.000    1.103    6.897    0.000    9.655    0.000 
#    0.000    0.000    0.000    0.828    0.000    0.000 
#    0.000    0.000    0.000    0.000    0.000    0.000 
#
# Total GULP energy -359602.501228 kJ/mol
# GULP energy per Si atom -12400.086249 kJ/mol
# Density = 2.131805 g / cm^3
# Si number density = 21.366682 Si / 1000 Ang^3
#
#
#
# Elastic Constant Matrix: (Units=GPa)
#
#
# Indices 1 2 3 4 5 6 
#
# 1 97.2319 8.2630 12.7313 0.0000 0.0000 -4.2035
# 2 8.2630 97.2319 12.7313 0.0000 0.0000 4.2035
# 3 12.7313 12.7313 80.4408 0.0000 0.0000 0.0000
# 4 0.0000 0.0000 0.0000 26.5464 0.0000 0.0000
# 5 0.0000 0.0000 0.0000 0.0000 26.5464 0.0000
# 6 -4.2035 4.2035 0.0000 0.0000 0.0000 18.7067
#
#
#
# Elastic Compliance Matrix: (Units=1/GPa)
#
#
# Indices 1 2 3 4 5 6 
#
# 1 0.010670 -0.000814 -0.001560 0.000000 0.000000 0.002580
# 2 -0.000814 0.010670 -0.001560 0.000000 0.000000 -0.002580
# 3 -0.001560 -0.001560 0.012925 0.000000 0.000000 0.000000
# 4 0.000000 0.000000 0.000000 0.037670 0.000000 0.000000
# 5 0.000000 0.000000 0.000000 0.000000 0.037670 0.000000
# 6 0.002580 -0.002580 0.000000 0.000000 0.000000 0.054616
#
#
# Mechanical properties :
#
#
# Convention : Reuss Voigt Hill
#
# Bulk Modulus (GPa) = 37.88292 38.03954 37.96123
# Shear Modulus (GPa) = 27.64151 30.43850 29.04001
#
# Velocity S-wave (km/s) = 3.60067 3.77845 3.69063
# Velocity P-wave (km/s) = 5.92071 6.07268 5.99718
#
# Compressibility (1/GPa) = 0.02639712
#
# Stress axis : x y z
#
# Youngs Moduli (GPa) = 93.72360 93.72360 77.36794
#
# Poissons Ratio (x) = 0.07630 0.12068
# Poissons Ratio (y) = 0.07630 0.12068
# Poissons Ratio (z) = 0.14619 0.14619
#
# Static dielectric constant tensor:
#      x y z
#    x 3.908760 0.000000 0.000000 
#    y 0.000000 3.908760 0.000000 
#    z 0.000000 0.000000 3.713810 
# 
# 
# High freq. dielectric constant tensor:
#      x y z
#    x 1.838020 0.000000 0.000000 
#    y 0.000000 1.838020 0.000000 
#    z 0.000000 0.000000 1.821820 
# 
# From -- ./inp_files/1192.got.cif
#   From: 2010.03.12/outbox.cif.g09.slc.cpg/sg82_1_cif.got.tgz:1192.got - 2010.04.08 20:02:50.
