data_PCOD8302896
_publ_section_title
;
Structure prediction by ZEFSAII (Michael W. Deem and Ramdas Pophale) SiO2 
 PCOD8302896
Probable space group: P 4/M
;
_chemical_formula_sum "Si O2"
_cell_formula_units_Z 44
_cell_length_a 14.998846
_cell_length_b 14.998846
_cell_length_c 12.579647
_cell_angle_alpha 90.000000
_cell_angle_beta 90.000000
_cell_angle_gamma 90.000000
_cell_volume 2829.985084
_symmetry_space_group_name_H-M "P 4/M"
_symmetry_group_IT_number 83
_symmetry_cell_setting 'tetragonal'
loop_
_space_group_symop_operation_xyz
x,y,z
-y,x,z
-x,-y,z
y,-x,z
-x,-y,-z
y,-x,-z
x,y,-z
-y,x,-z
loop_
_atom_site_type_symbol
_atom_site_label
_atom_site_fract_x
_atom_site_fract_y
_atom_site_fract_z
Si Si1 0.852699 0.013197 0.000000
Si Si2 0.435129 0.623438 0.126253
Si Si3 0.402444 0.816490 0.873473
Si Si4 0.028106 0.279718 0.804392
Si Si5 0.855867 0.015384 0.377110
Si Si6 0.081171 0.567139 0.883451
O O1 0.793403 0.018730 0.104667
O O2 0.920039 0.095767 0.000000
O O3 0.381078 0.537629 0.168521
O O4 0.386964 0.714466 0.163763
O O5 0.439351 0.623573 0.000000
O O6 0.330675 0.877784 0.814471
O O7 0.505370 0.838552 0.839561
O O8 0.391379 0.831104 0.000000
O O9 0.025070 0.233819 0.690103
O O10 0.945576 0.349804 0.808877
O O11 0.828480 0.018336 0.500000
O O12 0.922384 0.096162 0.349374
O O13 0.000000 0.500000 0.895840
O O14 0.105004 0.606743 0.000000
#
# Coordination Sequence:
#
# PCOD8302896 Si02
#       6
#     4   8   8   8   8   8
#     4  11  22  32  39  60 100 129 144 179 239 285
#     4   8  14  26  40  56  85 125 159 187 218 252
#     4   9  16  28  43  65  96 127 156 185 219 275
#     4  11  17  30  46  67  91 118 157 191 225 275
#     4   9  19  36  53  65  83 120 164 199 236 277
#     4   8  14  26  42  59  91 129 149 172 217 272
#
# _framework density 15.547786
#
# number of rings (size 3 to 8) (size 9 to 14) (size 15 to 20)
#    0.000    2.818    1.818    3.273    0.000    1.455 
#    6.545    0.000    0.000    4.909    0.000    0.000 
#    0.000    0.000    0.000    2.000    0.000    0.182 
#
# Total GULP energy -545224.169288 kJ/mol
# GULP energy per Si atom -12391.458393 kJ/mol
# Density = 1.551240 g / cm^3
# Si number density = 15.547786 Si / 1000 Ang^3
#
#
#
# Elastic Constant Matrix: (Units=GPa)
#
#
# Indices 1 2 3 4 5 6 
#
# 1 82.1198 26.7730 35.1225 0.0000 0.0000 2.1283
# 2 26.7730 82.1198 35.1225 0.0000 0.0000 -2.1283
# 3 35.1225 35.1225 57.4978 0.0000 0.0000 0.0000
# 4 0.0000 0.0000 0.0000 18.0775 0.0000 0.0000
# 5 0.0000 0.0000 0.0000 0.0000 18.0775 0.0000
# 6 2.1283 -2.1283 0.0000 0.0000 0.0000 17.0991
#
#
#
# Elastic Compliance Matrix: (Units=1/GPa)
#
#
# Indices 1 2 3 4 5 6 
#
# 1 0.016699 -0.001544 -0.009258 0.000000 0.000000 -0.002271
# 2 -0.001544 0.016699 -0.009258 0.000000 0.000000 0.002271
# 3 -0.009258 -0.009258 0.028702 0.000000 0.000000 0.000000
# 4 0.000000 0.000000 0.000000 0.055317 0.000000 0.000000
# 5 0.000000 0.000000 0.000000 0.000000 0.055317 0.000000
# 6 -0.002271 0.002271 0.000000 0.000000 0.000000 0.059048
#
#
# Mechanical properties :
#
#
# Convention : Reuss Voigt Hill
#
# Bulk Modulus (GPa) = 45.49149 46.19705 45.84427
# Shear Modulus (GPa) = 17.90657 18.96545 18.43601
#
# Velocity S-wave (km/s) = 3.39737 3.49638 3.44723
# Velocity P-wave (km/s) = 6.68671 6.78800 6.73755
#
# Compressibility (1/GPa) = 0.02198213
#
# Stress axis : x y z
#
# Youngs Moduli (GPa) = 59.88420 59.88420 34.84087
#
# Poissons Ratio (x) = 0.09244 0.32254
# Poissons Ratio (y) = 0.09244 0.32254
# Poissons Ratio (z) = 0.55438 0.55438
#
# Static dielectric constant tensor:
#      x y z
#    x 3.216530 0.000000 0.000000 
#    y 0.000000 3.216530 0.000000 
#    z 0.000000 0.000000 2.516630 
# 
# 
# High freq. dielectric constant tensor:
#      x y z
#    x 1.600430 0.000000 0.000000 
#    y 0.000000 1.600430 0.000000 
#    z 0.000000 0.000000 1.533540 
# 
# From -- ./inp_files/1729.got.cif
#   From: 2010.03.12/outbox.cif.g09.slc.cpg/sg83_1_cif.got.tgz:1729.got - 2010.04.08 20:05:18.
