data_PCOD8302915
_publ_section_title
;
Structure prediction by ZEFSAII (Michael W. Deem and Ramdas Pophale) SiO2 
 PCOD8302915
Probable space group: P 4/M
;
_chemical_formula_sum "Si O2"
_cell_formula_units_Z 36
_cell_length_a 9.936788
_cell_length_b 9.936788
_cell_length_c 21.369861
_cell_angle_alpha 90.000000
_cell_angle_beta 90.000000
_cell_angle_gamma 90.000000
_cell_volume 2110.054856
_symmetry_space_group_name_H-M "P 4/M"
_symmetry_group_IT_number 83
_symmetry_cell_setting 'tetragonal'
loop_
_space_group_symop_operation_xyz
x,y,z
-y,x,z
-x,-y,z
y,-x,z
-x,-y,-z
y,-x,-z
x,y,-z
-y,x,-z
loop_
_atom_site_type_symbol
_atom_site_label
_atom_site_fract_x
_atom_site_fract_y
_atom_site_fract_z
Si Si1 0.636173 0.847367 0.740224
Si Si2 0.572610 0.712060 0.864900
Si Si3 0.571678 0.709318 0.000000
Si Si4 0.070084 0.209977 0.570379
Si Si5 0.349315 0.863485 0.307810
O O1 0.609232 0.822638 0.813459
O O2 0.752073 0.752100 0.715800
O O3 0.502202 0.814513 0.700262
O O4 0.678512 0.002265 0.732603
O O5 0.417945 0.667567 0.856921
O O6 0.597262 0.783836 0.933355
O O7 0.418408 0.666590 0.000000
O O8 0.088775 0.265648 0.500000
O O9 0.108011 0.327309 0.618636
O O10 0.916749 0.166772 0.581810
#
# Coordination Sequence:
#
# PCOD8302915 Si02
#       5
#     8   8   4   8   8
#     4  11  22  34  54  78 113 142 177 221 265 319
#     4   9  15  28  50  77 106 142 177 221 271 312
#     4   7  12  22  44  75 103 132 180 221 258 315
#     4   9  17  33  58  81 104 138 180 222 267 317
#     4  11  22  36  53  82 108 141 179 221 264 320
#
# _framework density 17.061169
#
# number of rings (size 3 to 8) (size 9 to 14) (size 15 to 20)
#    0.000    2.333    4.444    2.000    0.000    0.889 
#    0.000    3.333    0.000    4.000    0.000    1.556 
#    0.000    1.778    0.000    0.000    0.000    0.000 
#
# Total GULP energy -446143.607330 kJ/mol
# GULP energy per Si atom -12392.877981 kJ/mol
# Density = 1.702234 g / cm^3
# Si number density = 17.061169 Si / 1000 Ang^3
#
#
#
# Elastic Constant Matrix: (Units=GPa)
#
#
# Indices 1 2 3 4 5 6 
#
# 1 85.4404 44.9681 53.1747 0.0000 0.0000 -9.8352
# 2 44.9681 85.4404 53.1747 0.0000 0.0000 9.8352
# 3 53.1747 53.1747 185.7117 0.0000 0.0000 0.0000
# 4 0.0000 0.0000 0.0000 27.3856 0.0000 0.0000
# 5 0.0000 0.0000 0.0000 0.0000 27.3856 0.0000
# 6 -9.8352 9.8352 0.0000 0.0000 0.0000 25.0568
#
#
#
# Elastic Compliance Matrix: (Units=1/GPa)
#
#
# Indices 1 2 3 4 5 6 
#
# 1 0.020269 -0.010264 -0.002865 0.000000 0.000000 0.011985
# 2 -0.010264 0.020269 -0.002865 0.000000 0.000000 -0.011985
# 3 -0.002865 -0.002865 0.007025 0.000000 0.000000 0.000000
# 4 0.000000 0.000000 0.000000 0.036516 0.000000 0.000000
# 5 0.000000 0.000000 0.000000 0.000000 0.036516 0.000000
# 6 0.011985 -0.011985 0.000000 0.000000 0.000000 0.049318
#
#
# Mechanical properties :
#
#
# Convention : Reuss Voigt Hill
#
# Bulk Modulus (GPa) = 64.20326 73.24749 68.72538
# Shear Modulus (GPa) = 24.14407 29.65060 26.89733
#
# Velocity S-wave (km/s) = 3.76593 4.17333 3.97485
# Velocity P-wave (km/s) = 7.52479 8.13927 7.83806
#
# Compressibility (1/GPa) = 0.01557553
#
# Stress axis : x y z
#
# Youngs Moduli (GPa) = 49.33711 49.33711 142.34730
#
# Poissons Ratio (x) = 0.50642 0.40775
# Poissons Ratio (y) = 0.50642 0.40775
# Poissons Ratio (z) = 0.14133 0.14133
#
# Static dielectric constant tensor:
#      x y z
#    x 3.011220 0.000000 0.000000 
#    y 0.000000 3.011220 0.000000 
#    z 0.000000 0.000000 3.622640 
# 
# 
# High freq. dielectric constant tensor:
#      x y z
#    x 1.633990 0.000000 0.000000 
#    y 0.000000 1.633990 0.000000 
#    z 0.000000 0.000000 1.676940 
# 
# From -- ./inp_files/2559.got.cif
#   From: 2010.03.12/outbox.cif.g09.slc.cpg/sg83_2_cif.got.tgz:2559.got - 2010.04.08 20:05:18.
