data_PCOD8302416
_publ_section_title
;
Structure prediction by ZEFSAII (Michael W. Deem and Ramdas Pophale) SiO2 
 PCOD8302416
Probable space group: I -4 
;
_chemical_formula_sum "Si O2"
_cell_formula_units_Z 48
_cell_length_a 8.835812
_cell_length_b 8.835812
_cell_length_c 30.277681
_cell_angle_alpha 90.000000
_cell_angle_beta 90.000000
_cell_angle_gamma 90.000000
_cell_volume 2363.826204
_symmetry_space_group_name_H-M "I -4 "
_symmetry_group_IT_number 82
_symmetry_cell_setting 'tetragonal'
loop_
_space_group_symop_operation_xyz
x,y,z
y,-x,-z
-x,-y,z
-y,x,-z
1/2+x,1/2+y,1/2+z
1/2+y,1/2-x,1/2-z
1/2-x,1/2-y,1/2+z
1/2-y,1/2+x,1/2-z
loop_
_atom_site_type_symbol
_atom_site_label
_atom_site_fract_x
_atom_site_fract_y
_atom_site_fract_z
Si Si1 0.186915 0.336144 0.256649
Si Si2 0.690397 0.343538 0.994528
Si Si3 0.311550 0.835417 0.162461
Si Si4 0.315441 0.837813 0.324375
Si Si5 0.338907 0.811557 0.582781
Si Si6 0.185290 0.336586 0.093843
O O1 0.211259 0.513894 0.250124
O O2 0.235945 0.295286 0.306109
O O3 0.293679 0.242939 0.223850
O O4 0.735945 0.275480 0.947212
O O5 0.523341 0.293918 0.009213
O O6 0.804097 0.278449 0.031418
O O7 0.484668 0.790202 0.169567
O O8 0.262443 0.799511 0.112467
O O9 0.287328 0.011592 0.171638
O O10 0.217717 0.751408 0.360296
O O11 0.514025 0.780268 0.591113
O O12 0.296043 0.983623 0.593766
#
# Coordination Sequence:
#
# PCOD8302416 Si02
#       6
#     8   8   8   8   8   8
#     4  11  24  41  62  88 116 147 186 231 280 336
#     4   9  18  34  56  81 112 152 194 235 282 335
#     4  11  24  40  59  85 116 150 190 234 280 333
#     4  11  24  40  59  85 116 150 190 234 280 333
#     4  10  21  37  58  85 116 150 190 235 283 337
#     4  10  21  37  58  85 116 150 190 235 283 337
#
# _framework density 20.306062000000001
#
# number of rings (size 3 to 8) (size 9 to 14) (size 15 to 20)
#    0.000    1.667    0.000    4.000    0.000   13.333 
#    0.000    3.333    0.000    0.000    0.000    0.000 
#    0.000    0.000    0.000    0.000    0.000    0.000 
#
# Total GULP energy -297766.341009 kJ/mol
# GULP energy per Si atom -12406.930875 kJ/mol
# Density = 2.025984 g / cm^3
# Si number density = 20.306062 Si / 1000 Ang^3
#
#
#
# Elastic Constant Matrix: (Units=GPa)
#
#
# Indices 1 2 3 4 5 6 
#
# 1 50.8407 21.3914 4.4486 0.0000 0.0000 -1.4912
# 2 21.3914 50.8407 4.4486 0.0000 0.0000 1.4912
# 3 4.4486 4.4486 72.7825 0.0000 0.0000 0.0000
# 4 0.0000 0.0000 0.0000 37.6858 0.0000 0.0000
# 5 0.0000 0.0000 0.0000 0.0000 37.6858 0.0000
# 6 -1.4912 1.4912 0.0000 0.0000 0.0000 25.3562
#
#
#
# Elastic Compliance Matrix: (Units=1/GPa)
#
#
# Indices 1 2 3 4 5 6 
#
# 1 0.024055 -0.010105 -0.000853 0.000000 0.000000 0.002009
# 2 -0.010105 0.024055 -0.000853 0.000000 0.000000 -0.002009
# 3 -0.000853 -0.000853 0.013844 0.000000 0.000000 0.000000
# 4 0.000000 0.000000 0.000000 0.026535 0.000000 0.000000
# 5 0.000000 0.000000 0.000000 0.000000 0.026535 0.000000
# 6 0.002009 -0.002009 0.000000 0.000000 0.000000 0.039674
#
#
# Mechanical properties :
#
#
# Convention : Reuss Voigt Hill
#
# Bulk Modulus (GPa) = 26.08793 26.11570 26.10181
# Shear Modulus (GPa) = 26.16478 29.75723 27.96101
#
# Velocity S-wave (km/s) = 3.59349 3.83225 3.71479
# Velocity P-wave (km/s) = 5.48569 5.69829 5.59300
#
# Compressibility (1/GPa) = 0.03833190
#
# Stress axis : x y z
#
# Youngs Moduli (GPa) = 41.57188 41.57187 72.23452
#
# Poissons Ratio (x) = 0.42010 0.06159
# Poissons Ratio (y) = 0.42010 0.06159
# Poissons Ratio (z) = 0.03544 0.03544
#
# Static dielectric constant tensor:
#      x y z
#    x 3.671800 0.000000 0.000000 
#    y 0.000000 3.671800 0.000000 
#    z 0.000000 0.000000 3.759900 
# 
# 
# High freq. dielectric constant tensor:
#      x y z
#    x 1.794130 0.000000 0.000000 
#    y 0.000000 1.794130 0.000000 
#    z 0.000000 0.000000 1.808140 
# 
# From -- ./inp_files/4031.got.cif
#   From: 2010.03.12/outbox.cif.g09.slc.cpg/sg82_3_cif.got.tgz:4031.got - 2010.04.08 20:02:50.
