data_PCOD8302612
_publ_section_title
;
Structure prediction by ZEFSAII (Michael W. Deem and Ramdas Pophale) SiO2 
 PCOD8302612
Probable space group: P 4/M
;
_chemical_formula_sum "Si O2"
_cell_formula_units_Z 64
_cell_length_a 21.478878
_cell_length_b 21.478878
_cell_length_c 9.000408
_cell_angle_alpha 90.000000
_cell_angle_beta 90.000000
_cell_angle_gamma 90.000000
_cell_volume 4152.268029
_symmetry_space_group_name_H-M "P 4/M"
_symmetry_group_IT_number 83
_symmetry_cell_setting 'tetragonal'
loop_
_space_group_symop_operation_xyz
x,y,z
-y,x,z
-x,-y,z
y,-x,z
-x,-y,-z
y,-x,-z
x,y,-z
-y,x,-z
loop_
_atom_site_type_symbol
_atom_site_label
_atom_site_fract_x
_atom_site_fract_y
_atom_site_fract_z
Si Si1 0.160965 0.438870 0.832922
Si Si2 0.671402 0.064382 0.826136
Si Si3 0.164991 0.566105 0.327101
Si Si4 0.648049 0.747503 0.163699
Si Si5 0.752089 0.665182 0.171581
Si Si6 0.755966 0.157244 0.675670
Si Si7 0.758584 0.846513 0.830843
Si Si8 0.066015 0.669096 0.676502
O O1 0.109054 0.387312 0.798098
O O2 0.151512 0.496948 0.726902
O O3 0.229432 0.407371 0.808161
O O4 0.154347 0.463769 0.000000
O O5 0.733560 0.092676 0.750532
O O6 0.654668 0.000238 0.747085
O O7 0.684047 0.054174 0.000000
O O8 0.169724 0.563518 0.500000
O O9 0.231671 0.592633 0.271605
O O10 0.109644 0.611346 0.274688
O O11 0.678256 0.679155 0.200135
O O12 0.706525 0.793454 0.174613
O O13 0.618516 0.748045 0.000000
O O14 0.791269 0.703939 0.290604
O O15 0.769511 0.685280 0.000000
O O16 0.764211 0.148479 0.500000
O O17 0.821406 0.179428 0.748001
O O18 0.733186 0.906857 0.743586
O O19 0.774913 0.865007 0.000000
O O20 0.061222 0.675370 0.500000
#
# Coordination Sequence:
#
# PCOD8302612 Si02
#       8
#     8   8   8   8   8   8   8   8
#     4   9  18  31  45  60  82 113 150 183 212 251
#     4  10  20  33  46  61  83 115 152 185 216 256
#     4  10  20  30  41  60  87 115 145 179 216 255
#     4   8  14  26  44  61  79 104 136 173 214 255
#     4   8  15  28  44  62  81 105 138 176 216 260
#     4  10  17  26  43  65  86 108 135 174 221 262
#     4   9  16  28  45  63  83 109 140 175 215 260
#     4  10  20  32  44  62  87 115 148 185 220 255
#
# _framework density 15.413264
#
# number of rings (size 3 to 8) (size 9 to 14) (size 15 to 20)
#    0.000    2.750    0.000    4.125    0.000    7.500 
#    0.000    2.500    0.000    0.000    0.000    0.000 
#    0.000    1.000    0.000   10.750    0.000    6.000 
#
# Total GULP energy -793138.939851 kJ/mol
# GULP energy per Si atom -12392.795935 kJ/mol
# Density = 1.537818 g / cm^3
# Si number density = 15.413264 Si / 1000 Ang^3
#
#
#
# Elastic Constant Matrix: (Units=GPa)
#
#
# Indices 1 2 3 4 5 6 
#
# 1 54.1741 52.7790 36.2924 0.0000 0.0000 -0.3582
# 2 52.7790 54.1741 36.2924 0.0000 0.0000 0.3582
# 3 36.2924 36.2924 77.9069 0.0000 0.0000 0.0000
# 4 0.0000 0.0000 0.0000 24.0429 0.0000 0.0000
# 5 0.0000 0.0000 0.0000 0.0000 24.0429 0.0000
# 6 -0.3582 0.3582 0.0000 0.0000 0.0000 13.5472
#
#
#
# Elastic Compliance Matrix: (Units=1/GPa)
#
#
# Indices 1 2 3 4 5 6 
#
# 1 0.370169 -0.356497 -0.006369 0.000000 0.000000 0.019213
# 2 -0.356497 0.370169 -0.006369 0.000000 0.000000 -0.019213
# 3 -0.006369 -0.006369 0.018770 0.000000 0.000000 0.000000
# 4 0.000000 0.000000 0.000000 0.041592 0.000000 0.000000
# 5 0.000000 0.000000 0.000000 0.000000 0.041592 0.000000
# 6 0.019213 -0.019213 0.000000 0.000000 0.000000 0.074832
#
#
# Mechanical properties :
#
#
# Convention : Reuss Voigt Hill
#
# Bulk Modulus (GPa) = 48.45443 48.55366 48.50404
# Shear Modulus (GPa) = 3.00756 16.38603 9.69680
#
# Velocity S-wave (km/s) = 1.39840 3.26408 2.51095
# Velocity P-wave (km/s) = 5.84059 6.76574 6.32011
#
# Compressibility (1/GPa) = 0.02063795
#
# Stress axis : x y z
#
# Youngs Moduli (GPa) = 2.70147 2.70147 53.27664
#
# Poissons Ratio (x) = 0.96306 0.33933
# Poissons Ratio (y) = 0.96306 0.33933
# Poissons Ratio (z) = 0.01721 0.01721
#
# Static dielectric constant tensor:
#      x y z
#    x 2.927190 0.000000 0.000000 
#    y 0.000000 2.927190 0.000000 
#    z 0.000000 0.000000 3.010170 
# 
# 
# High freq. dielectric constant tensor:
#      x y z
#    x 1.563000 0.000000 0.000000 
#    y 0.000000 1.563000 0.000000 
#    z 0.000000 0.000000 1.603450 
# 
# From -- ./inp_files/1300.got.cif
#   From: 2010.03.12/outbox.cif.g09.slc.cpg/sg83_1_cif.got.tgz:1300.got - 2010.04.08 20:05:18.
