data_PCOD8302765
_publ_section_title
;
Structure prediction by ZEFSAII (Michael W. Deem and Ramdas Pophale) SiO2 
 PCOD8302765
Probable space group: P 4/M
;
_chemical_formula_sum "Si O2"
_cell_formula_units_Z 40
_cell_length_a 17.770188
_cell_length_b 17.770188
_cell_length_c 8.868275
_cell_angle_alpha 90.000000
_cell_angle_beta 90.000000
_cell_angle_gamma 90.000000
_cell_volume 2800.420169
_symmetry_space_group_name_H-M "P 4/M"
_symmetry_group_IT_number 83
_symmetry_cell_setting 'tetragonal'
loop_
_space_group_symop_operation_xyz
x,y,z
-y,x,z
-x,-y,z
y,-x,z
-x,-y,-z
y,-x,-z
x,y,-z
-y,x,-z
loop_
_atom_site_type_symbol
_atom_site_label
_atom_site_fract_x
_atom_site_fract_y
_atom_site_fract_z
Si Si1 0.649700 0.085901 0.831826
Si Si2 0.910193 0.502827 0.331805
Si Si3 0.199078 0.925551 0.321616
Si Si4 0.087113 0.809364 0.179374
Si Si5 0.357471 0.092657 0.166333
O O1 0.572511 0.120845 0.766386
O O2 0.719865 0.108057 0.726103
O O3 0.641293 0.996940 0.837137
O O4 0.663091 0.118095 0.000000
O O5 0.880523 0.514723 0.500000
O O6 0.876354 0.423505 0.273432
O O7 0.000000 0.500000 0.326251
O O8 0.197610 0.940342 0.500000
O O9 0.135774 0.866683 0.275426
O O10 0.181371 0.001397 0.231248
O O11 0.117769 0.725614 0.220046
O O12 0.091907 0.824427 0.000000
O O13 0.373938 0.124421 0.000000
#
# Coordination Sequence:
#
# PCOD8302765 Si02
#       5
#     8   8   8   8   8
#     4   9  16  27  41  56  76 101 126 152 188 235
#     4   9  15  22  36  58  80  98 118 149 188 228
#     4  11  21  32  45  61  78  97 129 172 211 240
#     4  10  20  34  47  58  75 102 134 166 204 246
#     4   8  15  26  40  56  74  97 124 153 187 233
#
# _framework density 14.283569999999999
#
# number of rings (size 3 to 8) (size 9 to 14) (size 15 to 20)
#    0.000    2.600    0.000    4.800    0.000    8.400 
#    0.000    2.000    0.000    0.000    0.000    0.000 
#    0.000    0.000    0.000    0.000    0.000    1.000 
#
# Total GULP energy -495792.710810 kJ/mol
# GULP energy per Si atom -12394.817770 kJ/mol
# Density = 1.425106 g / cm^3
# Si number density = 14.283570 Si / 1000 Ang^3
#
#
#
# Elastic Constant Matrix: (Units=GPa)
#
#
# Indices 1 2 3 4 5 6 
#
# 1 51.9725 20.4312 18.3470 0.0000 0.0000 -0.3052
# 2 20.4312 51.9725 18.3470 0.0000 0.0000 0.3052
# 3 18.3470 18.3470 79.5469 0.0000 0.0000 0.0000
# 4 0.0000 0.0000 0.0000 20.6860 0.0000 0.0000
# 5 0.0000 0.0000 0.0000 0.0000 20.6860 0.0000
# 6 -0.3052 0.3052 0.0000 0.0000 0.0000 -0.7167
#
#
#
# Elastic Compliance Matrix: (Units=1/GPa)
#
#
# Indices 1 2 3 4 5 6 
#
# 1 0.023542 -0.007903 -0.003607 0.000000 0.000000 -0.013390
# 2 -0.007903 0.023542 -0.003607 0.000000 0.000000 0.013390
# 3 -0.003607 -0.003607 0.014235 0.000000 0.000000 0.000000
# 4 0.000000 0.000000 0.000000 0.048342 0.000000 0.000000
# 5 0.000000 0.000000 0.000000 0.000000 0.048342 0.000000
# 6 -0.013390 0.013390 0.000000 0.000000 0.000000 -1.383969
#
#
# Mechanical properties :
#
#
# Convention : Reuss Voigt Hill
#
# Bulk Modulus (GPa) = 32.16925 33.08246 32.62585
# Shear Modulus (GPa) = -4.21809 16.55553 6.16872
#
# Velocity S-wave (km/s) = -1.72033 3.40819 2.08041
# Velocity P-wave (km/s) = 4.31564 6.22087 5.35369
#
# Compressibility (1/GPa) = 0.03108559
#
# Stress axis : x y z
#
# Youngs Moduli (GPa) = 42.47642 42.47642 70.24872
#
# Poissons Ratio (x) = 0.33569 0.25340
# Poissons Ratio (y) = 0.33569 0.25340
# Poissons Ratio (z) = 0.15322 0.15322
#
# Static dielectric constant tensor:
#      x y z
#    x 2.662510 0.000000 0.000000 
#    y 0.000000 2.662510 0.000000 
#    z 0.000000 0.000000 3.009000 
# 
# 
# High freq. dielectric constant tensor:
#      x y z
#    x 1.509250 0.000000 0.000000 
#    y 0.000000 1.509250 0.000000 
#    z 0.000000 0.000000 1.564500 
# 
# From -- ./inp_files/802.got.cif
#   From: 2010.03.12/outbox.cif.g09.slc.cpg/sg83_1_cif.got.tgz:802.got - 2010.04.08 20:05:18.
