data_PCOD8302629
_publ_section_title
;
Structure prediction by ZEFSAII (Michael W. Deem and Ramdas Pophale) SiO2 
 PCOD8302629
Probable space group: P 4/M
;
_chemical_formula_sum "Si O2"
_cell_formula_units_Z 64
_cell_length_a 20.600728
_cell_length_b 20.600728
_cell_length_c 9.245877
_cell_angle_alpha 90.000000
_cell_angle_beta 90.000000
_cell_angle_gamma 90.000000
_cell_volume 3923.857686
_symmetry_space_group_name_H-M "P 4/M"
_symmetry_group_IT_number 83
_symmetry_cell_setting 'tetragonal'
loop_
_space_group_symop_operation_xyz
x,y,z
-y,x,z
-x,-y,z
y,-x,z
-x,-y,-z
y,-x,-z
x,y,-z
-y,x,-z
loop_
_atom_site_type_symbol
_atom_site_label
_atom_site_fract_x
_atom_site_fract_y
_atom_site_fract_z
Si Si1 0.752048 0.991763 0.156181
Si Si2 0.144825 0.579909 0.166927
Si Si3 0.226446 0.680403 0.661193
Si Si4 0.121289 0.791709 0.659717
Si Si5 0.318972 0.792608 0.672677
Si Si6 0.567977 0.138422 0.831744
Si Si7 0.787883 0.131917 0.162257
Si Si8 0.001424 0.603847 0.162003
O O1 0.768097 0.948998 0.293601
O O2 0.678806 0.016168 0.166976
O O3 0.796179 0.055065 0.161919
O O4 0.762015 0.955976 0.000000
O O5 0.203335 0.620878 0.239162
O O6 0.164235 0.505026 0.185248
O O7 0.072244 0.591184 0.236978
O O8 0.142672 0.601883 0.000000
O O9 0.238704 0.653011 0.500000
O O10 0.168223 0.730782 0.660496
O O11 0.291535 0.719914 0.713910
O O12 0.117259 0.822457 0.500000
O O13 0.143632 0.844151 0.776398
O O14 0.323597 0.798990 0.500000
O O15 0.388276 0.809611 0.744080
O O16 0.268997 0.845951 0.730840
O O17 0.570494 0.063578 0.769602
O O18 0.590283 0.137936 0.000000
O O19 0.775478 0.158902 0.000000
O O20 0.008563 0.575934 0.000000
#
# Coordination Sequence:
#
# PCOD8302629 Si02
#       8
#     8   8   8   8   8   8   8   8
#     4  10  18  30  50  70  90 121 159 195 237 285
#     4  10  19  30  49  71  95 129 165 198 234 277
#     4   9  19  33  46  64  93 124 158 197 236 277
#     4  10  20  32  47  69  94 121 153 196 246 291
#     4  10  20  33  48  68  94 127 162 200 243 281
#     4  10  19  32  48  70  98 130 165 199 234 277
#     4  10  19  32  50  70  91 118 156 201 243 287
#     4   9  16  29  45  67  96 128 163 194 227 273
#
# _framework density 16.310479999999998
#
# number of rings (size 3 to 8) (size 9 to 14) (size 15 to 20)
#    0.000    2.250    2.500    2.250    0.000    5.500 
#    0.000    0.625    0.000    1.875    0.000    2.625 
#    0.000    0.500    0.000    5.500    0.000    4.000 
#
# Total GULP energy -792976.820923 kJ/mol
# GULP energy per Si atom -12390.262827 kJ/mol
# Density = 1.627336 g / cm^3
# Si number density = 16.310480 Si / 1000 Ang^3
#
#
#
# Elastic Constant Matrix: (Units=GPa)
#
#
# Indices 1 2 3 4 5 6 
#
# 1 67.0026 39.0460 37.8461 0.0000 0.0000 1.2593
# 2 39.0460 67.0026 37.8461 0.0000 0.0000 -1.2593
# 3 37.8461 37.8461 78.9923 0.0000 0.0000 0.0000
# 4 0.0000 0.0000 0.0000 18.8960 0.0000 0.0000
# 5 0.0000 0.0000 0.0000 0.0000 18.8960 0.0000
# 6 1.2593 -1.2593 0.0000 0.0000 0.0000 19.3859
#
#
#
# Elastic Compliance Matrix: (Units=1/GPa)
#
#
# Indices 1 2 3 4 5 6 
#
# 1 0.025155 -0.010825 -0.006866 0.000000 0.000000 -0.002337
# 2 -0.010825 0.025155 -0.006866 0.000000 0.000000 0.002337
# 3 -0.006866 -0.006866 0.019238 0.000000 0.000000 0.000000
# 4 0.000000 0.000000 0.000000 0.052921 0.000000 0.000000
# 5 0.000000 0.000000 0.000000 0.000000 0.052921 0.000000
# 6 -0.002337 0.002337 0.000000 0.000000 0.000000 0.051888
#
#
# Mechanical properties :
#
#
# Convention : Reuss Voigt Hill
#
# Bulk Modulus (GPa) = 48.93411 49.16378 49.04895
# Shear Modulus (GPa) = 17.65513 17.98617 17.82065
#
# Velocity S-wave (km/s) = 3.29362 3.32435 3.30902
# Velocity P-wave (km/s) = 6.67313 6.70395 6.68856
#
# Compressibility (1/GPa) = 0.02043564
#
# Stress axis : x y z
#
# Youngs Moduli (GPa) = 39.75333 39.75333 51.97956
#
# Poissons Ratio (x) = 0.43033 0.35688
# Poissons Ratio (y) = 0.43033 0.35688
# Poissons Ratio (z) = 0.27293 0.27293
#
# Static dielectric constant tensor:
#      x y z
#    x 2.997410 0.000000 0.000000 
#    y 0.000000 2.997410 0.000000 
#    z 0.000000 0.000000 3.156190 
# 
# 
# High freq. dielectric constant tensor:
#      x y z
#    x 1.606450 0.000000 0.000000 
#    y 0.000000 1.606450 0.000000 
#    z 0.000000 0.000000 1.619780 
# 
# From -- ./inp_files/1257.got.cif
#   From: 2010.03.12/outbox.cif.g09.slc.cpg/sg83_1_cif.got.tgz:1257.got - 2010.04.08 20:05:18.
