data_PCOD8302121
_publ_section_title
;
Structure prediction by ZEFSAII (Michael W. Deem and Ramdas Pophale) SiO2 
 PCOD8302121
Probable space group: I 4
;
_chemical_formula_sum "Si O2"
_cell_formula_units_Z 56
_cell_length_a 14.678791
_cell_length_b 14.678791
_cell_length_c 11.601801
_cell_angle_alpha 90.000000
_cell_angle_beta 90.000000
_cell_angle_gamma 90.000000
_cell_volume 2499.804156
_symmetry_space_group_name_H-M "I 4"
_symmetry_group_IT_number 79
_symmetry_cell_setting 'tetragonal'
loop_
_space_group_symop_operation_xyz
x,y,z
-y,x,z
-x,-y,z
y,-x,z
1/2+x,1/2+y,1/2+z
1/2-y,1/2+x,1/2+z
1/2-x,1/2-y,1/2+z
1/2+y,1/2-x,1/2+z
loop_
_atom_site_type_symbol
_atom_site_label
_atom_site_fract_x
_atom_site_fract_y
_atom_site_fract_z
Si Si1 0.954434 0.693379 0.127780
Si Si2 0.289558 0.089351 0.598721
Si Si3 0.867641 0.209325 0.825366
Si Si4 0.223679 0.818602 0.459249
Si Si5 0.043744 0.144451 0.299240
Si Si6 0.757197 0.440678 0.377695
Si Si7 0.847883 0.396255 0.140397
O O1 0.872245 0.632643 0.175857
O O2 0.952501 0.791683 0.187037
O O3 0.048946 0.638885 0.135463
O O4 0.912801 0.698837 0.998263
O O5 0.209002 0.095910 0.693622
O O6 0.246859 0.136717 0.484733
O O7 0.326962 0.988640 0.568492
O O8 0.779631 0.271041 0.856118
O O9 0.840742 0.105892 0.856380
O O10 0.952391 0.242109 0.901038
O O11 0.196936 0.920476 0.413845
O O12 0.282354 0.822731 0.577924
O O13 0.940228 0.112675 0.297867
O O14 0.824398 0.412886 0.273852
#
# Coordination Sequence:
#
# PCOD8302121 Si02
#       7
#     8   8   8   8   8   8   8
#     4  12  25  43  72 101 142 188 234 298 361 431
#     4  11  24  44  68 102 138 188 236 290 360 430
#     4  11  23  43  65 103 133 182 235 289 359 430
#     4  12  22  44  76  97 141 188 237 290 363 436
#     4  11  28  46  69 105 142 190 245 301 365 432
#     4  11  25  42  69 101 141 178 238 290 360 435
#     4  11  26  44  68 106 141 183 238 304 360 428
#
# _framework density 22.401754
#
# number of rings (size 3 to 8) (size 9 to 14) (size 15 to 20)
#    0.000    0.714    5.714    1.286    6.000    1.429 
#    0.000    1.429    0.000    0.000    0.000    0.000 
#    0.000    0.000    0.000    0.000    0.000    0.000 
#
# Total GULP energy -346911.959773 kJ/mol
# GULP energy per Si atom -12389.712849 kJ/mol
# Density = 2.235077 g / cm^3
# Si number density = 22.401754 Si / 1000 Ang^3
#
#
#
# Elastic Constant Matrix: (Units=GPa)
#
#
# Indices 1 2 3 4 5 6 
#
# 1 107.4020 36.7900 35.0553 0.0000 0.0000 1.7437
# 2 36.7900 107.4020 35.0553 0.0000 0.0000 -1.7437
# 3 35.0553 35.0553 95.3365 0.0000 0.0000 0.0000
# 4 0.0000 0.0000 0.0000 28.9716 0.0000 0.0000
# 5 0.0000 0.0000 0.0000 0.0000 28.9716 0.0000
# 6 1.7437 -1.7437 0.0000 0.0000 0.0000 34.7343
#
#
#
# Elastic Compliance Matrix: (Units=1/GPa)
#
#
# Indices 1 2 3 4 5 6 
#
# 1 0.011321 -0.002876 -0.003105 0.000000 0.000000 -0.000713
# 2 -0.002876 0.011321 -0.003105 0.000000 0.000000 0.000713
# 3 -0.003105 -0.003105 0.012773 0.000000 0.000000 0.000000
# 4 0.000000 0.000000 0.000000 0.034517 0.000000 0.000000
# 5 0.000000 0.000000 0.000000 0.000000 0.034517 0.000000
# 6 -0.000713 0.000713 0.000000 0.000000 0.000000 0.028862
#
#
# Mechanical properties :
#
#
# Convention : Reuss Voigt Hill
#
# Bulk Modulus (GPa) = 57.99832 58.21575 58.10704
# Shear Modulus (GPa) = 31.80054 32.08482 31.94268
#
# Velocity S-wave (km/s) = 3.77179 3.78861 3.78021
# Velocity P-wave (km/s) = 6.70185 6.72173 6.71180
#
# Compressibility (1/GPa) = 0.01724188
#
# Stress axis : x y z
#
# Youngs Moduli (GPa) = 88.33076 88.33076 78.29154
#
# Poissons Ratio (x) = 0.25404 0.24312
# Poissons Ratio (y) = 0.25404 0.24312
# Poissons Ratio (z) = 0.27429 0.27429
#
# Static dielectric constant tensor:
#      x y z
#    x 4.116030 0.000000 0.000000 
#    y 0.000000 4.116030 0.000000 
#    z 0.000000 0.000000 3.873670 
# 
# 
# High freq. dielectric constant tensor:
#      x y z
#    x 1.888040 0.000000 0.000000 
#    y 0.000000 1.888040 0.000000 
#    z 0.000000 0.000000 1.878880 
# 
# From -- ./inp_files/1150.got.cif
#   From: 2010.03.12/outbox.cif.g09.slc.cpg/sg79_cif.got.tgz:1150.got - 2010.04.16 16:38:49.
