data_PCOD8302157
_publ_section_title
;
Structure prediction by ZEFSAII (Michael W. Deem and Ramdas Pophale) SiO2 
 PCOD8302157
Probable space group: I 41
;
_chemical_formula_sum "Si O2"
_cell_formula_units_Z 40
_cell_length_a 12.137184
_cell_length_b 12.137184
_cell_length_c 15.063775
_cell_angle_alpha 90.000000
_cell_angle_beta 90.000000
_cell_angle_gamma 90.000000
_cell_volume 2219.063306
_symmetry_space_group_name_H-M "I 41"
_symmetry_group_IT_number 80
_symmetry_cell_setting 'tetragonal'
loop_
_space_group_symop_operation_xyz
x,y,z
-y,1/2+x,1/4+z
-x,-y,z
y,1/2-x,1/4+z
1/2+x,1/2+y,1/2+z
1/2-y,x,3/4+z
1/2-x,1/2-y,1/2+z
1/2+y,-x,3/4+z
loop_
_atom_site_type_symbol
_atom_site_label
_atom_site_fract_x
_atom_site_fract_y
_atom_site_fract_z
Si Si1 0.200765 0.153488 0.236760
Si Si2 0.576384 0.895301 0.159302
Si Si3 0.140616 0.298841 0.085558
Si Si4 0.981158 0.240006 0.805653
Si Si5 0.953036 0.377975 0.969768
O O1 0.134536 0.074382 0.304179
O O2 0.296345 0.081664 0.188129
O O3 0.118213 0.217083 0.168648
O O4 0.259410 0.247652 0.291871
O O5 0.529769 0.793794 0.216231
O O6 0.500000 0.000000 0.176230
O O7 0.167104 0.426789 0.108450
O O8 0.035767 0.296084 0.021079
O O9 0.930904 0.329994 0.871986
O O10 0.882299 0.160016 0.775034
O O11 0.000000 0.500000 0.956173
#
# Coordination Sequence:
#
# PCOD8302157 Si02
#       5
#     8   8   8   8   8
#     4   9  18  33  57  81 100 142 179 226 259 318
#     4  10  21  33  56  80 111 138 180 221 276 320
#     4   9  16  33  56  78 103 131 188 222 257 312
#     4  10  20  32  54  82 109 139 175 225 274 315
#     4  10  20  33  56  81 108 141 179 228 270 320
#
# _framework density 18.025623
#
# number of rings (size 3 to 8) (size 9 to 14) (size 15 to 20)
#    0.000    2.400    2.000    0.600   11.200    0.000 
#    0.000    2.000    8.800    0.000    0.000    0.000 
#    0.000    0.000    0.000    0.000    0.000    0.000 
#
# Total GULP energy -247851.201962 kJ/mol
# GULP energy per Si atom -12392.560098 kJ/mol
# Density = 1.798460 g / cm^3
# Si number density = 18.025623 Si / 1000 Ang^3
#
#
#
# Elastic Constant Matrix: (Units=GPa)
#
#
# Indices 1 2 3 4 5 6 
#
# 1 41.9925 24.1166 30.7201 0.0000 0.0000 2.7551
# 2 24.1166 41.9925 30.7201 0.0000 0.0000 -2.7551
# 3 30.7201 30.7201 106.4771 0.0000 0.0000 0.0000
# 4 0.0000 0.0000 0.0000 29.1118 0.0000 0.0000
# 5 0.0000 0.0000 0.0000 0.0000 29.1119 0.0000
# 6 2.7551 -2.7551 0.0000 0.0000 0.0000 24.3809
#
#
#
# Elastic Compliance Matrix: (Units=1/GPa)
#
#
# Indices 1 2 3 4 5 6 
#
# 1 0.039314 -0.018646 -0.005963 0.000000 0.000000 -0.006550
# 2 -0.018646 0.039314 -0.005963 0.000000 0.000000 0.006550
# 3 -0.005963 -0.005963 0.012833 0.000000 0.000000 0.000000
# 4 0.000000 0.000000 0.000000 0.034350 0.000000 0.000000
# 5 0.000000 0.000000 0.000000 0.000000 0.034350 0.000000
# 6 -0.006550 0.006550 0.000000 0.000000 0.000000 0.042496
#
#
# Mechanical properties :
#
#
# Convention : Reuss Voigt Hill
#
# Bulk Modulus (GPa) = 32.98475 40.17508 36.57991
# Shear Modulus (GPa) = 18.25434 23.51460 20.88447
#
# Velocity S-wave (km/s) = 3.18573 3.61572 3.40751
# Velocity P-wave (km/s) = 5.64538 6.30614 5.98489
#
# Compressibility (1/GPa) = 0.03031704
#
# Stress axis : x y z
#
# Youngs Moduli (GPa) = 25.43605 25.43605 77.92660
#
# Poissons Ratio (x) = 0.47427 0.46469
# Poissons Ratio (y) = 0.47427 0.46469
# Poissons Ratio (z) = 0.15168 0.15168
#
# Static dielectric constant tensor:
#      x y z
#    x 3.197730 0.000000 0.000000 
#    y 0.000000 3.197730 0.000000 
#    z 0.000000 0.000000 3.655850 
# 
# 
# High freq. dielectric constant tensor:
#      x y z
#    x 1.671680 0.000000 0.000000 
#    y 0.000000 1.671680 0.000000 
#    z 0.000000 0.000000 1.702470 
# 
# From -- ./inp_files/1243.got.cif
#   From: 2010.03.12/outbox.cif.g09.slc.cpg/sg80_cif.got.tgz:1243.got - 2010.04.08 20:00:04.
