data_PCOD8302256
_publ_section_title
;
Structure prediction by ZEFSAII (Michael W. Deem and Ramdas Pophale) SiO2 
 PCOD8302256
Probable space group: P -4
;
_chemical_formula_sum "Si O2"
_cell_formula_units_Z 29
_cell_length_a 12.456324
_cell_length_b 12.456324
_cell_length_c 10.386474
_cell_angle_alpha 90.000000
_cell_angle_beta 90.000000
_cell_angle_gamma 90.000000
_cell_volume 1611.565385
_symmetry_space_group_name_H-M "P -4"
_symmetry_group_IT_number 81
_symmetry_cell_setting 'tetragonal'
loop_
_space_group_symop_operation_xyz
x,y,z
y,-x,-z
-x,-y,z
-y,x,-z
loop_
_atom_site_type_symbol
_atom_site_label
_atom_site_fract_x
_atom_site_fract_y
_atom_site_fract_z
Si Si1 0.691491 0.626060 0.125112
Si Si2 0.315978 0.502725 0.694433
Si Si3 0.122575 0.878314 0.494756
Si Si4 0.500000 0.500000 0.500000
Si Si5 0.505833 0.877026 0.485774
Si Si6 0.685921 0.131061 0.676853
Si Si7 0.302615 0.627839 0.145970
Si Si8 0.115337 0.690421 0.315536
O O1 0.583175 0.671532 0.187179
O O2 0.794852 0.670743 0.199226
O O3 0.689650 0.498081 0.119866
O O4 0.696135 0.669833 0.980326
O O5 0.399366 0.537909 0.584478
O O6 0.195239 0.508709 0.641499
O O7 0.341436 0.382622 0.739088
O O8 0.199799 0.843730 0.611391
O O9 0.142909 0.809960 0.365393
O O10 0.001686 0.857697 0.544660
O O11 0.404780 0.843300 0.572111
O O12 0.612263 0.855796 0.567184
O O13 0.500000 0.000000 0.439666
O O14 0.678027 0.008629 0.724932
O O15 0.183488 0.661243 0.189756
#
# Coordination Sequence:
#
# PCOD8302256 Si02
#       8
#     4   4   4   1   4   4   4   4
#     4  12  23  39  56  77 110 155 195 232 279 329
#     4  12  22  34  54  84 110 137 186 237 287 331
#     4   9  18  35  62  91 117 146 180 228 289 342
#     4  12  20  28  54  84 108 128 172 246 292 324
#     4  10  20  35  56  83 116 146 174 226 293 353
#     4  10  20  37  59  83 114 148 185 226 282 344
#     4  12  23  39  56  77 110 155 195 232 279 329
#     4  10  20  37  59  83 114 148 185 226 282 344
#
# _framework density 17.994926
#
# number of rings (size 3 to 8) (size 9 to 14) (size 15 to 20)
#    0.000    1.241    4.138    3.310    0.000    0.000 
#    0.000    2.759    0.000    0.000    0.000    0.000 
#    0.000    0.000    0.000    0.000    0.000    0.000 
#
# Total GULP energy -359763.825131 kJ/mol
# GULP energy per Si atom -12405.649142 kJ/mol
# Density = 1.795397 g / cm^3
# Si number density = 17.994926 Si / 1000 Ang^3
#
#
#
# Elastic Constant Matrix: (Units=GPa)
#
#
# Indices 1 2 3 4 5 6 
#
# 1 98.5918 34.0562 40.6623 0.0000 0.0000 -0.5618
# 2 34.0562 98.5918 40.6623 0.0000 0.0000 0.5618
# 3 40.6623 40.6623 79.2667 0.0000 0.0000 0.0000
# 4 0.0000 0.0000 0.0000 25.2443 0.0000 0.0000
# 5 0.0000 0.0000 0.0000 0.0000 25.2443 0.0000
# 6 -0.5618 0.5618 0.0000 0.0000 0.0000 23.8803
#
#
#
# Elastic Compliance Matrix: (Units=1/GPa)
#
#
# Indices 1 2 3 4 5 6 
#
# 1 0.013250 -0.002252 -0.005641 0.000000 0.000000 0.000365
# 2 -0.002252 0.013250 -0.005641 0.000000 0.000000 -0.000365
# 3 -0.005641 -0.005641 0.018404 0.000000 0.000000 0.000000
# 4 0.000000 0.000000 0.000000 0.039613 0.000000 0.000000
# 5 0.000000 0.000000 0.000000 0.000000 0.039613 0.000000
# 6 0.000365 -0.000365 0.000000 0.000000 0.000000 0.041893
#
#
# Mechanical properties :
#
#
# Convention : Reuss Voigt Hill
#
# Bulk Modulus (GPa) = 56.07720 56.35689 56.21704
# Shear Modulus (GPa) = 25.12116 25.61177 25.36646
#
# Velocity S-wave (km/s) = 3.74038 3.77673 3.75860
# Velocity P-wave (km/s) = 7.06289 7.09961 7.08127
#
# Compressibility (1/GPa) = 0.01783256
#
# Stress axis : x y z
#
# Youngs Moduli (GPa) = 75.47419 75.47419 54.33724
#
# Poissons Ratio (x) = 0.16998 0.30654
# Poissons Ratio (y) = 0.16998 0.30654
# Poissons Ratio (z) = 0.42579 0.42579
#
# Static dielectric constant tensor:
#      x y z
#    x 3.472360 0.000000 0.000000 
#    y 0.000000 3.472360 0.000000 
#    z 0.000000 0.000000 3.094720 
# 
# 
# High freq. dielectric constant tensor:
#      x y z
#    x 1.706870 0.000000 0.000000 
#    y 0.000000 1.706870 0.000000 
#    z 0.000000 0.000000 1.672570 
# 
# From -- ./inp_files/1406.got.cif
#   From: 2010.03.12/outbox.cif.g09.slc.cpg/sg81_cif.got.tgz:1406.got - 2010.04.08 20:01:38.
