data_PCOD8302251
_publ_section_title
;
Structure prediction by ZEFSAII (Michael W. Deem and Ramdas Pophale) SiO2 
 PCOD8302251
Probable space group: P -4
;
_chemical_formula_sum "Si O2"
_cell_formula_units_Z 32
_cell_length_a 11.505227
_cell_length_b 11.505227
_cell_length_c 12.308950
_cell_angle_alpha 90.000000
_cell_angle_beta 90.000000
_cell_angle_gamma 90.000000
_cell_volume 1629.338768
_symmetry_space_group_name_H-M "P -4"
_symmetry_group_IT_number 81
_symmetry_cell_setting 'tetragonal'
loop_
_space_group_symop_operation_xyz
x,y,z
y,-x,-z
-x,-y,z
-y,x,-z
loop_
_atom_site_type_symbol
_atom_site_label
_atom_site_fract_x
_atom_site_fract_y
_atom_site_fract_z
Si Si1 0.628092 0.999999 0.877639
Si Si2 0.000013 0.721737 0.349656
Si Si3 0.638414 0.251980 0.899016
Si Si4 0.230859 0.746265 0.683247
Si Si5 0.363948 0.000008 0.404197
Si Si6 0.366566 0.633460 0.499979
Si Si7 0.361560 0.251973 0.899052
Si Si8 0.769162 0.746244 0.683283
O O1 0.683345 0.119605 0.923277
O O2 0.500000 0.000000 0.923707
O O3 0.624283 0.999977 0.745232
O O4 0.683352 0.880410 0.923309
O O5 0.116224 0.797659 0.329365
O O6 0.883799 0.797654 0.329352
O O7 0.000009 0.671038 0.470170
O O8 0.716443 0.294414 0.798264
O O9 0.499983 0.256411 0.872269
O O10 0.664863 0.335150 0.999976
O O11 0.333096 0.714781 0.599937
O O12 0.112463 0.680132 0.659385
O O13 0.319870 0.887561 0.340603
O O14 0.500000 0.000000 0.396824
O O15 0.500021 0.656812 0.469221
O O16 0.285299 0.666891 0.399972
O O17 0.283486 0.294405 0.798329
#
# Coordination Sequence:
#
# PCOD8302251 Si02
#       8
#     4   4   4   4   4   4   4   4
#     4   8  17  35  61  85 108 150 201 248 291 353
#     4  10  19  37  60  87 121 158 199 247 312 373
#     4  10  22  40  62  86 117 159 205 251 305 364
#     4  11  23  39  60  90 121 158 203 257 305 373
#     4  12  23  36  59  90 125 162 202 253 311 372
#     4  11  22  36  56  83 120 158 194 247 308 368
#     4  10  22  40  62  86 117 159 205 251 305 364
#     4  11  23  39  60  90 121 158 203 257 305 373
#
# _framework density 19.639869000000001
#
# number of rings (size 3 to 8) (size 9 to 14) (size 15 to 20)
#    0.000    1.625    2.500    1.875    0.000    5.750 
#    0.000    2.500    0.000    1.875    0.000    0.000 
#    0.000    0.000    0.000    0.000    0.000    0.000 
#
# Total GULP energy -396556.629545 kJ/mol
# GULP energy per Si atom -12392.394673 kJ/mol
# Density = 1.959517 g / cm^3
# Si number density = 19.639869 Si / 1000 Ang^3
#
#
#
# Elastic Constant Matrix: (Units=GPa)
#
#
# Indices 1 2 3 4 5 6 
#
# 1 28.5390 -40.6658 71.6503 0.0000 0.0000 0.0013
# 2 -40.6658 28.5390 71.6503 0.0000 0.0000 -0.0013
# 3 71.6503 71.6503 100.9620 0.0000 0.0000 0.0000
# 4 0.0000 0.0000 0.0000 28.9447 0.0000 0.0000
# 5 0.0000 0.0000 0.0000 0.0000 28.9447 0.0000
# 6 0.0013 -0.0013 0.0000 0.0000 0.0000 26.2031
#
#
#
# Elastic Compliance Matrix: (Units=1/GPa)
#
#
# Indices 1 2 3 4 5 6 
#
# 1 0.002832 -0.011618 0.006235 0.000000 0.000000 -0.000001
# 2 -0.011618 0.002832 0.006235 0.000000 0.000000 0.000001
# 3 0.006235 0.006235 0.001055 0.000000 0.000000 0.000000
# 4 0.000000 0.000000 0.000000 0.034549 0.000000 0.000000
# 5 0.000000 0.000000 0.000000 0.000000 0.034549 0.000000
# 6 -0.000001 0.000001 0.000000 0.000000 0.000000 0.038163
#
#
# Mechanical properties :
#
#
# Convention : Reuss Voigt Hill
#
# Bulk Modulus (GPa) = 118.71269 40.36775 79.54022
# Shear Modulus (GPa) = 43.44651 20.51219 31.97935
#
# Velocity S-wave (km/s) = 4.70846 3.23525 4.03958
# Velocity P-wave (km/s) = 9.49397 5.87830 7.89588
#
# Compressibility (1/GPa) = 0.00842370
#
# Stress axis : x y z
#
# Youngs Moduli (GPa) = 353.08555 353.08555 947.64707
#
# Poissons Ratio (x) = 4.10203 -5.90845
# Poissons Ratio (y) = 4.10203 -5.90845
# Poissons Ratio (z) = -2.20144 -2.20144
#
# Static dielectric constant tensor:
#      x y z
#    x 3.645100 0.000000 0.000000 
#    y 0.000000 3.645100 0.000000 
#    z 0.000000 0.000000 3.488700 
# 
# 
# High freq. dielectric constant tensor:
#      x y z
#    x 1.765400 0.000000 0.000000 
#    y 0.000000 1.765400 0.000000 
#    z 0.000000 0.000000 1.757080 
# 
# From -- ./inp_files/1454.got.cif
#   From: 2010.03.12/outbox.cif.g09.slc.cpg/sg81_cif.got.tgz:1454.got - 2010.04.08 20:01:38.
