data_PCOD8302570
_publ_section_title
;
Structure prediction by ZEFSAII (Michael W. Deem and Ramdas Pophale) SiO2 
 PCOD8302570
Probable space group: I -4 
;
_chemical_formula_sum "Si O2"
_cell_formula_units_Z 34
_cell_length_a 10.896180
_cell_length_b 10.896180
_cell_length_c 11.661688
_cell_angle_alpha 90.000000
_cell_angle_beta 90.000000
_cell_angle_gamma 90.000000
_cell_volume 1384.554183
_symmetry_space_group_name_H-M "I -4 "
_symmetry_group_IT_number 82
_symmetry_cell_setting 'tetragonal'
loop_
_space_group_symop_operation_xyz
x,y,z
y,-x,-z
-x,-y,z
-y,x,-z
1/2+x,1/2+y,1/2+z
1/2+y,1/2-x,1/2-z
1/2-x,1/2-y,1/2+z
1/2-y,1/2+x,1/2-z
loop_
_atom_site_type_symbol
_atom_site_label
_atom_site_fract_x
_atom_site_fract_y
_atom_site_fract_z
Si Si1 0.149539 0.091893 0.944506
Si Si2 0.942521 0.124987 0.310314
Si Si3 0.500000 0.000000 0.750000
Si Si4 0.908087 0.667499 0.434547
Si Si5 0.562552 0.838981 0.185704
O O1 0.147794 0.024724 0.821560
O O2 0.261590 0.189644 0.955540
O O3 0.021494 0.163855 0.965510
O O4 0.794743 0.124467 0.319667
O O5 0.007832 0.221318 0.393707
O O6 0.000000 0.000000 0.355459
O O7 0.433152 0.904627 0.666425
O O8 0.963447 0.619711 0.554656
O O9 0.433169 0.842404 0.253546
#
# Coordination Sequence:
#
# PCOD8302570 Si02
#       5
#     8   8   2   8   8
#     4  11  24  49  81 116 160 221 278 338 417 507
#     4  12  28  48  77 119 160 215 279 342 420 493
#     4  12  24  48  70 120 152 212 268 338 424 488
#     4  12  28  47  80 116 165 210 280 350 419 492
#     4  11  28  52  81 116 162 224 283 345 416 500
#
# _framework density 24.556643000000001
#
# number of rings (size 3 to 8) (size 9 to 14) (size 15 to 20)
#    0.000    0.471    4.706    2.824    6.588    1.882 
#    0.000    0.000    0.000    0.000    0.000    0.000 
#    0.000    0.000    0.000    0.000    0.000    0.000 
#
# Total GULP energy -210683.429295 kJ/mol
# GULP energy per Si atom -12393.142900 kJ/mol
# Density = 2.450075 g / cm^3
# Si number density = 24.556643 Si / 1000 Ang^3
#
#
#
# Elastic Constant Matrix: (Units=GPa)
#
#
# Indices 1 2 3 4 5 6 
#
# 1 161.2356 55.3574 51.1469 0.0000 0.0000 11.2126
# 2 55.3574 161.2356 51.1469 0.0000 0.0000 -11.2126
# 3 51.1469 51.1469 189.1089 0.0000 0.0000 0.0000
# 4 0.0000 0.0000 0.0000 33.6106 0.0000 0.0000
# 5 0.0000 0.0000 0.0000 0.0000 33.6106 0.0000
# 6 11.2126 -11.2126 0.0000 0.0000 0.0000 47.6275
#
#
#
# Elastic Compliance Matrix: (Units=1/GPa)
#
#
# Indices 1 2 3 4 5 6 
#
# 1 0.007617 -0.002324 -0.001432 0.000000 0.000000 -0.002340
# 2 -0.002324 0.007617 -0.001432 0.000000 0.000000 0.002340
# 3 -0.001432 -0.001432 0.006062 0.000000 0.000000 0.000000
# 4 0.000000 0.000000 0.000000 0.029753 0.000000 0.000000
# 5 0.000000 0.000000 0.000000 0.000000 0.029753 0.000000
# 6 -0.002340 0.002340 0.000000 0.000000 0.000000 0.022098
#
#
# Mechanical properties :
#
#
# Convention : Reuss Voigt Hill
#
# Bulk Modulus (GPa) = 91.55698 91.87584 91.71641
# Shear Modulus (GPa) = 42.76666 46.56499 44.66582
#
# Velocity S-wave (km/s) = 4.17772 4.35929 4.26947
# Velocity P-wave (km/s) = 7.78691 7.92673 7.85713
#
# Compressibility (1/GPa) = 0.01092216
#
# Stress axis : x y z
#
# Youngs Moduli (GPa) = 131.28922 131.28920 164.95300
#
# Poissons Ratio (x) = 0.30508 0.23614
# Poissons Ratio (y) = 0.30508 0.23614
# Poissons Ratio (z) = 0.18795 0.18795
#
# Static dielectric constant tensor:
#      x y z
#    x 4.360940 0.000000 0.000000 
#    y 0.000000 4.360940 0.000000 
#    z 0.000000 0.000000 4.896160 
# 
# 
# High freq. dielectric constant tensor:
#      x y z
#    x 1.967060 0.000000 0.000000 
#    y 0.000000 1.967060 0.000000 
#    z 0.000000 0.000000 2.004640 
# 
# From -- ./inp_files/1595.got.cif
#   From: 2010.03.12/outbox.cif.g09.slc.cpg/sg82_1_cif.got.tgz:1595.got - 2010.04.08 20:02:50.
