data_PCOD8302025
_publ_section_title
;
Structure prediction by ZEFSAII (Michael W. Deem and Ramdas Pophale) SiO2 
 PCOD8302025
Probable space group: P 43
;
_chemical_formula_sum "Si O2"
_cell_formula_units_Z 16
_cell_length_a 9.477863
_cell_length_b 9.477863
_cell_length_c 7.691939
_cell_angle_alpha 90.000000
_cell_angle_beta 90.000000
_cell_angle_gamma 90.000000
_cell_volume 690.966012
_symmetry_space_group_name_H-M "P 43"
_symmetry_group_IT_number 78
_symmetry_cell_setting 'tetragonal'
loop_
_space_group_symop_operation_xyz
x,y,z
-y,x,3/4+z
-x,-y,1/2+z
y,-x,1/4+z
loop_
_atom_site_type_symbol
_atom_site_label
_atom_site_fract_x
_atom_site_fract_y
_atom_site_fract_z
Si Si1 0.477574 0.674664 0.331340
Si Si2 0.413140 0.973898 0.296459
Si Si3 0.164964 0.947012 0.060997
Si Si4 0.338680 0.136151 0.624192
O O1 0.375431 0.554332 0.256794
O O2 0.389904 0.816860 0.380782
O O3 0.590318 0.714005 0.177362
O O4 0.326207 0.978388 0.114474
O O5 0.579030 0.985394 0.238820
O O6 0.362350 0.099904 0.421254
O O7 0.089112 0.902688 0.238936
O O8 0.143944 0.826110 0.915727
#
# Coordination Sequence:
#
# PCOD8302025 Si02
#       4
#     4   4   4   4
#     4  10  22  46  60  96 130 166 222 270 332 394
#     4  10  21  42  66  94 129 172 219 270 331 402
#     4  12  24  42  64  96 132 168 222 274 334 396
#     4  10  21  42  66  94 129 172 219 270 331 402
#
# _framework density 23.155987
#
# number of rings (size 3 to 8) (size 9 to 14) (size 15 to 20)
#    1.500    0.000    2.500    3.000    0.000    0.000 
#   13.500    0.000    0.000    0.000    0.000    0.000 
#    0.000    0.000    0.000    0.000    0.000    0.000 
#
# Total GULP energy -198258.984929 kJ/mol
# GULP energy per Si atom -12391.186558 kJ/mol
# Density = 2.310328 g / cm^3
# Si number density = 23.155987 Si / 1000 Ang^3
#
#
#
# Elastic Constant Matrix: (Units=GPa)
#
#
# Indices 1 2 3 4 5 6 
#
# 1 37.7693 -18.8533 -5.5533 0.0000 0.0000 -6.2490
# 2 -18.8533 37.7693 -5.5533 0.0000 0.0000 6.2490
# 3 -5.5533 -5.5533 52.5558 0.0000 0.0000 0.0000
# 4 0.0000 0.0000 0.0000 44.5233 0.0000 0.0000
# 5 0.0000 0.0000 0.0000 0.0000 44.5233 0.0000
# 6 -6.2490 6.2490 0.0000 0.0000 0.0000 16.6041
#
#
#
# Elastic Compliance Matrix: (Units=1/GPa)
#
#
# Indices 1 2 3 4 5 6 
#
# 1 0.037811 0.018551 0.005956 0.000000 0.000000 0.007249
# 2 0.018551 0.037811 0.005956 0.000000 0.000000 -0.007249
# 3 0.005956 0.005956 0.020286 0.000000 0.000000 0.000000
# 4 0.000000 0.000000 0.000000 0.022460 0.000000 0.000000
# 5 0.000000 0.000000 0.000000 0.000000 0.022460 0.000000
# 6 0.007249 -0.007249 0.000000 0.000000 0.000000 0.065682
#
#
# Mechanical properties :
#
#
# Convention : Reuss Voigt Hill
#
# Bulk Modulus (GPa) = 6.37624 7.57495 6.97559
# Shear Modulus (GPa) = 25.26969 31.66712 28.46841
#
# Velocity S-wave (km/s) = 3.30704 3.70206 3.51011
# Velocity P-wave (km/s) = 4.16432 4.64242 4.40985
#
# Compressibility (1/GPa) = 0.15683231
#
# Stress axis : x y z
#
# Youngs Moduli (GPa) = 26.44702 26.44702 49.29514
#
# Poissons Ratio (x) = -0.49061 -0.29358
# Poissons Ratio (y) = -0.49061 -0.29358
# Poissons Ratio (z) = -0.15751 -0.15751
#
# Static dielectric constant tensor:
#      x y z
#    x 3.949840 0.000000 0.000000 
#    y 0.000000 3.949840 0.000000 
#    z 0.000000 0.000000 3.602780 
# 
# 
# High freq. dielectric constant tensor:
#      x y z
#    x 1.904810 0.000000 0.000000 
#    y 0.000000 1.904810 0.000000 
#    z 0.000000 0.000000 1.892890 
# 
# From -- ./inp_files/78.got.cif
#   From: 2010.03.12/outbox.cif.g09.slc.cpg/sg78_cif.got.tgz:78.got - 2010.04.16 16:37:20.
