data_PCOD8302601
_publ_section_title
;
Structure prediction by ZEFSAII (Michael W. Deem and Ramdas Pophale) SiO2 
 PCOD8302601
Probable space group: I -4 
;
_chemical_formula_sum "Si O2"
_cell_formula_units_Z 36
_cell_length_a 10.443883
_cell_length_b 10.443883
_cell_length_c 14.501261
_cell_angle_alpha 90.000000
_cell_angle_beta 90.000000
_cell_angle_gamma 90.000000
_cell_volume 1581.720579
_symmetry_space_group_name_H-M "I -4 "
_symmetry_group_IT_number 82
_symmetry_cell_setting 'tetragonal'
loop_
_space_group_symop_operation_xyz
x,y,z
y,-x,-z
-x,-y,z
-y,x,-z
1/2+x,1/2+y,1/2+z
1/2+y,1/2-x,1/2-z
1/2-x,1/2-y,1/2+z
1/2-y,1/2+x,1/2-z
loop_
_atom_site_type_symbol
_atom_site_label
_atom_site_fract_x
_atom_site_fract_y
_atom_site_fract_z
Si Si1 0.888482 0.407136 0.931935
Si Si2 0.632290 0.547200 0.859617
Si Si3 0.500000 0.500000 0.500000
Si Si4 0.000000 0.500000 0.250000
Si Si5 0.311602 0.517565 0.657640
Si Si6 0.332441 0.814121 0.625047
O O1 0.757825 0.479931 0.903468
O O2 0.051570 0.672553 0.846274
O O3 0.000000 0.500000 0.965542
O O4 0.871223 0.312762 0.018247
O O5 0.500000 0.500000 0.906127
O O6 0.623214 0.525825 0.750800
O O7 0.618752 0.696839 0.873353
O O8 0.384180 0.463887 0.567808
O O9 0.109691 0.434605 0.312366
O O10 0.311603 0.670604 0.660002
#
# Coordination Sequence:
#
# PCOD8302601 Si02
#       6
#     8   8   2   2   8   8
#     4  12  27  48  76 107 154 200 248 311 387 457
#     4  12  28  47  75 111 148 196 253 316 378 447
#     4  12  24  44  76 104 142 184 252 300 368 440
#     4  12  28  48  72 108 150 192 252 320 376 456
#     4  12  25  49  75 108 146 198 249 307 374 461
#     4  12  27  48  75 106 149 197 249 310 385 450
#
# _framework density 22.760027000000001
#
# number of rings (size 3 to 8) (size 9 to 14) (size 15 to 20)
#    0.000    0.000    6.667    2.667    3.111    0.000 
#    4.000    0.000    0.000    0.000    0.000    0.000 
#    0.000    0.000    0.000    0.000    0.000    0.000 
#
# Total GULP energy -223109.223343 kJ/mol
# GULP energy per Si atom -12394.956852 kJ/mol
# Density = 2.270822 g / cm^3
# Si number density = 22.760027 Si / 1000 Ang^3
#
#
#
# Elastic Constant Matrix: (Units=GPa)
#
#
# Indices 1 2 3 4 5 6 
#
# 1 135.8743 35.0070 27.3836 0.0000 0.0000 -0.0160
# 2 35.0070 135.8743 27.3836 0.0000 0.0000 0.0160
# 3 27.3836 27.3836 87.2255 0.0000 0.0000 0.0000
# 4 0.0000 0.0000 0.0000 12.3432 0.0000 0.0000
# 5 0.0000 0.0000 0.0000 0.0000 12.3432 0.0000
# 6 -0.0160 0.0160 0.0000 0.0000 0.0000 45.0336
#
#
#
# Elastic Compliance Matrix: (Units=1/GPa)
#
#
# Indices 1 2 3 4 5 6 
#
# 1 0.008210 -0.001704 -0.002043 0.000000 0.000000 0.000004
# 2 -0.001704 0.008210 -0.002043 0.000000 0.000000 -0.000004
# 3 -0.002043 -0.002043 0.012747 0.000000 0.000000 0.000000
# 4 0.000000 0.000000 0.000000 0.081016 0.000000 0.000000
# 5 0.000000 0.000000 0.000000 0.000000 0.081016 0.000000
# 6 0.000004 -0.000004 0.000000 0.000000 0.000000 0.022206
#
#
# Mechanical properties :
#
#
# Convention : Reuss Voigt Hill
#
# Bulk Modulus (GPa) = 56.85161 59.83585 58.34373
# Shear Modulus (GPa) = 21.65935 31.89065 26.77500
#
# Velocity S-wave (km/s) = 3.08821 3.74728 3.43360
# Velocity P-wave (km/s) = 6.14402 6.71340 6.43501
#
# Compressibility (1/GPa) = 0.01758965
#
# Stress axis : x y z
#
# Youngs Moduli (GPa) = 121.79730 121.79730 78.44911
#
# Poissons Ratio (x) = 0.20750 0.16025
# Poissons Ratio (y) = 0.20750 0.16025
# Poissons Ratio (z) = 0.24880 0.24880
#
# Static dielectric constant tensor:
#      x y z
#    x 4.196740 0.000000 0.000000 
#    y 0.000000 4.196740 0.000000 
#    z 0.000000 0.000000 4.086150 
# 
# 
# High freq. dielectric constant tensor:
#      x y z
#    x 1.911000 0.000000 0.000000 
#    y 0.000000 1.911000 0.000000 
#    z 0.000000 0.000000 1.907400 
# 
# From -- ./inp_files/1604.got.cif
#   From: 2010.03.12/outbox.cif.g09.slc.cpg/sg82_1_cif.got.tgz:1604.got - 2010.04.08 20:02:50.
