data_PCOD8302910
_publ_section_title
;
Structure prediction by ZEFSAII (Michael W. Deem and Ramdas Pophale) SiO2 
 PCOD8302910
Probable space group: P 4/M
;
_chemical_formula_sum "Si O2"
_cell_formula_units_Z 48
_cell_length_a 9.703836
_cell_length_b 9.703836
_cell_length_c 28.862421
_cell_angle_alpha 90.000000
_cell_angle_beta 90.000000
_cell_angle_gamma 90.000000
_cell_volume 2717.813512
_symmetry_space_group_name_H-M "P 4/M"
_symmetry_group_IT_number 83
_symmetry_cell_setting 'tetragonal'
loop_
_space_group_symop_operation_xyz
x,y,z
-y,x,z
-x,-y,z
y,-x,z
-x,-y,-z
y,-x,-z
x,y,-z
-y,x,-z
loop_
_atom_site_type_symbol
_atom_site_label
_atom_site_fract_x
_atom_site_fract_y
_atom_site_fract_z
Si Si1 0.873815 0.188850 0.784641
Si Si2 0.635799 0.140133 0.552962
Si Si3 0.884072 0.192731 0.320669
Si Si4 0.630734 0.689512 0.149727
Si Si5 0.629418 0.686830 0.048789
Si Si6 0.150858 0.658706 0.589140
O O1 0.850587 0.236811 0.731763
O O2 0.795817 0.302179 0.814829
O O3 0.037411 0.188034 0.794800
O O4 0.589202 0.120386 0.500000
O O5 0.503272 0.175015 0.584080
O O6 0.742392 0.263568 0.556315
O O7 0.704343 0.000386 0.572050
O O8 0.823299 0.302499 0.357013
O O9 0.046419 0.185678 0.329636
O O10 0.465367 0.688653 0.156538
O O11 0.673117 0.750172 0.098471
O O12 0.465972 0.687351 0.048039
O O13 0.680224 0.760458 0.000000
#
# Coordination Sequence:
#
# PCOD8302910 Si02
#       6
#     8   8   8   8   8   8
#     4   9  19  35  54  73  99 133 175 217 257 311
#     4  11  23  38  57  82 110 140 172 208 251 303
#     4   9  17  35  58  79  97 126 173 220 258 293
#     4   9  17  30  48  77 109 135 169 216 263 309
#     4   7  10  19  39  66  97 132 169 210 256 301
#     4  11  21  38  57  80 109 137 172 212 252 302
#
# _framework density 17.661258
#
# number of rings (size 3 to 8) (size 9 to 14) (size 15 to 20)
#    0.000    2.667    1.667    4.500    0.000    1.333 
#    3.000    1.667    0.000    1.000    0.000    5.833 
#    0.000    0.000    0.000    0.000    0.000    0.000 
#
# Total GULP energy -594671.319357 kJ/mol
# GULP energy per Si atom -12388.985820 kJ/mol
# Density = 1.762106 g / cm^3
# Si number density = 17.661258 Si / 1000 Ang^3
#
#
#
# Elastic Constant Matrix: (Units=GPa)
#
#
# Indices 1 2 3 4 5 6 
#
# 1 48.7397 48.7895 46.1940 0.0000 0.0000 -0.5210
# 2 48.7895 48.7397 46.1940 0.0000 0.0000 0.5210
# 3 46.1940 46.1940 154.3810 0.0000 0.0000 0.0000
# 4 0.0000 0.0000 0.0000 23.7529 0.0000 0.0000
# 5 0.0000 0.0000 0.0000 0.0000 23.7529 0.0000
# 6 -0.5210 0.5210 0.0000 0.0000 0.0000 29.7453
#
#
#
# Elastic Compliance Matrix: (Units=1/GPa)
#
#
# Indices 1 2 3 4 5 6 
#
# 1 -7.341713 7.356022 -0.004282 0.000000 0.000000 -0.257456
# 2 7.356022 -7.341713 -0.004282 0.000000 0.000000 0.257456
# 3 -0.004282 -0.004282 0.009040 0.000000 0.000000 0.000000
# 4 0.000000 0.000000 0.000000 0.042100 0.000000 0.000000
# 5 0.000000 0.000000 0.000000 0.000000 0.042100 0.000000
# 6 -0.257456 0.257456 0.000000 0.000000 0.000000 0.024599
#
#
# Mechanical properties :
#
#
# Convention : Reuss Voigt Hill
#
# Bulk Modulus (GPa) = 48.70492 59.35727 54.03109
# Shear Modulus (GPa) = -0.17092 22.82908 11.32908
#
# Velocity S-wave (km/s) = -0.31143 3.59919 2.53546
# Velocity P-wave (km/s) = 5.24479 7.13820 6.26345
#
# Compressibility (1/GPa) = 0.02053181
#
# Stress axis : x y z
#
# Youngs Moduli (GPa) = -0.13621 -0.13621 110.62212
#
# Poissons Ratio (x) = 1.00195 0.47364
# Poissons Ratio (y) = 1.00195 0.47364
# Poissons Ratio (z) = -0.00058 -0.00058
#
# Static dielectric constant tensor:
#      x y z
#    x 2.967590 0.000000 0.000000 
#    y 0.000000 2.967590 0.000000 
#    z 0.000000 0.000000 3.637810 
# 
# 
# High freq. dielectric constant tensor:
#      x y z
#    x 1.654610 0.000000 0.000000 
#    y 0.000000 1.654610 0.000000 
#    z 0.000000 0.000000 1.703260 
# 
# From -- ./inp_files/3420.got.cif
#   From: 2010.03.12/outbox.cif.g09.slc.cpg/sg83_2_cif.got.tgz:3420.got - 2010.04.08 20:05:18.
