data_PCOD8302120
_publ_section_title
;
Structure prediction by ZEFSAII (Michael W. Deem and Ramdas Pophale) SiO2 
 PCOD8302120
Probable space group: I 4
;
_chemical_formula_sum "Si O2"
_cell_formula_units_Z 40
_cell_length_a 19.585223
_cell_length_b 19.585223
_cell_length_c 4.945263
_cell_angle_alpha 90.000000
_cell_angle_beta 90.000000
_cell_angle_gamma 90.000000
_cell_volume 1896.908729
_symmetry_space_group_name_H-M "I 4"
_symmetry_group_IT_number 79
_symmetry_cell_setting 'tetragonal'
loop_
_space_group_symop_operation_xyz
x,y,z
-y,x,z
-x,-y,z
y,-x,z
1/2+x,1/2+y,1/2+z
1/2-y,1/2+x,1/2+z
1/2-x,1/2-y,1/2+z
1/2+y,1/2-x,1/2+z
loop_
_atom_site_type_symbol
_atom_site_label
_atom_site_fract_x
_atom_site_fract_y
_atom_site_fract_z
Si Si1 0.026596 0.663231 0.998920
Si Si2 0.076550 0.812001 0.069160
Si Si3 0.794281 0.255392 0.279721
Si Si4 0.541717 0.396483 0.067963
Si Si5 0.389684 0.876383 0.968048
O O1 0.069652 0.646966 0.732251
O O2 0.035421 0.741439 0.090354
O O3 0.055448 0.614179 0.231361
O O4 0.946856 0.650063 0.986846
O O5 0.155023 0.801136 0.155234
O O6 0.044872 0.869557 0.261926
O O7 0.070494 0.837654 0.762378
O O8 0.754398 0.221646 0.531728
O O9 0.833164 0.320977 0.392020
O O10 0.587528 0.462755 0.120625
#
# Coordination Sequence:
#
# PCOD8302120 Si02
#       5
#     8   8   8   8   8
#     4  11  24  42  63  92 126 161 207 257 309 370
#     4  11  23  42  64  92 126 161 206 258 307 369
#     4  11  23  41  63  90 125 162 205 254 308 370
#     4  11  24  42  64  92 125 162 207 257 310 370
#     4  11  24  42  64  92 126 163 207 259 310 371
#
# _framework density 21.086939000000001
#
# number of rings (size 3 to 8) (size 9 to 14) (size 15 to 20)
#    0.000    1.000    0.000    8.400    0.000    8.800 
#    0.000    4.000    0.000    0.000    0.000    0.000 
#    0.000    0.000    0.000    0.000    0.000    0.000 
#
# Total GULP energy -248073.403732 kJ/mol
# GULP energy per Si atom -12403.670187 kJ/mol
# Density = 2.103894 g / cm^3
# Si number density = 21.086939 Si / 1000 Ang^3
#
#
#
# Elastic Constant Matrix: (Units=GPa)
#
#
# Indices 1 2 3 4 5 6 
#
# 1 135.0603 20.4976 35.4372 0.0000 0.0000 33.9769
# 2 20.4976 135.0603 35.4372 0.0000 0.0000 -33.9769
# 3 35.4372 35.4372 128.6522 0.0000 0.0000 0.0000
# 4 0.0000 0.0000 0.0000 58.7520 0.0000 0.0000
# 5 0.0000 0.0000 0.0000 0.0000 58.7520 0.0000
# 6 33.9769 -33.9769 0.0000 0.0000 0.0000 35.5566
#
#
#
# Elastic Compliance Matrix: (Units=1/GPa)
#
#
# Indices 1 2 3 4 5 6 
#
# 1 0.013750 -0.006399 -0.002025 0.000000 0.000000 -0.019255
# 2 -0.006399 0.013750 -0.002025 0.000000 0.000000 0.019255
# 3 -0.002025 -0.002025 0.008888 0.000000 0.000000 0.000000
# 4 0.000000 0.000000 0.000000 0.017021 0.000000 0.000000
# 5 0.000000 0.000000 0.000000 0.000000 0.017021 0.000000
# 6 -0.019255 0.019255 0.000000 0.000000 0.000000 0.064922
#
#
# Mechanical properties :
#
#
# Convention : Reuss Voigt Hill
#
# Bulk Modulus (GPa) = 64.55332 64.61298 64.58315
# Shear Modulus (GPa) = 30.97606 51.10553 41.04079
#
# Velocity S-wave (km/s) = 3.83687 4.92831 4.41644
# Velocity P-wave (km/s) = 7.09283 7.94305 7.52995
#
# Compressibility (1/GPa) = 0.01549107
#
# Stress axis : x y z
#
# Youngs Moduli (GPa) = 72.72491 72.72491 112.50653
#
# Poissons Ratio (x) = 0.46540 0.22781
# Poissons Ratio (y) = 0.46540 0.22781
# Poissons Ratio (z) = 0.14726 0.14726
#
# Static dielectric constant tensor:
#      x y z
#    x 3.792520 0.000000 0.000000 
#    y 0.000000 3.792520 0.000000 
#    z 0.000000 0.000000 4.056810 
# 
# 
# High freq. dielectric constant tensor:
#      x y z
#    x 1.829370 0.000000 0.000000 
#    y 0.000000 1.829370 0.000000 
#    z 0.000000 0.000000 1.849900 
# 
# From -- ./inp_files/143.got.cif
#   From: 2010.03.12/outbox.cif.g09.slc.cpg/sg79_cif.got.tgz:143.got - 2010.04.16 16:38:49.
