data_PCOD8302449
_publ_section_title
;
Structure prediction by ZEFSAII (Michael W. Deem and Ramdas Pophale) SiO2 
 PCOD8302449
Probable space group: I -4 
;
_chemical_formula_sum "Si O2"
_cell_formula_units_Z 56
_cell_length_a 14.954073
_cell_length_b 14.954073
_cell_length_c 11.501715
_cell_angle_alpha 90.000000
_cell_angle_beta 90.000000
_cell_angle_gamma 90.000000
_cell_volume 2572.062958
_symmetry_space_group_name_H-M "I -4 "
_symmetry_group_IT_number 82
_symmetry_cell_setting 'tetragonal'
loop_
_space_group_symop_operation_xyz
x,y,z
y,-x,-z
-x,-y,z
-y,x,-z
1/2+x,1/2+y,1/2+z
1/2+y,1/2-x,1/2-z
1/2-x,1/2-y,1/2+z
1/2-y,1/2+x,1/2-z
loop_
_atom_site_type_symbol
_atom_site_label
_atom_site_fract_x
_atom_site_fract_y
_atom_site_fract_z
Si Si1 0.519588 0.288376 0.627567
Si Si2 0.156258 0.838384 0.953703
Si Si3 0.678149 0.154052 0.107999
Si Si4 0.850452 0.851658 0.470956
Si Si5 0.177367 0.648622 0.876243
Si Si6 0.988833 0.399427 0.026358
Si Si7 0.104144 0.009922 0.661121
O O1 0.558210 0.331256 0.509380
O O2 0.419363 0.325268 0.631424
O O3 0.527850 0.179036 0.624188
O O4 0.561508 0.333937 0.742546
O O5 0.168492 0.754582 0.870710
O O6 0.220386 0.840123 0.065685
O O7 0.634973 0.249890 0.076838
O O8 0.680677 0.121179 0.241421
O O9 0.622544 0.080259 0.038948
O O10 0.872342 0.765660 0.549992
O O11 0.882839 0.937674 0.541829
O O12 0.912441 0.851262 0.356914
O O13 0.093751 0.599494 0.936855
O O14 0.000000 0.500000 0.080604
O O15 0.000000 0.000000 0.698733
#
# Coordination Sequence:
#
# PCOD8302449 Si02
#       7
#     8   8   8   8   8   8   8
#     4  10  22  40  63  89 134 171 215 268 328 389
#     4   9  20  39  57  95 125 166 221 264 314 408
#     4  10  22  39  64  91 125 172 216 268 333 378
#     4  11  23  42  65  91 134 161 213 274 320 404
#     4  10  22  39  64  91 125 172 216 268 333 378
#     4  10  24  41  63  95 131 166 230 271 312 392
#     4  12  24  41  64 100 127 165 213 263 338 395
#
# _framework density 21.772404999999999
#
# number of rings (size 3 to 8) (size 9 to 14) (size 15 to 20)
#    0.000    1.714    1.429    1.714    6.000    0.000 
#    5.143    0.000    3.143    0.000    0.000    0.000 
#    0.000    0.000    0.000    0.000    0.000    0.000 
#
# Total GULP energy -346987.008929 kJ/mol
# GULP energy per Si atom -12392.393176 kJ/mol
# Density = 2.172285 g / cm^3
# Si number density = 21.772405 Si / 1000 Ang^3
#
#
#
# Elastic Constant Matrix: (Units=GPa)
#
#
# Indices 1 2 3 4 5 6 
#
# 1 89.3268 7.8293 15.3685 0.0000 0.0000 1.6658
# 2 7.8293 89.3268 15.3685 0.0000 0.0000 -1.6658
# 3 15.3685 15.3685 74.6783 0.0000 0.0000 0.0000
# 4 0.0000 0.0000 0.0000 21.3808 0.0000 0.0000
# 5 0.0000 0.0000 0.0000 0.0000 21.3808 0.0000
# 6 1.6658 -1.6658 0.0000 0.0000 0.0000 27.7480
#
#
#
# Elastic Compliance Matrix: (Units=1/GPa)
#
#
# Indices 1 2 3 4 5 6 
#
# 1 0.011655 -0.000646 -0.002266 0.000000 0.000000 -0.000738
# 2 -0.000646 0.011655 -0.002266 0.000000 0.000000 0.000738
# 3 -0.002266 -0.002266 0.014323 0.000000 0.000000 0.000000
# 4 0.000000 0.000000 0.000000 0.046771 0.000000 0.000000
# 5 0.000000 0.000000 0.000000 0.000000 0.046771 0.000000
# 6 -0.000738 0.000738 0.000000 0.000000 0.000000 0.036127
#
#
# Mechanical properties :
#
#
# Convention : Reuss Voigt Hill
#
# Bulk Modulus (GPa) = 36.65757 36.71827 36.68792
# Shear Modulus (GPa) = 26.77382 28.41962 27.59672
#
# Velocity S-wave (km/s) = 3.51053 3.61682 3.56407
# Velocity P-wave (km/s) = 5.77105 5.86029 5.81584
#
# Compressibility (1/GPa) = 0.02727949
#
# Stress axis : x y z
#
# Youngs Moduli (GPa) = 85.80009 85.80009 69.81624
#
# Poissons Ratio (x) = 0.05538 0.15818
# Poissons Ratio (y) = 0.05538 0.15818
# Poissons Ratio (z) = 0.19440 0.19440
#
# Static dielectric constant tensor:
#      x y z
#    x 4.049350 0.000000 0.000000 
#    y 0.000000 4.049350 0.000000 
#    z 0.000000 0.000000 3.560640 
# 
# 
# High freq. dielectric constant tensor:
#      x y z
#    x 1.861890 0.000000 0.000000 
#    y 0.000000 1.861890 0.000000 
#    z 0.000000 0.000000 1.843640 
# 
# From -- ./inp_files/1827.got.cif
#   From: 2010.03.12/outbox.cif.g09.slc.cpg/sg82_1_cif.got.tgz:1827.got - 2010.04.08 20:02:50.
