data_PCOD8302268
_publ_section_title
;
Structure prediction by ZEFSAII (Michael W. Deem and Ramdas Pophale) SiO2 
 PCOD8302268
Probable space group: P -4
;
_chemical_formula_sum "Si O2"
_cell_formula_units_Z 22
_cell_length_a 9.372564
_cell_length_b 9.372564
_cell_length_c 12.208937
_cell_angle_alpha 90.000000
_cell_angle_beta 90.000000
_cell_angle_gamma 90.000000
_cell_volume 1072.493533
_symmetry_space_group_name_H-M "P -4"
_symmetry_group_IT_number 81
_symmetry_cell_setting 'tetragonal'
loop_
_space_group_symop_operation_xyz
x,y,z
y,-x,-z
-x,-y,z
-y,x,-z
loop_
_atom_site_type_symbol
_atom_site_label
_atom_site_fract_x
_atom_site_fract_y
_atom_site_fract_z
Si Si1 0.162434 0.492365 0.227991
Si Si2 0.814755 0.739939 0.796661
Si Si3 0.720771 0.573453 0.000547
Si Si4 0.230202 0.835621 0.627376
Si Si5 0.000000 0.000000 0.765382
Si Si6 0.345272 0.975948 0.416053
O O1 0.226785 0.650770 0.236994
O O2 0.220887 0.376080 0.315100
O O3 0.000000 0.500000 0.259378
O O4 0.180177 0.428471 0.106899
O O5 0.813374 0.635823 0.901043
O O6 0.880297 0.658880 0.693207
O O7 0.920127 0.872503 0.832033
O O8 0.671542 0.414507 0.969992
O O9 0.250873 0.905274 0.509143
O O10 0.136768 0.696614 0.611673
O O11 0.134557 0.947259 0.695099
O O12 0.500000 0.000000 0.464673
#
# Coordination Sequence:
#
# PCOD8302268 Si02
#       6
#     4   4   4   4   2   4
#     4  11  22  41  67  92 125 169 211 263 318 382
#     4  10  22  42  64  94 127 164 220 259 326 383
#     4   9  21  42  66  89 124 168 207 260 324 377
#     4  11  23  40  66  91 131 166 214 256 327 379
#     4  10  20  41  63  94 126 170 205 269 312 390
#     4  11  25  40  66  96 127 172 210 271 318 384
#
# _framework density 20.512941000000001
#
# number of rings (size 3 to 8) (size 9 to 14) (size 15 to 20)
#    0.000    1.636    1.818    2.727    5.091    1.455 
#    9.818    0.909    0.000    0.000    0.000    0.000 
#    0.000    0.000    0.000    0.000    0.000    0.000 
#
# Total GULP energy -272632.465970 kJ/mol
# GULP energy per Si atom -12392.384817 kJ/mol
# Density = 2.046625 g / cm^3
# Si number density = 20.512941 Si / 1000 Ang^3
#
#
#
# Elastic Constant Matrix: (Units=GPa)
#
#
# Indices 1 2 3 4 5 6 
#
# 1 97.7859 34.7681 50.1036 0.0000 0.0000 1.4227
# 2 34.7681 97.7859 50.1036 0.0000 0.0000 -1.4227
# 3 50.1036 50.1036 108.1050 0.0000 0.0000 0.0000
# 4 0.0000 0.0000 0.0000 199.7518 0.0000 0.0000
# 5 0.0000 0.0000 0.0000 0.0000 199.7518 0.0000
# 6 1.4227 -1.4227 0.0000 0.0000 0.0000 25.5710
#
#
#
# Elastic Compliance Matrix: (Units=1/GPa)
#
#
# Indices 1 2 3 4 5 6 
#
# 1 0.013761 -0.002148 -0.005382 0.000000 0.000000 -0.000885
# 2 -0.002148 0.013761 -0.005382 0.000000 0.000000 0.000885
# 3 -0.005382 -0.005382 0.014239 0.000000 0.000000 0.000000
# 4 0.000000 0.000000 0.000000 0.005006 0.000000 0.000000
# 5 0.000000 0.000000 0.000000 0.000000 0.005006 0.000000
# 6 -0.000885 0.000885 0.000000 0.000000 0.000000 0.039205
#
#
# Mechanical properties :
#
#
# Convention : Reuss Voigt Hill
#
# Bulk Modulus (GPa) = 62.75050 63.73640 63.24345
# Shear Modulus (GPa) = 40.94499 96.26170 68.60334
#
# Velocity S-wave (km/s) = 4.47257 6.85778 5.78935
# Velocity P-wave (km/s) = 7.57159 9.68733 8.69406
#
# Compressibility (1/GPa) = 0.01593613
#
# Stress axis : x y z
#
# Youngs Moduli (GPa) = 72.67064 72.67064 70.22812
#
# Poissons Ratio (x) = 0.15608 0.37799
# Poissons Ratio (y) = 0.15608 0.37799
# Poissons Ratio (z) = 0.39113 0.39113
#
# Static dielectric constant tensor:
#      x y z
#    x 1.974960 0.000000 0.000000 
#    y 0.000000 1.974960 0.000000 
#    z 0.000000 0.000000 3.630820 
# 
# 
# High freq. dielectric constant tensor:
#      x y z
#    x 1.807980 0.000000 0.000000 
#    y 0.000000 1.807980 0.000000 
#    z 0.000000 0.000000 1.796930 
# 
# From -- ./inp_files/1628.got.cif
#   From: 2010.03.12/outbox.cif.g09.slc.cpg/sg81_cif.got.tgz:1628.got - 2010.04.08 20:01:38.
