data_PCOD8302146
_publ_section_title
;
Structure prediction by ZEFSAII (Michael W. Deem and Ramdas Pophale) SiO2 
 PCOD8302146
Probable space group: I 41
;
_chemical_formula_sum "Si O2"
_cell_formula_units_Z 48
_cell_length_a 14.484637
_cell_length_b 14.484637
_cell_length_c 8.966183
_cell_angle_alpha 90.000000
_cell_angle_beta 90.000000
_cell_angle_gamma 90.000000
_cell_volume 1881.147415
_symmetry_space_group_name_H-M "I 41"
_symmetry_group_IT_number 80
_symmetry_cell_setting 'tetragonal'
loop_
_space_group_symop_operation_xyz
x,y,z
-y,1/2+x,1/4+z
-x,-y,z
y,1/2-x,1/4+z
1/2+x,1/2+y,1/2+z
1/2-y,x,3/4+z
1/2-x,1/2-y,1/2+z
1/2+y,-x,3/4+z
loop_
_atom_site_type_symbol
_atom_site_label
_atom_site_fract_x
_atom_site_fract_y
_atom_site_fract_z
Si Si1 0.488737 0.100359 0.938710
Si Si2 0.712586 0.028733 0.575854
Si Si3 0.678963 0.165821 0.831145
Si Si4 0.185696 0.313130 0.545356
Si Si5 0.956781 0.404638 0.894809
Si Si6 0.860438 0.899085 0.892839
O O1 0.581032 0.159151 0.915612
O O2 0.438727 0.083072 0.781607
O O3 0.500000 0.000000 0.013348
O O4 0.419362 0.154503 0.047136
O O5 0.699393 0.072405 0.740408
O O6 0.646156 0.078287 0.456109
O O7 0.820450 0.045598 0.524285
O O8 0.688760 0.919213 0.582938
O O9 0.681253 0.248591 0.712982
O O10 0.212685 0.309685 0.718167
O O11 0.255827 0.374577 0.442707
O O12 0.000000 0.500000 0.831368
O O13 0.020512 0.359613 0.022058
#
# Coordination Sequence:
#
# PCOD8302146 Si02
#       6
#     8   8   8   8   8   8
#     4  11  20  35  65  98 125 162 219 277 314 373
#     4  11  18  32  57  91 123 157 205 265 320 366
#     4  12  25  41  65  95 129 168 217 269 329 384
#     4  10  23  38  63  97 134 169 217 264 326 385
#     4  10  19  30  51  87 122 151 200 262 316 363
#     4  10  18  32  57  95 124 152 207 266 311 361
#
# _framework density 25.516342000000002
#
# number of rings (size 3 to 8) (size 9 to 14) (size 15 to 20)
#    0.000    1.333    5.000    2.500    4.667    0.000 
#    0.000    1.667    3.667    0.000    0.000    5.833 
#    0.000    0.000    0.000    0.000    0.000    0.000 
#
# Total GULP energy -297479.268205 kJ/mol
# GULP energy per Si atom -12394.969509 kJ/mol
# Density = 2.545827 g / cm^3
# Si number density = 25.516342 Si / 1000 Ang^3
#
#
#
# Elastic Constant Matrix: (Units=GPa)
#
#
# Indices 1 2 3 4 5 6 
#
# 1 174.1755 53.7370 27.1262 0.0000 0.0000 0.7720
# 2 53.7370 174.1755 27.1262 0.0000 0.0000 -0.7720
# 3 27.1262 27.1262 40.3351 0.0000 0.0000 0.0000
# 4 0.0000 0.0000 0.0000 8.5026 0.0000 0.0000
# 5 0.0000 0.0000 0.0000 0.0000 8.5026 0.0000
# 6 0.7720 -0.7720 0.0000 0.0000 0.0000 11.6712
#
#
#
# Elastic Compliance Matrix: (Units=1/GPa)
#
#
# Indices 1 2 3 4 5 6 
#
# 1 0.006767 -0.001543 -0.003513 0.000000 0.000000 -0.000550
# 2 -0.001543 0.006767 -0.003513 0.000000 0.000000 0.000550
# 3 -0.003513 -0.003513 0.029518 0.000000 0.000000 0.000000
# 4 0.000000 0.000000 0.000000 0.117611 0.000000 0.000000
# 5 0.000000 0.000000 0.000000 0.000000 0.117611 0.000000
# 6 -0.000550 0.000550 0.000000 0.000000 0.000000 0.085754
#
#
# Mechanical properties :
#
#
# Convention : Reuss Voigt Hill
#
# Bulk Modulus (GPa) = 38.59106 67.18501 52.88804
# Shear Modulus (GPa) = 12.82696 24.44840 18.63768
#
# Velocity S-wave (km/s) = 2.24452 3.09875 2.70556
# Velocity P-wave (km/s) = 4.67697 6.26022 5.52560
#
# Compressibility (1/GPa) = 0.02591274
#
# Stress axis : x y z
#
# Youngs Moduli (GPa) = 147.77628 147.77628 33.87797
#
# Poissons Ratio (x) = 0.22803 0.11902
# Poissons Ratio (y) = 0.22803 0.11902
# Poissons Ratio (z) = 0.51917 0.51917
#
# Static dielectric constant tensor:
#      x y z
#    x 4.847110 0.000000 0.000000 
#    y 0.000000 4.847110 0.000000 
#    z 0.000000 0.000000 4.095920 
# 
# 
# High freq. dielectric constant tensor:
#      x y z
#    x 2.029720 0.000000 0.000000 
#    y 0.000000 2.029720 0.000000 
#    z 0.000000 0.000000 1.987840 
# 
# From -- ./inp_files/1010.got.cif
#   From: 2010.03.12/outbox.cif.g09.slc.cpg/sg80_cif.got.tgz:1010.got - 2010.04.08 20:00:04.
