data_PCOD8302394
_publ_section_title
;
Structure prediction by ZEFSAII (Michael W. Deem and Ramdas Pophale) SiO2 
 PCOD8302394
Probable space group: I -4 
;
_chemical_formula_sum "Si O2"
_cell_formula_units_Z 34
_cell_length_a 8.281062
_cell_length_b 8.281062
_cell_length_c 24.128197
_cell_angle_alpha 90.000000
_cell_angle_beta 90.000000
_cell_angle_gamma 90.000000
_cell_volume 1654.614944
_symmetry_space_group_name_H-M "I -4 "
_symmetry_group_IT_number 82
_symmetry_cell_setting 'tetragonal'
loop_
_space_group_symop_operation_xyz
x,y,z
y,-x,-z
-x,-y,z
-y,x,-z
1/2+x,1/2+y,1/2+z
1/2+y,1/2-x,1/2-z
1/2-x,1/2-y,1/2+z
1/2-y,1/2+x,1/2-z
loop_
_atom_site_type_symbol
_atom_site_label
_atom_site_fract_x
_atom_site_fract_y
_atom_site_fract_z
Si Si1 0.092039 0.852985 0.127841
Si Si2 0.500000 0.500000 0.000000
Si Si3 0.549398 0.819217 0.928441
Si Si4 0.637009 0.884188 0.683997
Si Si5 0.222282 0.622301 0.735789
O O1 0.172893 0.742784 0.080498
O O2 0.227690 0.904756 0.172157
O O3 0.945531 0.776927 0.162597
O O4 0.000000 0.000000 0.097428
O O5 0.668892 0.498631 0.033199
O O6 0.472098 0.781433 0.868719
O O7 0.500000 0.000000 0.950898
O O8 0.770406 0.852619 0.730974
O O9 0.500000 0.000000 0.709568
O O10 0.211332 0.449997 0.765760
#
# Coordination Sequence:
#
# PCOD8302394 Si02
#       5
#     8   2   8   8   8
#     4  10  20  38  61  89 134 175 217 270 330 399
#     4  12  24  52  80 100 132 176 228 312 352 402
#     4   9  24  45  67 102 128 171 235 279 354 413
#     4   9  21  38  59  85 130 171 220 267 320 399
#     4  11  23  34  55  98 136 178 225 259 327 397
#
# _framework density 20.548589
#
# number of rings (size 3 to 8) (size 9 to 14) (size 15 to 20)
#    0.000    2.588    2.353    0.000    9.882    0.941 
#    8.471    0.000    0.000    0.000    0.000    0.000 
#    0.000    0.000    0.000    0.000    0.000    0.000 
#
# Total GULP energy -210616.733755 kJ/mol
# GULP energy per Si atom -12389.219633 kJ/mol
# Density = 2.050182 g / cm^3
# Si number density = 20.548589 Si / 1000 Ang^3
#
#
#
# Elastic Constant Matrix: (Units=GPa)
#
#
# Indices 1 2 3 4 5 6 
#
# 1 116.4771 55.4620 40.4262 0.0000 0.0000 -0.9133
# 2 55.4620 116.4771 40.4262 0.0000 0.0000 0.9133
# 3 40.4262 40.4262 68.9845 0.0000 0.0000 0.0000
# 4 0.0000 0.0000 0.0000 132.4178 0.0001 0.0000
# 5 0.0000 0.0000 0.0000 0.0001 132.4178 0.0000
# 6 -0.9133 0.9133 0.0000 0.0000 0.0000 31.3456
#
#
#
# Elastic Compliance Matrix: (Units=1/GPa)
#
#
# Indices 1 2 3 4 5 6 
#
# 1 0.012216 -0.004188 -0.004705 0.000000 0.000000 0.000478
# 2 -0.004188 0.012216 -0.004705 0.000000 0.000000 -0.000478
# 3 -0.004705 -0.004705 0.020010 0.000000 0.000000 0.000000
# 4 0.000000 0.000000 0.000000 0.007552 0.000000 0.000000
# 5 0.000000 0.000000 0.000000 0.000000 0.007552 0.000000
# 6 0.000478 -0.000478 0.000000 0.000000 0.000000 0.031930
#
#
# Mechanical properties :
#
#
# Convention : Reuss Voigt Hill
#
# Bulk Modulus (GPa) = 57.97831 63.84083 60.90957
# Shear Modulus (GPa) = 40.18650 70.27787 55.23218
#
# Velocity S-wave (km/s) = 4.42711 5.85449 5.19010
# Velocity P-wave (km/s) = 7.37624 8.76560 8.10076
#
# Compressibility (1/GPa) = 0.01724783
#
# Stress axis : x y z
#
# Youngs Moduli (GPa) = 81.85966 81.85966 49.97451
#
# Poissons Ratio (x) = 0.34280 0.23512
# Poissons Ratio (y) = 0.34280 0.23512
# Poissons Ratio (z) = 0.38513 0.38513
#
# Static dielectric constant tensor:
#      x y z
#    x 3.442580 0.000000 0.000000 
#    y 0.000000 3.442580 0.000000 
#    z 0.000000 0.000000 3.330500 
# 
# 
# High freq. dielectric constant tensor:
#      x y z
#    x 1.811430 0.000000 0.000000 
#    y 0.000000 1.811430 0.000000 
#    z 0.000000 0.000000 1.768790 
# 
# From -- ./inp_files/2957.got.cif
#   From: 2010.03.12/outbox.cif.g09.slc.cpg/sg82_2_cif.got.tgz:2957.got - 2010.04.08 20:02:50.
