data_PCOD8302181
_publ_section_title
;
Structure prediction by ZEFSAII (Michael W. Deem and Ramdas Pophale) SiO2 
 PCOD8302181
Probable space group: I 41
;
_chemical_formula_sum "Si O2"
_cell_formula_units_Z 52
_cell_length_a 16.991122
_cell_length_b 16.991122
_cell_length_c 9.142579
_cell_angle_alpha 90.000000
_cell_angle_beta 90.000000
_cell_angle_gamma 90.000000
_cell_volume 2639.446346
_symmetry_space_group_name_H-M "I 41"
_symmetry_group_IT_number 80
_symmetry_cell_setting 'tetragonal'
loop_
_space_group_symop_operation_xyz
x,y,z
-y,1/2+x,1/4+z
-x,-y,z
y,1/2-x,1/4+z
1/2+x,1/2+y,1/2+z
1/2-y,x,3/4+z
1/2-x,1/2-y,1/2+z
1/2+y,-x,3/4+z
loop_
_atom_site_type_symbol
_atom_site_label
_atom_site_fract_x
_atom_site_fract_y
_atom_site_fract_z
Si Si1 0.438076 0.849906 0.244150
Si Si2 0.171710 0.400189 0.977413
Si Si3 0.956869 0.725621 0.977296
Si Si4 0.543796 0.298344 0.051567
Si Si5 0.968066 0.832751 0.255705
Si Si6 0.292773 0.311198 0.778192
Si Si7 0.000000 0.500000 0.595668
O O1 0.467842 0.805769 0.389558
O O2 0.434518 0.787639 0.111318
O O3 0.350075 0.878029 0.280139
O O4 0.495744 0.922490 0.199621
O O5 0.219640 0.402917 0.126964
O O6 0.094542 0.350859 0.018100
O O7 0.152898 0.487201 0.914077
O O8 0.226840 0.365125 0.850736
O O9 0.984698 0.777020 0.116472
O O10 0.502911 0.286501 0.894125
O O11 0.876819 0.851769 0.281966
O O12 0.003610 0.921343 0.244522
O O13 0.272677 0.294271 0.610078
#
# Coordination Sequence:
#
# PCOD8302181 Si02
#       7
#     8   8   8   8   8   8   4
#     4  10  22  43  65  87 116 164 208 256 306 379
#     4  11  20  35  55  85 126 167 194 238 304 390
#     4  11  23  34  55  90 124 156 201 252 311 362
#     4  10  21  43  66  84 116 161 215 250 307 371
#     4  11  23  37  59  90 121 161 208 261 299 371
#     4  12  22  33  55  89 126 163 198 245 307 380
#     4  10  22  42  66  86 122 174 210 236 312 388
#
# _framework density 19.701103
#
# number of rings (size 3 to 8) (size 9 to 14) (size 15 to 20)
#    0.000    1.231    3.077    4.615    2.154    0.000 
#    0.000   12.308    0.000    0.923    0.000    0.000 
#    0.000    0.000    0.000    0.000    0.000    0.000 
#
# Total GULP energy -322307.138608 kJ/mol
# GULP energy per Si atom -12396.428408 kJ/mol
# Density = 1.965626 g / cm^3
# Si number density = 19.701103 Si / 1000 Ang^3
#
#
#
# Elastic Constant Matrix: (Units=GPa)
#
#
# Indices 1 2 3 4 5 6 
#
# 1 96.4446 39.9265 40.0349 0.0000 0.0000 -1.0538
# 2 39.9265 96.4446 40.0349 0.0000 0.0000 1.0538
# 3 40.0349 40.0349 88.3817 0.0000 0.0000 0.0000
# 4 0.0000 0.0000 0.0000 27.7397 0.0000 0.0000
# 5 0.0000 0.0000 0.0000 0.0000 27.7397 0.0000
# 6 -1.0538 1.0538 0.0000 0.0000 0.0000 35.4163
#
#
#
# Elastic Compliance Matrix: (Units=1/GPa)
#
#
# Indices 1 2 3 4 5 6 
#
# 1 0.013851 -0.003862 -0.004525 0.000000 0.000000 0.000527
# 2 -0.003862 0.013851 -0.004525 0.000000 0.000000 -0.000527
# 3 -0.004525 -0.004525 0.015414 0.000000 0.000000 0.000000
# 4 0.000000 0.000000 0.000000 0.036049 0.000000 0.000000
# 5 0.000000 0.000000 0.000000 0.000000 0.036049 0.000000
# 6 0.000527 -0.000527 0.000000 0.000000 0.000000 0.028267
#
#
# Mechanical properties :
#
#
# Convention : Reuss Voigt Hill
#
# Bulk Modulus (GPa) = 57.82626 57.91817 57.87222
# Shear Modulus (GPa) = 28.55979 28.93078 28.74529
#
# Velocity S-wave (km/s) = 3.81156 3.83624 3.82392
# Velocity P-wave (km/s) = 6.98471 7.00604 6.99538
#
# Compressibility (1/GPa) = 0.01729318
#
# Stress axis : x y z
#
# Youngs Moduli (GPa) = 72.19443 72.19443 64.87538
#
# Poissons Ratio (x) = 0.27879 0.29357
# Poissons Ratio (y) = 0.27879 0.29357
# Poissons Ratio (z) = 0.32669 0.32669
#
# Static dielectric constant tensor:
#      x y z
#    x 3.576470 0.000000 0.000000 
#    y 0.000000 3.576470 0.000000 
#    z 0.000000 0.000000 3.623340 
# 
# 
# High freq. dielectric constant tensor:
#      x y z
#    x 1.759650 0.000000 0.000000 
#    y 0.000000 1.759650 0.000000 
#    z 0.000000 0.000000 1.764230 
# 
# From -- ./inp_files/712.got.cif
#   From: 2010.03.12/outbox.cif.g09.slc.cpg/sg80_cif.got.tgz:712.got - 2010.04.08 20:00:04.
