data_PCOD8302165
_publ_section_title
;
Structure prediction by ZEFSAII (Michael W. Deem and Ramdas Pophale) SiO2 
 PCOD8302165
Probable space group: I 41
;
_chemical_formula_sum "Si O2"
_cell_formula_units_Z 56
_cell_length_a 13.577310
_cell_length_b 13.577310
_cell_length_c 15.051448
_cell_angle_alpha 90.000000
_cell_angle_beta 90.000000
_cell_angle_gamma 90.000000
_cell_volume 2774.634299
_symmetry_space_group_name_H-M "I 41"
_symmetry_group_IT_number 80
_symmetry_cell_setting 'tetragonal'
loop_
_space_group_symop_operation_xyz
x,y,z
-y,1/2+x,1/4+z
-x,-y,z
y,1/2-x,1/4+z
1/2+x,1/2+y,1/2+z
1/2-y,x,3/4+z
1/2-x,1/2-y,1/2+z
1/2+y,-x,3/4+z
loop_
_atom_site_type_symbol
_atom_site_label
_atom_site_fract_x
_atom_site_fract_y
_atom_site_fract_z
Si Si1 0.394469 0.617377 0.372690
Si Si2 0.856242 0.681600 0.533495
Si Si3 0.818400 0.643758 0.348300
Si Si4 0.892732 0.601391 0.713715
Si Si5 0.882623 0.105531 0.509106
Si Si6 0.601391 0.892732 0.668081
Si Si7 0.678577 0.178577 0.440898
O O1 0.512025 0.631423 0.360701
O O2 0.375071 0.516167 0.425661
O O3 0.340228 0.706054 0.423440
O O4 0.351622 0.610767 0.273691
O O5 0.877485 0.622515 0.440898
O O6 0.750000 0.648015 0.565898
O O7 0.922328 0.646511 0.616238
O O8 0.854086 0.798256 0.513467
O O9 0.701744 0.645914 0.368329
O O10 0.853488 0.577672 0.265557
O O11 0.875071 0.483833 0.706135
O O12 0.987974 0.631423 0.771094
O O13 0.793946 0.159772 0.458356
O O14 0.889233 0.148378 0.608104
#
# Coordination Sequence:
#
# PCOD8302165 Si02
#       7
#     8   8   8   8   8   8   8
#     4  10  22  39  60  86 119 156 206 242 302 358
#     4   9  19  36  57  87 118 151 190 241 305 347
#     4   9  19  36  57  87 118 151 190 241 305 347
#     4  10  20  37  61  89 121 154 197 254 294 367
#     4  10  22  39  60  86 119 156 206 242 302 358
#     4  10  20  37  61  89 121 154 197 254 294 367
#     4  10  22  41  58  86 119 162 202 250 302 355
#
# _framework density 20.182839999999999
#
# number of rings (size 3 to 8) (size 9 to 14) (size 15 to 20)
#    0.000    2.286    0.000    1.714    4.000    2.286 
#   20.571    2.857    0.000    0.000    0.000    0.000 
#    0.000    0.000    0.000    0.000    0.000    0.000 
#
# Total GULP energy -346933.292386 kJ/mol
# GULP energy per Si atom -12390.474728 kJ/mol
# Density = 2.013690 g / cm^3
# Si number density = 20.182840 Si / 1000 Ang^3
#
#
#
# Elastic Constant Matrix: (Units=GPa)
#
#
# Indices 1 2 3 4 5 6 
#
# 1 83.9237 15.5417 47.6554 0.0000 0.0000 0.0000
# 2 15.5417 83.9237 47.6554 0.0000 0.0000 0.0000
# 3 47.6554 47.6554 164.3762 0.0000 0.0000 0.0000
# 4 0.0000 0.0000 0.0000 23.9789 0.0000 0.0000
# 5 0.0000 0.0000 0.0000 0.0000 23.9789 0.0000
# 6 0.0000 0.0000 0.0000 0.0000 0.0000 30.5257
#
#
#
# Elastic Compliance Matrix: (Units=1/GPa)
#
#
# Indices 1 2 3 4 5 6 
#
# 1 0.014272 -0.000351 -0.004036 0.000000 0.000000 0.000000
# 2 -0.000351 0.014272 -0.004036 0.000000 0.000000 0.000000
# 3 -0.004036 -0.004036 0.008424 0.000000 0.000000 0.000000
# 4 0.000000 0.000000 0.000000 0.041703 0.000000 0.000000
# 5 0.000000 0.000000 0.000000 0.000000 0.041703 0.000000
# 6 0.000000 0.000000 0.000000 0.000000 0.000000 0.032759
#
#
# Mechanical properties :
#
#
# Convention : Reuss Voigt Hill
#
# Bulk Modulus (GPa) = 49.69641 61.54764 55.62203
# Shear Modulus (GPa) = 28.29837 30.45476 29.37657
#
# Velocity S-wave (km/s) = 3.74853 3.88873 3.81927
# Velocity P-wave (km/s) = 6.58876 7.12209 6.86061
#
# Compressibility (1/GPa) = 0.02012218
#
# Stress axis : x y z
#
# Youngs Moduli (GPa) = 70.06517 70.06517 118.71134
#
# Poissons Ratio (x) = 0.02461 0.47912
# Poissons Ratio (y) = 0.02461 0.47912
# Poissons Ratio (z) = 0.28278 0.28278
#
# Static dielectric constant tensor:
#      x y z
#    x 3.596570 0.000000 0.000000 
#    y 0.000000 3.596570 0.000000 
#    z 0.000000 0.000000 4.286710 
# 
# 
# High freq. dielectric constant tensor:
#      x y z
#    x 1.780910 0.000000 0.000000 
#    y 0.000000 1.780910 0.000000 
#    z 0.000000 0.000000 1.794810 
# 
# From -- ./inp_files/1337.got.cif
#   From: 2010.03.12/outbox.cif.g09.slc.cpg/sg80_cif.got.tgz:1337.got - 2010.04.08 20:00:04.
