data_PCOD8302186
_publ_section_title
;
Structure prediction by ZEFSAII (Michael W. Deem and Ramdas Pophale) SiO2 
 PCOD8302186
Probable space group: I 41
;
_chemical_formula_sum "Si O2"
_cell_formula_units_Z 48
_cell_length_a 12.488737
_cell_length_b 12.488737
_cell_length_c 14.166839
_cell_angle_alpha 90.000000
_cell_angle_beta 90.000000
_cell_angle_gamma 90.000000
_cell_volume 2209.581363
_symmetry_space_group_name_H-M "I 41"
_symmetry_group_IT_number 80
_symmetry_cell_setting 'tetragonal'
loop_
_space_group_symop_operation_xyz
x,y,z
-y,1/2+x,1/4+z
-x,-y,z
y,1/2-x,1/4+z
1/2+x,1/2+y,1/2+z
1/2-y,x,3/4+z
1/2-x,1/2-y,1/2+z
1/2+y,-x,3/4+z
loop_
_atom_site_type_symbol
_atom_site_label
_atom_site_fract_x
_atom_site_fract_y
_atom_site_fract_z
Si Si1 0.000000 0.000000 0.868760
Si Si2 0.708596 0.560627 0.295673
Si Si3 0.939373 0.791403 0.432150
Si Si4 0.750000 0.840034 0.988912
Si Si5 0.874008 0.348128 0.468841
Si Si6 0.651872 0.125992 0.758982
Si Si7 0.500000 0.000000 0.109063
O O1 0.080037 0.930892 0.932971
O O2 0.920922 0.930557 0.801871
O O3 0.761157 0.648261 0.226481
O O4 0.758789 0.581881 0.399717
O O5 0.738911 0.443526 0.255342
O O6 0.918119 0.741211 0.328107
O O7 0.851739 0.738842 0.501342
O O8 0.056474 0.761089 0.472481
O O9 0.930557 0.920922 0.425952
O O10 0.893389 0.393389 0.363912
O O11 0.750000 0.320645 0.488912
O O12 0.919963 0.430892 0.544852
#
# Coordination Sequence:
#
# PCOD8302186 Si02
#       7
#     4   8   8   8   8   8   4
#     4  12  23  40  66  95 130 174 214 278 333 382
#     4  11  22  41  64  96 129 171 220 274 331 387
#     4  11  22  41  64  96 129 171 220 274 331 387
#     4  10  22  40  70  96 128 170 232 278 318 394
#     4  12  24  39  63  99 133 166 215 273 330 390
#     4  12  24  39  63  99 133 166 215 273 330 390
#     4  12  23  40  66  95 130 174 214 278 333 382
#
# _framework density 21.723572999999998
#
# number of rings (size 3 to 8) (size 9 to 14) (size 15 to 20)
#    0.000    0.667    6.667    2.500    4.667    0.000 
#    3.000    0.000    0.000    0.000    0.000    0.000 
#    0.000    0.000    0.000    0.000    0.000    0.000 
#
# Total GULP energy -297451.737384 kJ/mol
# GULP energy per Si atom -12393.822391 kJ/mol
# Density = 2.167413 g / cm^3
# Si number density = 21.723573 Si / 1000 Ang^3
#
#
#
# Elastic Constant Matrix: (Units=GPa)
#
#
# Indices 1 2 3 4 5 6 
#
# 1 156.8892 64.8271 20.4547 0.0000 0.0000 0.0000
# 2 64.8271 156.8892 20.4547 0.0000 0.0000 0.0000
# 3 20.4547 20.4547 37.4069 0.0000 0.0000 0.0000
# 4 0.0000 0.0000 0.0000 25.1852 0.0000 0.0000
# 5 0.0000 0.0000 0.0000 0.0000 25.1852 0.0000
# 6 0.0000 0.0000 0.0000 0.0000 0.0000 40.5508
#
#
#
# Elastic Compliance Matrix: (Units=1/GPa)
#
#
# Indices 1 2 3 4 5 6 
#
# 1 0.007939 -0.002923 -0.002743 0.000000 0.000000 0.000000
# 2 -0.002923 0.007939 -0.002743 0.000000 0.000000 0.000000
# 3 -0.002743 -0.002743 0.029733 0.000000 0.000000 0.000000
# 4 0.000000 0.000000 0.000000 0.039706 0.000000 0.000000
# 5 0.000000 0.000000 0.000000 0.000000 0.039706 0.000000
# 6 0.000000 0.000000 0.000000 0.000000 0.000000 0.024660
#
#
# Mechanical properties :
#
#
# Convention : Reuss Voigt Hill
#
# Bulk Modulus (GPa) = 34.73004 62.51759 48.62382
# Shear Modulus (GPa) = 28.39301 34.54747 31.47024
#
# Velocity S-wave (km/s) = 3.61919 3.99221 3.81027
# Velocity P-wave (km/s) = 5.78677 7.07753 6.46445
#
# Compressibility (1/GPa) = 0.02879352
#
# Stress axis : x y z
#
# Youngs Moduli (GPa) = 125.95549 125.95549 33.63275
#
# Poissons Ratio (x) = 0.36816 0.09226
# Poissons Ratio (y) = 0.36816 0.09226
# Poissons Ratio (z) = 0.34550 0.34550
#
# Static dielectric constant tensor:
#      x y z
#    x 4.095540 0.000000 0.000000 
#    y 0.000000 4.095540 0.000000 
#    z 0.000000 0.000000 3.770780 
# 
# 
# High freq. dielectric constant tensor:
#      x y z
#    x 1.855230 0.000000 0.000000 
#    y 0.000000 1.855230 0.000000 
#    z 0.000000 0.000000 1.820430 
# 
# From -- ./inp_files/1546.got.cif
#   From: 2010.03.12/outbox.cif.g09.slc.cpg/sg80_cif.got.tgz:1546.got - 2010.04.08 20:00:04.
