data_PCOD8302398
_publ_section_title
;
Structure prediction by ZEFSAII (Michael W. Deem and Ramdas Pophale) SiO2 
 PCOD8302398
Probable space group: I -4 
;
_chemical_formula_sum "Si O2"
_cell_formula_units_Z 60
_cell_length_a 11.632172
_cell_length_b 11.632172
_cell_length_c 16.387622
_cell_angle_alpha 90.000000
_cell_angle_beta 90.000000
_cell_angle_gamma 90.000000
_cell_volume 2217.366942
_symmetry_space_group_name_H-M "I -4 "
_symmetry_group_IT_number 82
_symmetry_cell_setting 'tetragonal'
loop_
_space_group_symop_operation_xyz
x,y,z
y,-x,-z
-x,-y,z
-y,x,-z
1/2+x,1/2+y,1/2+z
1/2+y,1/2-x,1/2-z
1/2-x,1/2-y,1/2+z
1/2-y,1/2+x,1/2-z
loop_
_atom_site_type_symbol
_atom_site_label
_atom_site_fract_x
_atom_site_fract_y
_atom_site_fract_z
Si Si1 0.613439 0.065567 0.111471
Si Si2 0.243529 0.971710 0.359037
Si Si3 0.710953 0.692889 0.451784
Si Si4 0.500000 0.500000 0.109313
Si Si5 0.993168 0.133744 0.178786
Si Si6 0.753007 0.856524 0.135650
Si Si7 0.464080 0.830821 0.787191
Si Si8 0.964030 0.755240 0.449977
O O1 0.562838 0.162121 0.175827
O O2 0.697923 0.124555 0.044584
O O3 0.500000 0.000000 0.073691
O O4 0.697182 0.979474 0.162111
O O5 0.259348 0.838077 0.335123
O O6 0.276822 0.984242 0.456305
O O7 0.115268 0.011497 0.335350
O O8 0.661853 0.588181 0.397729
O O9 0.732360 0.637061 0.538702
O O10 0.832178 0.744075 0.420297
O O11 0.385608 0.487419 0.054914
O O12 0.124441 0.175761 0.170666
O O13 0.942449 0.199625 0.257407
O O14 0.000000 0.000000 0.195892
O O15 0.367450 0.915171 0.753983
O O16 0.466016 0.827088 0.886368
#
# Coordination Sequence:
#
# PCOD8302398 Si02
#       8
#     8   8   8   4   8   8   8   8
#     4  10  20  39  58  94 134 164 200 260 331 393
#     4  10  22  38  64 100 133 166 210 269 337 397
#     4  11  21  40  63  94 130 169 211 267 329 390
#     4  12  23  38  64 100 132 164 215 280 335 394
#     4  12  25  42  66  94 130 167 219 268 318 387
#     4  10  23  37  64  96 129 171 211 262 334 388
#     4  11  27  49  63  88 125 176 223 264 311 380
#     4  11  23  40  64  91 128 174 220 264 320 386
#
# _framework density 27.05912
#
# number of rings (size 3 to 8) (size 9 to 14) (size 15 to 20)
#    0.000    1.200    4.000    2.000    4.667    1.067 
#    4.800    0.000    0.000    0.000    0.000    0.000 
#    0.000    0.000    0.000    0.000    0.000    0.000 
#
# Total GULP energy -371705.567652 kJ/mol
# GULP energy per Si atom -12390.185588 kJ/mol
# Density = 2.699753 g / cm^3
# Si number density = 27.059120 Si / 1000 Ang^3
#
#
#
# Elastic Constant Matrix: (Units=GPa)
#
#
# Indices 1 2 3 4 5 6 
#
# 1 150.2509 25.3655 3.8107 0.0000 0.0000 0.3556
# 2 25.3655 150.2509 3.8107 0.0000 0.0000 -0.3556
# 3 3.8107 3.8107 50.6822 0.0000 0.0000 0.0000
# 4 0.0000 0.0000 0.0000 15.7254 0.0000 0.0000
# 5 0.0000 0.0000 0.0000 0.0000 15.7254 0.0000
# 6 0.3556 -0.3556 0.0000 0.0000 0.0000 37.4370
#
#
#
# Elastic Compliance Matrix: (Units=1/GPa)
#
#
# Indices 1 2 3 4 5 6 
#
# 1 0.006860 -0.001147 -0.000430 0.000000 0.000000 -0.000076
# 2 -0.001147 0.006860 -0.000430 0.000000 0.000000 0.000076
# 3 -0.000430 -0.000430 0.019795 0.000000 0.000000 0.000000
# 4 0.000000 0.000000 0.000000 0.063591 0.000000 0.000000
# 5 0.000000 0.000000 0.000000 0.000000 0.063591 0.000000
# 6 -0.000076 0.000076 0.000000 0.000000 0.000000 0.026713
#
#
# Mechanical properties :
#
#
# Convention : Reuss Voigt Hill
#
# Bulk Modulus (GPa) = 33.89487 46.35084 40.12285
# Shear Modulus (GPa) = 24.84358 34.99071 29.91714
#
# Velocity S-wave (km/s) = 3.03334 3.59990 3.32870
# Velocity P-wave (km/s) = 4.98213 5.86905 5.44368
#
# Compressibility (1/GPa) = 0.02950299
#
# Stress axis : x y z
#
# Youngs Moduli (GPa) = 145.76577 145.76575 50.51680
#
# Poissons Ratio (x) = 0.16726 0.02170
# Poissons Ratio (y) = 0.16726 0.02170
# Poissons Ratio (z) = 0.06261 0.06261
#
# Static dielectric constant tensor:
#      x y z
#    x 5.325720 0.000000 0.000000 
#    y 0.000000 5.325720 0.000000 
#    z 0.000000 0.000000 4.271820 
# 
# 
# High freq. dielectric constant tensor:
#      x y z
#    x 2.109740 0.000000 0.000000 
#    y 0.000000 2.109740 0.000000 
#    z 0.000000 0.000000 2.049100 
# 
# From -- ./inp_files/3171.got.cif
#   From: 2010.03.12/outbox.cif.g09.slc.cpg/sg82_2_cif.got.tgz:3171.got - 2010.04.08 20:02:50.
