data_PCOD8302072
_publ_section_title
;
Structure prediction by ZEFSAII (Michael W. Deem and Ramdas Pophale) SiO2 
 PCOD8302072
Probable space group: I 4
;
_chemical_formula_sum "Si O2"
_cell_formula_units_Z 48
_cell_length_a 24.682019
_cell_length_b 24.682019
_cell_length_c 5.333451
_cell_angle_alpha 90.000000
_cell_angle_beta 90.000000
_cell_angle_gamma 90.000000
_cell_volume 3249.149346
_symmetry_space_group_name_H-M "I 4"
_symmetry_group_IT_number 79
_symmetry_cell_setting 'tetragonal'
loop_
_space_group_symop_operation_xyz
x,y,z
-y,x,z
-x,-y,z
y,-x,z
1/2+x,1/2+y,1/2+z
1/2-y,1/2+x,1/2+z
1/2-x,1/2-y,1/2+z
1/2+y,1/2-x,1/2+z
loop_
_atom_site_type_symbol
_atom_site_label
_atom_site_fract_x
_atom_site_fract_y
_atom_site_fract_z
Si Si1 0.614170 0.945143 0.271100
Si Si2 0.866980 0.715531 0.271099
Si Si3 0.669708 0.249639 0.271102
Si Si4 0.570041 0.895630 0.771100
Si Si5 0.787501 0.633240 0.771103
Si Si6 0.653270 0.751781 0.271099
O O1 0.580780 0.930095 0.520624
O O2 0.672856 0.917832 0.271094
O O3 0.624747 0.008867 0.271087
O O4 0.580777 0.930091 0.021592
O O5 0.801147 0.711159 0.271104
O O6 0.890821 0.655767 0.271095
O O7 0.883735 0.749916 0.519014
O O8 0.883734 0.749918 0.023187
O O9 0.631672 0.248920 0.518975
O O10 0.703807 0.304194 0.271093
O O11 0.631670 0.248918 0.023236
O O12 0.820944 0.688588 0.771107
#
# Coordination Sequence:
#
# PCOD8302072 Si02
#       6
#     8   8   8   8   8   8
#     4  12  23  37  49  58  75 106 140 188 229 251
#     4  10  16  29  41  60  85  96 121 158 202 258
#     4  10  16  25  46  65  82 100 114 144 210 257
#     4  12  23  37  49  58  75 106 140 188 229 251
#     4  10  16  29  41  60  85  96 121 158 202 258
#     4  10  16  25  46  65  82 100 114 144 210 257
#
# _framework density 14.773099
#
# number of rings (size 3 to 8) (size 9 to 14) (size 15 to 20)
#    0.000    1.333    6.667    6.000    0.000    2.000 
#    0.000    0.000    0.000    0.000    0.000    0.000 
#    0.000    0.000    0.000    0.000    0.000    0.000 
#
# Total GULP energy -297431.628468 kJ/mol
# GULP energy per Si atom -12392.984519 kJ/mol
# Density = 1.473947 g / cm^3
# Si number density = 14.773099 Si / 1000 Ang^3
#
#
#
# Elastic Constant Matrix: (Units=GPa)
#
#
# Indices 1 2 3 4 5 6 
#
# 1 23.8676 22.0998 19.5027 0.0000 0.0000 1.4493
# 2 22.0998 23.8676 19.5027 0.0000 0.0000 -1.4493
# 3 19.5027 19.5027 173.9272 0.0000 0.0000 0.0000
# 4 0.0000 0.0000 0.0000 13.2967 0.0000 0.0000
# 5 0.0000 0.0000 0.0000 0.0000 13.2967 0.0000
# 6 1.4493 -1.4493 0.0000 0.0000 0.0000 6.3796
#
#
#
# Elastic Compliance Matrix: (Units=1/GPa)
#
#
# Indices 1 2 3 4 5 6 
#
# 1 0.462741 -0.438699 -0.002696 0.000000 0.000000 -0.204779
# 2 -0.438699 0.462741 -0.002696 0.000000 0.000000 0.204779
# 3 -0.002696 -0.002696 0.006354 0.000000 0.000000 0.000000
# 4 0.000000 0.000000 0.000000 0.075207 0.000000 0.000000
# 5 0.000000 0.000000 0.000000 0.000000 0.075207 0.000000
# 6 -0.204779 0.204779 0.000000 0.000000 0.000000 0.249788
#
#
# Mechanical properties :
#
#
# Convention : Reuss Voigt Hill
#
# Bulk Modulus (GPa) = 22.90697 38.20810 30.55753
# Shear Modulus (GPa) = 2.23736 17.29840 9.76788
#
# Velocity S-wave (km/s) = 1.23198 3.42561 2.57416
# Velocity P-wave (km/s) = 4.19085 6.44716 5.43733
#
# Compressibility (1/GPa) = 0.04365484
#
# Stress axis : x y z
#
# Youngs Moduli (GPa) = 2.16103 2.16103 157.37831
#
# Poissons Ratio (x) = 0.94804 0.42427
# Poissons Ratio (y) = 0.94804 0.42427
# Poissons Ratio (z) = 0.00583 0.00583
#
# Static dielectric constant tensor:
#      x y z
#    x 2.488490 0.000000 0.000000 
#    y 0.000000 2.488490 0.000000 
#    z 0.000000 0.000000 4.635160 
# 
# 
# High freq. dielectric constant tensor:
#      x y z
#    x 1.514030 0.000000 0.000000 
#    y 0.000000 1.514030 0.000000 
#    z 0.000000 0.000000 1.614380 
# 
# From -- ./inp_files/221.got.cif
#   From: 2010.03.12/outbox.cif.g09.slc.cpg/sg79_cif.got.tgz:221.got - 2010.04.16 16:38:49.
