data_PCOD8302032
_publ_section_title
;
Structure prediction by ZEFSAII (Michael W. Deem and Ramdas Pophale) SiO2 
 PCOD8302032
Probable space group: P 43
;
_chemical_formula_sum "Si O2"
_cell_formula_units_Z 32
_cell_length_a 8.730230
_cell_length_b 8.730230
_cell_length_c 20.312177
_cell_angle_alpha 90.000000
_cell_angle_beta 90.000000
_cell_angle_gamma 90.000000
_cell_volume 1548.131485
_symmetry_space_group_name_H-M "P 43"
_symmetry_group_IT_number 78
_symmetry_cell_setting 'tetragonal'
loop_
_space_group_symop_operation_xyz
x,y,z
-y,x,3/4+z
-x,-y,1/2+z
y,-x,1/4+z
loop_
_atom_site_type_symbol
_atom_site_label
_atom_site_fract_x
_atom_site_fract_y
_atom_site_fract_z
Si Si1 0.757487 0.246770 0.125000
Si Si2 0.087326 0.143514 0.144716
Si Si3 0.656513 0.255546 0.653234
Si Si4 0.566342 0.496600 0.193151
Si Si5 0.911266 0.148516 0.741042
Si Si6 0.244582 0.658136 0.483406
Si Si7 0.439835 0.003222 0.694129
Si Si8 0.754173 0.240164 0.511732
O O1 0.684057 0.407436 0.146504
O O2 0.654342 0.106071 0.146837
O O3 0.928563 0.234858 0.154281
O O4 0.754164 0.233632 0.046524
O O5 0.231817 0.247372 0.168581
O O6 0.084429 0.996323 0.192236
O O7 0.103451 0.102548 0.067736
O O8 0.555955 0.408834 0.650560
O O9 0.765166 0.250817 0.718362
O O10 0.764103 0.241365 0.590262
O O11 0.536346 0.116995 0.648726
O O12 0.463803 0.381693 0.236042
O O13 0.667997 0.604169 0.239548
O O14 0.067959 0.245338 0.732673
O O15 0.088579 0.560717 0.488391
O O16 0.323807 0.090898 0.741124
#
# Coordination Sequence:
#
# PCOD8302032 Si02
#       8
#     4   4   4   4   4   4   4   4
#     4  11  23  42  66  96 134 172 231 279 337 397
#     4  12  23  42  70 102 128 174 231 283 335 404
#     4  11  23  43  65  94 133 179 223 274 339 406
#     4  10  26  42  62 100 136 184 218 272 342 406
#     4  12  23  42  70 102 128 174 231 283 335 404
#     4  11  23  43  65  94 133 179 223 274 339 406
#     4  10  22  40  64  90 132 176 216 282 330 398
#     4  11  23  42  66  96 134 172 231 279 337 397
#
# _framework density 20.670079999999999
#
# number of rings (size 3 to 8) (size 9 to 14) (size 15 to 20)
#    0.000    1.000    5.000    0.750    0.000    9.000 
#    0.000    2.500    0.000    0.000    0.000    0.000 
#    0.000    0.000    0.000    0.000    0.000    0.000 
#
# Total GULP energy -396794.848656 kJ/mol
# GULP energy per Si atom -12399.839021 kJ/mol
# Density = 2.062303 g / cm^3
# Si number density = 20.670080 Si / 1000 Ang^3
#
#
#
# Elastic Constant Matrix: (Units=GPa)
#
#
# Indices 1 2 3 4 5 6 
#
# 1 106.1655 36.3883 34.6058 0.0000 0.0000 5.5381
# 2 36.3883 106.1655 34.6058 0.0000 0.0000 -5.5381
# 3 34.6058 34.6058 123.0282 0.0000 0.0000 0.0000
# 4 0.0000 0.0000 0.0000 23.5930 0.0000 0.0000
# 5 0.0000 0.0000 0.0000 0.0000 23.5930 0.0000
# 6 5.5381 -5.5381 0.0000 0.0000 0.0000 20.9299
#
#
#
# Elastic Compliance Matrix: (Units=1/GPa)
#
#
# Indices 1 2 3 4 5 6 
#
# 1 0.011542 -0.003418 -0.002285 0.000000 0.000000 -0.003958
# 2 -0.003418 0.011542 -0.002285 0.000000 0.000000 0.003958
# 3 -0.002285 -0.002285 0.009414 0.000000 0.000000 0.000000
# 4 0.000000 0.000000 0.000000 0.042385 0.000000 0.000000
# 5 0.000000 0.000000 0.000000 0.000000 0.042385 0.000000
# 6 -0.003958 0.003958 0.000000 0.000000 0.000000 0.049873
#
#
# Mechanical properties :
#
#
# Convention : Reuss Voigt Hill
#
# Bulk Modulus (GPa) = 60.52677 60.72876 60.62776
# Shear Modulus (GPa) = 26.50755 28.94048 27.72401
#
# Velocity S-wave (km/s) = 3.58496 3.74587 3.66630
# Velocity P-wave (km/s) = 6.81776 6.93920 6.87875
#
# Compressibility (1/GPa) = 0.01652162
#
# Stress axis : x y z
#
# Youngs Moduli (GPa) = 86.63973 86.63973 106.22663
#
# Poissons Ratio (x) = 0.29610 0.24276
# Poissons Ratio (y) = 0.29610 0.24276
# Poissons Ratio (z) = 0.19799 0.19799
#
# Static dielectric constant tensor:
#      x y z
#    x 4.025270 0.000000 0.000000 
#    y 0.000000 4.025270 0.000000 
#    z 0.000000 0.000000 3.628030 
# 
# 
# High freq. dielectric constant tensor:
#      x y z
#    x 1.820810 0.000000 0.000000 
#    y 0.000000 1.820810 0.000000 
#    z 0.000000 0.000000 1.800540 
# 
# From -- ./inp_files/1454.got.cif
#   From: 2010.03.12/outbox.cif.g09.slc.cpg/sg78_cif.got.tgz:1454.got - 2010.04.16 16:37:20.
