data_PCOD8302753
_publ_section_title
;
Structure prediction by ZEFSAII (Michael W. Deem and Ramdas Pophale) SiO2 
 PCOD8302753
Probable space group: P 4/M
;
_chemical_formula_sum "Si O2"
_cell_formula_units_Z 40
_cell_length_a 16.895052
_cell_length_b 16.895052
_cell_length_c 7.869763
_cell_angle_alpha 90.000000
_cell_angle_beta 90.000000
_cell_angle_gamma 90.000000
_cell_volume 2246.367045
_symmetry_space_group_name_H-M "P 4/M"
_symmetry_group_IT_number 83
_symmetry_cell_setting 'tetragonal'
loop_
_space_group_symop_operation_xyz
x,y,z
-y,x,z
-x,-y,z
y,-x,z
-x,-y,-z
y,-x,-z
x,y,-z
-y,x,-z
loop_
_atom_site_type_symbol
_atom_site_label
_atom_site_fract_x
_atom_site_fract_y
_atom_site_fract_z
Si Si1 0.164614 0.702834 0.189223
Si Si2 0.296739 0.836166 0.813210
Si Si3 0.777621 0.910894 0.500000
Si Si4 0.404983 0.708087 0.691613
Si Si5 0.089405 0.222445 0.500000
Si Si6 0.708776 0.423474 0.193140
O O1 0.228722 0.771401 0.187607
O O2 0.100140 0.722965 0.332657
O O3 0.209897 0.622110 0.238962
O O4 0.125783 0.696282 0.000000
O O5 0.379156 0.790723 0.778558
O O6 0.277225 0.899598 0.666984
O O7 0.301279 0.877270 0.000000
O O8 0.852528 0.852637 0.500000
O O9 0.810244 0.000126 0.500000
O O10 0.372680 0.708648 0.500000
O O11 0.367257 0.632529 0.784082
O O12 0.499576 0.701307 0.690151
O O13 0.710815 0.452604 0.000000
#
# Coordination Sequence:
#
# PCOD8302753 Si02
#       6
#     8   8   4   8   4   8
#     4   8  17  32  52  74  97 135 178 212 244 292
#     4   9  17  33  53  73 101 136 178 214 246 295
#     4  10  20  33  57  77 112 128 164 200 252 304
#     4  11  20  31  50  76 103 135 178 221 265 306
#     4  10  20  35  53  85 102 138 160 202 250 310
#     4  10  20  33  49  72 103 140 178 217 266 308
#
# _framework density 17.806528
#
# number of rings (size 3 to 8) (size 9 to 14) (size 15 to 20)
#    0.000    2.400    1.000    3.600    5.600    1.400 
#    0.000    2.000    0.000    2.400    0.000    9.800 
#    0.000    0.000    0.000    0.000    0.000    0.000 
#
# Total GULP energy -495871.371103 kJ/mol
# GULP energy per Si atom -12396.784278 kJ/mol
# Density = 1.776600 g / cm^3
# Si number density = 17.806528 Si / 1000 Ang^3
#
#
#
# Elastic Constant Matrix: (Units=GPa)
#
#
# Indices 1 2 3 4 5 6 
#
# 1 65.5854 45.4509 34.5060 0.0000 0.0000 0.2920
# 2 45.4509 65.5854 34.5060 0.0000 0.0000 -0.2920
# 3 34.5060 34.5060 119.6909 0.0000 0.0000 0.0000
# 4 0.0000 0.0000 0.0000 16.8746 0.0000 0.0000
# 5 0.0000 0.0000 0.0000 0.0000 16.8746 0.0000
# 6 0.2920 -0.2920 0.0000 0.0000 0.0000 13.5389
#
#
#
# Elastic Compliance Matrix: (Units=1/GPa)
#
#
# Indices 1 2 3 4 5 6 
#
# 1 0.030335 -0.019363 -0.003163 0.000000 0.000000 -0.001072
# 2 -0.019363 0.030335 -0.003163 0.000000 0.000000 0.001072
# 3 -0.003163 -0.003163 0.010179 0.000000 0.000000 0.000000
# 4 0.000000 0.000000 0.000000 0.059261 0.000000 0.000000
# 5 0.000000 0.000000 0.000000 0.000000 0.059261 0.000000
# 6 -0.001072 0.001072 0.000000 0.000000 0.000000 0.073908
#
#
# Mechanical properties :
#
#
# Convention : Reuss Voigt Hill
#
# Bulk Modulus (GPa) = 51.36069 53.30972 52.33520
# Shear Modulus (GPa) = 15.56931 18.55087 17.06009
#
# Velocity S-wave (km/s) = 2.96016 3.23120 3.09865
# Velocity P-wave (km/s) = 6.37101 6.62753 6.50054
#
# Compressibility (1/GPa) = 0.01947014
#
# Stress axis : x y z
#
# Youngs Moduli (GPa) = 32.96566 32.96566 98.24458
#
# Poissons Ratio (x) = 0.63830 0.31076
# Poissons Ratio (y) = 0.63830 0.31076
# Poissons Ratio (z) = 0.10428 0.10428
#
# Static dielectric constant tensor:
#      x y z
#    x 2.985670 0.000000 0.000000 
#    y 0.000000 2.985670 0.000000 
#    z 0.000000 0.000000 3.772680 
# 
# 
# High freq. dielectric constant tensor:
#      x y z
#    x 1.657660 0.000000 0.000000 
#    y 0.000000 1.657660 0.000000 
#    z 0.000000 0.000000 1.713570 
# 
# From -- ./inp_files/732.got.cif
#   From: 2010.03.12/outbox.cif.g09.slc.cpg/sg83_1_cif.got.tgz:732.got - 2010.04.08 20:05:18.
