data_PCOD8302223
_publ_section_title
;
Structure prediction by ZEFSAII (Michael W. Deem and Ramdas Pophale) SiO2 
 PCOD8302223
Probable space group: I 41
;
_chemical_formula_sum "Si O2"
_cell_formula_units_Z 52
_cell_length_a 20.552664
_cell_length_b 20.552664
_cell_length_c 5.319909
_cell_angle_alpha 90.000000
_cell_angle_beta 90.000000
_cell_angle_gamma 90.000000
_cell_volume 2247.193387
_symmetry_space_group_name_H-M "I 41"
_symmetry_group_IT_number 80
_symmetry_cell_setting 'tetragonal'
loop_
_space_group_symop_operation_xyz
x,y,z
-y,1/2+x,1/4+z
-x,-y,z
y,1/2-x,1/4+z
1/2+x,1/2+y,1/2+z
1/2-y,x,3/4+z
1/2-x,1/2-y,1/2+z
1/2+y,-x,3/4+z
loop_
_atom_site_type_symbol
_atom_site_label
_atom_site_fract_x
_atom_site_fract_y
_atom_site_fract_z
Si Si1 0.108831 0.707788 0.565680
Si Si2 0.058326 0.392049 0.295891
Si Si3 0.820993 0.380725 0.196050
Si Si4 0.242570 0.023167 0.183077
Si Si5 0.817382 0.531192 0.201181
Si Si6 0.553444 0.111689 0.404085
Si Si7 0.000000 0.500000 0.647170
O O1 0.170038 0.669164 0.436576
O O2 0.134229 0.754533 0.792156
O O3 0.052243 0.656761 0.656989
O O4 0.057352 0.744044 0.378743
O O5 0.063642 0.325106 0.448107
O O6 0.122727 0.419453 0.164578
O O7 0.036761 0.448057 0.483773
O O8 0.006807 0.374357 0.080660
O O9 0.835514 0.455912 0.259208
O O10 0.879931 0.361743 0.016926
O O11 0.276482 0.036618 0.447878
O O12 0.279521 0.055493 0.948216
O O13 0.553395 0.035601 0.324772
#
# Coordination Sequence:
#
# PCOD8302223 Si02
#       7
#     8   8   8   8   8   8   4
#     4  11  25  42  72  99 146 197 252 303 380 442
#     4  12  24  43  69 108 151 183 247 307 385 455
#     4  11  25  43  68 106 140 200 246 314 369 443
#     4  11  25  46  69 107 147 196 232 307 374 453
#     4  11  27  43  73 109 147 193 248 297 380 454
#     4  12  23  43  71 103 145 183 243 319 383 441
#     4  12  24  36  68 114 136 184 236 320 388 438
#
# _framework density 23.139976000000001
#
# number of rings (size 3 to 8) (size 9 to 14) (size 15 to 20)
#    0.000    0.615    3.077    5.077   10.769    0.000 
#    0.000    0.000    3.385    3.692    0.000    0.000 
#    0.000    0.000    0.000    0.000    0.000    0.000 
#
# Total GULP energy -322162.354856 kJ/mol
# GULP energy per Si atom -12390.859802 kJ/mol
# Density = 2.308731 g / cm^3
# Si number density = 23.139976 Si / 1000 Ang^3
#
#
#
# Elastic Constant Matrix: (Units=GPa)
#
#
# Indices 1 2 3 4 5 6 
#
# 1 109.7773 70.3772 51.9171 0.0000 0.0000 -10.9603
# 2 70.3772 109.7773 51.9171 0.0000 0.0000 10.9603
# 3 51.9171 51.9171 126.8762 0.0000 0.0000 0.0000
# 4 0.0000 0.0000 0.0000 45.8032 0.0000 0.0000
# 5 0.0000 0.0000 0.0000 0.0000 45.8032 0.0000
# 6 -10.9603 10.9603 0.0000 0.0000 0.0000 23.4892
#
#
#
# Elastic Compliance Matrix: (Units=1/GPa)
#
#
# Indices 1 2 3 4 5 6 
#
# 1 0.020772 -0.013508 -0.002972 0.000000 0.000000 0.015995
# 2 -0.013508 0.020772 -0.002972 0.000000 0.000000 -0.015995
# 3 -0.002972 -0.002972 0.010314 0.000000 0.000000 0.000000
# 4 0.000000 0.000000 0.000000 0.021833 0.000000 0.000000
# 5 0.000000 0.000000 0.000000 0.000000 0.021833 0.000000
# 6 0.015995 -0.015995 0.000000 0.000000 0.000000 0.057500
#
#
# Mechanical properties :
#
#
# Convention : Reuss Voigt Hill
#
# Bulk Modulus (GPa) = 77.20417 77.20599 77.20508
# Shear Modulus (GPa) = 25.47829 34.50039 29.98934
#
# Velocity S-wave (km/s) = 3.32181 3.86546 3.60390
# Velocity P-wave (km/s) = 6.93895 7.30477 7.12420
#
# Compressibility (1/GPa) = 0.01295267
#
# Stress axis : x y z
#
# Youngs Moduli (GPa) = 48.14221 48.14221 96.95316
#
# Poissons Ratio (x) = 0.65030 0.28818
# Poissons Ratio (y) = 0.65030 0.28818
# Poissons Ratio (z) = 0.14310 0.14310
#
# Static dielectric constant tensor:
#      x y z
#    x 4.241030 0.000000 0.000000 
#    y 0.000000 4.241030 0.000000 
#    z 0.000000 0.000000 4.396620 
# 
# 
# High freq. dielectric constant tensor:
#      x y z
#    x 1.900300 0.000000 0.000000 
#    y 0.000000 1.900300 0.000000 
#    z 0.000000 0.000000 1.936470 
# 
# From -- ./inp_files/316.got.cif
#   From: 2010.03.12/outbox.cif.g09.slc.cpg/sg80_cif.got.tgz:316.got - 2010.04.08 20:00:04.
