data_PCOD8302735
_publ_section_title
;
Structure prediction by ZEFSAII (Michael W. Deem and Ramdas Pophale) SiO2 
 PCOD8302735
Probable space group: P 4/M
;
_chemical_formula_sum "Si O2"
_cell_formula_units_Z 64
_cell_length_a 19.086743
_cell_length_b 19.086743
_cell_length_c 9.227544
_cell_angle_alpha 90.000000
_cell_angle_beta 90.000000
_cell_angle_gamma 90.000000
_cell_volume 3361.628960
_symmetry_space_group_name_H-M "P 4/M"
_symmetry_group_IT_number 83
_symmetry_cell_setting 'tetragonal'
loop_
_space_group_symop_operation_xyz
x,y,z
-y,x,z
-x,-y,z
y,-x,z
-x,-y,-z
y,-x,-z
x,y,-z
-y,x,-z
loop_
_atom_site_type_symbol
_atom_site_label
_atom_site_fract_x
_atom_site_fract_y
_atom_site_fract_z
Si Si1 0.703187 0.595108 0.162757
Si Si2 0.808210 0.193636 0.666222
Si Si3 0.082633 0.286313 0.170542
Si Si4 0.154737 0.585541 0.828593
Si Si5 0.662507 0.727804 0.334402
Si Si6 0.273260 0.078207 0.166961
Si Si7 0.510860 0.386800 0.337206
Si Si8 0.864601 0.568966 0.163027
O O1 0.667013 0.652322 0.263752
O O2 0.677018 0.520049 0.224439
O O3 0.785951 0.596502 0.171113
O O4 0.677044 0.606721 0.000000
O O5 0.821740 0.171776 0.500000
O O6 0.770314 0.130194 0.748022
O O7 0.760031 0.261016 0.678317
O O8 0.882078 0.214177 0.739763
O O9 0.091904 0.366242 0.233903
O O10 0.003385 0.263104 0.198204
O O11 0.102249 0.285493 0.000000
O O12 0.226708 0.604654 0.748948
O O13 0.098705 0.646487 0.792505
O O14 0.127381 0.509366 0.767679
O O15 0.170081 0.579141 0.000000
O O16 0.637848 0.720337 0.500000
O O17 0.259649 0.097426 0.000000
O O18 0.575150 0.438829 0.307699
O O19 0.513615 0.357353 0.500000
O O20 0.891912 0.560837 0.000000
#
# Coordination Sequence:
#
# PCOD8302735 Si02
#       8
#     8   8   8   8   8   8   8   8
#     4  11  21  32  49  73  99 131 171 221 275 319
#     4  10  20  35  56  81 111 145 183 226 268 316
#     4  10  19  35  58  84 114 147 185 224 268 322
#     4   9  18  34  53  78 111 143 179 219 268 321
#     4  10  20  34  51  73 100 137 182 225 269 317
#     4   9  19  34  58  86 112 149 186 222 268 321
#     4   9  20  38  53  66  91 128 169 218 277 336
#     4   9  19  33  51  78 111 142 176 224 271 319
#
# _framework density 19.038388999999999
#
# number of rings (size 3 to 8) (size 9 to 14) (size 15 to 20)
#    0.000    2.375    1.250    1.500    1.750    2.500 
#    0.000    4.375    0.000    0.375    0.000    7.000 
#    0.000    0.000    0.000    0.000    0.000    0.000 
#
# Total GULP energy -793186.912822 kJ/mol
# GULP energy per Si atom -12393.545513 kJ/mol
# Density = 1.899506 g / cm^3
# Si number density = 19.038389 Si / 1000 Ang^3
#
#
#
# Elastic Constant Matrix: (Units=GPa)
#
#
# Indices 1 2 3 4 5 6 
#
# 1 81.9610 59.4964 42.6411 0.0000 0.0000 14.2562
# 2 59.4964 81.9610 42.6411 0.0000 0.0000 -14.2562
# 3 42.6411 42.6411 81.1267 0.0000 0.0000 0.0000
# 4 0.0000 0.0000 0.0000 18.6600 0.0000 0.0000
# 5 0.0000 0.0000 0.0000 0.0000 18.6600 0.0000
# 6 14.2562 -14.2562 0.0000 0.0000 0.0000 10.8519
#
#
#
# Elastic Compliance Matrix: (Units=1/GPa)
#
#
# Indices 1 2 3 4 5 6 
#
# 1 -0.028177 0.038525 -0.005439 0.000000 0.000000 0.087627
# 2 0.038525 -0.028177 -0.005439 0.000000 0.000000 -0.087627
# 3 -0.005439 -0.005439 0.018044 0.000000 0.000000 0.000000
# 4 0.000000 0.000000 0.000000 0.053591 0.000000 0.000000
# 5 0.000000 0.000000 0.000000 0.000000 0.053591 0.000000
# 6 0.087627 -0.087627 0.000000 0.000000 0.000000 -0.138081
#
#
# Mechanical properties :
#
#
# Convention : Reuss Voigt Hill
#
# Bulk Modulus (GPa) = 58.87840 59.40068 59.13954
# Shear Modulus (GPa) = -42.07280 16.31906 -12.87687
#
# Velocity S-wave (km/s) = -4.70605 2.93092 -2.60352
# Velocity P-wave (km/s) = 1.20999 6.53620 4.70032
#
# Compressibility (1/GPa) = 0.01698416
#
# Stress axis : x y z
#
# Youngs Moduli (GPa) = -35.49007 -35.49007 55.41908
#
# Poissons Ratio (x) = 1.36727 0.30144
# Poissons Ratio (y) = 1.36727 0.30144
# Poissons Ratio (z) = -0.19304 -0.19304
#
# Static dielectric constant tensor:
#      x y z
#    x 3.429010 0.000000 0.000000 
#    y 0.000000 3.429010 0.000000 
#    z 0.000000 0.000000 3.436410 
# 
# 
# High freq. dielectric constant tensor:
#      x y z
#    x 1.734680 0.000000 0.000000 
#    y 0.000000 1.734680 0.000000 
#    z 0.000000 0.000000 1.722980 
# 
# From -- ./inp_files/1252.got.cif
#   From: 2010.03.12/outbox.cif.g09.slc.cpg/sg83_1_cif.got.tgz:1252.got - 2010.04.08 20:05:18.
