data_PCOD8302711
_publ_section_title
;
Structure prediction by ZEFSAII (Michael W. Deem and Ramdas Pophale) SiO2 
 PCOD8302711
Probable space group: P 4/M
;
_chemical_formula_sum "Si O2"
_cell_formula_units_Z 36
_cell_length_a 14.820120
_cell_length_b 14.820120
_cell_length_c 9.455415
_cell_angle_alpha 90.000000
_cell_angle_beta 90.000000
_cell_angle_gamma 90.000000
_cell_volume 2076.749121
_symmetry_space_group_name_H-M "P 4/M"
_symmetry_group_IT_number 83
_symmetry_cell_setting 'tetragonal'
loop_
_space_group_symop_operation_xyz
x,y,z
-y,x,z
-x,-y,z
y,-x,z
-x,-y,-z
y,-x,-z
x,y,-z
-y,x,-z
loop_
_atom_site_type_symbol
_atom_site_label
_atom_site_fract_x
_atom_site_fract_y
_atom_site_fract_z
Si Si1 0.628118 0.573507 0.500000
Si Si2 0.443799 0.089148 0.663821
Si Si3 0.930429 0.261620 0.166248
Si Si4 0.769019 0.133822 0.834497
Si Si5 0.393693 0.793685 0.656603
O O1 0.533960 0.622133 0.500000
O O2 0.684748 0.601982 0.640032
O O3 0.415288 0.094665 0.500000
O O4 0.353620 0.094036 0.755149
O O5 0.508888 0.171440 0.709999
O O6 0.500000 0.000000 0.699020
O O7 0.860865 0.183349 0.212407
O O8 0.029258 0.225997 0.210878
O O9 0.925236 0.281105 0.000000
O O10 0.684661 0.181543 0.762582
O O11 0.753259 0.143493 0.000000
O O12 0.375727 0.837904 0.500000
#
# Coordination Sequence:
#
# PCOD8302711 Si02
#       5
#     4   8   8   8   8
#     4   9  20  36  55  80 110 141 178 213 263 328
#     4  10  19  33  54  83 108 132 173 223 275 319
#     4  10  22  36  55  78 108 147 181 225 272 322
#     4  10  21  37  53  78 109 142 185 224 270 321
#     4   9  20  33  56  80 105 138 177 219 269 315
#
# _framework density 17.334785
#
# number of rings (size 3 to 8) (size 9 to 14) (size 15 to 20)
#    0.667    1.667    2.222    0.000    3.111    2.667 
#    0.000    2.222    0.000    0.000    0.000    4.667 
#    0.000    0.000    0.000    0.000    0.000    0.000 
#
# Total GULP energy -446227.355429 kJ/mol
# GULP energy per Si atom -12395.204317 kJ/mol
# Density = 1.729533 g / cm^3
# Si number density = 17.334785 Si / 1000 Ang^3
#
#
#
# Elastic Constant Matrix: (Units=GPa)
#
#
# Indices 1 2 3 4 5 6 
#
# 1 120.3140 81.1252 41.1599 0.0000 0.0000 9.5914
# 2 81.1252 120.3140 41.1599 0.0000 0.0000 -9.5914
# 3 41.1599 41.1599 33.3575 0.0000 0.0000 0.0000
# 4 0.0000 0.0000 0.0000 24.3011 0.0000 0.0000
# 5 0.0000 0.0000 0.0000 0.0000 24.3011 0.0000
# 6 9.5914 -9.5914 0.0000 0.0000 0.0000 28.6351
#
#
#
# Elastic Compliance Matrix: (Units=1/GPa)
#
#
# Indices 1 2 3 4 5 6 
#
# 1 0.020268 -0.010254 -0.012356 0.000000 0.000000 -0.010223
# 2 -0.010254 0.020268 -0.012356 0.000000 0.000000 0.010223
# 3 -0.012356 -0.012356 0.060470 0.000000 0.000000 0.000000
# 4 0.000000 0.000000 0.000000 0.041150 0.000000 0.000000
# 5 0.000000 0.000000 0.000000 0.000000 0.041150 0.000000
# 6 -0.010223 0.010223 0.000000 0.000000 0.000000 0.041771
#
#
# Mechanical properties :
#
#
# Convention : Reuss Voigt Hill
#
# Bulk Modulus (GPa) = 32.18134 66.76394 49.47264
# Shear Modulus (GPa) = 16.37379 22.81682 19.59530
#
# Velocity S-wave (km/s) = 3.07671 3.63194 3.36580
# Velocity P-wave (km/s) = 5.58806 7.49574 6.61107
#
# Compressibility (1/GPa) = 0.03107391
#
# Stress axis : x y z
#
# Youngs Moduli (GPa) = 49.33960 49.33960 16.53719
#
# Poissons Ratio (x) = 0.50593 0.20433
# Poissons Ratio (y) = 0.50593 0.20433
# Poissons Ratio (z) = 0.60963 0.60963
#
# Static dielectric constant tensor:
#      x y z
#    x 3.308390 0.000000 0.000000 
#    y 0.000000 3.308390 0.000000 
#    z 0.000000 0.000000 3.037750 
# 
# 
# High freq. dielectric constant tensor:
#      x y z
#    x 1.675840 0.000000 0.000000 
#    y 0.000000 1.675840 0.000000 
#    z 0.000000 0.000000 1.647160 
# 
# From -- ./inp_files/500.got.cif
#   From: 2010.03.12/outbox.cif.g09.slc.cpg/sg83_1_cif.got.tgz:500.got - 2010.04.08 20:05:18.
