data_PCOD8302621
_publ_section_title
;
Structure prediction by ZEFSAII (Michael W. Deem and Ramdas Pophale) SiO2 
 PCOD8302621
Probable space group: P 4/M
;
_chemical_formula_sum "Si O2"
_cell_formula_units_Z 64
_cell_length_a 20.139085
_cell_length_b 20.139085
_cell_length_c 8.997730
_cell_angle_alpha 90.000000
_cell_angle_beta 90.000000
_cell_angle_gamma 90.000000
_cell_volume 3649.324029
_symmetry_space_group_name_H-M "P 4/M"
_symmetry_group_IT_number 83
_symmetry_cell_setting 'tetragonal'
loop_
_space_group_symop_operation_xyz
x,y,z
-y,x,z
-x,-y,z
y,-x,z
-x,-y,-z
y,-x,-z
x,y,-z
-y,x,-z
loop_
_atom_site_type_symbol
_atom_site_label
_atom_site_fract_x
_atom_site_fract_y
_atom_site_fract_z
Si Si1 0.488324 0.854097 0.175198
Si Si2 0.719968 0.157420 0.663436
Si Si3 0.632800 0.906730 0.824016
Si Si4 0.681932 0.347594 0.826054
Si Si5 0.719607 0.801217 0.676514
Si Si6 0.406987 0.541691 0.824899
Si Si7 0.942780 0.636418 0.174099
Si Si8 0.249611 0.407133 0.334063
O O1 0.561627 0.877061 0.225243
O O2 0.433867 0.909896 0.219613
O O3 0.470967 0.786643 0.262576
O O4 0.486050 0.839933 0.000000
O O5 0.740881 0.131887 0.500000
O O6 0.779049 0.205535 0.727278
O O7 0.702543 0.094105 0.764535
O O8 0.653462 0.199300 0.652234
O O9 0.695607 0.869822 0.749047
O O10 0.635798 0.982156 0.766391
O O11 0.640952 0.901647 0.000000
O O12 0.745986 0.332313 0.729751
O O13 0.663635 0.424286 0.788414
O O14 0.616696 0.306609 0.778078
O O15 0.696974 0.335189 0.000000
O O16 0.716849 0.806221 0.500000
O O17 0.412874 0.467765 0.759143
O O18 0.416563 0.542037 0.000000
O O19 0.941391 0.644599 0.000000
O O20 0.276073 0.424805 0.500000
#
# Coordination Sequence:
#
# PCOD8302621 Si02
#       8
#     8   8   8   8   8   8   8   8
#     4   9  17  30  47  67  95 130 164 197 234 278
#     4   8  16  31  48  64  86 119 158 194 225 266
#     4  10  20  32  47  71 101 128 157 195 238 283
#     4  10  18  29  48  69  87 113 150 192 240 289
#     4  10  21  35  48  66  95 127 156 189 230 274
#     4   8  15  28  44  61  79  99 131 181 236 285
#     4   9  17  30  50  73  95 123 160 199 237 278
#     4   9  17  29  44  64  90 120 157 196 231 274
#
# _framework density 17.537493000000001
#
# number of rings (size 3 to 8) (size 9 to 14) (size 15 to 20)
#    0.000    2.875    0.000    2.625    0.000    7.000 
#    0.000    2.500    0.000    6.000    0.000    3.500 
#    0.000    0.500    0.000    5.500    0.000    4.000 
#
# Total GULP energy -792949.409184 kJ/mol
# GULP energy per Si atom -12389.834518 kJ/mol
# Density = 1.749758 g / cm^3
# Si number density = 17.537493 Si / 1000 Ang^3
#
#
#
# Elastic Constant Matrix: (Units=GPa)
#
#
# Indices 1 2 3 4 5 6 
#
# 1 48.1434 38.1276 16.5232 0.0000 0.0000 2.7166
# 2 38.1276 48.1434 16.5232 0.0000 0.0000 -2.7166
# 3 16.5232 16.5232 35.1407 0.0000 0.0000 0.0000
# 4 0.0000 0.0000 0.0000 14.7448 0.0000 0.0000
# 5 0.0000 0.0000 0.0000 0.0000 14.7448 0.0000
# 6 2.7166 -2.7166 0.0000 0.0000 0.0000 24.9417
#
#
#
# Elastic Compliance Matrix: (Units=1/GPa)
#
#
# Indices 1 2 3 4 5 6 
#
# 1 0.060125 -0.045988 -0.006648 0.000000 0.000000 -0.011558
# 2 -0.045988 0.060125 -0.006648 0.000000 0.000000 0.011558
# 3 -0.006648 -0.006648 0.034709 0.000000 0.000000 0.000000
# 4 0.000000 0.000000 0.000000 0.067821 0.000000 0.000000
# 5 0.000000 0.000000 0.000000 0.000000 0.067821 0.000000
# 6 -0.011558 0.011558 0.000000 0.000000 0.000000 0.042611
#
#
# Mechanical properties :
#
#
# Convention : Reuss Voigt Hill
#
# Bulk Modulus (GPa) = 27.47737 30.41951 28.94844
# Shear Modulus (GPa) = 10.77800 14.90314 12.84057
#
# Velocity S-wave (km/s) = 2.48174 2.91827 2.70881
# Velocity P-wave (km/s) = 4.89018 5.36080 5.13089
#
# Compressibility (1/GPa) = 0.03639359
#
# Stress axis : x y z
#
# Youngs Moduli (GPa) = 16.63194 16.63194 28.81138
#
# Poissons Ratio (x) = 0.76486 0.19153
# Poissons Ratio (y) = 0.76486 0.19153
# Poissons Ratio (z) = 0.11056 0.11056
#
# Static dielectric constant tensor:
#      x y z
#    x 3.312380 0.000000 0.000000 
#    y 0.000000 3.312380 0.000000 
#    z 0.000000 0.000000 3.219040 
# 
# 
# High freq. dielectric constant tensor:
#      x y z
#    x 1.657310 0.000000 0.000000 
#    y 0.000000 1.657310 0.000000 
#    z 0.000000 0.000000 1.666420 
# 
# From -- ./inp_files/1311.got.cif
#   From: 2010.03.12/outbox.cif.g09.slc.cpg/sg83_1_cif.got.tgz:1311.got - 2010.04.08 20:05:18.
