data_PCOD8302508
_publ_section_title
;
Structure prediction by ZEFSAII (Michael W. Deem and Ramdas Pophale) SiO2 
 PCOD8302508
Probable space group: I -4 
;
_chemical_formula_sum "Si O2"
_cell_formula_units_Z 40
_cell_length_a 8.822087
_cell_length_b 8.822087
_cell_length_c 23.971866
_cell_angle_alpha 90.000000
_cell_angle_beta 90.000000
_cell_angle_gamma 90.000000
_cell_volume 1865.711610
_symmetry_space_group_name_H-M "I -4 "
_symmetry_group_IT_number 82
_symmetry_cell_setting 'tetragonal'
loop_
_space_group_symop_operation_xyz
x,y,z
y,-x,-z
-x,-y,z
-y,x,-z
1/2+x,1/2+y,1/2+z
1/2+y,1/2-x,1/2-z
1/2-x,1/2-y,1/2+z
1/2-y,1/2+x,1/2-z
loop_
_atom_site_type_symbol
_atom_site_label
_atom_site_fract_x
_atom_site_fract_y
_atom_site_fract_z
Si Si1 0.090499 0.845687 0.737080
Si Si2 0.273137 0.832318 0.333938
Si Si3 0.765641 0.906221 0.936790
Si Si4 0.587008 0.270252 0.437129
Si Si5 0.835066 0.460636 0.160652
O O1 0.123596 0.781622 0.798039
O O2 0.253112 0.858314 0.706991
O O3 0.990532 0.734407 0.698774
O O4 0.000000 0.000000 0.746354
O O5 0.357543 0.856321 0.393062
O O6 0.107577 0.767740 0.348393
O O7 0.628730 0.854208 0.897453
O O8 0.910532 0.800983 0.926696
O O9 0.813113 0.079299 0.925661
O O10 0.709043 0.887210 0.000461
O O11 0.000000 0.500000 0.184909
#
# Coordination Sequence:
#
# PCOD8302508 Si02
#       5
#     8   8   8   8   8
#     4  10  27  43  62  99 132 168 221 272 335 393
#     4  11  24  43  65  89 135 173 213 271 331 393
#     4   9  19  38  65 100 125 162 226 261 321 391
#     4   9  19  38  66  94 132 169 205 277 321 380
#     4  11  23  40  68  93 124 164 224 273 319 396
#
# _framework density 21.439539
#
# number of rings (size 3 to 8) (size 9 to 14) (size 15 to 20)
#    0.000    2.000    2.000    1.200   11.200    0.400 
#    3.600    0.000    0.000    0.000    0.000    0.000 
#    0.000    0.000    0.000    0.000    0.000    0.000 
#
# Total GULP energy -248013.046998 kJ/mol
# GULP energy per Si atom -12400.652350 kJ/mol
# Density = 2.139074 g / cm^3
# Si number density = 21.439539 Si / 1000 Ang^3
#
#
#
# Elastic Constant Matrix: (Units=GPa)
#
#
# Indices 1 2 3 4 5 6 
#
# 1 81.1300 24.7145 49.6879 0.0000 0.0000 5.0217
# 2 24.7145 81.1300 49.6879 0.0000 0.0000 -5.0217
# 3 49.6879 49.6879 132.3307 0.0000 0.0000 0.0000
# 4 0.0000 0.0000 0.0000 28.9165 0.0000 0.0000
# 5 0.0000 0.0000 0.0000 0.0000 28.9165 0.0000
# 6 5.0217 -5.0217 0.0000 0.0000 0.0000 26.4919
#
#
#
# Elastic Compliance Matrix: (Units=1/GPa)
#
#
# Indices 1 2 3 4 5 6 
#
# 1 0.016468 -0.001876 -0.005479 0.000000 0.000000 -0.003477
# 2 -0.001876 0.016468 -0.005479 0.000000 0.000000 0.003477
# 3 -0.005479 -0.005479 0.011671 0.000000 0.000000 0.000000
# 4 0.000000 0.000000 0.000000 0.034582 0.000000 0.000000
# 5 0.000000 0.000000 0.000000 0.000000 0.034582 0.000000
# 6 -0.003477 0.003477 0.000000 0.000000 0.000000 0.039066
#
#
# Mechanical properties :
#
#
# Convention : Reuss Voigt Hill
#
# Bulk Modulus (GPa) = 52.80045 60.30792 56.55418
# Shear Modulus (GPa) = 27.05330 28.23169 27.64249
#
# Velocity S-wave (km/s) = 3.55609 3.63272 3.59461
# Velocity P-wave (km/s) = 6.44532 6.76653 6.60787
#
# Compressibility (1/GPa) = 0.01893923
#
# Stress axis : x y z
#
# Youngs Moduli (GPa) = 60.72255 60.72255 85.67957
#
# Poissons Ratio (x) = 0.11394 0.46944
# Poissons Ratio (y) = 0.11394 0.46944
# Poissons Ratio (z) = 0.33270 0.33270
#
# Static dielectric constant tensor:
#      x y z
#    x 3.798800 0.000000 0.000000 
#    y 0.000000 3.798800 0.000000 
#    z 0.000000 0.000000 3.931730 
# 
# 
# High freq. dielectric constant tensor:
#      x y z
#    x 1.831320 0.000000 0.000000 
#    y 0.000000 1.831320 0.000000 
#    z 0.000000 0.000000 1.852170 
# 
# From -- ./inp_files/3345.got.cif
#   From: 2010.03.12/outbox.cif.g09.slc.cpg/sg82_2_cif.got.tgz:3345.got - 2010.04.08 20:02:50.
