data_PCOD8302889
_publ_section_title
;
Structure prediction by ZEFSAII (Michael W. Deem and Ramdas Pophale) SiO2 
 PCOD8302889
Probable space group: P 4/M
;
_chemical_formula_sum "Si O2"
_cell_formula_units_Z 40
_cell_length_a 15.858991
_cell_length_b 15.858991
_cell_length_c 7.559804
_cell_angle_alpha 90.000000
_cell_angle_beta 90.000000
_cell_angle_gamma 90.000000
_cell_volume 1901.348127
_symmetry_space_group_name_H-M "P 4/M"
_symmetry_group_IT_number 83
_symmetry_cell_setting 'tetragonal'
loop_
_space_group_symop_operation_xyz
x,y,z
-y,x,z
-x,-y,z
y,-x,z
-x,-y,-z
y,-x,-z
x,y,-z
-y,x,-z
loop_
_atom_site_type_symbol
_atom_site_label
_atom_site_fract_x
_atom_site_fract_y
_atom_site_fract_z
Si Si1 0.602213 0.905561 0.000000
Si Si2 0.220012 0.338513 0.707887
Si Si3 0.616903 0.562622 0.709818
Si Si4 0.405735 0.897671 0.000000
Si Si5 0.125226 0.050380 0.791720
Si Si6 0.719550 0.846158 0.303287
O O1 0.642924 0.866144 0.174620
O O2 0.504979 0.881289 0.000000
O O3 0.617536 0.004808 0.000000
O O4 0.201985 0.353945 0.500000
O O5 0.299323 0.392506 0.780319
O O6 0.139577 0.366041 0.820963
O O7 0.237342 0.241346 0.751141
O O8 0.533990 0.612970 0.778253
O O9 0.616578 0.565224 0.500000
O O10 0.209278 0.081673 0.696769
O O11 0.045851 0.107991 0.734324
O O12 0.138951 0.057014 0.000000
O O13 0.680827 0.839769 0.500000
#
# Coordination Sequence:
#
# PCOD8302889 Si02
#       6
#     4   8   8   4   8   8
#     4  11  27  48  64  89 130 172 222 267 311 372
#     4  10  23  41  66  97 126 162 212 264 321 380
#     4   8  15  31  57  89 125 159 191 243 315 379
#     4  11  27  46  68  89 122 180 220 265 315 362
#     4   9  19  36  61  93 129 167 203 254 324 388
#     4  11  24  40  67  97 125 166 210 263 325 379
#
# _framework density 21.037704000000002
#
# number of rings (size 3 to 8) (size 9 to 14) (size 15 to 20)
#    0.000    2.200    1.000    1.800    5.600    2.400 
#    0.000    3.000    0.000    1.200    0.000    0.000 
#    0.000    0.000    0.000    0.000    0.000    0.000 
#
# Total GULP energy -496058.124361 kJ/mol
# GULP energy per Si atom -12401.453109 kJ/mol
# Density = 2.098982 g / cm^3
# Si number density = 21.037704 Si / 1000 Ang^3
#
#
#
# Elastic Constant Matrix: (Units=GPa)
#
#
# Indices 1 2 3 4 5 6 
#
# 1 80.0409 30.8227 49.9065 0.0000 0.0000 0.8662
# 2 30.8227 80.0409 49.9065 0.0000 0.0000 -0.8662
# 3 49.9065 49.9065 103.6985 0.0000 0.0000 0.0000
# 4 0.0000 0.0000 0.0000 14.7019 0.0000 0.0000
# 5 0.0000 0.0000 0.0000 0.0000 14.7019 0.0000
# 6 0.8662 -0.8662 0.0000 0.0000 0.0000 35.8375
#
#
#
# Elastic Compliance Matrix: (Units=1/GPa)
#
#
# Indices 1 2 3 4 5 6 
#
# 1 0.018126 -0.002209 -0.007660 0.000000 0.000000 -0.000491
# 2 -0.002209 0.018126 -0.007660 0.000000 0.000000 0.000491
# 3 -0.007660 -0.007660 0.017016 0.000000 0.000000 0.000000
# 4 0.000000 0.000000 0.000000 0.068019 0.000000 0.000000
# 5 0.000000 0.000000 0.000000 0.000000 0.068019 0.000000
# 6 -0.000491 0.000491 0.000000 0.000000 0.000000 0.027927
#
#
# Mechanical properties :
#
#
# Convention : Reuss Voigt Hill
#
# Bulk Modulus (GPa) = 54.91714 58.33909 56.62812
# Shear Modulus (GPa) = 19.35274 21.92457 20.63865
#
# Velocity S-wave (km/s) = 3.03629 3.23175 3.13554
# Velocity P-wave (km/s) = 6.20104 6.45883 6.33125
#
# Compressibility (1/GPa) = 0.01820925
#
# Stress axis : x y z
#
# Youngs Moduli (GPa) = 55.16985 55.16985 58.76661
#
# Poissons Ratio (x) = 0.12188 0.45016
# Poissons Ratio (y) = 0.12188 0.45016
# Poissons Ratio (z) = 0.42261 0.42261
#
# Static dielectric constant tensor:
#      x y z
#    x 3.918070 0.000000 0.000000 
#    y 0.000000 3.918070 0.000000 
#    z 0.000000 0.000000 3.687120 
# 
# 
# High freq. dielectric constant tensor:
#      x y z
#    x 1.825540 0.000000 0.000000 
#    y 0.000000 1.825540 0.000000 
#    z 0.000000 0.000000 1.817880 
# 
# From -- ./inp_files/748.got.cif
#   From: 2010.03.12/outbox.cif.g09.slc.cpg/sg83_1_cif.got.tgz:748.got - 2010.04.08 20:05:18.
