data_PCOD8302053
_publ_section_title
;
Structure prediction by ZEFSAII (Michael W. Deem and Ramdas Pophale) SiO2 
 PCOD8302053
Probable space group: P 43
;
_chemical_formula_sum "Si O2"
_cell_formula_units_Z 32
_cell_length_a 11.983792
_cell_length_b 11.983792
_cell_length_c 10.832341
_cell_angle_alpha 90.000000
_cell_angle_beta 90.000000
_cell_angle_gamma 90.000000
_cell_volume 1555.646256
_symmetry_space_group_name_H-M "P 43"
_symmetry_group_IT_number 78
_symmetry_cell_setting 'tetragonal'
loop_
_space_group_symop_operation_xyz
x,y,z
-y,x,3/4+z
-x,-y,1/2+z
y,-x,1/4+z
loop_
_atom_site_type_symbol
_atom_site_label
_atom_site_fract_x
_atom_site_fract_y
_atom_site_fract_z
Si Si1 0.799875 0.860191 0.602990
Si Si2 0.207830 0.530783 0.074502
Si Si3 0.272614 0.323121 0.929755
Si Si4 0.000107 0.677093 0.997187
Si Si5 0.959725 0.564169 0.755497
Si Si6 0.979715 0.922797 0.994963
Si Si7 0.232223 0.044528 0.365601
Si Si8 0.065548 0.329638 0.759593
O O1 0.724218 0.763332 0.543782
O O2 0.772374 0.873210 0.748102
O O3 0.925320 0.819846 0.578025
O O4 0.768881 0.975756 0.534478
O O5 0.310688 0.608156 0.114444
O O6 0.157501 0.462110 0.189991
O O7 0.258787 0.449026 0.973579
O O8 0.109835 0.603775 0.015270
O O9 0.175949 0.295409 0.831445
O O10 0.933515 0.637457 0.876316
O O11 0.041190 0.804627 0.986089
O O12 0.915018 0.666102 0.112361
O O13 0.034375 0.639916 0.661844
O O14 0.021908 0.451826 0.800003
O O15 0.846208 0.905469 0.973862
O O16 0.022074 0.000637 0.879786
#
# Coordination Sequence:
#
# PCOD8302053 Si02
#       8
#     4   4   4   4   4   4   4   4
#     4  12  22  38  66  98 134 172 219 265 340 413
#     4  11  25  43  74  93 126 180 229 291 329 404
#     4  12  24  46  72  96 132 176 236 283 343 406
#     4  11  24  40  65  99 134 177 221 274 338 402
#     4  11  21  43  64  97 132 171 227 270 335 396
#     4  12  27  40  59  97 148 187 216 271 338 423
#     4  12  24  38  63  97 136 182 213 276 329 409
#     4  11  25  38  67  99 130 173 221 282 330 413
#
# _framework density 20.570231
#
# number of rings (size 3 to 8) (size 9 to 14) (size 15 to 20)
#    0.000    0.500    8.750    0.000    5.250    0.000 
#    0.000    0.000    5.500    0.000    0.000    0.000 
#    0.000    0.000    0.000    0.000    0.000    0.000 
#
# Total GULP energy -396754.733965 kJ/mol
# GULP energy per Si atom -12398.585436 kJ/mol
# Density = 2.052341 g / cm^3
# Si number density = 20.570231 Si / 1000 Ang^3
#
#
#
# Elastic Constant Matrix: (Units=GPa)
#
#
# Indices 1 2 3 4 5 6 
#
# 1 91.1048 23.9479 42.5083 0.0000 0.0000 -0.9251
# 2 23.9479 91.1048 42.5083 0.0000 0.0000 0.9251
# 3 42.5083 42.5083 124.7047 0.0000 0.0000 0.0000
# 4 0.0000 0.0000 0.0000 31.1485 0.0000 0.0000
# 5 0.0000 0.0000 0.0000 0.0000 31.1485 0.0000
# 6 -0.9251 0.9251 0.0000 0.0000 0.0000 29.0689
#
#
#
# Elastic Compliance Matrix: (Units=1/GPa)
#
#
# Indices 1 2 3 4 5 6 
#
# 1 0.013261 -0.001643 -0.003960 0.000000 0.000000 0.000474
# 2 -0.001643 0.013261 -0.003960 0.000000 0.000000 -0.000474
# 3 -0.003960 -0.003960 0.010719 0.000000 0.000000 0.000000
# 4 0.000000 0.000000 0.000000 0.032104 0.000000 0.000000
# 5 0.000000 0.000000 0.000000 0.000000 0.032104 0.000000
# 6 0.000474 -0.000474 0.000000 0.000000 0.000000 0.034431
#
#
# Mechanical properties :
#
#
# Convention : Reuss Voigt Hill
#
# Bulk Modulus (GPa) = 55.20630 58.31591 56.76110
# Shear Modulus (GPa) = 31.04728 31.46984 31.25856
#
# Velocity S-wave (km/s) = 3.88923 3.91560 3.90244
# Velocity P-wave (km/s) = 6.86034 6.98955 6.92525
#
# Compressibility (1/GPa) = 0.01811387
#
# Stress axis : x y z
#
# Youngs Moduli (GPa) = 75.41025 75.41025 93.29385
#
# Poissons Ratio (x) = 0.12388 0.36947
# Poissons Ratio (y) = 0.12388 0.36947
# Poissons Ratio (z) = 0.29864 0.29864
#
# Static dielectric constant tensor:
#      x y z
#    x 3.737640 0.000000 0.000000 
#    y 0.000000 3.737640 0.000000 
#    z 0.000000 0.000000 3.949580 
# 
# 
# High freq. dielectric constant tensor:
#      x y z
#    x 1.788640 0.000000 0.000000 
#    y 0.000000 1.788640 0.000000 
#    z 0.000000 0.000000 1.820530 
# 
# From -- ./inp_files/1007.got.cif
#   From: 2010.03.12/outbox.cif.g09.slc.cpg/sg78_cif.got.tgz:1007.got - 2010.04.16 16:37:20.
