data_PCOD8302990
_publ_section_title
;
Structure prediction by ZEFSAII (Michael W. Deem and Ramdas Pophale) SiO2 
 PCOD8302990
Probable space group: P 4/M
;
_chemical_formula_sum "Si O2"
_cell_formula_units_Z 48
_cell_length_a 8.431183
_cell_length_b 8.431183
_cell_length_c 31.086303
_cell_angle_alpha 90.000000
_cell_angle_beta 90.000000
_cell_angle_gamma 90.000000
_cell_volume 2209.765086
_symmetry_space_group_name_H-M "P 4/M"
_symmetry_group_IT_number 83
_symmetry_cell_setting 'tetragonal'
loop_
_space_group_symop_operation_xyz
x,y,z
-y,x,z
-x,-y,z
y,-x,z
-x,-y,-z
y,-x,-z
x,y,-z
-y,x,-z
loop_
_atom_site_type_symbol
_atom_site_label
_atom_site_fract_x
_atom_site_fract_y
_atom_site_fract_z
Si Si1 0.890814 0.760533 0.418545
Si Si2 0.238802 0.896094 0.738788
Si Si3 0.748072 0.581613 0.000000
Si Si4 0.389291 0.738978 0.500000
Si Si5 0.604958 0.259869 0.338329
Si Si6 0.580134 0.249999 0.092411
Si Si7 0.089118 0.243641 0.835777
O O1 0.842170 0.652209 0.458483
O O2 0.857476 0.662130 0.375519
O O3 0.077173 0.792748 0.420093
O O4 0.371875 0.828603 0.707110
O O5 0.304216 0.878400 0.787338
O O6 0.079968 0.795934 0.730213
O O7 0.598533 0.695024 0.000000
O O8 0.837954 0.610675 0.954319
O O9 0.292308 0.575973 0.500000
O O10 0.705922 0.419892 0.342428
O O11 0.695948 0.399924 0.096614
O O12 0.617630 0.128880 0.130678
O O13 0.907847 0.199414 0.843585
#
# Coordination Sequence:
#
# PCOD8302990 Si02
#       7
#     8   8   4   4   8   8   8
#     4  11  24  41  62  88 116 149 191 231 268 319
#     4   9  19  37  58  77 100 136 180 219 258 312
#     4   7  12  26  46  67  94 128 164 205 254 305
#     4  11  24  41  62  90 122 153 188 231 276 320
#     4  11  24  39  56  83 116 145 177 221 271 320
#     4   9  17  30  50  74  98 127 167 213 258 307
#     4   9  19  35  52  72 102 137 171 210 258 312
#
# _framework density 21.721765999999999
#
# number of rings (size 3 to 8) (size 9 to 14) (size 15 to 20)
#    0.000    2.333    0.000    4.500    0.000   10.667 
#    0.000    5.833    0.000    4.000    0.000    0.000 
#    0.000    0.000    0.000    0.000    0.000    0.000 
#
# Total GULP energy -595079.408415 kJ/mol
# GULP energy per Si atom -12397.487675 kJ/mol
# Density = 2.167233 g / cm^3
# Si number density = 21.721766 Si / 1000 Ang^3
#
#
#
# Elastic Constant Matrix: (Units=GPa)
#
#
# Indices 1 2 3 4 5 6 
#
# 1 20.7569 -8.4265 11.5868 0.0000 0.0000 -2.5965
# 2 -8.4265 20.7569 11.5868 0.0000 0.0000 2.5965
# 3 11.5868 11.5868 139.4257 0.0000 0.0000 0.0000
# 4 0.0000 0.0000 0.0000 -24.0777 0.0000 0.0000
# 5 0.0000 0.0000 0.0000 0.0000 -24.0777 0.0000
# 6 -2.5965 2.5965 0.0000 0.0000 0.0000 36.0401
#
#
#
# Elastic Compliance Matrix: (Units=1/GPa)
#
#
# Indices 1 2 3 4 5 6 
#
# 1 0.065412 0.030701 -0.007987 0.000000 0.000000 0.002501
# 2 0.030701 0.065412 -0.007987 0.000000 0.000000 -0.002501
# 3 -0.007987 -0.007987 0.008500 0.000000 0.000000 0.000000
# 4 0.000000 0.000000 0.000000 -0.041532 0.000000 0.000000
# 5 0.000000 0.000000 0.000000 0.000000 -0.041532 0.000000
# 6 0.002501 -0.002501 0.000000 0.000000 0.000000 0.028107
#
#
# Mechanical properties :
#
#
# Convention : Reuss Voigt Hill
#
# Bulk Modulus (GPa) = 5.92506 23.38153 14.65329
# Shear Modulus (GPa) = 44.97533 8.65644 26.81589
#
# Velocity S-wave (km/s) = 4.55523 1.99845 3.51738
# Velocity P-wave (km/s) = 5.51366 4.01404 4.82250
#
# Compressibility (1/GPa) = 0.16877478
#
# Stress axis : x y z
#
# Youngs Moduli (GPa) = 15.28782 15.28782 117.64941
#
# Poissons Ratio (x) = -0.46934 0.93970
# Poissons Ratio (y) = -0.46934 0.93970
# Poissons Ratio (z) = 0.12211 0.12211
#
# Static dielectric constant tensor:
#      x y z
#    x 3.711600 0.000000 0.000000 
#    y 0.000000 3.711600 0.000000 
#    z 0.000000 0.000000 4.150980 
# 
# 
# High freq. dielectric constant tensor:
#      x y z
#    x 1.842500 0.000000 0.000000 
#    y 0.000000 1.842500 0.000000 
#    z 0.000000 0.000000 1.870970 
# 
# From -- ./inp_files/3440.got.cif
#   From: 2010.03.12/outbox.cif.g09.slc.cpg/sg83_2_cif.got.tgz:3440.got - 2010.04.08 20:05:18.
