data_PCOD8302509
_publ_section_title
;
Structure prediction by ZEFSAII (Michael W. Deem and Ramdas Pophale) SiO2 
 PCOD8302509
Probable space group: I -4 
;
_chemical_formula_sum "Si O2"
_cell_formula_units_Z 32
_cell_length_a 8.533337
_cell_length_b 8.533337
_cell_length_c 19.297438
_cell_angle_alpha 90.000000
_cell_angle_beta 90.000000
_cell_angle_gamma 90.000000
_cell_volume 1405.197760
_symmetry_space_group_name_H-M "I -4 "
_symmetry_group_IT_number 82
_symmetry_cell_setting 'tetragonal'
loop_
_space_group_symop_operation_xyz
x,y,z
y,-x,-z
-x,-y,z
-y,x,-z
1/2+x,1/2+y,1/2+z
1/2+y,1/2-x,1/2-z
1/2-x,1/2-y,1/2+z
1/2-y,1/2+x,1/2-z
loop_
_atom_site_type_symbol
_atom_site_label
_atom_site_fract_x
_atom_site_fract_y
_atom_site_fract_z
Si Si1 0.905704 0.159187 0.226188
Si Si2 0.171414 0.543143 0.623969
Si Si3 0.676491 0.785108 0.644160
Si Si4 0.758656 0.904033 0.504354
O O1 0.744528 0.151445 0.183550
O O2 0.862060 0.197488 0.304720
O O3 0.013175 0.285744 0.186172
O O4 0.000000 0.000000 0.229273
O O5 0.276863 0.387691 0.616178
O O6 0.164141 0.641154 0.552987
O O7 0.000000 0.500000 0.650373
O O8 0.665954 0.895449 0.576951
O O9 0.915596 0.799506 0.510999
#
# Coordination Sequence:
#
# PCOD8302509 Si02
#       4
#     8   8   8   8
#     4  10  27  46  73 109 143 188 245 311 362 436
#     4  11  25  46  73 104 135 196 242 299 366 432
#     4  11  26  47  72 104 149 189 239 304 368 434
#     4  11  26  45  73 106 146 191 244 300 360 435
#
# _framework density 22.772597999999999
#
# number of rings (size 3 to 8) (size 9 to 14) (size 15 to 20)
#    0.000    1.250    2.500    0.000   17.500    0.500 
#    0.000    0.000    0.000    0.000    0.000    0.000 
#    0.000    0.000    0.000    0.000    0.000    0.000 
#
# Total GULP energy -198435.815700 kJ/mol
# GULP energy per Si atom -12402.238481 kJ/mol
# Density = 2.272077 g / cm^3
# Si number density = 22.772598 Si / 1000 Ang^3
#
#
#
# Elastic Constant Matrix: (Units=GPa)
#
#
# Indices 1 2 3 4 5 6 
#
# 1 89.5371 19.9210 57.4530 0.0000 0.0000 8.6127
# 2 19.9210 89.5371 57.4530 0.0000 0.0000 -8.6127
# 3 57.4530 57.4530 176.3825 0.0000 0.0000 0.0000
# 4 0.0000 0.0000 0.0000 36.8565 0.0000 0.0000
# 5 0.0000 0.0000 0.0000 0.0000 36.8565 0.0000
# 6 8.6127 -8.6127 0.0000 0.0000 0.0000 25.7421
#
#
#
# Elastic Compliance Matrix: (Units=1/GPa)
#
#
# Indices 1 2 3 4 5 6 
#
# 1 0.014772 -0.000889 -0.004522 0.000000 0.000000 -0.005240
# 2 -0.000889 0.014772 -0.004522 0.000000 0.000000 0.005240
# 3 -0.004522 -0.004522 0.008615 0.000000 0.000000 0.000000
# 4 0.000000 0.000000 0.000000 0.027132 0.000000 0.000000
# 5 0.000000 0.000000 0.000000 0.000000 0.027132 0.000000
# 6 -0.005240 0.005240 0.000000 0.000000 0.000000 0.042353
#
#
# Mechanical properties :
#
#
# Convention : Reuss Voigt Hill
#
# Bulk Modulus (GPa) = 54.66518 69.45673 62.06096
# Shear Modulus (GPa) = 31.10588 34.59968 32.85278
#
# Velocity S-wave (km/s) = 3.69986 3.90212 3.80234
# Velocity P-wave (km/s) = 6.50453 7.13221 6.82559
#
# Compressibility (1/GPa) = 0.01829318
#
# Stress axis : x y z
#
# Youngs Moduli (GPa) = 67.69537 67.69537 116.07005
#
# Poissons Ratio (x) = 0.06018 0.52489
# Poissons Ratio (y) = 0.06018 0.52489
# Poissons Ratio (z) = 0.30613 0.30613
#
# Static dielectric constant tensor:
#      x y z
#    x 4.213080 0.000000 0.000000 
#    y 0.000000 4.213080 0.000000 
#    z 0.000000 0.000000 4.091820 
# 
# 
# High freq. dielectric constant tensor:
#      x y z
#    x 1.901100 0.000000 0.000000 
#    y 0.000000 1.901100 0.000000 
#    z 0.000000 0.000000 1.908740 
# 
# From -- ./inp_files/2858.got.cif
#   From: 2010.03.12/outbox.cif.g09.slc.cpg/sg82_2_cif.got.tgz:2858.got - 2010.04.08 20:02:50.
