data_PCOD8302334
_publ_section_title
;
Structure prediction by ZEFSAII (Michael W. Deem and Ramdas Pophale) SiO2 
 PCOD8302334
Probable space group: P -4
;
_chemical_formula_sum "Si O2"
_cell_formula_units_Z 17
_cell_length_a 12.089559
_cell_length_b 12.089559
_cell_length_c 5.002350
_cell_angle_alpha 90.000000
_cell_angle_beta 90.000000
_cell_angle_gamma 90.000000
_cell_volume 731.130654
_symmetry_space_group_name_H-M "P -4"
_symmetry_group_IT_number 81
_symmetry_cell_setting 'tetragonal'
loop_
_space_group_symop_operation_xyz
x,y,z
y,-x,-z
-x,-y,z
-y,x,-z
loop_
_atom_site_type_symbol
_atom_site_label
_atom_site_fract_x
_atom_site_fract_y
_atom_site_fract_z
Si Si1 0.215946 0.115647 0.129996
Si Si2 0.000000 0.000000 0.000000
Si Si3 0.309683 0.236816 0.632506
Si Si4 0.194094 0.435959 0.432046
Si Si5 0.604793 0.063302 0.051481
O O1 0.255888 0.157529 0.414442
O O2 0.087298 0.077591 0.161980
O O3 0.242396 0.208209 0.903437
O O4 0.285015 0.007286 0.055767
O O5 0.294810 0.366156 0.559092
O O6 0.440482 0.223990 0.654336
O O7 0.160076 0.370826 0.162469
O O8 0.099023 0.433883 0.654719
O O9 0.500000 0.000000 0.922576
#
# Coordination Sequence:
#
# PCOD8302334 Si02
#       5
#     4   1   4   4   4
#     4  12  26  44  67  97 136 177 221 268 344 394
#     4  12  28  46  64 102 144 170 204 282 344 410
#     4  12  25  44  67  98 131 176 221 279 327 401
#     4  12  24  42  68  99 132 169 229 274 335 391
#     4  12  22  44  72  96 125 180 230 276 311 405
#
# _framework density 23.251660999999999
#
# number of rings (size 3 to 8) (size 9 to 14) (size 15 to 20)
#    0.000    0.000    4.706    6.353    0.000    3.294 
#    0.000    0.000    0.000    5.647    0.000    0.000 
#    0.000    0.000    0.000    0.000    0.000    0.000 
#
# Total GULP energy -210753.849477 kJ/mol
# GULP energy per Si atom -12397.285263 kJ/mol
# Density = 2.319874 g / cm^3
# Si number density = 23.251661 Si / 1000 Ang^3
#
#
#
# Elastic Constant Matrix: (Units=GPa)
#
#
# Indices 1 2 3 4 5 6 
#
# 1 98.0909 30.5404 22.4925 0.0000 0.0000 12.9986
# 2 30.5404 98.0909 22.4925 0.0000 0.0000 -12.9986
# 3 22.4925 22.4925 118.9930 0.0000 0.0000 0.0000
# 4 0.0000 0.0000 0.0000 29.5941 0.0000 0.0000
# 5 0.0000 0.0000 0.0000 0.0000 29.5941 0.0000
# 6 12.9986 -12.9986 0.0000 0.0000 0.0000 45.6161
#
#
#
# Elastic Compliance Matrix: (Units=1/GPa)
#
#
# Indices 1 2 3 4 5 6 
#
# 1 0.012476 -0.004151 -0.001574 0.000000 0.000000 -0.004738
# 2 -0.004151 0.012476 -0.001574 0.000000 0.000000 0.004738
# 3 -0.001574 -0.001574 0.008999 0.000000 0.000000 0.000000
# 4 0.000000 0.000000 0.000000 0.033791 0.000000 0.000000
# 5 0.000000 0.000000 0.000000 0.000000 0.033791 0.000000
# 6 -0.004738 0.004738 0.000000 0.000000 0.000000 0.024622
#
#
# Mechanical properties :
#
#
# Convention : Reuss Voigt Hill
#
# Bulk Modulus (GPa) = 51.67013 51.80285 51.73649
# Shear Modulus (GPa) = 33.96699 36.93748 35.45223
#
# Velocity S-wave (km/s) = 3.82624 3.99004 3.90900
# Velocity P-wave (km/s) = 6.46456 6.59961 6.53243
#
# Compressibility (1/GPa) = 0.01935354
#
# Stress axis : x y z
#
# Youngs Moduli (GPa) = 80.15511 80.15511 111.12686
#
# Poissons Ratio (x) = 0.33275 0.17486
# Poissons Ratio (y) = 0.33275 0.17486
# Poissons Ratio (z) = 0.12613 0.12613
#
# Static dielectric constant tensor:
#      x y z
#    x 4.274790 0.000000 0.000000 
#    y 0.000000 4.274790 0.000000 
#    z 0.000000 0.000000 4.198620 
# 
# 
# High freq. dielectric constant tensor:
#      x y z
#    x 1.926210 0.000000 0.000000 
#    y 0.000000 1.926210 0.000000 
#    z 0.000000 0.000000 1.926170 
# 
# From -- ./inp_files/187.got.cif
#   From: 2010.03.12/outbox.cif.g09.slc.cpg/sg81_cif.got.tgz:187.got - 2010.04.08 20:01:38.
