data_PCOD8302363
_publ_section_title
;
Structure prediction by ZEFSAII (Michael W. Deem and Ramdas Pophale) SiO2 
 PCOD8302363
Probable space group: I -4 
;
_chemical_formula_sum "Si O2"
_cell_formula_units_Z 26
_cell_length_a 7.788108
_cell_length_b 7.788108
_cell_length_c 20.569275
_cell_angle_alpha 90.000000
_cell_angle_beta 90.000000
_cell_angle_gamma 90.000000
_cell_volume 1247.621687
_symmetry_space_group_name_H-M "I -4 "
_symmetry_group_IT_number 82
_symmetry_cell_setting 'tetragonal'
loop_
_space_group_symop_operation_xyz
x,y,z
y,-x,-z
-x,-y,z
-y,x,-z
1/2+x,1/2+y,1/2+z
1/2+y,1/2-x,1/2-z
1/2-x,1/2-y,1/2+z
1/2-y,1/2+x,1/2-z
loop_
_atom_site_type_symbol
_atom_site_label
_atom_site_fract_x
_atom_site_fract_y
_atom_site_fract_z
Si Si1 0.500000 0.500000 0.000000
Si Si2 0.817827 0.925239 0.822314
Si Si3 0.149350 0.769796 0.321429
Si Si4 0.609272 0.295859 0.118353
O O1 0.341718 0.431389 0.956459
O O2 0.744609 0.842125 0.756061
O O3 0.837756 0.767938 0.874641
O O4 0.707117 0.085196 0.850439
O O5 0.000000 0.000000 0.803893
O O6 0.960634 0.809393 0.346334
O O7 0.265869 0.932521 0.346152
#
# Coordination Sequence:
#
# PCOD8302363 Si02
#       4
#     2   8   8   8
#     4   8  20  44  64  76 120 168 224 246 284 380
#     4  12  20  33  60  96 128 155 198 258 327 371
#     4  10  19  34  57  93 124 156 197 252 314 378
#     4  10  21  38  64  86 117 173 208 242 308 377
#
# _framework density 20.839652999999998
#
# number of rings (size 3 to 8) (size 9 to 14) (size 15 to 20)
#    0.000    1.846    6.154    0.923    0.000    1.231 
#    0.000    3.077   54.154    0.000    0.000    0.000 
#    0.000    0.000    0.000    0.000    0.000    0.000 
#
# Total GULP energy -161051.256743 kJ/mol
# GULP energy per Si atom -12388.558211 kJ/mol
# Density = 2.079222 g / cm^3
# Si number density = 20.839653 Si / 1000 Ang^3
#
#
#
# Elastic Constant Matrix: (Units=GPa)
#
#
# Indices 1 2 3 4 5 6 
#
# 1 87.8480 32.7349 27.5481 0.0000 0.0000 -8.4315
# 2 32.7349 87.8480 27.5481 0.0000 0.0000 8.4315
# 3 27.5481 27.5481 97.4060 0.0000 0.0000 0.0000
# 4 0.0000 0.0000 0.0000 20.3814 0.0000 0.0000
# 5 0.0000 0.0000 0.0000 0.0000 20.3814 0.0000
# 6 -8.4315 8.4315 0.0000 0.0000 0.0000 23.8046
#
#
#
# Elastic Compliance Matrix: (Units=1/GPa)
#
#
# Indices 1 2 3 4 5 6 
#
# 1 0.014937 -0.005413 -0.002693 0.000000 0.000000 0.007208
# 2 -0.005413 0.014937 -0.002693 0.000000 0.000000 -0.007208
# 3 -0.002693 -0.002693 0.011790 0.000000 0.000000 0.000000
# 4 0.000000 0.000000 0.000000 0.049064 0.000000 0.000000
# 5 0.000000 0.000000 0.000000 0.000000 0.049064 0.000000
# 6 0.007208 -0.007208 0.000000 0.000000 0.000000 0.047115
#
#
# Mechanical properties :
#
#
# Convention : Reuss Voigt Hill
#
# Bulk Modulus (GPa) = 49.84199 49.86269 49.85234
# Shear Modulus (GPa) = 23.23481 25.26489 24.24985
#
# Velocity S-wave (km/s) = 3.34268 3.48565 3.41492
# Velocity P-wave (km/s) = 6.23433 6.33865 6.28671
#
# Compressibility (1/GPa) = 0.02006340
#
# Stress axis : x y z
#
# Youngs Moduli (GPa) = 66.94871 66.94872 84.81877
#
# Poissons Ratio (x) = 0.36240 0.22846
# Poissons Ratio (y) = 0.36240 0.22846
# Poissons Ratio (z) = 0.18033 0.18033
#
# Static dielectric constant tensor:
#      x y z
#    x 4.213800 0.000000 0.000000 
#    y 0.000000 4.213800 0.000000 
#    z 0.000000 0.000000 3.538820 
# 
# 
# High freq. dielectric constant tensor:
#      x y z
#    x 1.814110 0.000000 0.000000 
#    y 0.000000 1.814110 0.000000 
#    z 0.000000 0.000000 1.774610 
# 
# From -- ./inp_files/2423.got.cif
#   From: 2010.03.12/outbox.cif.g09.slc.cpg/sg82_2_cif.got.tgz:2423.got - 2010.04.08 20:02:50.
