data_PCOD8302375
_publ_section_title
;
Structure prediction by ZEFSAII (Michael W. Deem and Ramdas Pophale) SiO2 
 PCOD8302375
Probable space group: I -4 
;
_chemical_formula_sum "Si O2"
_cell_formula_units_Z 32
_cell_length_a 8.508963
_cell_length_b 8.508963
_cell_length_c 23.111353
_cell_angle_alpha 90.000000
_cell_angle_beta 90.000000
_cell_angle_gamma 90.000000
_cell_volume 1673.318611
_symmetry_space_group_name_H-M "I -4 "
_symmetry_group_IT_number 82
_symmetry_cell_setting 'tetragonal'
loop_
_space_group_symop_operation_xyz
x,y,z
y,-x,-z
-x,-y,z
-y,x,-z
1/2+x,1/2+y,1/2+z
1/2+y,1/2-x,1/2-z
1/2-x,1/2-y,1/2+z
1/2-y,1/2+x,1/2-z
loop_
_atom_site_type_symbol
_atom_site_label
_atom_site_fract_x
_atom_site_fract_y
_atom_site_fract_z
Si Si1 0.500000 0.000000 0.076388
Si Si2 0.246742 0.783137 0.375107
Si Si3 0.500000 0.500000 0.185205
Si Si4 0.906845 0.234331 0.492696
Si Si5 0.766743 0.414731 0.264115
O O1 0.627632 0.911751 0.116239
O O2 0.402292 0.877507 0.037467
O O3 0.118124 0.908290 0.355510
O O4 0.181074 0.708844 0.434519
O O5 0.268266 0.644538 0.328834
O O6 0.612340 0.394378 0.225544
O O7 0.087140 0.186269 0.479525
O O8 0.814106 0.597475 0.267052
#
# Coordination Sequence:
#
# PCOD8302375 Si02
#       5
#     4   8   4   8   8
#     4  10  20  32  55  84 105 134 180 224 262 310
#     4  10  20  36  56  78 108 143 171 221 271 305
#     4  10  20  36  57  78 105 142 182 212 260 328
#     4   9  18  35  55  78 105 140 182 212 255 324
#     4   9  20  37  56  81 107 139 182 219 261 320
#
# _framework density 19.123674999999999
#
# number of rings (size 3 to 8) (size 9 to 14) (size 15 to 20)
#    0.000    2.500    0.000    3.000    0.000    8.000 
#    0.000    7.500    0.000    6.750    0.000    0.000 
#    0.000    0.000    0.000    0.000    0.000    0.000 
#
# Total GULP energy -198418.775221 kJ/mol
# GULP energy per Si atom -12401.173451 kJ/mol
# Density = 1.908015 g / cm^3
# Si number density = 19.123675 Si / 1000 Ang^3
#
#
#
# Elastic Constant Matrix: (Units=GPa)
#
#
# Indices 1 2 3 4 5 6 
#
# 1 83.9300 20.7924 44.3830 0.0000 0.0000 4.8979
# 2 20.7924 83.9300 44.3830 0.0000 0.0000 -4.8979
# 3 44.3830 44.3830 105.4382 0.0000 0.0000 0.0000
# 4 0.0000 0.0000 0.0000 36.5352 0.0000 0.0000
# 5 0.0000 0.0000 0.0000 0.0000 36.5352 0.0000
# 6 4.8979 -4.8979 0.0000 0.0000 0.0000 19.1653
#
#
#
# Elastic Compliance Matrix: (Units=1/GPa)
#
#
# Indices 1 2 3 4 5 6 
#
# 1 0.015669 -0.000823 -0.006249 0.000000 0.000000 -0.004215
# 2 -0.000823 0.015669 -0.006249 0.000000 0.000000 0.004215
# 3 -0.006249 -0.006249 0.014745 0.000000 0.000000 0.000000
# 4 0.000000 0.000000 0.000000 0.027371 0.000000 0.000000
# 5 0.000000 0.000000 0.000000 0.000000 0.027371 0.000000
# 6 -0.004215 0.004215 0.000000 0.000000 0.000000 0.054332
#
#
# Mechanical properties :
#
#
# Convention : Reuss Voigt Hill
#
# Bulk Modulus (GPa) = 51.43917 54.71280 53.07598
# Shear Modulus (GPa) = 26.55604 29.36313 27.95959
#
# Velocity S-wave (km/s) = 3.73050 3.92271 3.82781
# Velocity P-wave (km/s) = 6.74626 7.01349 6.88117
#
# Compressibility (1/GPa) = 0.01944044
#
# Stress axis : x y z
#
# Youngs Moduli (GPa) = 63.81923 63.81923 67.81774
#
# Poissons Ratio (x) = 0.05253 0.42382
# Poissons Ratio (y) = 0.05253 0.42382
# Poissons Ratio (z) = 0.39883 0.39883
#
# Static dielectric constant tensor:
#      x y z
#    x 3.505430 0.000000 0.000000 
#    y 0.000000 3.505430 0.000000 
#    z 0.000000 0.000000 3.588270 
# 
# 
# High freq. dielectric constant tensor:
#      x y z
#    x 1.737840 0.000000 0.000000 
#    y 0.000000 1.737840 0.000000 
#    z 0.000000 0.000000 1.746580 
# 
# From -- ./inp_files/2892.got.cif
#   From: 2010.03.12/outbox.cif.g09.slc.cpg/sg82_2_cif.got.tgz:2892.got - 2010.04.08 20:02:50.
