data_PCOD8302714
_publ_section_title
;
Structure prediction by ZEFSAII (Michael W. Deem and Ramdas Pophale) SiO2 
 PCOD8302714
Probable space group: P 4/M
;
_chemical_formula_sum "Si O2"
_cell_formula_units_Z 52
_cell_length_a 17.918814
_cell_length_b 17.918814
_cell_length_c 8.129954
_cell_angle_alpha 90.000000
_cell_angle_beta 90.000000
_cell_angle_gamma 90.000000
_cell_volume 2610.397298
_symmetry_space_group_name_H-M "P 4/M"
_symmetry_group_IT_number 83
_symmetry_cell_setting 'tetragonal'
loop_
_space_group_symop_operation_xyz
x,y,z
-y,x,z
-x,-y,z
y,-x,z
-x,-y,-z
y,-x,-z
x,y,-z
-y,x,-z
loop_
_atom_site_type_symbol
_atom_site_label
_atom_site_fract_x
_atom_site_fract_y
_atom_site_fract_z
Si Si1 0.545233 0.069024 0.309930
Si Si2 0.422412 0.774204 0.807283
Si Si3 0.934982 0.103293 0.500000
Si Si4 0.476513 0.616258 0.804299
Si Si5 0.286652 0.974853 0.313419
Si Si6 0.103473 0.801150 0.184973
Si Si7 0.821544 0.735993 0.187734
O O1 0.523604 0.075936 0.500000
O O2 0.529635 0.150890 0.231959
O O3 0.629464 0.047332 0.277770
O O4 0.500000 0.000000 0.228480
O O5 0.459604 0.699148 0.730500
O O6 0.337646 0.782613 0.733671
O O7 0.418819 0.762070 0.000000
O O8 0.912102 0.141035 0.329360
O O9 0.023558 0.102614 0.500000
O O10 0.412694 0.557765 0.743618
O O11 0.476192 0.618724 0.000000
O O12 0.271578 0.999920 0.500000
O O13 0.240707 0.899757 0.273924
O O14 0.266632 0.045049 0.198886
O O15 0.189203 0.770997 0.204764
O O16 0.095508 0.836325 0.000000
O O17 0.839684 0.715874 0.000000
#
# Coordination Sequence:
#
# PCOD8302714 Si02
#       7
#     8   8   4   8   8   8   8
#     4   9  19  36  55  76 108 145 180 221 275 332
#     4   9  17  32  53  80 109 140 183 229 272 327
#     4  11  24  38  54  78 105 138 184 229 273 340
#     4   8  14  27  50  80 113 148 183 222 273 328
#     4  10  19  33  55  76  99 139 182 223 272 334
#     4  11  22  36  54  78 107 140 180 233 285 332
#     4   9  19  33  50  73 105 139 174 224 281 329
#
# _framework density 19.920341000000001
#
# number of rings (size 3 to 8) (size 9 to 14) (size 15 to 20)
#    0.000    2.538    0.769    1.846    1.077    2.769 
#    2.769    0.769    0.000    0.923    0.000    1.077 
#    0.000    0.000    0.000    0.000    0.000    0.000 
#
# Total GULP energy -644217.207238 kJ/mol
# GULP energy per Si atom -12388.792447 kJ/mol
# Density = 1.987500 g / cm^3
# Si number density = 19.920341 Si / 1000 Ang^3
#
#
#
# Elastic Constant Matrix: (Units=GPa)
#
#
# Indices 1 2 3 4 5 6 
#
# 1 116.9864 65.5698 22.8237 0.0000 0.0000 8.5393
# 2 65.5698 116.9864 22.8237 0.0000 0.0000 -8.5393
# 3 22.8237 22.8237 60.7408 0.0000 0.0000 0.0000
# 4 0.0000 0.0000 0.0000 14.1179 0.0000 0.0000
# 5 0.0000 0.0000 0.0000 0.0000 14.1179 0.0000
# 6 8.5393 -8.5393 0.0000 0.0000 0.0000 32.7859
#
#
#
# Elastic Compliance Matrix: (Units=1/GPa)
#
#
# Indices 1 2 3 4 5 6 
#
# 1 0.013668 -0.007623 -0.002272 0.000000 0.000000 -0.005545
# 2 -0.007623 0.013668 -0.002272 0.000000 0.000000 0.005545
# 3 -0.002272 -0.002272 0.018171 0.000000 0.000000 0.000000
# 4 0.000000 0.000000 0.000000 0.070832 0.000000 0.000000
# 5 0.000000 0.000000 0.000000 0.000000 0.070832 0.000000
# 6 -0.005545 0.005545 0.000000 0.000000 0.000000 0.033390
#
#
# Mechanical properties :
#
#
# Convention : Reuss Voigt Hill
#
# Bulk Modulus (GPa) = 47.22489 57.46087 52.34288
# Shear Modulus (GPa) = 19.84510 24.43743 22.14127
#
# Velocity S-wave (km/s) = 3.15972 3.50631 3.33752
# Velocity P-wave (km/s) = 6.08853 6.73054 6.41757
#
# Compressibility (1/GPa) = 0.02117528
#
# Stress axis : x y z
#
# Youngs Moduli (GPa) = 73.16164 73.16164 55.03383
#
# Poissons Ratio (x) = 0.55768 0.12502
# Poissons Ratio (y) = 0.55768 0.12502
# Poissons Ratio (z) = 0.16620 0.16620
#
# Static dielectric constant tensor:
#      x y z
#    x 3.864260 0.000000 0.000000 
#    y 0.000000 3.864260 0.000000 
#    z 0.000000 0.000000 3.419160 
# 
# 
# High freq. dielectric constant tensor:
#      x y z
#    x 1.770720 0.000000 0.000000 
#    y 0.000000 1.770720 0.000000 
#    z 0.000000 0.000000 1.759100 
# 
# From -- ./inp_files/1024.got.cif
#   From: 2010.03.12/outbox.cif.g09.slc.cpg/sg83_1_cif.got.tgz:1024.got - 2010.04.08 20:05:18.
