data_PCOD8302317
_publ_section_title
;
Structure prediction by ZEFSAII (Michael W. Deem and Ramdas Pophale) SiO2 
 PCOD8302317
Probable space group: P -4
;
_chemical_formula_sum "Si O2"
_cell_formula_units_Z 28
_cell_length_a 8.042283
_cell_length_b 8.042283
_cell_length_c 19.573944
_cell_angle_alpha 90.000000
_cell_angle_beta 90.000000
_cell_angle_gamma 90.000000
_cell_volume 1266.009733
_symmetry_space_group_name_H-M "P -4"
_symmetry_group_IT_number 81
_symmetry_cell_setting 'tetragonal'
loop_
_space_group_symop_operation_xyz
x,y,z
y,-x,-z
-x,-y,z
-y,x,-z
loop_
_atom_site_type_symbol
_atom_site_label
_atom_site_fract_x
_atom_site_fract_y
_atom_site_fract_z
Si Si1 0.000000 0.500000 0.743837
Si Si2 0.738348 0.087325 0.367884
Si Si3 0.587439 0.761050 0.853296
Si Si4 0.758454 0.409884 0.000000
Si Si5 0.261651 0.912675 0.632116
Si Si6 0.238950 0.587439 0.853296
Si Si7 0.594708 0.240376 0.500000
Si Si8 0.500000 0.000000 0.743836
O O1 0.883653 0.618554 0.697177
O O2 0.889219 0.379437 0.792039
O O3 0.631691 0.125866 0.434899
O O4 0.895166 0.208498 0.366432
O O5 0.791501 0.895166 0.366432
O O6 0.620670 0.852692 0.927502
O O7 0.395541 0.707099 0.846564
O O8 0.707100 0.604459 0.846564
O O9 0.620563 0.889218 0.792038
O O10 0.599678 0.294107 1.000000
O O11 0.852692 0.379330 0.927503
O O12 0.368304 0.874136 0.565099
O O13 0.381446 0.883653 0.697175
O O14 0.402415 0.289516 0.500001
#
# Coordination Sequence:
#
# PCOD8302317 Si02
#       8
#     2   4   4   4   4   4   4   2
#     4  12  22  34  54  82 114 146 188 232 270 326
#     4  11  24  41  60  83 115 153 186 222 276 336
#     4   9  18  33  53  77 107 144 185 232 283 329
#     4   7  12  27  50  74 102 138 182 230 280 331
#     4  11  24  41  60  83 115 153 186 222 276 336
#     4   9  18  33  53  77 107 144 185 232 283 329
#     4  11  24  43  68  93 112 136 180 233 274 317
#     4  12  22  34  54  82 114 146 188 232 270 326
#
# _framework density 22.116734999999998
#
# number of rings (size 3 to 8) (size 9 to 14) (size 15 to 20)
#    0.000    2.000    0.000    6.000    0.000    3.429 
#    0.000    2.857    0.000    0.000    0.000    0.000 
#    0.000   18.286    0.000    0.000    0.000    0.000 
#
# Total GULP energy -346970.329670 kJ/mol
# GULP energy per Si atom -12391.797488 kJ/mol
# Density = 2.206640 g / cm^3
# Si number density = 22.116735 Si / 1000 Ang^3
#
#
#
# Elastic Constant Matrix: (Units=GPa)
#
#
# Indices 1 2 3 4 5 6 
#
# 1 67.3649 8.0821 41.4440 0.0000 0.0000 6.3542
# 2 8.0821 67.3649 41.4440 0.0000 0.0000 -6.3542
# 3 41.4440 41.4440 212.1775 0.0000 0.0000 0.0000
# 4 0.0000 0.0000 0.0000 10.3056 0.0000 0.0000
# 5 0.0000 0.0000 0.0000 0.0000 10.3056 0.0000
# 6 6.3542 -6.3542 0.0000 0.0000 0.0000 26.2723
#
#
#
# Elastic Compliance Matrix: (Units=1/GPa)
#
#
# Indices 1 2 3 4 5 6 
#
# 1 0.017333 -0.000457 -0.003296 0.000000 0.000000 -0.004303
# 2 -0.000457 0.017333 -0.003296 0.000000 0.000000 0.004303
# 3 -0.003296 -0.003296 0.006001 0.000000 0.000000 0.000000
# 4 0.000000 0.000000 0.000000 0.097035 0.000000 0.000000
# 5 0.000000 0.000000 0.000000 0.000000 0.097035 0.000000
# 6 -0.004303 0.004303 0.000000 0.000000 0.000000 0.040144
#
#
# Mechanical properties :
#
#
# Convention : Reuss Voigt Hill
#
# Bulk Modulus (GPa) = 37.64062 58.76084 48.20073
# Shear Modulus (GPa) = 16.78769 26.43916 21.61343
#
# Velocity S-wave (km/s) = 2.75807 3.46126 3.12948
# Velocity P-wave (km/s) = 5.21523 6.52686 5.90756
#
# Compressibility (1/GPa) = 0.02656705
#
# Stress axis : x y z
#
# Youngs Moduli (GPa) = 57.69272 57.69272 166.64606
#
# Poissons Ratio (x) = 0.02639 0.54931
# Poissons Ratio (y) = 0.02639 0.54931
# Poissons Ratio (z) = 0.19017 0.19017
#
# Static dielectric constant tensor:
#      x y z
#    x 3.683180 0.000000 0.000000 
#    y 0.000000 3.683180 0.000000 
#    z 0.000000 0.000000 4.518650 
# 
# 
# High freq. dielectric constant tensor:
#      x y z
#    x 1.847890 0.000000 0.000000 
#    y 0.000000 1.847890 0.000000 
#    z 0.000000 0.000000 1.899980 
# 
# From -- ./inp_files/1790.got.cif
#   From: 2010.03.12/outbox.cif.g09.slc.cpg/sg81_cif.got.tgz:1790.got - 2010.04.08 20:01:38.
