data_PCOD8302202
_publ_section_title
;
Structure prediction by ZEFSAII (Michael W. Deem and Ramdas Pophale) SiO2 
 PCOD8302202
Probable space group: I 41
;
_chemical_formula_sum "Si O2"
_cell_formula_units_Z 60
_cell_length_a 16.890202
_cell_length_b 16.890202
_cell_length_c 8.918128
_cell_angle_alpha 90.000000
_cell_angle_beta 90.000000
_cell_angle_gamma 90.000000
_cell_volume 2544.153956
_symmetry_space_group_name_H-M "I 41"
_symmetry_group_IT_number 80
_symmetry_cell_setting 'tetragonal'
loop_
_space_group_symop_operation_xyz
x,y,z
-y,1/2+x,1/4+z
-x,-y,z
y,1/2-x,1/4+z
1/2+x,1/2+y,1/2+z
1/2-y,x,3/4+z
1/2-x,1/2-y,1/2+z
1/2+y,-x,3/4+z
loop_
_atom_site_type_symbol
_atom_site_label
_atom_site_fract_x
_atom_site_fract_y
_atom_site_fract_z
Si Si1 0.670685 0.739467 0.642700
Si Si2 0.748057 0.163618 0.277594
Si Si3 0.675696 0.429718 0.265633
Si Si4 0.109249 0.097765 0.780256
Si Si5 0.000000 0.000000 0.343212
Si Si6 0.865586 0.460191 0.822371
Si Si7 0.616910 0.347621 0.549306
Si Si8 0.604086 0.947855 0.857807
O O1 0.691111 0.758348 0.814925
O O2 0.662384 0.821474 0.549642
O O3 0.590729 0.688783 0.646538
O O4 0.771636 0.188514 0.448944
O O5 0.719782 0.069589 0.260370
O O6 0.828854 0.173906 0.187541
O O7 0.649506 0.518530 0.218995
O O8 0.618659 0.374366 0.171546
O O9 0.661624 0.407889 0.438791
O O10 0.766611 0.414548 0.219574
O O11 0.040985 0.132192 0.670627
O O12 0.074640 0.074912 0.942552
O O13 0.930229 0.960507 0.238745
O O14 0.037628 0.932011 0.445911
O O15 0.541644 0.390915 0.618517
#
# Coordination Sequence:
#
# PCOD8302202 Si02
#       8
#     8   8   8   8   4   8   8   8
#     4  10  24  48  76 108 141 186 246 305 381 445
#     4  12  27  47  69 110 156 205 252 310 396 469
#     4  12  24  43  73 106 140 196 243 306 363 462
#     4  11  23  48  77 103 140 197 255 300 369 456
#     4  12  26  44  66 106 146 184 244 318 380 434
#     4  12  27  45  67 106 154 193 253 316 373 452
#     4  12  24  43  74 106 147 193 251 303 376 462
#     4  11  24  46  75 105 142 193 247 314 371 452
#
# _framework density 23.583479000000001
#
# number of rings (size 3 to 8) (size 9 to 14) (size 15 to 20)
#    0.000    0.533    5.333    2.400    1.867    1.067 
#    0.000    4.000    0.000    0.000    0.000    0.000 
#    0.000    0.000    0.000    0.000    0.000    0.000 
#
# Total GULP energy -371791.065192 kJ/mol
# GULP energy per Si atom -12393.035506 kJ/mol
# Density = 2.352980 g / cm^3
# Si number density = 23.583479 Si / 1000 Ang^3
#
#
#
# Elastic Constant Matrix: (Units=GPa)
#
#
# Indices 1 2 3 4 5 6 
#
# 1 84.5168 23.4395 17.0611 0.0000 0.0000 -7.7406
# 2 23.4395 84.5168 17.0611 0.0000 0.0000 7.7406
# 3 17.0611 17.0611 81.2967 0.0000 0.0000 0.0000
# 4 0.0000 0.0000 0.0000 34.4368 0.0000 0.0000
# 5 0.0000 0.0000 0.0000 0.0000 34.4368 0.0000
# 6 -7.7406 7.7406 0.0000 0.0000 0.0000 41.7264
#
#
#
# Elastic Compliance Matrix: (Units=1/GPa)
#
#
# Indices 1 2 3 4 5 6 
#
# 1 0.013551 -0.003630 -0.002082 0.000000 0.000000 0.003187
# 2 -0.003630 0.013551 -0.002082 0.000000 0.000000 -0.003187
# 3 -0.002082 -0.002082 0.013175 0.000000 0.000000 0.000000
# 4 0.000000 0.000000 0.000000 0.029039 0.000000 0.000000
# 5 0.000000 0.000000 0.000000 0.000000 0.029039 0.000000
# 6 0.003187 -0.003187 0.000000 0.000000 0.000000 0.025148
#
#
# Mechanical properties :
#
#
# Convention : Reuss Voigt Hill
#
# Bulk Modulus (GPa) = 40.50478 40.60598 40.55538
# Shear Modulus (GPa) = 33.93997 34.97123 34.45560
#
# Velocity S-wave (km/s) = 3.79772 3.85498 3.82646
# Velocity P-wave (km/s) = 6.03677 6.08850 6.06269
#
# Compressibility (1/GPa) = 0.02468844
#
# Stress axis : x y z
#
# Youngs Moduli (GPa) = 73.79625 73.79625 75.90409
#
# Poissons Ratio (x) = 0.26786 0.15804
# Poissons Ratio (y) = 0.26786 0.15804
# Poissons Ratio (z) = 0.15365 0.15365
#
# Static dielectric constant tensor:
#      x y z
#    x 4.315710 0.000000 0.000000 
#    y 0.000000 4.315710 0.000000 
#    z 0.000000 0.000000 4.323520 
# 
# 
# High freq. dielectric constant tensor:
#      x y z
#    x 1.934100 0.000000 0.000000 
#    y 0.000000 1.934100 0.000000 
#    z 0.000000 0.000000 1.933200 
# 
# From -- ./inp_files/758.got.cif
#   From: 2010.03.12/outbox.cif.g09.slc.cpg/sg80_cif.got.tgz:758.got - 2010.04.08 20:00:04.
