data_PCOD8302353
_publ_section_title
;
Structure prediction by ZEFSAII (Michael W. Deem and Ramdas Pophale) SiO2 
 PCOD8302353
Probable space group: I -4 
;
_chemical_formula_sum "Si O2"
_cell_formula_units_Z 64
_cell_length_a 18.310828
_cell_length_b 18.310828
_cell_length_c 10.346091
_cell_angle_alpha 90.000000
_cell_angle_beta 90.000000
_cell_angle_gamma 90.000000
_cell_volume 3468.903834
_symmetry_space_group_name_H-M "I -4 "
_symmetry_group_IT_number 82
_symmetry_cell_setting 'tetragonal'
loop_
_space_group_symop_operation_xyz
x,y,z
y,-x,-z
-x,-y,z
-y,x,-z
1/2+x,1/2+y,1/2+z
1/2+y,1/2-x,1/2-z
1/2-x,1/2-y,1/2+z
1/2-y,1/2+x,1/2-z
loop_
_atom_site_type_symbol
_atom_site_label
_atom_site_fract_x
_atom_site_fract_y
_atom_site_fract_z
Si Si1 0.742973 0.840820 0.706562
Si Si2 0.869598 0.759829 0.608551
Si Si3 0.286741 0.140135 0.987095
Si Si4 0.355920 0.456824 0.225910
Si Si5 0.773395 0.154130 0.906249
Si Si6 0.117899 0.146036 0.356051
Si Si7 0.153414 0.987755 0.278776
Si Si8 0.296797 0.496366 0.498920
O O1 0.808635 0.780908 0.715511
O O2 0.696550 0.848115 0.837029
O O3 0.782599 0.917116 0.672650
O O4 0.685083 0.809816 0.602164
O O5 0.853941 0.675598 0.567698
O O6 0.856987 0.813433 0.485693
O O7 0.949479 0.771082 0.671651
O O8 0.208515 0.177579 0.011201
O O9 0.275314 0.054419 0.017331
O O10 0.359324 0.530735 0.146590
O O11 0.430059 0.412104 0.196796
O O12 0.347631 0.469467 0.380389
O O13 0.808865 0.148621 0.764448
O O14 0.767922 0.077594 0.978033
O O15 0.145615 0.062379 0.358563
O O16 0.154580 0.007489 0.127568
#
# Coordination Sequence:
#
# PCOD8302353 Si02
#       8
#     8   8   8   8   8   8   8   8
#     4   9  18  34  52  76 102 142 182 226 269 314
#     4  10  22  33  53  74 111 147 182 222 270 327
#     4  10  18  36  55  76 110 139 182 235 272 313
#     4   9  21  34  51  75 112 149 179 221 267 321
#     4  10  18  32  54  78 105 138 180 231 268 319
#     4  11  21  35  49  77 113 147 182 212 269 328
#     4  11  22  35  50  78 112 152 185 215 264 332
#     4  10  19  33  56  79 105 135 189 232 268 314
#
# _framework density 18.449634
#
# number of rings (size 3 to 8) (size 9 to 14) (size 15 to 20)
#    0.000    2.000    2.500    2.625    5.250    0.000 
#    0.000    0.000    0.000    0.000    0.000    0.875 
#    0.000    0.000    0.000    0.000    0.000    0.000 
#
# Total GULP energy -396571.212369 kJ/mol
# GULP energy per Si atom -12392.850387 kJ/mol
# Density = 1.840764 g / cm^3
# Si number density = 18.449634 Si / 1000 Ang^3
#
#
#
# Elastic Constant Matrix: (Units=GPa)
#
#
# Indices 1 2 3 4 5 6 
#
# 1 63.6690 39.7527 2.5804 0.0000 0.0000 -1.9632
# 2 39.7527 63.6690 2.5804 0.0000 0.0000 1.9632
# 3 2.5804 2.5804 26.7397 0.0000 0.0000 0.0000
# 4 0.0000 0.0000 0.0000 23.9632 0.0000 0.0000
# 5 0.0000 0.0000 0.0000 0.0000 23.9632 0.0000
# 6 -1.9632 1.9632 0.0000 0.0000 0.0000 30.1839
#
#
#
# Elastic Compliance Matrix: (Units=1/GPa)
#
#
# Indices 1 2 3 4 5 6 
#
# 1 0.025990 -0.016274 -0.000938 0.000000 0.000000 0.002749
# 2 -0.016274 0.025990 -0.000938 0.000000 0.000000 -0.002749
# 3 -0.000938 -0.000938 0.037579 0.000000 0.000000 0.000000
# 4 0.000000 0.000000 0.000000 0.041731 0.000000 0.000000
# 5 0.000000 0.000000 0.000000 0.000000 0.041731 0.000000
# 6 0.002749 -0.002749 0.000000 0.000000 0.000000 0.033488
#
#
# Mechanical properties :
#
#
# Convention : Reuss Voigt Hill
#
# Bulk Modulus (GPa) = 18.77580 27.10051 22.93815
# Shear Modulus (GPa) = 19.18954 22.89969 21.04462
#
# Velocity S-wave (km/s) = 3.22856 3.52689 3.38102
# Velocity P-wave (km/s) = 4.90887 5.59518 5.26323
#
# Compressibility (1/GPa) = 0.05326006
#
# Stress axis : x y z
#
# Youngs Moduli (GPa) = 38.47666 38.47666 26.61094
#
# Poissons Ratio (x) = 0.62616 0.02495
# Poissons Ratio (y) = 0.62616 0.02495
# Poissons Ratio (z) = 0.03608 0.03608
#
# Static dielectric constant tensor:
#      x y z
#    x 3.381510 0.000000 0.000000 
#    y 0.000000 3.381510 0.000000 
#    z 0.000000 0.000000 3.467620 
# 
# 
# High freq. dielectric constant tensor:
#      x y z
#    x 1.693990 0.000000 0.000000 
#    y 0.000000 1.693990 0.000000 
#    z 0.000000 0.000000 1.723650 
# 
# From -- ./inp_files/1905.got.cif
#   From: 2010.03.12/outbox.cif.g09.slc.cpg/sg82_1_cif.got.tgz:1905.got - 2010.04.08 20:02:50.
