data_PCOD8302156
_publ_section_title
;
Structure prediction by ZEFSAII (Michael W. Deem and Ramdas Pophale) SiO2 
 PCOD8302156
Probable space group: I 41
;
_chemical_formula_sum "Si O2"
_cell_formula_units_Z 56
_cell_length_a 18.945528
_cell_length_b 18.945528
_cell_length_c 8.771973
_cell_angle_alpha 90.000000
_cell_angle_beta 90.000000
_cell_angle_gamma 90.000000
_cell_volume 3148.550858
_symmetry_space_group_name_H-M "I 41"
_symmetry_group_IT_number 80
_symmetry_cell_setting 'tetragonal'
loop_
_space_group_symop_operation_xyz
x,y,z
-y,1/2+x,1/4+z
-x,-y,z
y,1/2-x,1/4+z
1/2+x,1/2+y,1/2+z
1/2-y,x,3/4+z
1/2-x,1/2-y,1/2+z
1/2+y,-x,3/4+z
loop_
_atom_site_type_symbol
_atom_site_label
_atom_site_fract_x
_atom_site_fract_y
_atom_site_fract_z
Si Si1 0.860748 0.032071 0.628010
Si Si2 0.626671 0.621663 0.026205
Si Si3 0.892922 0.246812 0.675849
Si Si4 0.233984 0.182227 0.330107
Si Si5 0.329227 0.629746 0.389181
Si Si6 0.535891 0.368630 0.975886
Si Si7 0.134180 0.833445 0.213746
O O1 0.794358 0.059257 0.532881
O O2 0.852981 0.058829 0.801367
O O3 0.933007 0.061027 0.554145
O O4 0.861580 0.947645 0.627172
O O5 0.650369 0.688800 0.130527
O O6 0.675652 0.622280 0.871183
O O7 0.547557 0.626526 0.966004
O O8 0.843906 0.198058 0.782780
O O9 0.943618 0.199439 0.573933
O O10 0.845841 0.294806 0.563253
O O11 0.208593 0.256182 0.408158
O O12 0.248023 0.629314 0.428450
O O13 0.369271 0.627544 0.550803
O O14 0.566127 0.360770 0.805512
#
# Coordination Sequence:
#
# PCOD8302156 Si02
#       7
#     8   8   8   8   8   8   8
#     4  10  21  35  57  83 113 162 205 233 285 360
#     4  10  19  40  64  80 112 152 189 248 304 350
#     4  10  21  34  54  82 115 166 202 224 279 352
#     4   8  19  38  62  88 109 136 194 252 303 366
#     4  11  22  34  53  87 126 160 200 242 280 339
#     4  10  21  35  57  83 113 162 205 233 285 360
#     4  11  22  34  53  87 126 160 200 242 280 339
#
# _framework density 17.785961
#
# number of rings (size 3 to 8) (size 9 to 14) (size 15 to 20)
#    0.857    1.143    2.857    1.286    2.000    0.000 
#    2.571    0.000    0.000    6.857    0.000    0.000 
#    0.000    0.000    0.000    0.000    0.000    0.000 
#
# Total GULP energy -346875.702201 kJ/mol
# GULP energy per Si atom -12388.417936 kJ/mol
# Density = 1.774548 g / cm^3
# Si number density = 17.785961 Si / 1000 Ang^3
#
#
#
# Elastic Constant Matrix: (Units=GPa)
#
#
# Indices 1 2 3 4 5 6 
#
# 1 1941.8544-1832.5465 20.8943 0.0000 0.0000 341.6060
# 2 -1832.5465 1941.8544 20.8943 0.0000 0.0000 -341.6060
# 3 20.8943 20.8943 102.4234 0.0000 0.0000 0.0000
# 4 0.0000 0.0000 0.0000 7.1792 0.0000 0.0000
# 5 0.0000 0.0000 0.0000 0.0000 7.1792 0.0000
# 6 341.6060 -341.6060 0.0000 0.0000 0.0000 79.9046
#
#
#
# Elastic Compliance Matrix: (Units=1/GPa)
#
#
# Indices 1 2 3 4 5 6 
#
# 1 0.005547 0.004375 -0.002024 0.000000 0.000000 -0.005009
# 2 0.004375 0.005547 -0.002024 0.000000 0.000000 0.005009
# 3 -0.002024 -0.002024 0.010589 0.000000 0.000000 0.000000
# 4 0.000000 0.000000 0.000000 0.139290 0.000000 0.000000
# 5 0.000000 0.000000 0.000000 0.000000 0.139290 0.000000
# 6 -0.005009 0.005009 0.000000 0.000000 0.000000 0.055341
#
#
# Mechanical properties :
#
#
# Convention : Reuss Voigt Hill
#
# Bulk Modulus (GPa) = 44.76818 44.95735 44.86276
# Shear Modulus (GPa) = 13.79704 403.97863 208.88784
#
# Velocity S-wave (km/s) = 2.78821 15.08730 10.84898
# Velocity P-wave (km/s) = 5.96579 18.13377 13.49860
#
# Compressibility (1/GPa) = 0.02233729
#
# Stress axis : x y z
#
# Youngs Moduli (GPa) = 180.27954 180.27954 94.43548
#
# Poissons Ratio (x) = -0.78879 0.19115
# Poissons Ratio (y) = -0.78879 0.19115
# Poissons Ratio (z) = 0.36491 0.36491
#
# Static dielectric constant tensor:
#      x y z
#    x 3.255120 0.000000 0.000000 
#    y 0.000000 3.255120 0.000000 
#    z 0.000000 0.000000 3.730180 
# 
# 
# High freq. dielectric constant tensor:
#      x y z
#    x 1.682650 0.000000 0.000000 
#    y 0.000000 1.682650 0.000000 
#    z 0.000000 0.000000 1.679110 
# 
# From -- ./inp_files/791.got.cif
#   From: 2010.03.12/outbox.cif.g09.slc.cpg/sg80_cif.got.tgz:791.got - 2010.04.08 20:00:04.
