data_PCOD8302661
_publ_section_title
;
Structure prediction by ZEFSAII (Michael W. Deem and Ramdas Pophale) SiO2 
 PCOD8302661
Probable space group: P 4/M
;
_chemical_formula_sum "Si O2"
_cell_formula_units_Z 48
_cell_length_a 17.656662
_cell_length_b 17.656662
_cell_length_c 9.245744
_cell_angle_alpha 90.000000
_cell_angle_beta 90.000000
_cell_angle_gamma 90.000000
_cell_volume 2882.432004
_symmetry_space_group_name_H-M "P 4/M"
_symmetry_group_IT_number 83
_symmetry_cell_setting 'tetragonal'
loop_
_space_group_symop_operation_xyz
x,y,z
-y,x,z
-x,-y,z
y,-x,z
-x,-y,-z
y,-x,-z
x,y,-z
-y,x,-z
loop_
_atom_site_type_symbol
_atom_site_label
_atom_site_fract_x
_atom_site_fract_y
_atom_site_fract_z
Si Si1 0.697147 0.209981 0.161030
Si Si2 0.336788 0.426257 0.839531
Si Si3 0.672914 0.436554 0.662198
Si Si4 0.914320 0.411485 0.170149
Si Si5 0.581245 0.088376 0.830148
Si Si6 0.200383 0.690156 0.662729
O O1 0.644622 0.282464 0.146325
O O2 0.647114 0.142600 0.235047
O O3 0.769355 0.232923 0.259658
O O4 0.726055 0.186711 0.000000
O O5 0.293800 0.493186 0.753615
O O6 0.410020 0.402840 0.745731
O O7 0.360686 0.453656 0.000000
O O8 0.651954 0.462071 0.500000
O O9 0.733950 0.371042 0.658506
O O10 0.892790 0.496158 0.227803
O O11 0.869996 0.345504 0.252222
O O12 0.002353 0.396983 0.204196
O O13 0.897347 0.404773 0.000000
O O14 0.578442 0.103745 0.000000
O O15 0.175056 0.711461 0.500000
#
# Coordination Sequence:
#
# PCOD8302661 Si02
#       6
#     8   8   8   8   8   8
#     4   9  17  30  47  65  86 114 147 182 219 260
#     4  10  19  30  45  62  77  99 139 184 219 255
#     4  10  20  32  43  56  79 109 138 173 220 264
#     4   9  16  29  49  70  93 120 149 185 227 269
#     4   8  15  28  48  72  93 116 150 188 226 269
#     4  10  20  31  43  63  90 118 148 180 215 261
#
# _framework density 16.652605000000001
#
# number of rings (size 3 to 8) (size 9 to 14) (size 15 to 20)
#    0.000    2.667    0.000    3.500    0.000    4.333 
#    0.000    5.000    0.000    0.000    0.000    0.000 
#    0.000    0.667    0.000    7.667    0.000    3.000 
#
# Total GULP energy -594867.950567 kJ/mol
# GULP energy per Si atom -12393.082303 kJ/mol
# Density = 1.661470 g / cm^3
# Si number density = 16.652605 Si / 1000 Ang^3
#
#
#
# Elastic Constant Matrix: (Units=GPa)
#
#
# Indices 1 2 3 4 5 6 
#
# 1 70.2642 31.6376 33.4672 0.0000 0.0000 -0.5469
# 2 31.6376 70.2642 33.4672 0.0000 0.0000 0.5469
# 3 33.4672 33.4672 100.8325 0.0000 0.0000 0.0000
# 4 0.0000 0.0000 0.0000 15.7578 0.0000 0.0000
# 5 0.0000 0.0000 0.0000 0.0000 15.7578 0.0000
# 6 -0.5469 0.5469 0.0000 0.0000 0.0000 31.2683
#
#
#
# Elastic Compliance Matrix: (Units=1/GPa)
#
#
# Indices 1 2 3 4 5 6 
#
# 1 0.019226 -0.006676 -0.004165 0.000000 0.000000 0.000453
# 2 -0.006676 0.019226 -0.004165 0.000000 0.000000 -0.000453
# 3 -0.004165 -0.004165 0.012682 0.000000 0.000000 0.000000
# 4 0.000000 0.000000 0.000000 0.063461 0.000000 0.000000
# 5 0.000000 0.000000 0.000000 0.000000 0.063461 0.000000
# 6 0.000453 -0.000453 0.000000 0.000000 0.000000 0.031997
#
#
# Mechanical properties :
#
#
# Convention : Reuss Voigt Hill
#
# Bulk Modulus (GPa) = 47.34824 48.72273 48.03549
# Shear Modulus (GPa) = 20.23430 22.07604 21.15517
#
# Velocity S-wave (km/s) = 3.48959 3.64494 3.56811
# Velocity P-wave (km/s) = 6.68812 6.85828 6.77373
#
# Compressibility (1/GPa) = 0.02112011
#
# Stress axis : x y z
#
# Youngs Moduli (GPa) = 52.01421 52.01421 78.84955
#
# Poissons Ratio (x) = 0.34726 0.32843
# Poissons Ratio (y) = 0.34726 0.32843
# Poissons Ratio (z) = 0.21665 0.21665
#
# Static dielectric constant tensor:
#      x y z
#    x 3.027600 0.000000 0.000000 
#    y 0.000000 3.027600 0.000000 
#    z 0.000000 0.000000 3.313560 
# 
# 
# High freq. dielectric constant tensor:
#      x y z
#    x 1.614300 0.000000 0.000000 
#    y 0.000000 1.614300 0.000000 
#    z 0.000000 0.000000 1.636590 
# 
# From -- ./inp_files/887.got.cif
#   From: 2010.03.12/outbox.cif.g09.slc.cpg/sg83_1_cif.got.tgz:887.got - 2010.04.08 20:05:18.
