data_PCOD8302557
_publ_section_title
;
Structure prediction by ZEFSAII (Michael W. Deem and Ramdas Pophale) SiO2 
 PCOD8302557
Probable space group: I -4 
;
_chemical_formula_sum "Si O2"
_cell_formula_units_Z 40
_cell_length_a 8.804804
_cell_length_b 8.804804
_cell_length_c 23.248673
_cell_angle_alpha 90.000000
_cell_angle_beta 90.000000
_cell_angle_gamma 90.000000
_cell_volume 1802.343458
_symmetry_space_group_name_H-M "I -4 "
_symmetry_group_IT_number 82
_symmetry_cell_setting 'tetragonal'
loop_
_space_group_symop_operation_xyz
x,y,z
y,-x,-z
-x,-y,z
-y,x,-z
1/2+x,1/2+y,1/2+z
1/2+y,1/2-x,1/2-z
1/2-x,1/2-y,1/2+z
1/2-y,1/2+x,1/2-z
loop_
_atom_site_type_symbol
_atom_site_label
_atom_site_fract_x
_atom_site_fract_y
_atom_site_fract_z
Si Si1 0.778779 0.890345 0.601192
Si Si2 0.726095 0.385820 0.499791
Si Si3 0.731461 0.613486 0.896878
Si Si4 0.209219 0.406379 0.228586
Si Si5 0.683684 0.099970 0.221731
O O1 0.660647 0.826971 0.554946
O O2 0.703194 0.858479 0.662522
O O3 0.936211 0.800892 0.593670
O O4 0.799425 0.071726 0.596970
O O5 0.566156 0.298303 0.500958
O O6 0.824338 0.345516 0.555449
O O7 0.818524 0.637902 0.837060
O O8 0.188153 0.584050 0.236017
O O9 0.365370 0.356560 0.259414
O O10 0.581219 0.162468 0.276462
#
# Coordination Sequence:
#
# PCOD8302557 Si02
#       5
#     8   8   8   8   8
#     4  11  24  45  71 100 136 180 228 278 336 406
#     4  11  28  47  68 102 136 177 226 285 344 398
#     4  11  24  45  71 100 136 180 228 278 336 406
#     4  11  24  41  66 102 139 179 222 273 337 398
#     4  11  24  41  66 102 139 179 222 273 337 398
#
# _framework density 22.19333
#
# number of rings (size 3 to 8) (size 9 to 14) (size 15 to 20)
#    0.000    1.000    4.000    1.200    5.600    5.600 
#    0.000    0.000    0.000    0.000    0.000    0.000 
#    0.000    0.000    0.000    0.000    0.000    0.000 
#
# Total GULP energy -247908.002410 kJ/mol
# GULP energy per Si atom -12395.400120 kJ/mol
# Density = 2.214282 g / cm^3
# Si number density = 22.193330 Si / 1000 Ang^3
#
#
#
# Elastic Constant Matrix: (Units=GPa)
#
#
# Indices 1 2 3 4 5 6 
#
# 1 59.8687 33.1574 44.0991 0.0000 0.0000 0.7104
# 2 33.1574 59.8687 44.0991 0.0000 0.0000 -0.7104
# 3 44.0991 44.0991 140.2613 0.0000 0.0000 0.0000
# 4 0.0000 0.0000 0.0000 30.2318 0.0000 0.0000
# 5 0.0000 0.0000 0.0000 0.0000 30.2318 0.0000
# 6 0.7104 -0.7104 0.0000 0.0000 0.0000 38.2925
#
#
#
# Elastic Compliance Matrix: (Units=1/GPa)
#
#
# Indices 1 2 3 4 5 6 
#
# 1 0.026395 -0.011080 -0.004815 0.000000 0.000000 -0.000695
# 2 -0.011080 0.026395 -0.004815 0.000000 0.000000 0.000695
# 3 -0.004815 -0.004815 0.010157 0.000000 0.000000 0.000000
# 4 0.000000 0.000000 0.000000 0.033078 0.000000 0.000000
# 5 0.000000 0.000000 0.000000 0.000000 0.033078 0.000000
# 6 -0.000695 0.000695 0.000000 0.000000 0.000000 0.026141
#
#
# Mechanical properties :
#
#
# Convention : Reuss Voigt Hill
#
# Bulk Modulus (GPa) = 46.45394 55.85664 51.15529
# Shear Modulus (GPa) = 24.52929 28.99412 26.76170
#
# Velocity S-wave (km/s) = 3.32814 3.61838 3.47629
# Velocity P-wave (km/s) = 5.97877 6.53298 6.26201
#
# Compressibility (1/GPa) = 0.02152670
#
# Stress axis : x y z
#
# Youngs Moduli (GPa) = 37.88651 37.88651 98.45101
#
# Poissons Ratio (x) = 0.41977 0.47405
# Poissons Ratio (y) = 0.41977 0.47405
# Poissons Ratio (z) = 0.18243 0.18243
#
# Static dielectric constant tensor:
#      x y z
#    x 4.129990 0.000000 0.000000 
#    y 0.000000 4.129990 0.000000 
#    z 0.000000 0.000000 4.007240 
# 
# 
# High freq. dielectric constant tensor:
#      x y z
#    x 1.881410 0.000000 0.000000 
#    y 0.000000 1.881410 0.000000 
#    z 0.000000 0.000000 1.878270 
# 
# From -- ./inp_files/3323.got.cif
#   From: 2010.03.12/outbox.cif.g09.slc.cpg/sg82_2_cif.got.tgz:3323.got - 2010.04.08 20:02:50.
