data_PCOD8302132
_publ_section_title
;
Structure prediction by ZEFSAII (Michael W. Deem and Ramdas Pophale) SiO2 
 PCOD8302132
Probable space group: I 4
;
_chemical_formula_sum "Si O2"
_cell_formula_units_Z 48
_cell_length_a 13.384257
_cell_length_b 13.384257
_cell_length_c 13.644601
_cell_angle_alpha 90.000000
_cell_angle_beta 90.000000
_cell_angle_gamma 90.000000
_cell_volume 2444.271111
_symmetry_space_group_name_H-M "I 4"
_symmetry_group_IT_number 79
_symmetry_cell_setting 'tetragonal'
loop_
_space_group_symop_operation_xyz
x,y,z
-y,x,z
-x,-y,z
y,-x,z
1/2+x,1/2+y,1/2+z
1/2-y,1/2+x,1/2+z
1/2-x,1/2-y,1/2+z
1/2+y,1/2-x,1/2+z
loop_
_atom_site_type_symbol
_atom_site_label
_atom_site_fract_x
_atom_site_fract_y
_atom_site_fract_z
Si Si1 0.955833 0.156046 0.392420
Si Si2 0.651237 0.185963 0.770640
Si Si3 0.381728 0.003485 0.118538
Si Si4 0.348763 0.814037 0.239544
Si Si5 0.118272 0.496515 0.391647
Si Si6 0.955833 0.156046 0.617765
O O1 0.933078 0.250267 0.325953
O O2 0.946354 0.188474 0.505092
O O3 0.067705 0.121532 0.368608
O O4 0.607421 0.156513 0.664653
O O5 0.750000 0.250000 0.755092
O O6 0.672000 0.088765 0.837059
O O7 0.328000 0.911235 0.173125
O O8 0.500000 0.000000 0.134744
O O9 0.351351 0.001706 0.005092
O O10 0.392579 0.843487 0.345532
O O11 0.433079 0.750267 0.184232
O O12 0.000000 0.500000 0.375441
O O13 0.067705 0.121532 0.641577
#
# Coordination Sequence:
#
# PCOD8302132 Si02
#       6
#     8   8   8   8   8   8
#     4   9  19  35  57  88 122 157 202 255 306 359
#     4  12  22  39  63  91 123 163 212 253 311 375
#     4  11  24  43  63  89 127 164 206 258 310 367
#     4  12  22  39  63  91 123 163 212 253 311 375
#     4  11  24  43  63  89 127 164 206 258 310 367
#     4   9  19  35  57  88 122 157 202 255 306 359
#
# _framework density 19.637757000000001
#
# number of rings (size 3 to 8) (size 9 to 14) (size 15 to 20)
#    0.000    1.333    3.333    4.000    0.000    2.667 
#    0.000    0.000    0.000    0.000    0.000    7.000 
#    0.000    0.000    0.000    0.000    0.000    0.000 
#
# Total GULP energy -297700.078786 kJ/mol
# GULP energy per Si atom -12404.169949 kJ/mol
# Density = 1.959306 g / cm^3
# Si number density = 19.637757 Si / 1000 Ang^3
#
#
#
# Elastic Constant Matrix: (Units=GPa)
#
#
# Indices 1 2 3 4 5 6 
#
# 1 93.1135 32.4564 57.2665 0.0000 0.0000 13.3526
# 2 32.4564 93.1135 57.2664 0.0000 0.0000 -13.3527
# 3 57.2665 57.2664 137.1148 0.0000 0.0000 0.0000
# 4 0.0000 0.0000 0.0000 25.0352 0.0000 0.0000
# 5 0.0000 0.0000 0.0000 0.0000 25.0353 0.0000
# 6 13.3526 -13.3527 0.0000 0.0000 0.0000 40.2422
#
#
#
# Elastic Compliance Matrix: (Units=1/GPa)
#
#
# Indices 1 2 3 4 5 6 
#
# 1 0.016085 -0.003221 -0.005373 0.000000 0.000000 -0.006406
# 2 -0.003221 0.016085 -0.005373 0.000000 0.000000 0.006406
# 3 -0.005373 -0.005373 0.011781 0.000000 0.000000 0.000000
# 4 0.000000 0.000000 0.000000 0.039944 0.000000 0.000000
# 5 0.000000 0.000000 0.000000 0.000000 0.039944 0.000000
# 6 -0.006406 0.006406 0.000000 0.000000 0.000000 0.029101
#
#
# Mechanical properties :
#
#
# Convention : Reuss Voigt Hill
#
# Bulk Modulus (GPa) = 62.42822 68.59116 65.50969
# Shear Modulus (GPa) = 26.85102 29.81937 28.33519
#
# Velocity S-wave (km/s) = 3.70173 3.90098 3.80266
# Velocity P-wave (km/s) = 7.08021 7.43601 7.26029
#
# Compressibility (1/GPa) = 0.01601840
#
# Stress axis : x y z
#
# Youngs Moduli (GPa) = 62.16836 62.16836 84.88178
#
# Poissons Ratio (x) = 0.20025 0.45605
# Poissons Ratio (y) = 0.20025 0.45605
# Poissons Ratio (z) = 0.33402 0.33402
#
# Static dielectric constant tensor:
#      x y z
#    x 3.550050 0.000000 0.000000 
#    y 0.000000 3.550050 0.000000 
#    z 0.000000 0.000000 3.617300 
# 
# 
# High freq. dielectric constant tensor:
#      x y z
#    x 1.767290 0.000000 0.000000 
#    y 0.000000 1.767290 0.000000 
#    z 0.000000 0.000000 1.766710 
# 
# From -- ./inp_files/1081.got.cif
#   From: 2010.03.12/outbox.cif.g09.slc.cpg/sg79_cif.got.tgz:1081.got - 2010.04.16 16:38:49.
