data_PCOD8302064
_publ_section_title
;
Structure prediction by ZEFSAII (Michael W. Deem and Ramdas Pophale) SiO2 
 PCOD8302064
Probable space group: P 43
;
_chemical_formula_sum "Si O2"
_cell_formula_units_Z 24
_cell_length_a 11.048184
_cell_length_b 11.048184
_cell_length_c 8.223141
_cell_angle_alpha 90.000000
_cell_angle_beta 90.000000
_cell_angle_gamma 90.000000
_cell_volume 1003.736077
_symmetry_space_group_name_H-M "P 43"
_symmetry_group_IT_number 78
_symmetry_cell_setting 'tetragonal'
loop_
_space_group_symop_operation_xyz
x,y,z
-y,x,3/4+z
-x,-y,1/2+z
y,-x,1/4+z
loop_
_atom_site_type_symbol
_atom_site_label
_atom_site_fract_x
_atom_site_fract_y
_atom_site_fract_z
Si Si1 0.252548 0.164209 0.418040
Si Si2 0.072944 0.199650 0.990191
Si Si3 0.216228 0.966307 0.900419
Si Si4 0.619243 0.587816 0.823147
Si Si5 0.583176 0.156087 0.913650
Si Si6 0.040622 0.582276 0.913192
O O1 0.211809 0.070710 0.278555
O O2 0.297448 0.294267 0.355419
O O3 0.371119 0.120192 0.513875
O O4 0.137493 0.163819 0.536204
O O5 0.148593 0.270357 0.131735
O O6 0.094852 0.266229 0.815628
O O7 0.113154 0.059929 0.965346
O O8 0.320924 0.036075 0.807658
O O9 0.488787 0.607650 0.739780
O O10 0.707957 0.527744 0.686950
O O11 0.533549 0.098433 0.747906
O O12 0.549571 0.088599 0.083323
#
# Coordination Sequence:
#
# PCOD8302064 Si02
#       6
#     4   4   4   4   4   4
#     4  11  27  49  71 114 157 198 255 328 386 482
#     4  11  27  41  74 111 157 200 245 312 397 481
#     4  12  24  42  71 113 151 203 245 309 395 489
#     4  12  31  53  79 106 151 207 277 340 388 450
#     4  11  26  49  74 108 146 199 260 327 390 471
#     4  11  25  44  75 104 148 199 260 314 398 481
#
# _framework density 23.910665000000002
#
# number of rings (size 3 to 8) (size 9 to 14) (size 15 to 20)
#    0.000    0.667    3.333    2.000   16.333    1.333 
#    0.000    0.000    0.000    0.000    0.000    0.000 
#    0.000    0.000    0.000    0.000    0.000    0.000 
#
# Total GULP energy -297390.574368 kJ/mol
# GULP energy per Si atom -12391.273932 kJ/mol
# Density = 2.385624 g / cm^3
# Si number density = 23.910665 Si / 1000 Ang^3
#
#
#
# Elastic Constant Matrix: (Units=GPa)
#
#
# Indices 1 2 3 4 5 6 
#
# 1 100.1251 37.9106 30.5202 0.0000 0.0000 1.5269
# 2 37.9106 100.1251 30.5202 0.0000 0.0000 -1.5269
# 3 30.5202 30.5202 100.8752 0.0000 0.0000 0.0000
# 4 0.0000 0.0000 0.0000 39.2483 0.0000 0.0000
# 5 0.0000 0.0000 0.0000 0.0000 39.2483 0.0000
# 6 1.5269 -1.5269 0.0000 0.0000 0.0000 29.2024
#
#
#
# Elastic Compliance Matrix: (Units=1/GPa)
#
#
# Indices 1 2 3 4 5 6 
#
# 1 0.012239 -0.003876 -0.002530 0.000000 0.000000 -0.000843
# 2 -0.003876 0.012239 -0.002530 0.000000 0.000000 0.000843
# 3 -0.002530 -0.002530 0.011444 0.000000 0.000000 0.000000
# 4 0.000000 0.000000 0.000000 0.025479 0.000000 0.000000
# 5 0.000000 0.000000 0.000000 0.000000 0.025479 0.000000
# 6 -0.000843 0.000843 0.000000 0.000000 0.000000 0.034332
#
#
# Mechanical properties :
#
#
# Convention : Reuss Voigt Hill
#
# Bulk Modulus (GPa) = 55.40246 55.44747 55.42497
# Shear Modulus (GPa) = 34.45859 35.01808 34.73834
#
# Velocity S-wave (km/s) = 3.80035 3.83108 3.81575
# Velocity P-wave (km/s) = 6.51750 6.54288 6.53020
#
# Compressibility (1/GPa) = 0.01804974
#
# Stress axis : x y z
#
# Youngs Moduli (GPa) = 81.70514 81.70514 87.37899
#
# Poissons Ratio (x) = 0.31666 0.22110
# Poissons Ratio (y) = 0.31666 0.22110
# Poissons Ratio (z) = 0.20675 0.20675
#
# Static dielectric constant tensor:
#      x y z
#    x 4.368700 0.000000 0.000000 
#    y 0.000000 4.368700 0.000000 
#    z 0.000000 0.000000 4.640220 
# 
# 
# High freq. dielectric constant tensor:
#      x y z
#    x 1.941520 0.000000 0.000000 
#    y 0.000000 1.941520 0.000000 
#    z 0.000000 0.000000 1.974240 
# 
# From -- ./inp_files/533.got.cif
#   From: 2010.03.12/outbox.cif.g09.slc.cpg/sg78_cif.got.tgz:533.got - 2010.04.16 16:37:20.
