data_PCOD8302854
_publ_section_title
;
Structure prediction by ZEFSAII (Michael W. Deem and Ramdas Pophale) SiO2 
 PCOD8302854
Probable space group: P 4/M
;
_chemical_formula_sum "Si O2"
_cell_formula_units_Z 32
_cell_length_a 8.575853
_cell_length_b 8.575853
_cell_length_c 21.515151
_cell_angle_alpha 90.000000
_cell_angle_beta 90.000000
_cell_angle_gamma 90.000000
_cell_volume 1582.337260
_symmetry_space_group_name_H-M "P 4/M"
_symmetry_group_IT_number 83
_symmetry_cell_setting 'tetragonal'
loop_
_space_group_symop_operation_xyz
x,y,z
-y,x,z
-x,-y,z
y,-x,z
-x,-y,-z
y,-x,-z
x,y,-z
-y,x,-z
loop_
_atom_site_type_symbol
_atom_site_label
_atom_site_fract_x
_atom_site_fract_y
_atom_site_fract_z
Si Si1 0.744044 0.425200 0.070584
Si Si2 0.000000 0.500000 0.398816
Si Si3 0.752847 0.937634 0.695595
Si Si4 0.754849 0.553485 0.500000
Si Si5 0.929944 0.246323 0.835393
O O1 0.691100 0.600729 0.083379
O O2 0.885826 0.383190 0.116647
O O3 0.803360 0.405787 0.000000
O O4 0.907937 0.378965 0.355218
O O5 0.865176 0.579115 0.440258
O O6 0.687114 0.915392 0.765385
O O7 0.888246 0.813822 0.685146
O O8 0.620753 0.683475 0.500000
O O9 0.104416 0.188917 0.846902
#
# Coordination Sequence:
#
# PCOD8302854 Si02
#       5
#     8   4   8   4   8
#     4   9  19  35  52  72 101 136 175 219 263 310
#     4  11  20  34  60  82 101 144 184 206 251 312
#     4   9  19  35  53  77 108 137 172 219 262 305
#     4  10  22  38  54  80 116 142 170 216 258 296
#     4   9  19  34  51  74 104 135 169 216 268 312
#
# _framework density 20.22325
#
# number of rings (size 3 to 8) (size 9 to 14) (size 15 to 20)
#    0.000    2.625    0.000    3.750    0.000    6.000 
#    0.000    3.750    0.000    9.000    0.000    0.000 
#    0.000    0.000    0.000    0.000    0.000    0.000 
#
# Total GULP energy -396771.317405 kJ/mol
# GULP energy per Si atom -12399.103669 kJ/mol
# Density = 2.017722 g / cm^3
# Si number density = 20.223250 Si / 1000 Ang^3
#
#
#
# Elastic Constant Matrix: (Units=GPa)
#
#
# Indices 1 2 3 4 5 6 
#
# 1 49.2568 10.8726 42.0596 0.0000 0.0000 -2.4876
# 2 10.8726 49.2568 42.0596 0.0000 0.0000 2.4876
# 3 42.0596 42.0596 139.3150 0.0000 0.0000 0.0000
# 4 0.0000 0.0000 0.0000 25.1406 0.0000 0.0000
# 5 0.0000 0.0000 0.0000 0.0000 25.1406 0.0000
# 6 -2.4876 2.4876 0.0000 0.0000 0.0000 31.4259
#
#
#
# Elastic Compliance Matrix: (Units=1/GPa)
#
#
# Indices 1 2 3 4 5 6 
#
# 1 0.027556 0.001234 -0.008692 0.000000 0.000000 0.002084
# 2 0.001234 0.027556 -0.008692 0.000000 0.000000 -0.002084
# 3 -0.008692 -0.008692 0.012426 0.000000 0.000000 0.000000
# 4 0.000000 0.000000 0.000000 0.039776 0.000000 0.000000
# 5 0.000000 0.000000 0.000000 0.000000 0.039776 0.000000
# 6 0.002084 -0.002084 0.000000 0.000000 0.000000 0.032151
#
#
# Mechanical properties :
#
#
# Convention : Reuss Voigt Hill
#
# Bulk Modulus (GPa) = 28.37724 47.53470 37.95597
# Shear Modulus (GPa) = 22.39252 25.86387 24.12820
#
# Velocity S-wave (km/s) = 3.33117 3.58008 3.45786
# Velocity P-wave (km/s) = 5.37197 6.37536 5.89505
#
# Compressibility (1/GPa) = 0.03523951
#
# Stress axis : x y z
#
# Youngs Moduli (GPa) = 36.28910 36.28910 80.47502
#
# Poissons Ratio (x) = -0.04478 0.69948
# Poissons Ratio (y) = -0.04478 0.69948
# Poissons Ratio (z) = 0.31542 0.31542
#
# Static dielectric constant tensor:
#      x y z
#    x 3.467670 0.000000 0.000000 
#    y 0.000000 3.467670 0.000000 
#    z 0.000000 0.000000 3.700340 
# 
# 
# High freq. dielectric constant tensor:
#      x y z
#    x 1.780260 0.000000 0.000000 
#    y 0.000000 1.780260 0.000000 
#    z 0.000000 0.000000 1.797420 
# 
# From -- ./inp_files/2809.got.cif
#   From: 2010.03.12/outbox.cif.g09.slc.cpg/sg83_2_cif.got.tgz:2809.got - 2010.04.08 20:05:18.
