data_PCOD8302281
_publ_section_title
;
Structure prediction by ZEFSAII (Michael W. Deem and Ramdas Pophale) SiO2 
 PCOD8302281
Probable space group: P -4
;
_chemical_formula_sum "Si O2"
_cell_formula_units_Z 20
_cell_length_a 8.746346
_cell_length_b 8.746346
_cell_length_c 12.122639
_cell_angle_alpha 90.000000
_cell_angle_beta 90.000000
_cell_angle_gamma 90.000000
_cell_volume 927.364528
_symmetry_space_group_name_H-M "P -4"
_symmetry_group_IT_number 81
_symmetry_cell_setting 'tetragonal'
loop_
_space_group_symop_operation_xyz
x,y,z
y,-x,-z
-x,-y,z
-y,x,-z
loop_
_atom_site_type_symbol
_atom_site_label
_atom_site_fract_x
_atom_site_fract_y
_atom_site_fract_z
Si Si1 0.780261 0.883906 0.840137
Si Si2 0.049296 0.670735 0.920121
Si Si3 0.832847 0.446927 0.325745
Si Si4 0.769296 0.903039 0.479798
Si Si5 0.769225 0.211326 0.739273
O O1 0.935264 0.798171 0.870601
O O2 0.673085 0.772166 0.766609
O O3 0.804930 0.031620 0.761810
O O4 0.692970 0.932415 0.950616
O O5 0.000000 0.500000 0.895548
O O6 0.207838 0.698419 0.854542
O O7 0.835308 0.370056 0.447055
O O8 0.739572 0.605085 0.314000
O O9 0.000000 0.500000 0.287974
O O10 0.727461 0.891938 0.350661
O O11 0.920341 0.797945 0.492998
#
# Coordination Sequence:
#
# PCOD8302281 Si02
#       5
#     4   4   4   4   4
#     4  11  22  42  69  94 133 170 221 277 337 397
#     4  12  25  41  67 103 133 170 224 281 339 412
#     4  10  21  42  65  91 134 174 213 274 341 396
#     4  11  21  36  64  96 127 167 225 282 333 382
#     4  11  23  41  67  99 129 173 225 275 334 397
#
# _framework density 21.566490000000002
#
# number of rings (size 3 to 8) (size 9 to 14) (size 15 to 20)
#    0.000    1.000    6.000    3.600    2.800    0.800 
#    3.600    1.000    0.000    0.000    0.000    0.000 
#    0.000    0.000    0.000    0.000    0.000    0.000 
#
# Total GULP energy -247852.113793 kJ/mol
# GULP energy per Si atom -12392.605690 kJ/mol
# Density = 2.151740 g / cm^3
# Si number density = 21.566490 Si / 1000 Ang^3
#
#
#
# Elastic Constant Matrix: (Units=GPa)
#
#
# Indices 1 2 3 4 5 6 
#
# 1 77.0730 21.3440 30.6189 0.0000 0.0000 0.4683
# 2 21.3440 77.0730 30.6189 0.0000 0.0000 -0.4683
# 3 30.6189 30.6189 129.3375 0.0000 0.0000 0.0000
# 4 0.0000 0.0000 0.0000 20.9503 0.0000 0.0000
# 5 0.0000 0.0000 0.0000 0.0000 20.9503 0.0000
# 6 0.4683 -0.4683 0.0000 0.0000 0.0000 14.9040
#
#
#
# Elastic Compliance Matrix: (Units=1/GPa)
#
#
# Indices 1 2 3 4 5 6 
#
# 1 0.014935 -0.003019 -0.002821 0.000000 0.000000 -0.000564
# 2 -0.003019 0.014935 -0.002821 0.000000 0.000000 0.000564
# 3 -0.002821 -0.002821 0.009067 0.000000 0.000000 0.000000
# 4 0.000000 0.000000 0.000000 0.047732 0.000000 0.000000
# 5 0.000000 0.000000 0.000000 0.000000 0.047732 0.000000
# 6 -0.000564 0.000564 0.000000 0.000000 0.000000 0.067131
#
#
# Mechanical properties :
#
#
# Convention : Reuss Voigt Hill
#
# Bulk Modulus (GPa) = 46.26266 49.84970 48.05618
# Shear Modulus (GPa) = 22.11813 24.75437 23.43625
#
# Velocity S-wave (km/s) = 3.20594 3.39162 3.30009
# Velocity P-wave (km/s) = 5.93311 6.20500 6.07058
#
# Compressibility (1/GPa) = 0.02161571
#
# Stress axis : x y z
#
# Youngs Moduli (GPa) = 66.95773 66.95773 110.28555
#
# Poissons Ratio (x) = 0.20212 0.31111
# Poissons Ratio (y) = 0.20212 0.31111
# Poissons Ratio (z) = 0.18889 0.18889
#
# Static dielectric constant tensor:
#      x y z
#    x 3.890900 0.000000 0.000000 
#    y 0.000000 3.890900 0.000000 
#    z 0.000000 0.000000 4.126670 
# 
# 
# High freq. dielectric constant tensor:
#      x y z
#    x 1.819610 0.000000 0.000000 
#    y 0.000000 1.819610 0.000000 
#    z 0.000000 0.000000 1.872410 
# 
# From -- ./inp_files/1252.got.cif
#   From: 2010.03.12/outbox.cif.g09.slc.cpg/sg81_cif.got.tgz:1252.got - 2010.04.08 20:01:38.
