data_PCOD8302539
_publ_section_title
;
Structure prediction by ZEFSAII (Michael W. Deem and Ramdas Pophale) SiO2 
 PCOD8302539
Probable space group: I -4 
;
_chemical_formula_sum "Si O2"
_cell_formula_units_Z 50
_cell_length_a 8.895536
_cell_length_b 8.895536
_cell_length_c 28.766156
_cell_angle_alpha 90.000000
_cell_angle_beta 90.000000
_cell_angle_gamma 90.000000
_cell_volume 2276.282054
_symmetry_space_group_name_H-M "I -4 "
_symmetry_group_IT_number 82
_symmetry_cell_setting 'tetragonal'
loop_
_space_group_symop_operation_xyz
x,y,z
y,-x,-z
-x,-y,z
-y,x,-z
1/2+x,1/2+y,1/2+z
1/2+y,1/2-x,1/2-z
1/2-x,1/2-y,1/2+z
1/2-y,1/2+x,1/2-z
loop_
_atom_site_type_symbol
_atom_site_label
_atom_site_fract_x
_atom_site_fract_y
_atom_site_fract_z
Si Si1 0.763766 0.421256 0.753905
Si Si2 0.734494 0.436579 0.005794
Si Si3 0.258687 0.317090 0.156983
Si Si4 0.000000 0.500000 0.250000
Si Si5 0.250641 0.073368 0.813887
Si Si6 0.161288 0.544684 0.909160
Si Si7 0.240357 0.863674 0.607391
O O1 0.812215 0.594150 0.754683
O O2 0.688527 0.386265 0.803431
O O3 0.639138 0.393844 0.713426
O O4 0.805020 0.385457 0.055071
O O5 0.603822 0.327284 0.987659
O O6 0.857098 0.431806 0.964676
O O7 0.300230 0.203815 0.115482
O O8 0.255071 0.482930 0.136020
O O9 0.105065 0.254768 0.178949
O O10 0.890158 0.397683 0.218066
O O11 0.252350 0.150916 0.864529
O O12 0.293299 0.425551 0.897113
O O13 0.000000 0.500000 0.888617
#
# Coordination Sequence:
#
# PCOD8302539 Si02
#       7
#     8   8   8   2   8   8   8
#     4  11  27  47  68  96 136 181 229 277 343 413
#     4   9  18  39  66  99 128 173 226 271 326 398
#     4  12  24  42  68  97 133 177 225 280 333 406
#     4  12  20  44  56  96 132 164 216 280 332 404
#     4  12  23  43  67  98 134 173 228 279 342 397
#     4  11  25  42  65 100 141 176 225 279 341 401
#     4  11  22  42  72  97 135 178 227 278 334 403
#
# _framework density 21.965641999999999
#
# number of rings (size 3 to 8) (size 9 to 14) (size 15 to 20)
#    0.000    0.960    4.800    1.440    4.480    1.920 
#    0.000    0.000    0.000    0.000    0.000    0.000 
#    0.000    0.000    0.000    0.000    0.000    0.000 
#
# Total GULP energy -309954.549481 kJ/mol
# GULP energy per Si atom -12398.181979 kJ/mol
# Density = 2.191565 g / cm^3
# Si number density = 21.965642 Si / 1000 Ang^3
#
#
#
# Elastic Constant Matrix: (Units=GPa)
#
#
# Indices 1 2 3 4 5 6 
#
# 1 77.5093 20.4427 33.7058 0.0000 0.0000 -2.3385
# 2 20.4427 77.5093 33.7058 0.0000 0.0000 2.3385
# 3 33.7058 33.7058 131.3857 0.0000 0.0000 0.0000
# 4 0.0000 0.0000 0.0000 35.2701 0.0000 0.0000
# 5 0.0000 0.0000 0.0000 0.0000 35.2701 0.0000
# 6 -2.3385 2.3385 0.0000 0.0000 0.0000 24.8450
#
#
#
# Elastic Compliance Matrix: (Units=1/GPa)
#
#
# Indices 1 2 3 4 5 6 
#
# 1 0.015029 -0.002631 -0.003181 0.000000 0.000000 0.001662
# 2 -0.002631 0.015029 -0.003181 0.000000 0.000000 -0.001662
# 3 -0.003181 -0.003181 0.009243 0.000000 0.000000 0.000000
# 4 0.000000 0.000000 0.000000 0.028353 0.000000 0.000000
# 5 0.000000 0.000000 0.000000 0.000000 0.028353 0.000000
# 6 0.001662 -0.001662 0.000000 0.000000 0.000000 0.040562
#
#
# Mechanical properties :
#
#
# Convention : Reuss Voigt Hill
#
# Bulk Modulus (GPa) = 46.91156 51.34588 49.12872
# Shear Modulus (GPa) = 30.92951 32.31372 31.62161
#
# Velocity S-wave (km/s) = 3.75652 3.83966 3.79831
# Velocity P-wave (km/s) = 6.34180 6.56381 6.45376
#
# Compressibility (1/GPa) = 0.02131671
#
# Stress axis : x y z
#
# Youngs Moduli (GPa) = 66.53883 66.53882 108.18893
#
# Poissons Ratio (x) = 0.17505 0.34411
# Poissons Ratio (y) = 0.17505 0.34411
# Poissons Ratio (z) = 0.21163 0.21163
#
# Static dielectric constant tensor:
#      x y z
#    x 3.782740 0.000000 0.000000 
#    y 0.000000 3.782740 0.000000 
#    z 0.000000 0.000000 4.271840 
# 
# 
# High freq. dielectric constant tensor:
#      x y z
#    x 1.846830 0.000000 0.000000 
#    y 0.000000 1.846830 0.000000 
#    z 0.000000 0.000000 1.885650 
# 
# From -- ./inp_files/4086.got.cif
#   From: 2010.03.12/outbox.cif.g09.slc.cpg/sg82_3_cif.got.tgz:4086.got - 2010.04.08 20:02:50.
