data_PCOD8302355
_publ_section_title
;
Structure prediction by ZEFSAII (Michael W. Deem and Ramdas Pophale) SiO2 
 PCOD8302355
Probable space group: I -4 
;
_chemical_formula_sum "Si O2"
_cell_formula_units_Z 44
_cell_length_a 14.986153
_cell_length_b 14.986153
_cell_length_c 9.146415
_cell_angle_alpha 90.000000
_cell_angle_beta 90.000000
_cell_angle_gamma 90.000000
_cell_volume 2054.145616
_symmetry_space_group_name_H-M "I -4 "
_symmetry_group_IT_number 82
_symmetry_cell_setting 'tetragonal'
loop_
_space_group_symop_operation_xyz
x,y,z
y,-x,-z
-x,-y,z
-y,x,-z
1/2+x,1/2+y,1/2+z
1/2+y,1/2-x,1/2-z
1/2-x,1/2-y,1/2+z
1/2-y,1/2+x,1/2-z
loop_
_atom_site_type_symbol
_atom_site_label
_atom_site_fract_x
_atom_site_fract_y
_atom_site_fract_z
Si Si1 0.387561 0.145856 0.129471
Si Si2 0.769089 0.970246 0.049990
Si Si3 0.489869 0.309201 0.121798
Si Si4 0.249578 0.321613 0.874993
Si Si5 0.351728 0.296371 0.592687
Si Si6 0.000000 0.500000 0.750000
Si Si7 0.500000 0.500000 0.000000
O O1 0.321380 0.087131 0.029988
O O2 0.415354 0.241228 0.052869
O O3 0.340982 0.163217 0.285184
O O4 0.477142 0.087501 0.153873
O O5 0.781549 0.015395 0.207847
O O6 0.849649 0.899026 0.034607
O O7 0.764607 0.046799 0.927487
O O8 0.586436 0.285776 0.054896
O O9 0.470025 0.414279 0.096753
O O10 0.326838 0.287003 0.763559
O O11 0.226365 0.255979 0.006853
#
# Coordination Sequence:
#
# PCOD8302355 Si02
#       7
#     8   8   8   8   8   2   2
#     4  10  18  33  58  91 117 155 212 264 307 365
#     4  10  22  37  63  87 125 166 212 258 319 387
#     4  10  22  38  54  92 121 168 216 258 312 379
#     4  10  21  38  62  85 129 160 207 265 319 374
#     4  10  21  39  61  94 121 168 212 256 323 379
#     4  12  12  28  64  84 116 146 208 280 292 366
#     4  12  28  36  60  86 144 176 212 266 336 372
#
# _framework density 21.420096999999998
#
# number of rings (size 3 to 8) (size 9 to 14) (size 15 to 20)
#    0.000    2.182    5.455    0.000    5.091    3.273 
#    0.000    0.000    0.000    0.000    0.000    0.000 
#    0.000    0.000    0.000    0.000    0.000    0.000 
#
# Total GULP energy -272568.089711 kJ/mol
# GULP energy per Si atom -12389.458623 kJ/mol
# Density = 2.137134 g / cm^3
# Si number density = 21.420097 Si / 1000 Ang^3
#
#
#
# Elastic Constant Matrix: (Units=GPa)
#
#
# Indices 1 2 3 4 5 6 
#
# 1 135.6575 43.5285 21.0175 0.0000 0.0000 -10.7758
# 2 43.5285 135.6575 21.0175 0.0000 0.0000 10.7758
# 3 21.0175 21.0175 26.3368 0.0000 0.0000 0.0000
# 4 0.0000 0.0000 0.0000 21.0177 0.0000 0.0000
# 5 0.0000 0.0000 0.0000 0.0000 21.0177 0.0000
# 6 -10.7758 10.7758 0.0000 0.0000 0.0000 37.7347
#
#
#
# Elastic Compliance Matrix: (Units=1/GPa)
#
#
# Indices 1 2 3 4 5 6 
#
# 1 0.009249 -0.002383 -0.005479 0.000000 0.000000 0.003322
# 2 -0.002383 0.009249 -0.005479 0.000000 0.000000 -0.003322
# 3 -0.005479 -0.005479 0.046715 0.000000 0.000000 0.000000
# 4 0.000000 0.000000 0.000000 0.047579 0.000000 0.000000
# 5 0.000000 0.000000 0.000000 0.000000 0.047579 0.000000
# 6 0.003322 -0.003322 0.000000 0.000000 0.000000 0.028398
#
#
# Mechanical properties :
#
#
# Convention : Reuss Voigt Hill
#
# Bulk Modulus (GPa) = 25.95391 52.08655 39.02023
# Shear Modulus (GPa) = 21.90151 30.09321 25.99736
#
# Velocity S-wave (km/s) = 3.20108 3.75227 3.48759
# Velocity P-wave (km/s) = 5.07991 6.56827 5.87144
#
# Compressibility (1/GPa) = 0.03852985
#
# Stress axis : x y z
#
# Youngs Moduli (GPa) = 108.12241 108.12241 21.40634
#
# Poissons Ratio (x) = 0.25761 0.11729
# Poissons Ratio (y) = 0.25761 0.11729
# Poissons Ratio (z) = 0.59245 0.59245
#
# Static dielectric constant tensor:
#      x y z
#    x 4.065360 0.000000 0.000000 
#    y 0.000000 4.065360 0.000000 
#    z 0.000000 0.000000 3.224150 
# 
# 
# High freq. dielectric constant tensor:
#      x y z
#    x 1.855850 0.000000 0.000000 
#    y 0.000000 1.855850 0.000000 
#    z 0.000000 0.000000 1.778360 
# 
# From -- ./inp_files/1738.got.cif
#   From: 2010.03.12/outbox.cif.g09.slc.cpg/sg82_1_cif.got.tgz:1738.got - 2010.04.08 20:02:50.
