data_PCOD8302978
_publ_section_title
;
Structure prediction by ZEFSAII (Michael W. Deem and Ramdas Pophale) SiO2 
 PCOD8302978
Probable space group: P 4/M
;
_chemical_formula_sum "Si O2"
_cell_formula_units_Z 48
_cell_length_a 8.241222
_cell_length_b 8.241222
_cell_length_c 31.611875
_cell_angle_alpha 90.000000
_cell_angle_beta 90.000000
_cell_angle_gamma 90.000000
_cell_volume 2147.007109
_symmetry_space_group_name_H-M "P 4/M"
_symmetry_group_IT_number 83
_symmetry_cell_setting 'tetragonal'
loop_
_space_group_symop_operation_xyz
x,y,z
-y,x,z
-x,-y,z
y,-x,z
-x,-y,-z
y,-x,-z
x,y,-z
-y,x,-z
loop_
_atom_site_type_symbol
_atom_site_label
_atom_site_fract_x
_atom_site_fract_y
_atom_site_fract_z
Si Si1 0.750264 0.903176 0.421229
Si Si2 0.114346 0.760022 0.737548
Si Si3 0.628105 0.737290 0.000000
Si Si4 0.751514 0.406489 0.500000
Si Si5 0.745355 0.395133 0.342148
Si Si6 0.372874 0.264044 0.089309
Si Si7 0.737690 0.372769 0.819282
O O1 0.628039 0.858052 0.458677
O O2 0.661533 0.875370 0.376703
O O3 0.909221 0.792999 0.424874
O O4 0.179134 0.628978 0.704204
O O5 0.137765 0.690936 0.784527
O O6 0.924900 0.786944 0.730443
O O7 0.435703 0.714789 0.000000
O O8 0.675981 0.828350 0.955246
O O9 0.705945 0.593770 0.500000
O O10 0.709682 0.583562 0.348176
O O11 0.564444 0.285375 0.088993
O O12 0.329697 0.181059 0.134473
O O13 0.715185 0.565082 0.813994
#
# Coordination Sequence:
#
# PCOD8302978 Si02
#       7
#     8   8   4   4   8   8   8
#     4  11  24  41  62  90 122 155 192 231 272 321
#     4  11  24  39  54  75 103 136 176 219 262 312
#     4   7   8  12  26  52  88 125 154 186 238 299
#     4  11  24  41  62  90 122 157 200 243 280 322
#     4  11  24  41  62  88 114 141 177 220 267 322
#     4   7  10  17  32  58  92 125 156 194 243 300
#     4   9  17  30  49  74 102 131 166 209 257 311
#
# _framework density 22.356701999999999
#
# number of rings (size 3 to 8) (size 9 to 14) (size 15 to 20)
#    0.000    2.333    0.000    5.500    0.000   12.000 
#    0.000    0.000    0.000    0.000    0.000    1.167 
#    0.000    8.000    0.000    0.000    0.000    0.000 
#
# Total GULP energy -594806.378161 kJ/mol
# GULP energy per Si atom -12391.799545 kJ/mol
# Density = 2.230582 g / cm^3
# Si number density = 22.356702 Si / 1000 Ang^3
#
#
#
# Elastic Constant Matrix: (Units=GPa)
#
#
# Indices 1 2 3 4 5 6 
#
# 1 15.0730 -4.0346 8.4799 0.0000 0.0000 0.8460
# 2 -4.0346 15.0730 8.4799 0.0000 0.0000 -0.8460
# 3 8.4799 8.4799 162.9659 0.0000 0.0000 0.0000
# 4 0.0000 0.0000 0.0000 -1.6106 0.0000 0.0000
# 5 0.0000 0.0000 0.0000 0.0000 -1.6106 0.0000
# 6 0.8460 -0.8460 0.0000 0.0000 0.0000 25.7897
#
#
#
# Elastic Compliance Matrix: (Units=1/GPa)
#
#
# Indices 1 2 3 4 5 6 
#
# 1 0.075476 0.022989 -0.005124 0.000000 0.000000 -0.001722
# 2 0.022989 0.075476 -0.005124 0.000000 0.000000 0.001722
# 3 -0.005124 -0.005124 0.006669 0.000000 0.000000 0.000000
# 4 0.000000 0.000000 0.000000 -0.620901 0.000000 0.000000
# 5 0.000000 0.000000 0.000000 0.000000 -0.620901 0.000000
# 6 -0.001722 0.001722 0.000000 0.000000 0.000000 0.038888
#
#
# Mechanical properties :
#
#
# Convention : Reuss Voigt Hill
#
# Bulk Modulus (GPa) = 5.46133 24.32915 14.89524
# Shear Modulus (GPa) = -4.95178 16.52616 5.78719
#
# Velocity S-wave (km/s) = -1.48987 2.72178 1.61065
# Velocity P-wave (km/s) = 0.71518 4.55887 3.18370
#
# Compressibility (1/GPa) = 0.18310561
#
# Stress axis : x y z
#
# Youngs Moduli (GPa) = 13.24917 13.24917 149.93699
#
# Poissons Ratio (x) = -0.30458 0.76822
# Poissons Ratio (y) = -0.30458 0.76822
# Poissons Ratio (z) = 0.06788 0.06788
#
# Static dielectric constant tensor:
#      x y z
#    x 3.703040 0.000000 0.000000 
#    y 0.000000 3.703040 0.000000 
#    z 0.000000 0.000000 4.624280 
# 
# 
# High freq. dielectric constant tensor:
#      x y z
#    x 1.850660 0.000000 0.000000 
#    y 0.000000 1.850660 0.000000 
#    z 0.000000 0.000000 1.912270 
# 
# From -- ./inp_files/3439.got.cif
#   From: 2010.03.12/outbox.cif.g09.slc.cpg/sg83_2_cif.got.tgz:3439.got - 2010.04.08 20:05:18.
