data_PCOD8302609
_publ_section_title
;
Structure prediction by ZEFSAII (Michael W. Deem and Ramdas Pophale) SiO2 
 PCOD8302609
Probable space group: P 4/M
;
_chemical_formula_sum "Si O2"
_cell_formula_units_Z 56
_cell_length_a 16.929855
_cell_length_b 16.929855
_cell_length_c 14.269663
_cell_angle_alpha 90.000000
_cell_angle_beta 90.000000
_cell_angle_gamma 90.000000
_cell_volume 4089.970671
_symmetry_space_group_name_H-M "P 4/M"
_symmetry_group_IT_number 83
_symmetry_cell_setting 'tetragonal'
loop_
_space_group_symop_operation_xyz
x,y,z
-y,x,z
-x,-y,z
y,-x,z
-x,-y,-z
y,-x,-z
x,y,-z
-y,x,-z
loop_
_atom_site_type_symbol
_atom_site_label
_atom_site_fract_x
_atom_site_fract_y
_atom_site_fract_z
Si Si1 0.498735 0.630193 0.104072
Si Si2 0.329707 0.896169 0.611436
Si Si3 0.706489 0.498615 0.706116
Si Si4 0.359983 0.639468 0.394344
Si Si5 0.327479 0.069749 0.609904
Si Si6 0.778338 0.243331 0.605620
Si Si7 0.138460 0.508008 0.609702
O O1 0.421796 0.576723 0.117642
O O2 0.497514 0.699217 0.181292
O O3 0.498445 0.668360 0.000000
O O4 0.329248 0.888245 0.500000
O O5 0.269608 0.829863 0.654834
O O6 0.421099 0.888403 0.643877
O O7 0.300055 0.982981 0.644829
O O8 0.638643 0.442433 0.662775
O O9 0.700530 0.583865 0.658563
O O10 0.790201 0.464331 0.676029
O O11 0.389773 0.624542 0.500000
O O12 0.273864 0.677904 0.394465
O O13 0.314654 0.078005 0.500000
O O14 0.270992 0.138707 0.655171
O O15 0.422292 0.075298 0.628886
O O16 0.795885 0.215612 0.500000
O O17 0.163496 0.506395 0.500000
#
# Coordination Sequence:
#
# PCOD8302609 Si02
#       7
#     8   8   8   8   8   8   8
#     4   9  18  32  42  48  63  94 140 181 202 218
#     4   9  16  25  37  52  72 102 135 160 187 225
#     4  12  19  27  40  55  73 105 134 161 196 230
#     4  11  20  27  35  53  83 110 130 153 190 239
#     4   9  16  25  37  52  72 102 135 160 187 225
#     4   9  16  26  37  50  73 105 128 154 194 227
#     4  10  17  25  37  56  81 104 126 154 190 235
#
# _framework density 13.692030000000001
#
# number of rings (size 3 to 8) (size 9 to 14) (size 15 to 20)
#    0.000    2.143    4.286    2.143    0.000    2.000 
#    0.000    0.714    0.000    0.429    0.000    3.000 
#    0.000    2.286    0.000    0.000    0.000    0.000 
#
# Total GULP energy -693737.869629 kJ/mol
# GULP energy per Si atom -12388.176243 kJ/mol
# Density = 1.366087 g / cm^3
# Si number density = 13.692030 Si / 1000 Ang^3
#
#
#
# Elastic Constant Matrix: (Units=GPa)
#
#
# Indices 1 2 3 4 5 6 
#
# 1 74.7319 26.6282 12.4466 0.0000 0.0000 -1.0441
# 2 26.6282 74.7319 12.4466 0.0000 0.0000 1.0441
# 3 12.4466 12.4466 59.0546 0.0000 0.0000 0.0000
# 4 0.0000 0.0000 0.0000 5.8243 0.0000 0.0000
# 5 0.0000 0.0000 0.0000 0.0000 5.8243 0.0000
# 6 -1.0441 1.0441 0.0000 0.0000 0.0000 15.4204
#
#
#
# Elastic Compliance Matrix: (Units=1/GPa)
#
#
# Indices 1 2 3 4 5 6 
#
# 1 0.015627 -0.005223 -0.002193 0.000000 0.000000 0.001412
# 2 -0.005223 0.015627 -0.002193 0.000000 0.000000 -0.001412
# 3 -0.002193 -0.002193 0.017858 0.000000 0.000000 0.000000
# 4 0.000000 0.000000 0.000000 0.171695 0.000000 0.000000
# 5 0.000000 0.000000 0.000000 0.000000 0.171695 0.000000
# 6 0.001412 -0.001412 0.000000 0.000000 0.000000 0.065040
#
#
# Mechanical properties :
#
#
# Convention : Reuss Voigt Hill
#
# Bulk Modulus (GPa) = 33.45029 34.61790 34.03409
# Shear Modulus (GPa) = 10.27277 15.88028 13.07652
#
# Velocity S-wave (km/s) = 2.74208 3.40931 3.09374
# Velocity P-wave (km/s) = 5.87443 6.39030 6.13779
#
# Compressibility (1/GPa) = 0.02989511
#
# Stress axis : x y z
#
# Youngs Moduli (GPa) = 63.99174 63.99174 55.99783
#
# Poissons Ratio (x) = 0.33421 0.12280
# Poissons Ratio (y) = 0.33421 0.12280
# Poissons Ratio (z) = 0.14033 0.14033
#
# Static dielectric constant tensor:
#      x y z
#    x 2.756450 0.000000 0.000000 
#    y 0.000000 2.756450 0.000000 
#    z 0.000000 0.000000 2.305060 
# 
# 
# High freq. dielectric constant tensor:
#      x y z
#    x 1.515710 0.000000 0.000000 
#    y 0.000000 1.515710 0.000000 
#    z 0.000000 0.000000 1.454920 
# 
# From -- ./inp_files/1995.got.cif
#   From: 2010.03.12/outbox.cif.g09.slc.cpg/sg83_1_cif.got.tgz:1995.got - 2010.04.08 20:05:18.
