data_PCOD8302933
_publ_section_title
;
Structure prediction by ZEFSAII (Michael W. Deem and Ramdas Pophale) SiO2 
 PCOD8302933
Probable space group: P 4/M
;
_chemical_formula_sum "Si O2"
_cell_formula_units_Z 44
_cell_length_a 8.386418
_cell_length_b 8.386418
_cell_length_c 28.837593
_cell_angle_alpha 90.000000
_cell_angle_beta 90.000000
_cell_angle_gamma 90.000000
_cell_volume 2028.205789
_symmetry_space_group_name_H-M "P 4/M"
_symmetry_group_IT_number 83
_symmetry_cell_setting 'tetragonal'
loop_
_space_group_symop_operation_xyz
x,y,z
-y,x,z
-x,-y,z
y,-x,z
-x,-y,-z
y,-x,-z
x,y,-z
-y,x,-z
loop_
_atom_site_type_symbol
_atom_site_label
_atom_site_fract_x
_atom_site_fract_y
_atom_site_fract_z
Si Si1 0.752145 0.087834 0.133734
Si Si2 0.908868 0.752891 0.500000
Si Si3 0.597160 0.256680 0.316389
Si Si4 0.597774 0.257679 0.052578
Si Si5 0.595920 0.252776 0.216369
Si Si6 0.401499 0.746337 0.583524
O O1 0.653480 0.118129 0.086715
O O2 0.641171 0.124296 0.177775
O O3 0.904767 0.201522 0.135117
O O4 0.874687 0.647301 0.545299
O O5 0.092830 0.797279 0.500000
O O6 0.702012 0.413200 0.316373
O O7 0.630627 0.168908 0.267106
O O8 0.631955 0.169727 0.365696
O O9 0.702951 0.414089 0.062113
O O10 0.622029 0.197503 0.000000
O O11 0.702085 0.411222 0.210672
O O12 0.297075 0.586691 0.577658
#
# Coordination Sequence:
#
# PCOD8302933 Si02
#       6
#     8   4   8   8   8   8
#     4  11  24  37  48  70 107 145 176 206 243 290
#     4  11  24  37  46  64 100 141 174 203 242 294
#     4   7  12  26  50  79 104 122 150 201 257 301
#     4   9  19  37  60  83 103 125 161 210 259 305
#     4   9  17  32  56  81 102 128 165 208 252 298
#     4   9  17  32  56  81 100 122 159 207 256 303
#
# _framework density 21.694051999999999
#
# number of rings (size 3 to 8) (size 9 to 14) (size 15 to 20)
#    0.000    2.818    0.000    4.364    0.000    7.273 
#    0.000    4.545    0.000    8.727    0.000    0.000 
#    0.000    0.000    0.000    0.000    0.000    0.000 
#
# Total GULP energy -545212.522832 kJ/mol
# GULP energy per Si atom -12391.193701 kJ/mol
# Density = 2.164468 g / cm^3
# Si number density = 21.694052 Si / 1000 Ang^3
#
#
#
# Elastic Constant Matrix: (Units=GPa)
#
#
# Indices 1 2 3 4 5 6 
#
# 1 18.3830 -7.0358 7.8594 0.0000 0.0000 2.5754
# 2 -7.0358 18.3830 7.8594 0.0000 0.0000 -2.5754
# 3 7.8594 7.8594 165.7610 0.0000 0.0000 0.0000
# 4 0.0000 0.0000 0.0000 -6.7824 0.0000 0.0000
# 5 0.0000 0.0000 0.0000 0.0000 -6.7824 0.0000
# 6 2.5754 -2.5754 0.0000 0.0000 0.0000 29.2278
#
#
#
# Elastic Compliance Matrix: (Units=1/GPa)
#
#
# Indices 1 2 3 4 5 6 
#
# 1 0.067189 0.027133 -0.004472 0.000000 0.000000 -0.003530
# 2 0.027133 0.067189 -0.004472 0.000000 0.000000 0.003530
# 3 -0.004472 -0.004472 0.006457 0.000000 0.000000 0.000000
# 4 0.000000 0.000000 0.000000 -0.147440 0.000000 0.000000
# 5 0.000000 0.000000 0.000000 0.000000 -0.147440 0.000000
# 6 -0.003530 0.003530 0.000000 0.000000 0.000000 0.034836
#
#
# Mechanical properties :
#
#
# Convention : Reuss Voigt Hill
#
# Bulk Modulus (GPa) = 5.64295 24.43258 15.03777
# Shear Modulus (GPa) = -51.80584 16.05551 -17.87517
#
# Velocity S-wave (km/s) = -4.89204 2.72341 -2.87360
# Velocity P-wave (km/s) = 5.41319 4.60174 2.01576
#
# Compressibility (1/GPa) = 0.17721226
#
# Stress axis : x y z
#
# Youngs Moduli (GPa) = 14.88336 14.88336 154.87375
#
# Poissons Ratio (x) = -0.40383 0.69263
# Poissons Ratio (y) = -0.40383 0.69263
# Poissons Ratio (z) = 0.06656 0.06656
#
# Static dielectric constant tensor:
#      x y z
#    x 3.528180 0.000000 0.000000 
#    y 0.000000 3.528180 0.000000 
#    z 0.000000 0.000000 4.460300 
# 
# 
# High freq. dielectric constant tensor:
#      x y z
#    x 1.823780 0.000000 0.000000 
#    y 0.000000 1.823780 0.000000 
#    z 0.000000 0.000000 1.878940 
# 
# From -- ./inp_files/3343.got.cif
#   From: 2010.03.12/outbox.cif.g09.slc.cpg/sg83_2_cif.got.tgz:3343.got - 2010.04.08 20:05:18.
