data_PCOD8302680
_publ_section_title
;
Structure prediction by ZEFSAII (Michael W. Deem and Ramdas Pophale) SiO2 
 PCOD8302680
Probable space group: P 4/M
;
_chemical_formula_sum "Si O2"
_cell_formula_units_Z 64
_cell_length_a 20.715074
_cell_length_b 20.715074
_cell_length_c 9.251376
_cell_angle_alpha 90.000000
_cell_angle_beta 90.000000
_cell_angle_gamma 90.000000
_cell_volume 3969.897651
_symmetry_space_group_name_H-M "P 4/M"
_symmetry_group_IT_number 83
_symmetry_cell_setting 'tetragonal'
loop_
_space_group_symop_operation_xyz
x,y,z
-y,x,z
-x,-y,z
y,-x,z
-x,-y,-z
y,-x,-z
x,y,-z
-y,x,-z
loop_
_atom_site_type_symbol
_atom_site_label
_atom_site_fract_x
_atom_site_fract_y
_atom_site_fract_z
Si Si1 0.898995 0.500185 0.834702
Si Si2 0.634364 0.081451 0.668783
Si Si3 0.489595 0.753241 0.843040
Si Si4 0.292720 0.625774 0.162918
Si Si5 0.702447 0.812988 0.327859
Si Si6 0.187575 0.271293 0.341798
Si Si7 0.375123 0.063388 0.333954
Si Si8 0.704622 0.620697 0.341928
O O1 0.908582 0.568052 0.754230
O O2 0.824429 0.480956 0.829106
O O3 0.936179 0.441142 0.758403
O O4 0.923858 0.506464 0.000000
O O5 0.623003 0.100224 0.500000
O O6 0.692700 0.126657 0.736085
O O7 0.656469 0.007259 0.684299
O O8 0.548705 0.703856 0.834158
O O9 0.442255 0.741057 0.712054
O O10 0.454729 0.746155 0.000000
O O11 0.232811 0.649452 0.257325
O O12 0.360495 0.648134 0.231310
O O13 0.285982 0.652623 0.000000
O O14 0.700901 0.802624 0.500000
O O15 0.775924 0.792298 0.272159
O O16 0.680724 0.885779 0.285131
O O17 0.162212 0.251189 0.500000
O O18 0.244618 0.322354 0.350838
O O19 0.394871 0.076738 0.500000
O O20 0.675384 0.606499 0.500000
#
# Coordination Sequence:
#
# PCOD8302680 Si02
#       8
#     8   8   8   8   8   8   8   8
#     4  11  21  32  44  64  93 125 158 187 219 265
#     4  10  19  32  46  64  90 124 157 188 231 273
#     4  10  20  32  47  67  91 119 150 184 227 276
#     4  10  19  32  48  67  91 117 146 187 233 279
#     4   9  17  30  46  66  87 114 153 195 230 266
#     4   8  15  28  45  63  85 111 146 188 227 265
#     4  10  20  31  46  65  91 123 157 192 228 273
#     4  10  19  31  49  70  88 114 149 191 233 271
#
# _framework density 16.121321999999999
#
# number of rings (size 3 to 8) (size 9 to 14) (size 15 to 20)
#    0.000    2.250    2.500    2.250    0.000    3.500 
#    0.000    0.000    0.000    0.375    0.000    2.625 
#    0.000    0.500    0.000    7.000    0.000    0.000 
#
# Total GULP energy -792841.095928 kJ/mol
# GULP energy per Si atom -12388.142124 kJ/mol
# Density = 1.608463 g / cm^3
# Si number density = 16.121322 Si / 1000 Ang^3
#
#
#
# Elastic Constant Matrix: (Units=GPa)
#
#
# Indices 1 2 3 4 5 6 
#
# 1 62.2724 38.3217 23.3046 0.0000 0.0000 2.4093
# 2 38.3217 62.2724 23.3046 0.0000 0.0000 -2.4093
# 3 23.3046 23.3046 63.7600 0.0000 0.0000 0.0000
# 4 0.0000 0.0000 0.0000 14.0048 0.0000 0.0000
# 5 0.0000 0.0000 0.0000 0.0000 14.0048 0.0000
# 6 2.4093 -2.4093 0.0000 0.0000 0.0000 18.1513
#
#
#
# Elastic Compliance Matrix: (Units=1/GPa)
#
#
# Indices 1 2 3 4 5 6 
#
# 1 0.027433 -0.015465 -0.004374 0.000000 0.000000 -0.005694
# 2 -0.015465 0.027433 -0.004374 0.000000 0.000000 0.005694
# 3 -0.004374 -0.004374 0.018881 0.000000 0.000000 0.000000
# 4 0.000000 0.000000 0.000000 0.071404 0.000000 0.000000
# 5 0.000000 0.000000 0.000000 0.000000 0.071404 0.000000
# 6 -0.005694 0.005694 0.000000 0.000000 0.000000 0.056604
#
#
# Mechanical properties :
#
#
# Convention : Reuss Voigt Hill
#
# Bulk Modulus (GPa) = 39.49475 39.79630 39.64552
# Shear Modulus (GPa) = 15.15028 16.12377 15.63703
#
# Velocity S-wave (km/s) = 3.06889 3.16595 3.11780
# Velocity P-wave (km/s) = 6.09172 6.17280 6.13239
#
# Compressibility (1/GPa) = 0.02531982
#
# Stress axis : x y z
#
# Youngs Moduli (GPa) = 36.45256 36.45256 52.96207
#
# Poissons Ratio (x) = 0.56375 0.23167
# Poissons Ratio (y) = 0.56375 0.23167
# Poissons Ratio (z) = 0.15945 0.15945
#
# Static dielectric constant tensor:
#      x y z
#    x 3.138700 0.000000 0.000000 
#    y 0.000000 3.138700 0.000000 
#    z 0.000000 0.000000 3.146660 
# 
# 
# High freq. dielectric constant tensor:
#      x y z
#    x 1.599170 0.000000 0.000000 
#    y 0.000000 1.599170 0.000000 
#    z 0.000000 0.000000 1.617470 
# 
# From -- ./inp_files/1287.got.cif
#   From: 2010.03.12/outbox.cif.g09.slc.cpg/sg83_1_cif.got.tgz:1287.got - 2010.04.08 20:05:18.
