data_PCOD8302303
_publ_section_title
;
Structure prediction by ZEFSAII (Michael W. Deem and Ramdas Pophale) SiO2 
 PCOD8302303
Probable space group: P -4
;
_chemical_formula_sum "Si O2"
_cell_formula_units_Z 18
_cell_length_a 12.367478
_cell_length_b 12.367478
_cell_length_c 5.023735
_cell_angle_alpha 90.000000
_cell_angle_beta 90.000000
_cell_angle_gamma 90.000000
_cell_volume 768.402936
_symmetry_space_group_name_H-M "P -4"
_symmetry_group_IT_number 81
_symmetry_cell_setting 'tetragonal'
loop_
_space_group_symop_operation_xyz
x,y,z
y,-x,-z
-x,-y,z
-y,x,-z
loop_
_atom_site_type_symbol
_atom_site_label
_atom_site_fract_x
_atom_site_fract_y
_atom_site_fract_z
Si Si1 0.979306 0.168687 0.048832
Si Si2 0.000000 0.500000 0.626687
Si Si3 0.681115 0.678804 0.251248
Si Si4 0.082930 0.716939 0.565907
Si Si5 0.761018 0.554241 0.755556
O O1 0.939367 0.196548 0.341020
O O2 0.987406 0.265924 0.836412
O O3 0.092218 0.109875 0.088083
O O4 0.039795 0.601964 0.449955
O O5 0.110168 0.469744 0.789104
O O6 0.724016 0.792675 0.356773
O O7 0.723173 0.591489 0.463120
O O8 0.552892 0.688384 0.199750
O O9 0.732505 0.646548 0.968892
#
# Coordination Sequence:
#
# PCOD8302303 Si02
#       5
#     4   2   4   4   4
#     4  11  25  43  68 102 136 174 232 284 349 422
#     4  10  28  46  70 102 144 182 238 288 354 414
#     4  11  25  43  71 102 139 179 240 280 356 414
#     4  11  25  44  70 102 135 189 227 285 347 418
#     4  11  25  46  70 103 139 183 230 295 346 424
#
# _framework density 23.425208999999999
#
# number of rings (size 3 to 8) (size 9 to 14) (size 15 to 20)
#    0.000    1.111    0.000    4.000    9.333   11.556 
#    0.000    0.000    0.000    0.000    0.000    0.000 
#    0.000    0.000    0.000    0.000    0.000    0.000 
#
# Total GULP energy -223089.997668 kJ/mol
# GULP energy per Si atom -12393.888759 kJ/mol
# Density = 2.337189 g / cm^3
# Si number density = 23.425209 Si / 1000 Ang^3
#
#
#
# Elastic Constant Matrix: (Units=GPa)
#
#
# Indices 1 2 3 4 5 6 
#
# 1 94.6765 65.7868 21.1736 0.0000 0.0000 6.2244
# 2 65.7868 94.6765 21.1736 0.0000 0.0000 -6.2244
# 3 21.1736 21.1736 101.5024 0.0000 0.0000 0.0000
# 4 0.0000 0.0000 0.0000 15.1505 0.0000 0.0000
# 5 0.0000 0.0000 0.0000 0.0000 15.1505 0.0000
# 6 6.2244 -6.2244 0.0000 0.0000 0.0000 37.7383
#
#
#
# Elastic Compliance Matrix: (Units=1/GPa)
#
#
# Indices 1 2 3 4 5 6 
#
# 1 0.021929 -0.015334 -0.001376 0.000000 0.000000 -0.006146
# 2 -0.015334 0.021929 -0.001376 0.000000 0.000000 0.006146
# 3 -0.001376 -0.001376 0.010426 0.000000 0.000000 0.000000
# 4 0.000000 0.000000 0.000000 0.066005 0.000000 0.000000
# 5 0.000000 0.000000 0.000000 0.000000 0.066005 0.000000
# 6 -0.006146 0.006146 0.000000 0.000000 0.000000 0.028526
#
#
# Mechanical properties :
#
#
# Convention : Reuss Voigt Hill
#
# Bulk Modulus (GPa) = 55.20884 56.34706 55.77795
# Shear Modulus (GPa) = 19.45320 25.78925 22.62122
#
# Velocity S-wave (km/s) = 2.88486 3.32161 3.11091
# Velocity P-wave (km/s) = 5.89202 6.23033 6.06353
#
# Compressibility (1/GPa) = 0.01811304
#
# Stress axis : x y z
#
# Youngs Moduli (GPa) = 45.60191 45.60191 95.91453
#
# Poissons Ratio (x) = 0.69925 0.13195
# Poissons Ratio (y) = 0.69925 0.13195
# Poissons Ratio (z) = 0.06274 0.06274
#
# Static dielectric constant tensor:
#      x y z
#    x 4.427510 0.000000 0.000000 
#    y 0.000000 4.427510 0.000000 
#    z 0.000000 0.000000 3.875240 
# 
# 
# High freq. dielectric constant tensor:
#      x y z
#    x 1.943330 0.000000 0.000000 
#    y 0.000000 1.943330 0.000000 
#    z 0.000000 0.000000 1.915830 
# 
# From -- ./inp_files/183.got.cif
#   From: 2010.03.12/outbox.cif.g09.slc.cpg/sg81_cif.got.tgz:183.got - 2010.04.08 20:01:38.
