data_PCOD8302439
_publ_section_title
;
Structure prediction by ZEFSAII (Michael W. Deem and Ramdas Pophale) SiO2 
 PCOD8302439
Probable space group: I -4 
;
_chemical_formula_sum "Si O2"
_cell_formula_units_Z 56
_cell_length_a 14.767006
_cell_length_b 14.767006
_cell_length_c 11.664624
_cell_angle_alpha 90.000000
_cell_angle_beta 90.000000
_cell_angle_gamma 90.000000
_cell_volume 2543.640006
_symmetry_space_group_name_H-M "I -4 "
_symmetry_group_IT_number 82
_symmetry_cell_setting 'tetragonal'
loop_
_space_group_symop_operation_xyz
x,y,z
y,-x,-z
-x,-y,z
-y,x,-z
1/2+x,1/2+y,1/2+z
1/2+y,1/2-x,1/2-z
1/2-x,1/2-y,1/2+z
1/2-y,1/2+x,1/2-z
loop_
_atom_site_type_symbol
_atom_site_label
_atom_site_fract_x
_atom_site_fract_y
_atom_site_fract_z
Si Si1 0.496679 0.282467 0.628920
Si Si2 0.178750 0.818423 0.005482
Si Si3 0.635649 0.187406 0.118105
Si Si4 0.199597 0.971101 0.425401
Si Si5 0.137958 0.648243 0.874796
Si Si6 0.022636 0.401315 0.032435
Si Si7 0.102948 0.027614 0.655242
O O1 0.592162 0.316997 0.585180
O O2 0.419717 0.312528 0.540394
O O3 0.491479 0.172338 0.634623
O O4 0.486535 0.327953 0.752190
O O5 0.167293 0.751415 0.898176
O O6 0.262885 0.784993 0.083163
O O7 0.570725 0.276128 0.126469
O O8 0.636398 0.133695 0.238399
O O9 0.597252 0.124296 0.016176
O O10 0.141036 0.984953 0.539145
O O11 0.293814 0.919053 0.440067
O O12 0.137423 0.905543 0.345152
O O13 0.039561 0.626929 0.924867
O O14 0.000000 0.500000 0.083002
O O15 0.000000 0.000000 0.678939
#
# Coordination Sequence:
#
# PCOD8302439 Si02
#       7
#     8   8   8   8   8   8   8
#     4  10  25  43  67  95 146 187 237 295 355 435
#     4  10  24  41  62 102 138 188 243 283 359 429
#     4  11  23  40  70 102 141 184 237 293 359 418
#     4  12  23  44  68 104 138 172 236 306 337 434
#     4  11  23  38  70  99 139 183 230 300 356 410
#     4  10  21  44  67 104 136 183 237 288 350 432
#     4  12  26  44  68 102 133 183 234 287 370 404
#
# _framework density 22.015695000000001
#
# number of rings (size 3 to 8) (size 9 to 14) (size 15 to 20)
#    0.000    1.143    2.857    2.571    4.000    1.143 
#    0.000    4.286    3.143    0.000    0.000    0.000 
#    0.000    0.000    0.000    0.000    0.000    0.000 
#
# Total GULP energy -347142.050316 kJ/mol
# GULP energy per Si atom -12397.930368 kJ/mol
# Density = 2.196559 g / cm^3
# Si number density = 22.015695 Si / 1000 Ang^3
#
#
#
# Elastic Constant Matrix: (Units=GPa)
#
#
# Indices 1 2 3 4 5 6 
#
# 1 103.2232 10.3682 36.0809 0.0000 0.0000 -0.6088
# 2 10.3682 103.2232 36.0809 0.0000 0.0000 0.6088
# 3 36.0809 36.0809 78.5153 0.0000 0.0000 0.0000
# 4 0.0000 0.0000 0.0000 25.8698 0.0000 0.0000
# 5 0.0000 0.0000 0.0000 0.0000 25.8698 0.0000
# 6 -0.6088 0.6088 0.0000 0.0000 0.0000 42.1787
#
#
#
# Elastic Compliance Matrix: (Units=1/GPa)
#
#
# Indices 1 2 3 4 5 6 
#
# 1 0.011602 0.000831 -0.005714 0.000000 0.000000 0.000155
# 2 0.000831 0.011602 -0.005714 0.000000 0.000000 -0.000155
# 3 -0.005714 -0.005714 0.017988 0.000000 0.000000 0.000000
# 4 0.000000 0.000000 0.000000 0.038655 0.000000 0.000000
# 5 0.000000 0.000000 0.000000 0.000000 0.038655 0.000000
# 6 0.000155 -0.000155 0.000000 0.000000 0.000000 0.023713
#
#
# Mechanical properties :
#
#
# Convention : Reuss Voigt Hill
#
# Bulk Modulus (GPa) = 50.00064 50.00242 50.00153
# Shear Modulus (GPa) = 29.39888 32.27913 30.83901
#
# Velocity S-wave (km/s) = 3.65822 3.83324 3.74675
# Velocity P-wave (km/s) = 6.37214 6.50792 6.44039
#
# Compressibility (1/GPa) = 0.01999974
#
# Stress axis : x y z
#
# Youngs Moduli (GPa) = 86.18961 86.18961 55.59398
#
# Poissons Ratio (x) = -0.07161 0.31764
# Poissons Ratio (y) = -0.07161 0.31764
# Poissons Ratio (z) = 0.49245 0.49245
#
# Static dielectric constant tensor:
#      x y z
#    x 4.218350 0.000000 0.000000 
#    y 0.000000 4.218350 0.000000 
#    z 0.000000 0.000000 3.588420 
# 
# 
# High freq. dielectric constant tensor:
#      x y z
#    x 1.882140 0.000000 0.000000 
#    y 0.000000 1.882140 0.000000 
#    z 0.000000 0.000000 1.836520 
# 
# From -- ./inp_files/1857.got.cif
#   From: 2010.03.12/outbox.cif.g09.slc.cpg/sg82_1_cif.got.tgz:1857.got - 2010.04.08 20:02:50.
