data_PCOD8302684
_publ_section_title
;
Structure prediction by ZEFSAII (Michael W. Deem and Ramdas Pophale) SiO2 
 PCOD8302684
Probable space group: P 4/M
;
_chemical_formula_sum "Si O2"
_cell_formula_units_Z 40
_cell_length_a 15.696969
_cell_length_b 15.696969
_cell_length_c 9.090441
_cell_angle_alpha 90.000000
_cell_angle_beta 90.000000
_cell_angle_gamma 90.000000
_cell_volume 2239.837717
_symmetry_space_group_name_H-M "P 4/M"
_symmetry_group_IT_number 83
_symmetry_cell_setting 'tetragonal'
loop_
_space_group_symop_operation_xyz
x,y,z
-y,x,z
-x,-y,z
y,-x,z
-x,-y,-z
y,-x,-z
x,y,-z
-y,x,-z
loop_
_atom_site_type_symbol
_atom_site_label
_atom_site_fract_x
_atom_site_fract_y
_atom_site_fract_z
Si Si1 0.815902 0.553627 0.326993
Si Si2 0.540745 0.372921 0.674639
Si Si3 0.307459 0.953700 0.673051
Si Si4 0.071666 0.571410 0.165583
Si Si5 0.962278 0.866467 0.830071
O O1 0.820679 0.536252 0.500000
O O2 0.719875 0.570494 0.270180
O O3 0.871718 0.635777 0.283654
O O4 0.847102 0.467195 0.248754
O O5 0.605921 0.445091 0.732845
O O6 0.539535 0.374141 0.500000
O O7 0.307342 0.969514 0.500000
O O8 0.212404 0.936609 0.728415
O O9 0.344960 0.038119 0.750291
O O10 0.000000 0.500000 0.166746
O O11 0.096859 0.597527 0.000000
O O12 0.057902 0.896676 0.793934
O O13 0.955204 0.839527 0.000000
#
# Coordination Sequence:
#
# PCOD8302684 Si02
#       5
#     8   8   8   8   8
#     4   9  17  30  48  74 105 131 163 210 257 297
#     4   8  14  27  48  71  97 133 170 200 240 297
#     4  10  19  31  49  75 106 133 162 208 259 301
#     4   9  17  30  49  70  96 133 170 201 243 301
#     4   9  19  37  57  73  96 134 173 207 249 304
#
# _framework density 17.858436999999999
#
# number of rings (size 3 to 8) (size 9 to 14) (size 15 to 20)
#    0.000    3.000    0.000    2.400    0.000    4.000 
#    3.600    1.000    0.000    1.200    0.000    1.400 
#    0.000    0.000    0.000    0.000    0.000    0.000 
#
# Total GULP energy -495886.181920 kJ/mol
# GULP energy per Si atom -12397.154548 kJ/mol
# Density = 1.781779 g / cm^3
# Si number density = 17.858437 Si / 1000 Ang^3
#
#
#
# Elastic Constant Matrix: (Units=GPa)
#
#
# Indices 1 2 3 4 5 6 
#
# 1 108.4017 44.8964 38.2147 0.0000 0.0000 -0.1494
# 2 44.8964 108.4017 38.2147 0.0000 0.0000 0.1494
# 3 38.2147 38.2147 65.4211 0.0000 0.0000 0.0000
# 4 0.0000 0.0000 0.0000 23.4957 0.0000 0.0000
# 5 0.0000 0.0000 0.0000 0.0000 23.4957 0.0000
# 6 -0.1494 0.1494 0.0000 0.0000 0.0000 16.5498
#
#
#
# Elastic Compliance Matrix: (Units=1/GPa)
#
#
# Indices 1 2 3 4 5 6 
#
# 1 0.012475 -0.003272 -0.005376 0.000000 0.000000 0.000142
# 2 -0.003272 0.012475 -0.005376 0.000000 0.000000 -0.000142
# 3 -0.005376 -0.005376 0.021566 0.000000 0.000000 0.000000
# 4 0.000000 0.000000 0.000000 0.042561 0.000000 0.000000
# 5 0.000000 0.000000 0.000000 0.000000 0.042561 0.000000
# 6 0.000142 -0.000142 0.000000 0.000000 0.000000 0.060426
#
#
# Mechanical properties :
#
#
# Convention : Reuss Voigt Hill
#
# Bulk Modulus (GPa) = 54.14474 58.31956 56.23215
# Shear Modulus (GPa) = 22.09747 23.43483 22.76615
#
# Velocity S-wave (km/s) = 3.52144 3.62644 3.57432
# Velocity P-wave (km/s) = 6.84973 7.08958 6.97069
#
# Compressibility (1/GPa) = 0.01846901
#
# Stress axis : x y z
#
# Youngs Moduli (GPa) = 80.15712 80.15712 46.36851
#
# Poissons Ratio (x) = 0.26227 0.24928
# Poissons Ratio (y) = 0.26227 0.24928
# Poissons Ratio (z) = 0.43094 0.43094
#
# Static dielectric constant tensor:
#      x y z
#    x 3.341840 0.000000 0.000000 
#    y 0.000000 3.341840 0.000000 
#    z 0.000000 0.000000 3.144270 
# 
# 
# High freq. dielectric constant tensor:
#      x y z
#    x 1.683060 0.000000 0.000000 
#    y 0.000000 1.683060 0.000000 
#    z 0.000000 0.000000 1.673090 
# 
# From -- ./inp_files/639.got.cif
#   From: 2010.03.12/outbox.cif.g09.slc.cpg/sg83_1_cif.got.tgz:639.got - 2010.04.08 20:05:18.
