data_PCOD8302119
_publ_section_title
;
Structure prediction by ZEFSAII (Michael W. Deem and Ramdas Pophale) SiO2 
 PCOD8302119
Probable space group: I 4
;
_chemical_formula_sum "Si O2"
_cell_formula_units_Z 60
_cell_length_a 11.737620
_cell_length_b 11.737620
_cell_length_c 22.123147
_cell_angle_alpha 90.000000
_cell_angle_beta 90.000000
_cell_angle_gamma 90.000000
_cell_volume 3047.944086
_symmetry_space_group_name_H-M "I 4"
_symmetry_group_IT_number 79
_symmetry_cell_setting 'tetragonal'
loop_
_space_group_symop_operation_xyz
x,y,z
-y,x,z
-x,-y,z
y,-x,z
1/2+x,1/2+y,1/2+z
1/2-y,1/2+x,1/2+z
1/2-x,1/2-y,1/2+z
1/2+y,1/2-x,1/2+z
loop_
_atom_site_type_symbol
_atom_site_label
_atom_site_fract_x
_atom_site_fract_y
_atom_site_fract_z
Si Si1 0.723812 0.063258 0.173680
Si Si2 0.909888 0.167214 0.368421
Si Si3 0.669550 0.425291 0.191631
Si Si4 0.744134 0.833669 0.494031
Si Si5 0.000000 0.500000 0.118421
Si Si6 0.330450 0.574710 0.545212
Si Si7 0.063258 0.276188 0.563162
Si Si8 0.166331 0.744134 0.242812
O O1 0.589124 0.070078 0.159184
O O2 0.798563 0.092555 0.115113
O O3 0.745698 0.156843 0.224832
O O4 0.757245 0.940525 0.198668
O O5 0.872277 0.241917 0.425385
O O6 0.872277 0.241917 0.311457
O O7 0.045461 0.151743 0.368421
O O8 0.648562 0.557107 0.205991
O O9 0.701437 0.407445 0.121730
O O10 0.771786 0.377851 0.233802
O O11 0.622149 0.771786 0.503040
O O12 0.843157 0.745698 0.512010
O O13 0.757245 0.940525 0.538174
O O14 0.089124 0.570078 0.077658
O O15 0.351438 0.442893 0.530852
#
# Coordination Sequence:
#
# PCOD8302119 Si02
#       8
#     8   8   8   8   4   8   8   8
#     4  12  22  37  63  95 134 166 209 262 325 377
#     4  11  24  44  66  91 128 174 216 262 311 378
#     4  11  23  40  63  94 132 171 209 259 325 391
#     4  12  24  40  64  96 130 169 213 266 314 383
#     4  12  24  36  60 102 136 168 196 268 338 372
#     4  11  23  40  63  94 132 171 209 259 325 391
#     4  12  22  37  63  95 134 166 209 262 325 377
#     4  12  24  40  64  96 130 169 213 266 314 383
#
# _framework density 19.685400999999999
#
# number of rings (size 3 to 8) (size 9 to 14) (size 15 to 20)
#    0.000    0.400    8.000    2.400    0.000    0.533 
#    0.000    1.333    0.000    4.800    0.000    0.000 
#    0.000    0.000    0.000    0.000    0.000    0.000 
#
# Total GULP energy -372135.092366 kJ/mol
# GULP energy per Si atom -12404.503079 kJ/mol
# Density = 1.964060 g / cm^3
# Si number density = 19.685401 Si / 1000 Ang^3
#
#
#
# Elastic Constant Matrix: (Units=GPa)
#
#
# Indices 1 2 3 4 5 6 
#
# 1 97.3934 32.4377 44.8878 0.0000 0.0000 4.7874
# 2 32.4377 97.3934 44.8878 0.0000 0.0000 -4.7874
# 3 44.8878 44.8878 113.0067 0.0000 0.0000 0.0000
# 4 0.0000 0.0000 0.0000 26.4090 0.0000 0.0000
# 5 0.0000 0.0000 0.0000 0.0000 26.4090 0.0000
# 6 4.7874 -4.7874 0.0000 0.0000 0.0000 36.8343
#
#
#
# Elastic Compliance Matrix: (Units=1/GPa)
#
#
# Indices 1 2 3 4 5 6 
#
# 1 0.013157 -0.002538 -0.004218 0.000000 0.000000 -0.002040
# 2 -0.002538 0.013157 -0.004218 0.000000 0.000000 0.002040
# 3 -0.004218 -0.004218 0.012200 0.000000 0.000000 0.000000
# 4 0.000000 0.000000 0.000000 0.037866 0.000000 0.000000
# 5 0.000000 0.000000 0.000000 0.000000 0.037866 0.000000
# 6 -0.002040 0.002040 0.000000 0.000000 0.000000 0.027679
#
#
# Mechanical properties :
#
#
# Convention : Reuss Voigt Hill
#
# Bulk Modulus (GPa) = 60.36505 61.35778 60.86141
# Shear Modulus (GPa) = 29.51661 30.30248 29.90954
#
# Velocity S-wave (km/s) = 3.87643 3.92770 3.90215
# Velocity P-wave (km/s) = 7.12510 7.19763 7.16146
#
# Compressibility (1/GPa) = 0.01656588
#
# Stress axis : x y z
#
# Youngs Moduli (GPa) = 76.00294 76.00294 81.96775
#
# Poissons Ratio (x) = 0.19293 0.34574
# Poissons Ratio (y) = 0.19293 0.34574
# Poissons Ratio (z) = 0.32058 0.32058
#
# Static dielectric constant tensor:
#      x y z
#    x 3.710690 0.000000 0.000000 
#    y 0.000000 3.710690 0.000000 
#    z 0.000000 0.000000 3.310510 
# 
# 
# High freq. dielectric constant tensor:
#      x y z
#    x 1.778860 0.000000 0.000000 
#    y 0.000000 1.778860 0.000000 
#    z 0.000000 0.000000 1.732700 
# 
# From -- ./inp_files/1860.got.cif
#   From: 2010.03.12/outbox.cif.g09.slc.cpg/sg79_cif.got.tgz:1860.got - 2010.04.16 16:38:49.
