data_PCOD8302919
_publ_section_title
;
Structure prediction by ZEFSAII (Michael W. Deem and Ramdas Pophale) SiO2 
 PCOD8302919
Probable space group: P 4/M
;
_chemical_formula_sum "Si O2"
_cell_formula_units_Z 48
_cell_length_a 9.524408
_cell_length_b 9.524408
_cell_length_c 28.535494
_cell_angle_alpha 90.000000
_cell_angle_beta 90.000000
_cell_angle_gamma 90.000000
_cell_volume 2588.578726
_symmetry_space_group_name_H-M "P 4/M"
_symmetry_group_IT_number 83
_symmetry_cell_setting 'tetragonal'
loop_
_space_group_symop_operation_xyz
x,y,z
-y,x,z
-x,-y,z
y,-x,z
-x,-y,-z
y,-x,-z
x,y,-z
-y,x,-z
loop_
_atom_site_type_symbol
_atom_site_label
_atom_site_fract_x
_atom_site_fract_y
_atom_site_fract_z
Si Si1 0.372126 0.148921 0.256634
Si Si2 0.693951 0.618225 0.054906
Si Si3 0.859622 0.666530 0.779763
Si Si4 0.544284 0.729285 0.349607
Si Si5 0.727876 0.455490 0.549445
Si Si6 0.201627 0.884722 0.119139
O O1 0.269475 0.278393 0.250519
O O2 0.498180 0.156950 0.218485
O O3 0.434132 0.154195 0.309273
O O4 0.290832 0.003174 0.247080
O O5 0.546043 0.689985 0.068917
O O6 0.823004 0.692582 0.080777
O O7 0.720746 0.634428 0.000000
O O8 0.850996 0.735220 0.830447
O O9 0.391192 0.661442 0.344640
O O10 0.560450 0.808424 0.400593
O O11 0.660798 0.608203 0.549160
O O12 0.816207 0.437827 0.500000
O O13 0.051440 0.810478 0.112746
#
# Coordination Sequence:
#
# PCOD8302919 Si02
#       6
#     8   8   8   8   8   8
#     4  11  22  37  55  79 110 147 188 227 279 332
#     4   9  21  42  66  94 125 154 189 234 280 326
#     4  11  24  38  56  81 111 147 187 232 278 328
#     4   9  15  26  46  72 104 141 180 229 280 328
#     4   7  10  17  33  62  98 133 171 217 274 333
#     4  11  24  41  61  85 117 155 191 233 280 332
#
# _framework density 18.542992999999999
#
# number of rings (size 3 to 8) (size 9 to 14) (size 15 to 20)
#    0.000    2.333    3.333    2.000    2.333    2.000 
#    0.000    2.500    0.000    0.000    0.000    3.500 
#    0.000    0.000    0.000    1.500    0.000    0.000 
#
# Total GULP energy -594693.289467 kJ/mol
# GULP energy per Si atom -12389.443531 kJ/mol
# Density = 1.850079 g / cm^3
# Si number density = 18.542993 Si / 1000 Ang^3
#
#
#
# Elastic Constant Matrix: (Units=GPa)
#
#
# Indices 1 2 3 4 5 6 
#
# 1 -206.3617 307.6335 41.5398 0.0000 0.0000 -25.9515
# 2 307.6335 -206.3617 41.5398 0.0000 0.0000 25.9515
# 3 41.5398 41.5398 122.5571 0.0000 0.0000 0.0000
# 4 0.0000 0.0000 0.0000 9.7949 0.0000 0.0000
# 5 0.0000 0.0000 0.0000 0.0000 9.7949 0.0000
# 6 -25.9515 25.9515 0.0000 0.0000 0.0000 27.0536
#
#
#
# Elastic Compliance Matrix: (Units=1/GPa)
#
#
# Indices 1 2 3 4 5 6 
#
# 1 0.005952 0.007726 -0.004636 0.000000 0.000000 -0.001701
# 2 0.007726 0.005952 -0.004636 0.000000 0.000000 0.001701
# 3 -0.004636 -0.004636 0.011302 0.000000 0.000000 0.000000
# 4 0.000000 0.000000 0.000000 0.102094 0.000000 0.000000
# 5 0.000000 0.000000 0.000000 0.000000 0.102094 0.000000
# 6 -0.001701 0.001701 0.000000 0.000000 0.000000 0.033699
#
#
# Mechanical properties :
#
#
# Convention : Reuss Voigt Hill
#
# Bulk Modulus (GPa) = 49.71775 54.58445 52.15110
# Shear Modulus (GPa) = 18.45774 -36.06326 -8.80276
#
# Velocity S-wave (km/s) = 3.15842 -4.41482 -2.18117
# Velocity P-wave (km/s) = 6.33808 1.87431 4.67356
#
# Compressibility (1/GPa) = 0.02011354
#
# Stress axis : x y z
#
# Youngs Moduli (GPa) = 168.01352 168.01352 88.47938
#
# Poissons Ratio (x) = -1.29801 0.41018
# Poissons Ratio (y) = -1.29801 0.41018
# Poissons Ratio (z) = 0.77889 0.77889
#
# Static dielectric constant tensor:
#      x y z
#    x 3.196340 0.000000 0.000000 
#    y 0.000000 3.196340 0.000000 
#    z 0.000000 0.000000 3.739560 
# 
# 
# High freq. dielectric constant tensor:
#      x y z
#    x 1.695810 0.000000 0.000000 
#    y 0.000000 1.695810 0.000000 
#    z 0.000000 0.000000 1.735250 
# 
# From -- ./inp_files/3416.got.cif
#   From: 2010.03.12/outbox.cif.g09.slc.cpg/sg83_2_cif.got.tgz:3416.got - 2010.04.08 20:05:18.
