data_PCOD8302666
_publ_section_title
;
Structure prediction by ZEFSAII (Michael W. Deem and Ramdas Pophale) SiO2 
 PCOD8302666
Probable space group: P 4/M
;
_chemical_formula_sum "Si O2"
_cell_formula_units_Z 64
_cell_length_a 20.162769
_cell_length_b 20.162769
_cell_length_c 9.026464
_cell_angle_alpha 90.000000
_cell_angle_beta 90.000000
_cell_angle_gamma 90.000000
_cell_volume 3669.593886
_symmetry_space_group_name_H-M "P 4/M"
_symmetry_group_IT_number 83
_symmetry_cell_setting 'tetragonal'
loop_
_space_group_symop_operation_xyz
x,y,z
-y,x,z
-x,-y,z
y,-x,z
-x,-y,-z
y,-x,-z
x,y,-z
-y,x,-z
loop_
_atom_site_type_symbol
_atom_site_label
_atom_site_fract_x
_atom_site_fract_y
_atom_site_fract_z
Si Si1 0.074014 0.926000 0.175911
Si Si2 0.317908 0.824039 0.325611
Si Si3 0.425714 0.425686 0.175125
Si Si4 0.824063 0.317885 0.325620
Si Si5 0.672954 0.327067 0.330271
Si Si6 0.073993 0.426396 0.675949
Si Si7 0.926028 0.426375 0.675949
Si Si8 0.180134 0.180155 0.823517
O O1 0.126893 0.873132 0.236855
O O2 0.000009 0.907132 0.232294
O O3 0.074930 0.925083 0.000000
O O4 0.304201 0.833267 0.500000
O O5 0.342197 0.749512 0.292568
O O6 0.374016 0.873133 0.261893
O O7 0.251237 0.841497 0.238761
O O8 0.500017 0.407397 0.230298
O O9 0.373344 0.373292 0.233770
O O10 0.423369 0.423341 0.000000
O O11 0.833308 0.304165 0.500000
O O12 0.749541 0.342206 0.292633
O O13 0.873169 0.373980 0.261890
O O14 0.841487 0.251217 0.238732
O O15 0.657205 0.342791 0.500000
O O16 0.077357 0.427047 0.500000
O O17 0.091442 0.500013 0.736018
O O18 0.000013 0.406079 0.728298
O O19 0.922659 0.427026 0.500000
O O20 0.182984 0.183016 0.000000
#
# Coordination Sequence:
#
# PCOD8302666 Si02
#       8
#     8   8   8   8   8   8   8   8
#     4   8  15  29  47  66  90 121 157 195 232 270
#     4   9  18  32  48  68  96 125 151 185 229 271
#     4   9  19  35  51  67  90 119 149 184 229 278
#     4   9  18  32  48  68  96 125 151 185 229 271
#     4   9  18  30  45  67  93 121 154 190 225 263
#     4   8  14  26  46  71  95 120 153 189 223 265
#     4   8  14  26  46  71  95 120 153 189 223 265
#     4  10  19  30  47  70  93 119 154 193 229 271
#
# _framework density 17.440622999999999
#
# number of rings (size 3 to 8) (size 9 to 14) (size 15 to 20)
#    0.000    3.250    0.000    2.625    0.000    4.500 
#    0.000    3.125    0.000    3.000    0.000    5.250 
#    0.000    0.000    0.000    0.000    0.000    0.000 
#
# Total GULP energy -793299.362211 kJ/mol
# GULP energy per Si atom -12395.302535 kJ/mol
# Density = 1.740093 g / cm^3
# Si number density = 17.440623 Si / 1000 Ang^3
#
#
#
# Elastic Constant Matrix: (Units=GPa)
#
#
# Indices 1 2 3 4 5 6 
#
# 1 142.8323 116.0900 32.1451 0.0000 0.0000 0.0015
# 2 116.0900 142.8323 32.1451 0.0000 0.0000 -0.0015
# 3 32.1451 32.1451 31.2623 0.0000 0.0000 0.0000
# 4 0.0000 0.0000 0.0000 20.5099 0.0000 0.0000
# 5 0.0000 0.0000 0.0000 0.0000 20.5099 0.0000
# 6 0.0015 -0.0015 0.0000 0.0000 0.0000 44.0216
#
#
#
# Elastic Compliance Matrix: (Units=1/GPa)
#
#
# Indices 1 2 3 4 5 6 
#
# 1 0.021290 -0.016104 -0.005333 0.000000 0.000000 -0.000001
# 2 -0.016104 0.021290 -0.005333 0.000000 0.000000 0.000001
# 3 -0.005333 -0.005333 0.042954 0.000000 0.000000 0.000000
# 4 0.000000 0.000000 0.000000 0.048757 0.000000 0.000000
# 5 0.000000 0.000000 0.000000 0.000000 0.048757 0.000000
# 6 -0.000001 0.000001 0.000000 0.000000 0.000000 0.022716
#
#
# Mechanical properties :
#
#
# Convention : Reuss Voigt Hill
#
# Bulk Modulus (GPa) = 31.25421 75.29858 53.27640
# Shear Modulus (GPa) = 18.52071 26.11140 22.31605
#
# Velocity S-wave (km/s) = 3.26226 3.87351 3.58095
# Velocity P-wave (km/s) = 5.67001 7.95446 6.90733
#
# Compressibility (1/GPa) = 0.03199569
#
# Stress axis : x y z
#
# Youngs Moduli (GPa) = 46.97019 46.97019 23.28070
#
# Poissons Ratio (x) = 0.75640 0.12415
# Poissons Ratio (y) = 0.75640 0.12415
# Poissons Ratio (z) = 0.25048 0.25048
#
# Static dielectric constant tensor:
#      x y z
#    x 3.489350 0.000000 0.000000 
#    y 0.000000 3.489350 0.000000 
#    z 0.000000 0.000000 2.814950 
# 
# 
# High freq. dielectric constant tensor:
#      x y z
#    x 1.680000 0.000000 0.000000 
#    y 0.000000 1.680000 0.000000 
#    z 0.000000 0.000000 1.632230 
# 
# From -- ./inp_files/1303.got.cif
#   From: 2010.03.12/outbox.cif.g09.slc.cpg/sg83_1_cif.got.tgz:1303.got - 2010.04.08 20:05:18.
