data_PCOD8302287
_publ_section_title
;
Structure prediction by ZEFSAII (Michael W. Deem and Ramdas Pophale) SiO2 
 PCOD8302287
Probable space group: P -4
;
_chemical_formula_sum "Si O2"
_cell_formula_units_Z 27
_cell_length_a 8.885130
_cell_length_b 8.885130
_cell_length_c 17.261617
_cell_angle_alpha 90.000000
_cell_angle_beta 90.000000
_cell_angle_gamma 90.000000
_cell_volume 1362.727591
_symmetry_space_group_name_H-M "P -4"
_symmetry_group_IT_number 81
_symmetry_cell_setting 'tetragonal'
loop_
_space_group_symop_operation_xyz
x,y,z
y,-x,-z
-x,-y,z
-y,x,-z
loop_
_atom_site_type_symbol
_atom_site_label
_atom_site_fract_x
_atom_site_fract_y
_atom_site_fract_z
Si Si1 0.648175 0.078433 0.275842
Si Si2 0.773340 0.685655 0.563367
Si Si3 0.666018 0.021870 0.585938
Si Si4 0.500000 0.000000 0.917230
Si Si5 0.840159 0.250536 0.168965
Si Si6 0.074942 0.220838 0.981602
Si Si7 0.500000 0.500000 0.500000
Si Si8 0.089770 0.134909 0.278811
O O1 0.627238 0.127198 0.364823
O O2 0.710316 0.232618 0.234498
O O3 0.500000 0.000000 0.242622
O O4 0.753480 0.936837 0.255555
O O5 0.877076 0.664363 0.489469
O O6 0.620818 0.587178 0.554295
O O7 0.741860 0.861642 0.571302
O O8 0.739853 0.113137 0.656276
O O9 0.500000 0.000000 0.617013
O O10 0.418912 0.127336 0.863175
O O11 0.622317 0.083330 0.971448
O O12 0.769643 0.146616 0.102522
O O13 0.999889 0.191792 0.202597
O O14 0.902646 0.168684 0.969712
O O15 0.000000 0.000000 0.320862
#
# Coordination Sequence:
#
# PCOD8302287 Si02
#       8
#     4   4   4   2   4   4   1   4
#     4  11  25  41  66  98 134 173 221 279 345 395
#     4  12  25  43  63  92 127 177 227 282 340 402
#     4  12  24  39  63  91 123 171 225 280 330 393
#     4  10  22  38  68 100 134 164 216 274 330 400
#     4  10  22  41  65  99 132 169 217 274 325 403
#     4   9  20  37  66  96 122 170 214 262 319 391
#     4  12  28  44  64  88 132 172 230 272 360 428
#     4  10  22  40  62  94 123 166 223 275 318 391
#
# _framework density 19.813206999999998
#
# number of rings (size 3 to 8) (size 9 to 14) (size 15 to 20)
#    0.000    1.333    4.444    1.333   16.593    0.000 
#    0.000    0.000    0.000   14.222    0.000    0.000 
#    0.000    0.000    0.000    0.000    0.000    0.000 
#
# Total GULP energy -334523.145872 kJ/mol
# GULP energy per Si atom -12389.746143 kJ/mol
# Density = 1.976811 g / cm^3
# Si number density = 19.813207 Si / 1000 Ang^3
#
#
#
# Elastic Constant Matrix: (Units=GPa)
#
#
# Indices 1 2 3 4 5 6 
#
# 1 119.5367 42.3859 44.0691 0.0000 0.0000 5.0425
# 2 42.3859 119.5367 44.0691 0.0000 0.0000 -5.0425
# 3 44.0691 44.0691 102.9558 0.0000 0.0000 0.0000
# 4 0.0000 0.0000 0.0000 35.8296 0.0000 0.0000
# 5 0.0000 0.0000 0.0000 0.0000 35.8296 0.0000
# 6 5.0425 -5.0425 0.0000 0.0000 0.0000 23.2430
#
#
#
# Elastic Compliance Matrix: (Units=1/GPa)
#
#
# Indices 1 2 3 4 5 6 
#
# 1 0.010696 -0.002644 -0.003446 0.000000 0.000000 -0.002894
# 2 -0.002644 0.010696 -0.003446 0.000000 0.000000 0.002894
# 3 -0.003446 -0.003446 0.012663 0.000000 0.000000 0.000000
# 4 0.000000 0.000000 0.000000 0.027910 0.000000 0.000000
# 5 0.000000 0.000000 0.000000 0.000000 0.027910 0.000000
# 6 -0.002894 0.002894 0.000000 0.000000 0.000000 0.044279
#
#
# Mechanical properties :
#
#
# Convention : Reuss Voigt Hill
#
# Bulk Modulus (GPa) = 66.75114 67.00861 66.87988
# Shear Modulus (GPa) = 31.60118 33.08078 32.34098
#
# Velocity S-wave (km/s) = 3.99802 4.09055 4.04455
# Velocity P-wave (km/s) = 7.42129 7.49691 7.45920
#
# Compressibility (1/GPa) = 0.01498102
#
# Stress axis : x y z
#
# Youngs Moduli (GPa) = 93.49410 93.49410 78.96793
#
# Poissons Ratio (x) = 0.24721 0.27216
# Poissons Ratio (y) = 0.24721 0.27216
# Poissons Ratio (z) = 0.32223 0.32223
#
# Static dielectric constant tensor:
#      x y z
#    x 3.832190 0.000000 0.000000 
#    y 0.000000 3.832190 0.000000 
#    z 0.000000 0.000000 3.643550 
# 
# 
# High freq. dielectric constant tensor:
#      x y z
#    x 1.768140 0.000000 0.000000 
#    y 0.000000 1.768140 0.000000 
#    z 0.000000 0.000000 1.776530 
# 
# From -- ./inp_files/1792.got.cif
#   From: 2010.03.12/outbox.cif.g09.slc.cpg/sg81_cif.got.tgz:1792.got - 2010.04.08 20:01:38.
