data_PCOD8302527
_publ_section_title
;
Structure prediction by ZEFSAII (Michael W. Deem and Ramdas Pophale) SiO2 
 PCOD8302527
Probable space group: I -4 
;
_chemical_formula_sum "Si O2"
_cell_formula_units_Z 40
_cell_length_a 14.363661
_cell_length_b 14.363661
_cell_length_c 9.254589
_cell_angle_alpha 90.000000
_cell_angle_beta 90.000000
_cell_angle_gamma 90.000000
_cell_volume 1909.358284
_symmetry_space_group_name_H-M "I -4 "
_symmetry_group_IT_number 82
_symmetry_cell_setting 'tetragonal'
loop_
_space_group_symop_operation_xyz
x,y,z
y,-x,-z
-x,-y,z
-y,x,-z
1/2+x,1/2+y,1/2+z
1/2+y,1/2-x,1/2-z
1/2-x,1/2-y,1/2+z
1/2-y,1/2+x,1/2-z
loop_
_atom_site_type_symbol
_atom_site_label
_atom_site_fract_x
_atom_site_fract_y
_atom_site_fract_z
Si Si1 0.323668 0.657158 0.741939
Si Si2 0.186308 0.698456 0.500284
Si Si3 0.974764 0.835650 0.325078
Si Si4 0.447453 0.137695 0.721056
Si Si5 0.814150 0.964334 0.361935
O O1 0.280738 0.693562 0.592600
O O2 0.435455 0.651322 0.722230
O O3 0.282789 0.553820 0.770014
O O4 0.298641 0.725552 0.874519
O O5 0.159544 0.598310 0.434096
O O6 0.101826 0.726194 0.606626
O O7 0.939139 0.729124 0.319814
O O8 0.893034 0.905415 0.275698
O O9 0.000399 0.859276 0.489082
O O10 0.555140 0.108946 0.698319
#
# Coordination Sequence:
#
# PCOD8302527 Si02
#       5
#     8   8   8   8   8
#     4  11  24  42  70 101 136 180 231 282 346 413
#     4  11  24  44  68 102 135 184 225 287 346 408
#     4  11  21  40  70  97 131 182 227 283 336 418
#     4  11  23  43  68 100 135 184 234 274 345 417
#     4  11  21  39  69  97 131 176 232 278 346 407
#
# _framework density 20.949445999999998
#
# number of rings (size 3 to 8) (size 9 to 14) (size 15 to 20)
#    0.000    1.000    8.000    1.800    0.000    0.000 
#   10.800    0.000    0.000    0.000    0.000    0.000 
#    0.000    0.000    0.000    0.000    0.000    0.000 
#
# Total GULP energy -247985.199151 kJ/mol
# GULP energy per Si atom -12399.259958 kJ/mol
# Density = 2.090176 g / cm^3
# Si number density = 20.949446 Si / 1000 Ang^3
#
#
#
# Elastic Constant Matrix: (Units=GPa)
#
#
# Indices 1 2 3 4 5 6 
#
# 1 133.7728 36.5514 53.9238 0.0000 0.0000 -2.8919
# 2 36.5514 133.7728 53.9238 0.0000 0.0000 2.8919
# 3 53.9238 53.9238 68.1752 0.0000 0.0000 0.0000
# 4 0.0000 0.0000 0.0000 30.3619 0.0000 0.0000
# 5 0.0000 0.0000 0.0000 0.0000 30.3619 0.0000
# 6 -2.8919 2.8919 0.0000 0.0000 0.0000 28.5493
#
#
#
# Elastic Compliance Matrix: (Units=1/GPa)
#
#
# Indices 1 2 3 4 5 6 
#
# 1 0.011055 0.000707 -0.009303 0.000000 0.000000 0.001048
# 2 0.000707 0.011055 -0.009303 0.000000 0.000000 -0.001048
# 3 -0.009303 -0.009303 0.029385 0.000000 0.000000 0.000000
# 4 0.000000 0.000000 0.000000 0.032936 0.000000 0.000000
# 5 0.000000 0.000000 0.000000 0.000000 0.032936 0.000000
# 6 0.001048 -0.001048 0.000000 0.000000 0.000000 0.035239
#
#
# Mechanical properties :
#
#
# Convention : Reuss Voigt Hill
#
# Bulk Modulus (GPa) = 63.71039 69.39098 66.55069
# Shear Modulus (GPa) = 25.82153 30.60940 28.21547
#
# Velocity S-wave (km/s) = 3.51460 3.82659 3.67391
# Velocity P-wave (km/s) = 6.85182 7.26076 7.05925
#
# Compressibility (1/GPa) = 0.01569603
#
# Stress axis : x y z
#
# Youngs Moduli (GPa) = 90.45720 90.45720 34.03129
#
# Poissons Ratio (x) = -0.06393 0.31659
# Poissons Ratio (y) = -0.06393 0.31659
# Poissons Ratio (z) = 0.84153 0.84153
#
# Static dielectric constant tensor:
#      x y z
#    x 4.061120 0.000000 0.000000 
#    y 0.000000 4.061120 0.000000 
#    z 0.000000 0.000000 3.364390 
# 
# 
# High freq. dielectric constant tensor:
#      x y z
#    x 1.832390 0.000000 0.000000 
#    y 0.000000 1.832390 0.000000 
#    z 0.000000 0.000000 1.771950 
# 
# From -- ./inp_files/944.got.cif
#   From: 2010.03.12/outbox.cif.g09.slc.cpg/sg82_1_cif.got.tgz:944.got - 2010.04.08 20:02:50.
