data_PCOD8302893
_publ_section_title
;
Structure prediction by ZEFSAII (Michael W. Deem and Ramdas Pophale) SiO2 
 PCOD8302893
Probable space group: P 4/M
;
_chemical_formula_sum "Si O2"
_cell_formula_units_Z 36
_cell_length_a 14.536837
_cell_length_b 14.536837
_cell_length_c 8.043586
_cell_angle_alpha 90.000000
_cell_angle_beta 90.000000
_cell_angle_gamma 90.000000
_cell_volume 1699.767617
_symmetry_space_group_name_H-M "P 4/M"
_symmetry_group_IT_number 83
_symmetry_cell_setting 'tetragonal'
loop_
_space_group_symop_operation_xyz
x,y,z
-y,x,z
-x,-y,z
y,-x,z
-x,-y,-z
y,-x,-z
x,y,-z
-y,x,-z
loop_
_atom_site_type_symbol
_atom_site_label
_atom_site_fract_x
_atom_site_fract_y
_atom_site_fract_z
Si Si1 0.255901 0.378746 0.185835
Si Si2 0.515761 0.899459 0.810278
Si Si3 0.819466 0.296186 0.693002
Si Si4 0.943602 0.132893 0.302861
Si Si5 0.447780 0.639510 0.500000
O O1 0.152381 0.417840 0.204253
O O2 0.263203 0.269631 0.205910
O O3 0.310139 0.430865 0.328091
O O4 0.292915 0.404050 0.000000
O O5 0.597246 0.844714 0.718009
O O6 0.500000 0.000000 0.729238
O O7 0.547985 0.909968 0.000000
O O8 0.796962 0.280045 0.500000
O O9 0.902352 0.230477 0.757051
O O10 0.944406 0.130087 0.500000
O O11 0.047992 0.119785 0.236585
O O12 0.381417 0.553847 0.500000
#
# Coordination Sequence:
#
# PCOD8302893 Si02
#       5
#     8   8   8   8   4
#     4  11  24  43  66  91 130 174 215 268 329 393
#     4  10  24  44  64  92 131 175 222 273 334 398
#     4  11  22  36  64  97 128 169 218 270 328 391
#     4   8  16  32  54  85 126 166 208 258 315 385
#     4  11  24  42  67  96 126 159 213 274 324 392
#
# _framework density 21.179368
#
# number of rings (size 3 to 8) (size 9 to 14) (size 15 to 20)
#    0.000    1.889    1.111    2.667    4.667    3.111 
#    0.000    1.111    0.000    0.000    0.000    6.222 
#    0.000    0.000    0.000    0.000    0.000    0.000 
#
# Total GULP energy -446218.390852 kJ/mol
# GULP energy per Si atom -12394.955301 kJ/mol
# Density = 2.113116 g / cm^3
# Si number density = 21.179368 Si / 1000 Ang^3
#
#
#
# Elastic Constant Matrix: (Units=GPa)
#
#
# Indices 1 2 3 4 5 6 
#
# 1 124.1402 49.5365 30.2334 0.0000 0.0000 4.5507
# 2 49.5365 124.1402 30.2334 0.0000 0.0000 -4.5507
# 3 30.2334 30.2334 105.6383 0.0000 0.0000 0.0000
# 4 0.0000 0.0000 0.0000 29.6794 0.0000 0.0000
# 5 0.0000 0.0000 0.0000 0.0000 29.6794 0.0000
# 6 4.5507 -4.5507 0.0000 0.0000 0.0000 44.8443
#
#
#
# Elastic Compliance Matrix: (Units=1/GPa)
#
#
# Indices 1 2 3 4 5 6 
#
# 1 0.009984 -0.003589 -0.001830 0.000000 0.000000 -0.001377
# 2 -0.003589 0.009984 -0.001830 0.000000 0.000000 0.001377
# 3 -0.001830 -0.001830 0.010514 0.000000 0.000000 0.000000
# 4 0.000000 0.000000 0.000000 0.033693 0.000000 0.000000
# 5 0.000000 0.000000 0.000000 0.000000 0.033693 0.000000
# 6 -0.001377 0.001377 0.000000 0.000000 0.000000 0.022579
#
#
# Mechanical properties :
#
#
# Convention : Reuss Voigt Hill
#
# Bulk Modulus (GPa) = 62.56654 63.76949 63.16802
# Shear Modulus (GPa) = 35.64489 37.10166 36.37327
#
# Velocity S-wave (km/s) = 4.10689 4.18997 4.14864
# Velocity P-wave (km/s) = 7.21763 7.32000 7.26899
#
# Compressibility (1/GPa) = 0.01598298
#
# Stress axis : x y z
#
# Youngs Moduli (GPa) = 100.16409 100.16409 95.11230
#
# Poissons Ratio (x) = 0.35945 0.17408
# Poissons Ratio (y) = 0.35945 0.17408
# Poissons Ratio (z) = 0.18332 0.18332
#
# Static dielectric constant tensor:
#      x y z
#    x 3.982070 0.000000 0.000000 
#    y 0.000000 3.982070 0.000000 
#    z 0.000000 0.000000 8.821490 
# 
# 
# High freq. dielectric constant tensor:
#      x y z
#    x 1.832730 0.000000 0.000000 
#    y 0.000000 1.832730 0.000000 
#    z 0.000000 0.000000 1.819050 
# 
# From -- ./inp_files/544.got.cif
#   From: 2010.03.12/outbox.cif.g09.slc.cpg/sg83_1_cif.got.tgz:544.got - 2010.04.08 20:05:18.
