data_PCOD8302861
_publ_section_title
;
Structure prediction by ZEFSAII (Michael W. Deem and Ramdas Pophale) SiO2 
 PCOD8302861
Probable space group: P 4/M
;
_chemical_formula_sum "Si O2"
_cell_formula_units_Z 48
_cell_length_a 8.103036
_cell_length_b 8.103036
_cell_length_c 33.994522
_cell_angle_alpha 90.000000
_cell_angle_beta 90.000000
_cell_angle_gamma 90.000000
_cell_volume 2232.052861
_symmetry_space_group_name_H-M "P 4/M"
_symmetry_group_IT_number 83
_symmetry_cell_setting 'tetragonal'
loop_
_space_group_symop_operation_xyz
x,y,z
-y,x,z
-x,-y,z
y,-x,z
-x,-y,-z
y,-x,-z
x,y,-z
-y,x,-z
loop_
_atom_site_type_symbol
_atom_site_label
_atom_site_fract_x
_atom_site_fract_y
_atom_site_fract_z
Si Si1 0.918166 0.258166 0.043522
Si Si2 0.236469 0.423595 0.828321
Si Si3 0.108577 0.749971 0.458569
Si Si4 0.242311 0.587566 0.299021
Si Si5 0.500000 0.000000 0.237349
Si Si6 0.500000 0.000000 0.894012
Si Si7 0.747419 0.893086 0.373578
O O1 0.883720 0.388636 0.077923
O O2 0.106824 0.203774 0.048594
O O3 0.893238 0.336761 0.000000
O O4 0.386580 0.297033 0.827847
O O5 0.123426 0.392747 0.789969
O O6 0.124593 0.393762 0.866924
O O7 0.150320 0.651816 0.500000
O O8 0.144566 0.661812 0.416597
O O9 0.916308 0.788248 0.458898
O O10 0.293177 0.397274 0.293981
O O11 0.160168 0.613488 0.341519
O O12 0.107217 0.623362 0.265084
O O13 0.914300 0.788064 0.368600
#
# Coordination Sequence:
#
# PCOD8302861 Si02
#       7
#     8   8   8   8   4   4   8
#     4   9  18  32  50  76 113 155 197 239 279 317
#     4  10  22  39  58  82 111 140 172 216 274 335
#     4   7  10  19  39  69 104 140 177 216 255 295
#     4  11  23  38  57  80 107 139 173 214 270 330
#     4  11  22  38  61  78  96 130 173 212 254 325
#     4  11  19  32  57  84 110 146 191 232 271 321
#     4   9  17  30  51  81 113 143 179 221 260 305
#
# _framework density 21.504868999999999
#
# number of rings (size 3 to 8) (size 9 to 14) (size 15 to 20)
#    0.000    2.500    0.000    5.250    0.000    1.333 
#    0.000    0.000    0.000   19.500    0.000   13.417 
#    0.000    0.000    0.000    0.000    0.000    0.000 
#
# Total GULP energy -594688.285887 kJ/mol
# GULP energy per Si atom -12389.339289 kJ/mol
# Density = 2.145592 g / cm^3
# Si number density = 21.504869 Si / 1000 Ang^3
#
#
#
# Elastic Constant Matrix: (Units=GPa)
#
#
# Indices 1 2 3 4 5 6 
#
# 1 61.0662 9.7022 38.6812 0.0000 0.0000 0.3998
# 2 9.7022 61.0662 38.6812 0.0000 0.0000 -0.3998
# 3 38.6812 38.6812 195.9070 0.0000 0.0000 0.0000
# 4 0.0000 0.0000 0.0000 14.9083 0.0000 0.0000
# 5 0.0000 0.0000 0.0000 0.0000 14.9083 0.0000
# 6 0.3998 -0.3998 0.0000 0.0000 0.0000 22.3732
#
#
#
# Elastic Compliance Matrix: (Units=1/GPa)
#
#
# Indices 1 2 3 4 5 6 
#
# 1 0.018747 -0.000727 -0.003558 0.000000 0.000000 -0.000348
# 2 -0.000727 0.018747 -0.003558 0.000000 0.000000 0.000348
# 3 -0.003558 -0.003558 0.006510 0.000000 0.000000 0.000000
# 4 0.000000 0.000000 0.000000 0.067077 0.000000 0.000000
# 5 0.000000 0.000000 0.000000 0.000000 0.067077 0.000000
# 6 -0.000348 0.000348 0.000000 0.000000 0.000000 0.044709
#
#
# Mechanical properties :
#
#
# Convention : Reuss Voigt Hill
#
# Bulk Modulus (GPa) = 35.31359 54.68542 44.99951
# Shear Modulus (GPa) = 20.16195 25.83627 22.99911
#
# Velocity S-wave (km/s) = 3.06527 3.46990 3.27384
# Velocity P-wave (km/s) = 5.38374 6.44501 5.93813
#
# Compressibility (1/GPa) = 0.02831771
#
# Stress axis : x y z
#
# Youngs Moduli (GPa) = 53.34123 53.34123 153.62152
#
# Poissons Ratio (x) = 0.03878 0.54659
# Poissons Ratio (y) = 0.03878 0.54659
# Poissons Ratio (z) = 0.18979 0.18979
#
# Static dielectric constant tensor:
#      x y z
#    x 3.536390 0.000000 0.000000 
#    y 0.000000 3.536390 0.000000 
#    z 0.000000 0.000000 4.457420 
# 
# 
# High freq. dielectric constant tensor:
#      x y z
#    x 1.810260 0.000000 0.000000 
#    y 0.000000 1.810260 0.000000 
#    z 0.000000 0.000000 1.878200 
# 
# From -- ./inp_files/3468.got.cif
#   From: 2010.03.12/outbox.cif.g09.slc.cpg/sg83_2_cif.got.tgz:3468.got - 2010.04.08 20:05:18.
