data_PCOD8302087
_publ_section_title
;
Structure prediction by ZEFSAII (Michael W. Deem and Ramdas Pophale) SiO2 
 PCOD8302087
Probable space group: I 4
;
_chemical_formula_sum "Si O2"
_cell_formula_units_Z 40
_cell_length_a 14.567008
_cell_length_b 14.567008
_cell_length_c 8.876657
_cell_angle_alpha 90.000000
_cell_angle_beta 90.000000
_cell_angle_gamma 90.000000
_cell_volume 1883.606395
_symmetry_space_group_name_H-M "I 4"
_symmetry_group_IT_number 79
_symmetry_cell_setting 'tetragonal'
loop_
_space_group_symop_operation_xyz
x,y,z
-y,x,z
-x,-y,z
y,-x,z
1/2+x,1/2+y,1/2+z
1/2-y,1/2+x,1/2+z
1/2-x,1/2-y,1/2+z
1/2+y,1/2-x,1/2+z
loop_
_atom_site_type_symbol
_atom_site_label
_atom_site_fract_x
_atom_site_fract_y
_atom_site_fract_z
Si Si1 0.659629 0.930066 0.745770
Si Si2 0.618283 0.739854 0.670691
Si Si3 0.883030 0.402255 0.440641
Si Si4 0.541127 0.355436 0.121255
Si Si5 0.223152 0.072981 0.292284
O O1 0.639678 0.823465 0.789367
O O2 0.608109 0.951139 0.585264
O O3 0.769386 0.942566 0.730805
O O4 0.616571 0.995202 0.873526
O O5 0.626151 0.780647 0.500770
O O6 0.689029 0.658521 0.694789
O O7 0.516047 0.702337 0.693702
O O8 0.913448 0.332324 0.310635
O O9 0.612108 0.437492 0.153079
O O10 0.561444 0.327831 0.949947
#
# Coordination Sequence:
#
# PCOD8302087 Si02
#       5
#     8   8   8   8   8
#     4   9  22  44  61 100 130 172 223 280 346 404
#     4  10  24  40  65  96 126 178 219 283 339 399
#     4   9  23  44  63  99 128 176 224 279 347 401
#     4  10  20  38  68  93 125 171 227 280 335 404
#     4  11  21  41  65  93 126 175 222 276 340 404
#
# _framework density 21.235856999999999
#
# number of rings (size 3 to 8) (size 9 to 14) (size 15 to 20)
#    1.200    1.000    2.000    0.000    2.800    2.800 
#   10.800    0.000    0.000    0.000    0.000    0.000 
#    0.000    0.000    0.000    0.000    0.000    0.000 
#
# Total GULP energy -247840.138953 kJ/mol
# GULP energy per Si atom -12392.006948 kJ/mol
# Density = 2.118752 g / cm^3
# Si number density = 21.235857 Si / 1000 Ang^3
#
#
#
# Elastic Constant Matrix: (Units=GPa)
#
#
# Indices 1 2 3 4 5 6 
#
# 1 94.6084 29.3310 9.1308 0.0000 0.0000 14.6037
# 2 29.3310 94.6084 9.1308 0.0000 0.0000 -14.6037
# 3 9.1308 9.1308 36.9361 0.0000 0.0000 0.0000
# 4 0.0000 0.0000 0.0000 27.4433 0.0000 0.0000
# 5 0.0000 0.0000 0.0000 0.0000 27.4433 0.0000
# 6 14.6037 -14.6037 0.0000 0.0000 0.0000 28.1270
#
#
#
# Elastic Compliance Matrix: (Units=1/GPa)
#
#
# Indices 1 2 3 4 5 6 
#
# 1 0.014164 -0.005791 -0.002070 0.000000 0.000000 -0.010361
# 2 -0.005791 0.014164 -0.002070 0.000000 0.000000 0.010361
# 3 -0.002070 -0.002070 0.028097 0.000000 0.000000 0.000000
# 4 0.000000 0.000000 0.000000 0.036439 0.000000 0.000000
# 5 0.000000 0.000000 0.000000 0.000000 0.036439 0.000000
# 6 -0.010361 0.010361 0.000000 0.000000 0.000000 0.046312
#
#
# Mechanical properties :
#
#
# Convention : Reuss Voigt Hill
#
# Bulk Modulus (GPa) = 27.34909 35.70421 31.52665
# Shear Modulus (GPa) = 24.07729 28.50673 26.29201
#
# Velocity S-wave (km/s) = 3.37085 3.66783 3.52248
# Velocity P-wave (km/s) = 5.29688 5.89805 5.60553
#
# Compressibility (1/GPa) = 0.03656429
#
# Stress axis : x y z
#
# Youngs Moduli (GPa) = 70.60032 70.60032 35.59072
#
# Poissons Ratio (x) = 0.40883 0.07367
# Poissons Ratio (y) = 0.40883 0.07367
# Poissons Ratio (z) = 0.14614 0.14614
#
# Static dielectric constant tensor:
#      x y z
#    x 3.806870 0.000000 0.000000 
#    y 0.000000 3.806870 0.000000 
#    z 0.000000 0.000000 3.415010 
# 
# 
# High freq. dielectric constant tensor:
#      x y z
#    x 1.835810 0.000000 0.000000 
#    y 0.000000 1.835810 0.000000 
#    z 0.000000 0.000000 1.798850 
# 
# From -- ./inp_files/563.got.cif
#   From: 2010.03.12/outbox.cif.g09.slc.cpg/sg79_cif.got.tgz:563.got - 2010.04.16 16:38:49.
