data_PCOD8302611
_publ_section_title
;
Structure prediction by ZEFSAII (Michael W. Deem and Ramdas Pophale) SiO2 
 PCOD8302611
Probable space group: P 4/M
;
_chemical_formula_sum "Si O2"
_cell_formula_units_Z 56
_cell_length_a 22.252976
_cell_length_b 22.252976
_cell_length_c 9.083480
_cell_angle_alpha 90.000000
_cell_angle_beta 90.000000
_cell_angle_gamma 90.000000
_cell_volume 4498.093341
_symmetry_space_group_name_H-M "P 4/M"
_symmetry_group_IT_number 83
_symmetry_cell_setting 'tetragonal'
loop_
_space_group_symop_operation_xyz
x,y,z
-y,x,z
-x,-y,z
y,-x,z
-x,-y,-z
y,-x,-z
x,y,-z
-y,x,-z
loop_
_atom_site_type_symbol
_atom_site_label
_atom_site_fract_x
_atom_site_fract_y
_atom_site_fract_z
Si Si1 0.439231 0.742308 0.328276
Si Si2 0.353696 0.216246 0.837285
Si Si3 0.459647 0.866749 0.173209
Si Si4 0.660193 0.672480 0.330370
Si Si5 0.018553 0.430893 0.667164
Si Si6 0.406256 0.095666 0.827798
Si Si7 0.451682 0.306203 0.163878
O O1 0.453706 0.751132 0.500000
O O2 0.438001 0.805567 0.247395
O O3 0.374281 0.713042 0.302127
O O4 0.487914 0.696824 0.259148
O O5 0.317866 0.261228 0.727634
O O6 0.357239 0.146976 0.783789
O O7 0.423371 0.239058 0.847646
O O8 0.324126 0.219821 0.000000
O O9 0.419576 0.920818 0.240344
O O10 0.528387 0.879403 0.214100
O O11 0.448137 0.862729 0.000000
O O12 0.643163 0.677833 0.500000
O O13 0.599209 0.652395 0.243658
O O14 0.029031 0.410029 0.500000
O O15 0.000000 0.500000 0.677028
O O16 0.964583 0.391413 0.737143
O O17 0.403019 0.080457 0.000000
O O18 0.465769 0.331428 0.000000
#
# Coordination Sequence:
#
# PCOD8302611 Si02
#       7
#     8   8   8   8   8   8   8
#     4  11  20  28  42  59  75  94 113 141 181 219
#     4   8  15  27  40  55  71  88 114 143 170 205
#     4  10  17  26  38  52  71  95 119 141 166 202
#     4   9  18  29  40  57  75  90 111 141 177 214
#     4   9  17  25  33  50  73  94 116 140 166 198
#     4   9  15  25  38  52  69  91 116 139 168 201
#     4   9  17  29  42  56  70  88 112 139 170 211
#
# _framework density 12.449719999999999
#
# number of rings (size 3 to 8) (size 9 to 14) (size 15 to 20)
#    0.857    1.857    1.429    1.714    0.000    5.143 
#    0.000    0.000    0.000    0.429    0.000    3.000 
#    0.000    0.000    0.000    0.000    0.000    0.000 
#
# Total GULP energy -693814.814736 kJ/mol
# GULP energy per Si atom -12389.550263 kJ/mol
# Density = 1.242138 g / cm^3
# Si number density = 12.449720 Si / 1000 Ang^3
#
#
#
# Elastic Constant Matrix: (Units=GPa)
#
#
# Indices 1 2 3 4 5 6 
#
# 1 47.9097 24.1322 38.5204 0.0000 0.0000 6.2589
# 2 24.1322 47.9097 38.5204 0.0000 0.0000 -6.2589
# 3 38.5204 38.5204 94.7818 0.0000 0.0000 0.0000
# 4 0.0000 0.0000 0.0000 18.8370 0.0000 0.0000
# 5 0.0000 0.0000 0.0000 0.0000 18.8370 0.0000
# 6 6.2589 -6.2589 0.0000 0.0000 0.0000 4.2774
#
#
#
# Elastic Compliance Matrix: (Units=1/GPa)
#
#
# Indices 1 2 3 4 5 6 
#
# 1 0.103835 -0.079284 -0.009978 0.000000 0.000000 -0.267947
# 2 -0.079284 0.103835 -0.009978 0.000000 0.000000 0.267947
# 3 -0.009978 -0.009978 0.018661 0.000000 0.000000 0.000000
# 4 0.000000 0.000000 0.000000 0.053087 0.000000 0.000000
# 5 0.000000 0.000000 0.000000 0.000000 0.053087 0.000000
# 6 -0.267947 0.267947 0.000000 0.000000 0.000000 1.017934
#
#
# Mechanical properties :
#
#
# Convention : Reuss Voigt Hill
#
# Bulk Modulus (GPa) = 35.90474 43.66080 39.78277
# Shear Modulus (GPa) = 3.20883 14.35215 8.78049
#
# Velocity S-wave (km/s) = 1.60718 3.39899 2.65858
# Velocity P-wave (km/s) = 5.68739 7.10985 6.43803
#
# Compressibility (1/GPa) = 0.02785148
#
# Stress axis : x y z
#
# Youngs Moduli (GPa) = 9.63070 9.63070 53.58850
#
# Poissons Ratio (x) = 0.76356 0.53469
# Poissons Ratio (y) = 0.76356 0.53469
# Poissons Ratio (z) = 0.09609 0.09609
#
# Static dielectric constant tensor:
#      x y z
#    x 2.311280 0.000000 0.000000 
#    y 0.000000 2.311280 0.000000 
#    z 0.000000 0.000000 2.660630 
# 
# 
# High freq. dielectric constant tensor:
#      x y z
#    x 1.434630 0.000000 0.000000 
#    y 0.000000 1.434630 0.000000 
#    z 0.000000 0.000000 1.490270 
# 
# From -- ./inp_files/1231.got.cif
#   From: 2010.03.12/outbox.cif.g09.slc.cpg/sg83_1_cif.got.tgz:1231.got - 2010.04.08 20:05:18.
