data_PCOD8302774
_publ_section_title
;
Structure prediction by ZEFSAII (Michael W. Deem and Ramdas Pophale) SiO2 
 PCOD8302774
Probable space group: P 4/M
;
_chemical_formula_sum "Si O2"
_cell_formula_units_Z 48
_cell_length_a 15.644917
_cell_length_b 15.644917
_cell_length_c 11.071772
_cell_angle_alpha 90.000000
_cell_angle_beta 90.000000
_cell_angle_gamma 90.000000
_cell_volume 2709.964868
_symmetry_space_group_name_H-M "P 4/M"
_symmetry_group_IT_number 83
_symmetry_cell_setting 'tetragonal'
loop_
_space_group_symop_operation_xyz
x,y,z
-y,x,z
-x,-y,z
y,-x,z
-x,-y,-z
y,-x,-z
x,y,-z
-y,x,-z
loop_
_atom_site_type_symbol
_atom_site_label
_atom_site_fract_x
_atom_site_fract_y
_atom_site_fract_z
Si Si1 0.496118 0.268044 0.252092
Si Si2 0.664727 0.326826 0.639861
Si Si3 0.536815 0.091130 0.643366
Si Si4 0.716469 0.148272 0.362649
Si Si5 0.511241 0.356564 0.000000
Si Si6 0.064790 0.125890 0.259428
Si Si7 0.935775 0.875195 0.000000
O O1 0.404188 0.306303 0.278453
O O2 0.563810 0.310796 0.343393
O O3 0.492572 0.165975 0.277639
O O4 0.518546 0.293114 0.114613
O O5 0.684813 0.346154 0.500000
O O6 0.714682 0.243328 0.694710
O O7 0.520996 0.106448 0.500000
O O8 0.637372 0.089634 0.680509
O O9 0.500000 0.000000 0.684351
O O10 0.698026 0.168842 0.500000
O O11 0.806284 0.099737 0.353524
O O12 0.590630 0.422552 0.000000
O O13 0.963880 0.112767 0.277656
O O14 0.086932 0.168975 0.127632
O O15 0.035825 0.888221 0.000000
#
# Coordination Sequence:
#
# PCOD8302774 Si02
#       7
#     8   8   8   8   4   8   4
#     4  11  20  36  56  81 112 143 185 224 276 334
#     4  10  20  34  54  80 107 137 178 231 276 325
#     4   9  19  37  59  80 105 143 186 229 276 327
#     4   9  19  33  48  73 106 135 169 211 265 324
#     4  11  22  38  55  82 120 160 183 212 281 354
#     4   9  17  30  49  72  98 131 171 217 267 315
#     4   7  12  26  46  66  89 120 160 203 248 299
#
# _framework density 17.712406000000001
#
# number of rings (size 3 to 8) (size 9 to 14) (size 15 to 20)
#    0.000    2.500    1.667    3.500    0.000    2.333 
#    0.000    9.583    0.000    2.000    0.000    0.000 
#    0.000    0.000    0.000    0.000    0.000    0.000 
#
# Total GULP energy -594670.663879 kJ/mol
# GULP energy per Si atom -12388.972164 kJ/mol
# Density = 1.767209 g / cm^3
# Si number density = 17.712406 Si / 1000 Ang^3
#
#
#
# Elastic Constant Matrix: (Units=GPa)
#
#
# Indices 1 2 3 4 5 6 
#
# 1 102.9137 47.2159 16.5768 0.0000 0.0000 -10.7894
# 2 47.2159 102.9137 16.5768 0.0000 0.0000 10.7894
# 3 16.5768 16.5768 49.4426 0.0000 0.0000 0.0000
# 4 0.0000 0.0000 0.0000 20.9704 0.0000 0.0000
# 5 0.0000 0.0000 0.0000 0.0000 20.9704 0.0000
# 6 -10.7894 10.7894 0.0000 0.0000 0.0000 23.6757
#
#
#
# Elastic Compliance Matrix: (Units=1/GPa)
#
#
# Indices 1 2 3 4 5 6 
#
# 1 0.014499 -0.007305 -0.002412 0.000000 0.000000 0.009936
# 2 -0.007305 0.014499 -0.002412 0.000000 0.000000 -0.009936
# 3 -0.002412 -0.002412 0.021843 0.000000 0.000000 0.000000
# 4 0.000000 0.000000 0.000000 0.047686 0.000000 0.000000
# 5 0.000000 0.000000 0.000000 0.000000 0.047686 0.000000
# 6 0.009936 -0.009936 0.000000 0.000000 0.000000 0.051294
#
#
# Mechanical properties :
#
#
# Convention : Reuss Voigt Hill
#
# Bulk Modulus (GPa) = 37.61864 46.22321 41.92093
# Shear Modulus (GPa) = 21.68029 24.78334 23.23182
#
# Velocity S-wave (km/s) = 3.50239 3.74466 3.62555
# Velocity P-wave (km/s) = 6.13517 6.69700 6.42223
#
# Compressibility (1/GPa) = 0.02658256
#
# Stress axis : x y z
#
# Youngs Moduli (GPa) = 68.97226 68.97226 45.78187
#
# Poissons Ratio (x) = 0.50385 0.11042
# Poissons Ratio (y) = 0.50385 0.11042
# Poissons Ratio (z) = 0.16635 0.16635
#
# Static dielectric constant tensor:
#      x y z
#    x 3.159480 0.000000 0.000000 
#    y 0.000000 3.159480 0.000000 
#    z 0.000000 0.000000 3.308270 
# 
# 
# High freq. dielectric constant tensor:
#      x y z
#    x 1.677270 0.000000 0.000000 
#    y 0.000000 1.677270 0.000000 
#    z 0.000000 0.000000 1.673370 
# 
# From -- ./inp_files/1885.got.cif
#   From: 2010.03.12/outbox.cif.g09.slc.cpg/sg83_1_cif.got.tgz:1885.got - 2010.04.08 20:05:18.
