data_PCOD8302342
_publ_section_title
;
Structure prediction by ZEFSAII (Michael W. Deem and Ramdas Pophale) SiO2 
 PCOD8302342
Probable space group: I -4 
;
_chemical_formula_sum "Si O2"
_cell_formula_units_Z 44
_cell_length_a 8.641058
_cell_length_b 8.641058
_cell_length_c 29.899065
_cell_angle_alpha 90.000000
_cell_angle_beta 90.000000
_cell_angle_gamma 90.000000
_cell_volume 2232.499898
_symmetry_space_group_name_H-M "I -4 "
_symmetry_group_IT_number 82
_symmetry_cell_setting 'tetragonal'
loop_
_space_group_symop_operation_xyz
x,y,z
y,-x,-z
-x,-y,z
-y,x,-z
1/2+x,1/2+y,1/2+z
1/2+y,1/2-x,1/2-z
1/2-x,1/2-y,1/2+z
1/2-y,1/2+x,1/2-z
loop_
_atom_site_type_symbol
_atom_site_label
_atom_site_fract_x
_atom_site_fract_y
_atom_site_fract_z
Si Si1 0.775300 0.092326 0.075410
Si Si2 0.500000 0.500000 0.280359
Si Si3 0.215919 0.573588 0.769148
Si Si4 0.093426 0.762080 0.504670
Si Si5 0.100191 0.225181 0.067318
Si Si6 0.764420 0.870324 0.152055
O O1 0.916556 0.214093 0.075475
O O2 0.831095 0.938555 0.047982
O O3 0.732582 0.034821 0.125980
O O4 0.629848 0.177523 0.051961
O O5 0.602392 0.609629 0.247835
O O6 0.388275 0.600655 0.311511
O O7 0.173293 0.393178 0.763859
O O8 0.192382 0.614868 0.821505
O O9 0.135201 0.640502 0.465757
O O10 0.913784 0.801784 0.502761
O O11 0.180724 0.256662 0.115662
#
# Coordination Sequence:
#
# PCOD8302342 Si02
#       6
#     8   4   8   8   8   8
#     4   9  18  36  62  87 109 152 199 258 278 361
#     4  10  16  36  60  85 122 154 187 256 296 362
#     4   9  19  34  60  89 118 156 196 240 299 364
#     4  11  24  39  52  82 128 164 195 242 310 354
#     4   9  18  36  61  86 110 151 203 249 288 355
#     4   9  17  37  59  92 114 144 204 254 295 348
#
# _framework density 19.708848
#
# number of rings (size 3 to 8) (size 9 to 14) (size 15 to 20)
#    1.091    1.455    1.818    1.091    0.000    4.364 
#   13.091    1.818    8.000    8.727    0.000    0.000 
#    0.000    0.000    0.000    0.000    0.000    0.000 
#
# Total GULP energy -272541.055517 kJ/mol
# GULP energy per Si atom -12388.229796 kJ/mol
# Density = 1.966399 g / cm^3
# Si number density = 19.708848 Si / 1000 Ang^3
#
#
#
# Elastic Constant Matrix: (Units=GPa)
#
#
# Indices 1 2 3 4 5 6 
#
# 1 62.7850 11.1555 44.8963 0.0000 0.0000 -5.4937
# 2 11.1555 62.7849 44.8963 0.0000 0.0000 5.4937
# 3 44.8963 44.8963 134.3038 0.0000 0.0000 0.0000
# 4 0.0000 0.0000 0.0000 29.8961 0.0000 0.0000
# 5 0.0000 0.0000 0.0000 0.0000 29.8961 0.0000
# 6 -5.4937 5.4937 0.0000 0.0000 0.0000 24.1678
#
#
#
# Elastic Compliance Matrix: (Units=1/GPa)
#
#
# Indices 1 2 3 4 5 6 
#
# 1 0.021560 0.001207 -0.007611 0.000000 0.000000 0.004627
# 2 0.001207 0.021560 -0.007611 0.000000 0.000000 -0.004627
# 3 -0.007611 -0.007611 0.012534 0.000000 0.000000 0.000000
# 4 0.000000 0.000000 0.000000 0.033449 0.000000 0.000000
# 5 0.000000 0.000000 0.000000 0.000000 0.033449 0.000000
# 6 0.004627 -0.004627 0.000000 0.000000 0.000000 0.043481
#
#
# Mechanical properties :
#
#
# Convention : Reuss Voigt Hill
#
# Bulk Modulus (GPa) = 36.19924 51.30775 43.75349
# Shear Modulus (GPa) = 24.59770 27.38703 25.99237
#
# Velocity S-wave (km/s) = 3.53661 3.73175 3.63549
# Velocity P-wave (km/s) = 5.92315 6.68261 6.31431
#
# Compressibility (1/GPa) = 0.02762489
#
# Stress axis : x y z
#
# Youngs Moduli (GPa) = 46.38209 46.38209 79.78220
#
# Poissons Ratio (x) = -0.05597 0.60719
# Poissons Ratio (y) = -0.05597 0.60719
# Poissons Ratio (z) = 0.35300 0.35300
#
# Static dielectric constant tensor:
#      x y z
#    x 3.457180 0.000000 0.000000 
#    y 0.000000 3.457180 0.000000 
#    z 0.000000 0.000000 3.596100 
# 
# 
# High freq. dielectric constant tensor:
#      x y z
#    x 1.744800 0.000000 0.000000 
#    y 0.000000 1.744800 0.000000 
#    z 0.000000 0.000000 1.766090 
# 
# From -- ./inp_files/3947.got.cif
#   From: 2010.03.12/outbox.cif.g09.slc.cpg/sg82_2_cif.got.tgz:3947.got - 2010.04.08 20:02:50.
