data_PCOD8302176
_publ_section_title
;
Structure prediction by ZEFSAII (Michael W. Deem and Ramdas Pophale) SiO2 
 PCOD8302176
Probable space group: I 41
;
_chemical_formula_sum "Si O2"
_cell_formula_units_Z 44
_cell_length_a 11.318485
_cell_length_b 11.318485
_cell_length_c 16.762212
_cell_angle_alpha 90.000000
_cell_angle_beta 90.000000
_cell_angle_gamma 90.000000
_cell_volume 2147.375176
_symmetry_space_group_name_H-M "I 41"
_symmetry_group_IT_number 80
_symmetry_cell_setting 'tetragonal'
loop_
_space_group_symop_operation_xyz
x,y,z
-y,1/2+x,1/4+z
-x,-y,z
y,1/2-x,1/4+z
1/2+x,1/2+y,1/2+z
1/2-y,x,3/4+z
1/2-x,1/2-y,1/2+z
1/2+y,-x,3/4+z
loop_
_atom_site_type_symbol
_atom_site_label
_atom_site_fract_x
_atom_site_fract_y
_atom_site_fract_z
Si Si1 0.761319 0.562872 0.729690
Si Si2 0.576238 0.604333 0.597036
Si Si3 0.132443 0.034232 0.383241
Si Si4 0.000000 0.500000 0.195112
Si Si5 0.699388 0.387358 0.352874
Si Si6 0.794910 0.194358 0.461505
O O1 0.695033 0.601906 0.648224
O O2 0.886235 0.627733 0.713850
O O3 0.693930 0.605223 0.809392
O O4 0.788423 0.425270 0.746690
O O5 0.500000 0.500000 0.638568
O O6 0.594657 0.567694 0.503260
O O7 0.511075 0.731336 0.593003
O O8 0.209053 0.919470 0.404382
O O9 0.000000 0.000000 0.355365
O O10 0.090203 0.570099 0.138970
O O11 0.778179 0.312162 0.411923
O O12 0.681087 0.312516 0.272908
#
# Coordination Sequence:
#
# PCOD8302176 Si02
#       6
#     8   8   8   4   8   8
#     4  11  22  39  63 100 129 165 215 273 327 373
#     4  10  21  36  63  94 129 160 205 276 320 377
#     4  10  24  40  64  97 129 171 220 264 319 393
#     4  10  24  40  54 100 128 160 220 258 314 390
#     4  12  22  41  67  92 128 172 217 257 326 392
#     4  11  21  42  68  89 127 174 217 260 320 400
#
# _framework density 20.490131000000002
#
# number of rings (size 3 to 8) (size 9 to 14) (size 15 to 20)
#    0.545    0.727    5.455    0.545    2.545    0.000 
#    3.273    1.818    0.000    0.000    0.000    0.000 
#    0.000    0.000    0.000    0.000    0.000    0.000 
#
# Total GULP energy -272561.988840 kJ/mol
# GULP energy per Si atom -12389.181311 kJ/mol
# Density = 2.044349 g / cm^3
# Si number density = 20.490131 Si / 1000 Ang^3
#
#
#
# Elastic Constant Matrix: (Units=GPa)
#
#
# Indices 1 2 3 4 5 6 
#
# 1 37.3731 58.0403 30.0130 0.0000 0.0000 -3.8611
# 2 58.0403 37.3731 30.0130 0.0000 0.0000 3.8611
# 3 30.0130 30.0130 100.3052 0.0000 0.0000 0.0000
# 4 0.0000 0.0000 0.0000 14.7410 0.0000 0.0000
# 5 0.0000 0.0000 0.0000 0.0000 14.7410 0.0000
# 6 -3.8611 3.8611 0.0000 0.0000 0.0000 37.0017
#
#
#
# Elastic Compliance Matrix: (Units=1/GPa)
#
#
# Indices 1 2 3 4 5 6 
#
# 1 -0.016830 0.029741 -0.003863 0.000000 0.000000 -0.004860
# 2 0.029741 -0.016830 -0.003863 0.000000 0.000000 0.004860
# 3 -0.003863 -0.003863 0.012281 0.000000 0.000000 0.000000
# 4 0.000000 0.000000 0.000000 0.067838 0.000000 0.000000
# 5 0.000000 0.000000 0.000000 0.000000 0.067838 0.000000
# 6 -0.004860 0.004860 0.000000 0.000000 0.000000 0.026012
#
#
# Mechanical properties :
#
#
# Convention : Reuss Voigt Hill
#
# Bulk Modulus (GPa) = 44.14854 45.68710 44.91782
# Shear Modulus (GPa) = 48.15478 17.09576 32.62527
#
# Velocity S-wave (km/s) = 4.85309 2.89163 3.99462
# Velocity P-wave (km/s) = 7.27986 5.78742 6.57611
#
# Compressibility (1/GPa) = 0.02265081
#
# Stress axis : x y z
#
# Youngs Moduli (GPa) = -59.41926 -59.41925 81.42356
#
# Poissons Ratio (x) = 1.76717 0.31456
# Poissons Ratio (y) = 1.76717 0.31456
# Poissons Ratio (z) = -0.22955 -0.22955
#
# Static dielectric constant tensor:
#      x y z
#    x 3.542240 0.000000 0.000000 
#    y 0.000000 3.542240 0.000000 
#    z 0.000000 0.000000 3.619670 
# 
# 
# High freq. dielectric constant tensor:
#      x y z
#    x 1.790420 0.000000 0.000000 
#    y 0.000000 1.790420 0.000000 
#    z 0.000000 0.000000 1.795680 
# 
# From -- ./inp_files/1506.got.cif
#   From: 2010.03.12/outbox.cif.g09.slc.cpg/sg80_cif.got.tgz:1506.got - 2010.04.08 20:00:04.
