data_PCOD8302825
_publ_section_title
;
Structure prediction by ZEFSAII (Michael W. Deem and Ramdas Pophale) SiO2 
 PCOD8302825
Probable space group: P 4/M
;
_chemical_formula_sum "Si O2"
_cell_formula_units_Z 40
_cell_length_a 15.176401
_cell_length_b 15.176401
_cell_length_c 8.516929
_cell_angle_alpha 90.000000
_cell_angle_beta 90.000000
_cell_angle_gamma 90.000000
_cell_volume 1961.645893
_symmetry_space_group_name_H-M "P 4/M"
_symmetry_group_IT_number 83
_symmetry_cell_setting 'tetragonal'
loop_
_space_group_symop_operation_xyz
x,y,z
-y,x,z
-x,-y,z
y,-x,z
-x,-y,-z
y,-x,-z
x,y,-z
-y,x,-z
loop_
_atom_site_type_symbol
_atom_site_label
_atom_site_fract_x
_atom_site_fract_y
_atom_site_fract_z
Si Si1 0.737986 0.528133 0.320463
Si Si2 0.440500 0.918082 0.180100
Si Si3 0.035100 0.258337 0.318192
Si Si4 0.161416 0.788812 0.681275
Si Si5 0.301942 0.655833 0.180951
O O1 0.716659 0.551913 0.500000
O O2 0.842240 0.525614 0.294661
O O3 0.699270 0.432827 0.282079
O O4 0.699165 0.603375 0.208920
O O5 0.339692 0.941951 0.208275
O O6 0.500000 0.000000 0.224519
O O7 0.453034 0.888847 0.000000
O O8 0.035451 0.287680 0.500000
O O9 0.109227 0.184622 0.286651
O O10 0.939994 0.221525 0.267350
O O11 0.175328 0.764401 0.500000
O O12 0.223787 0.723075 0.777198
O O13 0.291696 0.630433 0.000000
#
# Coordination Sequence:
#
# PCOD8302825 Si02
#       5
#     8   8   8   8   8
#     4  12  25  43  67  94 127 169 215 263 318 384
#     4  11  23  39  61  93 128 165 214 268 325 380
#     4  10  21  37  61  90 127 171 218 265 319 382
#     4  10  21  39  62  93 129 173 219 266 320 382
#     4  12  25  43  66  95 130 169 212 266 325 384
#
# _framework density 20.391041000000001
#
# number of rings (size 3 to 8) (size 9 to 14) (size 15 to 20)
#    0.000    1.000    2.000    5.400    0.000    6.400 
#    0.000    4.000    0.000    0.000    0.000    2.800 
#    0.000    0.000    0.000    0.000    0.000    0.000 
#
# Total GULP energy -496238.514886 kJ/mol
# GULP energy per Si atom -12405.962872 kJ/mol
# Density = 2.034463 g / cm^3
# Si number density = 20.391041 Si / 1000 Ang^3
#
#
#
# Elastic Constant Matrix: (Units=GPa)
#
#
# Indices 1 2 3 4 5 6 
#
# 1 80.3319 -5.2331 22.9251 0.0000 0.0000 2.9155
# 2 -5.2331 80.3319 22.9251 0.0000 0.0000 -2.9155
# 3 22.9251 22.9251 63.6577 0.0000 0.0000 0.0000
# 4 0.0000 0.0000 0.0000 25.1207 0.0000 0.0000
# 5 0.0000 0.0000 0.0000 0.0000 25.1207 0.0000
# 6 2.9155 -2.9155 0.0000 0.0000 0.0000 41.0155
#
#
#
# Elastic Compliance Matrix: (Units=1/GPa)
#
#
# Indices 1 2 3 4 5 6 
#
# 1 0.014406 0.002662 -0.006147 0.000000 0.000000 -0.000835
# 2 0.002662 0.014406 -0.006147 0.000000 0.000000 0.000835
# 3 -0.006147 -0.006147 0.020136 0.000000 0.000000 0.000000
# 4 0.000000 0.000000 0.000000 0.039808 0.000000 0.000000
# 5 0.000000 0.000000 0.000000 0.000000 0.039808 0.000000
# 6 -0.000835 0.000835 0.000000 0.000000 0.000000 0.024500
#
#
# Mechanical properties :
#
#
# Convention : Reuss Voigt Hill
#
# Bulk Modulus (GPa) = 33.68591 33.95061 33.81826
# Shear Modulus (GPa) = 27.43892 30.49832 28.96862
#
# Velocity S-wave (km/s) = 3.67227 3.87159 3.77325
# Velocity P-wave (km/s) = 5.87678 6.05570 5.96691
#
# Compressibility (1/GPa) = 0.02968601
#
# Stress axis : x y z
#
# Youngs Moduli (GPa) = 69.41407 69.41407 49.66122
#
# Poissons Ratio (x) = -0.18481 0.30527
# Poissons Ratio (y) = -0.18481 0.30527
# Poissons Ratio (z) = 0.42668 0.42668
#
# Static dielectric constant tensor:
#      x y z
#    x 4.127210 0.000000 0.000000 
#    y 0.000000 4.127210 0.000000 
#    z 0.000000 0.000000 3.644130 
# 
# 
# High freq. dielectric constant tensor:
#      x y z
#    x 1.805830 0.000000 0.000000 
#    y 0.000000 1.805830 0.000000 
#    z 0.000000 0.000000 1.796630 
# 
# From -- ./inp_files/636.got.cif
#   From: 2010.03.12/outbox.cif.g09.slc.cpg/sg83_1_cif.got.tgz:636.got - 2010.04.08 20:05:18.
