data_PCOD8302763
_publ_section_title
;
Structure prediction by ZEFSAII (Michael W. Deem and Ramdas Pophale) SiO2 
 PCOD8302763
Probable space group: P 4/M
;
_chemical_formula_sum "Si O2"
_cell_formula_units_Z 36
_cell_length_a 15.208557
_cell_length_b 15.208557
_cell_length_c 7.823359
_cell_angle_alpha 90.000000
_cell_angle_beta 90.000000
_cell_angle_gamma 90.000000
_cell_volume 1809.544548
_symmetry_space_group_name_H-M "P 4/M"
_symmetry_group_IT_number 83
_symmetry_cell_setting 'tetragonal'
loop_
_space_group_symop_operation_xyz
x,y,z
-y,x,z
-x,-y,z
y,-x,z
-x,-y,-z
y,-x,-z
x,y,-z
-y,x,-z
loop_
_atom_site_type_symbol
_atom_site_label
_atom_site_fract_x
_atom_site_fract_y
_atom_site_fract_z
Si Si1 0.753454 0.632770 0.302464
Si Si2 0.628311 0.571079 0.000000
Si Si3 0.004336 0.238003 0.808577
Si Si4 0.822915 0.823615 0.690648
Si Si5 0.574318 0.063704 0.798740
O O1 0.719887 0.629367 0.500000
O O2 0.678602 0.599520 0.173177
O O3 0.780551 0.731816 0.246059
O O4 0.840067 0.571575 0.287884
O O5 0.534055 0.618545 0.000000
O O6 0.070640 0.179782 0.695078
O O7 0.011803 0.337969 0.748096
O O8 0.903530 0.209329 0.805624
O O9 0.040166 0.228558 0.000000
O O10 0.791851 0.844050 0.500000
O O11 0.500000 0.000000 0.722881
O O12 0.562259 0.078162 0.000000
#
# Coordination Sequence:
#
# PCOD8302763 Si02
#       5
#     8   4   8   8   8
#     4  10  22  41  65  91 123 161 201 247 301 362
#     4  11  26  46  67  90 120 157 199 252 308 362
#     4  10  20  33  55  82 114 156 200 244 290 350
#     4  10  21  37  56  83 121 158 197 244 294 347
#     4   9  18  35  59  90 123 155 197 249 304 358
#
# _framework density 19.894507999999998
#
# number of rings (size 3 to 8) (size 9 to 14) (size 15 to 20)
#    0.000    2.111    1.111    1.333    3.111    4.444 
#    0.000    5.556    0.000    0.000    0.000    0.000 
#    0.000    0.000    0.000    0.000    0.000    0.000 
#
# Total GULP energy -446301.603696 kJ/mol
# GULP energy per Si atom -12397.266769 kJ/mol
# Density = 1.984923 g / cm^3
# Si number density = 19.894508 Si / 1000 Ang^3
#
#
#
# Elastic Constant Matrix: (Units=GPa)
#
#
# Indices 1 2 3 4 5 6 
#
# 1 119.5705 69.6508 42.7575 0.0000 0.0000 11.1046
# 2 69.6508 119.5705 42.7575 0.0000 0.0000 -11.1046
# 3 42.7575 42.7575 84.9124 0.0000 0.0000 0.0000
# 4 0.0000 0.0000 0.0000 19.1487 0.0000 0.0000
# 5 0.0000 0.0000 0.0000 0.0000 19.1487 0.0000
# 6 11.1046 -11.1046 0.0000 0.0000 0.0000 32.3261
#
#
#
# Elastic Compliance Matrix: (Units=1/GPa)
#
#
# Indices 1 2 3 4 5 6 
#
# 1 0.015244 -0.008402 -0.003445 0.000000 0.000000 -0.008123
# 2 -0.008402 0.015244 -0.003445 0.000000 0.000000 0.008123
# 3 -0.003445 -0.003445 0.015246 0.000000 0.000000 0.000000
# 4 0.000000 0.000000 0.000000 0.052223 0.000000 0.000000
# 5 0.000000 0.000000 0.000000 0.000000 0.052223 0.000000
# 6 -0.008123 0.008123 0.000000 0.000000 0.000000 0.036515
#
#
# Mechanical properties :
#
#
# Convention : Reuss Voigt Hill
#
# Bulk Modulus (GPa) = 66.00937 70.48720 68.24829
# Shear Modulus (GPa) = 22.48910 25.38390 23.93650
#
# Velocity S-wave (km/s) = 3.36582 3.57588 3.47244
# Velocity P-wave (km/s) = 6.95390 7.24960 7.10329
#
# Compressibility (1/GPa) = 0.01514937
#
# Stress axis : x y z
#
# Youngs Moduli (GPa) = 65.60002 65.60002 65.58899
#
# Poissons Ratio (x) = 0.55118 0.22597
# Poissons Ratio (y) = 0.55118 0.22597
# Poissons Ratio (z) = 0.22600 0.22600
#
# Static dielectric constant tensor:
#      x y z
#    x 3.575080 0.000000 0.000000 
#    y 0.000000 3.575080 0.000000 
#    z 0.000000 0.000000 3.514970 
# 
# 
# High freq. dielectric constant tensor:
#      x y z
#    x 1.769530 0.000000 0.000000 
#    y 0.000000 1.769530 0.000000 
#    z 0.000000 0.000000 1.780430 
# 
# From -- ./inp_files/548.got.cif
#   From: 2010.03.12/outbox.cif.g09.slc.cpg/sg83_1_cif.got.tgz:548.got - 2010.04.08 20:05:18.
