data_PCOD8302193
_publ_section_title
;
Structure prediction by ZEFSAII (Michael W. Deem and Ramdas Pophale) SiO2 
 PCOD8302193
Probable space group: I 41
;
_chemical_formula_sum "Si O2"
_cell_formula_units_Z 48
_cell_length_a 15.322514
_cell_length_b 15.322514
_cell_length_c 9.448606
_cell_angle_alpha 90.000000
_cell_angle_beta 90.000000
_cell_angle_gamma 90.000000
_cell_volume 2218.338381
_symmetry_space_group_name_H-M "I 41"
_symmetry_group_IT_number 80
_symmetry_cell_setting 'tetragonal'
loop_
_space_group_symop_operation_xyz
x,y,z
-y,1/2+x,1/4+z
-x,-y,z
y,1/2-x,1/4+z
1/2+x,1/2+y,1/2+z
1/2-y,x,3/4+z
1/2-x,1/2-y,1/2+z
1/2+y,-x,3/4+z
loop_
_atom_site_type_symbol
_atom_site_label
_atom_site_fract_x
_atom_site_fract_y
_atom_site_fract_z
Si Si1 0.312535 0.988369 0.003890
Si Si2 0.988785 0.356919 0.818939
Si Si3 0.668783 0.301406 0.938553
Si Si4 0.500000 0.000000 0.104427
Si Si5 0.330911 0.231651 0.804134
Si Si6 0.500000 0.500000 0.301279
Si Si7 0.320297 0.036111 0.698239
O O1 0.267974 0.916495 0.104308
O O2 0.417503 0.977705 0.007679
O O3 0.276668 0.076584 0.069663
O O4 0.289448 0.981286 0.837112
O O5 0.890154 0.347052 0.770621
O O6 0.033052 0.416892 0.697906
O O7 0.030693 0.260133 0.836137
O O8 0.998630 0.410430 0.963688
O O9 0.738658 0.305003 0.814485
O O10 0.289067 0.232430 0.957808
O O11 0.339018 0.135277 0.739947
O O12 0.502907 0.410635 0.390706
#
# Coordination Sequence:
#
# PCOD8302193 Si02
#       7
#     8   8   8   4   8   4   8
#     4  10  23  42  64  96 136 174 229 283 346 425
#     4  10  23  42  64  96 133 174 232 280 341 421
#     4  11  26  45  68  99 131 183 236 293 357 415
#     4   9  21  42  64  92 129 183 222 272 341 409
#     4  10  23  41  62  99 132 176 225 278 354 417
#     4  11  21  40  68  96 135 183 226 288 355 423
#     4  11  23  40  66  97 136 176 229 288 356 418
#
# _framework density 21.637819
#
# number of rings (size 3 to 8) (size 9 to 14) (size 15 to 20)
#    0.000    1.667    0.000    3.500    4.667    8.000 
#    3.000    0.000    0.000    0.000    0.000    0.000 
#    0.000    0.000    0.000    0.000    0.000    0.000 
#
# Total GULP energy -297481.673427 kJ/mol
# GULP energy per Si atom -12395.069726 kJ/mol
# Density = 2.158857 g / cm^3
# Si number density = 21.637819 Si / 1000 Ang^3
#
#
#
# Elastic Constant Matrix: (Units=GPa)
#
#
# Indices 1 2 3 4 5 6 
#
# 1 80.3938 15.3119 23.4189 0.0000 0.0000 1.2709
# 2 15.3119 80.3938 23.4189 0.0000 0.0000 -1.2709
# 3 23.4189 23.4189 79.2997 0.0000 0.0000 0.0000
# 4 0.0000 0.0000 0.0000 -11.4866 0.0000 0.0000
# 5 0.0000 0.0000 0.0000 0.0000 -11.4866 0.0000
# 6 1.2709 -1.2709 0.0000 0.0000 0.0000 31.7165
#
#
#
# Elastic Compliance Matrix: (Units=1/GPa)
#
#
# Indices 1 2 3 4 5 6 
#
# 1 0.013802 -0.001588 -0.003607 0.000000 0.000000 -0.000617
# 2 -0.001588 0.013802 -0.003607 0.000000 0.000000 0.000617
# 3 -0.003607 -0.003607 0.014741 0.000000 0.000000 0.000000
# 4 0.000000 0.000000 0.000000 -0.087058 0.000000 0.000000
# 5 0.000000 0.000000 0.000000 0.000000 -0.087058 0.000000
# 6 -0.000617 0.000617 0.000000 0.000000 0.000000 0.031579
#
#
# Mechanical properties :
#
#
# Convention : Reuss Voigt Hill
#
# Bulk Modulus (GPa) = 40.41939 40.48743 40.45341
# Shear Modulus (GPa) = -67.25645 13.61115 -26.82265
#
# Velocity S-wave (km/s) = -5.58125 2.51080 -3.52464
# Velocity P-wave (km/s) = 4.77632 5.21129 1.47382
#
# Compressibility (1/GPa) = 0.02474060
#
# Stress axis : x y z
#
# Youngs Moduli (GPa) = 72.45507 72.45507 67.83866
#
# Poissons Ratio (x) = 0.11504 0.24470
# Poissons Ratio (y) = 0.11504 0.24470
# Poissons Ratio (z) = 0.26135 0.26135
#
# Static dielectric constant tensor:
#      x y z
#    x 3.986290 0.000000 0.000000 
#    y 0.000000 3.986290 0.000000 
#    z 0.000000 0.000000 4.104350 
# 
# 
# High freq. dielectric constant tensor:
#      x y z
#    x 1.852370 0.000000 0.000000 
#    y 0.000000 1.852370 0.000000 
#    z 0.000000 0.000000 1.858020 
# 
# From -- ./inp_files/1038.got.cif
#   From: 2010.03.12/outbox.cif.g09.slc.cpg/sg80_cif.got.tgz:1038.got - 2010.04.08 20:00:04.
