data_PCOD8302720
_publ_section_title
;
Structure prediction by ZEFSAII (Michael W. Deem and Ramdas Pophale) SiO2 
 PCOD8302720
Probable space group: P 4/M
;
_chemical_formula_sum "Si O2"
_cell_formula_units_Z 44
_cell_length_a 13.431594
_cell_length_b 13.431594
_cell_length_c 13.191685
_cell_angle_alpha 90.000000
_cell_angle_beta 90.000000
_cell_angle_gamma 90.000000
_cell_volume 2379.881779
_symmetry_space_group_name_H-M "P 4/M"
_symmetry_group_IT_number 83
_symmetry_cell_setting 'tetragonal'
loop_
_space_group_symop_operation_xyz
x,y,z
-y,x,z
-x,-y,z
y,-x,z
-x,-y,-z
y,-x,-z
x,y,-z
-y,x,-z
loop_
_atom_site_type_symbol
_atom_site_label
_atom_site_fract_x
_atom_site_fract_y
_atom_site_fract_z
Si Si1 0.881048 0.389603 0.288166
Si Si2 0.784609 0.795112 0.198041
Si Si3 0.130289 0.098917 0.389988
Si Si4 0.381262 0.887489 0.290828
Si Si5 0.219800 0.613036 0.500000
Si Si6 0.112201 0.879456 0.000000
Si Si7 0.219068 0.381753 0.500000
O O1 0.811107 0.335057 0.202870
O O2 0.868005 0.505005 0.262800
O O3 0.846558 0.364220 0.401773
O O4 0.996142 0.355502 0.280770
O O5 0.809922 0.857467 0.297946
O O6 0.823629 0.682695 0.209531
O O7 0.829352 0.841709 0.098003
O O8 0.173812 0.133878 0.500000
O O9 0.018632 0.136815 0.381180
O O10 0.355272 0.849270 0.403307
O O11 0.251915 0.497046 0.500000
O O12 0.319306 0.679222 0.500000
O O13 0.995020 0.861109 0.000000
#
# Coordination Sequence:
#
# PCOD8302720 Si02
#       7
#     8   8   8   8   4   4   4
#     4  10  21  36  55  81 113 149 193 241 289 343
#     4  12  22  37  58  79 109 151 191 229 286 345
#     4   9  18  30  46  74 107 137 174 218 265 327
#     4  10  21  36  55  81 113 149 193 241 289 343
#     4  10  19  34  53  82 118 154 191 236 292 346
#     4  11  24  40  58  86 120 151 186 230 286 351
#     4  10  19  34  53  82 118 154 191 236 292 346
#
# _framework density 18.488313999999999
#
# number of rings (size 3 to 8) (size 9 to 14) (size 15 to 20)
#    0.000    1.727    1.818    4.364    2.545    3.818 
#    0.000    0.909    0.000    3.818    0.000    0.000 
#    0.000    1.455    0.000    0.000    0.000    0.000 
#
# Total GULP energy -545509.256398 kJ/mol
# GULP energy per Si atom -12397.937645 kJ/mol
# Density = 1.844623 g / cm^3
# Si number density = 18.488314 Si / 1000 Ang^3
#
#
#
# Elastic Constant Matrix: (Units=GPa)
#
#
# Indices 1 2 3 4 5 6 
#
# 1 96.8632 64.1240 48.8443 0.0000 0.0000 -0.1113
# 2 64.1240 96.8632 48.8443 0.0000 0.0000 0.1113
# 3 48.8443 48.8443 97.2843 0.0000 0.0000 0.0000
# 4 0.0000 0.0000 0.0000 23.3592 0.0000 0.0000
# 5 0.0000 0.0000 0.0000 0.0000 23.3592 0.0000
# 6 -0.1113 0.1113 0.0000 0.0000 0.0000 30.9235
#
#
#
# Elastic Compliance Matrix: (Units=1/GPa)
#
#
# Indices 1 2 3 4 5 6 
#
# 1 0.019739 -0.010806 -0.004485 0.000000 0.000000 0.000110
# 2 -0.010806 0.019739 -0.004485 0.000000 0.000000 -0.000110
# 3 -0.004485 -0.004485 0.014783 0.000000 0.000000 0.000000
# 4 0.000000 0.000000 0.000000 0.042810 0.000000 0.000000
# 5 0.000000 0.000000 0.000000 0.000000 0.042810 0.000000
# 6 0.000110 -0.000110 0.000000 0.000000 0.000000 0.032339
#
#
# Mechanical properties :
#
#
# Convention : Reuss Voigt Hill
#
# Bulk Modulus (GPa) = 67.98658 68.29288 68.13973
# Shear Modulus (GPa) = 23.07601 24.14160 23.60881
#
# Velocity S-wave (km/s) = 3.53674 3.61747 3.57733
# Velocity P-wave (km/s) = 7.31646 7.38016 7.34838
#
# Compressibility (1/GPa) = 0.01470879
#
# Stress axis : x y z
#
# Youngs Moduli (GPa) = 50.66047 50.66047 67.64510
#
# Poissons Ratio (x) = 0.54743 0.30340
# Poissons Ratio (y) = 0.54743 0.30340
# Poissons Ratio (z) = 0.22722 0.22722
#
# Static dielectric constant tensor:
#      x y z
#    x 3.658890 0.000000 0.000000 
#    y 0.000000 3.658890 0.000000 
#    z 0.000000 0.000000 3.155730 
# 
# 
# High freq. dielectric constant tensor:
#      x y z
#    x 1.724720 0.000000 0.000000 
#    y 0.000000 1.724720 0.000000 
#    z 0.000000 0.000000 1.689560 
# 
# From -- ./inp_files/1774.got.cif
#   From: 2010.03.12/outbox.cif.g09.slc.cpg/sg83_1_cif.got.tgz:1774.got - 2010.04.08 20:05:18.
