data_PCOD8302154
_publ_section_title
;
Structure prediction by ZEFSAII (Michael W. Deem and Ramdas Pophale) SiO2 
 PCOD8302154
Probable space group: I 41
;
_chemical_formula_sum "Si O2"
_cell_formula_units_Z 48
_cell_length_a 18.513641
_cell_length_b 18.513641
_cell_length_c 7.501145
_cell_angle_alpha 90.000000
_cell_angle_beta 90.000000
_cell_angle_gamma 90.000000
_cell_volume 2571.054227
_symmetry_space_group_name_H-M "I 41"
_symmetry_group_IT_number 80
_symmetry_cell_setting 'tetragonal'
loop_
_space_group_symop_operation_xyz
x,y,z
-y,1/2+x,1/4+z
-x,-y,z
y,1/2-x,1/4+z
1/2+x,1/2+y,1/2+z
1/2-y,x,3/4+z
1/2-x,1/2-y,1/2+z
1/2+y,-x,3/4+z
loop_
_atom_site_type_symbol
_atom_site_label
_atom_site_fract_x
_atom_site_fract_y
_atom_site_fract_z
Si Si1 0.386326 0.494112 0.475150
Si Si2 0.291782 0.044948 0.466605
Si Si3 0.505349 0.723294 0.844447
Si Si4 0.994790 0.117991 0.046589
Si Si5 0.163657 0.100828 0.685873
Si Si6 0.839694 0.759043 0.249413
O O1 0.307402 0.508305 0.555403
O O2 0.429064 0.568694 0.481549
O O3 0.432979 0.431185 0.577044
O O4 0.374879 0.470394 0.269022
O O5 0.283653 0.987067 0.305254
O O6 0.323728 0.008909 0.642410
O O7 0.214847 0.080173 0.520702
O O8 0.343913 0.103024 0.371629
O O9 0.465665 0.663670 0.719129
O O10 0.587307 0.700506 0.798538
O O11 0.202721 0.144594 0.842830
O O12 0.814614 0.720003 0.430334
#
# Coordination Sequence:
#
# PCOD8302154 Si02
#       6
#     8   8   8   8   8   8
#     4   9  20  39  61  77 117 154 187 248 285 340
#     4  11  22  34  55  82 117 149 190 228 276 352
#     4  11  22  36  55  83 108 151 191 238 282 342
#     4  10  20  42  56  82 115 151 195 236 295 337
#     4  10  19  35  50  80 115 152 184 228 281 334
#     4  11  21  30  45  72 114 153 185 218 269 331
#
# _framework density 18.669384000000001
#
# number of rings (size 3 to 8) (size 9 to 14) (size 15 to 20)
#    0.000    1.667    5.000    2.000    7.000    0.000 
#    3.000    1.667    0.000    0.000    4.333    0.000 
#    0.000    0.000    0.000    0.000    0.000    0.000 
#
# Total GULP energy -297352.997988 kJ/mol
# GULP energy per Si atom -12389.708249 kJ/mol
# Density = 1.862689 g / cm^3
# Si number density = 18.669384 Si / 1000 Ang^3
#
#
#
# Elastic Constant Matrix: (Units=GPa)
#
#
# Indices 1 2 3 4 5 6 
#
# 1 71.0019 30.5991 24.4552 0.0000 0.0000 -0.3752
# 2 30.5991 71.0019 24.4552 0.0000 0.0000 0.3752
# 3 24.4552 24.4552 83.4074 0.0000 0.0000 0.0000
# 4 0.0000 0.0000 0.0000 15.3375 0.0000 0.0000
# 5 0.0000 0.0000 0.0000 0.0000 15.3375 0.0000
# 6 -0.3752 0.3752 0.0000 0.0000 0.0000 19.8389
#
#
#
# Elastic Compliance Matrix: (Units=1/GPa)
#
#
# Indices 1 2 3 4 5 6 
#
# 1 0.018110 -0.006650 -0.003360 0.000000 0.000000 0.000468
# 2 -0.006650 0.018110 -0.003360 0.000000 0.000000 -0.000468
# 3 -0.003360 -0.003360 0.013960 0.000000 0.000000 0.000000
# 4 0.000000 0.000000 0.000000 0.065200 0.000000 0.000000
# 5 0.000000 0.000000 0.000000 0.000000 0.065200 0.000000
# 6 0.000468 -0.000468 0.000000 0.000000 0.000000 0.050424
#
#
# Mechanical properties :
#
#
# Convention : Reuss Voigt Hill
#
# Bulk Modulus (GPa) = 42.66340 42.71448 42.68894
# Shear Modulus (GPa) = 18.82850 19.82957 19.32904
#
# Velocity S-wave (km/s) = 3.17917 3.26259 3.22115
# Velocity P-wave (km/s) = 6.03140 6.09276 6.06216
#
# Compressibility (1/GPa) = 0.02343929
#
# Stress axis : x y z
#
# Youngs Moduli (GPa) = 55.21903 55.21903 71.63471
#
# Poissons Ratio (x) = 0.36719 0.24070
# Poissons Ratio (y) = 0.36719 0.24070
# Poissons Ratio (z) = 0.18554 0.18554
#
# Static dielectric constant tensor:
#      x y z
#    x 3.303830 0.000000 0.000000 
#    y 0.000000 3.303830 0.000000 
#    z 0.000000 0.000000 3.582330 
# 
# 
# High freq. dielectric constant tensor:
#      x y z
#    x 1.697300 0.000000 0.000000 
#    y 0.000000 1.697300 0.000000 
#    z 0.000000 0.000000 1.728280 
# 
# From -- ./inp_files/679.got.cif
#   From: 2010.03.12/outbox.cif.g09.slc.cpg/sg80_cif.got.tgz:679.got - 2010.04.08 20:00:04.
