data_PCOD8302505
_publ_section_title
;
Structure prediction by ZEFSAII (Michael W. Deem and Ramdas Pophale) SiO2 
 PCOD8302505
Probable space group: I -4 
;
_chemical_formula_sum "Si O2"
_cell_formula_units_Z 56
_cell_length_a 14.379612
_cell_length_b 14.379612
_cell_length_c 12.981871
_cell_angle_alpha 90.000000
_cell_angle_beta 90.000000
_cell_angle_gamma 90.000000
_cell_volume 2684.303544
_symmetry_space_group_name_H-M "I -4 "
_symmetry_group_IT_number 82
_symmetry_cell_setting 'tetragonal'
loop_
_space_group_symop_operation_xyz
x,y,z
y,-x,-z
-x,-y,z
-y,x,-z
1/2+x,1/2+y,1/2+z
1/2+y,1/2-x,1/2-z
1/2-x,1/2-y,1/2+z
1/2-y,1/2+x,1/2-z
loop_
_atom_site_type_symbol
_atom_site_label
_atom_site_fract_x
_atom_site_fract_y
_atom_site_fract_z
Si Si1 0.044847 0.859454 0.531476
Si Si2 0.251059 0.328486 0.097294
Si Si3 0.178444 0.739020 0.072308
Si Si4 0.457286 0.639815 0.469547
Si Si5 0.394795 0.114645 0.751262
Si Si6 0.049761 0.774317 0.752803
Si Si7 0.728770 0.150989 0.237476
O O1 0.077034 0.769638 0.466247
O O2 0.055839 0.838246 0.651742
O O3 0.941306 0.884008 0.498363
O O4 0.147957 0.337005 0.147932
O O5 0.322364 0.317432 0.192048
O O6 0.277976 0.238464 0.029804
O O7 0.164384 0.649870 0.147270
O O8 0.237871 0.822346 0.123630
O O9 0.076762 0.770939 0.034363
O O10 0.558120 0.615976 0.510900
O O11 0.457496 0.655169 0.347489
O O12 0.505086 0.130581 0.750442
O O13 0.136752 0.707159 0.767046
O O14 0.958477 0.708822 0.751739
#
# Coordination Sequence:
#
# PCOD8302505 Si02
#       7
#     8   8   8   8   8   8   8
#     4  11  25  41  67 100 133 169 213 280 336 393
#     4  11  23  42  69  96 131 175 223 270 335 388
#     4  11  23  42  69  96 131 175 223 270 335 388
#     4  11  25  41  67 100 133 169 213 280 336 393
#     4  10  26  45  68 100 135 180 228 276 328 403
#     4  12  24  43  67  96 137 165 228 261 333 394
#     4  11  24  41  66  95 126 178 212 268 321 395
#
# _framework density 20.862023000000001
#
# number of rings (size 3 to 8) (size 9 to 14) (size 15 to 20)
#    0.000    1.000    5.714    0.000    4.000    4.857 
#    0.000    0.000    0.000    0.000    0.000    0.000 
#    0.000    0.000    0.000    0.000    0.000    0.000 
#
# Total GULP energy -347099.974411 kJ/mol
# GULP energy per Si atom -12396.427658 kJ/mol
# Density = 2.081454 g / cm^3
# Si number density = 20.862023 Si / 1000 Ang^3
#
#
#
# Elastic Constant Matrix: (Units=GPa)
#
#
# Indices 1 2 3 4 5 6 
#
# 1 86.8580 22.7637 44.1022 0.0000 0.0000 -3.7277
# 2 22.7637 86.8580 44.1022 0.0000 0.0000 3.7277
# 3 44.1022 44.1022 113.4063 0.0000 0.0000 0.0000
# 4 0.0000 0.0000 0.0000 28.9875 0.0000 0.0000
# 5 0.0000 0.0000 0.0000 0.0000 28.9875 0.0000
# 6 -3.7277 3.7277 0.0000 0.0000 0.0000 37.0957
#
#
#
# Elastic Compliance Matrix: (Units=1/GPa)
#
#
# Indices 1 2 3 4 5 6 
#
# 1 0.014532 -0.001255 -0.005163 0.000000 0.000000 0.001586
# 2 -0.001255 0.014532 -0.005163 0.000000 0.000000 -0.001586
# 3 -0.005163 -0.005163 0.012834 0.000000 0.000000 0.000000
# 4 0.000000 0.000000 0.000000 0.034498 0.000000 0.000000
# 5 0.000000 0.000000 0.000000 0.000000 0.034498 0.000000
# 6 0.001586 -0.001586 0.000000 0.000000 0.000000 0.027276
#
#
# Mechanical properties :
#
#
# Convention : Reuss Voigt Hill
#
# Bulk Modulus (GPa) = 53.37765 56.56206 54.96986
# Shear Modulus (GPa) = 29.83732 30.75775 30.29753
#
# Velocity S-wave (km/s) = 3.78593 3.84388 3.81502
# Velocity P-wave (km/s) = 6.68974 6.84630 6.76847
#
# Compressibility (1/GPa) = 0.01873443
#
# Stress axis : x y z
#
# Youngs Moduli (GPa) = 68.81563 68.81563 77.92058
#
# Poissons Ratio (x) = 0.08636 0.40231
# Poissons Ratio (y) = 0.08636 0.40231
# Poissons Ratio (z) = 0.35530 0.35530
#
# Static dielectric constant tensor:
#      x y z
#    x 3.742220 0.000000 0.000000 
#    y 0.000000 3.742220 0.000000 
#    z 0.000000 0.000000 3.925580 
# 
# 
# High freq. dielectric constant tensor:
#      x y z
#    x 1.810530 0.000000 0.000000 
#    y 0.000000 1.810530 0.000000 
#    z 0.000000 0.000000 1.835970 
# 
# From -- ./inp_files/1840.got.cif
#   From: 2010.03.12/outbox.cif.g09.slc.cpg/sg82_1_cif.got.tgz:1840.got - 2010.04.08 20:02:50.
