data_PCOD8302312
_publ_section_title
;
Structure prediction by ZEFSAII (Michael W. Deem and Ramdas Pophale) SiO2 
 PCOD8302312
Probable space group: P -4
;
_chemical_formula_sum "Si O2"
_cell_formula_units_Z 12
_cell_length_a 7.239232
_cell_length_b 7.239232
_cell_length_c 10.997223
_cell_angle_alpha 90.000000
_cell_angle_beta 90.000000
_cell_angle_gamma 90.000000
_cell_volume 576.325747
_symmetry_space_group_name_H-M "P -4"
_symmetry_group_IT_number 81
_symmetry_cell_setting 'tetragonal'
loop_
_space_group_symop_operation_xyz
x,y,z
y,-x,-z
-x,-y,z
-y,x,-z
loop_
_atom_site_type_symbol
_atom_site_label
_atom_site_fract_x
_atom_site_fract_y
_atom_site_fract_z
Si Si1 0.740041 0.674985 0.998734
Si Si2 0.033337 0.793729 0.804209
Si Si3 0.985222 0.292188 0.538811
O O1 0.809189 0.782301 0.116446
O O2 0.744101 0.462473 0.037781
O O3 0.869526 0.705790 0.883020
O O4 0.059865 0.677900 0.681695
O O5 0.000000 0.000000 0.758940
O O6 0.000000 0.500000 0.482483
O O7 0.817073 0.179330 0.476807
#
# Coordination Sequence:
#
# PCOD8302312 Si02
#       3
#     4   4   4
#     4  11  23  38  62  96 129 163 202 250 312 377
#     4  12  22  41  66  90 125 168 206 254 314 375
#     4  11  25  46  68  95 128 170 221 269 320 378
#
# _framework density 20.821560000000002
#
# number of rings (size 3 to 8) (size 9 to 14) (size 15 to 20)
#    0.000    0.667    6.667    3.000    0.000    3.333 
#    0.000    0.000    0.000    0.000    0.000    0.000 
#    0.000    0.000    0.000    0.000    0.000    0.000 
#
# Total GULP energy -148814.789645 kJ/mol
# GULP energy per Si atom -12401.232470 kJ/mol
# Density = 2.077417 g / cm^3
# Si number density = 20.821560 Si / 1000 Ang^3
#
#
#
# Elastic Constant Matrix: (Units=GPa)
#
#
# Indices 1 2 3 4 5 6 
#
# 1 93.6125 11.3122 3.8921 0.0000 0.0000 2.0359
# 2 11.3122 93.6125 3.8921 0.0000 0.0000 -2.0359
# 3 3.8921 3.8921 100.3670 0.0000 0.0000 0.0000
# 4 0.0000 0.0000 0.0000 10.6693 0.0000 0.0000
# 5 0.0000 0.0000 0.0000 0.0000 10.6693 0.0000
# 6 2.0359 -2.0359 0.0000 0.0000 0.0000 27.3887
#
#
#
# Elastic Compliance Matrix: (Units=1/GPa)
#
#
# Indices 1 2 3 4 5 6 
#
# 1 0.010877 -0.001319 -0.000371 0.000000 0.000000 -0.000907
# 2 -0.001319 0.010877 -0.000371 0.000000 0.000000 0.000907
# 3 -0.000371 -0.000371 0.009992 0.000000 0.000000 0.000000
# 4 0.000000 0.000000 0.000000 0.093727 0.000000 0.000000
# 5 0.000000 0.000000 0.000000 0.000000 0.093727 0.000000
# 6 -0.000907 0.000907 0.000000 0.000000 0.000000 0.036646
#
#
# Mechanical properties :
#
#
# Convention : Reuss Voigt Hill
#
# Bulk Modulus (GPa) = 36.19796 36.19830 36.19813
# Shear Modulus (GPa) = 18.57528 27.64514 23.11021
#
# Velocity S-wave (km/s) = 2.99007 3.64774 3.33516
# Velocity P-wave (km/s) = 5.41695 5.92993 5.67923
#
# Compressibility (1/GPa) = 0.02762586
#
# Stress axis : x y z
#
# Youngs Moduli (GPa) = 91.93870 91.93870 100.07822
#
# Poissons Ratio (x) = 0.12124 0.03709
# Poissons Ratio (y) = 0.12124 0.03709
# Poissons Ratio (z) = 0.03408 0.03408
#
# Static dielectric constant tensor:
#      x y z
#    x 3.984190 0.000000 0.000000 
#    y 0.000000 3.984190 0.000000 
#    z 0.000000 0.000000 3.637930 
# 
# 
# High freq. dielectric constant tensor:
#      x y z
#    x 1.824260 0.000000 0.000000 
#    y 0.000000 1.824260 0.000000 
#    z 0.000000 0.000000 1.808680 
# 
# From -- ./inp_files/994.got.cif
#   From: 2010.03.12/outbox.cif.g09.slc.cpg/sg81_cif.got.tgz:994.got - 2010.04.08 20:01:38.
