data_PCOD8302766
_publ_section_title
;
Structure prediction by ZEFSAII (Michael W. Deem and Ramdas Pophale) SiO2 
 PCOD8302766
Probable space group: P 4/M
;
_chemical_formula_sum "Si O2"
_cell_formula_units_Z 64
_cell_length_a 21.515655
_cell_length_b 21.515655
_cell_length_c 8.934797
_cell_angle_alpha 90.000000
_cell_angle_beta 90.000000
_cell_angle_gamma 90.000000
_cell_volume 4136.126696
_symmetry_space_group_name_H-M "P 4/M"
_symmetry_group_IT_number 83
_symmetry_cell_setting 'tetragonal'
loop_
_space_group_symop_operation_xyz
x,y,z
-y,x,z
-x,-y,z
y,-x,z
-x,-y,-z
y,-x,-z
x,y,-z
-y,x,-z
loop_
_atom_site_type_symbol
_atom_site_label
_atom_site_fract_x
_atom_site_fract_y
_atom_site_fract_z
Si Si1 0.570645 0.670181 0.322966
Si Si2 0.654592 0.240036 0.166329
Si Si3 0.154831 0.262767 0.335140
Si Si4 0.839518 0.927626 0.178429
Si Si5 0.845166 0.255561 0.668178
Si Si6 0.060972 0.161588 0.321231
Si Si7 0.569910 0.330505 0.323803
Si Si8 0.239131 0.656954 0.168809
O O1 0.575118 0.678619 0.500000
O O2 0.610688 0.610661 0.269071
O O3 0.500337 0.659088 0.268192
O O4 0.596003 0.733181 0.248327
O O5 0.679926 0.174344 0.229595
O O6 0.596434 0.265989 0.259462
O O7 0.709675 0.289451 0.171030
O O8 0.630772 0.227489 0.000000
O O9 0.145604 0.290915 0.500000
O O10 0.208441 0.211673 0.338523
O O11 0.091865 0.228527 0.282051
O O12 0.773330 0.899799 0.230558
O O13 0.895249 0.893443 0.263487
O O14 0.842588 0.998497 0.228023
O O15 0.846612 0.921081 0.000000
O O16 0.869951 0.268658 0.500000
O O17 0.821978 0.319909 0.742568
O O18 0.051063 0.154270 0.500000
O O19 0.572763 0.324457 0.500000
O O20 0.219883 0.640030 0.000000
#
# Coordination Sequence:
#
# PCOD8302766 Si02
#       8
#     8   8   8   8   8   8   8   8
#     4   9  17  28  41  58  81 113 148 183 218 256
#     4   9  16  25  40  60  81 104 133 171 218 262
#     4   8  15  27  44  62  80 104 136 173 213 254
#     4  11  21  32  46  66  90 116 148 185 219 252
#     4   9  16  28  45  63  83 109 139 173 215 262
#     4  10  20  34  48  63  86 119 153 182 214 255
#     4   9  17  28  41  57  81 112 148 183 216 254
#     4   9  16  26  41  61  82 105 135 176 220 261
#
# _framework density 15.473414
#
# number of rings (size 3 to 8) (size 9 to 14) (size 15 to 20)
#    0.000    2.750    0.000    3.375    0.000    7.500 
#    0.000    2.500    0.000    0.000    0.000    3.500 
#    0.000    1.000    0.000   10.500    0.000    5.750 
#
# Total GULP energy -793341.535139 kJ/mol
# GULP energy per Si atom -12395.961487 kJ/mol
# Density = 1.543820 g / cm^3
# Si number density = 15.473414 Si / 1000 Ang^3
#
#
#
# Elastic Constant Matrix: (Units=GPa)
#
#
# Indices 1 2 3 4 5 6 
#
# 1 53.7118 53.4335 25.7412 0.0000 0.0000 0.1635
# 2 53.4335 53.7118 25.7412 0.0000 0.0000 -0.1635
# 3 25.7412 25.7412 62.3909 0.0000 0.0000 0.0000
# 4 0.0000 0.0000 0.0000 18.8796 0.0000 0.0000
# 5 0.0000 0.0000 0.0000 0.0000 18.8796 0.0000
# 6 0.1635 -0.1635 0.0000 0.0000 0.0000 16.5936
#
#
#
# Elastic Compliance Matrix: (Units=1/GPa)
#
#
# Indices 1 2 3 4 5 6 
#
# 1 1.823501 -1.811861 -0.004803 0.000000 0.000000 -0.035826
# 2 -1.811861 1.823501 -0.004803 0.000000 0.000000 0.035826
# 3 -0.004803 -0.004803 0.019991 0.000000 0.000000 0.000000
# 4 0.000000 0.000000 0.000000 0.052967 0.000000 0.000000
# 5 0.000000 0.000000 0.000000 0.000000 0.052967 0.000000
# 6 -0.035826 0.035826 0.000000 0.000000 0.000000 0.060970
#
#
# Mechanical properties :
#
#
# Convention : Reuss Voigt Hill
#
# Bulk Modulus (GPa) = 41.55999 42.18292 41.87145
# Shear Modulus (GPa) = 0.66802 15.19714 7.93258
#
# Velocity S-wave (km/s) = 0.65777 3.13732 2.26665
# Velocity P-wave (km/s) = 5.24349 6.35959 5.82832
#
# Compressibility (1/GPa) = 0.02406161
#
# Stress axis : x y z
#
# Youngs Moduli (GPa) = 0.54840 0.54840 50.02248
#
# Poissons Ratio (x) = 0.99362 0.24025
# Poissons Ratio (y) = 0.99362 0.24025
# Poissons Ratio (z) = 0.00263 0.00263
#
# Static dielectric constant tensor:
#      x y z
#    x 2.879860 0.000000 0.000000 
#    y 0.000000 2.879860 0.000000 
#    z 0.000000 0.000000 3.120530 
# 
# 
# High freq. dielectric constant tensor:
#      x y z
#    x 1.564710 0.000000 0.000000 
#    y 0.000000 1.564710 0.000000 
#    z 0.000000 0.000000 1.605640 
# 
# From -- ./inp_files/1255.got.cif
#   From: 2010.03.12/outbox.cif.g09.slc.cpg/sg83_1_cif.got.tgz:1255.got - 2010.04.08 20:05:18.
