data_PCOD8302878
_publ_section_title
;
Structure prediction by ZEFSAII (Michael W. Deem and Ramdas Pophale) SiO2 
 PCOD8302878
Probable space group: P 4/M
;
_chemical_formula_sum "Si O2"
_cell_formula_units_Z 56
_cell_length_a 14.304504
_cell_length_b 14.304504
_cell_length_c 14.160510
_cell_angle_alpha 90.000000
_cell_angle_beta 90.000000
_cell_angle_gamma 90.000000
_cell_volume 2897.507055
_symmetry_space_group_name_H-M "P 4/M"
_symmetry_group_IT_number 83
_symmetry_cell_setting 'tetragonal'
loop_
_space_group_symop_operation_xyz
x,y,z
-y,x,z
-x,-y,z
y,-x,z
-x,-y,-z
y,-x,-z
x,y,-z
-y,x,-z
loop_
_atom_site_type_symbol
_atom_site_label
_atom_site_fract_x
_atom_site_fract_y
_atom_site_fract_z
Si Si1 0.591609 0.218953 0.271344
Si Si2 0.618465 0.594329 0.607304
Si Si3 0.240904 0.078343 0.390653
Si Si4 0.538541 0.351768 0.890279
Si Si5 0.884890 0.776620 0.709971
Si Si6 0.541588 0.899959 0.608737
Si Si7 0.875730 0.090354 0.897017
O O1 0.641648 0.305046 0.326415
O O2 0.562499 0.257462 0.168131
O O3 0.667437 0.136820 0.275910
O O4 0.500619 0.180490 0.325171
O O5 0.515541 0.628409 0.630657
O O6 0.643606 0.616777 0.500000
O O7 0.222377 0.053178 0.500000
O O8 0.181585 0.169504 0.363221
O O9 0.348556 0.101650 0.373790
O O10 0.210321 0.990476 0.326582
O O11 0.611977 0.434275 0.865708
O O12 0.545301 0.324850 0.000000
O O13 0.865361 0.816325 0.813883
O O14 0.516391 0.876597 0.500000
O O15 0.500000 0.000000 0.637349
O O16 0.979639 0.128107 0.887310
O O17 0.835204 0.119950 0.000000
#
# Coordination Sequence:
#
# PCOD8302878 Si02
#       7
#     8   8   8   8   8   8   8
#     4  12  23  34  61  89 115 156 204 248 292 358
#     4   9  19  34  51  78 115 148 186 242 299 341
#     4  11  25  42  60  87 123 166 208 254 304 359
#     4   9  20  40  63  88 122 160 198 247 308 372
#     4  12  24  39  61  90 121 156 211 254 303 367
#     4  10  22  42  60  79 119 166 203 239 294 365
#     4   9  18  37  64  87 111 144 185 243 314 368
#
# _framework density 19.32696
#
# number of rings (size 3 to 8) (size 9 to 14) (size 15 to 20)
#    0.000    1.714    2.857    3.000    4.000    3.714 
#    0.000    0.714    0.000    1.286    0.000    0.000 
#    0.000    0.000    0.000    0.000    0.000    0.000 
#
# Total GULP energy -694277.972664 kJ/mol
# GULP energy per Si atom -12397.820940 kJ/mol
# Density = 1.928297 g / cm^3
# Si number density = 19.326960 Si / 1000 Ang^3
#
#
#
# Elastic Constant Matrix: (Units=GPa)
#
#
# Indices 1 2 3 4 5 6 
#
# 1 68.3037 14.1191 29.3055 0.0000 0.0000 -0.8509
# 2 14.1191 68.3037 29.3055 0.0000 0.0000 0.8509
# 3 29.3055 29.3055 94.7502 0.0000 0.0000 0.0000
# 4 0.0000 0.0000 0.0000 30.0064 0.0000 0.0000
# 5 0.0000 0.0000 0.0000 0.0000 30.0064 0.0000
# 6 -0.8509 0.8509 0.0000 0.0000 0.0000 24.7379
#
#
#
# Elastic Compliance Matrix: (Units=1/GPa)
#
#
# Indices 1 2 3 4 5 6 
#
# 1 0.017014 -0.001461 -0.004811 0.000000 0.000000 0.000635
# 2 -0.001461 0.017014 -0.004811 0.000000 0.000000 -0.000635
# 3 -0.004811 -0.004811 0.013530 0.000000 0.000000 0.000000
# 4 0.000000 0.000000 0.000000 0.033326 0.000000 0.000000
# 5 0.000000 0.000000 0.000000 0.000000 0.033326 0.000000
# 6 0.000635 -0.000635 0.000000 0.000000 0.000000 0.040467
#
#
# Mechanical properties :
#
#
# Convention : Reuss Voigt Hill
#
# Bulk Modulus (GPa) = 39.37883 41.86863 40.62373
# Shear Modulus (GPa) = 26.98221 27.52532 27.25376
#
# Velocity S-wave (km/s) = 3.74048 3.77794 3.75926
# Velocity P-wave (km/s) = 6.25094 6.38285 6.31724
#
# Compressibility (1/GPa) = 0.02539436
#
# Stress axis : x y z
#
# Youngs Moduli (GPa) = 58.77389 58.77389 73.91103
#
# Poissons Ratio (x) = 0.08587 0.35555
# Poissons Ratio (y) = 0.08587 0.35555
# Poissons Ratio (z) = 0.28273 0.28273
#
# Static dielectric constant tensor:
#      x y z
#    x 3.409750 0.000000 0.000000 
#    y 0.000000 3.409750 0.000000 
#    z 0.000000 0.000000 3.599810 
# 
# 
# High freq. dielectric constant tensor:
#      x y z
#    x 1.743840 0.000000 0.000000 
#    y 0.000000 1.743840 0.000000 
#    z 0.000000 0.000000 1.756270 
# 
# From -- ./inp_files/2392.got.cif
#   From: 2010.03.12/outbox.cif.g09.slc.cpg/sg83_2_cif.got.tgz:2392.got - 2010.04.08 20:05:18.
