data_PCOD8302780
_publ_section_title
;
Structure prediction by ZEFSAII (Michael W. Deem and Ramdas Pophale) SiO2 
 PCOD8302780
Probable space group: P 4/M
;
_chemical_formula_sum "Si O2"
_cell_formula_units_Z 40
_cell_length_a 14.619859
_cell_length_b 14.619859
_cell_length_c 10.335513
_cell_angle_alpha 90.000000
_cell_angle_beta 90.000000
_cell_angle_gamma 90.000000
_cell_volume 2209.115413
_symmetry_space_group_name_H-M "P 4/M"
_symmetry_group_IT_number 83
_symmetry_cell_setting 'tetragonal'
loop_
_space_group_symop_operation_xyz
x,y,z
-y,x,z
-x,-y,z
y,-x,z
-x,-y,-z
y,-x,-z
x,y,-z
-y,x,-z
loop_
_atom_site_type_symbol
_atom_site_label
_atom_site_fract_x
_atom_site_fract_y
_atom_site_fract_z
Si Si1 0.793084 0.178639 0.500000
Si Si2 0.786010 0.683189 0.749304
Si Si3 0.280120 0.022117 0.000000
Si Si4 0.571649 0.369804 0.352205
Si Si5 0.208701 0.820221 0.000000
Si Si6 0.719799 0.977837 0.500000
Si Si7 0.391832 0.985426 0.749841
O O1 0.748593 0.222524 0.626264
O O2 0.899520 0.203779 0.500000
O O3 0.779830 0.069729 0.500000
O O4 0.703795 0.611137 0.746973
O O5 0.775852 0.744486 0.875663
O O6 0.877642 0.624319 0.748902
O O7 0.345613 0.030125 0.124278
O O8 0.205087 0.102116 0.000000
O O9 0.220302 0.929649 0.000000
O O10 0.622148 0.464633 0.324820
O O11 0.587815 0.338511 0.500000
O O12 0.654051 0.969227 0.624089
O O13 0.500000 0.000000 0.750014
#
# Coordination Sequence:
#
# PCOD8302780 Si02
#       7
#     4   8   4   8   4   4   8
#     4  10  20  35  54  77 108 138 180 228 273 325
#     4  10  20  36  54  81 110 142 181 229 272 323
#     4  10  21  39  58  80 110 146 182 227 271 325
#     4   9  18  34  55  80 108 141 182 224 269 324
#     4  10  22  37  58  81 112 144 184 224 275 327
#     4  10  21  35  54  80 108 140 180 227 273 325
#     4  10  21  37  55  80 113 143 181 225 273 329
#
# _framework density 18.106795999999999
#
# number of rings (size 3 to 8) (size 9 to 14) (size 15 to 20)
#    0.000    2.200    1.000    2.400    0.000    3.600 
#    0.000    1.000    0.000    8.400    0.000    0.000 
#    0.000    0.000    0.000    0.000    0.000    0.000 
#
# Total GULP energy -496096.084497 kJ/mol
# GULP energy per Si atom -12402.402112 kJ/mol
# Density = 1.806558 g / cm^3
# Si number density = 18.106796 Si / 1000 Ang^3
#
#
#
# Elastic Constant Matrix: (Units=GPa)
#
#
# Indices 1 2 3 4 5 6 
#
# 1 102.5704 57.8411 49.0482 0.0000 0.0000 16.6360
# 2 57.8411 102.5704 49.0482 0.0000 0.0000 -16.6360
# 3 49.0482 49.0482 143.4624 0.0000 0.0000 0.0000
# 4 0.0000 0.0000 0.0000 74.1330 0.0000 0.0000
# 5 0.0000 0.0000 0.0000 0.0000 74.1330 0.0000
# 6 16.6360 -16.6360 0.0000 0.0000 0.0000 34.0114
#
#
#
# Elastic Compliance Matrix: (Units=1/GPa)
#
#
# Indices 1 2 3 4 5 6 
#
# 1 0.021513 -0.013631 -0.002695 0.000000 0.000000 -0.017190
# 2 -0.013631 0.021513 -0.002695 0.000000 0.000000 0.017190
# 3 -0.002695 -0.002695 0.008813 0.000000 0.000000 0.000000
# 4 0.000000 0.000000 0.000000 0.013489 0.000000 0.000000
# 5 0.000000 0.000000 0.000000 0.000000 0.013489 0.000000
# 6 -0.017190 0.017190 0.000000 0.000000 0.000000 0.046218
#
#
# Mechanical properties :
#
#
# Convention : Reuss Voigt Hill
#
# Bulk Modulus (GPa) = 72.47479 73.38648 72.93063
# Shear Modulus (GPa) = 29.81974 49.29986 39.55980
#
# Velocity S-wave (km/s) = 4.06258 5.22364 4.67926
# Velocity P-wave (km/s) = 7.88158 8.77494 8.34023
#
# Compressibility (1/GPa) = 0.01379790
#
# Stress axis : x y z
#
# Youngs Moduli (GPa) = 46.48446 46.48446 113.46801
#
# Poissons Ratio (x) = 0.63362 0.30576
# Poissons Ratio (y) = 0.63362 0.30576
# Poissons Ratio (z) = 0.12526 0.12526
#
# Static dielectric constant tensor:
#      x y z
#    x 3.231270 0.000000 0.000000 
#    y 0.000000 3.231270 0.000000 
#    z 0.000000 0.000000 3.581360 
# 
# 
# High freq. dielectric constant tensor:
#      x y z
#    x 1.701240 0.000000 0.000000 
#    y 0.000000 1.701240 0.000000 
#    z 0.000000 0.000000 1.708120 
# 
# From -- ./inp_files/785.got.cif
#   From: 2010.03.12/outbox.cif.g09.slc.cpg/sg83_1_cif.got.tgz:785.got - 2010.04.08 20:05:18.
