data_PCOD8302029
_publ_section_title
;
Structure prediction by ZEFSAII (Michael W. Deem and Ramdas Pophale) SiO2 
 PCOD8302029
Probable space group: P 43
;
_chemical_formula_sum "Si O2"
_cell_formula_units_Z 24
_cell_length_a 11.444899
_cell_length_b 11.444899
_cell_length_c 7.909354
_cell_angle_alpha 90.000000
_cell_angle_beta 90.000000
_cell_angle_gamma 90.000000
_cell_volume 1036.012374
_symmetry_space_group_name_H-M "P 43"
_symmetry_group_IT_number 78
_symmetry_cell_setting 'tetragonal'
loop_
_space_group_symop_operation_xyz
x,y,z
-y,x,3/4+z
-x,-y,1/2+z
y,-x,1/4+z
loop_
_atom_site_type_symbol
_atom_site_label
_atom_site_fract_x
_atom_site_fract_y
_atom_site_fract_z
Si Si1 0.371904 0.444623 0.477280
Si Si2 0.224831 0.548093 0.919450
Si Si3 0.932067 0.627768 0.256701
Si Si4 0.856665 0.535145 0.781406
Si Si5 0.983157 0.292994 0.403590
Si Si6 0.889630 0.072485 0.566936
O O1 0.431062 0.413119 0.298454
O O2 0.408583 0.354146 0.625875
O O3 0.234582 0.451520 0.435174
O O4 0.185238 0.446086 0.790825
O O5 0.147305 0.661264 0.881283
O O6 0.211291 0.501597 0.111130
O O7 0.904560 0.753226 0.339003
O O8 0.046317 0.562683 0.335878
O O9 0.955033 0.642420 0.060186
O O10 0.928457 0.660189 0.755529
O O11 0.964512 0.155308 0.435504
O O12 0.940897 0.090463 0.753185
#
# Coordination Sequence:
#
# PCOD8302029 Si02
#       6
#     4   4   4   4   4   4
#     4  12  26  43  63  95 135 170 218 280 334 397
#     4  10  22  39  70  92 127 174 219 270 333 398
#     4   9  20  43  67  89 131 176 218 263 333 400
#     4  10  22  43  65  99 125 176 226 264 331 409
#     4   9  20  39  67  94 127 170 216 268 328 404
#     4  10  22  39  62  95 133 168 213 273 331 392
#
# _framework density 23.165745999999999
#
# number of rings (size 3 to 8) (size 9 to 14) (size 15 to 20)
#    0.000    2.000    0.000    2.000    7.000    2.667 
#   12.000    0.000    0.000    0.000    0.000    0.000 
#    0.000    0.000    0.000    0.000    0.000    0.000 
#
# Total GULP energy -297369.643410 kJ/mol
# GULP energy per Si atom -12390.401809 kJ/mol
# Density = 2.311302 g / cm^3
# Si number density = 23.165746 Si / 1000 Ang^3
#
#
#
# Elastic Constant Matrix: (Units=GPa)
#
#
# Indices 1 2 3 4 5 6 
#
# 1 89.9080 39.2487 17.4099 0.0000 0.0000 6.2121
# 2 39.2487 89.9080 17.4099 0.0000 0.0000 -6.2121
# 3 17.4099 17.4099 42.5415 0.0000 0.0000 0.0000
# 4 0.0000 0.0000 0.0000 31.8232 0.0000 0.0000
# 5 0.0000 0.0000 0.0000 0.0000 31.8232 0.0000
# 6 6.2121 -6.2121 0.0000 0.0000 0.0000 20.9907
#
#
#
# Elastic Compliance Matrix: (Units=1/GPa)
#
#
# Indices 1 2 3 4 5 6 
#
# 1 0.014994 -0.006291 -0.003562 0.000000 0.000000 -0.006299
# 2 -0.006291 0.014994 -0.003562 0.000000 0.000000 0.006299
# 3 -0.003562 -0.003562 0.026422 0.000000 0.000000 0.000000
# 4 0.000000 0.000000 0.000000 0.031424 0.000000 0.000000
# 5 0.000000 0.000000 0.000000 0.000000 0.031424 0.000000
# 6 -0.006299 0.006299 0.000000 0.000000 0.000000 0.051369
#
#
# Mechanical properties :
#
#
# Convention : Reuss Voigt Hill
#
# Bulk Modulus (GPa) = 33.80571 41.16603 37.48587
# Shear Modulus (GPa) = 24.11812 26.81333 25.46573
#
# Velocity S-wave (km/s) = 3.23013 3.40583 3.31914
# Velocity P-wave (km/s) = 5.34194 5.76845 5.55929
#
# Compressibility (1/GPa) = 0.02958080
#
# Stress axis : x y z
#
# Youngs Moduli (GPa) = 66.69488 66.69488 37.84795
#
# Poissons Ratio (x) = 0.41957 0.13480
# Poissons Ratio (y) = 0.41957 0.13480
# Poissons Ratio (z) = 0.23754 0.23754
#
# Static dielectric constant tensor:
#      x y z
#    x 4.212550 0.000000 0.000000 
#    y 0.000000 4.212550 0.000000 
#    z 0.000000 0.000000 3.814070 
# 
# 
# High freq. dielectric constant tensor:
#      x y z
#    x 1.920260 0.000000 0.000000 
#    y 0.000000 1.920260 0.000000 
#    z 0.000000 0.000000 1.894050 
# 
# From -- ./inp_files/583.got.cif
#   From: 2010.03.12/outbox.cif.g09.slc.cpg/sg78_cif.got.tgz:583.got - 2010.04.16 16:37:20.
