data_PCOD8302927
_publ_section_title
;
Structure prediction by ZEFSAII (Michael W. Deem and Ramdas Pophale) SiO2 
 PCOD8302927
Probable space group: P 4/M
;
_chemical_formula_sum "Si O2"
_cell_formula_units_Z 64
_cell_length_a 11.853394
_cell_length_b 11.853394
_cell_length_c 23.553600
_cell_angle_alpha 90.000000
_cell_angle_beta 90.000000
_cell_angle_gamma 90.000000
_cell_volume 3309.350267
_symmetry_space_group_name_H-M "P 4/M"
_symmetry_group_IT_number 83
_symmetry_cell_setting 'tetragonal'
loop_
_space_group_symop_operation_xyz
x,y,z
-y,x,z
-x,-y,z
y,-x,z
-x,-y,-z
y,-x,-z
x,y,-z
-y,x,-z
loop_
_atom_site_type_symbol
_atom_site_label
_atom_site_fract_x
_atom_site_fract_y
_atom_site_fract_z
Si Si1 0.320010 0.531953 0.609427
Si Si2 0.893180 0.417401 0.183300
Si Si3 0.001130 0.172207 0.933402
Si Si4 0.528173 0.681011 0.741382
Si Si5 0.085313 0.596228 0.938725
Si Si6 0.916001 0.403424 0.434597
Si Si7 0.178758 0.044288 0.767251
Si Si8 0.821023 0.959111 0.635454
O O1 0.371232 0.410170 0.594485
O O2 0.287459 0.535893 0.675474
O O3 0.210797 0.551884 0.571593
O O4 0.795133 0.458365 0.224144
O O5 0.842178 0.427421 0.118198
O O6 0.929314 0.289138 0.195991
O O7 0.000000 0.500000 0.190458
O O8 0.996576 0.302491 0.918668
O O9 0.111662 0.111465 0.907614
O O10 0.002592 0.154913 0.000000
O O11 0.407256 0.626932 0.756519
O O12 0.000000 0.500000 0.953281
O O13 0.150768 0.620426 0.000000
O O14 0.941610 0.377211 0.500000
O O15 0.934258 0.289317 0.400361
O O16 0.000000 0.500000 0.411414
O O17 0.211231 0.050898 0.701252
O O18 0.081295 0.134915 0.781652
O O19 0.916444 0.866865 0.620624
#
# Coordination Sequence:
#
# PCOD8302927 Si02
#       8
#     8   8   8   8   8   8   8   8
#     4   9  20  40  64  87 111 147 191 235 292 348
#     4  11  23  35  56  88 115 145 189 231 282 344
#     4   8  14  27  49  75  98 125 169 219 263 308
#     4   9  20  40  63  86 113 144 184 238 291 338
#     4   9  19  36  51  70 108 152 186 219 262 323
#     4  11  25  39  55  86 123 155 195 242 281 322
#     4   9  20  38  59  87 121 149 178 231 297 348
#     4   9  20  40  62  83 112 155 198 232 279 343
#
# _framework density 19.339143
#
# number of rings (size 3 to 8) (size 9 to 14) (size 15 to 20)
#    0.000    2.625    0.000    2.625    3.500    4.000 
#    2.250    2.500    0.000    0.000    0.000    0.875 
#    0.000    0.000    0.000    0.000    0.000    0.000 
#
# Total GULP energy -792980.660040 kJ/mol
# GULP energy per Si atom -12390.322813 kJ/mol
# Density = 1.929513 g / cm^3
# Si number density = 19.339143 Si / 1000 Ang^3
#
#
#
# Elastic Constant Matrix: (Units=GPa)
#
#
# Indices 1 2 3 4 5 6 
#
# 1 93.2718 20.8360 26.8202 0.0000 0.0000 -1.2475
# 2 20.8360 93.2718 26.8202 0.0000 0.0000 1.2475
# 3 26.8202 26.8202 77.0112 0.0000 0.0000 0.0000
# 4 0.0000 0.0000 0.0000 24.4316 0.0000 0.0000
# 5 0.0000 0.0000 0.0000 0.0000 24.4316 0.0000
# 6 -1.2475 1.2475 0.0000 0.0000 0.0000 18.2263
#
#
#
# Elastic Compliance Matrix: (Units=1/GPa)
#
#
# Indices 1 2 3 4 5 6 
#
# 1 0.012159 -0.001679 -0.003650 0.000000 0.000000 0.000947
# 2 -0.001679 0.012159 -0.003650 0.000000 0.000000 -0.000947
# 3 -0.003650 -0.003650 0.015527 0.000000 0.000000 0.000000
# 4 0.000000 0.000000 0.000000 0.040931 0.000000 0.000000
# 5 0.000000 0.000000 0.000000 0.000000 0.040931 0.000000
# 6 0.000947 -0.000947 0.000000 0.000000 0.000000 0.054995
#
#
# Mechanical properties :
#
#
# Convention : Reuss Voigt Hill
#
# Bulk Modulus (GPa) = 45.68829 45.83419 45.76124
# Shear Modulus (GPa) = 24.75816 26.02313 25.39065
#
# Velocity S-wave (km/s) = 3.58188 3.67225 3.62735
# Velocity P-wave (km/s) = 6.38612 6.46005 6.42319
#
# Compressibility (1/GPa) = 0.02188745
#
# Stress axis : x y z
#
# Youngs Moduli (GPa) = 82.24638 82.24638 64.40344
#
# Poissons Ratio (x) = 0.13812 0.23504
# Poissons Ratio (y) = 0.13812 0.23504
# Poissons Ratio (z) = 0.30016 0.30016
#
# Static dielectric constant tensor:
#      x y z
#    x 3.529850 0.000000 0.000000 
#    y 0.000000 3.529850 0.000000 
#    z 0.000000 0.000000 3.641670 
# 
# 
# High freq. dielectric constant tensor:
#      x y z
#    x 1.745580 0.000000 0.000000 
#    y 0.000000 1.745580 0.000000 
#    z 0.000000 0.000000 1.763130 
# 
# From -- ./inp_files/3227.got.cif
#   From: 2010.03.12/outbox.cif.g09.slc.cpg/sg83_2_cif.got.tgz:3227.got - 2010.04.08 20:05:18.
