data_PCOD8302558
_publ_section_title
;
Structure prediction by ZEFSAII (Michael W. Deem and Ramdas Pophale) SiO2 
 PCOD8302558
Probable space group: I -4 
;
_chemical_formula_sum "Si O2"
_cell_formula_units_Z 44
_cell_length_a 14.105055
_cell_length_b 14.105055
_cell_length_c 10.999778
_cell_angle_alpha 90.000000
_cell_angle_beta 90.000000
_cell_angle_gamma 90.000000
_cell_volume 2188.434175
_symmetry_space_group_name_H-M "I -4 "
_symmetry_group_IT_number 82
_symmetry_cell_setting 'tetragonal'
loop_
_space_group_symop_operation_xyz
x,y,z
y,-x,-z
-x,-y,z
-y,x,-z
1/2+x,1/2+y,1/2+z
1/2+y,1/2-x,1/2-z
1/2-x,1/2-y,1/2+z
1/2-y,1/2+x,1/2-z
loop_
_atom_site_type_symbol
_atom_site_label
_atom_site_fract_x
_atom_site_fract_y
_atom_site_fract_z
Si Si1 0.175493 0.197314 0.741012
Si Si2 0.509464 0.793443 0.366184
Si Si3 0.118177 0.902152 0.497784
Si Si4 0.325426 0.344958 0.747335
Si Si5 0.500000 0.500000 0.500000
Si Si6 0.000000 0.500000 0.750000
Si Si7 0.188919 0.019515 0.888792
O O1 0.116103 0.261503 0.835381
O O2 0.113489 0.180310 0.621448
O O3 0.265994 0.256506 0.700740
O O4 0.220012 0.101834 0.797274
O O5 0.441577 0.727488 0.286113
O O6 0.495428 0.905733 0.335811
O O7 0.490050 0.770459 0.508506
O O8 0.157520 0.839193 0.607781
O O9 0.011267 0.874039 0.464186
O O10 0.423600 0.334581 0.679415
O O11 0.584335 0.555309 0.431220
#
# Coordination Sequence:
#
# PCOD8302558 Si02
#       7
#     8   8   8   8   2   2   8
#     4  12  25  42  66  98 133 176 223 270 338 399
#     4  12  24  43  68  97 135 178 221 271 324 396
#     4  11  24  41  66  99 138 167 214 292 344 389
#     4  12  25  42  66  98 133 176 223 270 338 399
#     4  12  20  32  76  94 124 152 216 296 314 352
#     4  12  28  44  64 108 142 176 228 264 322 416
#     4  12  24  43  65 104 131 166 225 284 330 384
#
# _framework density 20.105699999999999
#
# number of rings (size 3 to 8) (size 9 to 14) (size 15 to 20)
#    0.000    0.182    9.091    0.000    5.091    0.000 
#    0.000    1.818    0.000    0.000    0.000    0.000 
#    0.000    0.000    0.000    0.000    0.000    0.000 
#
# Total GULP energy -272796.098208 kJ/mol
# GULP energy per Si atom -12399.822646 kJ/mol
# Density = 2.005994 g / cm^3
# Si number density = 20.105700 Si / 1000 Ang^3
#
#
#
# Elastic Constant Matrix: (Units=GPa)
#
#
# Indices 1 2 3 4 5 6 
#
# 1 101.9055 22.6357 23.0746 0.0000 0.0000 -4.3592
# 2 22.6357 101.9055 23.0746 0.0000 0.0000 4.3592
# 3 23.0746 23.0746 95.5269 0.0000 0.0000 0.0000
# 4 0.0000 0.0000 0.0000 25.6777 0.0000 0.0000
# 5 0.0000 0.0000 0.0000 0.0000 25.6777 0.0000
# 6 -4.3592 4.3592 0.0000 0.0000 0.0000 24.2243
#
#
#
# Elastic Compliance Matrix: (Units=1/GPa)
#
#
# Indices 1 2 3 4 5 6 
#
# 1 0.010844 -0.002026 -0.002130 0.000000 0.000000 0.002316
# 2 -0.002026 0.010844 -0.002130 0.000000 0.000000 -0.002316
# 3 -0.002130 -0.002130 0.011497 0.000000 0.000000 0.000000
# 4 0.000000 0.000000 0.000000 0.038944 0.000000 0.000000
# 5 0.000000 0.000000 0.000000 0.000000 0.038944 0.000000
# 6 0.002316 -0.002316 0.000000 0.000000 0.000000 0.042114
#
#
# Mechanical properties :
#
#
# Convention : Reuss Voigt Hill
#
# Bulk Modulus (GPa) = 48.51018 48.54529 48.52773
# Shear Modulus (GPa) = 28.96329 30.48612 29.72470
#
# Velocity S-wave (km/s) = 3.79958 3.89818 3.84920
# Velocity P-wave (km/s) = 6.59007 6.66773 6.62901
#
# Compressibility (1/GPa) = 0.02061423
#
# Stress axis : x y z
#
# Youngs Moduli (GPa) = 92.21395 92.21395 86.97653
#
# Poissons Ratio (x) = 0.18678 0.18528
# Poissons Ratio (y) = 0.18678 0.18528
# Poissons Ratio (z) = 0.19643 0.19643
#
# Static dielectric constant tensor:
#      x y z
#    x 3.672800 0.000000 0.000000 
#    y 0.000000 3.672800 0.000000 
#    z 0.000000 0.000000 3.647450 
# 
# 
# High freq. dielectric constant tensor:
#      x y z
#    x 1.786520 0.000000 0.000000 
#    y 0.000000 1.786520 0.000000 
#    z 0.000000 0.000000 1.784750 
# 
# From -- ./inp_files/1751.got.cif
#   From: 2010.03.12/outbox.cif.g09.slc.cpg/sg82_1_cif.got.tgz:1751.got - 2010.04.08 20:02:50.
