data_PCOD8302158
_publ_section_title
;
Structure prediction by ZEFSAII (Michael W. Deem and Ramdas Pophale) SiO2 
 PCOD8302158
Probable space group: I 41
;
_chemical_formula_sum "Si O2"
_cell_formula_units_Z 52
_cell_length_a 21.371347
_cell_length_b 21.371347
_cell_length_c 6.107146
_cell_angle_alpha 90.000000
_cell_angle_beta 90.000000
_cell_angle_gamma 90.000000
_cell_volume 2789.344107
_symmetry_space_group_name_H-M "I 41"
_symmetry_group_IT_number 80
_symmetry_cell_setting 'tetragonal'
loop_
_space_group_symop_operation_xyz
x,y,z
-y,1/2+x,1/4+z
-x,-y,z
y,1/2-x,1/4+z
1/2+x,1/2+y,1/2+z
1/2-y,x,3/4+z
1/2-x,1/2-y,1/2+z
1/2+y,-x,3/4+z
loop_
_atom_site_type_symbol
_atom_site_label
_atom_site_fract_x
_atom_site_fract_y
_atom_site_fract_z
Si Si1 0.060097 0.612403 0.597270
Si Si2 0.332182 0.452589 0.542185
Si Si3 0.500000 0.500000 0.089518
Si Si4 0.832165 0.453398 0.398503
Si Si5 0.214374 0.965382 0.658531
Si Si6 0.611508 0.941161 0.592585
Si Si7 0.214496 0.463603 0.783344
O O1 0.121994 0.604838 0.447574
O O2 0.076399 0.659233 0.800181
O O3 0.004603 0.639091 0.450793
O O4 0.041642 0.544327 0.686588
O O5 0.316953 0.481268 0.306212
O O6 0.381912 0.396867 0.504931
O O7 0.267893 0.424827 0.649450
O O8 0.542509 0.544368 0.240014
O O9 0.765734 0.427201 0.303224
O O10 0.864059 0.499404 0.224575
O O11 0.820866 0.489186 0.623688
O O12 0.251022 0.996590 0.463531
O O13 0.661504 0.921460 0.402853
#
# Coordination Sequence:
#
# PCOD8302158 Si02
#       7
#     8   8   4   8   8   8   8
#     4  11  20  32  51  79 118 147 182 230 282 343
#     4  10  20  34  52  78 115 146 184 227 279 337
#     4  12  20  30  48  88 118 148 172 222 292 352
#     4  10  20  34  52  78 115 146 184 227 279 337
#     4   9  20  35  50  74 115 144 187 221 271 334
#     4  11  20  32  51  79 118 147 182 230 282 343
#     4   9  20  35  50  74 115 144 187 221 271 334
#
# _framework density 18.642374
#
# number of rings (size 3 to 8) (size 9 to 14) (size 15 to 20)
#    0.000    1.846    3.077    1.846    0.000    0.000 
#    0.000    0.000    0.000    0.000    0.000    0.000 
#  332.308    0.000    0.000    0.000    0.000    0.000 
#
# Total GULP energy -322219.774463 kJ/mol
# GULP energy per Si atom -12393.068249 kJ/mol
# Density = 1.859994 g / cm^3
# Si number density = 18.642374 Si / 1000 Ang^3
#
#
#
# Elastic Constant Matrix: (Units=GPa)
#
#
# Indices 1 2 3 4 5 6 
#
# 1 94.2799 39.9625 29.6170 0.0000 0.0000 0.9166
# 2 39.9625 94.2799 29.6170 0.0000 0.0000 -0.9166
# 3 29.6170 29.6170 73.2705 0.0000 0.0000 0.0000
# 4 0.0000 0.0000 0.0000 33.5837 0.0000 0.0000
# 5 0.0000 0.0000 0.0000 0.0000 33.5837 0.0000
# 6 0.9166 -0.9166 0.0000 0.0000 0.0000 12.0442
#
#
#
# Elastic Compliance Matrix: (Units=1/GPa)
#
#
# Indices 1 2 3 4 5 6 
#
# 1 0.013762 -0.004696 -0.003665 0.000000 0.000000 -0.001405
# 2 -0.004696 0.013762 -0.003665 0.000000 0.000000 0.001405
# 3 -0.003665 -0.003665 0.016611 0.000000 0.000000 0.000000
# 4 0.000000 0.000000 0.000000 0.029776 0.000000 0.000000
# 5 0.000000 0.000000 0.000000 0.000000 0.029776 0.000000
# 6 -0.001405 0.001405 0.000000 0.000000 0.000000 0.083241
#
#
# Mechanical properties :
#
#
# Convention : Reuss Voigt Hill
#
# Bulk Modulus (GPa) = 49.78992 51.13590 50.46291
# Shear Modulus (GPa) = 22.97015 26.68458 24.82736
#
# Velocity S-wave (km/s) = 3.51400 3.78748 3.65330
# Velocity P-wave (km/s) = 6.57497 6.82760 6.70248
#
# Compressibility (1/GPa) = 0.02008439
#
# Stress axis : x y z
#
# Youngs Moduli (GPa) = 72.66398 72.66398 60.20212
#
# Poissons Ratio (x) = 0.34121 0.22062
# Poissons Ratio (y) = 0.34121 0.22062
# Poissons Ratio (z) = 0.26629 0.26629
#
# Static dielectric constant tensor:
#      x y z
#    x 3.610060 0.000000 0.000000 
#    y 0.000000 3.610060 0.000000 
#    z 0.000000 0.000000 4.206920 
# 
# 
# High freq. dielectric constant tensor:
#      x y z
#    x 1.697560 0.000000 0.000000 
#    y 0.000000 1.697560 0.000000 
#    z 0.000000 0.000000 1.753820 
# 
# From -- ./inp_files/309.got.cif
#   From: 2010.03.12/outbox.cif.g09.slc.cpg/sg80_cif.got.tgz:309.got - 2010.04.08 20:00:04.
