data_PCOD8302421
_publ_section_title
;
Structure prediction by ZEFSAII (Michael W. Deem and Ramdas Pophale) SiO2 
 PCOD8302421
Probable space group: I -4 
;
_chemical_formula_sum "Si O2"
_cell_formula_units_Z 48
_cell_length_a 14.663152
_cell_length_b 14.663152
_cell_length_c 10.649138
_cell_angle_alpha 90.000000
_cell_angle_beta 90.000000
_cell_angle_gamma 90.000000
_cell_volume 2289.650146
_symmetry_space_group_name_H-M "I -4 "
_symmetry_group_IT_number 82
_symmetry_cell_setting 'tetragonal'
loop_
_space_group_symop_operation_xyz
x,y,z
y,-x,-z
-x,-y,z
-y,x,-z
1/2+x,1/2+y,1/2+z
1/2+y,1/2-x,1/2-z
1/2-x,1/2-y,1/2+z
1/2-y,1/2+x,1/2-z
loop_
_atom_site_type_symbol
_atom_site_label
_atom_site_fract_x
_atom_site_fract_y
_atom_site_fract_z
Si Si1 0.776919 0.932431 0.550166
Si Si2 0.295596 0.876749 0.980687
Si Si3 0.862731 0.449731 0.721515
Si Si4 0.143116 0.527083 0.240936
Si Si5 0.327514 0.560227 0.828033
Si Si6 0.387219 0.566138 0.557813
O O1 0.718396 0.847486 0.500068
O O2 0.709752 0.001337 0.625528
O O3 0.853305 0.888884 0.637871
O O4 0.828289 0.983385 0.436082
O O5 0.298178 0.918448 0.842413
O O6 0.340656 0.950401 0.074054
O O7 0.190920 0.861295 0.021372
O O8 0.882831 0.553147 0.757073
O O9 0.777853 0.412254 0.803248
O O10 0.062838 0.596437 0.197326
O O11 0.372570 0.524803 0.697885
O O12 0.483479 0.616988 0.543252
#
# Coordination Sequence:
#
# PCOD8302421 Si02
#       6
#     8   8   8   8   8   8
#     4  11  24  43  60  96 135 172 218 270 335 403
#     4  10  21  40  63  96 126 172 219 272 333 383
#     4  10  21  38  67  94 129 166 217 279 335 392
#     4   9  20  37  63  93 126 169 220 269 333 396
#     4  11  25  42  64  98 130 173 221 271 338 392
#     4  10  23  44  69  94 127 173 227 267 327 408
#
# _framework density 20.963901
#
# number of rings (size 3 to 8) (size 9 to 14) (size 15 to 20)
#    0.000    1.833    1.667    1.000    2.333    8.333 
#   12.000    0.000    0.000    0.000    0.000    0.000 
#    0.000    0.000    0.000    0.000    0.000    0.000 
#
# Total GULP energy -297494.662006 kJ/mol
# GULP energy per Si atom -12395.610917 kJ/mol
# Density = 2.091619 g / cm^3
# Si number density = 20.963901 Si / 1000 Ang^3
#
#
#
# Elastic Constant Matrix: (Units=GPa)
#
#
# Indices 1 2 3 4 5 6 
#
# 1 85.2219 22.5756 30.7617 0.0000 0.0000 -4.7615
# 2 22.5756 85.2219 30.7617 0.0000 0.0000 4.7615
# 3 30.7617 30.7617 93.8499 0.0000 0.0000 0.0000
# 4 0.0000 0.0000 0.0000 32.2702 0.0000 0.0000
# 5 0.0000 0.0000 0.0000 0.0000 32.2702 0.0000
# 6 -4.7615 4.7615 0.0000 0.0000 0.0000 31.1180
#
#
#
# Elastic Compliance Matrix: (Units=1/GPa)
#
#
# Indices 1 2 3 4 5 6 
#
# 1 0.013877 -0.002466 -0.003740 0.000000 0.000000 0.002501
# 2 -0.002466 0.013877 -0.003740 0.000000 0.000000 -0.002501
# 3 -0.003740 -0.003740 0.013107 0.000000 0.000000 0.000000
# 4 0.000000 0.000000 0.000000 0.030988 0.000000 0.000000
# 5 0.000000 0.000000 0.000000 0.000000 0.030988 0.000000
# 6 0.002501 -0.002501 0.000000 0.000000 0.000000 0.032901
#
#
# Mechanical properties :
#
#
# Convention : Reuss Voigt Hill
#
# Bulk Modulus (GPa) = 47.69033 48.05464 47.87248
# Shear Modulus (GPa) = 30.74623 31.14467 30.94545
#
# Velocity S-wave (km/s) = 3.83381 3.85857 3.84621
# Velocity P-wave (km/s) = 6.51119 6.54399 6.52761
#
# Compressibility (1/GPa) = 0.02096861
#
# Stress axis : x y z
#
# Youngs Moduli (GPa) = 72.06121 72.06121 76.29325
#
# Poissons Ratio (x) = 0.17768 0.28537
# Poissons Ratio (y) = 0.17768 0.28537
# Poissons Ratio (z) = 0.26954 0.26954
#
# Static dielectric constant tensor:
#      x y z
#    x 3.763030 0.000000 0.000000 
#    y 0.000000 3.763030 0.000000 
#    z 0.000000 0.000000 3.829030 
# 
# 
# High freq. dielectric constant tensor:
#      x y z
#    x 1.816750 0.000000 0.000000 
#    y 0.000000 1.816750 0.000000 
#    z 0.000000 0.000000 1.824320 
# 
# From -- ./inp_files/1761.got.cif
#   From: 2010.03.12/outbox.cif.g09.slc.cpg/sg82_1_cif.got.tgz:1761.got - 2010.04.08 20:02:50.
