data_PCOD8302420
_publ_section_title
;
Structure prediction by ZEFSAII (Michael W. Deem and Ramdas Pophale) SiO2 
 PCOD8302420
Probable space group: I -4 
;
_chemical_formula_sum "Si O2"
_cell_formula_units_Z 44
_cell_length_a 8.711303
_cell_length_b 8.711303
_cell_length_c 27.264186
_cell_angle_alpha 90.000000
_cell_angle_beta 90.000000
_cell_angle_gamma 90.000000
_cell_volume 2068.991829
_symmetry_space_group_name_H-M "I -4 "
_symmetry_group_IT_number 82
_symmetry_cell_setting 'tetragonal'
loop_
_space_group_symop_operation_xyz
x,y,z
y,-x,-z
-x,-y,z
-y,x,-z
1/2+x,1/2+y,1/2+z
1/2+y,1/2-x,1/2-z
1/2-x,1/2-y,1/2+z
1/2-y,1/2+x,1/2-z
loop_
_atom_site_type_symbol
_atom_site_label
_atom_site_fract_x
_atom_site_fract_y
_atom_site_fract_z
Si Si1 0.500499 0.749309 0.253462
Si Si2 0.000000 0.000000 0.164245
Si Si3 0.198034 0.807988 0.893623
Si Si4 0.293389 0.350164 0.006515
Si Si5 0.334379 0.522399 0.850813
Si Si6 0.141271 0.598388 0.580631
O O1 0.646569 0.851805 0.239040
O O2 0.530563 0.647952 0.301494
O O3 0.472785 0.645237 0.205451
O O4 0.026966 0.160191 0.132005
O O5 0.294809 0.795199 0.944215
O O6 0.285658 0.699759 0.855411
O O7 0.019007 0.764389 0.899144
O O8 0.288177 0.533770 0.997225
O O9 0.196563 0.278353 0.962194
O O10 0.500000 0.500000 0.877296
O O11 0.208137 0.415664 0.876036
O O12 0.000000 0.500000 0.558719
#
# Coordination Sequence:
#
# PCOD8302420 Si02
#       6
#     8   4   8   8   8   8
#     4  11  23  40  71  96 129 178 232 283 342 422
#     4  12  24  44  63 104 144 177 230 300 360 430
#     4  11  24  40  64  97 137 180 224 283 358 418
#     4  11  21  39  69  99 134 177 234 291 344 419
#     4  11  20  38  65  96 125 170 233 280 332 409
#     4  10  21  38  60  93 132 167 225 274 328 424
#
# _framework density 21.266396
#
# number of rings (size 3 to 8) (size 9 to 14) (size 15 to 20)
#    0.000    1.091    6.364    2.182    5.091    1.455 
#    0.000    0.000    0.000    7.091    0.000    0.000 
#    0.000    0.000    0.000    0.000    0.000    0.000 
#
# Total GULP energy -272566.575999 kJ/mol
# GULP energy per Si atom -12389.389818 kJ/mol
# Density = 2.121799 g / cm^3
# Si number density = 21.266396 Si / 1000 Ang^3
#
#
#
# Elastic Constant Matrix: (Units=GPa)
#
#
# Indices 1 2 3 4 5 6 
#
# 1 92.1728 31.6364 35.2735 0.0000 0.0000 8.2613
# 2 31.6364 92.1727 35.2735 0.0000 0.0000 -8.2612
# 3 35.2735 35.2735 135.0056 0.0000 0.0000 0.0000
# 4 0.0000 0.0000 0.0000 27.4462 0.0000 0.0000
# 5 0.0000 0.0000 0.0000 0.0000 27.4462 0.0000
# 6 8.2613 -8.2612 0.0000 0.0000 0.0000 20.6556
#
#
#
# Elastic Compliance Matrix: (Units=1/GPa)
#
#
# Indices 1 2 3 4 5 6 
#
# 1 0.014016 -0.004527 -0.002479 0.000000 0.000000 -0.007416
# 2 -0.004527 0.014016 -0.002479 0.000000 0.000000 0.007416
# 3 -0.002479 -0.002479 0.008703 0.000000 0.000000 0.000000
# 4 0.000000 0.000000 0.000000 0.036435 0.000000 0.000000
# 5 0.000000 0.000000 0.000000 0.000000 0.036435 0.000000
# 6 -0.007416 0.007416 0.000000 0.000000 0.000000 0.054345
#
#
# Mechanical properties :
#
#
# Convention : Reuss Voigt Hill
#
# Bulk Modulus (GPa) = 56.29209 58.19090 57.24149
# Shear Modulus (GPa) = 26.47692 29.58742 28.03217
#
# Velocity S-wave (km/s) = 3.53230 3.73403 3.63456
# Velocity P-wave (km/s) = 6.56990 6.78328 6.67744
#
# Compressibility (1/GPa) = 0.01776449
#
# Stress axis : x y z
#
# Youngs Moduli (GPa) = 71.34465 71.34465 114.90655
#
# Poissons Ratio (x) = 0.32296 0.28490
# Poissons Ratio (y) = 0.32296 0.28490
# Poissons Ratio (z) = 0.17689 0.17689
#
# Static dielectric constant tensor:
#      x y z
#    x 3.839540 0.000000 0.000000 
#    y 0.000000 3.839540 0.000000 
#    z 0.000000 0.000000 3.928860 
# 
# 
# High freq. dielectric constant tensor:
#      x y z
#    x 1.821000 0.000000 0.000000 
#    y 0.000000 1.821000 0.000000 
#    z 0.000000 0.000000 1.852200 
# 
# From -- ./inp_files/3954.got.cif
#   From: 2010.03.12/outbox.cif.g09.slc.cpg/sg82_2_cif.got.tgz:3954.got - 2010.04.08 20:02:50.
