data_PCOD8302372
_publ_section_title
;
Structure prediction by ZEFSAII (Michael W. Deem and Ramdas Pophale) SiO2 
 PCOD8302372
Probable space group: I -4 
;
_chemical_formula_sum "Si O2"
_cell_formula_units_Z 40
_cell_length_a 9.116328
_cell_length_b 9.116328
_cell_length_c 24.320751
_cell_angle_alpha 90.000000
_cell_angle_beta 90.000000
_cell_angle_gamma 90.000000
_cell_volume 2021.235262
_symmetry_space_group_name_H-M "I -4 "
_symmetry_group_IT_number 82
_symmetry_cell_setting 'tetragonal'
loop_
_space_group_symop_operation_xyz
x,y,z
y,-x,-z
-x,-y,z
-y,x,-z
1/2+x,1/2+y,1/2+z
1/2+y,1/2-x,1/2-z
1/2-x,1/2-y,1/2+z
1/2-y,1/2+x,1/2-z
loop_
_atom_site_type_symbol
_atom_site_label
_atom_site_fract_x
_atom_site_fract_y
_atom_site_fract_z
Si Si1 0.718914 0.666211 0.079322
Si Si2 0.917094 0.276781 0.189046
Si Si3 0.569624 0.232048 0.808121
Si Si4 0.020283 0.834830 0.076576
Si Si5 0.418047 0.150556 0.990927
O O1 0.668469 0.635955 0.142397
O O2 0.864083 0.761353 0.079705
O O3 0.753161 0.509910 0.051808
O O4 0.594291 0.755513 0.046923
O O5 0.788104 0.396080 0.181571
O O6 0.898242 0.194439 0.248296
O O7 0.072106 0.358425 0.190365
O O8 0.907788 0.164376 0.137864
O O9 0.123194 0.743963 0.034492
O O10 0.000000 0.000000 0.055026
O O11 0.500000 0.000000 0.005459
#
# Coordination Sequence:
#
# PCOD8302372 Si02
#       5
#     8   8   8   8   8
#     4  10  20  35  55  78 113 152 191 230 282 341
#     4   8  13  26  49  80 111 140 182 235 278 328
#     4   8  13  26  52  78 106 147 184 227 284 328
#     4  10  20  31  53  86 116 145 184 238 288 334
#     4  10  22  36  55  82 119 150 187 234 285 340
#
# _framework density 19.789881000000001
#
# number of rings (size 3 to 8) (size 9 to 14) (size 15 to 20)
#    0.000    2.800    2.000    1.200    5.600    0.400 
#    0.000    0.000    4.400    0.000    0.000    0.000 
#    0.000    0.000    0.000    0.000    0.000    0.000 
#
# Total GULP energy -247837.998654 kJ/mol
# GULP energy per Si atom -12391.899933 kJ/mol
# Density = 1.974484 g / cm^3
# Si number density = 19.789881 Si / 1000 Ang^3
#
#
#
# Elastic Constant Matrix: (Units=GPa)
#
#
# Indices 1 2 3 4 5 6 
#
# 1 62.2123 11.3618 51.1450 0.0000 0.0000 2.0692
# 2 11.3618 62.2123 51.1450 0.0000 0.0000 -2.0692
# 3 51.1450 51.1450 158.4395 0.0000 0.0000 0.0000
# 4 0.0000 0.0000 0.0000 11.7610 0.0000 0.0000
# 5 0.0000 0.0000 0.0000 0.0000 11.7610 0.0000
# 6 2.0692 -2.0692 0.0000 0.0000 0.0000 16.0562
#
#
#
# Elastic Compliance Matrix: (Units=1/GPa)
#
#
# Indices 1 2 3 4 5 6 
#
# 1 0.022266 0.002392 -0.007960 0.000000 0.000000 -0.002561
# 2 0.002392 0.022266 -0.007960 0.000000 0.000000 0.002561
# 3 -0.007960 -0.007960 0.011450 0.000000 0.000000 0.000000
# 4 0.000000 0.000000 0.000000 0.085027 0.000000 0.000000
# 5 0.000000 0.000000 0.000000 0.000000 0.085027 0.000000
# 6 -0.002561 0.002561 0.000000 0.000000 0.000000 0.062941
#
#
# Mechanical properties :
#
#
# Convention : Reuss Voigt Hill
#
# Bulk Modulus (GPa) = 34.56888 56.68530 45.62709
# Shear Modulus (GPa) = 15.35273 19.19646 17.27460
#
# Velocity S-wave (km/s) = 2.78832 3.11788 2.95769
# Velocity P-wave (km/s) = 5.27941 6.45503 5.89659
#
# Compressibility (1/GPa) = 0.02892775
#
# Stress axis : x y z
#
# Youngs Moduli (GPa) = 44.91137 44.91137 87.33264
#
# Poissons Ratio (x) = -0.10743 0.69515
# Poissons Ratio (y) = -0.10743 0.69515
# Poissons Ratio (z) = 0.35748 0.35748
#
# Static dielectric constant tensor:
#      x y z
#    x 3.467400 0.000000 0.000000 
#    y 0.000000 3.467400 0.000000 
#    z 0.000000 0.000000 4.311940 
# 
# 
# High freq. dielectric constant tensor:
#      x y z
#    x 1.730130 0.000000 0.000000 
#    y 0.000000 1.730130 0.000000 
#    z 0.000000 0.000000 1.794890 
# 
# From -- ./inp_files/3688.got.cif
#   From: 2010.03.12/outbox.cif.g09.slc.cpg/sg82_2_cif.got.tgz:3688.got - 2010.04.08 20:02:50.
