data_PCOD8302516
_publ_section_title
;
Structure prediction by ZEFSAII (Michael W. Deem and Ramdas Pophale) SiO2 
 PCOD8302516
Probable space group: I -4 
;
_chemical_formula_sum "Si O2"
_cell_formula_units_Z 60
_cell_length_a 12.001205
_cell_length_b 12.001205
_cell_length_c 22.085080
_cell_angle_alpha 90.000000
_cell_angle_beta 90.000000
_cell_angle_gamma 90.000000
_cell_volume 3180.890253
_symmetry_space_group_name_H-M "I -4 "
_symmetry_group_IT_number 82
_symmetry_cell_setting 'tetragonal'
loop_
_space_group_symop_operation_xyz
x,y,z
y,-x,-z
-x,-y,z
-y,x,-z
1/2+x,1/2+y,1/2+z
1/2+y,1/2-x,1/2-z
1/2-x,1/2-y,1/2+z
1/2-y,1/2+x,1/2-z
loop_
_atom_site_type_symbol
_atom_site_label
_atom_site_fract_x
_atom_site_fract_y
_atom_site_fract_z
Si Si1 0.836130 0.102283 0.196639
Si Si2 0.000000 0.000000 0.289281
Si Si3 0.805708 0.593860 0.377185
Si Si4 0.764352 0.891091 0.129053
Si Si5 0.816021 0.380593 0.314776
Si Si6 0.432279 0.673445 0.500757
Si Si7 0.366593 0.892565 0.268413
Si Si8 0.254697 0.536098 0.183264
O O1 0.907006 0.199075 0.167231
O O2 0.732032 0.162940 0.229711
O O3 0.898005 0.034413 0.248006
O O4 0.804149 0.015294 0.144816
O O5 0.962561 0.889453 0.326968
O O6 0.868594 0.482774 0.353948
O O7 0.759939 0.587532 0.445092
O O8 0.888659 0.699496 0.370028
O O9 0.849730 0.798996 0.152450
O O10 0.645667 0.868298 0.161623
O O11 0.756491 0.888169 0.056834
O O12 0.788313 0.412252 0.246020
O O13 0.906855 0.282363 0.318444
O O14 0.561811 0.641283 0.493144
O O15 0.475342 0.852664 0.232320
#
# Coordination Sequence:
#
# PCOD8302516 Si02
#       8
#     8   4   8   8   8   8   8   8
#     4  11  20  34  60  93 121 155 202 253 312 368
#     4  12  22  36  58  95 123 162 204 252 314 380
#     4  12  23  38  59  92 129 160 209 256 312 374
#     4  11  20  37  62  88 124 162 205 250 304 369
#     4  12  22  37  60  92 127 168 200 259 317 370
#     4  11  23  38  63  91 122 163 205 254 303 364
#     4   9  20  35  56  85 122 158 195 250 311 369
#     4  12  24  37  61  93 129 165 206 259 318 378
#
# _framework density 18.862644
#
# number of rings (size 3 to 8) (size 9 to 14) (size 15 to 20)
#    0.000    0.800    6.667    2.000    1.867    0.000 
#    0.000    0.000   14.667    0.000    0.000    0.933 
#    0.000    0.000    0.000    0.000    0.000    0.000 
#
# Total GULP energy -371878.729849 kJ/mol
# GULP energy per Si atom -12395.957662 kJ/mol
# Density = 1.881971 g / cm^3
# Si number density = 18.862644 Si / 1000 Ang^3
#
#
#
# Elastic Constant Matrix: (Units=GPa)
#
#
# Indices 1 2 3 4 5 6 
#
# 1 76.0816 31.1912 37.5971 0.0000 0.0000 4.7034
# 2 31.1912 76.0816 37.5971 0.0000 0.0000 -4.7034
# 3 37.5971 37.5971 111.6828 0.0000 0.0000 0.0000
# 4 0.0000 0.0000 0.0000 18.3445 0.0000 0.0000
# 5 0.0000 0.0000 0.0000 0.0000 18.3445 0.0000
# 6 4.7034 -4.7034 0.0000 0.0000 0.0000 27.2804
#
#
#
# Elastic Compliance Matrix: (Units=1/GPa)
#
#
# Indices 1 2 3 4 5 6 
#
# 1 0.017656 -0.005455 -0.004107 0.000000 0.000000 -0.003985
# 2 -0.005455 0.017656 -0.004107 0.000000 0.000000 0.003985
# 3 -0.004107 -0.004107 0.011719 0.000000 0.000000 0.000000
# 4 0.000000 0.000000 0.000000 0.054512 0.000000 0.000000
# 5 0.000000 0.000000 0.000000 0.000000 0.054512 0.000000
# 6 -0.003985 0.003985 0.000000 0.000000 0.000000 0.038030
#
#
# Mechanical properties :
#
#
# Convention : Reuss Voigt Hill
#
# Bulk Modulus (GPa) = 50.78192 52.95743 51.86967
# Shear Modulus (GPa) = 21.93067 23.29123 22.61095
#
# Velocity S-wave (km/s) = 3.41347 3.51776 3.46600
# Velocity P-wave (km/s) = 6.52043 6.68100 6.60120
#
# Compressibility (1/GPa) = 0.01969205
#
# Stress axis : x y z
#
# Youngs Moduli (GPa) = 56.63689 56.63689 85.32863
#
# Poissons Ratio (x) = 0.30896 0.35048
# Poissons Ratio (y) = 0.30896 0.35048
# Poissons Ratio (z) = 0.23263 0.23263
#
# Static dielectric constant tensor:
#      x y z
#    x 4.910130 0.000000 0.000000 
#    y 0.000000 4.910130 0.000000 
#    z 0.000000 0.000000 3.304070 
# 
# 
# High freq. dielectric constant tensor:
#      x y z
#    x 1.740300 0.000000 0.000000 
#    y 0.000000 1.740300 0.000000 
#    z 0.000000 0.000000 1.699240 
# 
# From -- ./inp_files/3188.got.cif
#   From: 2010.03.12/outbox.cif.g09.slc.cpg/sg82_2_cif.got.tgz:3188.got - 2010.04.08 20:02:50.
