data_PCOD8302059
_publ_section_title
;
Structure prediction by ZEFSAII (Michael W. Deem and Ramdas Pophale) SiO2 
 PCOD8302059
Probable space group: P 43
;
_chemical_formula_sum "Si O2"
_cell_formula_units_Z 20
_cell_length_a 13.353934
_cell_length_b 13.353934
_cell_length_c 4.791032
_cell_angle_alpha 90.000000
_cell_angle_beta 90.000000
_cell_angle_gamma 90.000000
_cell_volume 854.373014
_symmetry_space_group_name_H-M "P 43"
_symmetry_group_IT_number 78
_symmetry_cell_setting 'tetragonal'
loop_
_space_group_symop_operation_xyz
x,y,z
-y,x,3/4+z
-x,-y,1/2+z
y,-x,1/4+z
loop_
_atom_site_type_symbol
_atom_site_label
_atom_site_fract_x
_atom_site_fract_y
_atom_site_fract_z
Si Si1 0.365590 0.427186 0.789090
Si Si2 0.632536 0.243798 0.036477
Si Si3 0.553805 0.039155 0.133617
Si Si4 0.149203 0.830988 0.571501
Si Si5 0.768600 0.971486 0.295014
O O1 0.457028 0.382072 0.613104
O O2 0.270339 0.399880 0.601536
O O3 0.341105 0.381399 0.091522
O O4 0.560447 0.148079 0.984237
O O5 0.744905 0.210205 0.972765
O O6 0.469462 0.036262 0.376917
O O7 0.655954 0.013298 0.300860
O O8 0.125999 0.769561 0.851608
O O9 0.156125 0.947884 0.654632
O O10 0.060665 0.809245 0.348870
#
# Coordination Sequence:
#
# PCOD8302059 Si02
#       5
#     4   4   4   4   4
#     4  12  25  43  65  94 131 172 219 273 328 391
#     4  11  25  42  65  96 130 170 220 271 328 397
#     4  11  24  42  65  96 131 170 219 274 332 397
#     4  11  24  43  65  96 130 171 219 271 331 393
#     4  11  24  42  66  94 132 171 217 273 327 396
#
# _framework density 23.408977
#
# number of rings (size 3 to 8) (size 9 to 14) (size 15 to 20)
#    0.000    0.800    0.000    7.200    0.000   17.600 
#    0.000    0.000    0.000    0.000    0.000    0.000 
#    0.000    0.000    0.000    0.000    0.000    0.000 
#
# Total GULP energy -247856.085226 kJ/mol
# GULP energy per Si atom -12392.804261 kJ/mol
# Density = 2.335570 g / cm^3
# Si number density = 23.408977 Si / 1000 Ang^3
#
#
#
# Elastic Constant Matrix: (Units=GPa)
#
#
# Indices 1 2 3 4 5 6 
#
# 1 68.4098 59.3810 30.9638 0.0000 0.0000 13.5277
# 2 59.3810 68.4098 30.9638 0.0000 0.0000 -13.5277
# 3 30.9638 30.9638 121.8787 0.0000 0.0000 0.0000
# 4 0.0000 0.0000 0.0000 48.0204 0.0000 0.0000
# 5 0.0000 0.0000 0.0000 0.0000 48.0204 0.0000
# 6 13.5277 -13.5277 0.0000 0.0000 0.0000 14.9053
#
#
#
# Elastic Compliance Matrix: (Units=1/GPa)
#
#
# Indices 1 2 3 4 5 6 
#
# 1 -0.027742 0.036666 -0.002267 0.000000 0.000000 0.058456
# 2 0.036666 -0.027742 -0.002267 0.000000 0.000000 -0.058456
# 3 -0.002267 -0.002267 0.009357 0.000000 0.000000 0.000000
# 4 0.000000 0.000000 0.000000 0.020824 0.000000 0.000000
# 5 0.000000 0.000000 0.000000 0.000000 0.020824 0.000000
# 6 0.058456 -0.058456 0.000000 0.000000 0.000000 -0.039015
#
#
# Mechanical properties :
#
#
# Convention : Reuss Voigt Hill
#
# Bulk Modulus (GPa) = 55.13865 55.70171 55.42018
# Shear Modulus (GPa) = -49.15809 31.34854 -8.90477
#
# Velocity S-wave (km/s) = -4.58751 3.66343 -1.95250
# Velocity P-wave (km/s) = 2.11062 6.46073 4.31777
#
# Compressibility (1/GPa) = 0.01813610
#
# Stress axis : x y z
#
# Youngs Moduli (GPa) = -36.04603 -36.04603 106.87361
#
# Poissons Ratio (x) = 1.32167 0.24230
# Poissons Ratio (y) = 1.32167 0.24230
# Poissons Ratio (z) = -0.08172 -0.08172
#
# Static dielectric constant tensor:
#      x y z
#    x 4.172500 0.000000 0.000000 
#    y 0.000000 4.172500 0.000000 
#    z 0.000000 0.000000 4.158630 
# 
# 
# High freq. dielectric constant tensor:
#      x y z
#    x 1.924340 0.000000 0.000000 
#    y 0.000000 1.924340 0.000000 
#    z 0.000000 0.000000 1.943140 
# 
# From -- ./inp_files/154.got.cif
#   From: 2010.03.12/outbox.cif.g09.slc.cpg/sg78_cif.got.tgz:154.got - 2010.04.16 16:37:20.
