data_PCOD8302366
_publ_section_title
;
Structure prediction by ZEFSAII (Michael W. Deem and Ramdas Pophale) SiO2 
 PCOD8302366
Probable space group: I -4 
;
_chemical_formula_sum "Si O2"
_cell_formula_units_Z 50
_cell_length_a 15.173880
_cell_length_b 15.173880
_cell_length_c 10.889884
_cell_angle_alpha 90.000000
_cell_angle_beta 90.000000
_cell_angle_gamma 90.000000
_cell_volume 2507.359138
_symmetry_space_group_name_H-M "I -4 "
_symmetry_group_IT_number 82
_symmetry_cell_setting 'tetragonal'
loop_
_space_group_symop_operation_xyz
x,y,z
y,-x,-z
-x,-y,z
-y,x,-z
1/2+x,1/2+y,1/2+z
1/2+y,1/2-x,1/2-z
1/2-x,1/2-y,1/2+z
1/2-y,1/2+x,1/2-z
loop_
_atom_site_type_symbol
_atom_site_label
_atom_site_fract_x
_atom_site_fract_y
_atom_site_fract_z
Si Si1 0.000000 0.000000 0.500000
Si Si2 0.390231 0.812551 0.212759
Si Si3 0.987709 0.597190 0.894703
Si Si4 0.828940 0.583533 0.387432
Si Si5 0.229738 0.730687 0.927941
Si Si6 0.863531 0.137340 0.592808
Si Si7 0.598988 0.777630 0.707645
O O1 0.935649 0.061855 0.577593
O O2 0.377544 0.884139 0.103405
O O3 0.472242 0.834584 0.298081
O O4 0.302836 0.807943 0.297601
O O5 0.413565 0.721163 0.148631
O O6 0.000000 0.500000 0.842260
O O7 0.037541 0.599082 0.024540
O O8 0.770763 0.654226 0.465464
O O9 0.771268 0.500738 0.342235
O O10 0.877149 0.628785 0.271770
O O11 0.258440 0.831977 0.903023
O O12 0.312071 0.669801 0.969975
O O13 0.794986 0.099271 0.688160
#
# Coordination Sequence:
#
# PCOD8302366 Si02
#       7
#     2   8   8   8   8   8   8
#     4  12  28  40  60  92 118 168 212 256 292 364
#     4  10  19  36  61  85 125 162 204 261 304 380
#     4  11  20  33  56  97 125 158 206 250 320 368
#     4  10  23  36  63  92 127 166 201 263 315 378
#     4   9  21  42  61  89 122 165 213 248 320 376
#     4  10  24  41  60  88 123 166 212 254 311 367
#     4  10  22  42  62  93 125 163 208 256 322 374
#
# _framework density 19.941299999999998
#
# number of rings (size 3 to 8) (size 9 to 14) (size 15 to 20)
#    0.000    1.920    1.600    0.960    6.720    1.280 
#    0.000    4.800    0.000    0.000    0.000    0.000 
#    0.000    0.000    0.000    0.000    0.000    0.000 
#
# Total GULP energy -309790.446251 kJ/mol
# GULP energy per Si atom -12391.617850 kJ/mol
# Density = 1.989591 g / cm^3
# Si number density = 19.941300 Si / 1000 Ang^3
#
#
#
# Elastic Constant Matrix: (Units=GPa)
#
#
# Indices 1 2 3 4 5 6 
#
# 1 128.1029 57.8310 44.3057 0.0000 0.0000 -6.9792
# 2 57.8310 128.1029 44.3057 0.0000 0.0000 6.9792
# 3 44.3057 44.3057 73.0367 0.0000 0.0000 0.0000
# 4 0.0000 0.0000 0.0000 25.2112 0.0000 0.0000
# 5 0.0000 0.0000 0.0000 0.0000 25.2112 0.0000
# 6 -6.9792 6.9792 0.0000 0.0000 0.0000 34.4700
#
#
#
# Elastic Compliance Matrix: (Units=1/GPa)
#
#
# Indices 1 2 3 4 5 6 
#
# 1 0.011196 -0.003631 -0.004589 0.000000 0.000000 0.003002
# 2 -0.003631 0.011196 -0.004589 0.000000 0.000000 -0.003002
# 3 -0.004589 -0.004589 0.019260 0.000000 0.000000 0.000000
# 4 0.000000 0.000000 0.000000 0.039665 0.000000 0.000000
# 5 0.000000 0.000000 0.000000 0.000000 0.039665 0.000000
# 6 0.003002 -0.003002 0.000000 0.000000 0.000000 0.030226
#
#
# Mechanical properties :
#
#
# Convention : Reuss Voigt Hill
#
# Bulk Modulus (GPa) = 62.37063 69.12525 65.74794
# Shear Modulus (GPa) = 27.44669 29.16515 28.30592
#
# Velocity S-wave (km/s) = 3.71398 3.82848 3.77166
# Velocity P-wave (km/s) = 7.05241 7.36767 7.21177
#
# Compressibility (1/GPa) = 0.01603319
#
# Stress axis : x y z
#
# Youngs Moduli (GPa) = 89.31690 89.31690 51.92165
#
# Poissons Ratio (x) = 0.32428 0.23829
# Poissons Ratio (y) = 0.32428 0.23829
# Poissons Ratio (z) = 0.40991 0.40991
#
# Static dielectric constant tensor:
#      x y z
#    x 3.705710 0.000000 0.000000 
#    y 0.000000 3.705710 0.000000 
#    z 0.000000 0.000000 3.794210 
# 
# 
# High freq. dielectric constant tensor:
#      x y z
#    x 1.773660 0.000000 0.000000 
#    y 0.000000 1.773660 0.000000 
#    z 0.000000 0.000000 1.785420 
# 
# From -- ./inp_files/1805.got.cif
#   From: 2010.03.12/outbox.cif.g09.slc.cpg/sg82_1_cif.got.tgz:1805.got - 2010.04.08 20:02:50.
