data_PCOD8302524
_publ_section_title
;
Structure prediction by ZEFSAII (Michael W. Deem and Ramdas Pophale) SiO2 
 PCOD8302524
Probable space group: I -4 
;
_chemical_formula_sum "Si O2"
_cell_formula_units_Z 32
_cell_length_a 11.737697
_cell_length_b 11.737697
_cell_length_c 11.754793
_cell_angle_alpha 90.000000
_cell_angle_beta 90.000000
_cell_angle_gamma 90.000000
_cell_volume 1619.499336
_symmetry_space_group_name_H-M "I -4 "
_symmetry_group_IT_number 82
_symmetry_cell_setting 'tetragonal'
loop_
_space_group_symop_operation_xyz
x,y,z
y,-x,-z
-x,-y,z
-y,x,-z
1/2+x,1/2+y,1/2+z
1/2+y,1/2-x,1/2-z
1/2-x,1/2-y,1/2+z
1/2-y,1/2+x,1/2-z
loop_
_atom_site_type_symbol
_atom_site_label
_atom_site_fract_x
_atom_site_fract_y
_atom_site_fract_z
Si Si1 0.235534 0.623354 0.794639
Si Si2 0.265825 0.649124 0.429466
Si Si3 0.619347 0.562115 0.364214
Si Si4 0.116360 0.434746 0.912608
O O1 0.208658 0.745622 0.847666
O O2 0.365349 0.618019 0.751585
O O3 0.217033 0.525383 0.888976
O O4 0.147813 0.596395 0.693941
O O5 0.282360 0.533878 0.355807
O O6 0.357178 0.649366 0.530483
O O7 0.137881 0.654570 0.477859
O O8 0.500000 0.500000 0.383433
O O9 0.000000 0.500000 0.940049
#
# Coordination Sequence:
#
# PCOD8302524 Si02
#       4
#     8   8   8   8
#     4  11  22  40  63  92 120 155 203 248 296 353
#     4  11  22  40  63  92 120 155 203 248 296 353
#     4  11  21  38  68  88 115 161 207 242 289 360
#     4  11  21  38  68  88 115 161 207 242 289 360
#
# _framework density 19.759191999999999
#
# number of rings (size 3 to 8) (size 9 to 14) (size 15 to 20)
#    0.000    1.000    5.000    3.000    0.000    0.000 
#   18.000    0.000    0.000    0.000    0.000    0.000 
#    0.000    0.000    0.000    0.000    0.000    0.000 
#
# Total GULP energy -198440.145626 kJ/mol
# GULP energy per Si atom -12402.509102 kJ/mol
# Density = 1.971422 g / cm^3
# Si number density = 19.759192 Si / 1000 Ang^3
#
#
#
# Elastic Constant Matrix: (Units=GPa)
#
#
# Indices 1 2 3 4 5 6 
#
# 1 101.5422 22.8777 17.6577 0.0000 0.0000 -2.0693
# 2 22.8777 101.5422 17.6577 0.0000 0.0000 2.0693
# 3 17.6577 17.6577 26.3078 0.0000 0.0000 0.0000
# 4 0.0000 0.0000 0.0000 21.0865 0.0000 0.0000
# 5 0.0000 0.0000 0.0000 0.0000 21.0865 0.0000
# 6 -2.0693 2.0693 0.0000 0.0000 0.0000 27.1656
#
#
#
# Elastic Compliance Matrix: (Units=1/GPa)
#
#
# Indices 1 2 3 4 5 6 
#
# 1 0.011346 -0.001417 -0.006664 0.000000 0.000000 0.000972
# 2 -0.001417 0.011346 -0.006664 0.000000 0.000000 -0.000972
# 3 -0.006664 -0.006664 0.046958 0.000000 0.000000 0.000000
# 4 0.000000 0.000000 0.000000 0.047424 0.000000 0.000000
# 5 0.000000 0.000000 0.000000 0.000000 0.047424 0.000000
# 6 0.000972 -0.000972 0.000000 0.000000 0.000000 0.036959
#
#
# Mechanical properties :
#
#
# Convention : Reuss Voigt Hill
#
# Bulk Modulus (GPa) = 24.90138 38.41983 31.66060
# Shear Modulus (GPa) = 20.46379 25.28100 22.87240
#
# Velocity S-wave (km/s) = 3.22166 3.58083 3.40598
# Velocity P-wave (km/s) = 5.14476 6.04836 5.61477
#
# Compressibility (1/GPa) = 0.04015842
#
# Stress axis : x y z
#
# Youngs Moduli (GPa) = 88.13585 88.13584 21.29580
#
# Poissons Ratio (x) = 0.12491 0.14192
# Poissons Ratio (y) = 0.12491 0.14192
# Poissons Ratio (z) = 0.58736 0.58736
#
# Static dielectric constant tensor:
#      x y z
#    x 3.823500 0.000000 0.000000 
#    y 0.000000 3.823500 0.000000 
#    z 0.000000 0.000000 3.485370 
# 
# 
# High freq. dielectric constant tensor:
#      x y z
#    x 1.776700 0.000000 0.000000 
#    y 0.000000 1.776700 0.000000 
#    z 0.000000 0.000000 1.742500 
# 
# From -- ./inp_files/1484.got.cif
#   From: 2010.03.12/outbox.cif.g09.slc.cpg/sg82_1_cif.got.tgz:1484.got - 2010.04.08 20:02:50.
