data_PCOD8302956
_publ_section_title
;
Structure prediction by ZEFSAII (Michael W. Deem and Ramdas Pophale) SiO2 
 PCOD8302956
Probable space group: P 4/M
;
_chemical_formula_sum "Si O2"
_cell_formula_units_Z 48
_cell_length_a 8.365028
_cell_length_b 8.365028
_cell_length_c 30.745563
_cell_angle_alpha 90.000000
_cell_angle_beta 90.000000
_cell_angle_gamma 90.000000
_cell_volume 2151.380600
_symmetry_space_group_name_H-M "P 4/M"
_symmetry_group_IT_number 83
_symmetry_cell_setting 'tetragonal'
loop_
_space_group_symop_operation_xyz
x,y,z
-y,x,z
-x,-y,z
y,-x,z
-x,-y,-z
y,-x,-z
x,y,-z
-y,x,-z
loop_
_atom_site_type_symbol
_atom_site_label
_atom_site_fract_x
_atom_site_fract_y
_atom_site_fract_z
Si Si1 0.747826 0.586612 0.500000
Si Si2 0.741953 0.607733 0.917516
Si Si3 0.899367 0.758198 0.423643
Si Si4 0.889295 0.762291 0.674604
Si Si5 0.259684 0.392722 0.753980
Si Si6 0.892584 0.757821 0.000000
Si Si7 0.758571 0.107987 0.835271
O O1 0.596359 0.701906 0.500000
O O2 0.849936 0.619458 0.456704
O O3 0.579608 0.708171 0.919294
O O4 0.852632 0.654069 0.957836
O O5 0.838608 0.641930 0.873692
O O6 0.867467 0.698434 0.374526
O O7 0.083981 0.795630 0.432031
O O8 0.820648 0.628995 0.706804
O O9 0.075465 0.792233 0.683239
O O10 0.420957 0.291945 0.759603
O O11 0.136297 0.331482 0.789976
O O12 0.079945 0.791897 0.000000
O O13 0.920853 0.208219 0.838742
#
# Coordination Sequence:
#
# PCOD8302956 Si02
#       7
#     4   8   8   8   8   4   8
#     4  11  24  37  50  76 114 149 182 225 276 330
#     4  11  24  41  62  90 122 155 194 239 288 343
#     4   9  19  37  60  83 107 139 183 232 278 329
#     4   9  19  37  60  85 111 141 182 231 280 332
#     4  11  24  39  56  83 118 153 189 230 278 334
#     4  11  24  41  62  90 122 157 200 243 284 338
#     4  11  24  41  62  88 116 149 193 241 286 337
#
# _framework density 22.311253000000001
#
# number of rings (size 3 to 8) (size 9 to 14) (size 15 to 20)
#    0.000    1.667    0.000    5.000    0.000   15.333 
#    0.000    5.000    0.000    0.000    0.000    0.000 
#    0.000    0.000    0.000    0.000    0.000    0.000 
#
# Total GULP energy -595485.895861 kJ/mol
# GULP energy per Si atom -12405.956164 kJ/mol
# Density = 2.226047 g / cm^3
# Si number density = 22.311253 Si / 1000 Ang^3
#
#
#
# Elastic Constant Matrix: (Units=GPa)
#
#
# Indices 1 2 3 4 5 6 
#
# 1 16.7608 -11.2018 11.2881 0.0000 0.0000 -0.6716
# 2 -11.2018 16.7608 11.2881 0.0000 0.0000 0.6716
# 3 11.2881 11.2881 125.5369 0.0000 0.0000 0.0000
# 4 0.0000 0.0000 0.0000 -10.8783 0.0000 0.0000
# 5 0.0000 0.0000 0.0000 0.0000 -10.8783 0.0000
# 6 -0.6716 0.6716 0.0000 0.0000 0.0000 35.8662
#
#
#
# Elastic Compliance Matrix: (Units=1/GPa)
#
#
# Indices 1 2 3 4 5 6 
#
# 1 0.159581 0.123787 -0.025480 0.000000 0.000000 0.000670
# 2 0.123787 0.159581 -0.025480 0.000000 0.000000 -0.000670
# 3 -0.025480 -0.025480 0.012548 0.000000 0.000000 0.000000
# 4 0.000000 0.000000 0.000000 -0.091926 0.000000 0.000000
# 5 0.000000 0.000000 0.000000 0.000000 -0.091926 0.000000
# 6 0.000670 -0.000670 0.000000 0.000000 0.000000 0.027906
#
#
# Mechanical properties :
#
#
# Convention : Reuss Voigt Hill
#
# Bulk Modulus (GPa) = 2.09483 20.20081 11.14782
# Shear Modulus (GPa) = 26.42251 12.66753 19.54502
#
# Velocity S-wave (km/s) = 3.44505 2.38537 2.96297
# Velocity P-wave (km/s) = 4.09457 4.08171 4.08814
#
# Compressibility (1/GPa) = 0.47736471
#
# Stress axis : x y z
#
# Youngs Moduli (GPa) = 6.26639 6.26639 79.69359
#
# Poissons Ratio (x) = -0.77570 2.03060
# Poissons Ratio (y) = -0.77570 2.03060
# Poissons Ratio (z) = 0.15967 0.15967
#
# Static dielectric constant tensor:
#      x y z
#    x 3.951680 0.000000 0.000000 
#    y 0.000000 3.951680 0.000000 
#    z 0.000000 0.000000 4.040320 
# 
# 
# High freq. dielectric constant tensor:
#      x y z
#    x 1.881630 0.000000 0.000000 
#    y 0.000000 1.881630 0.000000 
#    z 0.000000 0.000000 1.889810 
# 
# From -- ./inp_files/3448.got.cif
#   From: 2010.03.12/outbox.cif.g09.slc.cpg/sg83_2_cif.got.tgz:3448.got - 2010.04.08 20:05:18.
