data_PCOD8302081
_publ_section_title
;
Structure prediction by ZEFSAII (Michael W. Deem and Ramdas Pophale) SiO2 
 PCOD8302081
Probable space group: I 4
;
_chemical_formula_sum "Si O2"
_cell_formula_units_Z 64
_cell_length_a 11.617500
_cell_length_b 11.617500
_cell_length_c 24.117285
_cell_angle_alpha 90.000000
_cell_angle_beta 90.000000
_cell_angle_gamma 90.000000
_cell_volume 3255.020873
_symmetry_space_group_name_H-M "I 4"
_symmetry_group_IT_number 79
_symmetry_cell_setting 'tetragonal'
loop_
_space_group_symop_operation_xyz
x,y,z
-y,x,z
-x,-y,z
y,-x,z
1/2+x,1/2+y,1/2+z
1/2-y,1/2+x,1/2+z
1/2-x,1/2-y,1/2+z
1/2+y,1/2-x,1/2+z
loop_
_atom_site_type_symbol
_atom_site_label
_atom_site_fract_x
_atom_site_fract_y
_atom_site_fract_z
Si Si1 0.992966 0.628182 0.083840
Si Si2 0.175101 0.019477 0.824768
Si Si3 0.810151 0.644347 0.000240
Si Si4 0.312259 0.512452 0.802510
Si Si5 0.187011 0.004355 0.176118
Si Si6 0.404525 0.906362 0.365966
Si Si7 0.620912 0.825880 0.985301
Si Si8 0.328990 0.543291 0.450725
O O1 0.019521 0.706708 0.135716
O O2 0.000000 0.500000 0.107171
O O3 0.863259 0.651480 0.062123
O O4 0.081005 0.646487 0.032797
O O5 0.149305 0.979134 0.886932
O O6 0.126138 0.899330 0.797891
O O7 0.310495 0.051620 0.821016
O O8 0.688214 0.708157 0.998022
O O9 0.793556 0.513438 0.981295
O O10 0.907103 0.701806 0.960480
O O11 0.379440 0.394655 0.814996
O O12 0.269273 0.504805 0.739194
O O13 0.204250 0.524809 0.842535
O O14 0.110020 0.115406 0.164206
O O15 0.374627 0.842292 0.424334
O O16 0.500000 0.000000 0.377822
O O17 0.360826 0.417951 0.477681
#
# Coordination Sequence:
#
# PCOD8302081 Si02
#       8
#     8   8   8   8   8   8   8   8
#     4  10  20  35  57  84 117 144 183 242 305 354
#     4   9  18  32  50  72 103 143 184 231 289 342
#     4  11  21  35  49  74 113 149 192 230 286 347
#     4   9  22  42  61  84 116 156 203 253 298 352
#     4   9  18  37  64  89 112 141 188 250 308 356
#     4  12  24  34  57  82 115 155 204 244 292 354
#     4  11  24  35  51  78 114 156 193 240 282 362
#     4   9  16  28  49  70  97 138 182 231 286 342
#
# _framework density 19.661932
#
# number of rings (size 3 to 8) (size 9 to 14) (size 15 to 20)
#    0.000    2.000    0.000    7.125    3.500    0.750 
#    0.000    1.250    0.000    1.500    0.000    0.000 
#    0.000    0.000    0.000    0.000    0.000    0.000 
#
# Total GULP energy -396436.887947 kJ/mol
# GULP energy per Si atom -12388.652748 kJ/mol
# Density = 1.961718 g / cm^3
# Si number density = 19.661932 Si / 1000 Ang^3
#
#
#
# Elastic Constant Matrix: (Units=GPa)
#
#
# Indices 1 2 3 4 5 6 
#
# 1 105.2459 41.9861 31.0649 0.0000 0.0000 -5.5495
# 2 41.9861 105.2459 31.0649 0.0000 0.0000 5.5495
# 3 31.0649 31.0649 69.8650 0.0000 0.0000 0.0000
# 4 0.0000 0.0000 0.0000 24.1737 0.0000 0.0000
# 5 0.0000 0.0000 0.0000 0.0000 24.1737 0.0000
# 6 -5.5495 5.5495 0.0000 0.0000 0.0000 32.9280
#
#
#
# Elastic Compliance Matrix: (Units=1/GPa)
#
#
# Indices 1 2 3 4 5 6 
#
# 1 0.012325 -0.003964 -0.003718 0.000000 0.000000 0.002745
# 2 -0.003964 0.012325 -0.003718 0.000000 0.000000 -0.002745
# 3 -0.003718 -0.003718 0.017619 0.000000 0.000000 0.000000
# 4 0.000000 0.000000 0.000000 0.041367 0.000000 0.000000
# 5 0.000000 0.000000 0.000000 0.000000 0.041367 0.000000
# 6 0.002745 -0.002745 0.000000 0.000000 0.000000 0.031295
#
#
# Mechanical properties :
#
#
# Convention : Reuss Voigt Hill
#
# Bulk Modulus (GPa) = 51.35945 54.28761 52.82353
# Shear Modulus (GPa) = 26.94140 28.00445 27.47292
#
# Velocity S-wave (km/s) = 3.70568 3.77808 3.74206
# Velocity P-wave (km/s) = 6.66989 6.83391 6.75240
#
# Compressibility (1/GPa) = 0.01947061
#
# Stress axis : x y z
#
# Youngs Moduli (GPa) = 81.13512 81.13512 56.75606
#
# Poissons Ratio (x) = 0.32165 0.21099
# Poissons Ratio (y) = 0.32165 0.21099
# Poissons Ratio (z) = 0.30162 0.30162
#
# Static dielectric constant tensor:
#      x y z
#    x 3.714760 0.000000 0.000000 
#    y 0.000000 3.714760 0.000000 
#    z 0.000000 0.000000 3.137660 
# 
# 
# High freq. dielectric constant tensor:
#      x y z
#    x 1.776950 0.000000 0.000000 
#    y 0.000000 1.776950 0.000000 
#    z 0.000000 0.000000 1.715960 
# 
# From -- ./inp_files/1997.got.cif
#   From: 2010.03.12/outbox.cif.g09.slc.cpg/sg79_cif.got.tgz:1997.got - 2010.04.16 16:38:49.
