data_PCOD8302005
_publ_section_title
;
Structure prediction by ZEFSAII (Michael W. Deem and Ramdas Pophale) SiO2 
 PCOD8302005
Probable space group: P 43
;
_chemical_formula_sum "Si O2"
_cell_formula_units_Z 32
_cell_length_a 10.249081
_cell_length_b 10.249081
_cell_length_c 17.538988
_cell_angle_alpha 90.000000
_cell_angle_beta 90.000000
_cell_angle_gamma 90.000000
_cell_volume 1842.359516
_symmetry_space_group_name_H-M "P 43"
_symmetry_group_IT_number 78
_symmetry_cell_setting 'tetragonal'
loop_
_space_group_symop_operation_xyz
x,y,z
-y,x,3/4+z
-x,-y,1/2+z
y,-x,1/4+z
loop_
_atom_site_type_symbol
_atom_site_label
_atom_site_fract_x
_atom_site_fract_y
_atom_site_fract_z
Si Si1 0.379413 0.021252 0.252810
Si Si2 0.710733 0.367397 0.590600
Si Si3 0.867586 0.981437 0.846733
Si Si4 0.715797 0.630809 0.501420
Si Si5 0.013791 0.113125 0.492641
Si Si6 0.281379 0.123219 0.101102
Si Si7 0.983302 0.641359 0.089812
Si Si8 0.286846 0.878442 0.994235
O O1 0.271943 0.062401 0.314842
O O2 0.360654 0.869159 0.232049
O O3 0.520102 0.051291 0.286916
O O4 0.365697 0.109695 0.177808
O O5 0.678830 0.501469 0.547817
O O6 0.634509 0.361326 0.671131
O O7 0.863572 0.351124 0.609098
O O8 0.662594 0.252526 0.534733
O O9 0.865035 0.130630 0.875211
O O10 0.973950 0.966272 0.781163
O O11 0.900433 0.885497 0.916253
O O12 0.671704 0.750942 0.554290
O O13 0.062956 0.228306 0.546954
O O14 0.863685 0.134606 0.469892
O O15 0.307735 0.996551 0.051360
O O16 0.903239 0.628983 0.168244
#
# Coordination Sequence:
#
# PCOD8302005 Si02
#       8
#     4   4   4   4   4   4   4   4
#     4  10  20  34  52  82 113 141 177 222 273 319
#     4  10  20  35  55  81 109 140 183 221 262 323
#     4  10  18  30  52  81 106 134 178 222 266 311
#     4  10  20  35  55  81 109 140 183 221 262 323
#     4  10  18  30  52  81 106 134 178 222 266 311
#     4  10  18  31  55  78 105 137 175 219 268 315
#     4  10  20  34  52  82 113 141 177 222 273 319
#     4  10  18  31  55  78 105 137 175 219 268 315
#
# _framework density 17.369032000000001
#
# number of rings (size 3 to 8) (size 9 to 14) (size 15 to 20)
#    0.000    2.000    5.000    0.000    0.000    0.000 
#    0.000    5.000    0.000    0.000    0.000    0.000 
#    0.000    0.000    0.000    0.000    0.000    0.000 
#
# Total GULP energy -396862.162197 kJ/mol
# GULP energy per Si atom -12401.942569 kJ/mol
# Density = 1.732950 g / cm^3
# Si number density = 17.369032 Si / 1000 Ang^3
#
#
#
# Elastic Constant Matrix: (Units=GPa)
#
#
# Indices 1 2 3 4 5 6 
#
# 1 63.9887 24.7219 38.4661 0.0000 0.0000 -3.0074
# 2 24.7219 63.9887 38.4661 0.0000 0.0000 3.0074
# 3 38.4661 38.4661 117.8356 0.0000 0.0000 0.0000
# 4 0.0000 0.0000 0.0000 24.9724 0.0000 0.0000
# 5 0.0000 0.0000 0.0000 0.0000 24.9724 0.0000
# 6 -3.0074 3.0074 0.0000 0.0000 0.0000 12.8839
#
#
#
# Elastic Compliance Matrix: (Units=1/GPa)
#
#
# Indices 1 2 3 4 5 6 
#
# 1 0.021068 -0.005344 -0.005133 0.000000 0.000000 0.006165
# 2 -0.005344 0.021068 -0.005133 0.000000 0.000000 -0.006165
# 3 -0.005133 -0.005133 0.011838 0.000000 0.000000 0.000000
# 4 0.000000 0.000000 0.000000 0.040044 0.000000 0.000000
# 5 0.000000 0.000000 0.000000 0.000000 0.040044 0.000000
# 6 0.006165 -0.006165 0.000000 0.000000 0.000000 0.080494
#
#
# Mechanical properties :
#
#
# Convention : Reuss Voigt Hill
#
# Bulk Modulus (GPa) = 43.94849 49.90235 46.92542
# Shear Modulus (GPa) = 19.73485 22.17633 20.95559
#
# Velocity S-wave (km/s) = 3.37443 3.57707 3.47723
# Velocity P-wave (km/s) = 6.36711 6.77153 6.57243
#
# Compressibility (1/GPa) = 0.02275391
#
# Stress axis : x y z
#
# Youngs Moduli (GPa) = 47.46632 47.46632 84.47675
#
# Poissons Ratio (x) = 0.25364 0.43361
# Poissons Ratio (y) = 0.25364 0.43361
# Poissons Ratio (z) = 0.24364 0.24364
#
# Static dielectric constant tensor:
#      x y z
#    x 3.040530 0.000000 0.000000 
#    y 0.000000 3.040530 0.000000 
#    z 0.000000 0.000000 3.234500 
# 
# 
# High freq. dielectric constant tensor:
#      x y z
#    x 1.646130 0.000000 0.000000 
#    y 0.000000 1.646130 0.000000 
#    z 0.000000 0.000000 1.684090 
# 
# From -- ./inp_files/1162.got.cif
#   From: 2010.03.12/outbox.cif.g09.slc.cpg/sg78_cif.got.tgz:1162.got - 2010.04.16 16:37:20.
