data_PCOD8302159
_publ_section_title
;
Structure prediction by ZEFSAII (Michael W. Deem and Ramdas Pophale) SiO2 
 PCOD8302159
Probable space group: I 41
;
_chemical_formula_sum "Si O2"
_cell_formula_units_Z 60
_cell_length_a 12.442936
_cell_length_b 12.442936
_cell_length_c 18.809845
_cell_angle_alpha 90.000000
_cell_angle_beta 90.000000
_cell_angle_gamma 90.000000
_cell_volume 2912.265407
_symmetry_space_group_name_H-M "I 41"
_symmetry_group_IT_number 80
_symmetry_cell_setting 'tetragonal'
loop_
_space_group_symop_operation_xyz
x,y,z
-y,1/2+x,1/4+z
-x,-y,z
y,1/2-x,1/4+z
1/2+x,1/2+y,1/2+z
1/2-y,x,3/4+z
1/2-x,1/2-y,1/2+z
1/2+y,-x,3/4+z
loop_
_atom_site_type_symbol
_atom_site_label
_atom_site_fract_x
_atom_site_fract_y
_atom_site_fract_z
Si Si1 0.702546 0.219467 0.434370
Si Si2 0.338466 0.156551 0.107843
Si Si3 0.000000 0.000000 0.279431
Si Si4 0.548337 0.345747 0.521265
Si Si5 0.180511 0.554431 0.428493
Si Si6 0.892690 0.862768 0.519676
Si Si7 0.138665 0.893679 0.537510
Si Si8 0.438462 0.166604 0.765650
O O1 0.597257 0.240829 0.483415
O O2 0.759194 0.332629 0.420433
O O3 0.779692 0.136789 0.474466
O O4 0.667798 0.168250 0.359958
O O5 0.341220 0.161043 0.193121
O O6 0.220561 0.113360 0.085497
O O7 0.433385 0.078969 0.080113
O O8 0.352741 0.275704 0.076480
O O9 0.071697 0.924387 0.227701
O O10 0.508310 0.335941 0.600984
O O11 0.436689 0.377392 0.482515
O O12 0.637791 0.437268 0.528354
O O13 0.242456 0.448854 0.456483
O O14 0.021197 0.857647 0.512304
O O15 0.855032 0.978546 0.549257
#
# Coordination Sequence:
#
# PCOD8302159 Si02
#       8
#     8   8   4   8   8   8   8   8
#     4  11  22  40  69  94 124 171 222 260 323 385
#     4  11  24  41  66  98 127 177 205 273 325 404
#     4  10  20  36  64 102 138 156 224 260 346 380
#     4  10  20  39  60  93 132 165 212 269 316 379
#     4  10  20  35  63  98 124 175 204 275 320 394
#     4  11  26  44  66  91 134 164 218 263 333 384
#     4  11  24  43  67  93 127 167 213 274 315 391
#     4   9  22  35  61  91 133 161 212 260 329 368
#
# _framework density 20.602518
#
# number of rings (size 3 to 8) (size 9 to 14) (size 15 to 20)
#    0.000    1.600    1.333    3.200    7.467    2.133 
#    0.000    0.000    0.000    0.000    0.000    0.000 
#    0.000    0.000    0.000    0.000    0.000    0.000 
#
# Total GULP energy -371852.298733 kJ/mol
# GULP energy per Si atom -12395.076624 kJ/mol
# Density = 2.055563 g / cm^3
# Si number density = 20.602518 Si / 1000 Ang^3
#
#
#
# Elastic Constant Matrix: (Units=GPa)
#
#
# Indices 1 2 3 4 5 6 
#
# 1 99.3415 36.9458 31.2326 0.0000 0.0000 0.1856
# 2 36.9458 99.3415 31.2326 0.0000 0.0000 -0.1856
# 3 31.2326 31.2326 109.5775 0.0000 0.0000 0.0000
# 4 0.0000 0.0000 0.0000 16.2339 0.0000 0.0000
# 5 0.0000 0.0000 0.0000 0.0000 16.2339 0.0000
# 6 0.1856 -0.1856 0.0000 0.0000 0.0000 26.1757
#
#
#
# Elastic Compliance Matrix: (Units=1/GPa)
#
#
# Indices 1 2 3 4 5 6 
#
# 1 0.012234 -0.003794 -0.002406 0.000000 0.000000 -0.000114
# 2 -0.003794 0.012234 -0.002406 0.000000 0.000000 0.000114
# 3 -0.002406 -0.002406 0.010497 0.000000 0.000000 0.000000
# 4 0.000000 0.000000 0.000000 0.061599 0.000000 0.000000
# 5 0.000000 0.000000 0.000000 0.000000 0.061599 0.000000
# 6 -0.000114 0.000114 0.000000 0.000000 0.000000 0.038205
#
#
# Mechanical properties :
#
#
# Convention : Reuss Voigt Hill
#
# Bulk Modulus (GPa) = 56.32278 56.34250 56.33264
# Shear Modulus (GPa) = 22.77938 25.65200 24.21569
#
# Velocity S-wave (km/s) = 3.32875 3.53241 3.43209
# Velocity P-wave (km/s) = 6.49394 6.63657 6.56564
#
# Compressibility (1/GPa) = 0.01775481
#
# Stress axis : x y z
#
# Youngs Moduli (GPa) = 81.74120 81.74120 95.26250
#
# Poissons Ratio (x) = 0.31010 0.22917
# Poissons Ratio (y) = 0.31010 0.22917
# Poissons Ratio (z) = 0.19664 0.19664
#
# Static dielectric constant tensor:
#      x y z
#    x 3.894180 0.000000 0.000000 
#    y 0.000000 3.894180 0.000000 
#    z 0.000000 0.000000 3.858280 
# 
# 
# High freq. dielectric constant tensor:
#      x y z
#    x 1.809040 0.000000 0.000000 
#    y 0.000000 1.809040 0.000000 
#    z 0.000000 0.000000 1.803550 
# 
# From -- ./inp_files/1853.got.cif
#   From: 2010.03.12/outbox.cif.g09.slc.cpg/sg80_cif.got.tgz:1853.got - 2010.04.08 20:00:04.
