data_PCOD8302403
_publ_section_title
;
Structure prediction by ZEFSAII (Michael W. Deem and Ramdas Pophale) SiO2 
 PCOD8302403
Probable space group: I -4 
;
_chemical_formula_sum "Si O2"
_cell_formula_units_Z 44
_cell_length_a 9.143468
_cell_length_b 9.143468
_cell_length_c 27.383337
_cell_angle_alpha 90.000000
_cell_angle_beta 90.000000
_cell_angle_gamma 90.000000
_cell_volume 2289.329317
_symmetry_space_group_name_H-M "I -4 "
_symmetry_group_IT_number 82
_symmetry_cell_setting 'tetragonal'
loop_
_space_group_symop_operation_xyz
x,y,z
y,-x,-z
-x,-y,z
-y,x,-z
1/2+x,1/2+y,1/2+z
1/2+y,1/2-x,1/2-z
1/2-x,1/2-y,1/2+z
1/2-y,1/2+x,1/2-z
loop_
_atom_site_type_symbol
_atom_site_label
_atom_site_fract_x
_atom_site_fract_y
_atom_site_fract_z
Si Si1 0.500000 0.500000 0.304457
Si Si2 0.329987 0.016820 0.634247
Si Si3 0.268763 0.021239 0.738874
Si Si4 0.009705 0.336385 0.961715
Si Si5 0.229800 0.355122 0.439916
Si Si6 0.131033 0.160197 0.110733
O O1 0.625659 0.566424 0.269507
O O2 0.570146 0.372136 0.338297
O O3 0.299055 0.180061 0.616277
O O4 0.500000 0.000000 0.649085
O O5 0.232117 0.984297 0.682242
O O6 0.288114 0.902315 0.591908
O O7 0.341343 0.878561 0.762964
O O8 0.915580 0.229765 0.929053
O O9 0.000000 0.500000 0.940538
O O10 0.176782 0.279826 0.960857
O O11 0.951257 0.337809 0.016784
O O12 0.331632 0.461994 0.407317
#
# Coordination Sequence:
#
# PCOD8302403 Si02
#       6
#     4   8   8   8   8   8
#     4  12  22  36  65  96 118 159 220 262 316 380
#     4  10  20  39  65  89 117 160 214 252 310 380
#     4  11  20  38  61  88 120 155 206 265 309 368
#     4  12  24  39  60  93 126 159 204 258 308 367
#     4  11  22  40  66  90 119 164 209 256 307 374
#     4  11  21  39  63  89 118 160 205 254 311 379
#
# _framework density 19.219604
#
# number of rings (size 3 to 8) (size 9 to 14) (size 15 to 20)
#    0.000    0.909    7.273    2.727    0.000    0.000 
#    3.273    0.000    0.000    0.000    0.000    0.000 
#    0.000    0.000    0.000    0.000    0.000    0.000 
#
# Total GULP energy -272828.161634 kJ/mol
# GULP energy per Si atom -12401.280074 kJ/mol
# Density = 1.917586 g / cm^3
# Si number density = 19.219604 Si / 1000 Ang^3
#
#
#
# Elastic Constant Matrix: (Units=GPa)
#
#
# Indices 1 2 3 4 5 6 
#
# 1 83.0337 40.4928 38.0364 0.0000 0.0000 4.6278
# 2 40.4928 83.0337 38.0364 0.0000 0.0000 -4.6278
# 3 38.0364 38.0364 131.5138 0.0000 0.0000 0.0000
# 4 0.0000 0.0000 0.0000 24.5130 0.0000 0.0000
# 5 0.0000 0.0000 0.0000 0.0000 24.5130 0.0000
# 6 4.6278 -4.6278 0.0000 0.0000 0.0000 9.9808
#
#
#
# Elastic Compliance Matrix: (Units=1/GPa)
#
#
# Indices 1 2 3 4 5 6 
#
# 1 0.017997 -0.008147 -0.002849 0.000000 0.000000 -0.012122
# 2 -0.008147 0.017997 -0.002849 0.000000 0.000000 0.012122
# 3 -0.002849 -0.002849 0.009252 0.000000 0.000000 0.000000
# 4 0.000000 0.000000 0.000000 0.040795 0.000000 0.000000
# 5 0.000000 0.000000 0.000000 0.000000 0.040795 0.000000
# 6 -0.012122 0.012122 0.000000 0.000000 0.000000 0.111434
#
#
# Mechanical properties :
#
#
# Convention : Reuss Voigt Hill
#
# Bulk Modulus (GPa) = 56.96000 58.96807 57.96404
# Shear Modulus (GPa) = 18.39517 23.86906 21.13212
#
# Velocity S-wave (km/s) = 3.09707 3.52790 3.31948
# Velocity P-wave (km/s) = 6.51842 6.88060 6.70196
#
# Compressibility (1/GPa) = 0.01755618
#
# Stress axis : x y z
#
# Youngs Moduli (GPa) = 55.56478 55.56477 108.08938
#
# Poissons Ratio (x) = 0.45270 0.30792
# Poissons Ratio (y) = 0.45270 0.30792
# Poissons Ratio (z) = 0.15829 0.15829
#
# Static dielectric constant tensor:
#      x y z
#    x 3.367500 0.000000 0.000000 
#    y 0.000000 3.367500 0.000000 
#    z 0.000000 0.000000 3.692510 
# 
# 
# High freq. dielectric constant tensor:
#      x y z
#    x 1.724170 0.000000 0.000000 
#    y 0.000000 1.724170 0.000000 
#    z 0.000000 0.000000 1.767870 
# 
# From -- ./inp_files/3934.got.cif
#   From: 2010.03.12/outbox.cif.g09.slc.cpg/sg82_2_cif.got.tgz:3934.got - 2010.04.08 20:02:50.
