data_PCOD8302090
_publ_section_title
;
Structure prediction by ZEFSAII (Michael W. Deem and Ramdas Pophale) SiO2 
 PCOD8302090
Probable space group: I 4
;
_chemical_formula_sum "Si O2"
_cell_formula_units_Z 52
_cell_length_a 17.189656
_cell_length_b 17.189656
_cell_length_c 8.274705
_cell_angle_alpha 90.000000
_cell_angle_beta 90.000000
_cell_angle_gamma 90.000000
_cell_volume 2445.045195
_symmetry_space_group_name_H-M "I 4"
_symmetry_group_IT_number 79
_symmetry_cell_setting 'tetragonal'
loop_
_space_group_symop_operation_xyz
x,y,z
-y,x,z
-x,-y,z
y,-x,z
1/2+x,1/2+y,1/2+z
1/2-y,1/2+x,1/2+z
1/2-x,1/2-y,1/2+z
1/2+y,1/2-x,1/2+z
loop_
_atom_site_type_symbol
_atom_site_label
_atom_site_fract_x
_atom_site_fract_y
_atom_site_fract_z
Si Si1 0.344152 0.393785 0.198130
Si Si2 0.556565 0.386231 0.846566
Si Si3 0.974053 0.371124 0.874656
Si Si4 0.819918 0.166344 0.130904
Si Si5 0.000000 0.500000 0.123877
Si Si6 0.701274 0.461992 0.377215
Si Si7 0.819005 0.290738 0.846802
O O1 0.345087 0.456269 0.349439
O O2 0.407985 0.327642 0.229595
O O3 0.259837 0.353463 0.198339
O O4 0.356426 0.435122 0.028821
O O5 0.603558 0.465937 0.817506
O O6 0.594741 0.326733 0.716195
O O7 0.996756 0.420314 0.719878
O O8 0.881348 0.357113 0.889379
O O9 0.023591 0.292662 0.862660
O O10 0.000441 0.419870 0.027760
O O11 0.759834 0.170442 0.281601
O O12 0.814473 0.081612 0.045962
O O13 0.805590 0.235787 0.003903
#
# Coordination Sequence:
#
# PCOD8302090 Si02
#       7
#     8   8   8   8   4   8   8
#     4  10  20  41  65  95 126 178 214 270 325 399
#     4  11  24  40  61  95 132 172 224 269 325 398
#     4  10  22  41  62  94 120 165 208 268 319 386
#     4  11  24  41  65  95 131 175 216 279 327 405
#     4  10  22  42  66  88 128 160 214 264 324 386
#     4  10  22  38  67  93 129 167 222 261 338 391
#     4  10  23  42  65  94 132 166 225 268 336 390
#
# _framework density 21.267502
#
# number of rings (size 3 to 8) (size 9 to 14) (size 15 to 20)
#    0.000    1.692    1.538    1.846    6.462    4.000 
#    0.000    3.077    0.000    0.000    0.000    0.000 
#    0.000    0.000    0.000    0.000    0.000    0.000 
#
# Total GULP energy -322272.790967 kJ/mol
# GULP energy per Si atom -12395.107345 kJ/mol
# Density = 2.121910 g / cm^3
# Si number density = 21.267502 Si / 1000 Ang^3
#
#
#
# Elastic Constant Matrix: (Units=GPa)
#
#
# Indices 1 2 3 4 5 6 
#
# 1 84.2676 26.9306 38.1225 0.0000 0.0000 -4.7817
# 2 26.9306 84.2676 38.1225 0.0000 0.0000 4.7817
# 3 38.1225 38.1225 112.5910 0.0000 0.0000 0.0000
# 4 0.0000 0.0000 0.0000 48.0306 0.0000 0.0000
# 5 0.0000 0.0000 0.0000 0.0000 48.0306 0.0000
# 6 -4.7817 4.7817 0.0000 0.0000 0.0000 37.5038
#
#
#
# Elastic Compliance Matrix: (Units=1/GPa)
#
#
# Indices 1 2 3 4 5 6 
#
# 1 0.014766 -0.003054 -0.003966 0.000000 0.000000 0.002272
# 2 -0.003054 0.014766 -0.003966 0.000000 0.000000 -0.002272
# 3 -0.003966 -0.003966 0.011567 0.000000 0.000000 0.000000
# 4 0.000000 0.000000 0.000000 0.020820 0.000000 0.000000
# 5 0.000000 0.000000 0.000000 0.000000 0.020820 0.000000
# 6 0.002272 -0.002272 0.000000 0.000000 0.000000 0.027243
#
#
# Mechanical properties :
#
#
# Convention : Reuss Voigt Hill
#
# Bulk Modulus (GPa) = 52.27723 54.16418 53.22070
# Shear Modulus (GPa) = 36.14579 38.57639 37.36109
#
# Velocity S-wave (km/s) = 4.12707 4.26357 4.19587
# Velocity P-wave (km/s) = 6.88073 7.05413 6.96797
#
# Compressibility (1/GPa) = 0.01912879
#
# Stress axis : x y z
#
# Youngs Moduli (GPa) = 67.72376 67.72376 86.45165
#
# Poissons Ratio (x) = 0.20682 0.34283
# Poissons Ratio (y) = 0.20682 0.34283
# Poissons Ratio (z) = 0.26857 0.26857
#
# Static dielectric constant tensor:
#      x y z
#    x 3.873710 0.000000 0.000000 
#    y 0.000000 3.873710 0.000000 
#    z 0.000000 0.000000 3.753580 
# 
# 
# High freq. dielectric constant tensor:
#      x y z
#    x 1.835150 0.000000 0.000000 
#    y 0.000000 1.835150 0.000000 
#    z 0.000000 0.000000 1.836650 
# 
# From -- ./inp_files/711.got.cif
#   From: 2010.03.12/outbox.cif.g09.slc.cpg/sg79_cif.got.tgz:711.got - 2010.04.16 16:38:49.
