data_PCOD8302137
_publ_section_title
;
Structure prediction by ZEFSAII (Michael W. Deem and Ramdas Pophale) SiO2 
 PCOD8302137
Probable space group: I 4
;
_chemical_formula_sum "Si O2"
_cell_formula_units_Z 64
_cell_length_a 11.336675
_cell_length_b 11.336675
_cell_length_c 25.878508
_cell_angle_alpha 90.000000
_cell_angle_beta 90.000000
_cell_angle_gamma 90.000000
_cell_volume 3325.911025
_symmetry_space_group_name_H-M "I 4"
_symmetry_group_IT_number 79
_symmetry_cell_setting 'tetragonal'
loop_
_space_group_symop_operation_xyz
x,y,z
-y,x,z
-x,-y,z
y,-x,z
1/2+x,1/2+y,1/2+z
1/2-y,1/2+x,1/2+z
1/2-x,1/2-y,1/2+z
1/2+y,1/2-x,1/2+z
loop_
_atom_site_type_symbol
_atom_site_label
_atom_site_fract_x
_atom_site_fract_y
_atom_site_fract_z
Si Si1 0.448193 0.317441 0.056290
Si Si2 0.002458 0.807889 0.152417
Si Si3 0.620217 0.067276 0.352177
Si Si4 0.379783 0.067276 0.072000
Si Si5 0.502458 0.692111 0.771760
Si Si6 0.042907 0.814529 0.988790
Si Si7 0.957093 0.814529 0.435386
Si Si8 0.051807 0.817440 0.867886
O O1 0.580006 0.356763 0.071351
O O2 0.411139 0.201518 0.087835
O O3 0.446453 0.287685 0.995711
O O4 0.004884 0.689892 0.118579
O O5 0.000000 0.770750 0.212088
O O6 0.885828 0.882649 0.139140
O O7 0.696246 0.067839 0.404313
O O8 0.588860 0.201518 0.336341
O O9 0.500000 0.000000 0.363676
O O10 0.689892 0.004884 0.305598
O O11 0.303754 0.067838 0.019863
O O12 0.500000 0.000000 0.060501
O O13 0.385828 0.617350 0.785037
O O14 0.913151 0.860938 0.003843
O O15 0.053547 0.787684 0.928466
O O16 0.086849 0.860938 0.420333
O O17 0.919994 0.856763 0.852825
#
# Coordination Sequence:
#
# PCOD8302137 Si02
#       8
#     8   8   8   8   8   8   8   8
#     4   9  21  39  54  75 116 163 196 226 274 338
#     4   9  20  41  66  87 110 141 182 240 303 348
#     4  12  24  32  55  90 116 144 192 238 288 345
#     4  12  24  32  55  90 116 144 192 238 288 345
#     4   9  20  41  66  87 110 141 182 240 303 348
#     4   9  19  37  57  77 110 155 198 242 284 325
#     4   9  19  37  57  77 110 155 198 242 284 325
#     4   9  21  39  54  75 116 163 196 226 274 338
#
# _framework density 19.242847999999999
#
# number of rings (size 3 to 8) (size 9 to 14) (size 15 to 20)
#    0.000    2.250    0.000    4.500    7.000    4.500 
#    0.000    0.000    0.000    0.000    0.000    0.000 
#    0.000    0.000    0.000    0.000    0.000    0.000 
#
# Total GULP energy -396841.193613 kJ/mol
# GULP energy per Si atom -12401.287300 kJ/mol
# Density = 1.919905 g / cm^3
# Si number density = 19.242848 Si / 1000 Ang^3
#
#
#
# Elastic Constant Matrix: (Units=GPa)
#
#
# Indices 1 2 3 4 5 6 
#
# 1 107.2696 44.7196 14.0963 0.0000 0.0000 -0.0006
# 2 44.7196 107.2696 14.0963 0.0000 0.0000 0.0006
# 3 14.0963 14.0963 30.4660 0.0000 0.0000 0.0000
# 4 0.0000 0.0000 0.0000 24.9045 0.0000 0.0000
# 5 0.0000 0.0000 0.0000 0.0000 24.9045 0.0000
# 6 -0.0006 0.0006 0.0000 0.0000 0.0000 19.6308
#
#
#
# Elastic Compliance Matrix: (Units=1/GPa)
#
#
# Indices 1 2 3 4 5 6 
#
# 1 0.011592 -0.004395 -0.003330 0.000000 0.000000 0.000000
# 2 -0.004395 0.011592 -0.003330 0.000000 0.000000 0.000000
# 3 -0.003330 -0.003330 0.035905 0.000000 0.000000 0.000000
# 4 0.000000 0.000000 0.000000 0.040153 0.000000 0.000000
# 5 0.000000 0.000000 0.000000 0.000000 0.040153 0.000000
# 6 0.000000 0.000000 0.000000 0.000000 0.000000 0.050940
#
#
# Mechanical properties :
#
#
# Convention : Reuss Voigt Hill
#
# Bulk Modulus (GPa) = 27.04226 43.42550 35.23388
# Shear Modulus (GPa) = 22.24468 25.36085 23.80276
#
# Velocity S-wave (km/s) = 3.40368 3.63428 3.52087
# Velocity P-wave (km/s) = 5.43419 6.34245 5.90581
#
# Compressibility (1/GPa) = 0.03697915
#
# Stress axis : x y z
#
# Youngs Moduli (GPa) = 86.26525 86.26525 27.85125
#
# Poissons Ratio (x) = 0.37914 0.09275
# Poissons Ratio (y) = 0.37914 0.09275
# Poissons Ratio (z) = 0.28727 0.28727
#
# Static dielectric constant tensor:
#      x y z
#    x 3.537710 0.000000 0.000000 
#    y 0.000000 3.537710 0.000000 
#    z 0.000000 0.000000 3.175170 
# 
# 
# High freq. dielectric constant tensor:
#      x y z
#    x 1.752060 0.000000 0.000000 
#    y 0.000000 1.752060 0.000000 
#    z 0.000000 0.000000 1.717520 
# 
# From -- ./inp_files/2061.got.cif
#   From: 2010.03.12/outbox.cif.g09.slc.cpg/sg79_cif.got.tgz:2061.got - 2010.04.16 16:38:49.
