data_PCOD8302211
_publ_section_title
;
Structure prediction by ZEFSAII (Michael W. Deem and Ramdas Pophale) SiO2 
 PCOD8302211
Probable space group: I 41
;
_chemical_formula_sum "Si O2"
_cell_formula_units_Z 48
_cell_length_a 9.087170
_cell_length_b 9.087170
_cell_length_c 28.654980
_cell_angle_alpha 90.000000
_cell_angle_beta 90.000000
_cell_angle_gamma 90.000000
_cell_volume 2366.232501
_symmetry_space_group_name_H-M "I 41"
_symmetry_group_IT_number 80
_symmetry_cell_setting 'tetragonal'
loop_
_space_group_symop_operation_xyz
x,y,z
-y,1/2+x,1/4+z
-x,-y,z
y,1/2-x,1/4+z
1/2+x,1/2+y,1/2+z
1/2-y,x,3/4+z
1/2-x,1/2-y,1/2+z
1/2+y,-x,3/4+z
loop_
_atom_site_type_symbol
_atom_site_label
_atom_site_fract_x
_atom_site_fract_y
_atom_site_fract_z
Si Si1 0.854722 0.201036 0.837140
Si Si2 0.981527 0.334587 0.585792
Si Si3 0.264681 0.553429 0.185395
Si Si4 0.053429 0.235319 0.683700
Si Si5 0.518473 0.665413 0.533303
Si Si6 0.798964 0.854722 0.531955
O O1 0.718482 0.314298 0.836261
O O2 0.898353 0.168671 0.890812
O O3 1.000000 0.250000 0.809547
O O4 0.789473 0.053814 0.815724
O O5 0.000000 0.500000 0.565592
O O6 0.052375 0.335506 0.637545
O O7 0.053814 0.210527 0.553371
O O8 0.394159 0.669048 0.194537
O O9 0.330952 0.394159 0.174558
O O10 0.164494 0.552375 0.231550
O O11 0.101647 0.331330 0.728283
O O12 0.500000 0.500000 0.553503
O O13 0.685702 0.718482 0.532834
#
# Coordination Sequence:
#
# PCOD8302211 Si02
#       6
#     8   8   8   8   8   8
#     4  11  21  39  64  88 118 165 212 251 304 378
#     4  11  23  38  60  90 129 157 200 263 320 361
#     4   9  18  36  60  87 114 155 211 255 292 363
#     4   9  18  36  60  87 114 155 211 255 292 363
#     4  11  23  38  60  90 129 157 200 263 320 361
#     4  11  21  39  64  88 118 165 212 251 304 378
#
# _framework density 20.285411
#
# number of rings (size 3 to 8) (size 9 to 14) (size 15 to 20)
#    0.000    1.667    3.333    2.000    0.000    2.667 
#    0.000    0.000    0.000    0.000    0.000    0.000 
#    0.000    0.000    0.000    0.000    0.000    0.000 
#
# Total GULP energy -297568.259781 kJ/mol
# GULP energy per Si atom -12398.677491 kJ/mol
# Density = 2.023924 g / cm^3
# Si number density = 20.285411 Si / 1000 Ang^3
#
#
#
# Elastic Constant Matrix: (Units=GPa)
#
#
# Indices 1 2 3 4 5 6 
#
# 1 64.6800 -4.4154 9.2043 0.0000 0.0000 -2.5705
# 2 -4.4154 64.6800 9.2043 0.0000 0.0000 2.5705
# 3 9.2043 9.2043 93.8567 0.0000 0.0000 0.0000
# 4 0.0000 0.0000 0.0000 29.4649 0.0000 0.0000
# 5 0.0000 0.0000 0.0000 0.0000 29.4649 0.0000
# 6 -2.5705 2.5705 0.0000 0.0000 0.0000 29.5975
#
#
#
# Elastic Compliance Matrix: (Units=1/GPa)
#
#
# Indices 1 2 3 4 5 6 
#
# 1 0.015836 0.001270 -0.001678 0.000000 0.000000 0.001265
# 2 0.001270 0.015836 -0.001678 0.000000 0.000000 -0.001265
# 3 -0.001678 -0.001678 0.010984 0.000000 0.000000 0.000000
# 4 0.000000 0.000000 0.000000 0.033939 0.000000 0.000000
# 5 0.000000 0.000000 0.000000 0.000000 0.033939 0.000000
# 6 0.001265 -0.001265 0.000000 0.000000 0.000000 0.034006
#
#
# Mechanical properties :
#
#
# Convention : Reuss Voigt Hill
#
# Bulk Modulus (GPa) = 25.98396 27.91144 26.94770
# Shear Modulus (GPa) = 30.95215 31.65369 31.30292
#
# Velocity S-wave (km/s) = 3.91043 3.95450 3.93252
# Velocity P-wave (km/s) = 5.76417 5.88557 5.82518
#
# Compressibility (1/GPa) = 0.03848529
#
# Stress axis : x y z
#
# Youngs Moduli (GPa) = 63.14564 63.14565 91.04510
#
# Poissons Ratio (x) = -0.08017 0.15273
# Poissons Ratio (y) = -0.08017 0.15273
# Poissons Ratio (z) = 0.10593 0.10593
#
# Static dielectric constant tensor:
#      x y z
#    x 3.444050 0.000000 0.000000 
#    y 0.000000 3.444050 0.000000 
#    z 0.000000 0.000000 3.917130 
# 
# 
# High freq. dielectric constant tensor:
#      x y z
#    x 1.781130 0.000000 0.000000 
#    y 0.000000 1.781130 0.000000 
#    z 0.000000 0.000000 1.798670 
# 
# From -- ./inp_files/2600.got.cif
#   From: 2010.03.12/outbox.cif.g09.slc.cpg/sg80_cif.got.tgz:2600.got - 2010.04.08 20:00:04.
