data_PCOD8302904
_publ_section_title
;
Structure prediction by ZEFSAII (Michael W. Deem and Ramdas Pophale) SiO2 
 PCOD8302904
Probable space group: P 4/M
;
_chemical_formula_sum "Si O2"
_cell_formula_units_Z 36
_cell_length_a 13.772777
_cell_length_b 13.772777
_cell_length_c 10.169135
_cell_angle_alpha 90.000000
_cell_angle_beta 90.000000
_cell_angle_gamma 90.000000
_cell_volume 1928.976977
_symmetry_space_group_name_H-M "P 4/M"
_symmetry_group_IT_number 83
_symmetry_cell_setting 'tetragonal'
loop_
_space_group_symop_operation_xyz
x,y,z
-y,x,z
-x,-y,z
y,-x,z
-x,-y,-z
y,-x,-z
x,y,-z
-y,x,-z
loop_
_atom_site_type_symbol
_atom_site_label
_atom_site_fract_x
_atom_site_fract_y
_atom_site_fract_z
Si Si1 0.410042 0.254141 0.234333
Si Si2 0.617942 0.236968 0.146088
Si Si3 0.732255 0.113096 0.650785
Si Si4 0.532875 0.655951 0.500000
Si Si5 0.109585 0.731821 0.650654
O O1 0.500871 0.238032 0.138565
O O2 0.343777 0.341770 0.181096
O O3 0.455476 0.278027 0.374252
O O4 0.346988 0.156088 0.250629
O O5 0.652177 0.158602 0.253133
O O6 0.654920 0.208187 0.000000
O O7 0.695513 0.124191 0.500000
O O8 0.835217 0.166129 0.669479
O O9 0.747745 0.001590 0.690014
O O10 0.425572 0.614461 0.500000
O O11 0.119915 0.696058 0.500000
#
# Coordination Sequence:
#
# PCOD8302904 Si02
#       5
#     8   8   8   4   8
#     4  11  21  35  57  80 116 149 185 227 276 322
#     4  11  24  39  54  79 113 151 189 229 273 325
#     4   9  20  37  59  85 110 142 182 229 279 336
#     4  11  20  32  54  87 111 150 188 233 267 322
#     4   9  18  34  58  86 112 140 180 230 284 329
#
# _framework density 18.662742000000001
#
# number of rings (size 3 to 8) (size 9 to 14) (size 15 to 20)
#    0.000    1.889    3.333    0.667    3.111    1.778 
#    0.000   12.222    0.000    0.000    0.000    6.222 
#    0.000    0.000    0.000    0.000    0.000    0.000 
#
# Total GULP energy -446419.952519 kJ/mol
# GULP energy per Si atom -12400.554237 kJ/mol
# Density = 1.862026 g / cm^3
# Si number density = 18.662742 Si / 1000 Ang^3
#
#
#
# Elastic Constant Matrix: (Units=GPa)
#
#
# Indices 1 2 3 4 5 6 
#
# 1 120.3505 43.0807 29.8704 0.0000 0.0000 0.8866
# 2 43.0807 120.3505 29.8704 0.0000 0.0000 -0.8866
# 3 29.8704 29.8704 88.6417 0.0000 0.0000 0.0000
# 4 0.0000 0.0000 0.0000 17.9477 0.0000 0.0000
# 5 0.0000 0.0000 0.0000 0.0000 17.9477 0.0000
# 6 0.8866 -0.8866 0.0000 0.0000 0.0000 17.2218
#
#
#
# Elastic Compliance Matrix: (Units=1/GPa)
#
#
# Indices 1 2 3 4 5 6 
#
# 1 0.009968 -0.002989 -0.002352 0.000000 0.000000 -0.000667
# 2 -0.002989 0.009968 -0.002352 0.000000 0.000000 0.000667
# 3 -0.002352 -0.002352 0.012866 0.000000 0.000000 0.000000
# 4 0.000000 0.000000 0.000000 0.055717 0.000000 0.000000
# 5 0.000000 0.000000 0.000000 0.000000 0.055717 0.000000
# 6 -0.000667 0.000667 0.000000 0.000000 0.000000 0.058135
#
#
# Mechanical properties :
#
#
# Convention : Reuss Voigt Hill
#
# Bulk Modulus (GPa) = 57.41610 59.44284 58.42947
# Shear Modulus (GPa) = 22.36519 25.72484 24.04502
#
# Velocity S-wave (km/s) = 3.46553 3.71672 3.59332
# Velocity P-wave (km/s) = 6.84435 7.09499 6.97079
#
# Compressibility (1/GPa) = 0.01741672
#
# Stress axis : x y z
#
# Youngs Moduli (GPa) = 100.32428 100.32428 77.72285
#
# Poissons Ratio (x) = 0.29990 0.18277
# Poissons Ratio (y) = 0.29990 0.18277
# Poissons Ratio (z) = 0.23592 0.23592
#
# Static dielectric constant tensor:
#      x y z
#    x 3.371690 0.000000 0.000000 
#    y 0.000000 3.371690 0.000000 
#    z 0.000000 0.000000 3.351830 
# 
# 
# High freq. dielectric constant tensor:
#      x y z
#    x 1.718820 0.000000 0.000000 
#    y 0.000000 1.718820 0.000000 
#    z 0.000000 0.000000 1.717190 
# 
# From -- ./inp_files/535.got.cif
#   From: 2010.03.12/outbox.cif.g09.slc.cpg/sg83_1_cif.got.tgz:535.got - 2010.04.08 20:05:18.
