data_PCOD8302724
_publ_section_title
;
Structure prediction by ZEFSAII (Michael W. Deem and Ramdas Pophale) SiO2 
 PCOD8302724
Probable space group: P 4/M
;
_chemical_formula_sum "Si O2"
_cell_formula_units_Z 48
_cell_length_a 11.862174
_cell_length_b 11.862174
_cell_length_c 17.029070
_cell_angle_alpha 90.000000
_cell_angle_beta 90.000000
_cell_angle_gamma 90.000000
_cell_volume 2396.180398
_symmetry_space_group_name_H-M "P 4/M"
_symmetry_group_IT_number 83
_symmetry_cell_setting 'tetragonal'
loop_
_space_group_symop_operation_xyz
x,y,z
-y,x,z
-x,-y,z
y,-x,z
-x,-y,-z
y,-x,-z
x,y,-z
-y,x,-z
loop_
_atom_site_type_symbol
_atom_site_label
_atom_site_fract_x
_atom_site_fract_y
_atom_site_fract_z
Si Si1 0.187410 0.571809 0.860722
Si Si2 0.008221 0.729953 0.087690
Si Si3 0.578142 0.895846 0.693234
Si Si4 0.458579 0.323299 0.592627
Si Si5 0.175692 0.043282 0.749503
Si Si6 0.757234 0.661948 0.088191
O O1 0.150041 0.529407 0.775235
O O2 0.250806 0.472061 0.905457
O O3 0.277862 0.672791 0.851730
O O4 0.079438 0.613911 0.910055
O O5 0.881832 0.700200 0.110112
O O6 0.055408 0.812120 0.155393
O O7 0.019175 0.783689 0.000000
O O8 0.570986 0.796479 0.630293
O O9 0.708028 0.934034 0.704021
O O10 0.500000 0.000000 0.665247
O O11 0.582906 0.366308 0.618345
O O12 0.454590 0.306499 0.500000
O O13 0.081688 0.134528 0.725163
O O14 0.725414 0.699712 0.000000
#
# Coordination Sequence:
#
# PCOD8302724 Si02
#       6
#     8   8   8   8   8   8
#     4  11  23  36  52  79 114 149 196 251 302 355
#     4  10  19  34  55  75 102 149 207 259 308 360
#     4  11  24  37  65  93 124 160 205 244 297 366
#     4   9  21  43  71 102 134 161 188 236 298 353
#     4  10  22  38  55  81 122 163 204 260 311 354
#     4  11  22  36  54  75 109 153 201 254 312 365
#
# _framework density 20.031880999999998
#
# number of rings (size 3 to 8) (size 9 to 14) (size 15 to 20)
#    0.000    1.667    0.000    6.500    4.667    4.000 
#    0.000    1.667    0.000    0.000    0.000    1.167 
#    0.000    0.000    0.000    0.000    0.000    0.000 
#
# Total GULP energy -595157.699933 kJ/mol
# GULP energy per Si atom -12399.118749 kJ/mol
# Density = 1.998629 g / cm^3
# Si number density = 20.031881 Si / 1000 Ang^3
#
#
#
# Elastic Constant Matrix: (Units=GPa)
#
#
# Indices 1 2 3 4 5 6 
#
# 1 126.4362 69.1675 40.5544 0.0000 0.0000 17.9660
# 2 69.1675 126.4362 40.5544 0.0000 0.0000 -17.9660
# 3 40.5544 40.5544 52.7098 0.0000 0.0000 0.0000
# 4 0.0000 0.0000 0.0000 27.0832 0.0000 0.0000
# 5 0.0000 0.0000 0.0000 0.0000 27.0832 0.0000
# 6 17.9660 -17.9660 0.0000 0.0000 0.0000 -3.0571
#
#
#
# Elastic Compliance Matrix: (Units=1/GPa)
#
#
# Indices 1 2 3 4 5 6 
#
# 1 0.005616 0.001891 -0.005776 0.000000 0.000000 0.021893
# 2 0.001891 0.005616 -0.005776 0.000000 0.000000 -0.021893
# 3 -0.005776 -0.005776 0.027860 0.000000 0.000000 0.000000
# 4 0.000000 0.000000 0.000000 0.036923 0.000000 0.000000
# 5 0.000000 0.000000 0.000000 0.000000 0.036923 0.000000
# 6 0.021893 -0.021893 0.000000 0.000000 0.000000 -0.069786
#
#
# Mechanical properties :
#
#
# Convention : Reuss Voigt Hill
#
# Bulk Modulus (GPa) = 50.58086 67.34829 58.96457
# Shear Modulus (GPa) = 72.39436 20.57559 46.48498
#
# Velocity S-wave (km/s) = 6.01814 3.20838 4.82243
# Velocity P-wave (km/s) = 8.57879 6.88611 7.77863
#
# Compressibility (1/GPa) = 0.01977033
#
# Stress axis : x y z
#
# Youngs Moduli (GPa) = 178.04862 178.04862 35.89358
#
# Poissons Ratio (x) = -0.33671 0.20733
# Poissons Ratio (y) = -0.33671 0.20733
# Poissons Ratio (z) = 1.02845 1.02845
#
# Static dielectric constant tensor:
#      x y z
#    x 3.708340 0.000000 0.000000 
#    y 0.000000 3.708340 0.000000 
#    z 0.000000 0.000000 3.279800 
# 
# 
# High freq. dielectric constant tensor:
#      x y z
#    x 1.790240 0.000000 0.000000 
#    y 0.000000 1.790240 0.000000 
#    z 0.000000 0.000000 1.742860 
# 
# From -- ./inp_files/2624.got.cif
#   From: 2010.03.12/outbox.cif.g09.slc.cpg/sg83_2_cif.got.tgz:2624.got - 2010.04.08 20:05:18.
