data_PCOD8302464
_publ_section_title
;
Structure prediction by ZEFSAII (Michael W. Deem and Ramdas Pophale) SiO2 
 PCOD8302464
Probable space group: I -4 
;
_chemical_formula_sum "Si O2"
_cell_formula_units_Z 34
_cell_length_a 11.535780
_cell_length_b 11.535780
_cell_length_c 12.744218
_cell_angle_alpha 90.000000
_cell_angle_beta 90.000000
_cell_angle_gamma 90.000000
_cell_volume 1695.926873
_symmetry_space_group_name_H-M "I -4 "
_symmetry_group_IT_number 82
_symmetry_cell_setting 'tetragonal'
loop_
_space_group_symop_operation_xyz
x,y,z
y,-x,-z
-x,-y,z
-y,x,-z
1/2+x,1/2+y,1/2+z
1/2+y,1/2-x,1/2-z
1/2-x,1/2-y,1/2+z
1/2-y,1/2+x,1/2-z
loop_
_atom_site_type_symbol
_atom_site_label
_atom_site_fract_x
_atom_site_fract_y
_atom_site_fract_z
Si Si1 0.000000 0.000000 0.500000
Si Si2 0.826116 0.463552 0.709699
Si Si3 0.495365 0.817422 0.723400
Si Si4 0.090475 0.088185 0.694192
Si Si5 0.508694 0.694717 0.502746
O O1 0.944576 0.899710 0.572214
O O2 0.866069 0.573896 0.779717
O O3 0.713104 0.405809 0.756923
O O4 0.791165 0.496433 0.590446
O O5 0.602194 0.882487 0.776864
O O6 0.471913 0.713717 0.802393
O O7 0.522057 0.770526 0.607368
O O8 0.000000 0.000000 0.753618
O O9 0.619756 0.609796 0.491264
#
# Coordination Sequence:
#
# PCOD8302464 Si02
#       5
#     2   8   8   8   8
#     4   8  24  36  64 102 128 172 232 272 340 414
#     4  11  26  44  70 102 140 177 233 290 339 411
#     4  11  26  44  70 102 140 177 233 290 339 411
#     4  10  22  43  64  97 134 183 222 278 342 415
#     4  11  24  43  72 102 136 189 229 276 352 414
#
# _framework density 20.048034999999999
#
# number of rings (size 3 to 8) (size 9 to 14) (size 15 to 20)
#    0.706    0.706    2.353    1.412    6.588    7.529 
#    0.000    0.000    0.000    0.000    0.000    0.000 
#    0.000    0.000    0.000    0.000    0.000    0.000 
#
# Total GULP energy -210664.865678 kJ/mol
# GULP energy per Si atom -12392.050922 kJ/mol
# Density = 2.000241 g / cm^3
# Si number density = 20.048035 Si / 1000 Ang^3
#
#
#
# Elastic Constant Matrix: (Units=GPa)
#
#
# Indices 1 2 3 4 5 6 
#
# 1 90.6283 27.8765 9.9590 0.0000 0.0000 -8.7074
# 2 27.8765 90.6283 9.9590 0.0000 0.0000 8.7074
# 3 9.9590 9.9590 100.4835 0.0000 0.0000 0.0000
# 4 0.0000 0.0000 0.0000 26.2324 0.0000 0.0000
# 5 0.0000 0.0000 0.0000 0.0000 26.2324 0.0000
# 6 -8.7074 8.7074 0.0000 0.0000 0.0000 23.3395
#
#
#
# Elastic Compliance Matrix: (Units=1/GPa)
#
#
# Indices 1 2 3 4 5 6 
#
# 1 0.013179 -0.004597 -0.000851 0.000000 0.000000 0.006632
# 2 -0.004597 0.013179 -0.000851 0.000000 0.000000 -0.006632
# 3 -0.000851 -0.000851 0.010120 0.000000 0.000000 0.000000
# 4 0.000000 0.000000 0.000000 0.038121 0.000000 0.000000
# 5 0.000000 0.000000 0.000000 0.000000 0.038121 0.000000
# 6 0.006632 -0.006632 0.000000 0.000000 0.000000 0.047794
#
#
# Mechanical properties :
#
#
# Convention : Reuss Voigt Hill
#
# Bulk Modulus (GPa) = 41.87380 41.92546 41.89963
# Shear Modulus (GPa) = 27.61340 30.75722 29.18531
#
# Velocity S-wave (km/s) = 3.71531 3.92111 3.81959
# Velocity P-wave (km/s) = 6.27190 6.43879 6.35589
#
# Compressibility (1/GPa) = 0.02388128
#
# Stress axis : x y z
#
# Youngs Moduli (GPa) = 75.87909 75.87911 98.80959
#
# Poissons Ratio (x) = 0.34885 0.08404
# Poissons Ratio (y) = 0.34885 0.08404
# Poissons Ratio (z) = 0.06454 0.06454
#
# Static dielectric constant tensor:
#      x y z
#    x 3.891930 0.000000 0.000000 
#    y 0.000000 3.891930 0.000000 
#    z 0.000000 0.000000 3.690890 
# 
# 
# High freq. dielectric constant tensor:
#      x y z
#    x 1.787390 0.000000 0.000000 
#    y 0.000000 1.787390 0.000000 
#    z 0.000000 0.000000 1.783760 
# 
# From -- ./inp_files/1587.got.cif
#   From: 2010.03.12/outbox.cif.g09.slc.cpg/sg82_1_cif.got.tgz:1587.got - 2010.04.08 20:02:50.
