data_PCOD8302333
_publ_section_title
;
Structure prediction by ZEFSAII (Michael W. Deem and Ramdas Pophale) SiO2 
 PCOD8302333
Probable space group: P -4
;
_chemical_formula_sum "Si O2"
_cell_formula_units_Z 10
_cell_length_a 6.717615
_cell_length_b 6.717615
_cell_length_c 8.982158
_cell_angle_alpha 90.000000
_cell_angle_beta 90.000000
_cell_angle_gamma 90.000000
_cell_volume 405.332017
_symmetry_space_group_name_H-M "P -4"
_symmetry_group_IT_number 81
_symmetry_cell_setting 'tetragonal'
loop_
_space_group_symop_operation_xyz
x,y,z
y,-x,-z
-x,-y,z
-y,x,-z
loop_
_atom_site_type_symbol
_atom_site_label
_atom_site_fract_x
_atom_site_fract_y
_atom_site_fract_z
Si Si1 0.643493 0.305577 0.318823
Si Si2 0.000000 0.500000 0.439147
Si Si3 0.944295 0.701098 0.971160
O O1 0.500000 0.500000 0.310092
O O2 0.879072 0.351915 0.331251
O O3 0.597411 0.173187 0.462581
O O4 0.621567 0.172957 0.172247
O O5 0.000000 0.500000 0.062653
O O6 0.151429 0.812774 0.927024
#
# Coordination Sequence:
#
# PCOD8302333 Si02
#       3
#     4   2   4
#     4  12  27  49  77 117 156 202 259 323 390 461
#     4  12  24  50  80 112 150 204 254 316 400 454
#     4  11  29  48  75 114 151 209 263 316 376 458
#
# _framework density 24.671130000000002
#
# number of rings (size 3 to 8) (size 9 to 14) (size 15 to 20)
#    0.000    0.400    6.000    0.000    8.400   10.400 
#    0.000    0.000    0.000    0.000    0.000    0.000 
#    0.000    0.000    0.000    0.000    0.000    0.000 
#
# Total GULP energy -123900.480774 kJ/mol
# GULP energy per Si atom -12390.048077 kJ/mol
# Density = 2.461498 g / cm^3
# Si number density = 24.671130 Si / 1000 Ang^3
#
#
#
# Elastic Constant Matrix: (Units=GPa)
#
#
# Indices 1 2 3 4 5 6 
#
# 1 199.5912 89.6029 28.6177 0.0000 0.0000 19.8641
# 2 89.6029 199.5912 28.6177 0.0000 0.0000 -19.8641
# 3 28.6177 28.6177 50.3478 0.0000 0.0000 0.0000
# 4 0.0000 0.0000 0.0000 28.9145 0.0000 0.0000
# 5 0.0000 0.0000 0.0000 0.0000 28.9145 0.0000
# 6 19.8641 -19.8641 0.0000 0.0000 0.0000 43.8615
#
#
#
# Elastic Compliance Matrix: (Units=1/GPa)
#
#
# Indices 1 2 3 4 5 6 
#
# 1 0.007383 -0.003487 -0.002215 0.000000 0.000000 -0.004923
# 2 -0.003487 0.007383 -0.002215 0.000000 0.000000 0.004923
# 3 -0.002215 -0.002215 0.022379 0.000000 0.000000 0.000000
# 4 0.000000 0.000000 0.000000 0.034585 0.000000 0.000000
# 5 0.000000 0.000000 0.000000 0.000000 0.034585 0.000000
# 6 -0.004923 0.004923 0.000000 0.000000 0.000000 0.027258
#
#
# Mechanical properties :
#
#
# Convention : Reuss Voigt Hill
#
# Bulk Modulus (GPa) = 46.91891 82.57854 64.74872
# Shear Modulus (GPa) = 31.94689 40.51755 36.23222
#
# Velocity S-wave (km/s) = 3.60239 4.05693 3.83640
# Velocity P-wave (km/s) = 6.03009 7.44912 6.77685
#
# Compressibility (1/GPa) = 0.02131337
#
# Stress axis : x y z
#
# Youngs Moduli (GPa) = 135.44432 135.44432 44.68400
#
# Poissons Ratio (x) = 0.47228 0.09896
# Poissons Ratio (y) = 0.47228 0.09896
# Poissons Ratio (z) = 0.29995 0.29995
#
# Static dielectric constant tensor:
#      x y z
#    x 4.940800 0.000000 0.000000 
#    y 0.000000 4.940800 0.000000 
#    z 0.000000 0.000000 4.056320 
# 
# 
# High freq. dielectric constant tensor:
#      x y z
#    x 2.003240 0.000000 0.000000 
#    y 0.000000 2.003240 0.000000 
#    z 0.000000 0.000000 1.964810 
# 
# From -- ./inp_files/989.got.cif
#   From: 2010.03.12/outbox.cif.g09.slc.cpg/sg81_cif.got.tgz:989.got - 2010.04.08 20:01:38.
