data_PCOD8302444
_publ_section_title
;
Structure prediction by ZEFSAII (Michael W. Deem and Ramdas Pophale) SiO2 
 PCOD8302444
Probable space group: I -4 
;
_chemical_formula_sum "Si O2"
_cell_formula_units_Z 28
_cell_length_a 7.194123
_cell_length_b 7.194123
_cell_length_c 24.573182
_cell_angle_alpha 90.000000
_cell_angle_beta 90.000000
_cell_angle_gamma 90.000000
_cell_volume 1271.795005
_symmetry_space_group_name_H-M "I -4 "
_symmetry_group_IT_number 82
_symmetry_cell_setting 'tetragonal'
loop_
_space_group_symop_operation_xyz
x,y,z
y,-x,-z
-x,-y,z
-y,x,-z
1/2+x,1/2+y,1/2+z
1/2+y,1/2-x,1/2-z
1/2-x,1/2-y,1/2+z
1/2-y,1/2+x,1/2-z
loop_
_atom_site_type_symbol
_atom_site_label
_atom_site_fract_x
_atom_site_fract_y
_atom_site_fract_z
Si Si1 0.000000 0.500000 0.589620
Si Si2 0.227689 0.629510 0.497178
Si Si3 0.778337 0.987710 0.726282
Si Si4 0.866907 0.168769 0.390780
O O1 0.894433 0.349719 0.551262
O O2 0.879680 0.647821 0.624291
O O3 0.411452 0.741511 0.510081
O O4 0.125823 0.695745 0.442601
O O5 0.684925 0.821123 0.761095
O O6 0.734618 0.946600 0.663128
O O7 0.000000 0.000000 0.737918
O O8 0.000000 0.000000 0.406076
#
# Coordination Sequence:
#
# PCOD8302444 Si02
#       4
#     4   8   8   8
#     4  10  22  36  60 101 133 172 214 260 326 400
#     4   9  20  39  60  95 134 173 211 260 319 396
#     4  10  24  48  70 101 132 175 232 289 344 397
#     4  10  23  40  65  96 129 175 219 270 332 389
#
# _framework density 22.016124999999999
#
# number of rings (size 3 to 8) (size 9 to 14) (size 15 to 20)
#    0.000    2.286    0.000    0.000    8.000    7.429 
#   20.571    0.000    0.000    0.000    0.000    0.000 
#    0.000    0.000    0.000    0.000    0.000    0.000 
#
# Total GULP energy -173467.757855 kJ/mol
# GULP energy per Si atom -12390.554132 kJ/mol
# Density = 2.196602 g / cm^3
# Si number density = 22.016125 Si / 1000 Ang^3
#
#
#
# Elastic Constant Matrix: (Units=GPa)
#
#
# Indices 1 2 3 4 5 6 
#
# 1 112.5305 43.5800 58.8884 0.0000 0.0000 4.9589
# 2 43.5800 112.5305 58.8884 0.0000 0.0000 -4.9588
# 3 58.8884 58.8884 140.4505 0.0000 0.0000 0.0000
# 4 0.0000 0.0000 0.0000 29.1047 0.0000 0.0000
# 5 0.0000 0.0000 0.0000 0.0000 29.1047 0.0000
# 6 4.9589 -4.9588 0.0000 0.0000 0.0000 39.6433
#
#
#
# Elastic Compliance Matrix: (Units=1/GPa)
#
#
# Indices 1 2 3 4 5 6 
#
# 1 0.012069 -0.002700 -0.003928 0.000000 0.000000 -0.001847
# 2 -0.002700 0.012069 -0.003928 0.000000 0.000000 0.001847
# 3 -0.003928 -0.003928 0.010414 0.000000 0.000000 0.000000
# 4 0.000000 0.000000 0.000000 0.034359 0.000000 0.000000
# 5 0.000000 0.000000 0.000000 0.000000 0.034359 0.000000
# 6 -0.001847 0.001847 0.000000 0.000000 0.000000 0.025687
#
#
# Mechanical properties :
#
#
# Convention : Reuss Voigt Hill
#
# Bulk Modulus (GPa) = 74.40814 76.46944 75.43879
# Shear Modulus (GPa) = 32.35194 33.18086 32.76640
#
# Velocity S-wave (km/s) = 3.83752 3.88637 3.86202
# Velocity P-wave (km/s) = 7.31477 7.41264 7.36387
#
# Compressibility (1/GPa) = 0.01343939
#
# Stress axis : x y z
#
# Youngs Moduli (GPa) = 82.85543 82.85544 96.02253
#
# Poissons Ratio (x) = 0.22368 0.37722
# Poissons Ratio (y) = 0.22368 0.37722
# Poissons Ratio (z) = 0.32550 0.32550
#
# Static dielectric constant tensor:
#      x y z
#    x 4.364580 0.000000 0.000000 
#    y 0.000000 4.364580 0.000000 
#    z 0.000000 0.000000 4.173740 
# 
# 
# High freq. dielectric constant tensor:
#      x y z
#    x 1.875740 0.000000 0.000000 
#    y 0.000000 1.875740 0.000000 
#    z 0.000000 0.000000 1.851700 
# 
# From -- ./inp_files/2806.got.cif
#   From: 2010.03.12/outbox.cif.g09.slc.cpg/sg82_2_cif.got.tgz:2806.got - 2010.04.08 20:02:50.
