data_PCOD8302402
_publ_section_title
;
Structure prediction by ZEFSAII (Michael W. Deem and Ramdas Pophale) SiO2 
 PCOD8302402
Probable space group: I -4 
;
_chemical_formula_sum "Si O2"
_cell_formula_units_Z 38
_cell_length_a 10.040742
_cell_length_b 10.040742
_cell_length_c 19.075965
_cell_angle_alpha 90.000000
_cell_angle_beta 90.000000
_cell_angle_gamma 90.000000
_cell_volume 1923.172024
_symmetry_space_group_name_H-M "I -4 "
_symmetry_group_IT_number 82
_symmetry_cell_setting 'tetragonal'
loop_
_space_group_symop_operation_xyz
x,y,z
y,-x,-z
-x,-y,z
-y,x,-z
1/2+x,1/2+y,1/2+z
1/2+y,1/2-x,1/2-z
1/2-x,1/2-y,1/2+z
1/2-y,1/2+x,1/2-z
loop_
_atom_site_type_symbol
_atom_site_label
_atom_site_fract_x
_atom_site_fract_y
_atom_site_fract_z
Si Si1 0.842856 0.987006 0.294140
Si Si2 0.156728 0.149509 0.016453
Si Si3 0.500000 0.000000 0.405805
Si Si4 0.720881 0.848341 0.165064
Si Si5 0.000000 0.000000 0.500000
Si Si6 0.743672 0.622333 0.930377
O O1 0.776036 0.134425 0.304311
O O2 0.821335 0.917588 0.219215
O O3 0.772252 0.879750 0.346292
O O4 0.000000 0.000000 0.307011
O O5 0.192265 0.191937 0.096162
O O6 0.253570 0.231092 0.963743
O O7 0.004742 0.186024 0.998579
O O8 0.466017 0.878073 0.355404
O O9 0.623064 0.956547 0.454516
O O10 0.125718 0.027000 0.452781
#
# Coordination Sequence:
#
# PCOD8302402 Si02
#       6
#     8   8   4   8   2   8
#     4  11  24  41  69  98 133 180 224 290 342 407
#     4  11  25  42  67  99 136 181 225 286 351 411
#     4  10  20  39  64  94 124 181 220 284 326 407
#     4  11  23  41  66  99 134 173 235 273 347 409
#     4  12  24  36  64  92 136 164 234 276 340 396
#     4  11  22  41  62  97 131 175 227 279 338 405
#
# _framework density 19.759022000000002
#
# number of rings (size 3 to 8) (size 9 to 14) (size 15 to 20)
#    0.000    1.053    3.158    5.053    2.947    0.842 
#    0.000    0.000    0.000    3.158    0.000    0.000 
#    0.000    0.000    0.000    0.000    0.000    0.000 
#
# Total GULP energy -235468.341434 kJ/mol
# GULP energy per Si atom -12393.070602 kJ/mol
# Density = 1.971405 g / cm^3
# Si number density = 19.759022 Si / 1000 Ang^3
#
#
#
# Elastic Constant Matrix: (Units=GPa)
#
#
# Indices 1 2 3 4 5 6 
#
# 1 109.2844 47.4964 35.0734 0.0000 0.0000 -4.7934
# 2 47.4964 109.2844 35.0734 0.0000 0.0000 4.7934
# 3 35.0734 35.0734 99.7258 0.0000 0.0000 0.0000
# 4 0.0000 0.0000 0.0000 31.6690 0.0000 0.0000
# 5 0.0000 0.0000 0.0000 0.0000 31.6690 0.0000
# 6 -4.7934 4.7934 0.0000 0.0000 0.0000 28.0073
#
#
#
# Elastic Compliance Matrix: (Units=1/GPa)
#
#
# Indices 1 2 3 4 5 6 
#
# 1 0.012098 -0.004528 -0.002662 0.000000 0.000000 0.002846
# 2 -0.004528 0.012098 -0.002662 0.000000 0.000000 -0.002846
# 3 -0.002662 -0.002662 0.011900 0.000000 0.000000 0.000000
# 4 0.000000 0.000000 0.000000 0.031577 0.000000 0.000000
# 5 0.000000 0.000000 0.000000 0.000000 0.031577 0.000000
# 6 0.002846 -0.002846 0.000000 0.000000 0.000000 0.036679
#
#
# Mechanical properties :
#
#
# Convention : Reuss Voigt Hill
#
# Bulk Modulus (GPa) = 61.01176 61.50901 61.26039
# Shear Modulus (GPa) = 31.03739 31.64584 31.34162
#
# Velocity S-wave (km/s) = 3.96763 4.00633 3.98702
# Velocity P-wave (km/s) = 7.20655 7.25245 7.22954
#
# Compressibility (1/GPa) = 0.01639028
#
# Stress axis : x y z
#
# Youngs Moduli (GPa) = 82.66062 82.66062 84.03328
#
# Poissons Ratio (x) = 0.37431 0.22371
# Poissons Ratio (y) = 0.37431 0.22371
# Poissons Ratio (z) = 0.22006 0.22006
#
# Static dielectric constant tensor:
#      x y z
#    x 3.672430 0.000000 0.000000 
#    y 0.000000 3.672430 0.000000 
#    z 0.000000 0.000000 3.695380 
# 
# 
# High freq. dielectric constant tensor:
#      x y z
#    x 1.772190 0.000000 0.000000 
#    y 0.000000 1.772190 0.000000 
#    z 0.000000 0.000000 1.767820 
# 
# From -- ./inp_files/3398.got.cif
#   From: 2010.03.12/outbox.cif.g09.slc.cpg/sg82_2_cif.got.tgz:3398.got - 2010.04.08 20:02:50.
