data_PCOD8302426
_publ_section_title
;
Structure prediction by ZEFSAII (Michael W. Deem and Ramdas Pophale) SiO2 
 PCOD8302426
Probable space group: I -4 
;
_chemical_formula_sum "Si O2"
_cell_formula_units_Z 48
_cell_length_a 13.878252
_cell_length_b 13.878252
_cell_length_c 12.044925
_cell_angle_alpha 90.000000
_cell_angle_beta 90.000000
_cell_angle_gamma 90.000000
_cell_volume 2319.923362
_symmetry_space_group_name_H-M "I -4 "
_symmetry_group_IT_number 82
_symmetry_cell_setting 'tetragonal'
loop_
_space_group_symop_operation_xyz
x,y,z
y,-x,-z
-x,-y,z
-y,x,-z
1/2+x,1/2+y,1/2+z
1/2+y,1/2-x,1/2-z
1/2-x,1/2-y,1/2+z
1/2-y,1/2+x,1/2-z
loop_
_atom_site_type_symbol
_atom_site_label
_atom_site_fract_x
_atom_site_fract_y
_atom_site_fract_z
Si Si1 0.867512 0.423041 0.733856
Si Si2 0.881924 0.895102 0.481308
Si Si3 0.832694 0.925980 0.867247
Si Si4 0.780889 0.013159 0.079605
Si Si5 0.369622 0.357509 0.727690
Si Si6 0.782223 0.785403 0.674547
O O1 0.877018 0.528532 0.789140
O O2 0.816230 0.430859 0.613493
O O3 0.802515 0.357867 0.814795
O O4 0.858321 0.854333 0.360064
O O5 0.805529 0.845032 0.563961
O O6 0.989931 0.867777 0.518150
O O7 0.783632 0.855135 0.780637
O O8 0.916367 0.872144 0.936414
O O9 0.871966 0.018665 0.801667
O O10 0.759111 0.958416 0.964271
O O11 0.807516 0.946265 0.183682
O O12 0.325554 0.259629 0.673015
#
# Coordination Sequence:
#
# PCOD8302426 Si02
#       6
#     8   8   8   8   8   8
#     4  10  21  39  61  93 134 172 217 268 326 396
#     4  11  24  43  68  96 135 174 217 275 337 391
#     4  11  23  41  62  96 126 166 217 271 330 380
#     4  11  22  38  65  92 130 166 215 276 325 386
#     4  12  24  40  64  97 131 171 219 271 333 394
#     4  11  25  42  65  97 131 172 221 266 329 401
#
# _framework density 20.690339999999999
#
# number of rings (size 3 to 8) (size 9 to 14) (size 15 to 20)
#    0.000    1.000    5.000    2.500    4.667    0.000 
#    0.000    0.000    0.000    0.500    0.000    0.000 
#    0.000    0.000    0.000    0.000    0.000    0.000 
#
# Total GULP energy -297583.308665 kJ/mol
# GULP energy per Si atom -12399.304528 kJ/mol
# Density = 2.064325 g / cm^3
# Si number density = 20.690340 Si / 1000 Ang^3
#
#
#
# Elastic Constant Matrix: (Units=GPa)
#
#
# Indices 1 2 3 4 5 6 
#
# 1 71.9421 22.5465 16.2025 0.0000 0.0000 2.0679
# 2 22.5465 71.9421 16.2025 0.0000 0.0000 -2.0679
# 3 16.2025 16.2025 96.6224 0.0000 0.0000 0.0000
# 4 0.0000 0.0000 0.0000 24.1990 0.0000 0.0000
# 5 0.0000 0.0000 0.0000 0.0000 24.1990 0.0000
# 6 2.0679 -2.0679 0.0000 0.0000 0.0000 25.6370
#
#
#
# Elastic Compliance Matrix: (Units=1/GPa)
#
#
# Indices 1 2 3 4 5 6 
#
# 1 0.015806 -0.004577 -0.001883 0.000000 0.000000 -0.001644
# 2 -0.004577 0.015806 -0.001883 0.000000 0.000000 0.001644
# 3 -0.001883 -0.001883 0.010981 0.000000 0.000000 0.000000
# 4 0.000000 0.000000 0.000000 0.041324 0.000000 0.000000
# 5 0.000000 0.000000 0.000000 0.000000 0.041324 0.000000
# 6 -0.001644 0.001644 0.000000 0.000000 0.000000 0.039271
#
#
# Mechanical properties :
#
#
# Convention : Reuss Voigt Hill
#
# Bulk Modulus (GPa) = 38.59924 38.93440 38.76682
# Shear Modulus (GPa) = 26.33897 27.17735 26.75816
#
# Velocity S-wave (km/s) = 3.57179 3.62820 3.60011
# Velocity P-wave (km/s) = 5.97549 6.03409 6.00486
#
# Compressibility (1/GPa) = 0.02590724
#
# Stress axis : x y z
#
# Youngs Moduli (GPa) = 63.26831 63.26831 91.06569
#
# Poissons Ratio (x) = 0.28956 0.17148
# Poissons Ratio (y) = 0.28956 0.17148
# Poissons Ratio (z) = 0.11913 0.11913
#
# Static dielectric constant tensor:
#      x y z
#    x 3.884260 0.000000 0.000000 
#    y 0.000000 3.884260 0.000000 
#    z 0.000000 0.000000 3.623130 
# 
# 
# High freq. dielectric constant tensor:
#      x y z
#    x 1.806070 0.000000 0.000000 
#    y 0.000000 1.806070 0.000000 
#    z 0.000000 0.000000 1.809090 
# 
# From -- ./inp_files/1781.got.cif
#   From: 2010.03.12/outbox.cif.g09.slc.cpg/sg82_1_cif.got.tgz:1781.got - 2010.04.08 20:02:50.
