data_PCOD8302188
_publ_section_title
;
Structure prediction by ZEFSAII (Michael W. Deem and Ramdas Pophale) SiO2 
 PCOD8302188
Probable space group: I 41
;
_chemical_formula_sum "Si O2"
_cell_formula_units_Z 60
_cell_length_a 17.969679
_cell_length_b 17.969679
_cell_length_c 8.986858
_cell_angle_alpha 90.000000
_cell_angle_beta 90.000000
_cell_angle_gamma 90.000000
_cell_volume 2901.940595
_symmetry_space_group_name_H-M "I 41"
_symmetry_group_IT_number 80
_symmetry_cell_setting 'tetragonal'
loop_
_space_group_symop_operation_xyz
x,y,z
-y,1/2+x,1/4+z
-x,-y,z
y,1/2-x,1/4+z
1/2+x,1/2+y,1/2+z
1/2-y,x,3/4+z
1/2-x,1/2-y,1/2+z
1/2+y,-x,3/4+z
loop_
_atom_site_type_symbol
_atom_site_label
_atom_site_fract_x
_atom_site_fract_y
_atom_site_fract_z
Si Si1 0.500000 0.000000 0.643050
Si Si2 0.884757 0.968747 0.350608
Si Si3 0.507500 0.276007 0.025741
Si Si4 0.733251 0.335839 0.682648
Si Si5 0.056664 0.180694 0.224690
Si Si6 0.165811 0.273453 0.029602
Si Si7 0.405563 0.920759 0.882188
Si Si8 0.078679 0.095861 0.657431
O O1 0.449474 0.944393 0.736589
O O2 0.549035 0.943491 0.549413
O O3 0.896876 0.894806 0.251965
O O4 0.915409 0.958935 0.516488
O O5 0.798020 0.987019 0.364509
O O6 0.925581 0.038850 0.274029
O O7 0.595719 0.282845 0.993752
O O8 0.456275 0.275045 0.877629
O O9 0.486730 0.345180 0.128843
O O10 0.710756 0.280792 0.815222
O O11 0.661053 0.372449 0.605215
O O12 0.096711 0.230870 0.102672
O O13 0.975593 0.162661 0.160055
O O14 0.222432 0.293064 0.160273
O O15 0.137855 0.344680 0.939457
#
# Coordination Sequence:
#
# PCOD8302188 Si02
#       8
#     4   8   8   8   8   8   8   8
#     4  12  26  40  68 102 138 172 238 294 346 394
#     4  10  22  41  69  94 133 175 230 276 336 408
#     4  10  23  42  69  95 131 179 229 272 342 407
#     4  11  25  45  70 100 132 175 224 282 347 413
#     4  11  21  40  73  95 130 177 231 278 333 414
#     4  12  28  43  65 100 147 186 230 281 353 420
#     4  11  23  43  70 100 129 178 232 283 342 416
#     4  11  27  42  64 102 138 180 227 291 342 403
#
# _framework density 20.675820000000002
#
# number of rings (size 3 to 8) (size 9 to 14) (size 15 to 20)
#    0.000    1.067    2.667    2.400   13.067    1.067 
#    0.000    1.333    0.000    0.000    0.000    0.000 
#    0.000    0.000    0.000    0.000    0.000    0.000 
#
# Total GULP energy -372170.888329 kJ/mol
# GULP energy per Si atom -12405.696278 kJ/mol
# Density = 2.062876 g / cm^3
# Si number density = 20.675820 Si / 1000 Ang^3
#
#
#
# Elastic Constant Matrix: (Units=GPa)
#
#
# Indices 1 2 3 4 5 6 
#
# 1 135.4638 9.7194 40.9149 0.0000 0.0000 70.3807
# 2 9.7194 135.4638 40.9149 0.0000 0.0000 -70.3807
# 3 40.9149 40.9149 91.3038 0.0000 0.0000 0.0000
# 4 0.0000 0.0000 0.0000 29.4314 0.0000 0.0000
# 5 0.0000 0.0000 0.0000 0.0000 29.4314 0.0000
# 6 70.3807 -70.3807 0.0000 0.0000 0.0000 176.5379
#
#
#
# Elastic Compliance Matrix: (Units=1/GPa)
#
#
# Indices 1 2 3 4 5 6 
#
# 1 0.011789 -0.002573 -0.004130 0.000000 0.000000 -0.005726
# 2 -0.002573 0.011789 -0.004130 0.000000 0.000000 0.005726
# 3 -0.004130 -0.004130 0.014654 0.000000 0.000000 0.000000
# 4 0.000000 0.000000 0.000000 0.033977 0.000000 0.000000
# 5 0.000000 0.000000 0.000000 0.000000 0.033977 0.000000
# 6 -0.005726 0.005726 0.000000 0.000000 0.000000 0.010230
#
#
# Mechanical properties :
#
#
# Convention : Reuss Voigt Hill
#
# Bulk Modulus (GPa) = 60.36465 60.59222 60.47844
# Shear Modulus (GPa) = 34.81818 65.12562 49.97190
#
# Velocity S-wave (km/s) = 4.10811 5.61844 4.92156
# Velocity P-wave (km/s) = 7.19453 8.45332 7.84920
#
# Compressibility (1/GPa) = 0.01656599
#
# Stress axis : x y z
#
# Youngs Moduli (GPa) = 84.82584 84.82584 68.24291
#
# Poissons Ratio (x) = 0.21829 0.28182
# Poissons Ratio (y) = 0.21829 0.28182
# Poissons Ratio (z) = 0.35030 0.35030
#
# Static dielectric constant tensor:
#      x y z
#    x 3.864080 0.000000 0.000000 
#    y 0.000000 3.864080 0.000000 
#    z 0.000000 0.000000 3.704730 
# 
# 
# High freq. dielectric constant tensor:
#      x y z
#    x 1.819030 0.000000 0.000000 
#    y 0.000000 1.819030 0.000000 
#    z 0.000000 0.000000 1.807300 
# 
# From -- ./inp_files/732.got.cif
#   From: 2010.03.12/outbox.cif.g09.slc.cpg/sg80_cif.got.tgz:732.got - 2010.04.08 20:00:04.
