data_PCOD8302756
_publ_section_title
;
Structure prediction by ZEFSAII (Michael W. Deem and Ramdas Pophale) SiO2 
 PCOD8302756
Probable space group: P 4/M
;
_chemical_formula_sum "Si O2"
_cell_formula_units_Z 40
_cell_length_a 15.656617
_cell_length_b 15.656617
_cell_length_c 9.313558
_cell_angle_alpha 90.000000
_cell_angle_beta 90.000000
_cell_angle_gamma 90.000000
_cell_volume 2283.029268
_symmetry_space_group_name_H-M "P 4/M"
_symmetry_group_IT_number 83
_symmetry_cell_setting 'tetragonal'
loop_
_space_group_symop_operation_xyz
x,y,z
-y,x,z
-x,-y,z
y,-x,z
-x,-y,-z
y,-x,-z
x,y,-z
-y,x,-z
loop_
_atom_site_type_symbol
_atom_site_label
_atom_site_fract_x
_atom_site_fract_y
_atom_site_fract_z
Si Si1 0.332662 0.306588 0.167157
Si Si2 0.090308 0.534311 0.667176
Si Si3 0.146306 0.722926 0.331316
Si Si4 0.057915 0.872839 0.834969
Si Si5 0.481690 0.751591 0.833570
O O1 0.277360 0.239153 0.257635
O O2 0.432705 0.300350 0.204938
O O3 0.305423 0.401402 0.212647
O O4 0.315328 0.288257 0.000000
O O5 0.102671 0.517085 0.500000
O O6 0.098190 0.634419 0.703940
O O7 0.160564 0.478264 0.747554
O O8 0.000000 0.500000 0.722721
O O9 0.158597 0.736877 0.500000
O O10 0.089369 0.798742 0.269294
O O11 0.958363 0.888695 0.802930
O O12 0.070787 0.845025 0.000000
O O13 0.478347 0.775159 0.000000
#
# Coordination Sequence:
#
# PCOD8302756 Si02
#       5
#     8   8   8   8   8
#     4   9  18  33  51  73 101 131 165 204 246 292
#     4   9  19  35  51  69  98 132 164 202 246 289
#     4  10  20  33  51  75 101 131 166 204 247 293
#     4   9  19  36  55  74  99 131 164 201 247 295
#     4   9  18  32  51  74  99 128 163 203 245 292
#
# _framework density 17.520582000000001
#
# number of rings (size 3 to 8) (size 9 to 14) (size 15 to 20)
#    0.000    2.800    0.000    1.200    0.000    4.800 
#    0.000    7.000    0.000    0.000    0.000    5.600 
#    0.000    0.000    0.000    0.000    0.000    0.000 
#
# Total GULP energy -496081.785645 kJ/mol
# GULP energy per Si atom -12402.044641 kJ/mol
# Density = 1.748070 g / cm^3
# Si number density = 17.520582 Si / 1000 Ang^3
#
#
#
# Elastic Constant Matrix: (Units=GPa)
#
#
# Indices 1 2 3 4 5 6 
#
# 1 116.3181 70.2733 52.9426 0.0000 0.0000 12.2678
# 2 70.2733 116.3181 52.9426 0.0000 0.0000 -12.2678
# 3 52.9426 52.9426 64.7304 0.0000 0.0000 0.0000
# 4 0.0000 0.0000 0.0000 26.5626 0.0000 0.0000
# 5 0.0000 0.0000 0.0000 0.0000 26.5626 0.0000
# 6 12.2678 -12.2678 0.0000 0.0000 0.0000 30.5062
#
#
#
# Elastic Compliance Matrix: (Units=1/GPa)
#
#
# Indices 1 2 3 4 5 6 
#
# 1 0.018821 -0.008820 -0.008180 0.000000 0.000000 -0.011116
# 2 -0.008820 0.018821 -0.008180 0.000000 0.000000 0.011116
# 3 -0.008180 -0.008180 0.028829 0.000000 0.000000 0.000000
# 4 0.000000 0.000000 0.000000 0.037647 0.000000 0.000000
# 5 0.000000 0.000000 0.000000 0.000000 0.037647 0.000000
# 6 -0.011116 0.011116 0.000000 0.000000 0.000000 0.041720
#
#
# Mechanical properties :
#
#
# Convention : Reuss Voigt Hill
#
# Bulk Modulus (GPa) = 62.06549 72.18708 67.12628
# Shear Modulus (GPa) = 20.90164 24.80682 22.85423
#
# Velocity S-wave (km/s) = 3.45770 3.76688 3.61560
# Velocity P-wave (km/s) = 7.17232 7.75951 7.47168
#
# Compressibility (1/GPa) = 0.01611201
#
# Stress axis : x y z
#
# Youngs Moduli (GPa) = 53.13182 53.13182 34.68704
#
# Poissons Ratio (x) = 0.46862 0.28374
# Poissons Ratio (y) = 0.46862 0.28374
# Poissons Ratio (z) = 0.43461 0.43461
#
# Static dielectric constant tensor:
#      x y z
#    x 3.284290 0.000000 0.000000 
#    y 0.000000 3.284290 0.000000 
#    z 0.000000 0.000000 3.217360 
# 
# 
# High freq. dielectric constant tensor:
#      x y z
#    x 1.677880 0.000000 0.000000 
#    y 0.000000 1.677880 0.000000 
#    z 0.000000 0.000000 1.675780 
# 
# From -- ./inp_files/650.got.cif
#   From: 2010.03.12/outbox.cif.g09.slc.cpg/sg83_1_cif.got.tgz:650.got - 2010.04.08 20:05:18.
