data_PCOD8302294
_publ_section_title
;
Structure prediction by ZEFSAII (Michael W. Deem and Ramdas Pophale) SiO2 
 PCOD8302294
Probable space group: P -4
;
_chemical_formula_sum "Si O2"
_cell_formula_units_Z 17
_cell_length_a 7.719920
_cell_length_b 7.719920
_cell_length_c 13.115363
_cell_angle_alpha 90.000000
_cell_angle_beta 90.000000
_cell_angle_gamma 90.000000
_cell_volume 781.638450
_symmetry_space_group_name_H-M "P -4"
_symmetry_group_IT_number 81
_symmetry_cell_setting 'tetragonal'
loop_
_space_group_symop_operation_xyz
x,y,z
y,-x,-z
-x,-y,z
-y,x,-z
loop_
_atom_site_type_symbol
_atom_site_label
_atom_site_fract_x
_atom_site_fract_y
_atom_site_fract_z
Si Si1 0.193215 0.023655 0.375169
Si Si2 0.500000 0.500000 0.500000
Si Si3 0.703027 0.695637 0.005119
Si Si4 0.389319 0.846068 0.556896
Si Si5 0.002036 0.300387 0.846564
O O1 0.227095 0.229496 0.378038
O O2 0.326713 0.916016 0.445490
O O3 0.199982 0.965323 0.258169
O O4 0.000000 0.000000 0.417741
O O5 0.522509 0.683815 0.557011
O O6 0.836350 0.749783 0.917373
O O7 0.728999 0.493471 0.034687
O O8 0.746900 0.817906 0.101300
O O9 0.500000 0.000000 0.610213
O O10 0.000000 0.500000 0.817817
#
# Coordination Sequence:
#
# PCOD8302294 Si02
#       5
#     4   1   4   4   4
#     4  12  23  43  64  95 137 173 215 278 325 386
#     4  12  24  40  76  92 124 190 216 264 328 388
#     4   9  20  43  64  90 126 163 205 265 320 380
#     4  12  23  45  66  96 136 176 224 270 325 388
#     4  10  23  40  65  93 124 163 214 264 321 389
#
# _framework density 21.749186999999999
#
# number of rings (size 3 to 8) (size 9 to 14) (size 15 to 20)
#    0.000    1.176    4.706    0.706    3.294    0.000 
#    8.471    0.000    0.000    0.000    0.000    0.000 
#    0.000    0.000    0.000    0.000    0.000    0.000 
#
# Total GULP energy -210695.573934 kJ/mol
# GULP energy per Si atom -12393.857290 kJ/mol
# Density = 2.169968 g / cm^3
# Si number density = 21.749187 Si / 1000 Ang^3
#
#
#
# Elastic Constant Matrix: (Units=GPa)
#
#
# Indices 1 2 3 4 5 6 
#
# 1 112.2346 24.2163 22.5778 0.0000 0.0000 9.0933
# 2 24.2163 112.2346 22.5778 0.0000 0.0000 -9.0933
# 3 22.5778 22.5778 96.3340 0.0000 0.0000 0.0000
# 4 0.0000 0.0000 0.0000 17.1627 0.0000 0.0000
# 5 0.0000 0.0000 0.0000 0.0000 17.1627 0.0000
# 6 9.0933 -9.0933 0.0000 0.0000 0.0000 37.5113
#
#
#
# Elastic Compliance Matrix: (Units=1/GPa)
#
#
# Indices 1 2 3 4 5 6 
#
# 1 0.009953 -0.002008 -0.001862 0.000000 0.000000 -0.002899
# 2 -0.002008 0.009953 -0.001862 0.000000 0.000000 0.002899
# 3 -0.001862 -0.001862 0.011253 0.000000 0.000000 0.000000
# 4 0.000000 0.000000 0.000000 0.058266 0.000000 0.000000
# 5 0.000000 0.000000 0.000000 0.000000 0.058266 0.000000
# 6 -0.002899 0.002899 0.000000 0.000000 0.000000 0.028064
#
#
# Mechanical properties :
#
#
# Convention : Reuss Voigt Hill
#
# Bulk Modulus (GPa) = 50.77454 51.06080 50.91767
# Shear Modulus (GPa) = 25.80201 31.12942 28.46571
#
# Velocity S-wave (km/s) = 3.44807 3.78734 3.62168
# Velocity P-wave (km/s) = 6.26486 6.53096 6.39929
#
# Compressibility (1/GPa) = 0.01969491
#
# Stress axis : x y z
#
# Youngs Moduli (GPa) = 100.47628 100.47628 88.86229
#
# Poissons Ratio (x) = 0.20173 0.16546
# Poissons Ratio (y) = 0.20173 0.16546
# Poissons Ratio (z) = 0.18709 0.18709
#
# Static dielectric constant tensor:
#      x y z
#    x 4.238990 0.000000 0.000000 
#    y 0.000000 4.238990 0.000000 
#    z 0.000000 0.000000 3.451810 
# 
# 
# High freq. dielectric constant tensor:
#      x y z
#    x 1.872690 0.000000 0.000000 
#    y 0.000000 1.872690 0.000000 
#    z 0.000000 0.000000 1.812910 
# 
# From -- ./inp_files/1132.got.cif
#   From: 2010.03.12/outbox.cif.g09.slc.cpg/sg81_cif.got.tgz:1132.got - 2010.04.08 20:01:38.
