data_PCOD8302964
_publ_section_title
;
Structure prediction by ZEFSAII (Michael W. Deem and Ramdas Pophale) SiO2 
 PCOD8302964
Probable space group: P 4/M
;
_chemical_formula_sum "Si O2"
_cell_formula_units_Z 48
_cell_length_a 8.561443
_cell_length_b 8.561443
_cell_length_c 31.511888
_cell_angle_alpha 90.000000
_cell_angle_beta 90.000000
_cell_angle_gamma 90.000000
_cell_volume 2309.768017
_symmetry_space_group_name_H-M "P 4/M"
_symmetry_group_IT_number 83
_symmetry_cell_setting 'tetragonal'
loop_
_space_group_symop_operation_xyz
x,y,z
-y,x,z
-x,-y,z
y,-x,z
-x,-y,-z
y,-x,-z
x,y,-z
-y,x,-z
loop_
_atom_site_type_symbol
_atom_site_label
_atom_site_fract_x
_atom_site_fract_y
_atom_site_fract_z
Si Si1 0.572401 0.745338 0.612582
Si Si2 0.500000 0.000000 0.228991
Si Si3 0.239973 0.910433 0.928830
Si Si4 0.587614 0.255946 0.000000
Si Si5 0.244096 0.925639 0.167729
Si Si6 0.431148 0.253640 0.708606
Si Si7 0.925561 0.244695 0.451965
O O1 0.397223 0.690288 0.604298
O O2 0.589368 0.808105 0.660604
O O3 0.615594 0.883905 0.580225
O O4 0.612620 0.105798 0.199441
O O5 0.396929 0.113647 0.258806
O O6 0.378909 0.849938 0.958665
O O7 0.299551 0.898472 0.880506
O O8 0.089281 0.803398 0.938212
O O9 0.697549 0.407678 0.000000
O O10 0.103161 0.808179 0.176402
O O11 0.607538 0.310521 0.716634
O O12 0.905580 0.306231 0.500000
O O13 0.101253 0.191190 0.443609
#
# Coordination Sequence:
#
# PCOD8302964 Si02
#       7
#     8   4   8   4   8   8   8
#     4   9  19  35  53  74 104 140 177 217 257 305
#     4  12  20  32  60  85 103 140 182 218 270 324
#     4   9  19  37  59  80 106 144 184 218 259 314
#     4  11  24  37  52  82 118 143 174 223 266 306
#     4   9  20  37  55  81 114 141 176 225 265 308
#     4   9  20  37  53  76 110 142 175 218 266 316
#     4   9  19  35  53  76 107 138 169 211 262 313
#
# _framework density 20.781306000000001
#
# number of rings (size 3 to 8) (size 9 to 14) (size 15 to 20)
#    0.000    2.583    0.000    4.000    0.000    8.667 
#    0.000    2.500    0.000    4.000    0.000    0.000 
#    0.000    0.000    0.000    0.000    0.000    0.000 
#
# Total GULP energy -595185.405608 kJ/mol
# GULP energy per Si atom -12399.695950 kJ/mol
# Density = 2.073401 g / cm^3
# Si number density = 20.781306 Si / 1000 Ang^3
#
#
#
# Elastic Constant Matrix: (Units=GPa)
#
#
# Indices 1 2 3 4 5 6 
#
# 1 48.7972 15.4259 46.5149 0.0000 0.0000 0.8973
# 2 15.4259 48.7972 46.5149 0.0000 0.0000 -0.8973
# 3 46.5149 46.5149 140.4880 0.0000 0.0000 0.0000
# 4 0.0000 0.0000 0.0000 30.1589 0.0000 0.0000
# 5 0.0000 0.0000 0.0000 0.0000 30.1589 0.0000
# 6 0.8973 -0.8973 0.0000 0.0000 0.0000 29.7022
#
#
#
# Elastic Compliance Matrix: (Units=1/GPa)
#
#
# Indices 1 2 3 4 5 6 
#
# 1 0.029968 -0.000047 -0.009907 0.000000 0.000000 -0.000907
# 2 -0.000047 0.029968 -0.009907 0.000000 0.000000 0.000907
# 3 -0.009907 -0.009907 0.013678 0.000000 0.000000 0.000000
# 4 0.000000 0.000000 0.000000 0.033158 0.000000 0.000000
# 5 0.000000 0.000000 0.000000 0.000000 0.033158 0.000000
# 6 -0.000907 0.000907 0.000000 0.000000 0.000000 0.033722
#
#
# Mechanical properties :
#
#
# Convention : Reuss Voigt Hill
#
# Bulk Modulus (GPa) = 29.50434 50.55485 40.02959
# Shear Modulus (GPa) = 22.25488 26.64577 24.45033
#
# Velocity S-wave (km/s) = 3.27602 3.58467 3.43381
# Velocity P-wave (km/s) = 5.34211 6.44306 5.91824
#
# Compressibility (1/GPa) = 0.03389332
#
# Stress axis : x y z
#
# Youngs Moduli (GPa) = 33.36913 33.36913 73.10936
#
# Poissons Ratio (x) = 0.00156 0.72427
# Poissons Ratio (y) = 0.00156 0.72427
# Poissons Ratio (z) = 0.33058 0.33058
#
# Static dielectric constant tensor:
#      x y z
#    x 3.503910 0.000000 0.000000 
#    y 0.000000 3.503910 0.000000 
#    z 0.000000 0.000000 3.765830 
# 
# 
# High freq. dielectric constant tensor:
#      x y z
#    x 1.800180 0.000000 0.000000 
#    y 0.000000 1.800180 0.000000 
#    z 0.000000 0.000000 1.821590 
# 
# From -- ./inp_files/3453.got.cif
#   From: 2010.03.12/outbox.cif.g09.slc.cpg/sg83_2_cif.got.tgz:3453.got - 2010.04.08 20:05:18.
