data_PCOD8302063
_publ_section_title
;
Structure prediction by ZEFSAII (Michael W. Deem and Ramdas Pophale) SiO2 
 PCOD8302063
Probable space group: P 43
;
_chemical_formula_sum "Si O2"
_cell_formula_units_Z 32
_cell_length_a 9.121784
_cell_length_b 9.121784
_cell_length_c 17.312342
_cell_angle_alpha 90.000000
_cell_angle_beta 90.000000
_cell_angle_gamma 90.000000
_cell_volume 1440.507060
_symmetry_space_group_name_H-M "P 43"
_symmetry_group_IT_number 78
_symmetry_cell_setting 'tetragonal'
loop_
_space_group_symop_operation_xyz
x,y,z
-y,x,3/4+z
-x,-y,1/2+z
y,-x,1/4+z
loop_
_atom_site_type_symbol
_atom_site_label
_atom_site_fract_x
_atom_site_fract_y
_atom_site_fract_z
Si Si1 0.658878 0.802509 0.988220
Si Si2 0.320572 0.619299 0.301377
Si Si3 0.472989 0.390431 0.215701
Si Si4 0.598285 0.991938 0.482415
Si Si5 0.880701 0.179428 0.494271
Si Si6 0.508062 0.901715 0.313233
Si Si7 0.972989 0.109569 0.329948
Si Si8 0.158878 0.697491 0.557428
O O1 0.624158 0.632012 0.006052
O O2 0.678967 0.821033 0.897824
O O3 0.535354 0.915382 0.018169
O O4 0.800205 0.845783 0.036643
O O5 0.410770 0.554921 0.228072
O O6 0.346822 0.515484 0.376123
O O7 0.146558 0.634401 0.286895
O O8 0.388398 0.775324 0.319614
O O9 0.345783 0.300205 0.259005
O O10 0.567520 0.932480 0.397824
O O11 0.724676 0.111602 0.476034
O O12 0.865599 0.353442 0.508754
O O13 0.984516 0.153178 0.419525
O O14 0.945079 0.089230 0.567576
O O15 0.415382 0.035354 0.277479
O O16 0.132012 0.124158 0.289596
#
# Coordination Sequence:
#
# PCOD8302063 Si02
#       8
#     4   4   4   4   4   4   4   4
#     4  11  25  43  72 101 142 186 239 294 363 431
#     4  12  25  47  72 103 149 186 249 298 369 437
#     4  12  25  44  72 105 139 194 241 297 361 447
#     4  11  25  46  70 105 142 190 241 307 360 432
#     4  12  25  47  72 103 149 186 249 298 369 437
#     4  11  25  46  70 105 142 190 241 307 360 432
#     4  12  25  44  72 105 139 194 241 297 361 447
#     4  11  25  43  72 101 142 186 239 294 363 431
#
# _framework density 22.214400000000001
#
# number of rings (size 3 to 8) (size 9 to 14) (size 15 to 20)
#    0.000    0.500    5.000    3.000    3.500    2.000 
#    4.500    0.000    0.000    0.000    0.000    0.000 
#    0.000    0.000    0.000    0.000    0.000    0.000 
#
# Total GULP energy -396854.130945 kJ/mol
# GULP energy per Si atom -12401.691592 kJ/mol
# Density = 2.216384 g / cm^3
# Si number density = 22.214400 Si / 1000 Ang^3
#
#
#
# Elastic Constant Matrix: (Units=GPa)
#
#
# Indices 1 2 3 4 5 6 
#
# 1 92.8370 10.4038 12.1224 0.0000 0.0000 0.0000
# 2 10.4038 92.8370 12.1224 0.0000 0.0000 0.0000
# 3 12.1224 12.1224 72.5390 0.0000 0.0000 0.0000
# 4 0.0000 0.0000 0.0000 31.8946 0.0000 0.0000
# 5 0.0000 0.0000 0.0000 0.0000 31.8946 0.0000
# 6 0.0000 0.0000 0.0000 0.0000 0.0000 49.9666
#
#
#
# Elastic Compliance Matrix: (Units=1/GPa)
#
#
# Indices 1 2 3 4 5 6 
#
# 1 0.011106 -0.001025 -0.001685 0.000000 0.000000 0.000000
# 2 -0.001025 0.011106 -0.001685 0.000000 0.000000 0.000000
# 3 -0.001685 -0.001685 0.014349 0.000000 0.000000 0.000000
# 4 0.000000 0.000000 0.000000 0.031353 0.000000 0.000000
# 5 0.000000 0.000000 0.000000 0.000000 0.031353 0.000000
# 6 0.000000 0.000000 0.000000 0.000000 0.000000 0.020013
#
#
# Mechanical properties :
#
#
# Convention : Reuss Voigt Hill
#
# Bulk Modulus (GPa) = 36.00614 36.39001 36.19808
# Shear Modulus (GPa) = 36.40926 37.65546 37.03236
#
# Velocity S-wave (km/s) = 4.05284 4.12162 4.08737
# Velocity P-wave (km/s) = 6.17611 6.25037 6.21335
#
# Compressibility (1/GPa) = 0.02777304
#
# Stress axis : x y z
#
# Youngs Moduli (GPa) = 90.03828 90.03828 69.69220
#
# Poissons Ratio (x) = 0.09226 0.11742
# Poissons Ratio (y) = 0.09226 0.11742
# Poissons Ratio (z) = 0.15170 0.15170
#
# Static dielectric constant tensor:
#      x y z
#    x 4.098710 0.000000 0.000000 
#    y 0.000000 4.098710 0.000000 
#    z 0.000000 0.000000 3.846760 
# 
# 
# High freq. dielectric constant tensor:
#      x y z
#    x 1.887450 0.000000 0.000000 
#    y 0.000000 1.887450 0.000000 
#    z 0.000000 0.000000 1.860410 
# 
# From -- ./inp_files/1443.got.cif
#   From: 2010.03.12/outbox.cif.g09.slc.cpg/sg78_cif.got.tgz:1443.got - 2010.04.16 16:37:20.
