data_PCOD8302548
_publ_section_title
;
Structure prediction by ZEFSAII (Michael W. Deem and Ramdas Pophale) SiO2 
 PCOD8302548
Probable space group: I -4 
;
_chemical_formula_sum "Si O2"
_cell_formula_units_Z 48
_cell_length_a 8.702236
_cell_length_b 8.702236
_cell_length_c 29.198172
_cell_angle_alpha 90.000000
_cell_angle_beta 90.000000
_cell_angle_gamma 90.000000
_cell_volume 2211.145780
_symmetry_space_group_name_H-M "I -4 "
_symmetry_group_IT_number 82
_symmetry_cell_setting 'tetragonal'
loop_
_space_group_symop_operation_xyz
x,y,z
y,-x,-z
-x,-y,z
-y,x,-z
1/2+x,1/2+y,1/2+z
1/2+y,1/2-x,1/2-z
1/2-x,1/2-y,1/2+z
1/2-y,1/2+x,1/2-z
loop_
_atom_site_type_symbol
_atom_site_label
_atom_site_fract_x
_atom_site_fract_y
_atom_site_fract_z
Si Si1 0.558616 0.661536 0.659436
Si Si2 0.669669 0.938367 0.419635
Si Si3 0.666005 0.255160 0.906805
Si Si4 0.612704 0.728083 0.503733
Si Si5 0.848917 0.740565 0.354439
Si Si6 0.927028 0.739044 0.255069
O O1 0.500000 0.500000 0.638938
O O2 0.711339 0.712066 0.632822
O O3 0.436147 0.798764 0.651755
O O4 0.592619 0.639041 0.713662
O O5 0.683782 0.833757 0.464469
O O6 0.709214 0.837158 0.375188
O O7 0.500000 0.000000 0.412590
O O8 0.792867 0.075166 0.424582
O O9 0.684344 0.134350 0.948260
O O10 0.493452 0.250659 0.888203
O O11 0.703789 0.567600 0.504781
O O12 0.884629 0.812047 0.304265
O O13 0.815234 0.601300 0.241234
#
# Coordination Sequence:
#
# PCOD8302548 Si02
#       6
#     8   8   8   8   8   8
#     4  11  23  40  72 103 138 185 238 288 347 425
#     4  12  26  46  66 103 142 182 230 297 352 422
#     4  12  25  43  71 101 140 184 234 286 362 420
#     4  11  26  47  73 100 135 182 233 285 347 425
#     4  11  24  44  71 100 143 187 235 290 351 425
#     4   9  18  40  67 102 136 179 235 285 335 416
#
# _framework density 21.708202
#
# number of rings (size 3 to 8) (size 9 to 14) (size 15 to 20)
#    0.000    1.000    3.333    3.000    4.667    2.667 
#    0.000    0.000    0.000    0.000    0.000    0.000 
#    0.000    0.000    0.000    0.000    0.000    0.000 
#
# Total GULP energy -297710.122785 kJ/mol
# GULP energy per Si atom -12404.588449 kJ/mol
# Density = 2.165879 g / cm^3
# Si number density = 21.708202 Si / 1000 Ang^3
#
#
#
# Elastic Constant Matrix: (Units=GPa)
#
#
# Indices 1 2 3 4 5 6 
#
# 1 85.0500 18.1816 48.9521 0.0000 0.0000 -2.7217
# 2 18.1816 85.0500 48.9521 0.0000 0.0000 2.7217
# 3 48.9521 48.9521 153.6734 0.0000 0.0000 0.0000
# 4 0.0000 0.0000 0.0000 34.6691 0.0000 0.0000
# 5 0.0000 0.0000 0.0000 0.0000 34.6691 0.0000
# 6 -2.7217 2.7217 0.0000 0.0000 0.0000 34.4647
#
#
#
# Elastic Compliance Matrix: (Units=1/GPa)
#
#
# Indices 1 2 3 4 5 6 
#
# 1 0.014466 -0.000586 -0.004422 0.000000 0.000000 0.001189
# 2 -0.000586 0.014466 -0.004422 0.000000 0.000000 -0.001189
# 3 -0.004422 -0.004422 0.009324 0.000000 0.000000 0.000000
# 4 0.000000 0.000000 0.000000 0.028844 0.000000 0.000000
# 5 0.000000 0.000000 0.000000 0.000000 0.028844 0.000000
# 6 0.001189 -0.001189 0.000000 0.000000 0.000000 0.029203
#
#
# Mechanical properties :
#
#
# Convention : Reuss Voigt Hill
#
# Bulk Modulus (GPa) = 51.54972 61.77165 56.66068
# Shear Modulus (GPa) = 33.22903 34.60640 33.91772
#
# Velocity S-wave (km/s) = 3.91668 3.99703 3.95706
# Velocity P-wave (km/s) = 6.65222 7.05825 6.85824
#
# Compressibility (1/GPa) = 0.01939875
#
# Stress axis : x y z
#
# Youngs Moduli (GPa) = 69.12806 69.12807 107.24756
#
# Poissons Ratio (x) = 0.04048 0.47420
# Poissons Ratio (y) = 0.04048 0.47420
# Poissons Ratio (z) = 0.30565 0.30565
#
# Static dielectric constant tensor:
#      x y z
#    x 3.835090 0.000000 0.000000 
#    y 0.000000 3.835090 0.000000 
#    z 0.000000 0.000000 4.135430 
# 
# 
# High freq. dielectric constant tensor:
#      x y z
#    x 1.846530 0.000000 0.000000 
#    y 0.000000 1.846530 0.000000 
#    z 0.000000 0.000000 1.867520 
# 
# From -- ./inp_files/4019.got.cif
#   From: 2010.03.12/outbox.cif.g09.slc.cpg/sg82_3_cif.got.tgz:4019.got - 2010.04.08 20:02:50.
