data_PCOD8302622
_publ_section_title
;
Structure prediction by ZEFSAII (Michael W. Deem and Ramdas Pophale) SiO2 
 PCOD8302622
Probable space group: P 4/M
;
_chemical_formula_sum "Si O2"
_cell_formula_units_Z 56
_cell_length_a 18.830190
_cell_length_b 18.830190
_cell_length_c 8.535907
_cell_angle_alpha 90.000000
_cell_angle_beta 90.000000
_cell_angle_gamma 90.000000
_cell_volume 3026.628234
_symmetry_space_group_name_H-M "P 4/M"
_symmetry_group_IT_number 83
_symmetry_cell_setting 'tetragonal'
loop_
_space_group_symop_operation_xyz
x,y,z
-y,x,z
-x,-y,z
y,-x,z
-x,-y,-z
y,-x,-z
x,y,-z
-y,x,-z
loop_
_atom_site_type_symbol
_atom_site_label
_atom_site_fract_x
_atom_site_fract_y
_atom_site_fract_z
Si Si1 0.407777 0.567651 0.684281
Si Si2 0.977317 0.285917 0.315204
Si Si3 0.376518 0.817382 0.680500
Si Si4 0.240525 0.177427 0.315788
Si Si5 0.684738 0.312858 0.818662
Si Si6 0.566956 0.039965 0.685947
Si Si7 0.758871 0.112064 0.182371
O O1 0.402202 0.485084 0.733884
O O2 0.397527 0.575855 0.500000
O O3 0.344698 0.610323 0.768939
O O4 0.986301 0.277884 0.500000
O O5 0.896142 0.276596 0.263818
O O6 0.001580 0.362658 0.250135
O O7 0.029857 0.228168 0.231622
O O8 0.384892 0.795034 0.500000
O O9 0.377208 0.745355 0.782133
O O10 0.436149 0.875668 0.730475
O O11 0.302734 0.857957 0.705401
O O12 0.226725 0.179914 0.500000
O O13 0.292419 0.242858 0.271159
O O14 0.164867 0.176437 0.224085
O O15 0.702871 0.313070 0.000000
O O16 0.566102 0.032381 0.500000
O O17 0.500000 0.000000 0.762479
O O18 0.739314 0.118465 0.000000
#
# Coordination Sequence:
#
# PCOD8302622 Si02
#       7
#     8   8   8   8   8   8   8
#     4   9  19  38  61  79  96 126 173 221 262 312
#     4   9  18  32  51  74  99 132 171 211 253 302
#     4   9  16  29  49  70  95 131 175 212 244 291
#     4  10  19  33  53  76 104 136 178 220 252 295
#     4  11  21  33  51  76 108 136 167 210 263 317
#     4   8  14  27  47  71  98 126 163 207 250 293
#     4  10  18  29  49  73  99 132 167 206 256 307
#
# _framework density 18.502437
#
# number of rings (size 3 to 8) (size 9 to 14) (size 15 to 20)
#    0.000    2.571    0.000    6.429    0.000    1.714 
#    2.571    0.714    0.000   11.143    0.000    3.000 
#    0.000    0.000    0.000    0.000    0.000    0.000 
#
# Total GULP energy -693924.663000 kJ/mol
# GULP energy per Si atom -12391.511839 kJ/mol
# Density = 1.846032 g / cm^3
# Si number density = 18.502437 Si / 1000 Ang^3
#
#
#
# Elastic Constant Matrix: (Units=GPa)
#
#
# Indices 1 2 3 4 5 6 
#
# 1 84.4307 39.0227 20.6218 0.0000 0.0000 3.8950
# 2 39.0227 84.4307 20.6218 0.0000 0.0000 -3.8950
# 3 20.6218 20.6218 50.2615 0.0000 0.0000 0.0000
# 4 0.0000 0.0000 0.0000 10.3577 0.0000 0.0000
# 5 0.0000 0.0000 0.0000 0.0000 10.3577 0.0000
# 6 3.8950 -3.8950 0.0000 0.0000 0.0000 25.7154
#
#
#
# Elastic Compliance Matrix: (Units=1/GPa)
#
#
# Indices 1 2 3 4 5 6 
#
# 1 0.015999 -0.006612 -0.003851 0.000000 0.000000 -0.003425
# 2 -0.006612 0.015999 -0.003851 0.000000 0.000000 0.003425
# 3 -0.003851 -0.003851 0.023056 0.000000 0.000000 0.000000
# 4 0.000000 0.000000 0.000000 0.096546 0.000000 0.000000
# 5 0.000000 0.000000 0.000000 0.000000 0.096546 0.000000
# 6 -0.003425 0.003425 0.000000 0.000000 0.000000 0.039925
#
#
# Mechanical properties :
#
#
# Convention : Reuss Voigt Hill
#
# Bulk Modulus (GPa) = 37.84344 42.18396 40.01370
# Shear Modulus (GPa) = 15.36064 18.54327 16.95195
#
# Velocity S-wave (km/s) = 2.88444 3.16920 3.03017
# Velocity P-wave (km/s) = 5.62058 6.02000 5.82372
#
# Compressibility (1/GPa) = 0.02642466
#
# Stress axis : x y z
#
# Youngs Moduli (GPa) = 62.50585 62.50585 43.37210
#
# Poissons Ratio (x) = 0.41326 0.16704
# Poissons Ratio (y) = 0.41326 0.16704
# Poissons Ratio (z) = 0.24073 0.24073
#
# Static dielectric constant tensor:
#      x y z
#    x 3.618800 0.000000 0.000000 
#    y 0.000000 3.618800 0.000000 
#    z 0.000000 0.000000 3.165080 
# 
# 
# High freq. dielectric constant tensor:
#      x y z
#    x 1.703680 0.000000 0.000000 
#    y 0.000000 1.703680 0.000000 
#    z 0.000000 0.000000 1.705410 
# 
# From -- ./inp_files/1200.got.cif
#   From: 2010.03.12/outbox.cif.g09.slc.cpg/sg83_1_cif.got.tgz:1200.got - 2010.04.08 20:05:18.
