data_PCOD8302373
_publ_section_title
;
Structure prediction by ZEFSAII (Michael W. Deem and Ramdas Pophale) SiO2 
 PCOD8302373
Probable space group: I -4 
;
_chemical_formula_sum "Si O2"
_cell_formula_units_Z 40
_cell_length_a 9.294427
_cell_length_b 9.294427
_cell_length_c 25.186430
_cell_angle_alpha 90.000000
_cell_angle_beta 90.000000
_cell_angle_gamma 90.000000
_cell_volume 2175.764343
_symmetry_space_group_name_H-M "I -4 "
_symmetry_group_IT_number 82
_symmetry_cell_setting 'tetragonal'
loop_
_space_group_symop_operation_xyz
x,y,z
y,-x,-z
-x,-y,z
-y,x,-z
1/2+x,1/2+y,1/2+z
1/2+y,1/2-x,1/2-z
1/2-x,1/2-y,1/2+z
1/2-y,1/2+x,1/2-z
loop_
_atom_site_type_symbol
_atom_site_label
_atom_site_fract_x
_atom_site_fract_y
_atom_site_fract_z
Si Si1 0.000000 0.500000 0.952847
Si Si2 0.199813 0.518814 0.280164
Si Si3 0.293719 0.588195 0.583713
Si Si4 0.500000 0.500000 0.500000
Si Si5 0.000000 0.000000 0.824255
Si Si6 0.000000 0.500000 0.125368
Si Si7 0.000000 0.000000 0.500000
Si Si8 0.707064 0.091499 0.543976
O O1 0.058448 0.376075 0.913802
O O2 0.130168 0.562094 0.987989
O O3 0.159119 0.377967 0.245084
O O4 0.370263 0.543040 0.284468
O O5 0.143388 0.493995 0.339656
O O6 0.360486 0.487729 0.537610
O O7 0.364019 0.548730 0.640284
O O8 0.325643 0.750428 0.566011
O O9 0.141069 0.484487 0.088146
O O10 0.062125 0.123970 0.461890
#
# Coordination Sequence:
#
# PCOD8302373 Si02
#       8
#     4   8   8   2   4   4   2   8
#     4  11  22  34  53  78 126 164 197 242 268 305
#     4   9  20  41  66  87 110 137 186 235 305 361
#     4  11  21  34  55  83 119 153 203 235 274 324
#     4  10  20  32  52  80 102 172 204 224 256 330
#     4  11  22  39  67  90 108 146 193 239 288 359
#     4   9  19  38  59  80 108 152 187 242 265 347
#     4  12  24  32  50  80 126 164 198 232 280 312
#     4  11  21  34  52  81 120 159 204 231 275 322
#
# _framework density 18.384345
#
# number of rings (size 3 to 8) (size 9 to 14) (size 15 to 20)
#    0.000    1.800    6.000    0.000    0.000    1.600 
#    0.000    6.000    0.000    0.000    0.000    0.000 
#    0.000    0.000    0.000    0.000    0.000    0.000 
#
# Total GULP energy -247956.297905 kJ/mol
# GULP energy per Si atom -12397.814895 kJ/mol
# Density = 1.834250 g / cm^3
# Si number density = 18.384345 Si / 1000 Ang^3
#
#
#
# Elastic Constant Matrix: (Units=GPa)
#
#
# Indices 1 2 3 4 5 6 
#
# 1 121.1249 24.6345 36.2881 0.0000 0.0000 3.5036
# 2 24.6345 121.1249 36.2881 0.0000 0.0000 -3.5036
# 3 36.2881 36.2881 75.0686 0.0000 0.0000 0.0000
# 4 0.0000 0.0000 0.0000 25.9931 0.0000 0.0000
# 5 0.0000 0.0000 0.0000 0.0000 25.9931 0.0000
# 6 3.5036 -3.5036 0.0000 0.0000 0.0000 23.3331
#
#
#
# Elastic Compliance Matrix: (Units=1/GPa)
#
#
# Indices 1 2 3 4 5 6 
#
# 1 0.009757 -0.000721 -0.004368 0.000000 0.000000 -0.001573
# 2 -0.000721 0.009757 -0.004368 0.000000 0.000000 0.001573
# 3 -0.004368 -0.004368 0.017544 0.000000 0.000000 0.000000
# 4 0.000000 0.000000 0.000000 0.038472 0.000000 0.000000
# 5 0.000000 0.000000 0.000000 0.000000 0.038472 0.000000
# 6 -0.001573 0.001573 0.000000 0.000000 0.000000 0.043330
#
#
# Mechanical properties :
#
#
# Convention : Reuss Voigt Hill
#
# Bulk Modulus (GPa) = 55.11522 56.85996 55.98759
# Shear Modulus (GPa) = 27.42854 29.73773 28.58314
#
# Velocity S-wave (km/s) = 3.86677 4.02625 3.94731
# Velocity P-wave (km/s) = 7.06968 7.25327 7.16206
#
# Compressibility (1/GPa) = 0.01814381
#
# Stress axis : x y z
#
# Youngs Moduli (GPa) = 102.49399 102.49399 57.00018
#
# Poissons Ratio (x) = 0.07393 0.24896
# Poissons Ratio (y) = 0.07393 0.24896
# Poissons Ratio (z) = 0.44766 0.44766
#
# Static dielectric constant tensor:
#      x y z
#    x 3.349870 0.000000 0.000000 
#    y 0.000000 3.349870 0.000000 
#    z 0.000000 0.000000 3.214900 
# 
# 
# High freq. dielectric constant tensor:
#      x y z
#    x 1.708780 0.000000 0.000000 
#    y 0.000000 1.708780 0.000000 
#    z 0.000000 0.000000 1.694420 
# 
# From -- ./inp_files/3450.got.cif
#   From: 2010.03.12/outbox.cif.g09.slc.cpg/sg82_2_cif.got.tgz:3450.got - 2010.04.08 20:02:50.
