data_PCOD8302437
_publ_section_title
;
Structure prediction by ZEFSAII (Michael W. Deem and Ramdas Pophale) SiO2 
 PCOD8302437
Probable space group: I -4 
;
_chemical_formula_sum "Si O2"
_cell_formula_units_Z 42
_cell_length_a 9.121070
_cell_length_b 9.121070
_cell_length_c 23.612772
_cell_angle_alpha 90.000000
_cell_angle_beta 90.000000
_cell_angle_gamma 90.000000
_cell_volume 1964.439016
_symmetry_space_group_name_H-M "I -4 "
_symmetry_group_IT_number 82
_symmetry_cell_setting 'tetragonal'
loop_
_space_group_symop_operation_xyz
x,y,z
y,-x,-z
-x,-y,z
-y,x,-z
1/2+x,1/2+y,1/2+z
1/2+y,1/2-x,1/2-z
1/2-x,1/2-y,1/2+z
1/2-y,1/2+x,1/2-z
loop_
_atom_site_type_symbol
_atom_site_label
_atom_site_fract_x
_atom_site_fract_y
_atom_site_fract_z
Si Si1 0.838870 0.016878 0.926622
Si Si2 0.422776 0.846551 0.987266
Si Si3 0.749167 0.791345 0.295571
Si Si4 0.673624 0.714053 0.917676
Si Si5 0.500000 0.000000 0.250000
Si Si6 0.844348 0.033317 0.801321
O O1 0.741330 0.124081 0.964983
O O2 0.852823 0.096309 0.865235
O O3 0.773740 0.856330 0.921012
O O4 0.000000 0.000000 0.953782
O O5 0.511365 0.757260 0.939046
O O6 0.500000 0.000000 0.002877
O O7 0.412055 0.745373 0.042951
O O8 0.829895 0.848464 0.353024
O O9 0.845070 0.780050 0.239383
O O10 0.736715 0.619492 0.305173
O O11 0.599380 0.886338 0.286909
O O12 0.000000 0.000000 0.774035
#
# Coordination Sequence:
#
# PCOD8302437 Si02
#       6
#     8   8   8   8   2   8
#     4   9  21  39  70  94 126 168 222 267 312 386
#     4  10  23  43  64  96 131 169 219 271 325 390
#     4  11  24  43  68  95 131 172 216 269 326 390
#     4  10  24  43  62  96 133 168 218 266 330 392
#     4  12  24  44  68  96 132 168 220 268 334 392
#     4  10  21  42  63  99 126 164 218 263 320 384
#
# _framework density 21.380151999999999
#
# number of rings (size 3 to 8) (size 9 to 14) (size 15 to 20)
#    0.000    1.905    1.905    0.000    9.333    0.762 
#    6.857    0.000    0.000    0.000    0.000    0.000 
#    0.000    0.000    0.000    0.000    0.000    0.000 
#
# Total GULP energy -260214.851804 kJ/mol
# GULP energy per Si atom -12391.183419 kJ/mol
# Density = 2.133149 g / cm^3
# Si number density = 21.380152 Si / 1000 Ang^3
#
#
#
# Elastic Constant Matrix: (Units=GPa)
#
#
# Indices 1 2 3 4 5 6 
#
# 1 90.5413 16.0144 35.8669 0.0000 0.0000 -3.8194
# 2 16.0144 90.5413 35.8669 0.0000 0.0000 3.8194
# 3 35.8669 35.8669 125.5280 0.0000 0.0000 0.0000
# 4 0.0000 0.0000 0.0000 32.2625 0.0000 0.0000
# 5 0.0000 0.0000 0.0000 0.0000 32.2625 0.0000
# 6 -3.8194 3.8194 0.0000 0.0000 0.0000 18.7424
#
#
#
# Elastic Compliance Matrix: (Units=1/GPa)
#
#
# Indices 1 2 3 4 5 6 
#
# 1 0.012662 -0.001042 -0.003320 0.000000 0.000000 0.002793
# 2 -0.001042 0.012662 -0.003320 0.000000 0.000000 -0.002793
# 3 -0.003320 -0.003320 0.009864 0.000000 0.000000 0.000000
# 4 0.000000 0.000000 0.000000 0.030996 0.000000 0.000000
# 5 0.000000 0.000000 0.000000 0.000000 0.030996 0.000000
# 6 0.002793 -0.002793 0.000000 0.000000 0.000000 0.054493
#
#
# Mechanical properties :
#
#
# Convention : Reuss Voigt Hill
#
# Bulk Modulus (GPa) = 50.44663 53.56741 52.00702
# Shear Modulus (GPa) = 28.79442 31.24433 30.01938
#
# Velocity S-wave (km/s) = 3.67384 3.82694 3.75117
# Velocity P-wave (km/s) = 6.45309 6.68105 6.56806
#
# Compressibility (1/GPa) = 0.01982293
#
# Stress axis : x y z
#
# Youngs Moduli (GPa) = 78.97612 78.97612 101.38229
#
# Poissons Ratio (x) = 0.08231 0.33660
# Poissons Ratio (y) = 0.08231 0.33660
# Poissons Ratio (z) = 0.26221 0.26221
#
# Static dielectric constant tensor:
#      x y z
#    x 3.722420 0.000000 0.000000 
#    y 0.000000 3.722420 0.000000 
#    z 0.000000 0.000000 4.179780 
# 
# 
# High freq. dielectric constant tensor:
#      x y z
#    x 1.830850 0.000000 0.000000 
#    y 0.000000 1.830850 0.000000 
#    z 0.000000 0.000000 1.852200 
# 
# From -- ./inp_files/3724.got.cif
#   From: 2010.03.12/outbox.cif.g09.slc.cpg/sg82_2_cif.got.tgz:3724.got - 2010.04.08 20:02:50.
