data_PCOD8302546
_publ_section_title
;
Structure prediction by ZEFSAII (Michael W. Deem and Ramdas Pophale) SiO2 
 PCOD8302546
Probable space group: I -4 
;
_chemical_formula_sum "Si O2"
_cell_formula_units_Z 38
_cell_length_a 10.536398
_cell_length_b 10.536398
_cell_length_c 17.166727
_cell_angle_alpha 90.000000
_cell_angle_beta 90.000000
_cell_angle_gamma 90.000000
_cell_volume 1905.775920
_symmetry_space_group_name_H-M "I -4 "
_symmetry_group_IT_number 82
_symmetry_cell_setting 'tetragonal'
loop_
_space_group_symop_operation_xyz
x,y,z
y,-x,-z
-x,-y,z
-y,x,-z
1/2+x,1/2+y,1/2+z
1/2+y,1/2-x,1/2-z
1/2-x,1/2-y,1/2+z
1/2-y,1/2+x,1/2-z
loop_
_atom_site_type_symbol
_atom_site_label
_atom_site_fract_x
_atom_site_fract_y
_atom_site_fract_z
Si Si1 0.452590 0.801989 0.241858
Si Si2 0.006506 0.147129 0.889852
Si Si3 0.500000 0.500000 0.000000
Si Si4 0.855973 0.263639 0.032970
Si Si5 0.500000 0.000000 0.991156
Si Si6 0.259933 0.414089 0.929370
O O1 0.360000 0.909279 0.276346
O O2 0.462507 0.691200 0.305432
O O3 0.394687 0.743933 0.163519
O O4 0.155388 0.171520 0.902603
O O5 0.000000 0.000000 0.900168
O O6 0.914682 0.211125 0.953260
O O7 0.512063 0.626846 0.052935
O O8 0.711361 0.308887 0.023572
O O9 0.948671 0.380437 0.060582
O O10 0.540976 0.118896 0.044798
#
# Coordination Sequence:
#
# PCOD8302546 Si02
#       6
#     8   8   2   8   4   8
#     4  11  23  40  65  96 131 168 217 274 340 396
#     4  12  22  39  65  95 126 166 223 279 327 393
#     4  12  28  40  64  96 148 174 224 272 352 408
#     4  12  21  40  65  97 126 169 228 277 326 402
#     4  12  22  40  71  94 135 180 220 284 340 399
#     4  12  24  42  64 102 135 177 225 282 342 410
#
# _framework density 19.939382999999999
#
# number of rings (size 3 to 8) (size 9 to 14) (size 15 to 20)
#    0.000    0.211    8.421    2.526    1.474    0.000 
#    0.000    0.000    0.000    0.000    0.000    2.947 
#    0.000    0.000    0.000    0.000    0.000    0.000 
#
# Total GULP energy -235390.555609 kJ/mol
# GULP energy per Si atom -12388.976611 kJ/mol
# Density = 1.989400 g / cm^3
# Si number density = 19.939383 Si / 1000 Ang^3
#
#
#
# Elastic Constant Matrix: (Units=GPa)
#
#
# Indices 1 2 3 4 5 6 
#
# 1 106.3953 40.4497 47.2524 0.0000 0.0000 -4.3643
# 2 40.4497 106.3953 47.2524 0.0000 0.0000 4.3643
# 3 47.2524 47.2524 85.7221 0.0000 0.0000 0.0000
# 4 0.0000 0.0000 0.0000 27.9454 0.0000 0.0000
# 5 0.0000 0.0000 0.0000 0.0000 27.9454 0.0000
# 6 -4.3643 4.3643 0.0000 0.0000 0.0000 38.3369
#
#
#
# Elastic Compliance Matrix: (Units=1/GPa)
#
#
# Indices 1 2 3 4 5 6 
#
# 1 0.012975 -0.002421 -0.005818 0.000000 0.000000 0.001753
# 2 -0.002421 0.012975 -0.005818 0.000000 0.000000 -0.001753
# 3 -0.005818 -0.005818 0.018079 0.000000 0.000000 0.000000
# 4 0.000000 0.000000 0.000000 0.035784 0.000000 0.000000
# 5 0.000000 0.000000 0.000000 0.000000 0.035784 0.000000
# 6 0.001753 -0.001753 0.000000 0.000000 0.000000 0.026484
#
#
# Mechanical properties :
#
#
# Convention : Reuss Voigt Hill
#
# Bulk Modulus (GPa) = 62.82728 63.15798 62.99263
# Shear Modulus (GPa) = 28.49018 29.74942 29.11980
#
# Velocity S-wave (km/s) = 3.78410 3.86682 3.82569
# Velocity P-wave (km/s) = 7.11829 7.18889 7.15368
#
# Compressibility (1/GPa) = 0.01591665
#
# Stress axis : x y z
#
# Youngs Moduli (GPa) = 77.07148 77.07148 55.31192
#
# Poissons Ratio (x) = 0.18659 0.32178
# Poissons Ratio (y) = 0.18659 0.32178
# Poissons Ratio (z) = 0.44837 0.44837
#
# Static dielectric constant tensor:
#      x y z
#    x 3.900590 0.000000 0.000000 
#    y 0.000000 3.900590 0.000000 
#    z 0.000000 0.000000 3.276080 
# 
# 
# High freq. dielectric constant tensor:
#      x y z
#    x 1.796280 0.000000 0.000000 
#    y 0.000000 1.796280 0.000000 
#    z 0.000000 0.000000 1.739000 
# 
# From -- ./inp_files/2214.got.cif
#   From: 2010.03.12/outbox.cif.g09.slc.cpg/sg82_2_cif.got.tgz:2214.got - 2010.04.08 20:02:50.
