data_PCOD8302794
_publ_section_title
;
Structure prediction by ZEFSAII (Michael W. Deem and Ramdas Pophale) SiO2 
 PCOD8302794
Probable space group: P 4/M
;
_chemical_formula_sum "Si O2"
_cell_formula_units_Z 52
_cell_length_a 16.796873
_cell_length_b 16.796873
_cell_length_c 9.652839
_cell_angle_alpha 90.000000
_cell_angle_beta 90.000000
_cell_angle_gamma 90.000000
_cell_volume 2723.403177
_symmetry_space_group_name_H-M "P 4/M"
_symmetry_group_IT_number 83
_symmetry_cell_setting 'tetragonal'
loop_
_space_group_symop_operation_xyz
x,y,z
-y,x,z
-x,-y,z
y,-x,z
-x,-y,-z
y,-x,-z
x,y,-z
-y,x,-z
loop_
_atom_site_type_symbol
_atom_site_label
_atom_site_fract_x
_atom_site_fract_y
_atom_site_fract_z
Si Si1 0.372134 0.901863 0.338988
Si Si2 0.503803 0.626097 0.835957
Si Si3 0.384351 0.084782 0.339134
Si Si4 0.073531 0.789882 0.649486
Si Si5 0.103251 0.917548 0.000000
Si Si6 0.496657 0.809453 0.832758
Si Si7 0.809910 0.092627 0.267292
O O1 0.379090 0.875471 0.500000
O O2 0.416290 0.841168 0.237338
O O3 0.282967 0.896754 0.283848
O O4 0.406113 0.991320 0.321739
O O5 0.423233 0.581422 0.782390
O O6 0.507299 0.717493 0.785736
O O7 0.502946 0.625089 0.000000
O O8 0.399170 0.110647 0.500000
O O9 0.294105 0.100523 0.285742
O O10 0.433620 0.138232 0.233465
O O11 0.037467 0.764520 0.500000
O O12 0.145526 0.850975 0.623065
O O13 0.000457 0.833296 0.725767
O O14 0.151727 0.877101 0.124727
O O15 0.012743 0.889218 0.000000
O O16 0.494443 0.819261 0.000000
#
# Coordination Sequence:
#
# PCOD8302794 Si02
#       7
#     8   8   8   8   4   8   8
#     4  10  22  39  59  80 108 151 195 234 280 334
#     4   8  16  34  58  81 112 148 177 211 263 329
#     4   9  20  39  57  76 109 151 190 230 281 335
#     4  10  20  36  57  80 107 147 197 244 279 327
#     4  11  22  38  54  80 117 159 195 232 299 355
#     4  11  22  35  57  91 115 138 183 232 280 340
#     4  11  21  37  55  80 112 150 194 237 283 342
#
# _framework density 19.093758999999999
#
# number of rings (size 3 to 8) (size 9 to 14) (size 15 to 20)
#    0.000    2.077    1.538    3.692    1.077    4.000 
#    5.538    0.769    0.000    2.769    0.000    4.308 
#    0.000    0.000    0.000    0.000    0.000    0.000 
#
# Total GULP energy -644266.228513 kJ/mol
# GULP energy per Si atom -12389.735164 kJ/mol
# Density = 1.905030 g / cm^3
# Si number density = 19.093759 Si / 1000 Ang^3
#
#
#
# Elastic Constant Matrix: (Units=GPa)
#
#
# Indices 1 2 3 4 5 6 
#
# 1 79.0728 37.6022 26.5840 0.0000 0.0000 10.0628
# 2 37.6022 79.0728 26.5840 0.0000 0.0000 -10.0628
# 3 26.5840 26.5840 79.2727 0.0000 0.0000 0.0000
# 4 0.0000 0.0000 0.0000 23.5951 0.0000 0.0000
# 5 0.0000 0.0000 0.0000 0.0000 23.5951 0.0000
# 6 10.0628 -10.0628 0.0000 0.0000 0.0000 19.0486
#
#
#
# Elastic Compliance Matrix: (Units=1/GPa)
#
#
# Indices 1 2 3 4 5 6 
#
# 1 0.021272 -0.011155 -0.003393 0.000000 0.000000 -0.017130
# 2 -0.011155 0.021272 -0.003393 0.000000 0.000000 0.017130
# 3 -0.003393 -0.003393 0.014890 0.000000 0.000000 0.000000
# 4 0.000000 0.000000 0.000000 0.042382 0.000000 0.000000
# 5 0.000000 0.000000 0.000000 0.000000 0.042382 0.000000
# 6 -0.017130 0.017130 0.000000 0.000000 0.000000 0.070596
#
#
# Mechanical properties :
#
#
# Convention : Reuss Voigt Hill
#
# Bulk Modulus (GPa) = 46.39696 46.55096 46.47396
# Shear Modulus (GPa) = 19.54208 23.02430 21.28319
#
# Velocity S-wave (km/s) = 3.20266 3.47631 3.34229
# Velocity P-wave (km/s) = 6.16671 6.36758 6.26795
#
# Compressibility (1/GPa) = 0.02155314
#
# Stress axis : x y z
#
# Youngs Moduli (GPa) = 47.01061 47.01061 67.15853
#
# Poissons Ratio (x) = 0.52440 0.22785
# Poissons Ratio (y) = 0.52440 0.22785
# Poissons Ratio (z) = 0.15949 0.15949
#
# Static dielectric constant tensor:
#      x y z
#    x 3.564010 0.000000 0.000000 
#    y 0.000000 3.564010 0.000000 
#    z 0.000000 0.000000 3.367640 
# 
# 
# High freq. dielectric constant tensor:
#      x y z
#    x 1.742800 0.000000 0.000000 
#    y 0.000000 1.742800 0.000000 
#    z 0.000000 0.000000 1.731580 
# 
# From -- ./inp_files/959.got.cif
#   From: 2010.03.12/outbox.cif.g09.slc.cpg/sg83_1_cif.got.tgz:959.got - 2010.04.08 20:05:18.
