data_PCOD8302480
_publ_section_title
;
Structure prediction by ZEFSAII (Michael W. Deem and Ramdas Pophale) SiO2 
 PCOD8302480
Probable space group: I -4 
;
_chemical_formula_sum "Si O2"
_cell_formula_units_Z 40
_cell_length_a 8.546830
_cell_length_b 8.546830
_cell_length_c 22.788350
_cell_angle_alpha 90.000000
_cell_angle_beta 90.000000
_cell_angle_gamma 90.000000
_cell_volume 1664.650297
_symmetry_space_group_name_H-M "I -4 "
_symmetry_group_IT_number 82
_symmetry_cell_setting 'tetragonal'
loop_
_space_group_symop_operation_xyz
x,y,z
y,-x,-z
-x,-y,z
-y,x,-z
1/2+x,1/2+y,1/2+z
1/2+y,1/2-x,1/2-z
1/2-x,1/2-y,1/2+z
1/2-y,1/2+x,1/2-z
loop_
_atom_site_type_symbol
_atom_site_label
_atom_site_fract_x
_atom_site_fract_y
_atom_site_fract_z
Si Si1 0.339875 0.676575 0.318830
Si Si2 0.182503 0.732270 0.433644
Si Si3 0.408514 0.340266 0.861039
Si Si4 0.825585 0.181980 0.220440
Si Si5 0.334263 0.051140 0.448895
O O1 0.320324 0.672972 0.390021
O O2 0.215927 0.802443 0.290444
O O3 0.515428 0.734172 0.304064
O O4 0.302909 0.507119 0.292858
O O5 0.221814 0.902347 0.460603
O O6 0.026035 0.725916 0.394638
O O7 0.149871 0.628621 0.491469
O O8 0.500000 0.500000 0.845205
O O9 0.336332 0.265204 0.802752
O O10 0.253948 0.348257 0.900936
O O11 0.500000 0.000000 0.422090
#
# Coordination Sequence:
#
# PCOD8302480 Si02
#       5
#     8   8   8   8   8
#     4  11  27  45  72 102 148 183 241 292 363 425
#     4  11  23  42  66 104 134 189 231 293 347 424
#     4  10  23  41  71  96 144 181 235 289 347 421
#     4  11  26  48  70 108 141 191 233 300 356 434
#     4  11  23  40  68 102 142 180 236 290 359 420
#
# _framework density 24.029070000000001
#
# number of rings (size 3 to 8) (size 9 to 14) (size 15 to 20)
#    0.000    1.200    2.000    2.400   11.200    2.400 
#    0.000    0.000    0.000    2.400    0.000    0.000 
#    0.000    0.000    0.000    0.000    0.000    0.000 
#
# Total GULP energy -247918.237428 kJ/mol
# GULP energy per Si atom -12395.911871 kJ/mol
# Density = 2.397438 g / cm^3
# Si number density = 24.029070 Si / 1000 Ang^3
#
#
#
# Elastic Constant Matrix: (Units=GPa)
#
#
# Indices 1 2 3 4 5 6 
#
# 1 94.7301 6.6829 33.1607 0.0000 0.0000 -0.1900
# 2 6.6829 94.7301 33.1607 0.0000 0.0000 0.1900
# 3 33.1607 33.1607 116.0652 0.0000 0.0000 0.0000
# 4 0.0000 0.0000 0.0000 35.6151 0.0000 0.0000
# 5 0.0000 0.0000 0.0000 0.0000 35.6151 0.0000
# 6 -0.1900 0.1900 0.0000 0.0000 0.0000 33.6220
#
#
#
# Elastic Compliance Matrix: (Units=1/GPa)
#
#
# Indices 1 2 3 4 5 6 
#
# 1 0.011742 0.000384 -0.003465 0.000000 0.000000 0.000064
# 2 0.000384 0.011742 -0.003465 0.000000 0.000000 -0.000064
# 3 -0.003465 -0.003465 0.010596 0.000000 0.000000 0.000000
# 4 0.000000 0.000000 0.000000 0.028078 0.000000 0.000000
# 5 0.000000 0.000000 0.000000 0.000000 0.028078 0.000000
# 6 0.000064 -0.000064 0.000000 0.000000 0.000000 0.029743
#
#
# Mechanical properties :
#
#
# Convention : Reuss Voigt Hill
#
# Bulk Modulus (GPa) = 47.64176 50.17045 48.90611
# Shear Modulus (GPa) = 35.69760 36.47185 36.08472
#
# Velocity S-wave (km/s) = 3.85853 3.90015 3.87940
# Velocity P-wave (km/s) = 6.30244 6.41919 6.36108
#
# Compressibility (1/GPa) = 0.02098999
#
# Stress axis : x y z
#
# Youngs Moduli (GPa) = 85.16343 85.16340 94.37899
#
# Poissons Ratio (x) = -0.03273 0.32699
# Poissons Ratio (y) = -0.03273 0.32699
# Poissons Ratio (z) = 0.29506 0.29506
#
# Static dielectric constant tensor:
#      x y z
#    x 4.152300 0.000000 0.000000 
#    y 0.000000 4.152300 0.000000 
#    z 0.000000 0.000000 4.391080 
# 
# 
# High freq. dielectric constant tensor:
#      x y z
#    x 1.943170 0.000000 0.000000 
#    y 0.000000 1.943170 0.000000 
#    z 0.000000 0.000000 1.968240 
# 
# From -- ./inp_files/3373.got.cif
#   From: 2010.03.12/outbox.cif.g09.slc.cpg/sg82_2_cif.got.tgz:3373.got - 2010.04.08 20:02:50.
