data_PCOD8302562
_publ_section_title
;
Structure prediction by ZEFSAII (Michael W. Deem and Ramdas Pophale) SiO2 
 PCOD8302562
Probable space group: I -4 
;
_chemical_formula_sum "Si O2"
_cell_formula_units_Z 56
_cell_length_a 14.299523
_cell_length_b 14.299523
_cell_length_c 11.813870
_cell_angle_alpha 90.000000
_cell_angle_beta 90.000000
_cell_angle_gamma 90.000000
_cell_volume 2415.657112
_symmetry_space_group_name_H-M "I -4 "
_symmetry_group_IT_number 82
_symmetry_cell_setting 'tetragonal'
loop_
_space_group_symop_operation_xyz
x,y,z
y,-x,-z
-x,-y,z
-y,x,-z
1/2+x,1/2+y,1/2+z
1/2+y,1/2-x,1/2-z
1/2-x,1/2-y,1/2+z
1/2-y,1/2+x,1/2-z
loop_
_atom_site_type_symbol
_atom_site_label
_atom_site_fract_x
_atom_site_fract_y
_atom_site_fract_z
Si Si1 0.920770 0.815622 0.894121
Si Si2 0.376708 0.215672 0.762643
Si Si3 0.054556 0.355927 0.737263
Si Si4 0.427929 0.725425 0.747207
Si Si5 0.142825 0.288294 0.520158
Si Si6 0.584407 0.391380 0.958694
Si Si7 0.367017 0.670670 0.390084
O O1 0.909650 0.715021 0.834216
O O2 0.838501 0.883949 0.850577
O O3 0.024604 0.854795 0.871299
O O4 0.904984 0.814070 0.029275
O O5 0.480056 0.217714 0.707156
O O6 0.305039 0.142472 0.706591
O O7 0.332181 0.317521 0.733314
O O8 0.389132 0.187441 0.893827
O O9 0.119876 0.446790 0.742930
O O10 0.062464 0.308384 0.613244
O O11 0.458689 0.652292 0.844820
O O12 0.168226 0.177818 0.516177
O O13 0.228686 0.354072 0.552724
O O14 0.501689 0.385560 0.052986
#
# Coordination Sequence:
#
# PCOD8302562 Si02
#       7
#     8   8   8   8   8   8   8
#     4  12  26  47  76 107 152 200 261 311 385 464
#     4  12  28  47  76 108 152 203 251 322 392 470
#     4  11  25  46  79 114 146 198 260 318 375 454
#     4  12  26  48  73 109 149 197 259 315 397 458
#     4  12  24  47  72 109 150 194 251 313 386 452
#     4  11  24  42  72 113 147 190 246 315 383 451
#     4  12  27  46  75 106 151 206 252 316 380 464
#
# _framework density 23.182099000000001
#
# number of rings (size 3 to 8) (size 9 to 14) (size 15 to 20)
#    0.000    0.286    7.143    0.857    2.000    4.571 
#    0.000    1.429    0.000    0.000    0.000    0.000 
#    0.000    0.000    0.000    0.000    0.000    0.000 
#
# Total GULP energy -346973.480781 kJ/mol
# GULP energy per Si atom -12391.910028 kJ/mol
# Density = 2.312934 g / cm^3
# Si number density = 23.182099 Si / 1000 Ang^3
#
#
#
# Elastic Constant Matrix: (Units=GPa)
#
#
# Indices 1 2 3 4 5 6 
#
# 1 136.0222 50.5280 37.5092 0.0000 0.0000 11.4481
# 2 50.5280 136.0222 37.5092 0.0000 0.0000 -11.4481
# 3 37.5092 37.5092 89.8361 0.0000 0.0000 0.0000
# 4 0.0000 0.0000 0.0000 31.3095 0.0000 0.0000
# 5 0.0000 0.0000 0.0000 0.0000 31.3095 0.0000
# 6 11.4481 -11.4481 0.0000 0.0000 0.0000 30.1670
#
#
#
# Elastic Compliance Matrix: (Units=1/GPa)
#
#
# Indices 1 2 3 4 5 6 
#
# 1 0.009731 -0.003289 -0.002690 0.000000 0.000000 -0.004941
# 2 -0.003289 0.009731 -0.002690 0.000000 0.000000 0.004941
# 3 -0.002690 -0.002690 0.013378 0.000000 0.000000 0.000000
# 4 0.000000 0.000000 0.000000 0.031939 0.000000 0.000000
# 5 0.000000 0.000000 0.000000 0.000000 0.031939 0.000000
# 6 -0.004941 0.004941 0.000000 0.000000 0.000000 0.036899
#
#
# Mechanical properties :
#
#
# Convention : Reuss Voigt Hill
#
# Bulk Modulus (GPa) = 64.50505 68.10814 66.30659
# Shear Modulus (GPa) = 32.02635 34.31279 33.16957
#
# Velocity S-wave (km/s) = 3.72090 3.85143 3.78673
# Velocity P-wave (km/s) = 6.80778 7.01580 6.91258
#
# Compressibility (1/GPa) = 0.01550266
#
# Stress axis : x y z
#
# Youngs Moduli (GPa) = 102.76393 102.76393 74.75236
#
# Poissons Ratio (x) = 0.33798 0.20107
# Poissons Ratio (y) = 0.33798 0.20107
# Poissons Ratio (z) = 0.27641 0.27641
#
# Static dielectric constant tensor:
#      x y z
#    x 4.252710 0.000000 0.000000 
#    y 0.000000 4.252710 0.000000 
#    z 0.000000 0.000000 4.294730 
# 
# 
# High freq. dielectric constant tensor:
#      x y z
#    x 1.918980 0.000000 0.000000 
#    y 0.000000 1.918980 0.000000 
#    z 0.000000 0.000000 1.910000 
# 
# From -- ./inp_files/1834.got.cif
#   From: 2010.03.12/outbox.cif.g09.slc.cpg/sg82_1_cif.got.tgz:1834.got - 2010.04.08 20:02:50.
