data_PCOD8302478
_publ_section_title
;
Structure prediction by ZEFSAII (Michael W. Deem and Ramdas Pophale) SiO2 
 PCOD8302478
Probable space group: I -4 
;
_chemical_formula_sum "Si O2"
_cell_formula_units_Z 48
_cell_length_a 9.285893
_cell_length_b 9.285893
_cell_length_c 26.013883
_cell_angle_alpha 90.000000
_cell_angle_beta 90.000000
_cell_angle_gamma 90.000000
_cell_volume 2243.120130
_symmetry_space_group_name_H-M "I -4 "
_symmetry_group_IT_number 82
_symmetry_cell_setting 'tetragonal'
loop_
_space_group_symop_operation_xyz
x,y,z
y,-x,-z
-x,-y,z
-y,x,-z
1/2+x,1/2+y,1/2+z
1/2+y,1/2-x,1/2-z
1/2-x,1/2-y,1/2+z
1/2-y,1/2+x,1/2-z
loop_
_atom_site_type_symbol
_atom_site_label
_atom_site_fract_x
_atom_site_fract_y
_atom_site_fract_z
Si Si1 0.427889 0.343779 0.217503
Si Si2 0.238511 0.868879 0.072941
Si Si3 0.300352 0.207306 0.315034
Si Si4 0.500000 0.500000 0.000000
Si Si5 0.498063 0.834164 0.828478
Si Si6 0.000000 0.000000 0.000000
Si Si7 0.000000 0.500000 0.524081
Si Si8 0.042927 0.261904 0.442594
O O1 0.500000 0.500000 0.227422
O O2 0.406685 0.253486 0.269529
O O3 0.534895 0.239965 0.183611
O O4 0.269548 0.368902 0.191882
O O5 0.225924 0.878767 0.134674
O O6 0.361673 0.980913 0.059317
O O7 0.288936 0.707132 0.062201
O O8 0.096639 0.905103 0.039162
O O9 0.148178 0.282195 0.306341
O O10 0.625140 0.549874 0.039204
O O11 0.483294 0.828151 0.890155
O O12 0.500000 0.000000 0.810231
O O13 0.030208 0.367679 0.488822
#
# Coordination Sequence:
#
# PCOD8302478 Si02
#       8
#     8   8   8   2   8   2   4   8
#     4  10  24  44  68 102 138 179 229 284 341 414
#     4  11  25  42  65  98 133 179 225 279 336 406
#     4  10  25  45  67  96 142 176 230 282 348 403
#     4  12  24  36  72  90 140 176 216 276 340 394
#     4  10  23  40  70 100 134 178 230 280 333 404
#     4  12  24  44  68  98 140 176 228 280 344 406
#     4  12  22  42  62  95 131 176 224 268 332 404
#     4  11  23  40  62  99 133 175 222 272 334 403
#
# _framework density 21.398765000000001
#
# number of rings (size 3 to 8) (size 9 to 14) (size 15 to 20)
#    0.000    1.333    4.167    0.000   11.667    1.667 
#    0.000    5.000    0.000    0.000    0.000    0.000 
#    0.000    0.000    0.000    0.000    0.000    0.000 
#
# Total GULP energy -297346.447095 kJ/mol
# GULP energy per Si atom -12389.435296 kJ/mol
# Density = 2.135006 g / cm^3
# Si number density = 21.398765 Si / 1000 Ang^3
#
#
#
# Elastic Constant Matrix: (Units=GPa)
#
#
# Indices 1 2 3 4 5 6 
#
# 1 97.8972 12.3857 44.7026 0.0000 0.0000 -3.7312
# 2 12.3857 97.8971 44.7026 0.0000 0.0000 3.7312
# 3 44.7026 44.7026 108.4313 0.0000 0.0000 0.0000
# 4 0.0000 0.0000 0.0000 40.8276 0.0000 0.0000
# 5 0.0000 0.0000 0.0000 0.0000 40.8276 0.0000
# 6 -3.7312 3.7312 0.0000 0.0000 0.0000 26.8536
#
#
#
# Elastic Compliance Matrix: (Units=1/GPa)
#
#
# Indices 1 2 3 4 5 6 
#
# 1 0.012729 0.000891 -0.005615 0.000000 0.000000 0.001645
# 2 0.000891 0.012729 -0.005615 0.000000 0.000000 -0.001645
# 3 -0.005615 -0.005615 0.013852 0.000000 0.000000 0.000000
# 4 0.000000 0.000000 0.000000 0.024493 0.000000 0.000000
# 5 0.000000 0.000000 0.000000 0.000000 0.024493 0.000000
# 6 0.001645 -0.001645 0.000000 0.000000 0.000000 0.037696
#
#
# Mechanical properties :
#
#
# Convention : Reuss Voigt Hill
#
# Bulk Modulus (GPa) = 53.67219 56.42303 55.04761
# Shear Modulus (GPa) = 32.70532 35.19742 33.95137
#
# Velocity S-wave (km/s) = 3.91368 4.06006 3.98754
# Velocity P-wave (km/s) = 6.74973 6.95725 6.85428
#
# Compressibility (1/GPa) = 0.01863162
#
# Stress axis : x y z
#
# Youngs Moduli (GPa) = 78.56268 78.56266 72.19138
#
# Poissons Ratio (x) = -0.06998 0.40534
# Poissons Ratio (y) = -0.06998 0.40534
# Poissons Ratio (z) = 0.44112 0.44112
#
# Static dielectric constant tensor:
#      x y z
#    x 3.728430 0.000000 0.000000 
#    y 0.000000 3.728430 0.000000 
#    z 0.000000 0.000000 3.907790 
# 
# 
# High freq. dielectric constant tensor:
#      x y z
#    x 1.837300 0.000000 0.000000 
#    y 0.000000 1.837300 0.000000 
#    z 0.000000 0.000000 1.846470 
# 
# From -- ./inp_files/4104.got.cif
#   From: 2010.03.12/outbox.cif.g09.slc.cpg/sg82_3_cif.got.tgz:4104.got - 2010.04.08 20:02:50.
