data_PCOD8302226
_publ_section_title
;
Structure prediction by ZEFSAII (Michael W. Deem and Ramdas Pophale) SiO2 
 PCOD8302226
Probable space group: I 41
;
_chemical_formula_sum "Si O2"
_cell_formula_units_Z 36
_cell_length_a 14.121695
_cell_length_b 14.121695
_cell_length_c 9.456810
_cell_angle_alpha 90.000000
_cell_angle_beta 90.000000
_cell_angle_gamma 90.000000
_cell_volume 1885.898514
_symmetry_space_group_name_H-M "I 41"
_symmetry_group_IT_number 80
_symmetry_cell_setting 'tetragonal'
loop_
_space_group_symop_operation_xyz
x,y,z
-y,1/2+x,1/4+z
-x,-y,z
y,1/2-x,1/4+z
1/2+x,1/2+y,1/2+z
1/2-y,x,3/4+z
1/2-x,1/2-y,1/2+z
1/2+y,-x,3/4+z
loop_
_atom_site_type_symbol
_atom_site_label
_atom_site_fract_x
_atom_site_fract_y
_atom_site_fract_z
Si Si1 0.750140 0.652230 0.641210
Si Si2 0.652230 0.249860 0.878828
Si Si3 0.504831 0.894625 0.783142
Si Si4 0.105375 0.504831 0.736895
Si Si5 0.500000 0.500000 0.260019
O O1 0.724399 0.714005 0.775127
O O2 0.657175 0.599965 0.581877
O O3 0.835077 0.583635 0.684084
O O4 0.714004 0.275601 0.744910
O O5 0.583634 0.164924 0.835953
O O6 0.599965 0.342825 0.938161
O O7 0.500000 0.000000 0.852661
O O8 0.503910 0.906654 0.611256
O O9 0.000000 0.500000 0.667376
O O10 0.093346 0.503910 0.908781
#
# Coordination Sequence:
#
# PCOD8302226 Si02
#       5
#     8   8   8   8   4
#     4  11  26  40  65 100 134 172 221 274 319 392
#     4  11  26  40  65 100 134 172 221 274 319 392
#     4   9  23  42  67  92 130 178 215 268 326 384
#     4   9  23  42  67  92 130 178 215 268 326 384
#     4   8  20  40  74  84 120 180 218 264 320 408
#
# _framework density 19.089044999999999
#
# number of rings (size 3 to 8) (size 9 to 14) (size 15 to 20)
#    1.333    0.889    0.000    0.000   18.667    0.000 
#    0.000    6.667    0.000    0.000    0.000    0.000 
#    0.000    0.000    0.000    0.000    0.000    0.000 
#
# Total GULP energy -223118.986426 kJ/mol
# GULP energy per Si atom -12395.499246 kJ/mol
# Density = 1.904560 g / cm^3
# Si number density = 19.089045 Si / 1000 Ang^3
#
#
#
# Elastic Constant Matrix: (Units=GPa)
#
#
# Indices 1 2 3 4 5 6 
#
# 1 83.4691 14.0479 10.3930 0.0000 0.0000 -0.4432
# 2 14.0479 83.4691 10.3930 0.0000 0.0000 0.4432
# 3 10.3930 10.3930 95.8381 0.0000 0.0000 0.0000
# 4 0.0000 0.0000 0.0000 34.6228 0.0000 0.0000
# 5 0.0000 0.0000 0.0000 0.0000 34.6228 0.0000
# 6 -0.4432 0.4432 0.0000 0.0000 0.0000 17.1132
#
#
#
# Elastic Compliance Matrix: (Units=1/GPa)
#
#
# Indices 1 2 3 4 5 6 
#
# 1 0.012453 -0.001956 -0.001138 0.000000 0.000000 0.000373
# 2 -0.001956 0.012453 -0.001138 0.000000 0.000000 -0.000373
# 3 -0.001138 -0.001138 0.010681 0.000000 0.000000 0.000000
# 4 0.000000 0.000000 0.000000 0.028883 0.000000 0.000000
# 5 0.000000 0.000000 0.000000 0.000000 0.028883 0.000000
# 6 0.000373 -0.000373 0.000000 0.000000 0.000000 0.058454
#
#
# Mechanical properties :
#
#
# Convention : Reuss Voigt Hill
#
# Bulk Modulus (GPa) = 36.87009 36.93824 36.90417
# Shear Modulus (GPa) = 29.53100 32.46791 30.99946
#
# Velocity S-wave (km/s) = 3.93748 4.12863 4.03419
# Velocity P-wave (km/s) = 6.32680 6.48999 6.40891
#
# Compressibility (1/GPa) = 0.02712225
#
# Stress axis : x y z
#
# Youngs Moduli (GPa) = 80.29913 80.29913 93.62275
#
# Poissons Ratio (x) = 0.15708 0.10658
# Poissons Ratio (y) = 0.15708 0.10658
# Poissons Ratio (z) = 0.09141 0.09141
#
# Static dielectric constant tensor:
#      x y z
#    x 3.451720 0.000000 0.000000 
#    y 0.000000 3.451720 0.000000 
#    z 0.000000 0.000000 3.512130 
# 
# 
# High freq. dielectric constant tensor:
#      x y z
#    x 1.741540 0.000000 0.000000 
#    y 0.000000 1.741540 0.000000 
#    z 0.000000 0.000000 1.752180 
# 
# From -- ./inp_files/566.got.cif
#   From: 2010.03.12/outbox.cif.g09.slc.cpg/sg80_cif.got.tgz:566.got - 2010.04.08 20:00:04.
