data_PCOD8302547
_publ_section_title
;
Structure prediction by ZEFSAII (Michael W. Deem and Ramdas Pophale) SiO2 
 PCOD8302547
Probable space group: I -4 
;
_chemical_formula_sum "Si O2"
_cell_formula_units_Z 36
_cell_length_a 14.306304
_cell_length_b 14.306304
_cell_length_c 8.299502
_cell_angle_alpha 90.000000
_cell_angle_beta 90.000000
_cell_angle_gamma 90.000000
_cell_volume 1698.661848
_symmetry_space_group_name_H-M "I -4 "
_symmetry_group_IT_number 82
_symmetry_cell_setting 'tetragonal'
loop_
_space_group_symop_operation_xyz
x,y,z
y,-x,-z
-x,-y,z
-y,x,-z
1/2+x,1/2+y,1/2+z
1/2+y,1/2-x,1/2-z
1/2-x,1/2-y,1/2+z
1/2-y,1/2+x,1/2-z
loop_
_atom_site_type_symbol
_atom_site_label
_atom_site_fract_x
_atom_site_fract_y
_atom_site_fract_z
Si Si1 0.280085 0.941176 0.268142
Si Si2 0.500000 0.000000 0.750000
Si Si3 0.107100 0.833942 0.167233
Si Si4 0.968299 0.148173 0.497787
Si Si5 0.853686 0.569790 0.508042
Si Si6 0.000000 0.000000 0.000000
O O1 0.215514 0.863675 0.181652
O O2 0.339063 0.896202 0.410870
O O3 0.217608 0.022791 0.350439
O O4 0.348663 0.985217 0.135545
O O5 0.462132 0.915670 0.641674
O O6 0.068981 0.798310 0.339877
O O7 0.097364 0.750728 0.042221
O O8 0.046456 0.923135 0.114549
O O9 0.069016 0.105448 0.453522
#
# Coordination Sequence:
#
# PCOD8302547 Si02
#       6
#     8   2   8   8   8   2
#     4  11  24  42  64  97 132 176 227 283 339 408
#     4  12  28  50  68  92 136 194 240 284 340 402
#     4  11  23  40  70 100 135 174 223 287 350 417
#     4   9  19  37  64  95 127 169 214 272 344 410
#     4  12  26  44  68  94 133 185 231 286 338 412
#     4  12  20  44  70 104 140 172 222 288 376 408
#
# _framework density 21.193154
#
# number of rings (size 3 to 8) (size 9 to 14) (size 15 to 20)
#    0.000    1.111    2.222    5.333    0.000    5.333 
#    0.000    0.000    0.000    0.000    0.000    0.000 
#    0.000    0.000    0.000    0.000    0.000    0.000 
#
# Total GULP energy -223289.195203 kJ/mol
# GULP energy per Si atom -12404.955289 kJ/mol
# Density = 2.114492 g / cm^3
# Si number density = 21.193154 Si / 1000 Ang^3
#
#
#
# Elastic Constant Matrix: (Units=GPa)
#
#
# Indices 1 2 3 4 5 6 
#
# 1 90.4704 41.1482 42.8504 0.0000 0.0000 -0.2361
# 2 41.1482 90.4704 42.8504 0.0000 0.0000 0.2361
# 3 42.8504 42.8504 97.3840 0.0000 0.0000 0.0000
# 4 0.0000 0.0000 0.0000 49.8956 0.0000 0.0000
# 5 0.0000 0.0000 0.0000 0.0000 49.8956 0.0000
# 6 -0.2361 0.2361 0.0000 0.0000 0.0000 27.8419
#
#
#
# Elastic Compliance Matrix: (Units=1/GPa)
#
#
# Indices 1 2 3 4 5 6 
#
# 1 0.015463 -0.004814 -0.004686 0.000000 0.000000 0.000172
# 2 -0.004814 0.015463 -0.004686 0.000000 0.000000 -0.000172
# 3 -0.004686 -0.004686 0.014392 0.000000 0.000000 0.000000
# 4 0.000000 0.000000 0.000000 0.020042 0.000000 0.000000
# 5 0.000000 0.000000 0.000000 0.000000 0.020042 0.000000
# 6 0.000172 -0.000172 0.000000 0.000000 0.000000 0.035920
#
#
# Mechanical properties :
#
#
# Convention : Reuss Voigt Hill
#
# Bulk Modulus (GPa) = 59.00722 59.11365 59.06043
# Shear Modulus (GPa) = 32.18750 35.62503 33.90626
#
# Velocity S-wave (km/s) = 3.90137 4.10441 4.00418
# Velocity P-wave (km/s) = 6.94242 7.10035 7.02183
#
# Compressibility (1/GPa) = 0.01694708
#
# Stress axis : x y z
#
# Youngs Moduli (GPa) = 64.67243 64.67243 69.48290
#
# Poissons Ratio (x) = 0.31133 0.32556
# Poissons Ratio (y) = 0.31133 0.32556
# Poissons Ratio (z) = 0.30302 0.30302
#
# Static dielectric constant tensor:
#      x y z
#    x 3.789620 0.000000 0.000000 
#    y 0.000000 3.789620 0.000000 
#    z 0.000000 0.000000 4.014460 
# 
# 
# High freq. dielectric constant tensor:
#      x y z
#    x 1.827590 0.000000 0.000000 
#    y 0.000000 1.827590 0.000000 
#    z 0.000000 0.000000 1.846570 
# 
# From -- ./inp_files/858.got.cif
#   From: 2010.03.12/outbox.cif.g09.slc.cpg/sg82_1_cif.got.tgz:858.got - 2010.04.08 20:02:50.
