data_PCOD8302491
_publ_section_title
;
Structure prediction by ZEFSAII (Michael W. Deem and Ramdas Pophale) SiO2 
 PCOD8302491
Probable space group: I -4 
;
_chemical_formula_sum "Si O2"
_cell_formula_units_Z 40
_cell_length_a 14.559166
_cell_length_b 14.559166
_cell_length_c 8.714639
_cell_angle_alpha 90.000000
_cell_angle_beta 90.000000
_cell_angle_gamma 90.000000
_cell_volume 1847.236056
_symmetry_space_group_name_H-M "I -4 "
_symmetry_group_IT_number 82
_symmetry_cell_setting 'tetragonal'
loop_
_space_group_symop_operation_xyz
x,y,z
y,-x,-z
-x,-y,z
-y,x,-z
1/2+x,1/2+y,1/2+z
1/2+y,1/2-x,1/2-z
1/2-x,1/2-y,1/2+z
1/2-y,1/2+x,1/2-z
loop_
_atom_site_type_symbol
_atom_site_label
_atom_site_fract_x
_atom_site_fract_y
_atom_site_fract_z
Si Si1 0.378026 0.226609 0.522392
Si Si2 0.728060 0.586979 0.941197
Si Si3 0.173676 0.951182 0.684949
Si Si4 0.584711 0.585884 0.412972
Si Si5 0.509849 0.138364 0.293951
O O1 0.282942 0.171749 0.517860
O O2 0.404764 0.256703 0.693967
O O3 0.360999 0.318102 0.418931
O O4 0.461202 0.165189 0.453944
O O5 0.624062 0.613809 0.903457
O O6 0.772135 0.552919 0.783042
O O7 0.733826 0.502957 0.058878
O O8 0.108973 0.029658 0.760926
O O9 0.524964 0.392189 0.431967
O O10 0.434926 0.091740 0.178491
#
# Coordination Sequence:
#
# PCOD8302491 Si02
#       5
#     8   8   8   8   8
#     4  10  24  44  70  95 130 186 229 270 351 419
#     4  11  27  42  64 104 134 173 225 292 340 402
#     4  11  27  42  66  98 137 173 220 289 338 410
#     4   9  21  39  64  93 120 173 223 257 330 405
#     4   9  21  44  69  95 130 176 229 281 336 407
#
# _framework density 21.653973000000001
#
# number of rings (size 3 to 8) (size 9 to 14) (size 15 to 20)
#    0.000    2.000    0.000    0.000   19.600    5.200 
#    0.000    0.000    0.000    0.000    0.000    0.000 
#    0.000    0.000    0.000    0.000    0.000    0.000 
#
# Total GULP energy -247902.096002 kJ/mol
# GULP energy per Si atom -12395.104800 kJ/mol
# Density = 2.160469 g / cm^3
# Si number density = 21.653973 Si / 1000 Ang^3
#
#
#
# Elastic Constant Matrix: (Units=GPa)
#
#
# Indices 1 2 3 4 5 6 
#
# 1 119.9286 47.2036 32.4533 0.0000 0.0000 -14.0862
# 2 47.2036 119.9286 32.4533 0.0000 0.0000 14.0862
# 3 32.4533 32.4533 69.6120 0.0000 0.0000 0.0000
# 4 0.0000 0.0000 0.0000 35.0297 0.0000 0.0000
# 5 0.0000 0.0000 0.0000 0.0000 35.0297 0.0000
# 6 -14.0862 14.0862 0.0000 0.0000 0.0000 40.8079
#
#
#
# Elastic Compliance Matrix: (Units=1/GPa)
#
#
# Indices 1 2 3 4 5 6 
#
# 1 0.011590 -0.004283 -0.003406 0.000000 0.000000 0.005479
# 2 -0.004283 0.011590 -0.003406 0.000000 0.000000 -0.005479
# 3 -0.003406 -0.003406 0.017541 0.000000 0.000000 0.000000
# 4 0.000000 0.000000 0.000000 0.028547 0.000000 0.000000
# 5 0.000000 0.000000 0.000000 0.000000 0.028547 0.000000
# 6 0.005479 -0.005479 0.000000 0.000000 0.000000 0.028288
#
#
# Mechanical properties :
#
#
# Convention : Reuss Voigt Hill
#
# Bulk Modulus (GPa) = 53.96973 59.29885 56.63429
# Shear Modulus (GPa) = 32.36877 35.33073 33.84975
#
# Velocity S-wave (km/s) = 3.87048 4.04369 3.95804
# Velocity P-wave (km/s) = 6.70463 7.01756 6.86288
#
# Compressibility (1/GPa) = 0.01852891
#
# Stress axis : x y z
#
# Youngs Moduli (GPa) = 86.28496 86.28496 57.00857
#
# Poissons Ratio (x) = 0.36960 0.19418
# Poissons Ratio (y) = 0.36960 0.19418
# Poissons Ratio (z) = 0.29390 0.29390
#
# Static dielectric constant tensor:
#      x y z
#    x 4.034100 0.000000 0.000000 
#    y 0.000000 4.034100 0.000000 
#    z 0.000000 0.000000 3.740170 
# 
# 
# High freq. dielectric constant tensor:
#      x y z
#    x 1.857070 0.000000 0.000000 
#    y 0.000000 1.857070 0.000000 
#    z 0.000000 0.000000 1.828710 
# 
# From -- ./inp_files/951.got.cif
#   From: 2010.03.12/outbox.cif.g09.slc.cpg/sg82_1_cif.got.tgz:951.got - 2010.04.08 20:02:50.
