data_PCOD8302493
_publ_section_title
;
Structure prediction by ZEFSAII (Michael W. Deem and Ramdas Pophale) SiO2 
 PCOD8302493
Probable space group: I -4 
;
_chemical_formula_sum "Si O2"
_cell_formula_units_Z 50
_cell_length_a 8.428729
_cell_length_b 8.428729
_cell_length_c 31.555920
_cell_angle_alpha 90.000000
_cell_angle_beta 90.000000
_cell_angle_gamma 90.000000
_cell_volume 2241.842136
_symmetry_space_group_name_H-M "I -4 "
_symmetry_group_IT_number 82
_symmetry_cell_setting 'tetragonal'
loop_
_space_group_symop_operation_xyz
x,y,z
y,-x,-z
-x,-y,z
-y,x,-z
1/2+x,1/2+y,1/2+z
1/2+y,1/2-x,1/2-z
1/2-x,1/2-y,1/2+z
1/2-y,1/2+x,1/2-z
loop_
_atom_site_type_symbol
_atom_site_label
_atom_site_fract_x
_atom_site_fract_y
_atom_site_fract_z
Si Si1 0.595153 0.763035 0.239923
Si Si2 0.114398 0.209098 0.432502
Si Si3 0.784646 0.872230 0.001299
Si Si4 0.000000 0.500000 0.125208
Si Si5 0.791952 0.761251 0.158813
Si Si6 0.500000 0.500000 0.000000
Si Si7 0.666371 0.074552 0.417289
Si Si8 0.000000 0.000000 0.796068
O O1 0.407538 0.806348 0.238933
O O2 0.654855 0.719034 0.192741
O O3 0.621025 0.602016 0.266838
O O4 0.259601 0.281076 0.457736
O O5 0.045783 0.342836 0.401706
O O6 0.985269 0.153593 0.468593
O O7 0.189607 0.051805 0.410949
O O8 0.643113 0.851403 0.035174
O O9 0.950045 0.801650 0.017144
O O10 0.063657 0.363576 0.156026
O O11 0.718856 0.787169 0.112794
O O12 0.871841 0.921759 0.173729
O O13 0.500000 0.000000 0.402379
#
# Coordination Sequence:
#
# PCOD8302493 Si02
#       8
#     8   8   8   4   8   2   8   4
#     4   9  21  44  73 105 137 183 231 280 342 438
#     4  12  26  43  67  94 136 186 241 288 344 425
#     4  11  24  43  65  95 134 181 239 293 349 412
#     4  12  30  46  65 102 148 184 228 304 367 410
#     4  11  27  45  71 104 146 184 228 295 357 415
#     4  12  24  40  70  92 124 184 248 292 336 422
#     4  12  26  42  69 107 133 188 234 299 355 416
#     4  10  24  44  77 108 139 182 233 284 338 431
#
# _framework density 22.303089
#
# number of rings (size 3 to 8) (size 9 to 14) (size 15 to 20)
#    0.000    0.960    3.200    1.920   10.080    5.120 
#    0.000    0.000    0.000    0.000    0.000    0.000 
#    0.000    0.000    0.000    0.000    0.000    0.000 
#
# Total GULP energy -309820.611855 kJ/mol
# GULP energy per Si atom -12392.824474 kJ/mol
# Density = 2.225233 g / cm^3
# Si number density = 22.303089 Si / 1000 Ang^3
#
#
#
# Elastic Constant Matrix: (Units=GPa)
#
#
# Indices 1 2 3 4 5 6 
#
# 1 101.9870 25.9236 34.0359 0.0000 0.0000 5.6572
# 2 25.9236 101.9870 34.0360 0.0000 0.0000 -5.6572
# 3 34.0359 34.0360 87.4791 0.0000 0.0000 0.0000
# 4 0.0000 0.0000 0.0000 30.9042 0.0000 0.0000
# 5 0.0000 0.0000 0.0000 0.0000 30.9042 0.0000
# 6 5.6572 -5.6572 0.0000 0.0000 0.0000 44.4169
#
#
#
# Elastic Compliance Matrix: (Units=1/GPa)
#
#
# Indices 1 2 3 4 5 6 
#
# 1 0.011630 -0.001771 -0.003836 0.000000 0.000000 -0.001707
# 2 -0.001771 0.011630 -0.003836 0.000000 0.000000 0.001707
# 3 -0.003836 -0.003836 0.014416 0.000000 0.000000 0.000000
# 4 0.000000 0.000000 0.000000 0.032358 0.000000 0.000000
# 5 0.000000 0.000000 0.000000 0.000000 0.032358 0.000000
# 6 -0.001707 0.001707 0.000000 0.000000 0.000000 0.022949
#
#
# Mechanical properties :
#
#
# Convention : Reuss Voigt Hill
#
# Bulk Modulus (GPa) = 53.21704 53.27155 53.24430
# Shear Modulus (GPa) = 33.22463 34.40890 33.81676
#
# Velocity S-wave (km/s) = 3.86383 3.93209 3.89811
# Velocity P-wave (km/s) = 6.61954 6.67475 6.64720
#
# Compressibility (1/GPa) = 0.01879097
#
# Stress axis : x y z
#
# Youngs Moduli (GPa) = 85.98352 85.98351 69.36574
#
# Poissons Ratio (x) = 0.15225 0.26609
# Poissons Ratio (y) = 0.15225 0.26609
# Poissons Ratio (z) = 0.32984 0.32984
#
# Static dielectric constant tensor:
#      x y z
#    x 4.220700 0.000000 0.000000 
#    y 0.000000 4.220700 0.000000 
#    z 0.000000 0.000000 3.855110 
# 
# 
# High freq. dielectric constant tensor:
#      x y z
#    x 1.889520 0.000000 0.000000 
#    y 0.000000 1.889520 0.000000 
#    z 0.000000 0.000000 1.862250 
# 
# From -- ./inp_files/4126.got.cif
#   From: 2010.03.12/outbox.cif.g09.slc.cpg/sg82_3_cif.got.tgz:4126.got - 2010.04.08 20:02:50.
