data_PCOD8302166
_publ_section_title
;
Structure prediction by ZEFSAII (Michael W. Deem and Ramdas Pophale) SiO2 
 PCOD8302166
Probable space group: I 41
;
_chemical_formula_sum "Si O2"
_cell_formula_units_Z 32
_cell_length_a 9.428370
_cell_length_b 9.428370
_cell_length_c 18.004066
_cell_angle_alpha 90.000000
_cell_angle_beta 90.000000
_cell_angle_gamma 90.000000
_cell_volume 1600.456339
_symmetry_space_group_name_H-M "I 41"
_symmetry_group_IT_number 80
_symmetry_cell_setting 'tetragonal'
loop_
_space_group_symop_operation_xyz
x,y,z
-y,1/2+x,1/4+z
-x,-y,z
y,1/2-x,1/4+z
1/2+x,1/2+y,1/2+z
1/2-y,x,3/4+z
1/2-x,1/2-y,1/2+z
1/2+y,-x,3/4+z
loop_
_atom_site_type_symbol
_atom_site_label
_atom_site_fract_x
_atom_site_fract_y
_atom_site_fract_z
Si Si1 0.338186 0.494107 0.623150
Si Si2 0.633966 0.193069 0.627637
Si Si3 0.241021 0.131107 0.975422
Si Si4 0.009124 0.662798 0.967560
O O1 0.500000 0.500000 0.592414
O O2 0.295705 0.653556 0.644818
O O3 0.325649 0.396243 0.695990
O O4 0.239635 0.433375 0.557694
O O5 0.486895 0.170374 0.671977
O O6 0.604468 0.176047 0.540775
O O7 0.749667 0.078462 0.650682
O O8 0.146634 0.272438 0.980746
O O9 0.000000 0.500000 0.942752
#
# Coordination Sequence:
#
# PCOD8302166 Si02
#       4
#     8   8   8   8
#     4  10  20  37  67  98 123 168 214 264 318 381
#     4  11  22  42  66  91 131 170 215 261 318 394
#     4  11  19  40  66  95 123 163 222 257 311 385
#     4  12  24  41  65  96 127 173 213 270 317 376
#
# _framework density 19.994298000000001
#
# number of rings (size 3 to 8) (size 9 to 14) (size 15 to 20)
#    0.000    1.000    7.500    2.250    0.000    0.000 
#    4.500    1.250    0.000    0.000    0.000    0.000 
#    0.000    0.000    0.000    0.000    0.000    0.000 
#
# Total GULP energy -198454.829883 kJ/mol
# GULP energy per Si atom -12403.426868 kJ/mol
# Density = 1.994879 g / cm^3
# Si number density = 19.994298 Si / 1000 Ang^3
#
#
#
# Elastic Constant Matrix: (Units=GPa)
#
#
# Indices 1 2 3 4 5 6 
#
# 1 93.6214 34.8853 22.8077 0.0000 0.0000 1.6990
# 2 34.8853 93.6214 22.8077 0.0000 0.0000 -1.6990
# 3 22.8077 22.8077 88.3352 0.0000 0.0000 0.0000
# 4 0.0000 0.0000 0.0000 31.1812 0.0000 0.0000
# 5 0.0000 0.0000 0.0000 0.0000 31.1812 0.0000
# 6 1.6990 -1.6990 0.0000 0.0000 0.0000 21.8823
#
#
#
# Elastic Compliance Matrix: (Units=1/GPa)
#
#
# Indices 1 2 3 4 5 6 
#
# 1 0.012834 -0.004268 -0.002212 0.000000 0.000000 -0.001328
# 2 -0.004268 0.012834 -0.002212 0.000000 0.000000 0.001328
# 3 -0.002212 -0.002212 0.012463 0.000000 0.000000 0.000000
# 4 0.000000 0.000000 0.000000 0.032071 0.000000 0.000000
# 5 0.000000 0.000000 0.000000 0.000000 0.032071 0.000000
# 6 -0.001328 0.001328 0.000000 0.000000 0.000000 0.045905
#
#
# Mechanical properties :
#
#
# Convention : Reuss Voigt Hill
#
# Bulk Modulus (GPa) = 48.19568 48.50884 48.35226
# Shear Modulus (GPa) = 28.98929 29.85407 29.42168
#
# Velocity S-wave (km/s) = 3.81186 3.86830 3.84018
# Velocity P-wave (km/s) = 6.59778 6.65324 6.62557
#
# Compressibility (1/GPa) = 0.02074875
#
# Stress axis : x y z
#
# Youngs Moduli (GPa) = 77.91508 77.91508 80.23930
#
# Poissons Ratio (x) = 0.33251 0.17748
# Poissons Ratio (y) = 0.33251 0.17748
# Poissons Ratio (z) = 0.17234 0.17234
#
# Static dielectric constant tensor:
#      x y z
#    x 3.654510 0.000000 0.000000 
#    y 0.000000 3.654510 0.000000 
#    z 0.000000 0.000000 3.517650 
# 
# 
# High freq. dielectric constant tensor:
#      x y z
#    x 1.767640 0.000000 0.000000 
#    y 0.000000 1.767640 0.000000 
#    z 0.000000 0.000000 1.776210 
# 
# From -- ./inp_files/1659.got.cif
#   From: 2010.03.12/outbox.cif.g09.slc.cpg/sg80_cif.got.tgz:1659.got - 2010.04.08 20:00:04.
