data_PCOD8302843
_publ_section_title
;
Structure prediction by ZEFSAII (Michael W. Deem and Ramdas Pophale) SiO2 
 PCOD8302843
Probable space group: P 4/M
;
_chemical_formula_sum "Si O2"
_cell_formula_units_Z 36
_cell_length_a 14.854779
_cell_length_b 14.854779
_cell_length_c 8.008240
_cell_angle_alpha 90.000000
_cell_angle_beta 90.000000
_cell_angle_gamma 90.000000
_cell_volume 1767.133948
_symmetry_space_group_name_H-M "P 4/M"
_symmetry_group_IT_number 83
_symmetry_cell_setting 'tetragonal'
loop_
_space_group_symop_operation_xyz
x,y,z
-y,x,z
-x,-y,z
y,-x,z
-x,-y,-z
y,-x,-z
x,y,-z
-y,x,-z
loop_
_atom_site_type_symbol
_atom_site_label
_atom_site_fract_x
_atom_site_fract_y
_atom_site_fract_z
Si Si1 0.912303 0.439621 0.317189
Si Si2 0.401164 0.817720 0.185679
Si Si3 0.720201 0.031061 0.307343
Si Si4 0.853538 0.024875 0.000000
Si Si5 0.627093 0.565992 0.696898
O O1 0.868082 0.429173 0.500000
O O2 0.840034 0.491621 0.203054
O O3 0.000000 0.500000 0.328126
O O4 0.944650 0.341349 0.253328
O O5 0.339341 0.877601 0.306892
O O6 0.386475 0.712449 0.219098
O O7 0.369444 0.840973 0.000000
O O8 0.755199 0.020042 0.500000
O O9 0.799127 0.036777 0.172566
O O10 0.926922 0.103069 0.000000
O O11 0.538060 0.619303 0.754350
O O12 0.638594 0.570172 0.500000
#
# Coordination Sequence:
#
# PCOD8302843 Si02
#       5
#     8   8   8   4   8
#     4   8  16  31  55  85 117 156 194 236 299 360
#     4  11  20  32  57  91 125 161 202 255 307 352
#     4  10  21  41  66  92 124 157 198 251 306 368
#     4  11  26  48  69  92 124 155 196 253 313 389
#     4   9  19  37  56  75 112 167 215 249 289 349
#
# _framework density 20.371970999999998
#
# number of rings (size 3 to 8) (size 9 to 14) (size 15 to 20)
#    0.000    2.333    1.111    4.000    1.556    3.111 
#    4.000    2.222    0.000    0.000    0.000    0.000 
#    0.000    0.000    0.000    0.000    0.000    0.000 
#
# Total GULP energy -446117.092359 kJ/mol
# GULP energy per Si atom -12392.141454 kJ/mol
# Density = 2.032560 g / cm^3
# Si number density = 20.371971 Si / 1000 Ang^3
#
#
#
# Elastic Constant Matrix: (Units=GPa)
#
#
# Indices 1 2 3 4 5 6 
#
# 1 84.0812 22.8042 33.0452 0.0000 0.0000 2.1411
# 2 22.8042 84.0812 33.0452 0.0000 0.0000 -2.1411
# 3 33.0452 33.0452 102.1549 0.0000 0.0000 0.0000
# 4 0.0000 0.0000 0.0000 26.8455 0.0000 0.0000
# 5 0.0000 0.0000 0.0000 0.0000 26.8455 0.0000
# 6 2.1411 -2.1411 0.0000 0.0000 0.0000 16.6095
#
#
#
# Elastic Compliance Matrix: (Units=1/GPa)
#
#
# Indices 1 2 3 4 5 6 
#
# 1 0.014081 -0.002386 -0.003783 0.000000 0.000000 -0.002123
# 2 -0.002386 0.014081 -0.003783 0.000000 0.000000 0.002123
# 3 -0.003783 -0.003783 0.012237 0.000000 0.000000 0.000000
# 4 0.000000 0.000000 0.000000 0.037250 0.000000 0.000000
# 5 0.000000 0.000000 0.000000 0.000000 0.037250 0.000000
# 6 -0.002123 0.002123 0.000000 0.000000 0.000000 0.060754
#
#
# Mechanical properties :
#
#
# Convention : Reuss Voigt Hill
#
# Bulk Modulus (GPa) = 48.79438 49.78961 49.29200
# Shear Modulus (GPa) = 24.70480 26.15497 25.42988
#
# Velocity S-wave (km/s) = 3.48614 3.58700 3.53693
# Velocity P-wave (km/s) = 6.34098 6.45358 6.39753
#
# Compressibility (1/GPa) = 0.02049416
#
# Stress axis : x y z
#
# Youngs Moduli (GPa) = 71.01592 71.01592 81.72212
#
# Poissons Ratio (x) = 0.16947 0.30916
# Poissons Ratio (y) = 0.16947 0.30916
# Poissons Ratio (z) = 0.26866 0.26866
#
# Static dielectric constant tensor:
#      x y z
#    x 3.650380 0.000000 0.000000 
#    y 0.000000 3.650380 0.000000 
#    z 0.000000 0.000000 3.588510 
# 
# 
# High freq. dielectric constant tensor:
#      x y z
#    x 1.778280 0.000000 0.000000 
#    y 0.000000 1.778280 0.000000 
#    z 0.000000 0.000000 1.793590 
# 
# From -- ./inp_files/518.got.cif
#   From: 2010.03.12/outbox.cif.g09.slc.cpg/sg83_1_cif.got.tgz:518.got - 2010.04.08 20:05:18.
