data_PCOD8302817
_publ_section_title
;
Structure prediction by ZEFSAII (Michael W. Deem and Ramdas Pophale) SiO2 
 PCOD8302817
Probable space group: P 4/M
;
_chemical_formula_sum "Si O2"
_cell_formula_units_Z 40
_cell_length_a 15.975201
_cell_length_b 15.975201
_cell_length_c 9.550919
_cell_angle_alpha 90.000000
_cell_angle_beta 90.000000
_cell_angle_gamma 90.000000
_cell_volume 2437.461834
_symmetry_space_group_name_H-M "P 4/M"
_symmetry_group_IT_number 83
_symmetry_cell_setting 'tetragonal'
loop_
_space_group_symop_operation_xyz
x,y,z
-y,x,z
-x,-y,z
y,-x,z
-x,-y,-z
y,-x,-z
x,y,-z
-y,x,-z
loop_
_atom_site_type_symbol
_atom_site_label
_atom_site_fract_x
_atom_site_fract_y
_atom_site_fract_z
Si Si1 0.662998 0.920698 0.336525
Si Si2 0.069732 0.881043 0.000000
Si Si3 0.510425 0.901347 0.846201
Si Si4 0.327736 0.910891 0.837330
Si Si5 0.926073 0.884414 0.500000
Si Si6 0.168744 0.823198 0.251968
O O1 0.648056 0.940553 0.500000
O O2 0.579586 0.878798 0.269990
O O3 0.733740 0.848545 0.322855
O O4 0.687518 0.006801 0.257966
O O5 0.096845 0.831231 0.863699
O O6 0.970589 0.885770 0.000000
O O7 0.417938 0.868008 0.803885
O O8 0.500000 0.000000 0.855389
O O9 0.537614 0.866630 0.000000
O O10 0.261083 0.836127 0.811734
O O11 0.323270 0.939724 0.000000
O O12 0.898002 0.836730 0.362545
O O13 0.024993 0.884447 0.500000
#
# Coordination Sequence:
#
# PCOD8302817 Si02
#       6
#     8   4   8   8   4   8
#     4  11  22  34  50  73  99 129 165 205 255 302
#     4  11  22  34  48  66  90 130 180 213 240 276
#     4   8  17  34  54  72  92 121 159 207 256 303
#     4  10  21  36  53  72  95 127 168 210 255 297
#     4  11  22  36  46  60  96 138 172 207 246 278
#     4  12  23  33  49  71  96 130 169 214 247 291
#
# _framework density 16.410512000000001
#
# number of rings (size 3 to 8) (size 9 to 14) (size 15 to 20)
#    0.000    1.600    2.000    5.400    4.200    5.200 
#    0.000    0.000    0.000    0.000    0.000    0.000 
#    0.000    0.800    0.000    6.200    0.000    1.600 
#
# Total GULP energy -495846.509808 kJ/mol
# GULP energy per Si atom -12396.162745 kJ/mol
# Density = 1.637316 g / cm^3
# Si number density = 16.410512 Si / 1000 Ang^3
#
#
#
# Elastic Constant Matrix: (Units=GPa)
#
#
# Indices 1 2 3 4 5 6 
#
# 1 284.1825 -186.3410 29.7176 0.0000 0.0000 -24.4358
# 2 -186.3410 284.1825 29.7176 0.0000 0.0000 24.4358
# 3 29.7176 29.7176 112.7305 0.0000 0.0000 0.0000
# 4 0.0000 0.0000 0.0000 22.7657 0.0000 0.0000
# 5 0.0000 0.0000 0.0000 0.0000 22.7657 0.0000
# 6 -24.4358 24.4358 0.0000 0.0000 0.0000 14.6795
#
#
#
# Elastic Compliance Matrix: (Units=1/GPa)
#
#
# Indices 1 2 3 4 5 6 
#
# 1 0.007369 0.004800 -0.003208 0.000000 0.000000 0.004277
# 2 0.004800 0.007369 -0.003208 0.000000 0.000000 -0.004277
# 3 -0.003208 -0.003208 0.010562 0.000000 0.000000 0.000000
# 4 0.000000 0.000000 0.000000 0.043926 0.000000 0.000000
# 5 0.000000 0.000000 0.000000 0.000000 0.043926 0.000000
# 6 0.004277 -0.004277 0.000000 0.000000 0.000000 0.082363
#
#
# Mechanical properties :
#
#
# Convention : Reuss Voigt Hill
#
# Bulk Modulus (GPa) = 45.31308 47.47598 46.39453
# Shear Modulus (GPa) = 24.25962 65.90894 45.08428
#
# Velocity S-wave (km/s) = 3.84903 6.34428 5.24714
# Velocity P-wave (km/s) = 6.88662 9.09172 8.06489
#
# Compressibility (1/GPa) = 0.02206868
#
# Stress axis : x y z
#
# Youngs Moduli (GPa) = 135.69484 135.69484 94.67814
#
# Poissons Ratio (x) = -0.65132 0.30373
# Poissons Ratio (y) = -0.65132 0.30373
# Poissons Ratio (z) = 0.43532 0.43532
#
# Static dielectric constant tensor:
#      x y z
#    x 3.124800 0.000000 0.000000 
#    y 0.000000 3.124800 0.000000 
#    z 0.000000 0.000000 3.288370 
# 
# 
# High freq. dielectric constant tensor:
#      x y z
#    x 1.601270 0.000000 0.000000 
#    y 0.000000 1.601270 0.000000 
#    z 0.000000 0.000000 1.651430 
# 
# From -- ./inp_files/850.got.cif
#   From: 2010.03.12/outbox.cif.g09.slc.cpg/sg83_1_cif.got.tgz:850.got - 2010.04.08 20:05:18.
