data_PCOD8302006
_publ_section_title
;
Structure prediction by ZEFSAII (Michael W. Deem and Ramdas Pophale) SiO2 
 PCOD8302006
Probable space group: P 43
;
_chemical_formula_sum "Si O2"
_cell_formula_units_Z 32
_cell_length_a 14.507839
_cell_length_b 14.507839
_cell_length_c 8.772478
_cell_angle_alpha 90.000000
_cell_angle_beta 90.000000
_cell_angle_gamma 90.000000
_cell_volume 1846.408295
_symmetry_space_group_name_H-M "P 43"
_symmetry_group_IT_number 78
_symmetry_cell_setting 'tetragonal'
loop_
_space_group_symop_operation_xyz
x,y,z
-y,x,3/4+z
-x,-y,1/2+z
y,-x,1/4+z
loop_
_atom_site_type_symbol
_atom_site_label
_atom_site_fract_x
_atom_site_fract_y
_atom_site_fract_z
Si Si1 0.062995 0.918681 0.631870
Si Si2 0.902187 0.285104 0.195383
Si Si3 0.029717 0.428585 0.032070
Si Si4 0.033322 0.259008 0.453732
Si Si5 0.543070 0.248154 0.287704
Si Si6 0.407177 0.933802 0.930561
Si Si7 0.343125 0.299979 0.383063
Si Si8 0.174574 0.373475 0.261105
O O1 0.075978 0.809746 0.607475
O O2 0.149787 0.956489 0.729050
O O3 0.968094 0.940663 0.718661
O O4 0.795727 0.311134 0.205411
O O5 0.951799 0.363515 0.099381
O O6 0.936073 0.280545 0.371036
O O7 0.130621 0.407757 0.103839
O O8 0.998388 0.531122 0.071939
O O9 0.035055 0.417014 0.852762
O O10 0.044804 0.304331 0.620120
O O11 0.111632 0.295637 0.339066
O O12 0.568156 0.175092 0.420828
O O13 0.447513 0.298873 0.324028
O O14 0.622375 0.326911 0.265757
O O15 0.540438 0.187205 0.130350
O O16 0.275836 0.326266 0.239332
#
# Coordination Sequence:
#
# PCOD8302006 Si02
#       8
#     4   4   4   4   4   4   4   4
#     4  10  20  34  53  73 111 153 189 220 261 328
#     4  10  18  33  57  80 106 148 185 225 283 333
#     4  11  21  32  58  85 118 136 179 236 288 332
#     4   9  18  34  53  81 108 142 180 232 276 331
#     4   9  19  34  62  78 110 147 188 223 283 337
#     4  11  20  34  57  88 113 140 179 236 289 335
#     4  10  18  35  63  79 106 147 190 227 279 337
#     4   8  18  34  55  82 108 137 184 225 279 329
#
# _framework density 17.330945
#
# number of rings (size 3 to 8) (size 9 to 14) (size 15 to 20)
#    0.750    1.500    2.500    2.250    0.000    1.000 
#    0.000    0.000   13.750    0.000    0.000    0.000 
#    0.000    0.000    0.000    0.000    0.000    0.000 
#
# Total GULP energy -396509.657156 kJ/mol
# GULP energy per Si atom -12390.926786 kJ/mol
# Density = 1.729150 g / cm^3
# Si number density = 17.330945 Si / 1000 Ang^3
#
#
#
# Elastic Constant Matrix: (Units=GPa)
#
#
# Indices 1 2 3 4 5 6 
#
# 1 68.0705 10.8180 -9.8656 0.0000 0.0000 -7.5171
# 2 10.8180 68.0705 -9.8656 0.0000 0.0000 7.5171
# 3 -9.8656 -9.8656 32.9592 0.0000 0.0000 0.0000
# 4 0.0000 0.0000 0.0000 21.4652 0.0000 0.0000
# 5 0.0000 0.0000 0.0000 0.0000 21.4652 0.0000
# 6 -7.5171 7.5171 0.0000 0.0000 0.0000 28.3169
#
#
#
# Elastic Compliance Matrix: (Units=1/GPa)
#
#
# Indices 1 2 3 4 5 6 
#
# 1 0.016239 -0.002537 0.004101 0.000000 0.000000 0.004984
# 2 -0.002537 0.016239 0.004101 0.000000 0.000000 -0.004984
# 3 0.004101 0.004101 0.032796 0.000000 0.000000 0.000000
# 4 0.000000 0.000000 0.000000 0.046587 0.000000 0.000000
# 5 0.000000 0.000000 0.000000 0.000000 0.046587 0.000000
# 6 0.004984 -0.004984 0.000000 0.000000 0.000000 0.037961
#
#
# Mechanical properties :
#
#
# Convention : Reuss Voigt Hill
#
# Bulk Modulus (GPa) = 13.05393 16.80819 14.93106
# Shear Modulus (GPa) = 23.74046 26.11703 24.92875
#
# Velocity S-wave (km/s) = 3.70514 3.88617 3.79673
# Velocity P-wave (km/s) = 5.08454 5.46405 5.27771
#
# Compressibility (1/GPa) = 0.07660526
#
# Stress axis : x y z
#
# Youngs Moduli (GPa) = 61.58155 61.58155 30.49165
#
# Poissons Ratio (x) = 0.15621 -0.12506
# Poissons Ratio (y) = 0.15621 -0.12506
# Poissons Ratio (z) = -0.25257 -0.25257
#
# Static dielectric constant tensor:
#      x y z
#    x 3.301870 0.000000 0.000000 
#    y 0.000000 3.301870 0.000000 
#    z 0.000000 0.000000 2.904080 
# 
# 
# High freq. dielectric constant tensor:
#      x y z
#    x 1.672090 0.000000 0.000000 
#    y 0.000000 1.672090 0.000000 
#    z 0.000000 0.000000 1.632870 
# 
# From -- ./inp_files/709.got.cif
#   From: 2010.03.12/outbox.cif.g09.slc.cpg/sg78_cif.got.tgz:709.got - 2010.04.16 16:37:20.
