data_PCOD8302659
_publ_section_title
;
Structure prediction by ZEFSAII (Michael W. Deem and Ramdas Pophale) SiO2 
 PCOD8302659
Probable space group: P 4/M
;
_chemical_formula_sum "Si O2"
_cell_formula_units_Z 48
_cell_length_a 16.787963
_cell_length_b 16.787963
_cell_length_c 9.460360
_cell_angle_alpha 90.000000
_cell_angle_beta 90.000000
_cell_angle_gamma 90.000000
_cell_volume 2666.267199
_symmetry_space_group_name_H-M "P 4/M"
_symmetry_group_IT_number 83
_symmetry_cell_setting 'tetragonal'
loop_
_space_group_symop_operation_xyz
x,y,z
-y,x,z
-x,-y,z
y,-x,z
-x,-y,-z
y,-x,-z
x,y,-z
-y,x,-z
loop_
_atom_site_type_symbol
_atom_site_label
_atom_site_fract_x
_atom_site_fract_y
_atom_site_fract_z
Si Si1 0.395738 0.568067 0.332401
Si Si2 0.369790 0.993236 0.158278
Si Si3 0.503080 0.127117 0.842442
Si Si4 0.067545 0.888928 0.837265
Si Si5 0.392401 0.225428 0.665553
Si Si6 0.738162 0.901988 0.667310
O O1 0.390821 0.476458 0.275104
O O2 0.398280 0.564899 0.500000
O O3 0.317344 0.617484 0.284474
O O4 0.438142 0.058291 0.158360
O O5 0.301209 0.017624 0.268717
O O6 0.410957 0.909416 0.203597
O O7 0.332983 0.986269 0.000000
O O8 0.474454 0.194519 0.734872
O O9 0.509942 0.163242 0.000000
O O10 0.109640 0.824772 0.735858
O O11 0.973615 0.892478 0.804364
O O12 0.081722 0.865032 0.000000
O O13 0.406265 0.217671 0.500000
O O14 0.314524 0.175196 0.710399
O O15 0.745838 0.911896 0.500000
#
# Coordination Sequence:
#
# PCOD8302659 Si02
#       6
#     8   8   8   8   8   8
#     4   8  14  27  48  69  88 119 164 202 229 267
#     4   8  14  26  43  62  88 125 165 197 224 267
#     4   8  14  25  42  63  88 123 163 196 229 273
#     4   9  19  37  58  74  89 118 161 200 232 275
#     4   9  17  28  44  70 101 126 152 194 244 289
#     4  10  19  29  45  72 103 129 151 187 244 295
#
# _framework density 18.002697000000001
#
# number of rings (size 3 to 8) (size 9 to 14) (size 15 to 20)
#    0.000    3.333    0.000    2.500    0.000    2.000 
#    0.000    5.833    0.000    3.000    0.000    1.167 
#    0.000    0.000    0.000    0.000    0.000    0.000 
#
# Total GULP energy -594752.929649 kJ/mol
# GULP energy per Si atom -12390.686034 kJ/mol
# Density = 1.796172 g / cm^3
# Si number density = 18.002697 Si / 1000 Ang^3
#
#
#
# Elastic Constant Matrix: (Units=GPa)
#
#
# Indices 1 2 3 4 5 6 
#
# 1 82.8839 36.2413 33.6629 0.0000 0.0000 -0.0729
# 2 36.2413 82.8839 33.6629 0.0000 0.0000 0.0729
# 3 33.6629 33.6629 57.4297 0.0000 0.0000 0.0000
# 4 0.0000 0.0000 0.0000 21.6647 0.0000 0.0000
# 5 0.0000 0.0000 0.0000 0.0000 21.6647 0.0000
# 6 -0.0729 0.0729 0.0000 0.0000 0.0000 16.4295
#
#
#
# Elastic Compliance Matrix: (Units=1/GPa)
#
#
# Indices 1 2 3 4 5 6 
#
# 1 0.016997 -0.004443 -0.007358 0.000000 0.000000 0.000095
# 2 -0.004443 0.016997 -0.007358 0.000000 0.000000 -0.000095
# 3 -0.007358 -0.007358 0.026039 0.000000 0.000000 0.000000
# 4 0.000000 0.000000 0.000000 0.046158 0.000000 0.000000
# 5 0.000000 0.000000 0.000000 0.000000 0.046158 0.000000
# 6 0.000095 -0.000095 0.000000 0.000000 0.000000 0.060867
#
#
# Mechanical properties :
#
#
# Convention : Reuss Voigt Hill
#
# Bulk Modulus (GPa) = 46.05665 47.81465 46.93565
# Shear Modulus (GPa) = 19.32209 19.92716 19.62462
#
# Velocity S-wave (km/s) = 3.27966 3.33062 3.30524
# Velocity P-wave (km/s) = 6.32300 6.43491 6.37920
#
# Compressibility (1/GPa) = 0.02171239
#
# Stress axis : x y z
#
# Youngs Moduli (GPa) = 58.83562 58.83562 38.40453
#
# Poissons Ratio (x) = 0.26143 0.28258
# Poissons Ratio (y) = 0.26143 0.28258
# Poissons Ratio (z) = 0.43292 0.43292
#
# Static dielectric constant tensor:
#      x y z
#    x 3.408360 0.000000 0.000000 
#    y 0.000000 3.408360 0.000000 
#    z 0.000000 0.000000 3.184080 
# 
# 
# High freq. dielectric constant tensor:
#      x y z
#    x 1.681960 0.000000 0.000000 
#    y 0.000000 1.681960 0.000000 
#    z 0.000000 0.000000 1.675560 
# 
# From -- ./inp_files/883.got.cif
#   From: 2010.03.12/outbox.cif.g09.slc.cpg/sg83_1_cif.got.tgz:883.got - 2010.04.08 20:05:18.
