data_PCOD8302991
_publ_section_title
;
Structure prediction by ZEFSAII (Michael W. Deem and Ramdas Pophale) SiO2 
 PCOD8302991
Probable space group: P 4/M
;
_chemical_formula_sum "Si O2"
_cell_formula_units_Z 44
_cell_length_a 8.447131
_cell_length_b 8.447131
_cell_length_c 28.177989
_cell_angle_alpha 90.000000
_cell_angle_beta 90.000000
_cell_angle_gamma 90.000000
_cell_volume 2010.612851
_symmetry_space_group_name_H-M "P 4/M"
_symmetry_group_IT_number 83
_symmetry_cell_setting 'tetragonal'
loop_
_space_group_symop_operation_xyz
x,y,z
-y,x,z
-x,-y,z
y,-x,z
-x,-y,-z
y,-x,-z
x,y,-z
-y,x,-z
loop_
_atom_site_type_symbol
_atom_site_label
_atom_site_fract_x
_atom_site_fract_y
_atom_site_fract_z
Si Si1 0.760125 0.104824 0.178629
Si Si2 0.398018 0.739121 0.736707
Si Si3 0.751770 0.076154 0.447130
Si Si4 0.887441 0.762278 0.000000
Si Si5 0.744390 0.585372 0.370255
Si Si6 0.738500 0.610479 0.909923
O O1 0.669401 0.128019 0.228374
O O2 0.644716 0.161632 0.137153
O O3 0.920009 0.205550 0.174539
O O4 0.296924 0.581261 0.746185
O O5 0.381799 0.804974 0.683160
O O6 0.680117 0.099515 0.500000
O O7 0.621722 0.117109 0.407636
O O8 0.897836 0.194100 0.439905
O O9 0.845044 0.659349 0.045719
O O10 0.074111 0.792084 0.000000
O O11 0.594758 0.697626 0.378840
O O12 0.575814 0.707324 0.911278
#
# Coordination Sequence:
#
# PCOD8302991 Si02
#       6
#     8   8   8   4   8   8
#     4  11  24  39  56  83 116 147 183 227 274 324
#     4   9  19  37  58  79 106 141 180 221 268 324
#     4   9  19  35  52  72 102 139 177 218 265 318
#     4  11  24  41  62  90 122 153 188 231 276 324
#     4   9  19  35  54  78 107 137 173 220 270 320
#     4  11  24  41  62  88 116 149 191 233 274 325
#
# _framework density 21.883873000000001
#
# number of rings (size 3 to 8) (size 9 to 14) (size 15 to 20)
#    0.000    2.091    0.000    4.364    0.000   12.364 
#    0.000    8.182    0.000    0.000    0.000    0.000 
#    0.000    0.000    0.000    0.000    0.000    0.000 
#
# Total GULP energy -545718.417402 kJ/mol
# GULP energy per Si atom -12402.691305 kJ/mol
# Density = 2.183406 g / cm^3
# Si number density = 21.883873 Si / 1000 Ang^3
#
#
#
# Elastic Constant Matrix: (Units=GPa)
#
#
# Indices 1 2 3 4 5 6 
#
# 1 -58.0890 70.9266 12.6102 0.0000 0.0000 28.7612
# 2 70.9266 -58.0890 12.6102 0.0000 0.0000 -28.7612
# 3 12.6102 12.6102 125.6054 0.0000 0.0000 0.0000
# 4 0.0000 0.0000 0.0000 -15.1524 0.0000 0.0000
# 5 0.0000 0.0000 0.0000 0.0000 -15.1524 0.0000
# 6 28.7612 -28.7612 0.0000 0.0000 0.0000 29.3220
#
#
#
# Elastic Compliance Matrix: (Units=1/GPa)
#
#
# Indices 1 2 3 4 5 6 
#
# 1 0.045821 0.051214 -0.009742 0.000000 0.000000 0.005290
# 2 0.051214 0.045821 -0.009742 0.000000 0.000000 -0.005290
# 3 -0.009742 -0.009742 0.009918 0.000000 0.000000 0.000000
# 4 0.000000 0.000000 0.000000 -0.065996 0.000000 0.000000
# 5 0.000000 0.000000 0.000000 0.000000 -0.065996 0.000000
# 6 0.005290 -0.005290 0.000000 0.000000 0.000000 0.023727
#
#
# Mechanical properties :
#
#
# Convention : Reuss Voigt Hill
#
# Bulk Modulus (GPa) = 6.05986 22.41348 14.23667
# Shear Modulus (GPa) = -329.85478 -5.97788 -167.91633
#
# Velocity S-wave (km/s) = -12.29052 -1.65456 -8.76910
# Velocity P-wave (km/s) = 14.09376 2.57180 9.79847
#
# Compressibility (1/GPa) = 0.16502031
#
# Stress axis : x y z
#
# Youngs Moduli (GPa) = 21.82393 21.82393 100.83167
#
# Poissons Ratio (x) = -1.11769 0.98229
# Poissons Ratio (y) = -1.11769 0.98229
# Poissons Ratio (z) = 0.21261 0.21261
#
# Static dielectric constant tensor:
#      x y z
#    x 3.825730 0.000000 0.000000 
#    y 0.000000 3.825730 0.000000 
#    z 0.000000 0.000000 3.963780 
# 
# 
# High freq. dielectric constant tensor:
#      x y z
#    x 1.859830 0.000000 0.000000 
#    y 0.000000 1.859830 0.000000 
#    z 0.000000 0.000000 1.869830 
# 
# From -- ./inp_files/3364.got.cif
#   From: 2010.03.12/outbox.cif.g09.slc.cpg/sg83_2_cif.got.tgz:3364.got - 2010.04.08 20:05:18.
