data_PCOD8302237
_publ_section_title
;
Structure prediction by ZEFSAII (Michael W. Deem and Ramdas Pophale) SiO2 
 PCOD8302237
Probable space group: I 41
;
_chemical_formula_sum "Si O2"
_cell_formula_units_Z 24
_cell_length_a 13.408080
_cell_length_b 13.408080
_cell_length_c 4.979791
_cell_angle_alpha 90.000000
_cell_angle_beta 90.000000
_cell_angle_gamma 90.000000
_cell_volume 895.249941
_symmetry_space_group_name_H-M "I 41"
_symmetry_group_IT_number 80
_symmetry_cell_setting 'tetragonal'
loop_
_space_group_symop_operation_xyz
x,y,z
-y,1/2+x,1/4+z
-x,-y,z
y,1/2-x,1/4+z
1/2+x,1/2+y,1/2+z
1/2-y,x,3/4+z
1/2-x,1/2-y,1/2+z
1/2+y,-x,3/4+z
loop_
_atom_site_type_symbol
_atom_site_label
_atom_site_fract_x
_atom_site_fract_y
_atom_site_fract_z
Si Si1 0.065556 0.615811 0.875000
Si Si2 0.463118 0.670887 0.604827
Si Si3 0.650502 0.857693 0.195575
O O1 0.136403 0.600245 0.615915
O O2 0.950900 0.591768 0.800081
O O3 0.081158 0.726223 0.992484
O O4 0.092051 0.540890 0.115036
O O5 0.580518 0.682619 0.680194
O O6 0.741172 0.870123 0.402178
#
# Coordination Sequence:
#
# PCOD8302237 Si02
#       3
#     8   8   8
#     4  12  28  51  78 112 153 200 252 309 374 446
#     4  12  28  51  78 112 153 200 252 309 374 446
#     4  12  27  48  80 114 153 196 250 314 380 448
#
# _framework density 26.808157000000001
#
# number of rings (size 3 to 8) (size 9 to 14) (size 15 to 20)
#    0.000    0.000    0.000    9.000    0.000   18.667 
#    0.000    3.333    0.000    0.000    0.000    0.000 
#    0.000    0.000    0.000    0.000    0.000    0.000 
#
# Total GULP energy -148863.912241 kJ/mol
# GULP energy per Si atom -12405.326020 kJ/mol
# Density = 2.674714 g / cm^3
# Si number density = 26.808157 Si / 1000 Ang^3
#
#
#
# Elastic Constant Matrix: (Units=GPa)
#
#
# Indices 1 2 3 4 5 6 
#
# 1 72.9241 30.4922 25.8356 0.0000 0.0000 -9.2498
# 2 30.4922 72.9241 25.8356 0.0000 0.0000 9.2498
# 3 25.8356 25.8356 159.2474 0.0000 0.0000 0.0000
# 4 0.0000 0.0000 0.0000 41.4607 0.0000 0.0000
# 5 0.0000 0.0000 0.0000 0.0000 41.4607 0.0000
# 6 -9.2498 9.2498 0.0000 0.0000 0.0000 48.3375
#
#
#
# Elastic Compliance Matrix: (Units=1/GPa)
#
#
# Indices 1 2 3 4 5 6 
#
# 1 0.018117 -0.007595 -0.001707 0.000000 0.000000 0.004920
# 2 -0.007595 0.018117 -0.001707 0.000000 0.000000 -0.004920
# 3 -0.001707 -0.001707 0.006833 0.000000 0.000000 0.000000
# 4 0.000000 0.000000 0.000000 0.024119 0.000000 0.000000
# 5 0.000000 0.000000 0.000000 0.000000 0.024119 0.000000
# 6 0.004920 -0.004920 0.000000 0.000000 0.000000 0.022571
#
#
# Mechanical properties :
#
#
# Convention : Reuss Voigt Hill
#
# Bulk Modulus (GPa) = 47.50565 52.15803 49.83184
# Shear Modulus (GPa) = 34.98639 41.11394 38.05016
#
# Velocity S-wave (km/s) = 3.61649 3.92041 3.77151
# Velocity P-wave (km/s) = 5.93277 6.32385 6.13143
#
# Compressibility (1/GPa) = 0.02105013
#
# Stress axis : x y z
#
# Youngs Moduli (GPa) = 55.19536 55.19536 146.33877
#
# Poissons Ratio (x) = 0.41920 0.24982
# Poissons Ratio (y) = 0.41920 0.24982
# Poissons Ratio (z) = 0.09423 0.09423
#
# Static dielectric constant tensor:
#      x y z
#    x 5.025110 0.000000 0.000000 
#    y 0.000000 5.025110 0.000000 
#    z 0.000000 0.000000 4.967850 
# 
# 
# High freq. dielectric constant tensor:
#      x y z
#    x 2.092680 0.000000 0.000000 
#    y 0.000000 2.092680 0.000000 
#    z 0.000000 0.000000 2.092760 
# 
# From -- ./inp_files/74.got.cif
#   From: 2010.03.12/outbox.cif.g09.slc.cpg/sg80_cif.got.tgz:74.got - 2010.04.08 20:00:04.
