data_PCOD8302170
_publ_section_title
;
Structure prediction by ZEFSAII (Michael W. Deem and Ramdas Pophale) SiO2 
 PCOD8302170
Probable space group: I 41
;
_chemical_formula_sum "Si O2"
_cell_formula_units_Z 52
_cell_length_a 16.999949
_cell_length_b 16.999949
_cell_length_c 8.606114
_cell_angle_alpha 90.000000
_cell_angle_beta 90.000000
_cell_angle_gamma 90.000000
_cell_volume 2487.152023
_symmetry_space_group_name_H-M "I 41"
_symmetry_group_IT_number 80
_symmetry_cell_setting 'tetragonal'
loop_
_space_group_symop_operation_xyz
x,y,z
-y,1/2+x,1/4+z
-x,-y,z
y,1/2-x,1/4+z
1/2+x,1/2+y,1/2+z
1/2-y,x,3/4+z
1/2-x,1/2-y,1/2+z
1/2+y,-x,3/4+z
loop_
_atom_site_type_symbol
_atom_site_label
_atom_site_fract_x
_atom_site_fract_y
_atom_site_fract_z
Si Si1 0.382427 0.163561 0.464470
Si Si2 0.184555 0.822961 0.350764
Si Si3 0.508819 0.337671 0.756187
Si Si4 0.663369 0.483339 0.999212
Si Si5 0.371373 0.331274 0.536229
Si Si6 0.000000 0.000000 0.379709
Si Si7 0.749014 0.915707 0.255352
O O1 0.474713 0.175250 0.415631
O O2 0.340477 0.247279 0.479016
O O3 0.386230 0.121103 0.633375
O O4 0.329171 0.119473 0.335970
O O5 0.185254 0.749590 0.467154
O O6 0.103711 0.832252 0.250705
O O7 0.202443 0.898527 0.463155
O O8 0.459527 0.314983 0.602815
O O9 0.477380 0.426656 0.773123
O O10 0.484987 0.280787 0.895664
O O11 0.570314 0.470985 0.987896
O O12 0.693679 0.547793 0.880023
O O13 0.304597 0.356487 0.659343
#
# Coordination Sequence:
#
# PCOD8302170 Si02
#       7
#     8   8   8   8   8   4   8
#     4  12  26  38  65 102 144 183 225 274 339 416
#     4  11  26  49  78 100 130 181 238 307 372 416
#     4  11  23  43  69  94 133 180 231 279 347 420
#     4  11  23  43  69  94 133 180 231 279 347 420
#     4  12  26  38  65 102 144 183 225 274 339 416
#     4  10  20  40  70  88 120 184 226 266 332 408
#     4  12  22  42  66  96 140 188 218 270 342 440
#
# _framework density 20.907444999999999
#
# number of rings (size 3 to 8) (size 9 to 14) (size 15 to 20)
#    0.000    0.615    7.692    0.000    2.154    1.231 
#    0.000    0.769    0.000    0.000    0.000    0.000 
#    0.000    0.000    0.000    0.000    0.000    0.000 
#
# Total GULP energy -322112.321974 kJ/mol
# GULP energy per Si atom -12388.935461 kJ/mol
# Density = 2.085986 g / cm^3
# Si number density = 20.907445 Si / 1000 Ang^3
#
#
#
# Elastic Constant Matrix: (Units=GPa)
#
#
# Indices 1 2 3 4 5 6 
#
# 1 103.0453 10.5463 32.9944 0.0000 0.0000 0.1176
# 2 10.5463 103.0453 32.9944 0.0000 0.0000 -0.1176
# 3 32.9944 32.9944 115.3622 0.0000 0.0000 0.0000
# 4 0.0000 0.0000 0.0000 29.1582 0.0000 0.0000
# 5 0.0000 0.0000 0.0000 0.0000 29.1582 0.0000
# 6 0.1176 -0.1176 0.0000 0.0000 0.0000 24.3229
#
#
#
# Elastic Compliance Matrix: (Units=1/GPa)
#
#
# Indices 1 2 3 4 5 6 
#
# 1 0.010684 -0.000127 -0.003020 0.000000 0.000000 -0.000052
# 2 -0.000127 0.010684 -0.003020 0.000000 0.000000 0.000052
# 3 -0.003020 -0.003020 0.010396 0.000000 0.000000 0.000000
# 4 0.000000 0.000000 0.000000 0.034296 0.000000 0.000000
# 5 0.000000 0.000000 0.000000 0.000000 0.034296 0.000000
# 6 -0.000052 0.000052 0.000000 0.000000 0.000000 0.041114
#
#
# Mechanical properties :
#
#
# Convention : Reuss Voigt Hill
#
# Bulk Modulus (GPa) = 51.45993 52.72479 52.09236
# Shear Modulus (GPa) = 31.19565 32.85572 32.02568
#
# Velocity S-wave (km/s) = 3.86694 3.96850 3.91805
# Velocity P-wave (km/s) = 6.67864 6.80232 6.74076
#
# Compressibility (1/GPa) = 0.01943259
#
# Stress axis : x y z
#
# Youngs Moduli (GPa) = 93.59495 93.59495 96.19471
#
# Poissons Ratio (x) = 0.01186 0.29047
# Poissons Ratio (y) = 0.01186 0.29047
# Poissons Ratio (z) = 0.28262 0.28262
#
# Static dielectric constant tensor:
#      x y z
#    x 3.943410 0.000000 0.000000 
#    y 0.000000 3.943410 0.000000 
#    z 0.000000 0.000000 3.840080 
# 
# 
# High freq. dielectric constant tensor:
#      x y z
#    x 1.823070 0.000000 0.000000 
#    y 0.000000 1.823070 0.000000 
#    z 0.000000 0.000000 1.809670 
# 
# From -- ./inp_files/710.got.cif
#   From: 2010.03.12/outbox.cif.g09.slc.cpg/sg80_cif.got.tgz:710.got - 2010.04.08 20:00:04.
