data_PCOD8302185
_publ_section_title
;
Structure prediction by ZEFSAII (Michael W. Deem and Ramdas Pophale) SiO2 
 PCOD8302185
Probable space group: I 41
;
_chemical_formula_sum "Si O2"
_cell_formula_units_Z 52
_cell_length_a 19.150675
_cell_length_b 19.150675
_cell_length_c 7.009767
_cell_angle_alpha 90.000000
_cell_angle_beta 90.000000
_cell_angle_gamma 90.000000
_cell_volume 2570.820502
_symmetry_space_group_name_H-M "I 41"
_symmetry_group_IT_number 80
_symmetry_cell_setting 'tetragonal'
loop_
_space_group_symop_operation_xyz
x,y,z
-y,1/2+x,1/4+z
-x,-y,z
y,1/2-x,1/4+z
1/2+x,1/2+y,1/2+z
1/2-y,x,3/4+z
1/2-x,1/2-y,1/2+z
1/2+y,-x,3/4+z
loop_
_atom_site_type_symbol
_atom_site_label
_atom_site_fract_x
_atom_site_fract_y
_atom_site_fract_z
Si Si1 0.041304 0.745144 0.674220
Si Si2 0.820880 0.309048 0.571552
Si Si3 0.037765 0.852691 0.350894
Si Si4 0.462236 0.147309 0.888983
Si Si5 0.500000 0.000000 0.994938
Si Si6 0.820879 0.809048 0.168332
Si Si7 0.745144 0.958695 0.815657
O O1 0.122525 0.725549 0.718439
O O2 0.035684 0.818399 0.561362
O O3 0.013540 0.684242 0.537471
O O4 0.999998 0.749999 0.869937
O O5 0.742281 0.317043 0.643325
O O6 0.847639 0.385115 0.508711
O O7 0.986462 0.815758 0.202401
O O8 0.014999 0.933018 0.378502
O O9 0.385116 0.152362 0.981172
O O10 0.464314 0.181602 0.678515
O O11 0.485001 0.066982 0.861374
O O12 0.817043 0.757720 0.346561
O O13 0.877473 0.774452 0.021444
#
# Coordination Sequence:
#
# PCOD8302185 Si02
#       7
#     8   8   8   8   4   8   8
#     4  10  22  43  63  89 125 164 211 262 312 374
#     4  10  22  39  60  94 122 160 206 252 311 370
#     4  10  22  42  63  88 128 165 206 262 316 368
#     4  10  22  42  63  88 128 165 206 262 316 368
#     4  12  20  44  66  92 128 174 212 260 326 384
#     4  10  22  39  60  94 122 160 206 252 311 370
#     4  10  22  43  63  89 125 164 211 262 312 374
#
# _framework density 20.227007
#
# number of rings (size 3 to 8) (size 9 to 14) (size 15 to 20)
#    0.000    1.846    3.077    0.000    4.308    0.000 
#   11.077    1.538    0.000    0.000    0.000    0.000 
#    0.000    0.000    0.000    0.000    0.000    0.000 
#
# Total GULP energy -322253.169333 kJ/mol
# GULP energy per Si atom -12394.352667 kJ/mol
# Density = 2.018097 g / cm^3
# Si number density = 20.227007 Si / 1000 Ang^3
#
#
#
# Elastic Constant Matrix: (Units=GPa)
#
#
# Indices 1 2 3 4 5 6 
#
# 1 142.2542 41.3694 30.4809 0.0000 0.0000 2.9357
# 2 41.3694 142.2542 30.4809 0.0000 0.0000 -2.9357
# 3 30.4809 30.4809 62.8783 0.0000 0.0000 0.0000
# 4 0.0000 0.0000 0.0000 20.9339 0.0000 0.0000
# 5 0.0000 0.0000 0.0000 0.0000 20.9339 0.0000
# 6 2.9357 -2.9357 0.0000 0.0000 0.0000 32.8162
#
#
#
# Elastic Compliance Matrix: (Units=1/GPa)
#
#
# Indices 1 2 3 4 5 6 
#
# 1 0.008227 -0.001737 -0.003146 0.000000 0.000000 -0.000891
# 2 -0.001737 0.008227 -0.003146 0.000000 0.000000 0.000891
# 3 -0.003146 -0.003146 0.018954 0.000000 0.000000 0.000000
# 4 0.000000 0.000000 0.000000 0.047769 0.000000 0.000000
# 5 0.000000 0.000000 0.000000 0.000000 0.047769 0.000000
# 6 -0.000891 0.000891 0.000000 0.000000 0.000000 0.030632
#
#
# Mechanical properties :
#
#
# Convention : Reuss Voigt Hill
#
# Bulk Modulus (GPa) = 51.68006 61.33878 56.50942
# Shear Modulus (GPa) = 27.16082 31.27385 29.21733
#
# Velocity S-wave (km/s) = 3.66840 3.93637 3.80474
# Velocity P-wave (km/s) = 6.59912 7.14500 6.87748
#
# Compressibility (1/GPa) = 0.01934982
#
# Stress axis : x y z
#
# Youngs Moduli (GPa) = 121.54614 121.54614 52.75891
#
# Poissons Ratio (x) = 0.21111 0.16600
# Poissons Ratio (y) = 0.21111 0.16600
# Poissons Ratio (z) = 0.38242 0.38242
#
# Static dielectric constant tensor:
#      x y z
#    x 4.089030 0.000000 0.000000 
#    y 0.000000 4.089030 0.000000 
#    z 0.000000 0.000000 3.108690 
# 
# 
# High freq. dielectric constant tensor:
#      x y z
#    x 1.815330 0.000000 0.000000 
#    y 0.000000 1.815330 0.000000 
#    z 0.000000 0.000000 1.732530 
# 
# From -- ./inp_files/704.got.cif
#   From: 2010.03.12/outbox.cif.g09.slc.cpg/sg80_cif.got.tgz:704.got - 2010.04.08 20:00:04.
