data_PCOD8302648
_publ_section_title
;
Structure prediction by ZEFSAII (Michael W. Deem and Ramdas Pophale) SiO2 
 PCOD8302648
Probable space group: P 4/M
;
_chemical_formula_sum "Si O2"
_cell_formula_units_Z 44
_cell_length_a 15.083737
_cell_length_b 15.083737
_cell_length_c 12.908963
_cell_angle_alpha 90.000000
_cell_angle_beta 90.000000
_cell_angle_gamma 90.000000
_cell_volume 2937.035926
_symmetry_space_group_name_H-M "P 4/M"
_symmetry_group_IT_number 83
_symmetry_cell_setting 'tetragonal'
loop_
_space_group_symop_operation_xyz
x,y,z
-y,x,z
-x,-y,z
y,-x,z
-x,-y,-z
y,-x,-z
x,y,-z
-y,x,-z
loop_
_atom_site_type_symbol
_atom_site_label
_atom_site_fract_x
_atom_site_fract_y
_atom_site_fract_z
Si Si1 0.550312 0.914765 0.377776
Si Si2 0.569377 0.371656 0.000000
Si Si3 0.402763 0.778758 0.379416
Si Si4 0.371068 0.429655 0.776698
Si Si5 0.749243 0.924881 0.623885
Si Si6 0.774456 0.121277 0.378051
O O1 0.555882 0.928787 0.500000
O O2 0.494945 0.826694 0.350539
O O3 0.649936 0.905893 0.333043
O O4 0.500000 0.000000 0.329329
O O5 0.617074 0.465086 0.000000
O O6 0.594145 0.325866 0.889648
O O7 0.398718 0.752670 0.500000
O O8 0.392501 0.689678 0.314272
O O9 0.322484 0.843291 0.349077
O O10 0.465111 0.381867 0.765321
O O11 0.747777 0.922024 0.500000
O O12 0.816004 0.851003 0.670282
O O13 0.782500 0.020883 0.664143
O O14 0.787358 0.120490 0.500000
#
# Coordination Sequence:
#
# PCOD8302648 Si02
#       6
#     8   4   8   8   8   8
#     4   9  15  26  40  51  73 111 147 168 190 241
#     4   7  12  28  48  58  71 102 144 181 204 235
#     4  10  19  27  38  60  88 114 140 169 204 254
#     4   9  18  30  43  60  82 110 143 175 207 241
#     4   9  16  26  39  53  72 106 145 183 214 242
#     4   9  17  27  38  54  78 106 143 182 215 249
#
# _framework density 14.981090999999999
#
# number of rings (size 3 to 8) (size 9 to 14) (size 15 to 20)
#    0.000    3.000    1.818    1.091    2.545    1.091 
#    0.000    2.727    0.000    0.000    0.000    0.636 
#    0.000    1.455    0.000    0.000    0.000    2.091 
#
# Total GULP energy -545162.239559 kJ/mol
# GULP energy per Si atom -12390.050899 kJ/mol
# Density = 1.494699 g / cm^3
# Si number density = 14.981091 Si / 1000 Ang^3
#
#
#
# Elastic Constant Matrix: (Units=GPa)
#
#
# Indices 1 2 3 4 5 6 
#
# 1 83.8266 40.7777 18.3659 0.0000 0.0000 7.9832
# 2 40.7777 83.8266 18.3659 0.0000 0.0000 -7.9832
# 3 18.3659 18.3659 41.2290 0.0000 0.0000 0.0000
# 4 0.0000 0.0000 0.0000 4.3055 0.0000 0.0000
# 5 0.0000 0.0000 0.0000 0.0000 4.3055 0.0000
# 6 7.9832 -7.9832 0.0000 0.0000 0.0000 22.0653
#
#
#
# Elastic Compliance Matrix: (Units=1/GPa)
#
#
# Indices 1 2 3 4 5 6 
#
# 1 0.018034 -0.008796 -0.004115 0.000000 0.000000 -0.009707
# 2 -0.008796 0.018034 -0.004115 0.000000 0.000000 0.009707
# 3 -0.004115 -0.004115 0.027921 0.000000 0.000000 0.000000
# 4 0.000000 0.000000 0.000000 0.232261 0.000000 0.000000
# 5 0.000000 0.000000 0.000000 0.000000 0.232261 0.000000
# 6 -0.009707 0.009707 0.000000 0.000000 0.000000 0.052344
#
#
# Mechanical properties :
#
#
# Convention : Reuss Voigt Hill
#
# Bulk Modulus (GPa) = 33.40376 40.43347 36.91861
# Shear Modulus (GPa) = 8.00145 14.89344 11.44745
#
# Velocity S-wave (km/s) = 2.31357 3.15643 2.76728
# Velocity P-wave (km/s) = 5.42978 6.35078 5.90825
#
# Compressibility (1/GPa) = 0.02993675
#
# Stress axis : x y z
#
# Youngs Moduli (GPa) = 55.45056 55.45056 35.81498
#
# Poissons Ratio (x) = 0.48772 0.14739
# Poissons Ratio (y) = 0.48772 0.14739
# Poissons Ratio (z) = 0.22820 0.22820
#
# Static dielectric constant tensor:
#      x y z
#    x 2.954350 0.000000 0.000000 
#    y 0.000000 2.954350 0.000000 
#    z 0.000000 0.000000 2.534090 
# 
# 
# High freq. dielectric constant tensor:
#      x y z
#    x 1.572980 0.000000 0.000000 
#    y 0.000000 1.572980 0.000000 
#    z 0.000000 0.000000 1.502980 
# 
# From -- ./inp_files/1738.got.cif
#   From: 2010.03.12/outbox.cif.g09.slc.cpg/sg83_1_cif.got.tgz:1738.got - 2010.04.08 20:05:18.
