data_PCOD8302230
_publ_section_title
;
Structure prediction by ZEFSAII (Michael W. Deem and Ramdas Pophale) SiO2 
 PCOD8302230
Probable space group: I 41
;
_chemical_formula_sum "Si O2"
_cell_formula_units_Z 60
_cell_length_a 11.956176
_cell_length_b 11.956176
_cell_length_c 20.249819
_cell_angle_alpha 90.000000
_cell_angle_beta 90.000000
_cell_angle_gamma 90.000000
_cell_volume 2894.714553
_symmetry_space_group_name_H-M "I 41"
_symmetry_group_IT_number 80
_symmetry_cell_setting 'tetragonal'
loop_
_space_group_symop_operation_xyz
x,y,z
-y,1/2+x,1/4+z
-x,-y,z
y,1/2-x,1/4+z
1/2+x,1/2+y,1/2+z
1/2-y,x,3/4+z
1/2-x,1/2-y,1/2+z
1/2+y,-x,3/4+z
loop_
_atom_site_type_symbol
_atom_site_label
_atom_site_fract_x
_atom_site_fract_y
_atom_site_fract_z
Si Si1 0.475861 0.769974 0.854460
Si Si2 0.524139 0.269974 0.438419
Si Si3 0.161672 0.750000 0.146440
Si Si4 0.755303 0.835168 0.590801
Si Si5 0.500000 0.500000 0.521440
Si Si6 0.335168 0.255303 0.952078
Si Si7 0.868433 0.512655 0.486648
Si Si8 0.868433 0.987345 0.806232
O O1 0.343912 0.760295 0.865191
O O2 0.503845 0.889946 0.818760
O O3 0.538728 0.748626 0.923910
O O4 0.507448 0.660161 0.813528
O O5 0.656088 0.260295 0.427688
O O6 0.461272 0.248626 0.368970
O O7 0.496155 0.389946 0.474119
O O8 0.492552 0.160161 0.479351
O O9 0.087816 0.805227 0.202542
O O10 0.087816 0.694773 0.090337
O O11 0.824128 0.824128 0.521440
O O12 0.802948 0.750000 0.646440
O O13 0.625739 0.808176 0.579379
O O14 0.308176 0.125739 0.963500
O O15 0.000000 0.500000 0.472974
O O16 0.000000 0.000000 0.819905
#
# Coordination Sequence:
#
# PCOD8302230 Si02
#       8
#     8   8   8   8   4   8   8   8
#     4  12  24  40  65 103 135 179 229 283 361 418
#     4  12  24  40  65 103 135 179 229 283 361 418
#     4  12  22  40  66  98 138 178 226 296 358 418
#     4  12  23  38  65 101 140 178 224 289 350 421
#     4  12  20  40  72 104 144 168 226 312 364 416
#     4  12  23  38  65 101 140 178 224 289 350 421
#     4  12  23  39  66  99 135 175 226 290 351 418
#     4  12  23  39  66  99 135 175 226 290 351 418
#
# _framework density 20.727430999999999
#
# number of rings (size 3 to 8) (size 9 to 14) (size 15 to 20)
#    0.000    0.000    9.333    3.200    0.000    0.000 
#    0.000    2.667    0.000    0.000    0.000    0.000 
#    0.000    0.000    0.000    0.000    0.000    0.000 
#
# Total GULP energy -371748.337129 kJ/mol
# GULP energy per Si atom -12391.611238 kJ/mol
# Density = 2.068025 g / cm^3
# Si number density = 20.727431 Si / 1000 Ang^3
#
#
#
# Elastic Constant Matrix: (Units=GPa)
#
#
# Indices 1 2 3 4 5 6 
#
# 1 88.8144 22.3962 42.6842 0.0000 0.0000 0.0000
# 2 22.3962 88.8144 42.6842 0.0000 0.0000 0.0000
# 3 42.6842 42.6842 135.4584 0.0000 0.0000 0.0000
# 4 0.0000 0.0000 0.0000 21.3509 0.0000 0.0000
# 5 0.0000 0.0000 0.0000 0.0000 21.3509 0.0000
# 6 0.0000 0.0000 0.0000 0.0000 0.0000 21.4267
#
#
#
# Elastic Compliance Matrix: (Units=1/GPa)
#
#
# Indices 1 2 3 4 5 6 
#
# 1 0.013459 -0.001598 -0.003738 0.000000 0.000000 0.000000
# 2 -0.001598 0.013459 -0.003738 0.000000 0.000000 0.000000
# 3 -0.003738 -0.003738 0.009738 0.000000 0.000000 0.000000
# 4 0.000000 0.000000 0.000000 0.046836 0.000000 0.000000
# 5 0.000000 0.000000 0.000000 0.000000 0.046836 0.000000
# 6 0.000000 0.000000 0.000000 0.000000 0.000000 0.046671
#
#
# Mechanical properties :
#
#
# Convention : Reuss Voigt Hill
#
# Bulk Modulus (GPa) = 54.02572 58.73517 56.38045
# Shear Modulus (GPa) = 24.83691 26.51389 25.67540
#
# Velocity S-wave (km/s) = 3.46535 3.58043 3.52336
# Velocity P-wave (km/s) = 6.49099 6.74471 6.61906
#
# Compressibility (1/GPa) = 0.01850970
#
# Stress axis : x y z
#
# Youngs Moduli (GPa) = 74.30223 74.30223 102.69278
#
# Poissons Ratio (x) = 0.11870 0.38381
# Poissons Ratio (y) = 0.11870 0.38381
# Poissons Ratio (z) = 0.27770 0.27770
#
# Static dielectric constant tensor:
#      x y z
#    x 4.137680 0.000000 0.000000 
#    y 0.000000 4.137680 0.000000 
#    z 0.000000 0.000000 4.092530 
# 
# 
# High freq. dielectric constant tensor:
#      x y z
#    x 1.793620 0.000000 0.000000 
#    y 0.000000 1.793620 0.000000 
#    z 0.000000 0.000000 1.823180 
# 
# From -- ./inp_files/1869.got.cif
#   From: 2010.03.12/outbox.cif.g09.slc.cpg/sg80_cif.got.tgz:1869.got - 2010.04.08 20:00:04.
