data_PCOD8302872
_publ_section_title
;
Structure prediction by ZEFSAII (Michael W. Deem and Ramdas Pophale) SiO2 
 PCOD8302872
Probable space group: P 4/M
;
_chemical_formula_sum "Si O2"
_cell_formula_units_Z 40
_cell_length_a 8.124005
_cell_length_b 8.124005
_cell_length_c 27.463193
_cell_angle_alpha 90.000000
_cell_angle_beta 90.000000
_cell_angle_gamma 90.000000
_cell_volume 1812.555832
_symmetry_space_group_name_H-M "P 4/M"
_symmetry_group_IT_number 83
_symmetry_cell_setting 'tetragonal'
loop_
_space_group_symop_operation_xyz
x,y,z
-y,x,z
-x,-y,z
y,-x,z
-x,-y,-z
y,-x,-z
x,y,-z
-y,x,-z
loop_
_atom_site_type_symbol
_atom_site_label
_atom_site_fract_x
_atom_site_fract_y
_atom_site_fract_z
Si Si1 0.108068 0.249452 0.551283
Si Si2 0.893343 0.747890 0.656548
Si Si3 0.588804 0.243778 0.251441
Si Si4 0.000000 0.500000 0.081685
Si Si5 0.429164 0.237614 0.000000
Si Si6 0.260862 0.923474 0.837575
O O1 0.149642 0.347403 0.500000
O O2 0.143901 0.337206 0.603247
O O3 0.916339 0.211149 0.550867
O O4 0.839974 0.614350 0.696135
O O5 0.085336 0.789046 0.662960
O O6 0.706808 0.400353 0.245635
O O7 0.632039 0.109879 0.210468
O O8 0.103672 0.373390 0.114947
O O9 0.128186 0.600086 0.048054
O O10 0.616818 0.299245 0.000000
O O11 0.110956 0.797469 0.838016
#
# Coordination Sequence:
#
# PCOD8302872 Si02
#       6
#     8   8   8   4   4   8
#     4   7  10  19  39  69 102 132 166 216 278 340
#     4   9  17  30  51  79 107 137 178 229 286 348
#     4  11  24  39  54  75 107 148 192 238 291 351
#     4  11  22  40  64  92 126 160 197 240 282 322
#     4  10  22  40  64  94 128 166 202 233 272 326
#     4  11  23  39  61  88 117 151 193 240 289 339
#
# _framework density 22.068286000000001
#
# number of rings (size 3 to 8) (size 9 to 14) (size 15 to 20)
#    0.000    2.300    0.000    5.400    0.000    4.000 
#    0.000    2.000    0.000    6.000    0.000    7.000 
#    0.000    0.000    0.000    0.000    0.000    0.000 
#
# Total GULP energy -495693.972582 kJ/mol
# GULP energy per Si atom -12392.349315 kJ/mol
# Density = 2.201806 g / cm^3
# Si number density = 22.068286 Si / 1000 Ang^3
#
#
#
# Elastic Constant Matrix: (Units=GPa)
#
#
# Indices 1 2 3 4 5 6 
#
# 1 58.9984 13.8056 40.5471 0.0000 0.0000 4.0044
# 2 13.8056 58.9984 40.5471 0.0000 0.0000 -4.0044
# 3 40.5471 40.5471 212.3652 0.0000 0.0000 0.0000
# 4 0.0000 0.0000 0.0000 6.8595 0.0000 0.0000
# 5 0.0000 0.0000 0.0000 0.0000 6.8595 0.0000
# 6 4.0044 -4.0044 0.0000 0.0000 0.0000 27.5054
#
#
#
# Elastic Compliance Matrix: (Units=1/GPa)
#
#
# Indices 1 2 3 4 5 6 
#
# 1 0.020080 -0.002634 -0.003331 0.000000 0.000000 -0.003307
# 2 -0.002634 0.020080 -0.003331 0.000000 0.000000 0.003307
# 3 -0.003331 -0.003331 0.005981 0.000000 0.000000 0.000000
# 4 0.000000 0.000000 0.000000 0.145782 0.000000 0.000000
# 5 0.000000 0.000000 0.000000 0.000000 0.145782 0.000000
# 6 -0.003307 0.003307 0.000000 0.000000 0.000000 0.037319
#
#
# Mechanical properties :
#
#
# Convention : Reuss Voigt Hill
#
# Bulk Modulus (GPa) = 36.29951 57.79570 47.04761
# Shear Modulus (GPa) = 12.41317 23.94238 18.17777
#
# Velocity S-wave (km/s) = 2.37426 3.29739 2.87314
# Velocity P-wave (km/s) = 4.89904 6.38305 5.68964
#
# Compressibility (1/GPa) = 0.02754858
#
# Stress axis : x y z
#
# Youngs Moduli (GPa) = 49.80184 49.80184 167.20103
#
# Poissons Ratio (x) = 0.13117 0.55693
# Poissons Ratio (y) = 0.13117 0.55693
# Poissons Ratio (z) = 0.16589 0.16589
#
# Static dielectric constant tensor:
#      x y z
#    x 3.654890 0.000000 0.000000 
#    y 0.000000 3.654890 0.000000 
#    z 0.000000 0.000000 4.482920 
# 
# 
# High freq. dielectric constant tensor:
#      x y z
#    x 1.844530 0.000000 0.000000 
#    y 0.000000 1.844530 0.000000 
#    z 0.000000 0.000000 1.895150 
# 
# From -- ./inp_files/3255.got.cif
#   From: 2010.03.12/outbox.cif.g09.slc.cpg/sg83_2_cif.got.tgz:3255.got - 2010.04.08 20:05:18.
