data_PCOD8302350
_publ_section_title
;
Structure prediction by ZEFSAII (Michael W. Deem and Ramdas Pophale) SiO2 
 PCOD8302350
Probable space group: I -4 
;
_chemical_formula_sum "Si O2"
_cell_formula_units_Z 42
_cell_length_a 10.043547
_cell_length_b 10.043547
_cell_length_c 23.620154
_cell_angle_alpha 90.000000
_cell_angle_beta 90.000000
_cell_angle_gamma 90.000000
_cell_volume 2382.631929
_symmetry_space_group_name_H-M "I -4 "
_symmetry_group_IT_number 82
_symmetry_cell_setting 'tetragonal'
loop_
_space_group_symop_operation_xyz
x,y,z
y,-x,-z
-x,-y,z
-y,x,-z
1/2+x,1/2+y,1/2+z
1/2+y,1/2-x,1/2-z
1/2-x,1/2-y,1/2+z
1/2-y,1/2+x,1/2-z
loop_
_atom_site_type_symbol
_atom_site_label
_atom_site_fract_x
_atom_site_fract_y
_atom_site_fract_z
Si Si1 0.949604 0.141090 0.249936
Si Si2 0.698591 0.410600 0.557957
Si Si3 0.796476 0.074517 0.935523
Si Si4 0.811768 0.750042 0.181084
Si Si5 0.044058 0.278543 0.826469
Si Si6 0.500000 0.000000 0.250000
O O1 0.872289 0.220084 0.299082
O O2 0.069993 0.231115 0.226607
O O3 0.857162 0.108834 0.195988
O O4 0.000000 0.000000 0.275595
O O5 0.629613 0.554306 0.561985
O O6 0.769882 0.388579 0.496835
O O7 0.585436 0.299784 0.569035
O O8 0.804054 0.403590 0.609569
O O9 0.715592 0.132885 0.881996
O O10 0.725081 0.883868 0.176893
O O11 0.090536 0.402944 0.788569
#
# Coordination Sequence:
#
# PCOD8302350 Si02
#       6
#     8   8   8   8   8   2
#     4  10  20  32  49  71 104 136 165 201 248 300
#     4   8  13  24  43  73 100 124 157 201 253 292
#     4   8  13  23  46  72  98 125 156 203 251 292
#     4  10  18  31  49  71 103 131 166 204 249 297
#     4  10  18  30  46  72 104 130 160 207 249 297
#     4  12  20  28  48  72 104 132 164 202 248 292
#
# _framework density 17.627566000000002
#
# number of rings (size 3 to 8) (size 9 to 14) (size 15 to 20)
#    0.000    2.667    3.810    1.143    0.000    0.381 
#    0.000    0.000    0.000    2.286    0.000    0.000 
#    5.714    0.000    0.000    0.000    0.000    0.000 
#
# Total GULP energy -260202.771325 kJ/mol
# GULP energy per Si atom -12390.608158 kJ/mol
# Density = 1.758745 g / cm^3
# Si number density = 17.627566 Si / 1000 Ang^3
#
#
#
# Elastic Constant Matrix: (Units=GPa)
#
#
# Indices 1 2 3 4 5 6 
#
# 1 52.1370 26.0182 48.3698 0.0000 0.0000 0.6681
# 2 26.0182 52.1370 48.3698 0.0000 0.0000 -0.6681
# 3 48.3698 48.3698 176.8714 0.0000 0.0000 0.0000
# 4 0.0000 0.0000 0.0000 20.9671 0.0000 0.0000
# 5 0.0000 0.0000 0.0000 0.0000 20.9671 0.0000
# 6 0.6681 -0.6681 0.0000 0.0000 0.0000 24.2001
#
#
#
# Elastic Compliance Matrix: (Units=1/GPa)
#
#
# Indices 1 2 3 4 5 6 
#
# 1 0.028842 -0.009499 -0.005290 0.000000 0.000000 -0.001058
# 2 -0.009499 0.028842 -0.005290 0.000000 0.000000 0.001058
# 3 -0.005290 -0.005290 0.008547 0.000000 0.000000 0.000000
# 4 0.000000 0.000000 0.000000 0.047694 0.000000 0.000000
# 5 0.000000 0.000000 0.000000 0.000000 0.047694 0.000000
# 6 -0.001058 0.001058 0.000000 0.000000 0.000000 0.041381
#
#
# Mechanical properties :
#
#
# Convention : Reuss Voigt Hill
#
# Bulk Modulus (GPa) = 38.35329 58.51791 48.43560
# Shear Modulus (GPa) = 19.85336 23.78603 21.81970
#
# Velocity S-wave (km/s) = 3.35963 3.67736 3.52208
# Velocity P-wave (km/s) = 6.07077 7.16237 6.63904
#
# Compressibility (1/GPa) = 0.02607338
#
# Stress axis : x y z
#
# Youngs Moduli (GPa) = 34.67205 34.67205 116.99969
#
# Poissons Ratio (x) = 0.32935 0.61889
# Poissons Ratio (y) = 0.32935 0.61889
# Poissons Ratio (z) = 0.18341 0.18341
#
# Static dielectric constant tensor:
#      x y z
#    x 2.927410 0.000000 0.000000 
#    y 0.000000 2.927410 0.000000 
#    z 0.000000 0.000000 3.697420 
# 
# 
# High freq. dielectric constant tensor:
#      x y z
#    x 1.640320 0.000000 0.000000 
#    y 0.000000 1.640320 0.000000 
#    z 0.000000 0.000000 1.695000 
# 
# From -- ./inp_files/3040.got.cif
#   From: 2010.03.12/outbox.cif.g09.slc.cpg/sg82_2_cif.got.tgz:3040.got - 2010.04.08 20:02:50.
