data_PCOD8302944
_publ_section_title
;
Structure prediction by ZEFSAII (Michael W. Deem and Ramdas Pophale) SiO2 
 PCOD8302944
Probable space group: P 4/M
;
_chemical_formula_sum "Si O2"
_cell_formula_units_Z 32
_cell_length_a 8.761496
_cell_length_b 8.761496
_cell_length_c 20.627850
_cell_angle_alpha 90.000000
_cell_angle_beta 90.000000
_cell_angle_gamma 90.000000
_cell_volume 1583.472403
_symmetry_space_group_name_H-M "P 4/M"
_symmetry_group_IT_number 83
_symmetry_cell_setting 'tetragonal'
loop_
_space_group_symop_operation_xyz
x,y,z
-y,x,z
-x,-y,z
y,-x,z
-x,-y,-z
y,-x,-z
x,y,-z
-y,x,-z
loop_
_atom_site_type_symbol
_atom_site_label
_atom_site_fract_x
_atom_site_fract_y
_atom_site_fract_z
Si Si1 0.601774 0.268530 0.500000
Si Si2 0.266677 0.407256 0.000000
Si Si3 0.264392 0.407550 0.860316
Si Si4 0.903075 0.770573 0.243421
Si Si5 0.105031 0.226952 0.391134
O O1 0.699011 0.423142 0.500000
O O2 0.639996 0.169417 0.436484
O O3 0.416686 0.306838 0.000000
O O4 0.182911 0.374280 0.068952
O O5 0.415713 0.305667 0.853171
O O6 0.146387 0.364889 0.804142
O O7 0.875254 0.718074 0.317204
O O8 0.079349 0.803777 0.229806
O O9 0.927409 0.198341 0.405587
#
# Coordination Sequence:
#
# PCOD8302944 Si02
#       5
#     4   4   8   8   8
#     4  11  24  37  50  76 110 133 154 195 246 290
#     4   7  12  26  46  67  94 128 164 201 242 289
#     4   9  17  30  50  74  98 127 165 207 248 291
#     4   9  19  35  52  72 100 131 163 201 244 290
#     4   9  19  37  58  75  94 128 171 205 236 285
#
# _framework density 20.208752
#
# number of rings (size 3 to 8) (size 9 to 14) (size 15 to 20)
#    0.000    3.000    0.000    3.750    0.000    6.000 
#    0.000    8.750    0.000    6.000    0.000    0.000 
#    0.000    0.000    0.000    0.000    0.000    0.000 
#
# Total GULP energy -396577.004506 kJ/mol
# GULP energy per Si atom -12393.031391 kJ/mol
# Density = 2.016276 g / cm^3
# Si number density = 20.208752 Si / 1000 Ang^3
#
#
#
# Elastic Constant Matrix: (Units=GPa)
#
#
# Indices 1 2 3 4 5 6 
#
# 1 12.9768 -6.8208 10.2530 0.0000 0.0000 -1.8031
# 2 -6.8208 12.9768 10.2530 0.0000 0.0000 1.8031
# 3 10.2530 10.2530 114.5939 0.0000 0.0000 0.0000
# 4 0.0000 0.0000 0.0000 0.6829 0.0000 0.0000
# 5 0.0000 0.0000 0.0000 0.0000 0.6829 0.0000
# 6 -1.8031 1.8031 0.0000 0.0000 0.0000 31.5745
#
#
#
# Elastic Compliance Matrix: (Units=1/GPa)
#
#
# Indices 1 2 3 4 5 6 
#
# 1 0.141228 0.090186 -0.020705 0.000000 0.000000 0.002915
# 2 0.090186 0.141228 -0.020705 0.000000 0.000000 -0.002915
# 3 -0.020705 -0.020705 0.012432 0.000000 0.000000 0.000000
# 4 0.000000 0.000000 0.000000 1.464408 0.000000 0.000000
# 5 0.000000 0.000000 0.000000 0.000000 1.464408 0.000000
# 6 0.002915 -0.002915 0.000000 0.000000 0.000000 0.032004
#
#
# Mechanical properties :
#
#
# Convention : Reuss Voigt Hill
#
# Bulk Modulus (GPa) = 2.54816 18.65751 10.60283
# Shear Modulus (GPa) = 1.52023 15.04554 8.28289
#
# Velocity S-wave (km/s) = 0.86827 2.73152 2.02671
# Velocity P-wave (km/s) = 1.50627 4.38186 3.27640
#
# Compressibility (1/GPa) = 0.39244044
#
# Stress axis : x y z
#
# Youngs Moduli (GPa) = 7.08073 7.08073 80.44059
#
# Poissons Ratio (x) = -0.63859 1.66554
# Poissons Ratio (y) = -0.63859 1.66554
# Poissons Ratio (z) = 0.14661 0.14661
#
# Static dielectric constant tensor:
#      x y z
#    x 3.338600 0.000000 0.000000 
#    y 0.000000 3.338600 0.000000 
#    z 0.000000 0.000000 3.963550 
# 
# 
# High freq. dielectric constant tensor:
#      x y z
#    x 1.765330 0.000000 0.000000 
#    y 0.000000 1.765330 0.000000 
#    z 0.000000 0.000000 1.807570 
# 
# From -- ./inp_files/3069.got.cif
#   From: 2010.03.12/outbox.cif.g09.slc.cpg/sg83_2_cif.got.tgz:3069.got - 2010.04.08 20:05:18.
