data_PCOD8302082
_publ_section_title
;
Structure prediction by ZEFSAII (Michael W. Deem and Ramdas Pophale) SiO2 
 PCOD8302082
Probable space group: I 4
;
_chemical_formula_sum "Si O2"
_cell_formula_units_Z 56
_cell_length_a 10.425167
_cell_length_b 10.425167
_cell_length_c 26.252109
_cell_angle_alpha 90.000000
_cell_angle_beta 90.000000
_cell_angle_gamma 90.000000
_cell_volume 2853.187023
_symmetry_space_group_name_H-M "I 4"
_symmetry_group_IT_number 79
_symmetry_cell_setting 'tetragonal'
loop_
_space_group_symop_operation_xyz
x,y,z
-y,x,z
-x,-y,z
y,-x,z
1/2+x,1/2+y,1/2+z
1/2-y,1/2+x,1/2+z
1/2-x,1/2-y,1/2+z
1/2+y,1/2-x,1/2+z
loop_
_atom_site_type_symbol
_atom_site_label
_atom_site_fract_x
_atom_site_fract_y
_atom_site_fract_z
Si Si1 0.288958 0.691642 0.262700
Si Si2 0.651751 0.971353 0.822917
Si Si3 0.826323 0.902985 0.659696
Si Si4 0.848249 0.528647 0.534315
Si Si5 0.979901 0.214117 0.928616
Si Si6 0.191642 0.211042 0.094532
Si Si7 0.402985 0.673677 0.697536
O O1 0.250735 0.572672 0.297765
O O2 0.332927 0.810779 0.298603
O O3 0.404138 0.676003 0.221565
O O4 0.164994 0.710876 0.226487
O O5 0.500000 0.000000 0.815262
O O6 0.688075 0.970070 0.881831
O O7 0.710876 0.835006 0.630745
O O8 0.952137 0.827218 0.640927
O O9 0.811925 0.529930 0.475402
O O10 0.810779 0.667073 0.558629
O O11 0.749266 0.427328 0.559468
O O12 0.000000 0.500000 0.541971
O O13 0.114143 0.137773 0.928616
O O14 0.176003 0.095862 0.135667
O O15 0.327218 0.547863 0.716305
#
# Coordination Sequence:
#
# PCOD8302082 Si02
#       7
#     8   8   8   8   8   8   8
#     4  11  22  37  57  92 122 163 212 249 307 377
#     4  12  24  41  64  91 127 165 205 268 318 372
#     4  10  20  36  56  82 123 169 206 252 298 364
#     4  12  24  41  64  91 127 165 205 268 318 372
#     4  11  23  42  70  96 121 157 206 262 330 387
#     4  11  22  37  57  92 122 163 212 249 307 377
#     4  10  20  36  56  82 123 169 206 252 298 364
#
# _framework density 19.627175000000001
#
# number of rings (size 3 to 8) (size 9 to 14) (size 15 to 20)
#    0.000    1.000    5.714    2.143    0.000    0.571 
#    0.000    0.000    0.000    0.000    0.000    2.000 
#    0.000    0.000    0.000    0.000    0.000    0.000 
#
# Total GULP energy -346878.530814 kJ/mol
# GULP energy per Si atom -12388.518958 kJ/mol
# Density = 1.958250 g / cm^3
# Si number density = 19.627175 Si / 1000 Ang^3
#
#
#
# Elastic Constant Matrix: (Units=GPa)
#
#
# Indices 1 2 3 4 5 6 
#
# 1 43.4973 11.8694 21.5002 0.0000 0.0000 -6.6591
# 2 11.8694 43.4973 21.5002 0.0000 0.0000 6.6591
# 3 21.5002 21.5002 122.8160 0.0000 0.0000 0.0000
# 4 0.0000 0.0000 0.0000 27.2959 0.0000 0.0000
# 5 0.0000 0.0000 0.0000 0.0000 27.2959 0.0000
# 6 -6.6591 6.6591 0.0000 0.0000 0.0000 28.2797
#
#
#
# Elastic Compliance Matrix: (Units=1/GPa)
#
#
# Indices 1 2 3 4 5 6 
#
# 1 0.028001 -0.007097 -0.003659 0.000000 0.000000 0.008265
# 2 -0.007097 0.028001 -0.003659 0.000000 0.000000 -0.008265
# 3 -0.003659 -0.003659 0.009423 0.000000 0.000000 0.000000
# 4 0.000000 0.000000 0.000000 0.036636 0.000000 0.000000
# 5 0.000000 0.000000 0.000000 0.000000 0.036636 0.000000
# 6 0.008265 -0.008265 0.000000 0.000000 0.000000 0.039253
#
#
# Mechanical properties :
#
#
# Convention : Reuss Voigt Hill
#
# Bulk Modulus (GPa) = 27.32774 35.50558 31.41666
# Shear Modulus (GPa) = 22.83332 26.90371 24.86851
#
# Velocity S-wave (km/s) = 3.41450 3.70636 3.56342
# Velocity P-wave (km/s) = 5.43127 6.03701 5.74213
#
# Compressibility (1/GPa) = 0.03659285
#
# Stress axis : x y z
#
# Youngs Moduli (GPa) = 35.71355 35.71356 106.11805
#
# Poissons Ratio (x) = 0.25347 0.38832
# Poissons Ratio (y) = 0.25347 0.38832
# Poissons Ratio (z) = 0.13069 0.13069
#
# Static dielectric constant tensor:
#      x y z
#    x 3.398160 0.000000 0.000000 
#    y 0.000000 3.398160 0.000000 
#    z 0.000000 0.000000 3.636200 
# 
# 
# High freq. dielectric constant tensor:
#      x y z
#    x 1.759360 0.000000 0.000000 
#    y 0.000000 1.759360 0.000000 
#    z 0.000000 0.000000 1.771170 
# 
# From -- ./inp_files/1830.got.cif
#   From: 2010.03.12/outbox.cif.g09.slc.cpg/sg79_cif.got.tgz:1830.got - 2010.04.16 16:38:49.
