data_PCOD8302576
_publ_section_title
;
Structure prediction by ZEFSAII (Michael W. Deem and Ramdas Pophale) SiO2 
 PCOD8302576
Probable space group: I -4 
;
_chemical_formula_sum "Si O2"
_cell_formula_units_Z 40
_cell_length_a 9.430448
_cell_length_b 9.430448
_cell_length_c 20.436973
_cell_angle_alpha 90.000000
_cell_angle_beta 90.000000
_cell_angle_gamma 90.000000
_cell_volume 1817.528462
_symmetry_space_group_name_H-M "I -4 "
_symmetry_group_IT_number 82
_symmetry_cell_setting 'tetragonal'
loop_
_space_group_symop_operation_xyz
x,y,z
y,-x,-z
-x,-y,z
-y,x,-z
1/2+x,1/2+y,1/2+z
1/2+y,1/2-x,1/2-z
1/2-x,1/2-y,1/2+z
1/2-y,1/2+x,1/2-z
loop_
_atom_site_type_symbol
_atom_site_label
_atom_site_fract_x
_atom_site_fract_y
_atom_site_fract_z
Si Si1 0.000000 0.000000 0.000000
Si Si2 0.766228 0.562970 0.414867
Si Si3 0.421623 0.792196 0.232589
Si Si4 0.500000 0.000000 0.488998
Si Si5 0.254418 0.383618 0.908971
Si Si6 0.191452 0.583827 0.280499
Si Si7 0.500000 0.500000 0.000000
O O1 0.004872 0.133996 0.047722
O O2 0.890844 0.584279 0.466483
O O3 0.742423 0.719781 0.387259
O O4 0.811514 0.458807 0.356470
O O5 0.566027 0.824412 0.271809
O O6 0.467373 0.742107 0.159737
O O7 0.337967 0.665381 0.267945
O O8 0.610429 0.916731 0.445441
O O9 0.388424 0.420619 0.953686
O O10 0.183219 0.444918 0.233822
#
# Coordination Sequence:
#
# PCOD8302576 Si02
#       7
#     2   8   8   4   8   8   2
#     4  12  28  44  74 116 140 204 240 290 368 424
#     4  12  26  45  73 108 150 184 246 297 359 433
#     4  11  27  49  73 109 148 192 240 297 362 427
#     4  12  24  44  76  98 150 192 232 304 354 428
#     4  12  26  49  73 108 147 192 243 300 362 434
#     4  11  25  46  73 106 144 190 240 295 363 419
#     4  12  28  48  78 108 140 196 244 298 372 420
#
# _framework density 22.007908
#
# number of rings (size 3 to 8) (size 9 to 14) (size 15 to 20)
#    0.000    0.400    6.000    2.400    2.800    5.600 
#    0.000    0.000    0.000    0.000    0.000    0.000 
#    0.000    0.000    0.000    0.000    0.000    0.000 
#
# Total GULP energy -248084.563076 kJ/mol
# GULP energy per Si atom -12404.228154 kJ/mol
# Density = 2.195782 g / cm^3
# Si number density = 22.007908 Si / 1000 Ang^3
#
#
#
# Elastic Constant Matrix: (Units=GPa)
#
#
# Indices 1 2 3 4 5 6 
#
# 1 91.0208 26.7166 38.1745 0.0000 0.0000 -2.5594
# 2 26.7166 91.0208 38.1745 0.0000 0.0000 2.5594
# 3 38.1745 38.1745 119.1807 0.0000 0.0000 0.0000
# 4 0.0000 0.0000 0.0000 74.1747 0.0000 0.0000
# 5 0.0000 0.0000 0.0000 0.0000 74.1747 0.0000
# 6 -2.5594 2.5594 0.0000 0.0000 0.0000 38.7919
#
#
#
# Elastic Compliance Matrix: (Units=1/GPa)
#
#
# Indices 1 2 3 4 5 6 
#
# 1 0.013177 -0.002457 -0.003434 0.000000 0.000000 0.001031
# 2 -0.002457 0.013177 -0.003434 0.000000 0.000000 -0.001031
# 3 -0.003434 -0.003434 0.010590 0.000000 0.000000 0.000000
# 4 0.000000 0.000000 0.000000 0.013482 0.000000 0.000000
# 5 0.000000 0.000000 0.000000 0.000000 0.013482 0.000000
# 6 0.001031 -0.001031 0.000000 0.000000 0.000000 0.025915
#
#
# Mechanical properties :
#
#
# Convention : Reuss Voigt Hill
#
# Bulk Modulus (GPa) = 54.65784 56.37265 55.51524
# Shear Modulus (GPa) = 43.64207 50.63868 47.14038
#
# Velocity S-wave (km/s) = 4.45794 4.80201 4.63317
# Velocity P-wave (km/s) = 7.16848 7.51106 7.34177
#
# Compressibility (1/GPa) = 0.01829564
#
# Stress axis : x y z
#
# Youngs Moduli (GPa) = 75.89170 75.89170 94.42572
#
# Poissons Ratio (x) = 0.18643 0.32423
# Poissons Ratio (y) = 0.18643 0.32423
# Poissons Ratio (z) = 0.26059 0.26059
#
# Static dielectric constant tensor:
#      x y z
#    x 3.571590 0.000000 0.000000 
#    y 0.000000 3.571590 0.000000 
#    z 0.000000 0.000000 4.023010 
# 
# 
# High freq. dielectric constant tensor:
#      x y z
#    x 1.870390 0.000000 0.000000 
#    y 0.000000 1.870390 0.000000 
#    z 0.000000 0.000000 1.878840 
# 
# From -- ./inp_files/3426.got.cif
#   From: 2010.03.12/outbox.cif.g09.slc.cpg/sg82_2_cif.got.tgz:3426.got - 2010.04.08 20:02:50.
