data_PCOD8302066
_publ_section_title
;
Structure prediction by ZEFSAII (Michael W. Deem and Ramdas Pophale) SiO2 
 PCOD8302066
Probable space group: P 43
;
_chemical_formula_sum "Si O2"
_cell_formula_units_Z 28
_cell_length_a 11.637261
_cell_length_b 11.637261
_cell_length_c 8.703218
_cell_angle_alpha 90.000000
_cell_angle_beta 90.000000
_cell_angle_gamma 90.000000
_cell_volume 1178.640640
_symmetry_space_group_name_H-M "P 43"
_symmetry_group_IT_number 78
_symmetry_cell_setting 'tetragonal'
loop_
_space_group_symop_operation_xyz
x,y,z
-y,x,3/4+z
-x,-y,1/2+z
y,-x,1/4+z
loop_
_atom_site_type_symbol
_atom_site_label
_atom_site_fract_x
_atom_site_fract_y
_atom_site_fract_z
Si Si1 0.556759 0.293916 0.648570
Si Si2 0.050254 0.643048 0.658207
Si Si3 0.955962 0.130981 0.314189
Si Si4 0.511693 0.722329 0.469886
Si Si5 0.335578 0.313470 0.440011
Si Si6 0.422640 0.033145 0.069239
Si Si7 0.846314 0.709402 0.182424
O O1 0.506614 0.228688 0.797491
O O2 0.611691 0.408520 0.716923
O O3 0.454600 0.329411 0.532759
O O4 0.659265 0.217187 0.581608
O O5 0.990853 0.754403 0.736459
O O6 0.183434 0.672019 0.634002
O O7 0.997686 0.614022 0.491989
O O8 0.032170 0.541061 0.779929
O O9 0.846598 0.160402 0.421351
O O10 0.049006 0.074811 0.423366
O O11 0.394955 0.672649 0.543414
O O12 0.567123 0.829591 0.560199
O O13 0.222333 0.346030 0.539503
O O14 0.330018 0.979943 0.947076
#
# Coordination Sequence:
#
# PCOD8302066 Si02
#       7
#     4   4   4   4   4   4   4
#     4  12  26  44  70 110 148 198 253 301 387 459
#     4  11  27  48  79 108 153 197 256 318 387 459
#     4  11  30  54  80 113 156 203 262 329 399 458
#     4  12  29  42  74 107 153 199 257 308 379 468
#     4  11  26  50  66 108 154 193 242 317 384 438
#     4  12  26  48  77 111 149 201 262 310 384 472
#     4  11  26  48  78 103 153 197 246 323 378 462
#
# _framework density 23.756181999999999
#
# number of rings (size 3 to 8) (size 9 to 14) (size 15 to 20)
#    0.000    0.571    2.857    2.571   14.000    0.000 
#    2.571    0.000    0.000    0.000    0.000    0.000 
#    0.000    0.000    0.000    0.000    0.000    0.000 
#
# Total GULP energy -347174.340211 kJ/mol
# GULP energy per Si atom -12399.083579 kJ/mol
# Density = 2.370211 g / cm^3
# Si number density = 23.756182 Si / 1000 Ang^3
#
#
#
# Elastic Constant Matrix: (Units=GPa)
#
#
# Indices 1 2 3 4 5 6 
#
# 1 84.2601 16.6798 36.6359 0.0000 0.0000 -2.9788
# 2 16.6798 84.2601 36.6359 0.0000 0.0000 2.9788
# 3 36.6359 36.6359 125.0888 0.0000 0.0000 0.0000
# 4 0.0000 0.0000 0.0000 42.0598 0.0000 0.0000
# 5 0.0000 0.0000 0.0000 0.0000 42.0598 0.0000
# 6 -2.9788 2.9788 0.0000 0.0000 0.0000 34.8693
#
#
#
# Elastic Compliance Matrix: (Units=1/GPa)
#
#
# Indices 1 2 3 4 5 6 
#
# 1 0.013746 -0.001164 -0.003685 0.000000 0.000000 0.001274
# 2 -0.001164 0.013746 -0.003685 0.000000 0.000000 -0.001274
# 3 -0.003685 -0.003685 0.010153 0.000000 0.000000 0.000000
# 4 0.000000 0.000000 0.000000 0.023776 0.000000 0.000000
# 5 0.000000 0.000000 0.000000 0.000000 0.023776 0.000000
# 6 0.001274 -0.001274 0.000000 0.000000 0.000000 0.028896
#
#
# Mechanical properties :
#
#
# Convention : Reuss Voigt Hill
#
# Bulk Modulus (GPa) = 48.59893 52.61246 50.60569
# Shear Modulus (GPa) = 36.22718 37.37493 36.80105
#
# Velocity S-wave (km/s) = 3.90931 3.97075 3.94015
# Velocity P-wave (km/s) = 6.39365 6.57400 6.48445
#
# Compressibility (1/GPa) = 0.02057659
#
# Stress axis : x y z
#
# Youngs Moduli (GPa) = 72.75044 72.75044 98.49509
#
# Poissons Ratio (x) = 0.08467 0.36295
# Poissons Ratio (y) = 0.08467 0.36295
# Poissons Ratio (z) = 0.26808 0.26808
#
# Static dielectric constant tensor:
#      x y z
#    x 4.363010 0.000000 0.000000 
#    y 0.000000 4.363010 0.000000 
#    z 0.000000 0.000000 4.395580 
# 
# 
# High freq. dielectric constant tensor:
#      x y z
#    x 1.944480 0.000000 0.000000 
#    y 0.000000 1.944480 0.000000 
#    z 0.000000 0.000000 1.950680 
# 
# From -- ./inp_files/629.got.cif
#   From: 2010.03.12/outbox.cif.g09.slc.cpg/sg78_cif.got.tgz:629.got - 2010.04.16 16:37:20.
