data_PCOD8302517
_publ_section_title
;
Structure prediction by ZEFSAII (Michael W. Deem and Ramdas Pophale) SiO2 
 PCOD8302517
Probable space group: I -4 
;
_chemical_formula_sum "Si O2"
_cell_formula_units_Z 56
_cell_length_a 15.402734
_cell_length_b 15.402734
_cell_length_c 11.001441
_cell_angle_alpha 90.000000
_cell_angle_beta 90.000000
_cell_angle_gamma 90.000000
_cell_volume 2610.028230
_symmetry_space_group_name_H-M "I -4 "
_symmetry_group_IT_number 82
_symmetry_cell_setting 'tetragonal'
loop_
_space_group_symop_operation_xyz
x,y,z
y,-x,-z
-x,-y,z
-y,x,-z
1/2+x,1/2+y,1/2+z
1/2+y,1/2-x,1/2-z
1/2-x,1/2-y,1/2+z
1/2-y,1/2+x,1/2-z
loop_
_atom_site_type_symbol
_atom_site_label
_atom_site_fract_x
_atom_site_fract_y
_atom_site_fract_z
Si Si1 0.455402 0.275607 0.959160
Si Si2 0.877569 0.972738 0.066025
Si Si3 0.657118 0.581313 0.835574
Si Si4 0.857029 0.493841 0.240853
Si Si5 0.076473 0.377109 0.593828
Si Si6 0.115620 0.649309 0.646638
Si Si7 0.696678 0.017750 0.995706
O O1 0.407107 0.343241 0.874731
O O2 0.508719 0.207520 0.872939
O O3 0.513504 0.330861 0.054110
O O4 0.387995 0.213473 0.034168
O O5 0.885772 0.961278 0.213127
O O6 0.931826 0.904914 0.983601
O O7 0.776438 0.960207 0.042043
O O8 0.750819 0.625782 0.812543
O O9 0.911425 0.579564 0.275163
O O10 0.794502 0.470253 0.352765
O O11 0.090452 0.378409 0.735716
O O12 0.110252 0.463518 0.529510
O O13 0.972985 0.369067 0.574262
O O14 0.192072 0.613000 0.558979
#
# Coordination Sequence:
#
# PCOD8302517 Si02
#       7
#     8   8   8   8   8   8   8
#     4  11  25  45  66 101 137 185 240 285 357 419
#     4  11  26  48  72  98 132 179 243 295 351 419
#     4  11  25  47  69 100 138 178 242 294 347 433
#     4  11  23  40  63  98 140 182 228 279 348 432
#     4  11  20  38  64  97 134 174 225 281 347 430
#     4  11  22  39  67 103 135 180 228 286 354 427
#     4  12  22  39  67  99 137 182 226 283 353 415
#
# _framework density 21.455705999999999
#
# number of rings (size 3 to 8) (size 9 to 14) (size 15 to 20)
#    0.000    0.857    4.286    3.857    2.000    4.857 
#    5.143    0.000    0.000    0.000    0.000    0.000 
#    0.000    0.000    0.000    0.000    0.000    0.000 
#
# Total GULP energy -346932.236900 kJ/mol
# GULP energy per Si atom -12390.437032 kJ/mol
# Density = 2.140687 g / cm^3
# Si number density = 21.455706 Si / 1000 Ang^3
#
#
#
# Elastic Constant Matrix: (Units=GPa)
#
#
# Indices 1 2 3 4 5 6 
#
# 1 76.9108 34.9824 48.1840 0.0000 0.0000 -4.9788
# 2 34.9824 76.9108 48.1840 0.0000 0.0000 4.9788
# 3 48.1840 48.1840 165.8685 0.0000 0.0000 0.0000
# 4 0.0000 0.0000 0.0000 40.2205 0.0000 0.0000
# 5 0.0000 0.0000 0.0000 0.0000 40.2205 0.0000
# 6 -4.9788 4.9788 0.0000 0.0000 0.0000 18.8232
#
#
#
# Elastic Compliance Matrix: (Units=1/GPa)
#
#
# Indices 1 2 3 4 5 6 
#
# 1 0.018684 -0.006765 -0.003462 0.000000 0.000000 0.006731
# 2 -0.006765 0.018684 -0.003462 0.000000 0.000000 -0.006731
# 3 -0.003462 -0.003462 0.008041 0.000000 0.000000 0.000000
# 4 0.000000 0.000000 0.000000 0.024863 0.000000 0.000000
# 5 0.000000 0.000000 0.000000 0.000000 0.024863 0.000000
# 6 0.006731 -0.006731 0.000000 0.000000 0.000000 0.056687
#
#
# Mechanical properties :
#
#
# Convention : Reuss Voigt Hill
#
# Bulk Modulus (GPa) = 55.46626 64.71011 60.08819
# Shear Modulus (GPa) = 26.99631 32.40883 29.70257
#
# Velocity S-wave (km/s) = 3.55101 3.89073 3.72474
# Velocity P-wave (km/s) = 6.53609 7.09993 6.82384
#
# Compressibility (1/GPa) = 0.01802898
#
# Stress axis : x y z
#
# Youngs Moduli (GPa) = 53.52180 53.52180 124.37002
#
# Poissons Ratio (x) = 0.36207 0.43062
# Poissons Ratio (y) = 0.36207 0.43062
# Poissons Ratio (z) = 0.18532 0.18532
#
# Static dielectric constant tensor:
#      x y z
#    x 3.825180 0.000000 0.000000 
#    y 0.000000 3.825180 0.000000 
#    z 0.000000 0.000000 4.138030 
# 
# 
# High freq. dielectric constant tensor:
#      x y z
#    x 1.824980 0.000000 0.000000 
#    y 0.000000 1.824980 0.000000 
#    z 0.000000 0.000000 1.871640 
# 
# From -- ./inp_files/1825.got.cif
#   From: 2010.03.12/outbox.cif.g09.slc.cpg/sg82_1_cif.got.tgz:1825.got - 2010.04.08 20:02:50.
