data_PCOD8302057
_publ_section_title
;
Structure prediction by ZEFSAII (Michael W. Deem and Ramdas Pophale) SiO2 
 PCOD8302057
Probable space group: P 43
;
_chemical_formula_sum "Si O2"
_cell_formula_units_Z 32
_cell_length_a 8.804698
_cell_length_b 8.804698
_cell_length_c 19.629559
_cell_angle_alpha 90.000000
_cell_angle_beta 90.000000
_cell_angle_gamma 90.000000
_cell_volume 1521.736548
_symmetry_space_group_name_H-M "P 43"
_symmetry_group_IT_number 78
_symmetry_cell_setting 'tetragonal'
loop_
_space_group_symop_operation_xyz
x,y,z
-y,x,3/4+z
-x,-y,1/2+z
y,-x,1/4+z
loop_
_atom_site_type_symbol
_atom_site_label
_atom_site_fract_x
_atom_site_fract_y
_atom_site_fract_z
Si Si1 0.320852 0.343415 0.039030
Si Si2 0.790695 0.383945 0.330684
Si Si3 0.443821 0.532048 0.154958
Si Si4 0.398948 0.758673 0.711827
Si Si5 0.997940 0.336028 0.975703
Si Si6 0.818177 0.020631 0.153998
Si Si7 0.981377 0.022681 0.776784
Si Si8 0.357364 0.012106 0.072462
O O1 0.343411 0.483084 0.090362
O O2 0.386043 0.193116 0.077026
O O3 0.417233 0.345392 0.969650
O O4 0.141700 0.356036 0.025435
O O5 0.672572 0.460348 0.380457
O O6 0.707841 0.281882 0.275134
O O7 0.873102 0.275265 0.384178
O O8 0.909299 0.502920 0.293541
O O9 0.549636 0.396381 0.178586
O O10 0.538433 0.866262 0.738066
O O11 0.300846 0.840085 0.652272
O O12 0.054302 0.338001 0.898097
O O13 0.944634 0.164608 0.990900
O O14 0.873964 0.024059 0.232234
O O15 0.961318 0.025841 0.103575
O O16 0.996083 0.205535 0.776975
#
# Coordination Sequence:
#
# PCOD8302057 Si02
#       8
#     4   4   4   4   4   4   4   4
#     4  11  24  45  74  98 136 191 230 295 352 422
#     4  12  26  44  68 101 145 182 226 296 348 425
#     4  12  24  44  70 108 140 186 236 286 370 428
#     4  12  26  44  68 101 145 182 226 296 348 425
#     4  11  23  47  67  96 135 181 231 284 343 419
#     4  12  24  46  66 102 138 180 236 286 356 410
#     4  11  26  43  72  98 134 179 234 287 344 422
#     4  11  23  47  67  96 135 181 231 284 343 419
#
# _framework density 21.028606
#
# number of rings (size 3 to 8) (size 9 to 14) (size 15 to 20)
#    0.000    0.500    7.500    0.000    3.500    2.000 
#    9.000    0.000    0.000    0.000    0.000    0.000 
#    0.000    0.000    0.000    0.000    0.000    0.000 
#
# Total GULP energy -396564.609078 kJ/mol
# GULP energy per Si atom -12392.644034 kJ/mol
# Density = 2.098074 g / cm^3
# Si number density = 21.028606 Si / 1000 Ang^3
#
#
#
# Elastic Constant Matrix: (Units=GPa)
#
#
# Indices 1 2 3 4 5 6 
#
# 1 103.0437 47.3078 26.3105 0.0000 0.0000 -1.5543
# 2 47.3078 103.0437 26.3105 0.0000 0.0000 1.5543
# 3 26.3105 26.3105 81.8839 0.0000 0.0000 0.0000
# 4 0.0000 0.0000 0.0000 30.5168 0.0000 0.0000
# 5 0.0000 0.0000 0.0000 0.0000 30.5168 0.0000
# 6 -1.5543 1.5543 0.0000 0.0000 0.0000 26.0431
#
#
#
# Elastic Compliance Matrix: (Units=1/GPa)
#
#
# Indices 1 2 3 4 5 6 
#
# 1 0.012748 -0.005254 -0.002408 0.000000 0.000000 0.001074
# 2 -0.005254 0.012748 -0.002408 0.000000 0.000000 -0.001074
# 3 -0.002408 -0.002408 0.013760 0.000000 0.000000 0.000000
# 4 0.000000 0.000000 0.000000 0.032769 0.000000 0.000000
# 5 0.000000 0.000000 0.000000 0.000000 0.032769 0.000000
# 6 0.001074 -0.001074 0.000000 0.000000 0.000000 0.038526
#
#
# Mechanical properties :
#
#
# Convention : Reuss Voigt Hill
#
# Bulk Modulus (GPa) = 52.31249 54.20325 53.25787
# Shear Modulus (GPa) = 29.44114 29.95150 29.69632
#
# Velocity S-wave (km/s) = 3.74579 3.77811 3.76198
# Velocity P-wave (km/s) = 6.60596 6.69807 6.65217
#
# Compressibility (1/GPa) = 0.01911590
#
# Stress axis : x y z
#
# Youngs Moduli (GPa) = 78.44522 78.44522 72.67560
#
# Poissons Ratio (x) = 0.41215 0.17499
# Poissons Ratio (y) = 0.41215 0.17499
# Poissons Ratio (z) = 0.18889 0.18889
#
# Static dielectric constant tensor:
#      x y z
#    x 4.009650 0.000000 0.000000 
#    y 0.000000 4.009650 0.000000 
#    z 0.000000 0.000000 3.883270 
# 
# 
# High freq. dielectric constant tensor:
#      x y z
#    x 1.833310 0.000000 0.000000 
#    y 0.000000 1.833310 0.000000 
#    z 0.000000 0.000000 1.821810 
# 
# From -- ./inp_files/1529.got.cif
#   From: 2010.03.12/outbox.cif.g09.slc.cpg/sg78_cif.got.tgz:1529.got - 2010.04.16 16:37:20.
