data_PCOD8302713
_publ_section_title
;
Structure prediction by ZEFSAII (Michael W. Deem and Ramdas Pophale) SiO2 
 PCOD8302713
Probable space group: P 4/M
;
_chemical_formula_sum "Si O2"
_cell_formula_units_Z 44
_cell_length_a 15.283694
_cell_length_b 15.283694
_cell_length_c 10.590101
_cell_angle_alpha 90.000000
_cell_angle_beta 90.000000
_cell_angle_gamma 90.000000
_cell_volume 2473.755484
_symmetry_space_group_name_H-M "P 4/M"
_symmetry_group_IT_number 83
_symmetry_cell_setting 'tetragonal'
loop_
_space_group_symop_operation_xyz
x,y,z
-y,x,z
-x,-y,z
y,-x,z
-x,-y,-z
y,-x,-z
x,y,-z
-y,x,-z
loop_
_atom_site_type_symbol
_atom_site_label
_atom_site_fract_x
_atom_site_fract_y
_atom_site_fract_z
Si Si1 0.322768 0.333512 0.744642
Si Si2 0.612703 0.404546 0.000000
Si Si3 0.982550 0.247400 0.648582
Si Si4 0.567086 0.929543 0.349264
Si Si5 0.256692 0.511429 0.356572
Si Si6 0.201251 0.825234 0.650264
O O1 0.289177 0.430885 0.724270
O O2 0.403641 0.318587 0.649146
O O3 0.245935 0.261629 0.722760
O O4 0.362886 0.333173 0.884349
O O5 0.621597 0.510071 0.000000
O O6 0.994485 0.254134 0.500000
O O7 0.956410 0.340113 0.707813
O O8 0.901890 0.183893 0.682207
O O9 0.077298 0.220493 0.702740
O O10 0.570850 0.926362 0.500000
O O11 0.539554 0.835746 0.296557
O O12 0.500000 0.000000 0.297297
O O13 0.247210 0.479517 0.500000
O O14 0.218382 0.813522 0.500000
#
# Coordination Sequence:
#
# PCOD8302713 Si02
#       6
#     8   4   8   8   8   8
#     4  12  22  37  56  77 108 146 186 233 267 327
#     4  11  24  44  58  72 100 149 200 226 276 331
#     4   9  17  29  48  77 118 153 178 216 271 339
#     4   9  16  28  45  71 108 147 180 210 262 331
#     4  11  21  32  52  83 112 141 177 226 282 326
#     4  10  19  33  54  85 117 148 184 225 279 334
#
# _framework density 17.786721
#
# number of rings (size 3 to 8) (size 9 to 14) (size 15 to 20)
#    0.000    1.727    3.636    2.727    0.000    3.636 
#    0.000    2.727    0.000    1.091    0.000    3.818 
#    0.000    1.455    0.000    0.000    0.000    0.000 
#
# Total GULP energy -545324.497099 kJ/mol
# GULP energy per Si atom -12393.738570 kJ/mol
# Density = 1.774624 g / cm^3
# Si number density = 17.786721 Si / 1000 Ang^3
#
#
#
# Elastic Constant Matrix: (Units=GPa)
#
#
# Indices 1 2 3 4 5 6 
#
# 1 124.8250 48.6551 16.2038 0.0000 0.0000 -2.8081
# 2 48.6551 124.8250 16.2038 0.0000 0.0000 2.8081
# 3 16.2038 16.2038 39.0963 0.0000 0.0000 0.0000
# 4 0.0000 0.0000 0.0000 12.7130 0.0000 0.0000
# 5 0.0000 0.0000 0.0000 0.0000 12.7130 0.0000
# 6 -2.8081 2.8081 0.0000 0.0000 0.0000 36.3429
#
#
#
# Elastic Compliance Matrix: (Units=1/GPa)
#
#
# Indices 1 2 3 4 5 6 
#
# 1 0.009726 -0.003478 -0.002590 0.000000 0.000000 0.001020
# 2 -0.003478 0.009726 -0.002590 0.000000 0.000000 -0.001020
# 3 -0.002590 -0.002590 0.027724 0.000000 0.000000 0.000000
# 4 0.000000 0.000000 0.000000 0.078659 0.000000 0.000000
# 5 0.000000 0.000000 0.000000 0.000000 0.078659 0.000000
# 6 0.001020 -0.001020 0.000000 0.000000 0.000000 0.027673
#
#
# Mechanical properties :
#
#
# Convention : Reuss Voigt Hill
#
# Bulk Modulus (GPa) = 33.48705 50.09685 41.79195
# Shear Modulus (GPa) = 19.27254 26.19937 22.73596
#
# Velocity S-wave (km/s) = 3.29528 3.84210 3.57915
# Velocity P-wave (km/s) = 5.77463 6.92161 6.37397
#
# Compressibility (1/GPa) = 0.02986229
#
# Stress axis : x y z
#
# Youngs Moduli (GPa) = 102.81779 102.81779 36.06930
#
# Poissons Ratio (x) = 0.35758 0.09340
# Poissons Ratio (y) = 0.35758 0.09340
# Poissons Ratio (z) = 0.26626 0.26626
#
# Static dielectric constant tensor:
#      x y z
#    x 3.500610 0.000000 0.000000 
#    y 0.000000 3.500610 0.000000 
#    z 0.000000 0.000000 2.742160 
# 
# 
# High freq. dielectric constant tensor:
#      x y z
#    x 1.703950 0.000000 0.000000 
#    y 0.000000 1.703950 0.000000 
#    z 0.000000 0.000000 1.619200 
# 
# From -- ./inp_files/1732.got.cif
#   From: 2010.03.12/outbox.cif.g09.slc.cpg/sg83_1_cif.got.tgz:1732.got - 2010.04.08 20:05:18.
