data_PCOD8302515
_publ_section_title
;
Structure prediction by ZEFSAII (Michael W. Deem and Ramdas Pophale) SiO2 
 PCOD8302515
Probable space group: I -4 
;
_chemical_formula_sum "Si O2"
_cell_formula_units_Z 48
_cell_length_a 9.586973
_cell_length_b 9.586973
_cell_length_c 27.198002
_cell_angle_alpha 90.000000
_cell_angle_beta 90.000000
_cell_angle_gamma 90.000000
_cell_volume 2499.769759
_symmetry_space_group_name_H-M "I -4 "
_symmetry_group_IT_number 82
_symmetry_cell_setting 'tetragonal'
loop_
_space_group_symop_operation_xyz
x,y,z
y,-x,-z
-x,-y,z
-y,x,-z
1/2+x,1/2+y,1/2+z
1/2+y,1/2-x,1/2-z
1/2-x,1/2-y,1/2+z
1/2-y,1/2+x,1/2-z
loop_
_atom_site_type_symbol
_atom_site_label
_atom_site_fract_x
_atom_site_fract_y
_atom_site_fract_z
Si Si1 0.131504 0.729691 0.321218
Si Si2 0.920062 0.634670 0.082940
Si Si3 0.500000 0.000000 0.750000
Si Si4 0.386139 0.390847 0.393852
Si Si5 0.500000 0.000000 0.250000
Si Si6 0.199906 0.895486 0.007494
Si Si7 0.000000 0.000000 0.722673
Si Si8 0.724459 0.547360 0.698248
O O1 0.087201 0.692054 0.376625
O O2 0.298490 0.748683 0.322207
O O3 0.081986 0.611552 0.283180
O O4 0.058421 0.876307 0.310791
O O5 0.000000 0.500000 0.063756
O O6 0.025038 0.741637 0.111267
O O7 0.840627 0.693190 0.034057
O O8 0.500000 0.500000 0.416096
O O9 0.375114 0.263532 0.434110
O O10 0.438915 0.337127 0.341475
O O11 0.476860 0.132697 0.284644
O O12 0.058470 0.809165 0.003476
O O13 0.061231 0.877739 0.755966
#
# Coordination Sequence:
#
# PCOD8302515 Si02
#       8
#     8   8   2   8   2   8   4   8
#     4  12  23  39  60  93 123 168 214 264 313 374
#     4  11  22  36  61  95 129 154 206 271 316 372
#     4  12  24  36  64  90 124 156 220 256 296 382
#     4  11  19  36  69  93 116 162 212 265 315 374
#     4  12  28  40  56  82 140 172 204 256 312 390
#     4   9  15  33  60  87 112 148 198 255 310 361
#     4  12  24  36  64  86 133 177 208 258 326 376
#     4  12  23  41  61  91 127 169 213 265 317 380
#
# _framework density 19.201768000000001
#
# number of rings (size 3 to 8) (size 9 to 14) (size 15 to 20)
#    0.000    0.833   10.000    0.000    0.000    1.333 
#    1.500    0.000    0.000    0.000    0.000    0.000 
#    0.000    0.000    0.000    0.000    0.000    0.000 
#
# Total GULP energy -297471.942692 kJ/mol
# GULP energy per Si atom -12394.664279 kJ/mol
# Density = 1.915806 g / cm^3
# Si number density = 19.201768 Si / 1000 Ang^3
#
#
#
# Elastic Constant Matrix: (Units=GPa)
#
#
# Indices 1 2 3 4 5 6 
#
# 1 76.3417 9.6266 27.5988 0.0000 0.0000 -0.7623
# 2 9.6266 76.3417 27.5988 0.0000 0.0000 0.7623
# 3 27.5988 27.5988 121.2197 0.0000 0.0000 0.0000
# 4 0.0000 0.0000 0.0000 17.4852 0.0000 0.0000
# 5 0.0000 0.0000 0.0000 0.0000 17.4852 0.0000
# 6 -0.7623 0.7623 0.0000 0.0000 0.0000 21.1781
#
#
#
# Elastic Compliance Matrix: (Units=1/GPa)
#
#
# Indices 1 2 3 4 5 6 
#
# 1 0.014313 -0.000689 -0.003102 0.000000 0.000000 0.000540
# 2 -0.000689 0.014313 -0.003102 0.000000 0.000000 -0.000540
# 3 -0.003102 -0.003102 0.009662 0.000000 0.000000 0.000000
# 4 0.000000 0.000000 0.000000 0.057191 0.000000 0.000000
# 5 0.000000 0.000000 0.000000 0.000000 0.057191 0.000000
# 6 0.000540 -0.000540 0.000000 0.000000 0.000000 0.047258
#
#
# Mechanical properties :
#
#
# Convention : Reuss Voigt Hill
#
# Bulk Modulus (GPa) = 40.81261 44.83905 42.82583
# Shear Modulus (GPa) = 22.53479 25.16830 23.85155
#
# Velocity S-wave (km/s) = 3.42947 3.62433 3.52824
# Velocity P-wave (km/s) = 6.08132 6.39660 6.24095
#
# Compressibility (1/GPa) = 0.02450223
#
# Stress axis : x y z
#
# Youngs Moduli (GPa) = 69.86845 69.86844 103.49938
#
# Poissons Ratio (x) = 0.04813 0.32103
# Poissons Ratio (y) = 0.04813 0.32103
# Poissons Ratio (z) = 0.21672 0.21672
#
# Static dielectric constant tensor:
#      x y z
#    x 3.395590 0.000000 0.000000 
#    y 0.000000 3.395590 0.000000 
#    z 0.000000 0.000000 3.756110 
# 
# 
# High freq. dielectric constant tensor:
#      x y z
#    x 1.728080 0.000000 0.000000 
#    y 0.000000 1.728080 0.000000 
#    z 0.000000 0.000000 1.761200 
# 
# From -- ./inp_files/4099.got.cif
#   From: 2010.03.12/outbox.cif.g09.slc.cpg/sg82_3_cif.got.tgz:4099.got - 2010.04.08 20:02:50.
