data_PCOD8302839
_publ_section_title
;
Structure prediction by ZEFSAII (Michael W. Deem and Ramdas Pophale) SiO2 
 PCOD8302839
Probable space group: P 4/M
;
_chemical_formula_sum "Si O2"
_cell_formula_units_Z 36
_cell_length_a 15.414552
_cell_length_b 15.414552
_cell_length_c 7.572058
_cell_angle_alpha 90.000000
_cell_angle_beta 90.000000
_cell_angle_gamma 90.000000
_cell_volume 1799.184687
_symmetry_space_group_name_H-M "P 4/M"
_symmetry_group_IT_number 83
_symmetry_cell_setting 'tetragonal'
loop_
_space_group_symop_operation_xyz
x,y,z
-y,x,z
-x,-y,z
y,-x,z
-x,-y,-z
y,-x,-z
x,y,-z
-y,x,-z
loop_
_atom_site_type_symbol
_atom_site_label
_atom_site_fract_x
_atom_site_fract_y
_atom_site_fract_z
Si Si1 0.756141 0.630621 0.297103
Si Si2 0.626389 0.570556 0.000000
Si Si3 0.991671 0.250497 0.792391
Si Si4 0.823982 0.812016 0.792686
Si Si5 0.571866 0.059394 0.698635
O O1 0.737444 0.602881 0.500000
O O2 0.676575 0.600502 0.176144
O O3 0.769380 0.734507 0.295812
O O4 0.844872 0.587037 0.217841
O O5 0.533135 0.617021 0.000000
O O6 0.074139 0.190771 0.745288
O O7 0.003338 0.341365 0.696368
O O8 0.904016 0.208145 0.717900
O O9 0.985858 0.266821 0.000000
O O10 0.808545 0.804115 0.000000
O O11 0.540218 0.076366 0.500000
O O12 0.500000 0.000000 0.799131
#
# Coordination Sequence:
#
# PCOD8302839 Si02
#       5
#     8   4   8   8   8
#     4  10  21  40  64  87 118 157 192 237 295 349
#     4  11  26  46  65  88 118 147 189 246 292 352
#     4   9  18  30  50  77 112 155 193 235 283 337
#     4   9  17  33  53  82 119 156 198 238 283 336
#     4   9  19  35  54  82 116 146 189 243 290 343
#
# _framework density 20.009062
#
# number of rings (size 3 to 8) (size 9 to 14) (size 15 to 20)
#    0.000    2.556    1.111    0.000    1.556    4.444 
#    0.000    5.556    0.000    0.000    0.000    6.222 
#    0.000    0.000    0.000    0.000    0.000    0.000 
#
# Total GULP energy -446197.944503 kJ/mol
# GULP energy per Si atom -12394.387347 kJ/mol
# Density = 1.996352 g / cm^3
# Si number density = 20.009062 Si / 1000 Ang^3
#
#
#
# Elastic Constant Matrix: (Units=GPa)
#
#
# Indices 1 2 3 4 5 6 
#
# 1 119.9943 77.5237 38.5397 0.0000 0.0000 19.3556
# 2 77.5237 119.9943 38.5397 0.0000 0.0000 -19.3556
# 3 38.5397 38.5397 67.4496 0.0000 0.0000 0.0000
# 4 0.0000 0.0000 0.0000 10.2456 0.0000 0.0000
# 5 0.0000 0.0000 0.0000 0.0000 10.2456 0.0000
# 6 19.3556 -19.3556 0.0000 0.0000 0.0000 31.3700
#
#
#
# Elastic Compliance Matrix: (Units=1/GPa)
#
#
# Indices 1 2 3 4 5 6 
#
# 1 0.030161 -0.023645 -0.003723 0.000000 0.000000 -0.033199
# 2 -0.023645 0.030161 -0.003723 0.000000 0.000000 0.033199
# 3 -0.003723 -0.003723 0.019080 0.000000 0.000000 0.000000
# 4 0.000000 0.000000 0.000000 0.097603 0.000000 0.000000
# 5 0.000000 0.000000 0.000000 0.000000 0.097603 0.000000
# 6 -0.033199 0.033199 0.000000 0.000000 0.000000 0.072846
#
#
# Mechanical properties :
#
#
# Convention : Reuss Voigt Hill
#
# Bulk Modulus (GPa) = 58.07242 68.51605 63.29424
# Shear Modulus (GPa) = 12.03729 20.56124 16.29927
#
# Velocity S-wave (km/s) = 2.45540 3.20909 2.85721
# Velocity P-wave (km/s) = 6.09300 6.93166 6.52582
#
# Compressibility (1/GPa) = 0.01721988
#
# Stress axis : x y z
#
# Youngs Moduli (GPa) = 33.15562 33.15562 52.40990
#
# Poissons Ratio (x) = 0.78397 0.19512
# Poissons Ratio (y) = 0.78397 0.19512
# Poissons Ratio (z) = 0.12344 0.12344
#
# Static dielectric constant tensor:
#      x y z
#    x 3.749930 0.000000 0.000000 
#    y 0.000000 3.749930 0.000000 
#    z 0.000000 0.000000 3.447380 
# 
# 
# High freq. dielectric constant tensor:
#      x y z
#    x 1.776840 0.000000 0.000000 
#    y 0.000000 1.776840 0.000000 
#    z 0.000000 0.000000 1.773360 
# 
# From -- ./inp_files/547.got.cif
#   From: 2010.03.12/outbox.cif.g09.slc.cpg/sg83_1_cif.got.tgz:547.got - 2010.04.08 20:05:18.
