data_PCOD8302178
_publ_section_title
;
Structure prediction by ZEFSAII (Michael W. Deem and Ramdas Pophale) SiO2 
 PCOD8302178
Probable space group: I 41
;
_chemical_formula_sum "Si O2"
_cell_formula_units_Z 32
_cell_length_a 16.375232
_cell_length_b 16.375232
_cell_length_c 5.323071
_cell_angle_alpha 90.000000
_cell_angle_beta 90.000000
_cell_angle_gamma 90.000000
_cell_volume 1427.372030
_symmetry_space_group_name_H-M "I 41"
_symmetry_group_IT_number 80
_symmetry_cell_setting 'tetragonal'
loop_
_space_group_symop_operation_xyz
x,y,z
-y,1/2+x,1/4+z
-x,-y,z
y,1/2-x,1/4+z
1/2+x,1/2+y,1/2+z
1/2-y,x,3/4+z
1/2-x,1/2-y,1/2+z
1/2+y,-x,3/4+z
loop_
_atom_site_type_symbol
_atom_site_label
_atom_site_fract_x
_atom_site_fract_y
_atom_site_fract_z
Si Si1 0.203530 0.480725 0.672490
Si Si2 0.973536 0.630261 0.218729
Si Si3 0.649951 0.820424 0.327148
Si Si4 0.469240 0.626850 0.443912
O O1 0.302223 0.466341 0.694467
O O2 0.157666 0.393093 0.620411
O O3 0.187839 0.540014 0.432784
O O4 0.172622 0.521515 0.929389
O O5 0.926798 0.547094 0.271665
O O6 0.069003 0.610005 0.172655
O O7 0.935113 0.673543 0.974460
O O8 0.727469 0.843011 0.500856
#
# Coordination Sequence:
#
# PCOD8302178 Si02
#       4
#     8   8   8   8
#     4  11  22  39  60  86 120 159 196 244 296 347
#     4  10  21  39  60  86 123 158 196 247 294 347
#     4  11  21  35  58  93 128 162 194 233 294 370
#     4  10  24  38  60  91 117 155 204 241 292 359
#
# _framework density 22.418821000000001
#
# number of rings (size 3 to 8) (size 9 to 14) (size 15 to 20)
#    0.000    1.500    0.000    6.000    0.000   14.000 
#    0.000    0.000    0.000    3.000    0.000    0.000 
#    0.000    0.000    0.000    0.000    0.000    0.000 
#
# Total GULP energy -198273.159714 kJ/mol
# GULP energy per Si atom -12392.072482 kJ/mol
# Density = 2.236780 g / cm^3
# Si number density = 22.418821 Si / 1000 Ang^3
#
#
#
# Elastic Constant Matrix: (Units=GPa)
#
#
# Indices 1 2 3 4 5 6 
#
# 1 71.5607 33.6974 40.8545 0.0000 0.0000 -7.7344
# 2 33.6974 71.5607 40.8545 0.0000 0.0000 7.7344
# 3 40.8545 40.8545 120.0943 0.0000 0.0000 0.0000
# 4 0.0000 0.0000 0.0000 23.1228 0.0000 0.0000
# 5 0.0000 0.0000 0.0000 0.0000 23.1228 0.0000
# 6 -7.7344 7.7344 0.0000 0.0000 0.0000 29.0878
#
#
#
# Elastic Compliance Matrix: (Units=1/GPa)
#
#
# Indices 1 2 3 4 5 6 
#
# 1 0.021270 -0.008360 -0.004392 0.000000 0.000000 0.007878
# 2 -0.008360 0.021270 -0.004392 0.000000 0.000000 -0.007878
# 3 -0.004392 -0.004392 0.011315 0.000000 0.000000 0.000000
# 4 0.000000 0.000000 0.000000 0.043247 0.000000 0.000000
# 5 0.000000 0.000000 0.000000 0.000000 0.043247 0.000000
# 6 0.007878 -0.007878 0.000000 0.000000 0.000000 0.038568
#
#
# Mechanical properties :
#
#
# Convention : Reuss Voigt Hill
#
# Bulk Modulus (GPa) = 51.10577 54.89205 52.99891
# Shear Modulus (GPa) = 22.75562 24.92064 23.83813
#
# Velocity S-wave (km/s) = 3.18940 3.33768 3.26438
# Velocity P-wave (km/s) = 6.03394 6.27626 6.15629
#
# Compressibility (1/GPa) = 0.01956726
#
# Stress axis : x y z
#
# Youngs Moduli (GPa) = 47.01561 47.01561 88.38011
#
# Poissons Ratio (x) = 0.39305 0.38814
# Poissons Ratio (y) = 0.39305 0.38814
# Poissons Ratio (z) = 0.20648 0.20648
#
# Static dielectric constant tensor:
#      x y z
#    x 4.282670 0.000000 0.000000 
#    y 0.000000 4.282670 0.000000 
#    z 0.000000 0.000000 3.878190 
# 
# 
# High freq. dielectric constant tensor:
#      x y z
#    x 1.868890 0.000000 0.000000 
#    y 0.000000 1.868890 0.000000 
#    z 0.000000 0.000000 1.886770 
# 
# From -- ./inp_files/155.got.cif
#   From: 2010.03.12/outbox.cif.g09.slc.cpg/sg80_cif.got.tgz:155.got - 2010.04.08 20:00:04.
