data_PCOD8302577
_publ_section_title
;
Structure prediction by ZEFSAII (Michael W. Deem and Ramdas Pophale) SiO2 
 PCOD8302577
Probable space group: I -4 
;
_chemical_formula_sum "Si O2"
_cell_formula_units_Z 40
_cell_length_a 15.354194
_cell_length_b 15.354194
_cell_length_c 7.742374
_cell_angle_alpha 90.000000
_cell_angle_beta 90.000000
_cell_angle_gamma 90.000000
_cell_volume 1825.274530
_symmetry_space_group_name_H-M "I -4 "
_symmetry_group_IT_number 82
_symmetry_cell_setting 'tetragonal'
loop_
_space_group_symop_operation_xyz
x,y,z
y,-x,-z
-x,-y,z
-y,x,-z
1/2+x,1/2+y,1/2+z
1/2+y,1/2-x,1/2-z
1/2-x,1/2-y,1/2+z
1/2-y,1/2+x,1/2-z
loop_
_atom_site_type_symbol
_atom_site_label
_atom_site_fract_x
_atom_site_fract_y
_atom_site_fract_z
Si Si1 0.637556 0.780702 0.895647
Si Si2 0.311493 0.378837 0.398031
Si Si3 0.625941 0.067411 0.267361
Si Si4 0.750532 0.435205 0.457925
Si Si5 0.400336 0.594984 0.959543
O O1 0.735388 0.810409 0.854078
O O2 0.579419 0.798171 0.725249
O O3 0.595335 0.835409 0.049583
O O4 0.639586 0.678094 0.936819
O O5 0.377171 0.336888 0.536834
O O6 0.270652 0.463858 0.484697
O O7 0.365070 0.406086 0.229914
O O8 0.535873 0.115639 0.233381
O O9 0.689802 0.097143 0.115215
O O10 0.490972 0.615211 0.057035
#
# Coordination Sequence:
#
# PCOD8302577 Si02
#       5
#     8   8   8   8   8
#     4  12  26  48  76 109 150 195 247 308 374 444
#     4  12  27  49  71 111 145 197 246 310 368 445
#     4  11  26  48  76 111 152 196 244 305 372 446
#     4  12  28  45  77 108 148 191 249 305 373 447
#     4  11  25  47  75 108 147 197 244 308 375 437
#
# _framework density 21.914512999999999
#
# number of rings (size 3 to 8) (size 9 to 14) (size 15 to 20)
#    0.000    0.400    6.000    1.200    5.600    2.000 
#    0.000    2.000    0.000    0.000    0.000    0.000 
#    0.000    0.000    0.000    0.000    0.000    0.000 
#
# Total GULP energy -248138.121734 kJ/mol
# GULP energy per Si atom -12406.906087 kJ/mol
# Density = 2.186463 g / cm^3
# Si number density = 21.914513 Si / 1000 Ang^3
#
#
#
# Elastic Constant Matrix: (Units=GPa)
#
#
# Indices 1 2 3 4 5 6 
#
# 1 121.5927 46.9939 37.0324 0.0000 0.0000 3.2535
# 2 46.9939 121.5927 37.0324 0.0000 0.0000 -3.2535
# 3 37.0324 37.0324 145.7264 0.0000 0.0000 0.0000
# 4 0.0000 0.0000 0.0000 32.2488 0.0000 0.0000
# 5 0.0000 0.0000 0.0000 0.0000 32.2488 0.0000
# 6 3.2535 -3.2535 0.0000 0.0000 0.0000 31.2036
#
#
#
# Elastic Compliance Matrix: (Units=1/GPa)
#
#
# Indices 1 2 3 4 5 6 
#
# 1 0.010103 -0.003425 -0.001697 0.000000 0.000000 -0.001411
# 2 -0.003425 0.010103 -0.001697 0.000000 0.000000 0.001411
# 3 -0.001697 -0.001697 0.007725 0.000000 0.000000 0.000000
# 4 0.000000 0.000000 0.000000 0.031009 0.000000 0.000000
# 5 0.000000 0.000000 0.000000 0.000000 0.031009 0.000000
# 6 -0.001411 0.001411 0.000000 0.000000 0.000000 0.032342
#
#
# Mechanical properties :
#
#
# Convention : Reuss Voigt Hill
#
# Bulk Modulus (GPa) = 69.97123 70.11433 70.04278
# Shear Modulus (GPa) = 35.53878 36.99711 36.26794
#
# Velocity S-wave (km/s) = 4.03140 4.11329 4.07255
# Velocity P-wave (km/s) = 7.32585 7.39072 7.35836
#
# Compressibility (1/GPa) = 0.01429159
#
# Stress axis : x y z
#
# Youngs Moduli (GPa) = 98.98439 98.98439 129.45708
#
# Poissons Ratio (x) = 0.33907 0.21966
# Poissons Ratio (y) = 0.33907 0.21966
# Poissons Ratio (z) = 0.16796 0.16796
#
# Static dielectric constant tensor:
#      x y z
#    x 4.089140 0.000000 0.000000 
#    y 0.000000 4.089140 0.000000 
#    z 0.000000 0.000000 3.884200 
# 
# 
# High freq. dielectric constant tensor:
#      x y z
#    x 1.872420 0.000000 0.000000 
#    y 0.000000 1.872420 0.000000 
#    z 0.000000 0.000000 1.866930 
# 
# From -- ./inp_files/933.got.cif
#   From: 2010.03.12/outbox.cif.g09.slc.cpg/sg82_1_cif.got.tgz:933.got - 2010.04.08 20:02:50.
