data_PCOD8302201
_publ_section_title
;
Structure prediction by ZEFSAII (Michael W. Deem and Ramdas Pophale) SiO2 
 PCOD8302201
Probable space group: I 41
;
_chemical_formula_sum "Si O2"
_cell_formula_units_Z 40
_cell_length_a 16.371929
_cell_length_b 16.371929
_cell_length_c 6.327570
_cell_angle_alpha 90.000000
_cell_angle_beta 90.000000
_cell_angle_gamma 90.000000
_cell_volume 1696.042237
_symmetry_space_group_name_H-M "I 41"
_symmetry_group_IT_number 80
_symmetry_cell_setting 'tetragonal'
loop_
_space_group_symop_operation_xyz
x,y,z
-y,1/2+x,1/4+z
-x,-y,z
y,1/2-x,1/4+z
1/2+x,1/2+y,1/2+z
1/2-y,x,3/4+z
1/2-x,1/2-y,1/2+z
1/2+y,-x,3/4+z
loop_
_atom_site_type_symbol
_atom_site_label
_atom_site_fract_x
_atom_site_fract_y
_atom_site_fract_z
Si Si1 0.144714 0.793947 0.646190
Si Si2 0.254986 0.364003 0.429685
Si Si3 0.098348 0.566236 0.203590
Si Si4 0.088281 0.077017 0.739106
Si Si5 0.998259 0.149469 0.374854
O O1 0.169608 0.704355 0.718521
O O2 0.138967 0.844193 0.867417
O O3 0.056762 0.798353 0.536275
O O4 0.305482 0.317548 0.609403
O O5 0.320567 0.386121 0.245570
O O6 0.219114 0.447369 0.519413
O O7 0.129604 0.475803 0.130118
O O8 0.100374 0.560013 0.458282
O O9 0.012494 0.585803 0.092052
O O10 0.054773 0.082562 0.497678
#
# Coordination Sequence:
#
# PCOD8302201 Si02
#       5
#     8   8   8   8   8
#     4  11  29  45  72 108 147 188 250 317 385 452
#     4  12  25  44  74 110 154 192 248 307 379 452
#     4  10  24  47  73 104 143 196 253 309 369 458
#     4  10  24  45  72 107 145 192 256 304 367 456
#     4  11  26  48  74 111 144 207 245 312 387 448
#
# _framework density 23.584318
#
# number of rings (size 3 to 8) (size 9 to 14) (size 15 to 20)
#    0.000    1.200    2.000    1.200    8.400    8.000 
#    0.000    0.000    0.000    0.000    0.000    0.000 
#    0.000    0.000    0.000    0.000    0.000    0.000 
#
# Total GULP energy -247808.659336 kJ/mol
# GULP energy per Si atom -12390.432967 kJ/mol
# Density = 2.353064 g / cm^3
# Si number density = 23.584318 Si / 1000 Ang^3
#
#
#
# Elastic Constant Matrix: (Units=GPa)
#
#
# Indices 1 2 3 4 5 6 
#
# 1 83.1330 61.0898 46.5631 0.0000 0.0000 -2.7738
# 2 61.0898 83.1330 46.5631 0.0000 0.0000 2.7738
# 3 46.5631 46.5631 136.7196 0.0000 0.0000 0.0000
# 4 0.0000 0.0000 0.0000 43.7046 0.0000 0.0000
# 5 0.0000 0.0000 0.0000 0.0000 43.7046 0.0000
# 6 -2.7738 2.7738 0.0000 0.0000 0.0000 37.0155
#
#
#
# Elastic Compliance Matrix: (Units=1/GPa)
#
#
# Indices 1 2 3 4 5 6 
#
# 1 0.027563 -0.018675 -0.003027 0.000000 0.000000 0.003465
# 2 -0.018675 0.027563 -0.003027 0.000000 0.000000 -0.003465
# 3 -0.003027 -0.003027 0.009376 0.000000 0.000000 0.000000
# 4 0.000000 0.000000 0.000000 0.022881 0.000000 0.000000
# 5 0.000000 0.000000 0.000000 0.000000 0.022881 0.000000
# 6 0.003465 -0.003465 0.000000 0.000000 0.000000 0.027535
#
#
# Mechanical properties :
#
#
# Convention : Reuss Voigt Hill
#
# Bulk Modulus (GPa) = 66.47020 67.93531 67.20275
# Shear Modulus (GPa) = 26.00491 34.80291 30.40391
#
# Velocity S-wave (km/s) = 3.32420 3.84563 3.59438
# Velocity P-wave (km/s) = 6.55584 6.97039 6.76629
#
# Compressibility (1/GPa) = 0.01504434
#
# Stress axis : x y z
#
# Youngs Moduli (GPa) = 36.28057 36.28057 106.65331
#
# Poissons Ratio (x) = 0.67752 0.32286
# Poissons Ratio (y) = 0.67752 0.32286
# Poissons Ratio (z) = 0.10983 0.10983
#
# Static dielectric constant tensor:
#      x y z
#    x 4.303970 0.000000 0.000000 
#    y 0.000000 4.303970 0.000000 
#    z 0.000000 0.000000 4.355720 
# 
# 
# High freq. dielectric constant tensor:
#      x y z
#    x 1.931430 0.000000 0.000000 
#    y 0.000000 1.931430 0.000000 
#    z 0.000000 0.000000 1.936660 
# 
# From -- ./inp_files/197.got.cif
#   From: 2010.03.12/outbox.cif.g09.slc.cpg/sg80_cif.got.tgz:197.got - 2010.04.08 20:00:04.
