data_PCOD8302503
_publ_section_title
;
Structure prediction by ZEFSAII (Michael W. Deem and Ramdas Pophale) SiO2 
 PCOD8302503
Probable space group: I -4 
;
_chemical_formula_sum "Si O2"
_cell_formula_units_Z 44
_cell_length_a 8.368174
_cell_length_b 8.368174
_cell_length_c 26.082352
_cell_angle_alpha 90.000000
_cell_angle_beta 90.000000
_cell_angle_gamma 90.000000
_cell_volume 1826.451547
_symmetry_space_group_name_H-M "I -4 "
_symmetry_group_IT_number 82
_symmetry_cell_setting 'tetragonal'
loop_
_space_group_symop_operation_xyz
x,y,z
y,-x,-z
-x,-y,z
-y,x,-z
1/2+x,1/2+y,1/2+z
1/2+y,1/2-x,1/2-z
1/2-x,1/2-y,1/2+z
1/2-y,1/2+x,1/2-z
loop_
_atom_site_type_symbol
_atom_site_label
_atom_site_fract_x
_atom_site_fract_y
_atom_site_fract_z
Si Si1 0.824497 0.458576 0.938532
Si Si2 0.000000 0.500000 0.750000
Si Si3 0.633495 0.600448 0.602334
Si Si4 0.317472 0.945122 0.814089
Si Si5 0.826765 0.338469 0.660679
Si Si6 0.000000 0.000000 0.500000
Si Si7 0.512216 0.681310 0.794287
O O1 0.819953 0.265653 0.933880
O O2 0.814573 0.542668 0.883579
O O3 0.666859 0.513718 0.969073
O O4 0.000000 0.500000 0.963996
O O5 0.912120 0.372313 0.714365
O O6 0.500000 0.500000 0.569937
O O7 0.524294 0.732443 0.631556
O O8 0.709990 0.481612 0.644965
O O9 0.346987 0.752967 0.815569
O O10 0.203262 0.987146 0.766826
O O11 0.500000 0.000000 0.804613
O O12 0.737363 0.169133 0.675419
O O13 0.500000 0.500000 0.810612
#
# Coordination Sequence:
#
# PCOD8302503 Si02
#       7
#     8   2   8   8   8   2   8
#     4  10  25  54  78 121 152 193 265 332 397 498
#     4  12  20  40  68 104 152 216 244 304 376 462
#     4  11  23  43  70 102 149 193 244 323 382 460
#     4  12  24  40  53  91 142 195 255 300 362 445
#     4  11  24  42  70 101 149 197 256 302 376 471
#     4  12  28  56  96 112 164 208 264 356 428 462
#     4  12  25  36  57  88 133 198 247 306 360 436
#
# _framework density 24.090430999999999
#
# number of rings (size 3 to 8) (size 9 to 14) (size 15 to 20)
#    0.000    0.727    4.545    3.818    8.909    0.000 
#    6.545    0.000    0.000    0.000    0.000    0.000 
#    0.000    0.000    0.000    0.000    0.000    0.000 
#
# Total GULP energy -272552.273081 kJ/mol
# GULP energy per Si atom -12388.739685 kJ/mol
# Density = 2.403560 g / cm^3
# Si number density = 24.090431 Si / 1000 Ang^3
#
#
#
# Elastic Constant Matrix: (Units=GPa)
#
#
# Indices 1 2 3 4 5 6 
#
# 1 85.4018 9.3492 28.1854 0.0000 0.0000 2.0808
# 2 9.3492 85.4018 28.1854 0.0000 0.0000 -2.0808
# 3 28.1854 28.1854 56.3240 0.0000 0.0000 0.0000
# 4 0.0000 0.0000 0.0000 19.9232 0.0000 0.0000
# 5 0.0000 0.0000 0.0000 0.0000 19.9232 0.0000
# 6 2.0808 -2.0808 0.0000 0.0000 0.0000 47.1272
#
#
#
# Elastic Compliance Matrix: (Units=1/GPa)
#
#
# Indices 1 2 3 4 5 6 
#
# 1 0.014104 0.000924 -0.007520 0.000000 0.000000 -0.000582
# 2 0.000924 0.014104 -0.007520 0.000000 0.000000 0.000582
# 3 -0.007520 -0.007520 0.025281 0.000000 0.000000 0.000000
# 4 0.000000 0.000000 0.000000 0.050193 0.000000 0.000000
# 5 0.000000 0.000000 0.000000 0.000000 0.050193 0.000000
# 6 -0.000582 0.000582 0.000000 0.000000 0.000000 0.021271
#
#
# Mechanical properties :
#
#
# Convention : Reuss Voigt Hill
#
# Bulk Modulus (GPa) = 39.59460 39.84085 39.71772
# Shear Modulus (GPa) = 23.60740 28.15524 25.88132
#
# Velocity S-wave (km/s) = 3.13381 3.42238 3.28127
# Velocity P-wave (km/s) = 5.43745 5.67370 5.55683
#
# Compressibility (1/GPa) = 0.02525597
#
# Stress axis : x y z
#
# Youngs Moduli (GPa) = 70.90004 70.90005 39.55542
#
# Poissons Ratio (x) = -0.06549 0.29747
# Poissons Ratio (y) = -0.06549 0.29747
# Poissons Ratio (z) = 0.53319 0.53319
#
# Static dielectric constant tensor:
#      x y z
#    x 5.309130 0.000000 0.000000 
#    y 0.000000 5.309130 0.000000 
#    z 0.000000 0.000000 3.649240 
# 
# 
# High freq. dielectric constant tensor:
#      x y z
#    x 1.988100 0.000000 0.000000 
#    y 0.000000 1.988100 0.000000 
#    z 0.000000 0.000000 1.891510 
# 
# From -- ./inp_files/3975.got.cif
#   From: 2010.03.12/outbox.cif.g09.slc.cpg/sg82_2_cif.got.tgz:3975.got - 2010.04.08 20:02:50.
