data_PCOD8302338
_publ_section_title
;
Structure prediction by ZEFSAII (Michael W. Deem and Ramdas Pophale) SiO2 
 PCOD8302338
Probable space group: P -4
;
_chemical_formula_sum "Si O2"
_cell_formula_units_Z 15
_cell_length_a 8.492580
_cell_length_b 8.492580
_cell_length_c 7.366641
_cell_angle_alpha 90.000000
_cell_angle_beta 90.000000
_cell_angle_gamma 90.000000
_cell_volume 531.310990
_symmetry_space_group_name_H-M "P -4"
_symmetry_group_IT_number 81
_symmetry_cell_setting 'tetragonal'
loop_
_space_group_symop_operation_xyz
x,y,z
y,-x,-z
-x,-y,z
-y,x,-z
loop_
_atom_site_type_symbol
_atom_site_label
_atom_site_fract_x
_atom_site_fract_y
_atom_site_fract_z
Si Si1 0.000000 0.000000 0.500000
Si Si2 0.700216 0.229205 0.111108
Si Si3 0.104446 0.722328 0.756840
Si Si4 0.429870 0.168639 0.596505
Si Si5 0.500000 0.500000 0.500000
Si Si6 0.500000 0.500000 0.000000
O O1 0.126317 0.079634 0.368878
O O2 0.818839 0.278008 0.273279
O O3 0.651263 0.051502 0.149759
O O4 0.774404 0.232271 0.912390
O O5 0.545573 0.342235 0.113893
O O6 0.168176 0.591272 0.619660
O O7 0.527869 0.335656 0.618687
O O8 0.500000 0.000000 0.658659
#
# Coordination Sequence:
#
# PCOD8302338 Si02
#       6
#     1   4   4   4   1   1
#     4  12  24  54  80 120 162 224 288 374 452 532
#     4  12  30  52  81 122 166 223 292 362 447 534
#     4  12  28  50  82 118 165 222 286 364 445 532
#     4  12  30  51  84 124 171 229 292 366 449 534
#     4  12  30  56  86 130 180 234 298 372 450 546
#     4  12  34  52  86 122 172 234 294 372 446 538
#
# _framework density 28.232051999999999
#
# number of rings (size 3 to 8) (size 9 to 14) (size 15 to 20)
#    0.000    0.000    2.667    4.000   14.933    0.000 
#    0.000    0.000    0.000    0.000    0.000    0.000 
#    0.000    0.000    0.000    0.000    0.000    0.000 
#
# Total GULP energy -185847.535861 kJ/mol
# GULP energy per Si atom -12389.835724 kJ/mol
# Density = 2.816779 g / cm^3
# Si number density = 28.232052 Si / 1000 Ang^3
#
#
#
# Elastic Constant Matrix: (Units=GPa)
#
#
# Indices 1 2 3 4 5 6 
#
# 1 131.4741 34.3577 26.2278 0.0000 0.0000 8.2969
# 2 34.3577 131.4741 26.2278 0.0000 0.0000 -8.2969
# 3 26.2278 26.2278 165.8450 0.0000 0.0000 0.0000
# 4 0.0000 0.0000 0.0000 41.5641 0.0000 0.0000
# 5 0.0000 0.0000 0.0000 0.0000 41.5641 0.0000
# 6 8.2969 -8.2969 0.0000 0.0000 0.0000 44.3939
#
#
#
# Elastic Compliance Matrix: (Units=1/GPa)
#
#
# Indices 1 2 3 4 5 6 
#
# 1 0.008492 -0.002144 -0.001004 0.000000 0.000000 -0.001988
# 2 -0.002144 0.008492 -0.001004 0.000000 0.000000 0.001988
# 3 -0.001004 -0.001004 0.006347 0.000000 0.000000 0.000000
# 4 0.000000 0.000000 0.000000 0.024059 0.000000 0.000000
# 5 0.000000 0.000000 0.000000 0.000000 0.024059 0.000000
# 6 -0.001988 0.001988 0.000000 0.000000 0.000000 0.023269
#
#
# Mechanical properties :
#
#
# Convention : Reuss Voigt Hill
#
# Bulk Modulus (GPa) = 66.54582 66.93557 66.74069
# Shear Modulus (GPa) = 46.28252 48.30306 47.29279
#
# Velocity S-wave (km/s) = 4.05329 4.14083 4.09729
# Velocity P-wave (km/s) = 6.74743 6.82806 6.78787
#
# Compressibility (1/GPa) = 0.01502724
#
# Stress axis : x y z
#
# Youngs Moduli (GPa) = 117.75557 117.75557 157.54867
#
# Poissons Ratio (x) = 0.25252 0.15816
# Poissons Ratio (y) = 0.25252 0.15816
# Poissons Ratio (z) = 0.11821 0.11821
#
# Static dielectric constant tensor:
#      x y z
#    x 5.372600 0.000000 0.000000 
#    y 0.000000 5.372600 0.000000 
#    z 0.000000 0.000000 5.203820 
# 
# 
# High freq. dielectric constant tensor:
#      x y z
#    x 2.148740 0.000000 0.000000 
#    y 0.000000 2.148740 0.000000 
#    z 0.000000 0.000000 2.160770 
# 
# From -- ./inp_files/557.got.cif
#   From: 2010.03.12/outbox.cif.g09.slc.cpg/sg81_cif.got.tgz:557.got - 2010.04.08 20:01:38.
