data_PCOD8302918
_publ_section_title
;
Structure prediction by ZEFSAII (Michael W. Deem and Ramdas Pophale) SiO2 
 PCOD8302918
Probable space group: P 4/M
;
_chemical_formula_sum "Si O2"
_cell_formula_units_Z 40
_cell_length_a 14.873333
_cell_length_b 14.873333
_cell_length_c 8.451951
_cell_angle_alpha 90.000000
_cell_angle_beta 90.000000
_cell_angle_gamma 90.000000
_cell_volume 1869.707084
_symmetry_space_group_name_H-M "P 4/M"
_symmetry_group_IT_number 83
_symmetry_cell_setting 'tetragonal'
loop_
_space_group_symop_operation_xyz
x,y,z
-y,x,z
-x,-y,z
y,-x,z
-x,-y,-z
y,-x,-z
x,y,-z
-y,x,-z
loop_
_atom_site_type_symbol
_atom_site_label
_atom_site_fract_x
_atom_site_fract_y
_atom_site_fract_z
Si Si1 0.446727 0.091029 0.315679
Si Si2 0.112304 0.218007 0.316903
Si Si3 0.753658 0.924899 0.814896
Si Si4 0.812477 0.607806 0.184678
Si Si5 0.428596 0.619699 0.187649
O O1 0.443187 0.113382 0.500000
O O2 0.345848 0.090045 0.251533
O O3 0.504085 0.166272 0.224149
O O4 0.500000 0.000000 0.279901
O O5 0.124178 0.194875 0.500000
O O6 0.184229 0.161326 0.217454
O O7 0.127107 0.324094 0.285962
O O8 0.010385 0.197209 0.264844
O O9 0.746285 0.941956 0.000000
O O10 0.709246 0.624172 0.238727
O O11 0.828284 0.626858 0.000000
O O12 0.378360 0.531522 0.253460
O O13 0.435406 0.617776 0.000000
#
# Coordination Sequence:
#
# PCOD8302918 Si02
#       5
#     8   8   8   8   8
#     4  11  23  41  65  93 131 172 211 261 329 388
#     4  12  26  46  68  96 135 174 215 269 340 403
#     4  12  26  46  72 101 130 169 224 277 325 391
#     4  11  22  36  62  96 128 169 222 273 321 386
#     4   8  16  32  53  82 122 165 210 263 316 370
#
# _framework density 21.393726999999998
#
# number of rings (size 3 to 8) (size 9 to 14) (size 15 to 20)
#    0.000    1.200    2.000    5.400    2.800    1.200 
#    0.000    2.000    0.000    0.000    0.000    5.600 
#    0.000    0.000    0.000    0.000    0.000    0.000 
#
# Total GULP energy -496033.759682 kJ/mol
# GULP energy per Si atom -12400.843992 kJ/mol
# Density = 2.134503 g / cm^3
# Si number density = 21.393727 Si / 1000 Ang^3
#
#
#
# Elastic Constant Matrix: (Units=GPa)
#
#
# Indices 1 2 3 4 5 6 
#
# 1 91.1139 31.1556 17.1397 0.0000 0.0000 1.8480
# 2 31.1556 91.1139 17.1397 0.0000 0.0000 -1.8480
# 3 17.1397 17.1397 75.8517 0.0000 0.0000 0.0000
# 4 0.0000 0.0000 0.0000 28.1689 0.0000 0.0000
# 5 0.0000 0.0000 0.0000 0.0000 28.1689 0.0000
# 6 1.8480 -1.8480 0.0000 0.0000 0.0000 34.5172
#
#
#
# Elastic Compliance Matrix: (Units=1/GPa)
#
#
# Indices 1 2 3 4 5 6 
#
# 1 0.012733 -0.004001 -0.001973 0.000000 0.000000 -0.000896
# 2 -0.004001 0.012733 -0.001973 0.000000 0.000000 0.000896
# 3 -0.001973 -0.001973 0.014075 0.000000 0.000000 0.000000
# 4 0.000000 0.000000 0.000000 0.035500 0.000000 0.000000
# 5 0.000000 0.000000 0.000000 0.000000 0.035500 0.000000
# 6 -0.000896 0.000896 0.000000 0.000000 0.000000 0.029067
#
#
# Mechanical properties :
#
#
# Convention : Reuss Voigt Hill
#
# Bulk Modulus (GPa) = 42.28928 43.21662 42.75295
# Shear Modulus (GPa) = 30.60274 31.01396 30.80835
#
# Velocity S-wave (km/s) = 3.78624 3.81159 3.79894
# Velocity P-wave (km/s) = 6.23892 6.29408 6.26656
#
# Compressibility (1/GPa) = 0.02364665
#
# Stress axis : x y z
#
# Youngs Moduli (GPa) = 78.53815 78.53815 71.04646
#
# Poissons Ratio (x) = 0.31422 0.14018
# Poissons Ratio (y) = 0.31422 0.14018
# Poissons Ratio (z) = 0.15496 0.15496
#
# Static dielectric constant tensor:
#      x y z
#    x 4.061930 0.000000 0.000000 
#    y 0.000000 4.061930 0.000000 
#    z 0.000000 0.000000 3.651020 
# 
# 
# High freq. dielectric constant tensor:
#      x y z
#    x 1.845690 0.000000 0.000000 
#    y 0.000000 1.845690 0.000000 
#    z 0.000000 0.000000 1.827700 
# 
# From -- ./inp_files/666.got.cif
#   From: 2010.03.12/outbox.cif.g09.slc.cpg/sg83_1_cif.got.tgz:666.got - 2010.04.08 20:05:18.
