data_PCOD8302615
_publ_section_title
;
Structure prediction by ZEFSAII (Michael W. Deem and Ramdas Pophale) SiO2 
 PCOD8302615
Probable space group: P 4/M
;
_chemical_formula_sum "Si O2"
_cell_formula_units_Z 64
_cell_length_a 18.117841
_cell_length_b 18.117841
_cell_length_c 14.209913
_cell_angle_alpha 90.000000
_cell_angle_beta 90.000000
_cell_angle_gamma 90.000000
_cell_volume 4664.491511
_symmetry_space_group_name_H-M "P 4/M"
_symmetry_group_IT_number 83
_symmetry_cell_setting 'tetragonal'
loop_
_space_group_symop_operation_xyz
x,y,z
-y,x,z
-x,-y,z
y,-x,z
-x,-y,-z
y,-x,-z
x,y,-z
-y,x,-z
loop_
_atom_site_type_symbol
_atom_site_label
_atom_site_fract_x
_atom_site_fract_y
_atom_site_fract_z
Si Si1 0.448101 0.610000 0.604952
Si Si2 0.567054 0.671694 0.105062
Si Si3 0.638039 0.184621 0.109854
Si Si4 0.500384 0.084293 0.888233
Si Si5 0.082685 0.081327 0.112016
Si Si6 0.421276 0.679314 0.793692
Si Si7 0.825291 0.360691 0.895044
Si Si8 0.800813 0.804664 0.889183
O O1 0.403748 0.534558 0.619810
O O2 0.433290 0.641196 0.500000
O O3 0.420390 0.669604 0.680830
O O4 0.603427 0.601575 0.155393
O O5 0.500928 0.700963 0.168339
O O6 0.623454 0.738745 0.100407
O O7 0.541037 0.649509 0.000000
O O8 0.578543 0.122307 0.141575
O O9 0.631823 0.255030 0.177127
O O10 0.723350 0.163763 0.128539
O O11 0.624638 0.205703 0.000000
O O12 0.427961 0.127810 0.846212
O O13 0.500000 0.000000 0.850464
O O14 0.495687 0.086183 0.000000
O O15 0.141007 0.138398 0.155847
O O16 0.000824 0.103008 0.147025
O O17 0.084668 0.084915 0.000000
O O18 0.826150 0.279844 0.844408
O O19 0.858021 0.353841 0.000000
O O20 0.791491 0.815367 0.000000
#
# Coordination Sequence:
#
# PCOD8302615 Si02
#       8
#     8   8   8   8   8   8   8   8
#     4   9  18  32  43  53  71  95 130 172 206 238
#     4  11  20  27  37  55  81 106 132 162 193 235
#     4  10  18  27  38  55  79 104 130 163 197 233
#     4   9  17  27  37  49  69 101 136 162 185 219
#     4   8  14  24  36  50  68  90 124 172 209 227
#     4  12  19  28  42  57  74 105 134 162 204 238
#     4   9  16  26  36  48  70 102 129 159 196 224
#     4   9  16  24  36  51  68  93 125 157 199 240
#
# _framework density 13.720681000000001
#
# number of rings (size 3 to 8) (size 9 to 14) (size 15 to 20)
#    0.000    2.375    3.750    1.875    0.000    1.250 
#    0.000    5.625    0.000    0.000    0.000    0.000 
#    0.000    0.500    0.000    0.000    0.250    0.000 
#
# Total GULP energy -792884.668792 kJ/mol
# GULP energy per Si atom -12388.822950 kJ/mol
# Density = 1.368945 g / cm^3
# Si number density = 13.720681 Si / 1000 Ang^3
#
#
#
# Elastic Constant Matrix: (Units=GPa)
#
#
# Indices 1 2 3 4 5 6 
#
# 1 85.8504 47.4735 16.1083 0.0000 0.0000 0.8814
# 2 47.4735 85.8504 16.1083 0.0000 0.0000 -0.8814
# 3 16.1083 16.1083 49.8561 0.0000 0.0000 0.0000
# 4 0.0000 0.0000 0.0000 4.7058 0.0000 0.0000
# 5 0.0000 0.0000 0.0000 0.0000 4.7058 0.0000
# 6 0.8814 -0.8814 0.0000 0.0000 0.0000 25.5958
#
#
#
# Elastic Compliance Matrix: (Units=1/GPa)
#
#
# Indices 1 2 3 4 5 6 
#
# 1 0.017117 -0.008981 -0.002629 0.000000 0.000000 -0.000899
# 2 -0.008981 0.017117 -0.002629 0.000000 0.000000 0.000899
# 3 -0.002629 -0.002629 0.021756 0.000000 0.000000 0.000000
# 4 0.000000 0.000000 0.000000 0.212502 0.000000 0.000000
# 5 0.000000 0.000000 0.000000 0.000000 0.212502 0.000000
# 6 -0.000899 0.000899 0.000000 0.000000 0.000000 0.039131
#
#
# Mechanical properties :
#
#
# Convention : Reuss Voigt Hill
#
# Bulk Modulus (GPa) = 36.34610 42.32636 39.33623
# Shear Modulus (GPa) = 8.96422 16.45928 12.71175
#
# Velocity S-wave (km/s) = 2.55882 3.46728 3.04709
# Velocity P-wave (km/s) = 5.93949 6.85163 6.41180
#
# Compressibility (1/GPa) = 0.02751327
#
# Stress axis : x y z
#
# Youngs Moduli (GPa) = 58.42090 58.42090 45.96369
#
# Poissons Ratio (x) = 0.52470 0.12082
# Poissons Ratio (y) = 0.52470 0.12082
# Poissons Ratio (z) = 0.15357 0.15357
#
# Static dielectric constant tensor:
#      x y z
#    x 2.846920 0.000000 0.000000 
#    y 0.000000 2.846920 0.000000 
#    z 0.000000 0.000000 2.237540 
# 
# 
# High freq. dielectric constant tensor:
#      x y z
#    x 1.525130 0.000000 0.000000 
#    y 0.000000 1.525130 0.000000 
#    z 0.000000 0.000000 1.444320 
# 
# From -- ./inp_files/2076.got.cif
#   From: 2010.03.12/outbox.cif.g09.slc.cpg/sg83_2_cif.got.tgz:2076.got - 2010.04.08 20:05:18.
