data_PCOD8302080
_publ_section_title
;
Structure prediction by ZEFSAII (Michael W. Deem and Ramdas Pophale) SiO2 
 PCOD8302080
Probable space group: I 4
;
_chemical_formula_sum "Si O2"
_cell_formula_units_Z 52
_cell_length_a 16.714301
_cell_length_b 16.714301
_cell_length_c 9.682452
_cell_angle_alpha 90.000000
_cell_angle_beta 90.000000
_cell_angle_gamma 90.000000
_cell_volume 2704.965875
_symmetry_space_group_name_H-M "I 4"
_symmetry_group_IT_number 79
_symmetry_cell_setting 'tetragonal'
loop_
_space_group_symop_operation_xyz
x,y,z
-y,x,z
-x,-y,z
y,-x,z
1/2+x,1/2+y,1/2+z
1/2-y,1/2+x,1/2+z
1/2-x,1/2-y,1/2+z
1/2+y,1/2-x,1/2+z
loop_
_atom_site_type_symbol
_atom_site_label
_atom_site_fract_x
_atom_site_fract_y
_atom_site_fract_z
Si Si1 0.638280 0.741864 0.822540
Si Si2 0.362022 0.722220 0.018524
Si Si3 0.513726 0.825094 0.325742
Si Si4 0.325094 0.986274 0.513314
Si Si5 0.362022 0.722220 0.320532
Si Si6 0.638280 0.741864 0.516516
Si Si7 0.000000 0.500000 0.919528
O O1 0.652192 0.659057 0.908180
O O2 0.581522 0.802001 0.905225
O O3 0.722770 0.784483 0.803408
O O4 0.602968 0.722390 0.669528
O O5 0.436017 0.775281 0.966516
O O6 0.284483 0.777230 0.035648
O O7 0.380842 0.684010 0.169528
O O8 0.436016 0.775281 0.372540
O O9 0.581522 0.802001 0.433831
O O10 0.496443 0.919948 0.327273
O O11 0.539382 0.802717 0.169528
O O12 0.419948 0.003557 0.511783
O O13 0.340943 0.652192 0.430876
#
# Coordination Sequence:
#
# PCOD8302080 Si02
#       7
#     8   8   8   8   8   8   4
#     4  10  20  35  54  79 107 143 188 228 269 322
#     4   9  19  36  53  76 107 146 188 223 267 324
#     4  11  22  36  56  81 115 150 181 225 274 327
#     4  11  22  36  56  81 115 150 181 225 274 327
#     4   9  19  36  53  76 107 146 188 223 267 324
#     4  10  20  35  54  79 107 143 188 228 269 322
#     4  12  22  36  52  86 118 152 184 218 266 328
#
# _framework density 19.223901999999999
#
# number of rings (size 3 to 8) (size 9 to 14) (size 15 to 20)
#    0.000    1.846    3.077    1.385    0.000    3.692 
#    0.000    0.000    0.000    0.923    0.000    6.462 
#    0.000    0.000    0.000    0.000    0.000    0.000 
#
# Total GULP energy -322228.773155 kJ/mol
# GULP energy per Si atom -12393.414352 kJ/mol
# Density = 1.918015 g / cm^3
# Si number density = 19.223902 Si / 1000 Ang^3
#
#
#
# Elastic Constant Matrix: (Units=GPa)
#
#
# Indices 1 2 3 4 5 6 
#
# 1 59.0651 33.9599 44.6537 0.0000 0.0000 2.7472
# 2 33.9599 59.0651 44.6537 0.0000 0.0000 -2.7472
# 3 44.6537 44.6537 143.6124 0.0000 0.0000 0.0000
# 4 0.0000 0.0000 0.0000 22.9201 0.0000 0.0000
# 5 0.0000 0.0000 0.0000 0.0000 22.9201 0.0000
# 6 2.7472 -2.7472 0.0000 0.0000 0.0000 36.6872
#
#
#
# Elastic Compliance Matrix: (Units=1/GPa)
#
#
# Indices 1 2 3 4 5 6 
#
# 1 0.027910 -0.012586 -0.004765 0.000000 0.000000 -0.003032
# 2 -0.012586 0.027910 -0.004765 0.000000 0.000000 0.003032
# 3 -0.004765 -0.004765 0.009926 0.000000 0.000000 0.000000
# 4 0.000000 0.000000 0.000000 0.043630 0.000000 0.000000
# 5 0.000000 0.000000 0.000000 0.000000 0.043630 0.000000
# 6 -0.003032 0.003032 0.000000 0.000000 0.000000 0.027712
#
#
# Mechanical properties :
#
#
# Convention : Reuss Voigt Hill
#
# Bulk Modulus (GPa) = 46.47826 56.47526 51.47676
# Shear Modulus (GPa) = 21.54053 25.73716 23.63885
#
# Velocity S-wave (km/s) = 3.35103 3.66295 3.51045
# Velocity P-wave (km/s) = 6.26118 6.87975 6.57774
#
# Compressibility (1/GPa) = 0.02151543
#
# Stress axis : x y z
#
# Youngs Moduli (GPa) = 35.82936 35.82936 100.74333
#
# Poissons Ratio (x) = 0.45095 0.48002
# Poissons Ratio (y) = 0.45095 0.48002
# Poissons Ratio (z) = 0.17072 0.17072
#
# Static dielectric constant tensor:
#      x y z
#    x 3.256380 0.000000 0.000000 
#    y 0.000000 3.256380 0.000000 
#    z 0.000000 0.000000 4.030870 
# 
# 
# High freq. dielectric constant tensor:
#      x y z
#    x 1.719730 0.000000 0.000000 
#    y 0.000000 1.719730 0.000000 
#    z 0.000000 0.000000 1.762460 
# 
# From -- ./inp_files/685.got.cif
#   From: 2010.03.12/outbox.cif.g09.slc.cpg/sg79_cif.got.tgz:685.got - 2010.04.16 16:38:49.
