data_PCOD8302743
_publ_section_title
;
Structure prediction by ZEFSAII (Michael W. Deem and Ramdas Pophale) SiO2 
 PCOD8302743
Probable space group: P 4/M
;
_chemical_formula_sum "Si O2"
_cell_formula_units_Z 64
_cell_length_a 19.583844
_cell_length_b 19.583844
_cell_length_c 8.979551
_cell_angle_alpha 90.000000
_cell_angle_beta 90.000000
_cell_angle_gamma 90.000000
_cell_volume 3443.899770
_symmetry_space_group_name_H-M "P 4/M"
_symmetry_group_IT_number 83
_symmetry_cell_setting 'tetragonal'
loop_
_space_group_symop_operation_xyz
x,y,z
-y,x,z
-x,-y,z
y,-x,z
-x,-y,-z
y,-x,-z
x,y,-z
-y,x,-z
loop_
_atom_site_type_symbol
_atom_site_label
_atom_site_fract_x
_atom_site_fract_y
_atom_site_fract_z
Si Si1 0.800710 0.021450 0.677500
Si Si2 0.156154 0.125921 0.322473
Si Si3 0.560246 0.406691 0.171278
Si Si4 0.851193 0.558451 0.322320
Si Si5 0.646390 0.022169 0.322533
Si Si6 0.367332 0.716473 0.676491
Si Si7 0.283360 0.213594 0.322502
Si Si8 0.592935 0.877617 0.322581
O O1 0.799947 0.021922 0.500000
O O2 0.845169 0.084555 0.739496
O O3 0.723554 0.028155 0.737940
O O4 0.833906 0.951160 0.736644
O O5 0.156703 0.126960 0.500000
O O6 0.217531 0.173051 0.261567
O O7 0.592740 0.480025 0.207372
O O8 0.596121 0.352511 0.276109
O O9 0.572636 0.387237 0.000000
O O10 0.851942 0.558547 0.500000
O O11 0.914463 0.602671 0.260657
O O12 0.781424 0.591302 0.260456
O O13 0.857048 0.481397 0.260483
O O14 0.646650 0.022257 0.500000
O O15 0.612666 0.952513 0.262333
O O16 0.365361 0.718993 0.500000
O O17 0.290451 0.718513 0.740550
O O18 0.282610 0.213431 0.500000
O O19 0.351938 0.177001 0.263172
O O20 0.592556 0.878428 0.500000
#
# Coordination Sequence:
#
# PCOD8302743 Si02
#       8
#     8   8   8   8   8   8   8   8
#     4   9  15  21  31  42  60  96 145 190 223 262
#     4   9  15  23  32  45  68 104 146 185 224 269
#     4   9  20  39  57  70  90 124 162 195 228 275
#     4   9  17  25  35  58  88 114 145 185 227 275
#     4   9  14  23  35  49  73 115 155 182 221 275
#     4  10  20  30  47  74 101 124 147 191 247 288
#     4   9  16  26  37  55  84 115 142 177 231 283
#     4   9  15  23  36  51  76 114 151 182 220 274
#
# _framework density 18.583583000000001
#
# number of rings (size 3 to 8) (size 9 to 14) (size 15 to 20)
#    0.000    2.875    1.250    1.500    1.750    5.250 
#    0.000    1.875    0.000    0.000    0.000    0.000 
#    0.000    3.000    0.000    0.000    0.000    0.000 
#
# Total GULP energy -793456.374920 kJ/mol
# GULP energy per Si atom -12397.755858 kJ/mol
# Density = 1.854129 g / cm^3
# Si number density = 18.583583 Si / 1000 Ang^3
#
#
#
# Elastic Constant Matrix: (Units=GPa)
#
#
# Indices 1 2 3 4 5 6 
#
# 1 176.9139 109.2191 7.6042 0.0000 0.0000 0.9826
# 2 109.2191 176.9139 7.6042 0.0000 0.0000 -0.9826
# 3 7.6042 7.6042 1.7526 0.0000 0.0000 0.0000
# 4 0.0000 0.0000 0.0000 3.7487 0.0000 0.0000
# 5 0.0000 0.0000 0.0000 0.0000 3.7487 0.0000
# 6 0.9826 -0.9826 0.0000 0.0000 0.0000 42.7908
#
#
#
# Elastic Compliance Matrix: (Units=1/GPa)
#
#
# Indices 1 2 3 4 5 6 
#
# 1 0.009662 -0.005120 -0.019708 0.000000 0.000000 -0.000339
# 2 -0.005120 0.009662 -0.019708 0.000000 0.000000 0.000339
# 3 -0.019708 -0.019708 0.741583 0.000000 0.000000 0.000000
# 4 0.000000 0.000000 0.000000 0.266760 0.000000 0.000000
# 5 0.000000 0.000000 0.000000 0.000000 0.266760 0.000000
# 6 -0.000339 0.000339 0.000000 0.000000 0.000000 0.023385
#
#
# Mechanical properties :
#
#
# Convention : Reuss Voigt Hill
#
# Bulk Modulus (GPa) = 1.48846 67.15950 34.32398
# Shear Modulus (GPa) = 3.06592 25.46784 14.26688
#
# Velocity S-wave (km/s) = 1.28584 3.70597 2.77377
# Velocity P-wave (km/s) = 1.73413 7.38444 5.36363
#
# Compressibility (1/GPa) = 0.67183516
#
# Stress axis : x y z
#
# Youngs Moduli (GPa) = 103.49594 103.49594 1.34847
#
# Poissons Ratio (x) = 0.52988 0.02658
# Poissons Ratio (y) = 0.52988 0.02658
# Poissons Ratio (z) = 2.03970 2.03970
#
# Static dielectric constant tensor:
#      x y z
#    x 3.672600 0.000000 0.000000 
#    y 0.000000 3.672600 0.000000 
#    z 0.000000 0.000000 2.483290 
# 
# 
# High freq. dielectric constant tensor:
#      x y z
#    x 1.738780 0.000000 0.000000 
#    y 0.000000 1.738780 0.000000 
#    z 0.000000 0.000000 1.623170 
# 
# From -- ./inp_files/2056.got.cif
#   From: 2010.03.12/outbox.cif.g09.slc.cpg/sg83_2_cif.got.tgz:2056.got - 2010.04.08 20:05:18.
