data_PCOD8302723
_publ_section_title
;
Structure prediction by ZEFSAII (Michael W. Deem and Ramdas Pophale) SiO2 
 PCOD8302723
Probable space group: P 4/M
;
_chemical_formula_sum "Si O2"
_cell_formula_units_Z 56
_cell_length_a 11.790391
_cell_length_b 11.790391
_cell_length_c 23.030381
_cell_angle_alpha 90.000000
_cell_angle_beta 90.000000
_cell_angle_gamma 90.000000
_cell_volume 3201.529722
_symmetry_space_group_name_H-M "P 4/M"
_symmetry_group_IT_number 83
_symmetry_cell_setting 'tetragonal'
loop_
_space_group_symop_operation_xyz
x,y,z
-y,x,z
-x,-y,z
y,-x,z
-x,-y,-z
y,-x,-z
x,y,-z
-y,x,-z
loop_
_atom_site_type_symbol
_atom_site_label
_atom_site_fract_x
_atom_site_fract_y
_atom_site_fract_z
Si Si1 0.743945 0.165281 0.065027
Si Si2 0.315755 0.069447 0.102487
Si Si3 0.182562 0.040304 0.438874
Si Si4 0.491459 0.233194 0.935285
Si Si5 0.075772 0.605887 0.773158
Si Si6 0.546263 0.675874 0.185880
Si Si7 0.040904 0.814686 0.312181
O O1 0.829955 0.223485 0.109852
O O2 0.619805 0.208043 0.080664
O O3 0.748021 0.030352 0.069110
O O4 0.778034 0.202806 0.000000
O O5 0.423571 0.114051 0.066028
O O6 0.355234 0.025436 0.165165
O O7 0.254567 0.056261 0.500000
O O8 0.243943 0.053909 0.376543
O O9 0.084325 0.132119 0.439911
O O10 0.441702 0.312807 0.884501
O O11 0.477822 0.287609 0.000000
O O12 0.207558 0.571043 0.780399
O O13 0.064896 0.712306 0.730934
O O14 0.000000 0.500000 0.750560
O O15 0.419896 0.636624 0.204053
O O16 0.915098 0.866964 0.303194
#
# Coordination Sequence:
#
# PCOD8302723 Si02
#       7
#     8   8   8   8   8   8   8
#     4  11  22  36  54  73  95 122 158 202 257 319
#     4  11  23  36  51  70  96 127 164 202 251 313
#     4   7  10  21  44  76 112 147 176 202 245 301
#     4  10  19  34  55  74  93 118 154 206 263 316
#     4  11  24  36  56  74 104 142 178 210 262 310
#     4  10  22  38  54  73  98 130 173 219 261 316
#     4   9  19  33  54  84 116 144 175 218 256 297
#
# _framework density 17.49164
#
# number of rings (size 3 to 8) (size 9 to 14) (size 15 to 20)
#    0.000    2.143    0.000    6.429    4.000    3.143 
#    0.000    1.429    0.000    0.429    0.000    0.000 
#    0.000    0.000    0.000    1.571    0.000    0.000 
#
# Total GULP energy -693786.234004 kJ/mol
# GULP energy per Si atom -12389.039893 kJ/mol
# Density = 1.745183 g / cm^3
# Si number density = 17.491640 Si / 1000 Ang^3
#
#
#
# Elastic Constant Matrix: (Units=GPa)
#
#
# Indices 1 2 3 4 5 6 
#
# 1 -16.7672 139.6698 39.9838 0.0000 0.0000 -332.9996
# 2 139.6698 -16.7672 39.9838 0.0000 0.0000 332.9996
# 3 39.9838 39.9838 87.9375 0.0000 0.0000 0.0000
# 4 0.0000 0.0000 0.0000 11.6646 0.0000 0.0000
# 5 0.0000 0.0000 0.0000 0.0000 11.6646 0.0000
# 6 -332.9996 332.9996 0.0000 0.0000 0.0000-1019.0542
#
#
#
# Elastic Compliance Matrix: (Units=1/GPa)
#
#
# Indices 1 2 3 4 5 6 
#
# 1 0.013948 -0.002393 -0.005254 0.000000 0.000000 -0.005340
# 2 -0.002393 0.013948 -0.005254 0.000000 0.000000 0.005340
# 3 -0.005254 -0.005254 0.016149 0.000000 0.000000 0.000000
# 4 0.000000 0.000000 0.000000 0.085729 0.000000 0.000000
# 5 0.000000 0.000000 0.000000 0.000000 0.085729 0.000000
# 6 -0.005340 0.005340 0.000000 0.000000 0.000000 0.002509
#
#
# Mechanical properties :
#
#
# Convention : Reuss Voigt Hill
#
# Bulk Modulus (GPa) = 54.81279 54.85310 54.83294
# Shear Modulus (GPa) = 20.00829 -210.16061 -95.07616
#
# Velocity S-wave (km/s) = 3.38579 -10.97315 -7.38060
# Velocity P-wave (km/s) = 6.83296 11.36305 6.41988
#
# Compressibility (1/GPa) = 0.01824392
#
# Stress axis : x y z
#
# Youngs Moduli (GPa) = 71.69341 71.69341 61.92171
#
# Poissons Ratio (x) = 0.17158 0.32533
# Poissons Ratio (y) = 0.17158 0.32533
# Poissons Ratio (z) = 0.37667 0.37667
#
# Static dielectric constant tensor:
#      x y z
#    x 3.160950 0.000000 0.000000 
#    y 0.000000 3.160950 0.000000 
#    z 0.000000 0.000000 3.413130 
# 
# 
# High freq. dielectric constant tensor:
#      x y z
#    x 1.664840 0.000000 0.000000 
#    y 0.000000 1.664840 0.000000 
#    z 0.000000 0.000000 1.652640 
# 
# From -- ./inp_files/3010.got.cif
#   From: 2010.03.12/outbox.cif.g09.slc.cpg/sg83_2_cif.got.tgz:3010.got - 2010.04.08 20:05:18.
