data_PCOD8302207
_publ_section_title
;
Structure prediction by ZEFSAII (Michael W. Deem and Ramdas Pophale) SiO2 
 PCOD8302207
Probable space group: I 41
;
_chemical_formula_sum "Si O2"
_cell_formula_units_Z 40
_cell_length_a 14.949739
_cell_length_b 14.949739
_cell_length_c 7.836631
_cell_angle_alpha 90.000000
_cell_angle_beta 90.000000
_cell_angle_gamma 90.000000
_cell_volume 1751.445464
_symmetry_space_group_name_H-M "I 41"
_symmetry_group_IT_number 80
_symmetry_cell_setting 'tetragonal'
loop_
_space_group_symop_operation_xyz
x,y,z
-y,1/2+x,1/4+z
-x,-y,z
y,1/2-x,1/4+z
1/2+x,1/2+y,1/2+z
1/2-y,x,3/4+z
1/2-x,1/2-y,1/2+z
1/2+y,-x,3/4+z
loop_
_atom_site_type_symbol
_atom_site_label
_atom_site_fract_x
_atom_site_fract_y
_atom_site_fract_z
Si Si1 0.208457 0.152828 0.950190
Si Si2 0.458260 0.262972 0.994955
Si Si3 0.044965 0.410028 0.740303
Si Si4 0.136317 0.720526 0.308364
Si Si5 0.398731 0.512823 0.350647
O O1 0.254900 0.163890 0.765626
O O2 0.138600 0.074416 0.940598
O O3 0.272053 0.120912 0.104272
O O4 0.440596 0.360245 0.080464
O O5 0.555079 0.265785 0.909150
O O6 0.448921 0.175165 0.113780
O O7 0.000000 0.500000 0.653893
O O8 0.982692 0.379619 0.898157
O O9 0.204704 0.682495 0.444790
O O10 0.102239 0.641184 0.185079
O O11 0.500000 0.500000 0.397674
#
# Coordination Sequence:
#
# PCOD8302207 Si02
#       5
#     8   8   8   8   8
#     4  11  25  40  67 103 140 185 230 289 349 419
#     4  11  24  44  71 104 146 182 237 289 360 430
#     4  11  25  45  71 107 143 190 235 298 362 426
#     4  11  27  47  74 101 137 188 240 296 348 420
#     4  10  27  44  69 102 143 184 232 290 358 419
#
# _framework density 22.838277999999999
#
# number of rings (size 3 to 8) (size 9 to 14) (size 15 to 20)
#    0.000    1.200    2.000    1.200   11.200    9.600 
#    0.000    0.000    0.000    0.000    0.000    0.000 
#    0.000    0.000    0.000    0.000    0.000    0.000 
#
# Total GULP energy -247828.785504 kJ/mol
# GULP energy per Si atom -12391.439275 kJ/mol
# Density = 2.278630 g / cm^3
# Si number density = 22.838278 Si / 1000 Ang^3
#
#
#
# Elastic Constant Matrix: (Units=GPa)
#
#
# Indices 1 2 3 4 5 6 
#
# 1 104.6852 40.0162 31.0920 0.0000 0.0000 6.1965
# 2 40.0162 104.6852 31.0920 0.0000 0.0000 -6.1965
# 3 31.0920 31.0920 86.6183 0.0000 0.0000 0.0000
# 4 0.0000 0.0000 0.0000 40.3796 0.0000 0.0000
# 5 0.0000 0.0000 0.0000 0.0000 40.3796 0.0000
# 6 6.1965 -6.1965 0.0000 0.0000 0.0000 15.0711
#
#
#
# Elastic Compliance Matrix: (Units=1/GPa)
#
#
# Indices 1 2 3 4 5 6 
#
# 1 0.012479 -0.004307 -0.002933 0.000000 0.000000 -0.006902
# 2 -0.004307 0.012479 -0.002933 0.000000 0.000000 0.006902
# 3 -0.002933 -0.002933 0.013651 0.000000 0.000000 0.000000
# 4 0.000000 0.000000 0.000000 0.024765 0.000000 0.000000
# 5 0.000000 0.000000 0.000000 0.000000 0.024765 0.000000
# 6 -0.006902 0.006902 0.000000 0.000000 0.000000 0.072028
#
#
# Mechanical properties :
#
#
# Convention : Reuss Voigt Hill
#
# Bulk Modulus (GPa) = 54.76245 55.59880 55.18063
# Shear Modulus (GPa) = 26.79537 32.08530 29.44033
#
# Velocity S-wave (km/s) = 3.42901 3.75225 3.59427
# Velocity P-wave (km/s) = 6.30142 6.57039 6.43731
#
# Compressibility (1/GPa) = 0.01826069
#
# Stress axis : x y z
#
# Youngs Moduli (GPa) = 80.13702 80.13702 73.25682
#
# Poissons Ratio (x) = 0.34518 0.21487
# Poissons Ratio (y) = 0.34518 0.21487
# Poissons Ratio (z) = 0.23505 0.23505
#
# Static dielectric constant tensor:
#      x y z
#    x 4.362530 0.000000 0.000000 
#    y 0.000000 4.362530 0.000000 
#    z 0.000000 0.000000 4.137340 
# 
# 
# High freq. dielectric constant tensor:
#      x y z
#    x 1.911560 0.000000 0.000000 
#    y 0.000000 1.911560 0.000000 
#    z 0.000000 0.000000 1.899850 
# 
# From -- ./inp_files/588.got.cif
#   From: 2010.03.12/outbox.cif.g09.slc.cpg/sg80_cif.got.tgz:588.got - 2010.04.08 20:00:04.
