data_PCOD8302378
_publ_section_title
;
Structure prediction by ZEFSAII (Michael W. Deem and Ramdas Pophale) SiO2 
 PCOD8302378
Probable space group: I -4 
;
_chemical_formula_sum "Si O2"
_cell_formula_units_Z 32
_cell_length_a 10.639661
_cell_length_b 10.639661
_cell_length_c 12.249081
_cell_angle_alpha 90.000000
_cell_angle_beta 90.000000
_cell_angle_gamma 90.000000
_cell_volume 1386.625198
_symmetry_space_group_name_H-M "I -4 "
_symmetry_group_IT_number 82
_symmetry_cell_setting 'tetragonal'
loop_
_space_group_symop_operation_xyz
x,y,z
y,-x,-z
-x,-y,z
-y,x,-z
1/2+x,1/2+y,1/2+z
1/2+y,1/2-x,1/2-z
1/2-x,1/2-y,1/2+z
1/2-y,1/2+x,1/2-z
loop_
_atom_site_type_symbol
_atom_site_label
_atom_site_fract_x
_atom_site_fract_y
_atom_site_fract_z
Si Si1 0.189134 0.533479 0.771155
Si Si2 0.588621 0.395358 0.365286
Si Si3 0.277954 0.705387 0.956724
Si Si4 0.027071 0.148741 0.360922
O O1 0.123592 0.401232 0.798690
O O2 0.308134 0.513515 0.694717
O O3 0.217842 0.591956 0.888082
O O4 0.500000 0.500000 0.424114
O O5 0.681133 0.324929 0.451963
O O6 0.673268 0.453610 0.267862
O O7 0.411495 0.736074 0.899828
O O8 0.304488 0.654894 0.078796
O O9 0.000000 0.000000 0.386648
#
# Coordination Sequence:
#
# PCOD8302378 Si02
#       4
#     8   8   8   8
#     4   9  17  29  51  92 126 167 222 269 327 394
#     4  10  20  34  58  98 137 177 214 279 352 390
#     4  11  18  32  65  95 130 174 229 289 316 407
#     4  11  18  35  61 101 128 167 238 272 330 398
#
# _framework density 23.077614000000001
#
# number of rings (size 3 to 8) (size 9 to 14) (size 15 to 20)
#    0.000    1.750    7.500    0.000    0.000    0.000 
#    0.000    0.000    0.000   30.750    0.000    0.000 
#    0.000    0.000    0.000    0.000    0.000    0.000 
#
# Total GULP energy -198213.451019 kJ/mol
# GULP energy per Si atom -12388.340689 kJ/mol
# Density = 2.302509 g / cm^3
# Si number density = 23.077614 Si / 1000 Ang^3
#
#
#
# Elastic Constant Matrix: (Units=GPa)
#
#
# Indices 1 2 3 4 5 6 
#
# 1 92.8482 41.0567 7.7058 0.0000 0.0000 1.6574
# 2 41.0567 92.8482 7.7058 0.0000 0.0000 -1.6574
# 3 7.7058 7.7058 71.5475 0.0000 0.0000 0.0000
# 4 0.0000 0.0000 0.0000 18.2978 0.0000 0.0000
# 5 0.0000 0.0000 0.0000 0.0000 18.2978 0.0000
# 6 1.6574 -1.6574 0.0000 0.0000 0.0000 58.0654
#
#
#
# Elastic Compliance Matrix: (Units=1/GPa)
#
#
# Indices 1 2 3 4 5 6 
#
# 1 0.013453 -0.005891 -0.000814 0.000000 0.000000 -0.000552
# 2 -0.005891 0.013453 -0.000814 0.000000 0.000000 0.000552
# 3 -0.000814 -0.000814 0.014152 0.000000 0.000000 0.000000
# 4 0.000000 0.000000 0.000000 0.054651 0.000000 0.000000
# 5 0.000000 0.000000 0.000000 0.000000 0.054651 0.000000
# 6 -0.000552 0.000552 0.000000 0.000000 0.000000 0.017253
#
#
# Mechanical properties :
#
#
# Convention : Reuss Voigt Hill
#
# Bulk Modulus (GPa) = 38.43500 41.13116 39.78308
# Shear Modulus (GPa) = 26.13345 32.31726 29.22536
#
# Velocity S-wave (km/s) = 3.36879 3.74622 3.56250
# Velocity P-wave (km/s) = 5.64114 6.04763 5.84792
#
# Compressibility (1/GPa) = 0.02601795
#
# Stress axis : x y z
#
# Youngs Moduli (GPa) = 74.33501 74.33501 70.66064
#
# Poissons Ratio (x) = 0.43790 0.05755
# Poissons Ratio (y) = 0.43790 0.05755
# Poissons Ratio (z) = 0.06054 0.06054
#
# Static dielectric constant tensor:
#      x y z
#    x 4.355650 0.000000 0.000000 
#    y 0.000000 4.355650 0.000000 
#    z 0.000000 0.000000 3.964190 
# 
# 
# High freq. dielectric constant tensor:
#      x y z
#    x 1.901460 0.000000 0.000000 
#    y 0.000000 1.901460 0.000000 
#    z 0.000000 0.000000 1.903540 
# 
# From -- ./inp_files/2093.got.cif
#   From: 2010.03.12/outbox.cif.g09.slc.cpg/sg82_2_cif.got.tgz:2093.got - 2010.04.08 20:02:50.
