data_PCOD8302760
_publ_section_title
;
Structure prediction by ZEFSAII (Michael W. Deem and Ramdas Pophale) SiO2 
 PCOD8302760
Probable space group: P 4/M
;
_chemical_formula_sum "Si O2"
_cell_formula_units_Z 48
_cell_length_a 15.606215
_cell_length_b 15.606215
_cell_length_c 10.060935
_cell_angle_alpha 90.000000
_cell_angle_beta 90.000000
_cell_angle_gamma 90.000000
_cell_volume 2450.380426
_symmetry_space_group_name_H-M "P 4/M"
_symmetry_group_IT_number 83
_symmetry_cell_setting 'tetragonal'
loop_
_space_group_symop_operation_xyz
x,y,z
-y,x,z
-x,-y,z
y,-x,z
-x,-y,-z
y,-x,-z
x,y,-z
-y,x,-z
loop_
_atom_site_type_symbol
_atom_site_label
_atom_site_fract_x
_atom_site_fract_y
_atom_site_fract_z
Si Si1 0.355930 0.855779 0.354007
Si Si2 0.358514 0.709521 0.159098
Si Si3 0.267511 0.545636 0.147035
Si Si4 0.042000 0.865818 0.846499
Si Si5 0.910567 0.468162 0.250087
Si Si6 0.285964 0.038874 0.649540
O O1 0.340529 0.815012 0.500000
O O2 0.325238 0.792769 0.236980
O O3 0.456563 0.881566 0.350053
O O4 0.295774 0.937484 0.334761
O O5 0.305210 0.629557 0.219193
O O6 0.457151 0.694934 0.204626
O O7 0.349482 0.725795 0.000000
O O8 0.164140 0.543521 0.141778
O O9 0.303700 0.554906 0.000000
O O10 0.105424 0.944724 0.816477
O O11 0.069859 0.786294 0.753483
O O12 0.050797 0.836954 0.000000
O O13 0.917742 0.378036 0.325218
O O14 0.000000 0.500000 0.182385
O O15 0.256737 0.063152 0.500000
#
# Coordination Sequence:
#
# PCOD8302760 Si02
#       6
#     8   8   8   8   8   8
#     4   9  18  34  53  74 104 138 169 204 250 301
#     4   9  18  33  51  73 102 134 170 210 252 297
#     4   9  18  32  51  75 102 134 171 211 253 298
#     4   9  20  39  57  72  97 135 173 208 253 308
#     4   9  18  33  52  74 103 138 171 205 250 304
#     4  10  20  33  53  80 103 128 168 212 253 301
#
# _framework density 19.588795000000001
#
# number of rings (size 3 to 8) (size 9 to 14) (size 15 to 20)
#    0.000    2.833    0.000    1.000    0.000    6.000 
#    0.000   15.000    0.000    0.000    0.000    4.667 
#    0.000    0.000    0.000    0.000    0.000    0.000 
#
# Total GULP energy -594725.731934 kJ/mol
# GULP energy per Si atom -12390.119415 kJ/mol
# Density = 1.954421 g / cm^3
# Si number density = 19.588795 Si / 1000 Ang^3
#
#
#
# Elastic Constant Matrix: (Units=GPa)
#
#
# Indices 1 2 3 4 5 6 
#
# 1 73.9430 26.6644 19.3996 0.0000 0.0000 -3.4449
# 2 26.6644 73.9430 19.3996 0.0000 0.0000 3.4449
# 3 19.3996 19.3996 67.1780 0.0000 0.0000 0.0000
# 4 0.0000 0.0000 0.0000 16.7156 0.0000 0.0000
# 5 0.0000 0.0000 0.0000 0.0000 16.7156 0.0000
# 6 -3.4449 3.4449 0.0000 0.0000 0.0000 22.1681
#
#
#
# Elastic Compliance Matrix: (Units=1/GPa)
#
#
# Indices 1 2 3 4 5 6 
#
# 1 0.016413 -0.005228 -0.003230 0.000000 0.000000 0.003363
# 2 -0.005228 0.016413 -0.003230 0.000000 0.000000 -0.003363
# 3 -0.003230 -0.003230 0.016751 0.000000 0.000000 0.000000
# 4 0.000000 0.000000 0.000000 0.059825 0.000000 0.000000
# 5 0.000000 0.000000 0.000000 0.000000 0.059825 0.000000
# 6 0.003363 -0.003363 0.000000 0.000000 0.000000 0.046155
#
#
# Mechanical properties :
#
#
# Convention : Reuss Voigt Hill
#
# Bulk Modulus (GPa) = 38.16550 38.44346 38.30448
# Shear Modulus (GPa) = 20.20266 21.09322 20.64794
#
# Velocity S-wave (km/s) = 3.21493 3.28502 3.25016
# Velocity P-wave (km/s) = 5.77119 5.83578 5.80358
#
# Compressibility (1/GPa) = 0.02620168
#
# Stress axis : x y z
#
# Youngs Moduli (GPa) = 60.92622 60.92622 59.69661
#
# Poissons Ratio (x) = 0.31852 0.19282
# Poissons Ratio (y) = 0.31852 0.19282
# Poissons Ratio (z) = 0.19680 0.19680
#
# Static dielectric constant tensor:
#      x y z
#    x 3.601260 0.000000 0.000000 
#    y 0.000000 3.601260 0.000000 
#    z 0.000000 0.000000 3.331280 
# 
# 
# High freq. dielectric constant tensor:
#      x y z
#    x 1.760760 0.000000 0.000000 
#    y 0.000000 1.760760 0.000000 
#    z 0.000000 0.000000 1.738220 
# 
# From -- ./inp_files/1810.got.cif
#   From: 2010.03.12/outbox.cif.g09.slc.cpg/sg83_1_cif.got.tgz:1810.got - 2010.04.08 20:05:18.
