data_PCOD8302490
_publ_section_title
;
Structure prediction by ZEFSAII (Michael W. Deem and Ramdas Pophale) SiO2 
 PCOD8302490
Probable space group: I -4 
;
_chemical_formula_sum "Si O2"
_cell_formula_units_Z 34
_cell_length_a 8.687700
_cell_length_b 8.687700
_cell_length_c 18.840488
_cell_angle_alpha 90.000000
_cell_angle_beta 90.000000
_cell_angle_gamma 90.000000
_cell_volume 1422.007146
_symmetry_space_group_name_H-M "I -4 "
_symmetry_group_IT_number 82
_symmetry_cell_setting 'tetragonal'
loop_
_space_group_symop_operation_xyz
x,y,z
y,-x,-z
-x,-y,z
-y,x,-z
1/2+x,1/2+y,1/2+z
1/2+y,1/2-x,1/2-z
1/2-x,1/2-y,1/2+z
1/2-y,1/2+x,1/2-z
loop_
_atom_site_type_symbol
_atom_site_label
_atom_site_fract_x
_atom_site_fract_y
_atom_site_fract_z
Si Si1 0.784187 0.200017 0.395851
Si Si2 0.070280 0.745073 0.253261
Si Si3 0.734298 0.442044 0.648383
Si Si4 0.000000 0.500000 0.750000
Si Si5 0.839083 0.581555 0.971260
O O1 0.887027 0.170582 0.326562
O O2 0.621771 0.276722 0.372458
O O3 0.873011 0.317766 0.447206
O O4 0.781824 0.041224 0.440176
O O5 0.187923 0.603797 0.242417
O O6 0.086400 0.869231 0.188691
O O7 0.764209 0.341273 0.577293
O O8 0.877988 0.412674 0.700972
O O9 0.000000 0.500000 0.962030
#
# Coordination Sequence:
#
# PCOD8302490 Si02
#       5
#     8   8   8   2   8
#     4  11  24  44  69 104 140 192 242 299 369 438
#     4  11  27  45  71 107 150 192 245 315 367 426
#     4  11  21  45  74 101 139 190 243 300 368 444
#     4  12  16  44  72 100 132 188 246 304 360 416
#     4  10  24  43  71 101 149 191 238 306 369 434
#
# _framework density 23.909865
#
# number of rings (size 3 to 8) (size 9 to 14) (size 15 to 20)
#    0.000    1.176    5.882    0.000    6.588    3.294 
#    0.000    4.706    0.000    0.000    0.000    0.000 
#    0.000    0.000    0.000    0.000    0.000    0.000 
#
# Total GULP energy -210770.451154 kJ/mol
# GULP energy per Si atom -12398.261833 kJ/mol
# Density = 2.385544 g / cm^3
# Si number density = 23.909865 Si / 1000 Ang^3
#
#
#
# Elastic Constant Matrix: (Units=GPa)
#
#
# Indices 1 2 3 4 5 6 
#
# 1 68.4830 15.2731 32.9999 0.0000 0.0000 4.4543
# 2 15.2731 68.4830 32.9999 0.0000 0.0000 -4.4543
# 3 32.9999 32.9999 143.5294 0.0000 0.0000 0.0000
# 4 0.0000 0.0000 0.0000 45.8894 0.0000 0.0000
# 5 0.0000 0.0000 0.0000 0.0000 45.8894 0.0000
# 6 4.4543 -4.4543 0.0000 0.0000 0.0000 29.9274
#
#
#
# Elastic Compliance Matrix: (Units=1/GPa)
#
#
# Indices 1 2 3 4 5 6 
#
# 1 0.016927 -0.002346 -0.003352 0.000000 0.000000 -0.002869
# 2 -0.002346 0.016927 -0.003352 0.000000 0.000000 0.002869
# 3 -0.003352 -0.003352 0.008509 0.000000 0.000000 0.000000
# 4 0.000000 0.000000 0.000000 0.021792 0.000000 0.000000
# 5 0.000000 0.000000 0.000000 0.000000 0.021792 0.000000
# 6 -0.002869 0.002869 0.000000 0.000000 0.000000 0.034268
#
#
# Mechanical properties :
#
#
# Convention : Reuss Voigt Hill
#
# Bulk Modulus (GPa) = 41.21794 49.22678 45.22236
# Shear Modulus (GPa) = 34.15199 37.62276 35.88738
#
# Velocity S-wave (km/s) = 3.78347 3.97107 3.87841
# Velocity P-wave (km/s) = 6.03013 6.45438 6.24586
#
# Compressibility (1/GPa) = 0.02426128
#
# Stress axis : x y z
#
# Youngs Moduli (GPa) = 59.07563 59.07563 117.52552
#
# Poissons Ratio (x) = 0.13861 0.39400
# Poissons Ratio (y) = 0.13861 0.39400
# Poissons Ratio (z) = 0.19805 0.19805
#
# Static dielectric constant tensor:
#      x y z
#    x 4.221580 0.000000 0.000000 
#    y 0.000000 4.221580 0.000000 
#    z 0.000000 0.000000 4.558620 
# 
# 
# High freq. dielectric constant tensor:
#      x y z
#    x 1.937170 0.000000 0.000000 
#    y 0.000000 1.937170 0.000000 
#    z 0.000000 0.000000 1.962810 
# 
# From -- ./inp_files/2944.got.cif
#   From: 2010.03.12/outbox.cif.g09.slc.cpg/sg82_2_cif.got.tgz:2944.got - 2010.04.08 20:02:50.
