data_PCOD8302438
_publ_section_title
;
Structure prediction by ZEFSAII (Michael W. Deem and Ramdas Pophale) SiO2 
 PCOD8302438
Probable space group: I -4 
;
_chemical_formula_sum "Si O2"
_cell_formula_units_Z 36
_cell_length_a 8.017351
_cell_length_b 8.017351
_cell_length_c 20.894135
_cell_angle_alpha 90.000000
_cell_angle_beta 90.000000
_cell_angle_gamma 90.000000
_cell_volume 1343.031477
_symmetry_space_group_name_H-M "I -4 "
_symmetry_group_IT_number 82
_symmetry_cell_setting 'tetragonal'
loop_
_space_group_symop_operation_xyz
x,y,z
y,-x,-z
-x,-y,z
-y,x,-z
1/2+x,1/2+y,1/2+z
1/2+y,1/2-x,1/2-z
1/2-x,1/2-y,1/2+z
1/2-y,1/2+x,1/2-z
loop_
_atom_site_type_symbol
_atom_site_label
_atom_site_fract_x
_atom_site_fract_y
_atom_site_fract_z
Si Si1 0.807353 0.330909 0.568490
Si Si2 0.934414 0.250549 0.236928
Si Si3 0.000000 0.000000 0.129427
Si Si4 0.035331 0.670519 0.436039
Si Si5 0.177919 0.929015 0.353438
O O1 0.662212 0.464306 0.585737
O O2 0.891899 0.392342 0.503955
O O3 0.942023 0.325930 0.627871
O O4 0.761519 0.139823 0.554564
O O5 0.091664 0.314894 0.280336
O O6 0.823733 0.118988 0.278019
O O7 0.010009 0.165019 0.173896
O O8 0.183961 0.764982 0.398398
O O9 0.000000 0.500000 0.396710
O O10 0.000000 0.000000 0.372559
#
# Coordination Sequence:
#
# PCOD8302438 Si02
#       5
#     8   8   4   8   8
#     4  11  25  48  77 117 164 206 275 337 415 502
#     4  11  25  46  76 112 160 220 272 329 409 489
#     4  12  28  46  79 126 161 214 280 352 406 494
#     4  11  24  42  78 114 149 215 266 336 406 487
#     4  10  21  43  74 106 151 212 271 323 403 497
#
# _framework density 26.805033000000002
#
# number of rings (size 3 to 8) (size 9 to 14) (size 15 to 20)
#    0.000    1.111    3.333    2.667    6.222    3.556 
#    0.000    0.000    0.000    0.000    0.000    0.000 
#    0.000    0.000    0.000    0.000    0.000    0.000 
#
# Total GULP energy -223027.291564 kJ/mol
# GULP energy per Si atom -12390.405087 kJ/mol
# Density = 2.674402 g / cm^3
# Si number density = 26.805033 Si / 1000 Ang^3
#
#
#
# Elastic Constant Matrix: (Units=GPa)
#
#
# Indices 1 2 3 4 5 6 
#
# 1 112.5373 30.0943 27.8092 0.0000 0.0000 -13.3875
# 2 30.0943 112.5373 27.8092 0.0000 0.0000 13.3875
# 3 27.8092 27.8092 99.1162 0.0000 0.0000 0.0000
# 4 0.0000 0.0000 0.0000 32.3631 0.0000 0.0000
# 5 0.0000 0.0000 0.0000 0.0000 32.3631 0.0000
# 6 -13.3875 13.3875 0.0000 0.0000 0.0000 53.6182
#
#
#
# Elastic Compliance Matrix: (Units=1/GPa)
#
#
# Indices 1 2 3 4 5 6 
#
# 1 0.010536 -0.002664 -0.002209 0.000000 0.000000 0.003296
# 2 -0.002664 0.010536 -0.002209 0.000000 0.000000 -0.003296
# 3 -0.002209 -0.002209 0.011329 0.000000 0.000000 0.000000
# 4 0.000000 0.000000 0.000000 0.030899 0.000000 0.000000
# 5 0.000000 0.000000 0.000000 0.000000 0.030899 0.000000
# 6 0.003296 -0.003296 0.000000 0.000000 0.000000 0.020296
#
#
# Mechanical properties :
#
#
# Convention : Reuss Voigt Hill
#
# Bulk Modulus (GPa) = 54.82977 55.06850 54.94913
# Shear Modulus (GPa) = 37.10903 39.56740 38.33821
#
# Velocity S-wave (km/s) = 3.72480 3.84620 3.78598
# Velocity P-wave (km/s) = 6.24486 6.34925 6.29727
#
# Compressibility (1/GPa) = 0.01823827
#
# Stress axis : x y z
#
# Youngs Moduli (GPa) = 94.91115 94.91114 88.27216
#
# Poissons Ratio (x) = 0.25282 0.19497
# Poissons Ratio (y) = 0.25282 0.19497
# Poissons Ratio (z) = 0.20964 0.20964
#
# Static dielectric constant tensor:
#      x y z
#    x 5.040510 0.000000 0.000000 
#    y 0.000000 5.040510 0.000000 
#    z 0.000000 0.000000 4.545070 
# 
# 
# High freq. dielectric constant tensor:
#      x y z
#    x 2.076930 0.000000 0.000000 
#    y 0.000000 2.076930 0.000000 
#    z 0.000000 0.000000 2.067620 
# 
# From -- ./inp_files/2961.got.cif
#   From: 2010.03.12/outbox.cif.g09.slc.cpg/sg82_2_cif.got.tgz:2961.got - 2010.04.08 20:02:50.
