data_PCOD8302934
_publ_section_title
;
Structure prediction by ZEFSAII (Michael W. Deem and Ramdas Pophale) SiO2 
 PCOD8302934
Probable space group: P 4/M
;
_chemical_formula_sum "Si O2"
_cell_formula_units_Z 40
_cell_length_a 8.263101
_cell_length_b 8.263101
_cell_length_c 26.363136
_cell_angle_alpha 90.000000
_cell_angle_beta 90.000000
_cell_angle_gamma 90.000000
_cell_volume 1800.044296
_symmetry_space_group_name_H-M "P 4/M"
_symmetry_group_IT_number 83
_symmetry_cell_setting 'tetragonal'
loop_
_space_group_symop_operation_xyz
x,y,z
-y,x,z
-x,-y,z
y,-x,z
-x,-y,-z
y,-x,-z
x,y,-z
-y,x,-z
loop_
_atom_site_type_symbol
_atom_site_label
_atom_site_fract_x
_atom_site_fract_y
_atom_site_fract_z
Si Si1 0.752033 0.104886 0.311063
Si Si2 0.749215 0.094350 0.500000
Si Si3 0.902882 0.749179 0.092290
Si Si4 0.753986 0.101059 0.201593
Si Si5 0.596179 0.250707 0.594308
Si Si6 0.586519 0.247866 0.000000
O O1 0.666646 0.138387 0.255536
O O2 0.622995 0.159651 0.352590
O O3 0.916096 0.207542 0.317559
O O4 0.642290 0.129304 0.549393
O O5 0.907255 0.205749 0.500000
O O6 0.865716 0.664290 0.147715
O O7 0.090214 0.795087 0.086199
O O8 0.858612 0.619136 0.049817
O O9 0.913915 0.205848 0.201556
O O10 0.706477 0.409051 0.589998
O O11 0.703646 0.401171 0.000000
#
# Coordination Sequence:
#
# PCOD8302934 Si02
#       6
#     8   4   8   8   8   4
#     4   9  17  32  56  83 108 136 172 212 254 303
#     4  11  24  41  62  86 106 129 170 221 268 312
#     4   9  17  32  56  81 100 124 165 215 263 309
#     4   7  12  26  50  79 106 128 158 208 261 303
#     4  11  24  39  54  77 111 147 179 211 251 301
#     4  11  24  37  46  64 100 141 174 207 254 310
#
# _framework density 22.221675000000001
#
# number of rings (size 3 to 8) (size 9 to 14) (size 15 to 20)
#    0.000    2.600    0.000    4.800    0.000    8.800 
#    0.000    2.000    0.000    9.600    0.000    0.000 
#    0.000    0.000    0.000    0.000    0.000    0.000 
#
# Total GULP energy -495644.398818 kJ/mol
# GULP energy per Si atom -12391.109970 kJ/mol
# Density = 2.217110 g / cm^3
# Si number density = 22.221675 Si / 1000 Ang^3
#
#
#
# Elastic Constant Matrix: (Units=GPa)
#
#
# Indices 1 2 3 4 5 6 
#
# 1 22.4289 -6.5357 5.5947 0.0000 0.0000 -0.5599
# 2 -6.5357 22.4289 5.5947 0.0000 0.0000 0.5599
# 3 5.5947 5.5947 189.4381 0.0000 0.0000 0.0000
# 4 0.0000 0.0000 0.0000 -13.2620 0.0000 0.0000
# 5 0.0000 0.0000 0.0000 0.0000 -13.2620 0.0000
# 6 -0.5599 0.5599 0.0000 0.0000 0.0000 28.2499
#
#
#
# Elastic Compliance Matrix: (Units=1/GPa)
#
#
# Indices 1 2 3 4 5 6 
#
# 1 0.049404 0.014852 -0.001898 0.000000 0.000000 0.000685
# 2 0.014852 0.049404 -0.001898 0.000000 0.000000 -0.000685
# 3 -0.001898 -0.001898 0.005391 0.000000 0.000000 0.000000
# 4 0.000000 0.000000 0.000000 -0.075403 0.000000 0.000000
# 5 0.000000 0.000000 0.000000 0.000000 -0.075403 0.000000
# 6 0.000685 -0.000685 0.000000 0.000000 0.000000 0.035426
#
#
# Mechanical properties :
#
#
# Convention : Reuss Voigt Hill
#
# Bulk Modulus (GPa) = 7.91686 27.06703 17.49195
# Shear Modulus (GPa) = 567.72396 15.65467 291.68931
#
# Velocity S-wave (km/s) = 16.00115 2.65708 11.46945
# Velocity P-wave (km/s) = 18.57290 4.64977 13.53833
#
# Compressibility (1/GPa) = 0.12631266
#
# Stress axis : x y z
#
# Youngs Moduli (GPa) = 20.24135 20.24135 185.49924
#
# Poissons Ratio (x) = -0.30063 0.35202
# Poissons Ratio (y) = -0.30063 0.35202
# Poissons Ratio (z) = 0.03841 0.03841
#
# Static dielectric constant tensor:
#      x y z
#    x 3.651590 0.000000 0.000000 
#    y 0.000000 3.651590 0.000000 
#    z 0.000000 0.000000 4.632510 
# 
# 
# High freq. dielectric constant tensor:
#      x y z
#    x 1.848930 0.000000 0.000000 
#    y 0.000000 1.848930 0.000000 
#    z 0.000000 0.000000 1.903770 
# 
# From -- ./inp_files/3257.got.cif
#   From: 2010.03.12/outbox.cif.g09.slc.cpg/sg83_2_cif.got.tgz:3257.got - 2010.04.08 20:05:18.
