data_PCOD8302463
_publ_section_title
;
Structure prediction by ZEFSAII (Michael W. Deem and Ramdas Pophale) SiO2 
 PCOD8302463
Probable space group: I -4 
;
_chemical_formula_sum "Si O2"
_cell_formula_units_Z 48
_cell_length_a 8.708178
_cell_length_b 8.708178
_cell_length_c 27.098388
_cell_angle_alpha 90.000000
_cell_angle_beta 90.000000
_cell_angle_gamma 90.000000
_cell_volume 2054.934825
_symmetry_space_group_name_H-M "I -4 "
_symmetry_group_IT_number 82
_symmetry_cell_setting 'tetragonal'
loop_
_space_group_symop_operation_xyz
x,y,z
y,-x,-z
-x,-y,z
-y,x,-z
1/2+x,1/2+y,1/2+z
1/2+y,1/2-x,1/2-z
1/2-x,1/2-y,1/2+z
1/2-y,1/2+x,1/2-z
loop_
_atom_site_type_symbol
_atom_site_label
_atom_site_fract_x
_atom_site_fract_y
_atom_site_fract_z
Si Si1 0.184515 0.249690 0.301175
Si Si2 0.795544 0.363236 0.926845
Si Si3 0.555047 0.664913 0.705119
Si Si4 0.379556 0.703441 0.516663
Si Si5 0.342581 0.086117 0.632211
Si Si6 0.134941 0.311185 0.894144
O O1 0.224491 0.415246 0.278118
O O2 0.161760 0.139146 0.253770
O O3 0.326714 0.201633 0.336124
O O4 0.030538 0.248865 0.333608
O O5 0.642669 0.267097 0.912167
O O6 0.775667 0.541428 0.915093
O O7 0.951836 0.309432 0.898981
O O8 0.820476 0.350649 0.986024
O O9 0.500000 0.500000 0.685054
O O10 0.634885 0.753497 0.660681
O O11 0.562618 0.694170 0.514455
O O12 0.330540 0.706357 0.574116
O O13 0.500000 0.000000 0.614060
#
# Coordination Sequence:
#
# PCOD8302463 Si02
#       6
#     8   8   8   8   8   8
#     4  11  23  40  61  92 129 163 221 261 329 383
#     4  10  22  43  62  97 135 166 221 268 325 393
#     4  11  23  40  64  92 127 171 211 274 322 391
#     4   9  20  39  64  93 127 171 220 257 312 392
#     4  10  23  39  62  93 125 171 215 268 316 388
#     4  10  23  40  65  94 132 175 208 275 330 387
#
# _framework density 23.358402999999999
#
# number of rings (size 3 to 8) (size 9 to 14) (size 15 to 20)
#    0.000    1.833    1.667    1.000    7.000    1.333 
#    3.000    0.000    0.000    2.000    0.000    0.000 
#    0.000    0.000    0.000    0.000    0.000    0.000 
#
# Total GULP energy -297488.417334 kJ/mol
# GULP energy per Si atom -12395.350722 kJ/mol
# Density = 2.330524 g / cm^3
# Si number density = 23.358403 Si / 1000 Ang^3
#
#
#
# Elastic Constant Matrix: (Units=GPa)
#
#
# Indices 1 2 3 4 5 6 
#
# 1 73.7783 -4.5411 14.5582 0.0000 0.0000 -4.0117
# 2 -4.5411 73.7783 14.5582 0.0000 0.0000 4.0117
# 3 14.5582 14.5582 69.9139 0.0000 0.0000 0.0000
# 4 0.0000 0.0000 0.0000 31.1977 0.0000 0.0000
# 5 0.0000 0.0000 0.0000 0.0000 31.1977 0.0000
# 6 -4.0117 4.0117 0.0000 0.0000 0.0000 34.0635
#
#
#
# Elastic Compliance Matrix: (Units=1/GPa)
#
#
# Indices 1 2 3 4 5 6 
#
# 1 0.014377 0.001453 -0.003296 0.000000 0.000000 0.001522
# 2 0.001453 0.014377 -0.003296 0.000000 0.000000 -0.001522
# 3 -0.003296 -0.003296 0.015676 0.000000 0.000000 0.000000
# 4 0.000000 0.000000 0.000000 0.032054 0.000000 0.000000
# 5 0.000000 0.000000 0.000000 0.000000 0.032054 0.000000
# 6 0.001522 -0.001522 0.000000 0.000000 0.000000 0.029715
#
#
# Mechanical properties :
#
#
# Convention : Reuss Voigt Hill
#
# Bulk Modulus (GPa) = 29.28261 29.62456 29.45359
# Shear Modulus (GPa) = 31.26663 32.15145 31.70904
#
# Velocity S-wave (km/s) = 3.66260 3.71407 3.68842
# Velocity P-wave (km/s) = 5.51812 5.57696 5.54762
#
# Compressibility (1/GPa) = 0.03414997
#
# Stress axis : x y z
#
# Youngs Moduli (GPa) = 69.55705 69.55702 63.79177
#
# Poissons Ratio (x) = -0.10103 0.21027
# Poissons Ratio (y) = -0.10103 0.21027
# Poissons Ratio (z) = 0.22927 0.22927
#
# Static dielectric constant tensor:
#      x y z
#    x 4.065200 0.000000 0.000000 
#    y 0.000000 4.065200 0.000000 
#    z 0.000000 0.000000 3.907170 
# 
# 
# High freq. dielectric constant tensor:
#      x y z
#    x 1.913600 0.000000 0.000000 
#    y 0.000000 1.913600 0.000000 
#    z 0.000000 0.000000 1.916870 
# 
# From -- ./inp_files/4039.got.cif
#   From: 2010.03.12/outbox.cif.g09.slc.cpg/sg82_3_cif.got.tgz:4039.got - 2010.04.08 20:02:50.
