data_PCOD8302246
_publ_section_title
;
Structure prediction by ZEFSAII (Michael W. Deem and Ramdas Pophale) SiO2 
 PCOD8302246
Probable space group: P -4
;
_chemical_formula_sum "Si O2"
_cell_formula_units_Z 24
_cell_length_a 11.281579
_cell_length_b 11.281579
_cell_length_c 10.038510
_cell_angle_alpha 90.000000
_cell_angle_beta 90.000000
_cell_angle_gamma 90.000000
_cell_volume 1277.641570
_symmetry_space_group_name_H-M "P -4"
_symmetry_group_IT_number 81
_symmetry_cell_setting 'tetragonal'
loop_
_space_group_symop_operation_xyz
x,y,z
y,-x,-z
-x,-y,z
-y,x,-z
loop_
_atom_site_type_symbol
_atom_site_label
_atom_site_fract_x
_atom_site_fract_y
_atom_site_fract_z
Si Si1 0.878635 0.565650 0.294832
Si Si2 0.823627 0.781427 0.892494
Si Si3 0.976599 0.747982 0.135267
Si Si4 0.868136 0.541772 0.766043
Si Si5 0.423117 0.159503 0.955056
Si Si6 0.526033 0.306854 0.479010
O O1 0.905764 0.705062 0.266043
O O2 0.813658 0.515414 0.162804
O O3 0.790231 0.561193 0.415098
O O4 0.000000 0.500000 0.335088
O O5 0.876457 0.683058 0.794179
O O6 0.688116 0.750067 0.935380
O O7 0.826706 0.910264 0.818726
O O8 0.894186 0.810103 0.027912
O O9 0.024290 0.626070 0.061955
O O10 0.764978 0.513770 0.659439
O O11 0.000000 0.500000 0.720018
O O12 0.824281 0.478839 0.900334
O O13 0.403565 0.368822 0.523541
#
# Coordination Sequence:
#
# PCOD8302246 Si02
#       6
#     4   4   4   4   4   4
#     4  10  18  40  60  84 113 159 201 230 294 364
#     4  10  19  34  57  96 119 149 187 249 288 344
#     4   9  19  32  59  87 123 148 189 238 288 350
#     4  12  20  39  62  88 113 155 207 241 286 359
#     4   9  19  33  62  89 113 148 193 240 282 348
#     4  11  27  41  55  84 122 155 198 255 303 344
#
# _framework density 18.784611999999999
#
# number of rings (size 3 to 8) (size 9 to 14) (size 15 to 20)
#    1.000    0.833    3.333    2.000    2.333    0.333 
#    0.000    0.000    0.000    2.000    0.000    0.000 
#    0.000    0.000    0.000    0.000    0.000    0.000 
#
# Total GULP energy -297323.117125 kJ/mol
# GULP energy per Si atom -12388.463214 kJ/mol
# Density = 1.874186 g / cm^3
# Si number density = 18.784612 Si / 1000 Ang^3
#
#
#
# Elastic Constant Matrix: (Units=GPa)
#
#
# Indices 1 2 3 4 5 6 
#
# 1 88.2424 39.5585 32.3959 0.0000 0.0000 -2.7046
# 2 39.5585 88.2424 32.3959 0.0000 0.0000 2.7046
# 3 32.3959 32.3959 95.3321 0.0000 0.0000 0.0000
# 4 0.0000 0.0000 0.0000 18.8916 0.0000 0.0000
# 5 0.0000 0.0000 0.0000 0.0000 18.8916 0.0000
# 6 -2.7046 2.7046 0.0000 0.0000 0.0000 29.3908
#
#
#
# Elastic Compliance Matrix: (Units=1/GPa)
#
#
# Indices 1 2 3 4 5 6 
#
# 1 0.015103 -0.005650 -0.003212 0.000000 0.000000 0.001910
# 2 -0.005650 0.015103 -0.003212 0.000000 0.000000 -0.001910
# 3 -0.003212 -0.003212 0.012673 0.000000 0.000000 0.000000
# 4 0.000000 0.000000 0.000000 0.052933 0.000000 0.000000
# 5 0.000000 0.000000 0.000000 0.000000 0.052933 0.000000
# 6 0.001910 -0.001910 0.000000 0.000000 0.000000 0.034376
#
#
# Mechanical properties :
#
#
# Convention : Reuss Voigt Hill
#
# Bulk Modulus (GPa) = 53.39085 53.39086 53.39086
# Shear Modulus (GPa) = 23.41763 24.59925 24.00844
#
# Velocity S-wave (km/s) = 3.53461 3.62269 3.57892
# Velocity P-wave (km/s) = 6.71880 6.78106 6.75000
#
# Compressibility (1/GPa) = 0.01872980
#
# Stress axis : x y z
#
# Youngs Moduli (GPa) = 66.21169 66.21169 78.90815
#
# Poissons Ratio (x) = 0.37408 0.25349
# Poissons Ratio (y) = 0.37408 0.25349
# Poissons Ratio (z) = 0.21270 0.21270
#
# Static dielectric constant tensor:
#      x y z
#    x 3.476590 0.000000 0.000000 
#    y 0.000000 3.476590 0.000000 
#    z 0.000000 0.000000 3.214750 
# 
# 
# High freq. dielectric constant tensor:
#      x y z
#    x 1.724630 0.000000 0.000000 
#    y 0.000000 1.724630 0.000000 
#    z 0.000000 0.000000 1.707460 
# 
# From -- ./inp_files/834.got.cif
#   From: 2010.03.12/outbox.cif.g09.slc.cpg/sg81_cif.got.tgz:834.got - 2010.04.08 20:01:38.
