data_PCOD8302803
_publ_section_title
;
Structure prediction by ZEFSAII (Michael W. Deem and Ramdas Pophale) SiO2 
 PCOD8302803
Probable space group: P 4/M
;
_chemical_formula_sum "Si O2"
_cell_formula_units_Z 56
_cell_length_a 14.935636
_cell_length_b 14.935636
_cell_length_c 12.616008
_cell_angle_alpha 90.000000
_cell_angle_beta 90.000000
_cell_angle_gamma 90.000000
_cell_volume 2814.293562
_symmetry_space_group_name_H-M "P 4/M"
_symmetry_group_IT_number 83
_symmetry_cell_setting 'tetragonal'
loop_
_space_group_symop_operation_xyz
x,y,z
-y,x,z
-x,-y,z
y,-x,z
-x,-y,-z
y,-x,-z
x,y,-z
-y,x,-z
loop_
_atom_site_type_symbol
_atom_site_label
_atom_site_fract_x
_atom_site_fract_y
_atom_site_fract_z
Si Si1 0.124458 0.074441 0.796940
Si Si2 0.837667 0.795855 0.376652
Si Si3 0.360917 0.963700 0.304983
Si Si4 0.391795 0.599031 0.882143
Si Si5 0.531158 0.872814 0.379354
Si Si6 0.243181 0.655740 0.735433
Si Si7 0.309146 0.083977 0.120344
O O1 0.147878 0.106022 0.676807
O O2 0.202638 0.106209 0.875609
O O3 0.030642 0.120710 0.819366
O O4 0.825494 0.813352 0.500000
O O5 0.919348 0.727312 0.355913
O O6 0.748314 0.754157 0.327538
O O7 0.445292 0.895700 0.305602
O O8 0.390631 0.051779 0.370909
O O9 0.335252 0.993913 0.185329
O O10 0.375505 0.494260 0.867348
O O11 0.339072 0.650007 0.790339
O O12 0.359773 0.628215 0.000000
O O13 0.497143 0.867263 0.500000
O O14 0.574017 0.777675 0.345561
O O15 0.168863 0.643257 0.827216
O O16 0.341199 0.071543 0.000000
#
# Coordination Sequence:
#
# PCOD8302803 Si02
#       7
#     8   8   8   8   8   8   8
#     4  10  21  39  56  81 114 149 201 237 276 337
#     4  11  22  37  59  83 116 153 192 246 291 334
#     4  10  20  38  58  85 112 149 199 239 284 353
#     4   9  19  38  62  85 113 153 195 238 293 348
#     4  10  20  37  61  84 115 156 191 235 295 351
#     4  10  22  36  58  89 120 143 195 239 290 349
#     4  10  21  39  59  84 120 152 187 241 291 338
#
# _framework density 19.898422
#
# number of rings (size 3 to 8) (size 9 to 14) (size 15 to 20)
#    0.000    2.000    1.429    3.000    2.000    1.143 
#    0.000    8.571    0.000    0.000    0.000    4.000 
#    0.000    0.000    0.000    0.000    0.000    0.000 
#
# Total GULP energy -694081.129414 kJ/mol
# GULP energy per Si atom -12394.305882 kJ/mol
# Density = 1.985313 g / cm^3
# Si number density = 19.898422 Si / 1000 Ang^3
#
#
#
# Elastic Constant Matrix: (Units=GPa)
#
#
# Indices 1 2 3 4 5 6 
#
# 1 52.2516 -2.5173 11.0080 0.0000 0.0000 -4.7965
# 2 -2.5173 52.2516 11.0080 0.0000 0.0000 4.7965
# 3 11.0080 11.0080 100.9755 0.0000 0.0000 0.0000
# 4 0.0000 0.0000 0.0000 25.3442 0.0000 0.0000
# 5 0.0000 0.0000 0.0000 0.0000 25.3442 0.0000
# 6 -4.7965 4.7965 0.0000 0.0000 0.0000 25.7105
#
#
#
# Elastic Compliance Matrix: (Units=1/GPa)
#
#
# Indices 1 2 3 4 5 6 
#
# 1 0.020001 0.001126 -0.002303 0.000000 0.000000 0.003521
# 2 0.001126 0.020001 -0.002303 0.000000 0.000000 -0.003521
# 3 -0.002303 -0.002303 0.010406 0.000000 0.000000 0.000000
# 4 0.000000 0.000000 0.000000 0.039457 0.000000 0.000000
# 5 0.000000 0.000000 0.000000 0.000000 0.039457 0.000000
# 6 0.003521 -0.003521 0.000000 0.000000 0.000000 0.040208
#
#
# Mechanical properties :
#
#
# Convention : Reuss Voigt Hill
#
# Bulk Modulus (GPa) = 23.01720 27.16401 25.09060
# Shear Modulus (GPa) = 26.18177 27.67844 26.93010
#
# Velocity S-wave (km/s) = 3.63129 3.73364 3.68282
# Velocity P-wave (km/s) = 5.40131 5.68047 5.54265
#
# Compressibility (1/GPa) = 0.04344577
#
# Stress axis : x y z
#
# Youngs Moduli (GPa) = 49.99796 49.99796 96.10263
#
# Poissons Ratio (x) = -0.05627 0.22133
# Poissons Ratio (y) = -0.05627 0.22133
# Poissons Ratio (z) = 0.11515 0.11515
#
# Static dielectric constant tensor:
#      x y z
#    x 3.610030 0.000000 0.000000 
#    y 0.000000 3.610030 0.000000 
#    z 0.000000 0.000000 3.504120 
# 
# 
# High freq. dielectric constant tensor:
#      x y z
#    x 1.771360 0.000000 0.000000 
#    y 0.000000 1.771360 0.000000 
#    z 0.000000 0.000000 1.762070 
# 
# From -- ./inp_files/1943.got.cif
#   From: 2010.03.12/outbox.cif.g09.slc.cpg/sg83_1_cif.got.tgz:1943.got - 2010.04.08 20:05:18.
