data_PCOD8302062
_publ_section_title
;
Structure prediction by ZEFSAII (Michael W. Deem and Ramdas Pophale) SiO2 
 PCOD8302062
Probable space group: P 43
;
_chemical_formula_sum "Si O2"
_cell_formula_units_Z 24
_cell_length_a 13.358503
_cell_length_b 13.358503
_cell_length_c 5.845720
_cell_angle_alpha 90.000000
_cell_angle_beta 90.000000
_cell_angle_gamma 90.000000
_cell_volume 1043.166410
_symmetry_space_group_name_H-M "P 43"
_symmetry_group_IT_number 78
_symmetry_cell_setting 'tetragonal'
loop_
_space_group_symop_operation_xyz
x,y,z
-y,x,3/4+z
-x,-y,1/2+z
y,-x,1/4+z
loop_
_atom_site_type_symbol
_atom_site_label
_atom_site_fract_x
_atom_site_fract_y
_atom_site_fract_z
Si Si1 0.603457 0.239386 0.888780
Si Si2 0.465119 0.363719 0.617848
Si Si3 0.050149 0.518887 0.187345
Si Si4 0.843505 0.769010 0.356894
Si Si5 0.275870 0.071782 0.098711
Si Si6 0.303069 0.220378 0.464147
O O1 0.533837 0.335224 0.835718
O O2 0.658261 0.198105 0.660881
O O3 0.542201 0.149221 0.001478
O O4 0.687545 0.278416 0.053364
O O5 0.541674 0.392616 0.413379
O O6 0.405419 0.258853 0.581940
O O7 0.074077 0.637005 0.156492
O O8 0.988062 0.512710 0.431428
O O9 0.812842 0.851743 0.542589
O O10 0.794043 0.800302 0.118765
O O11 0.962668 0.771168 0.362912
O O12 0.323757 0.114424 0.336418
#
# Coordination Sequence:
#
# PCOD8302062 Si02
#       6
#     4   4   4   4   4   4
#     4  11  25  42  67 103 147 198 249 314 377 454
#     4  12  25  42  68 106 153 205 258 309 395 471
#     4  12  27  45  80 113 150 198 265 317 387 461
#     4  11  24  51  69 108 148 195 256 321 394 456
#     4  11  27  45  77 109 146 202 254 324 393 463
#     4  11  26  45  73  99 156 192 252 321 382 467
#
# _framework density 23.006876999999999
#
# number of rings (size 3 to 8) (size 9 to 14) (size 15 to 20)
#    0.000    0.667    3.333    3.000    9.333    2.667 
#    3.000    0.000    0.000    0.000    0.000    0.000 
#    0.000    0.000    0.000    0.000    0.000    0.000 
#
# Total GULP energy -297397.214715 kJ/mol
# GULP energy per Si atom -12391.550613 kJ/mol
# Density = 2.295451 g / cm^3
# Si number density = 23.006877 Si / 1000 Ang^3
#
#
#
# Elastic Constant Matrix: (Units=GPa)
#
#
# Indices 1 2 3 4 5 6 
#
# 1 110.5833 25.4398 16.3132 0.0000 0.0000 -4.3216
# 2 25.4398 110.5833 16.3132 0.0000 0.0000 4.3216
# 3 16.3132 16.3132 79.8181 0.0000 0.0000 0.0000
# 4 0.0000 0.0000 0.0000 27.0057 0.0000 0.0000
# 5 0.0000 0.0000 0.0000 0.0000 27.0057 0.0000
# 6 -4.3216 4.3216 0.0000 0.0000 0.0000 33.8275
#
#
#
# Elastic Compliance Matrix: (Units=1/GPa)
#
#
# Indices 1 2 3 4 5 6 
#
# 1 0.009815 -0.002084 -0.001580 0.000000 0.000000 0.001520
# 2 -0.002084 0.009815 -0.001580 0.000000 0.000000 -0.001520
# 3 -0.001580 -0.001580 0.013174 0.000000 0.000000 0.000000
# 4 0.000000 0.000000 0.000000 0.037029 0.000000 0.000000
# 5 0.000000 0.000000 0.000000 0.000000 0.037029 0.000000
# 6 0.001520 -0.001520 0.000000 0.000000 0.000000 0.029950
#
#
# Mechanical properties :
#
#
# Convention : Reuss Voigt Hill
#
# Bulk Modulus (GPa) = 44.81152 46.34634 45.57893
# Shear Modulus (GPa) = 32.31230 33.76235 33.03732
#
# Velocity S-wave (km/s) = 3.75168 3.83494 3.79354
# Velocity P-wave (km/s) = 6.18761 6.30851 6.24835
#
# Compressibility (1/GPa) = 0.02231569
#
# Stress axis : x y z
#
# Youngs Moduli (GPa) = 101.88557 101.88557 75.90527
#
# Poissons Ratio (x) = 0.21236 0.11993
# Poissons Ratio (y) = 0.21236 0.11993
# Poissons Ratio (z) = 0.16098 0.16098
#
# Static dielectric constant tensor:
#      x y z
#    x 4.280900 0.000000 0.000000 
#    y 0.000000 4.280900 0.000000 
#    z 0.000000 0.000000 4.293180 
# 
# 
# High freq. dielectric constant tensor:
#      x y z
#    x 1.914860 0.000000 0.000000 
#    y 0.000000 1.914860 0.000000 
#    z 0.000000 0.000000 1.904150 
# 
# From -- ./inp_files/172.got.cif
#   From: 2010.03.12/outbox.cif.g09.slc.cpg/sg78_cif.got.tgz:172.got - 2010.04.16 16:37:20.
