data_PCOD8302971
_publ_section_title
;
Structure prediction by ZEFSAII (Michael W. Deem and Ramdas Pophale) SiO2 
 PCOD8302971
Probable space group: P 4/M
;
_chemical_formula_sum "Si O2"
_cell_formula_units_Z 44
_cell_length_a 8.408066
_cell_length_b 8.408066
_cell_length_c 29.209919
_cell_angle_alpha 90.000000
_cell_angle_beta 90.000000
_cell_angle_gamma 90.000000
_cell_volume 2065.011986
_symmetry_space_group_name_H-M "P 4/M"
_symmetry_group_IT_number 83
_symmetry_cell_setting 'tetragonal'
loop_
_space_group_symop_operation_xyz
x,y,z
-y,x,z
-x,-y,z
y,-x,z
-x,-y,-z
y,-x,-z
x,y,-z
-y,x,-z
loop_
_atom_site_type_symbol
_atom_site_label
_atom_site_fract_x
_atom_site_fract_y
_atom_site_fract_z
Si Si1 0.000000 0.500000 0.121641
Si Si2 0.571365 0.750868 0.448839
Si Si3 0.752204 0.922730 0.376088
Si Si4 0.427570 0.245674 0.805339
Si Si5 0.931140 0.748444 0.948873
Si Si6 0.087735 0.753458 0.272213
O O1 0.125987 0.598530 0.152227
O O2 0.102937 0.383773 0.089256
O O3 0.393500 0.692750 0.441430
O O4 0.593021 0.821479 0.500000
O O5 0.610668 0.884936 0.411391
O O6 0.692337 0.896665 0.324261
O O7 0.898234 0.804680 0.385047
O O8 0.608561 0.305086 0.806895
O O9 0.392219 0.144498 0.759489
O O10 0.110356 0.807893 0.941844
O O11 0.911265 0.676852 0.000000
O O12 0.905817 0.800850 0.262334
#
# Coordination Sequence:
#
# PCOD8302971 Si02
#       6
#     4   8   8   8   8   8
#     4  12  21  36  58  82 112 152 187 224 278 336
#     4   9  19  35  52  73 105 143 181 221 267 322
#     4   9  19  35  55  80 107 135 172 220 271 324
#     4  11  24  38  53  79 113 146 184 232 280 328
#     4   9  19  36  58  85 114 145 187 234 274 319
#     4   9  19  38  60  79 104 142 185 226 275 337
#
# _framework density 21.307382
#
# number of rings (size 3 to 8) (size 9 to 14) (size 15 to 20)
#    0.000    2.364    0.000    4.636    0.000    2.909 
#    0.000   10.000    0.000    0.000    0.000    7.636 
#    0.000    0.000    0.000    0.000    0.000    0.000 
#
# Total GULP energy -545580.119332 kJ/mol
# GULP energy per Si atom -12399.548167 kJ/mol
# Density = 2.125889 g / cm^3
# Si number density = 21.307382 Si / 1000 Ang^3
#
#
#
# Elastic Constant Matrix: (Units=GPa)
#
#
# Indices 1 2 3 4 5 6 
#
# 1 52.3491 14.3530 41.5214 0.0000 0.0000 5.5179
# 2 14.3530 52.3491 41.5214 0.0000 0.0000 -5.5179
# 3 41.5214 41.5214 145.1815 0.0000 0.0000 0.0000
# 4 0.0000 0.0000 0.0000 32.9031 0.0000 0.0000
# 5 0.0000 0.0000 0.0000 0.0000 32.9031 0.0000
# 6 5.5179 -5.5179 0.0000 0.0000 0.0000 36.7699
#
#
#
# Elastic Compliance Matrix: (Units=1/GPa)
#
#
# Indices 1 2 3 4 5 6 
#
# 1 0.025400 -0.002118 -0.006658 0.000000 0.000000 -0.004130
# 2 -0.002118 0.025400 -0.006658 0.000000 0.000000 0.004130
# 3 -0.006658 -0.006658 0.010697 0.000000 0.000000 0.000000
# 4 0.000000 0.000000 0.000000 0.030392 0.000000 0.000000
# 5 0.000000 0.000000 0.000000 0.000000 0.030392 0.000000
# 6 -0.004130 0.004130 0.000000 0.000000 0.000000 0.028436
#
#
# Mechanical properties :
#
#
# Convention : Reuss Voigt Hill
#
# Bulk Modulus (GPa) = 32.65199 49.40793 41.02996
# Shear Modulus (GPa) = 26.06949 30.68083 28.37516
#
# Velocity S-wave (km/s) = 3.50165 3.79874 3.65321
# Velocity P-wave (km/s) = 5.63083 6.51760 6.09037
#
# Compressibility (1/GPa) = 0.03062601
#
# Stress axis : x y z
#
# Youngs Moduli (GPa) = 39.37037 39.37037 93.48823
#
# Poissons Ratio (x) = 0.08339 0.62249
# Poissons Ratio (y) = 0.08339 0.62249
# Poissons Ratio (z) = 0.26215 0.26215
#
# Static dielectric constant tensor:
#      x y z
#    x 3.640680 0.000000 0.000000 
#    y 0.000000 3.640680 0.000000 
#    z 0.000000 0.000000 3.887870 
# 
# 
# High freq. dielectric constant tensor:
#      x y z
#    x 1.827850 0.000000 0.000000 
#    y 0.000000 1.827850 0.000000 
#    z 0.000000 0.000000 1.843420 
# 
# From -- ./inp_files/3368.got.cif
#   From: 2010.03.12/outbox.cif.g09.slc.cpg/sg83_2_cif.got.tgz:3368.got - 2010.04.08 20:05:18.
