data_PCOD8302038
_publ_section_title
;
Structure prediction by ZEFSAII (Michael W. Deem and Ramdas Pophale) SiO2 
 PCOD8302038
Probable space group: P 43
;
_chemical_formula_sum "Si O2"
_cell_formula_units_Z 24
_cell_length_a 7.792247
_cell_length_b 7.792247
_cell_length_c 17.401966
_cell_angle_alpha 90.000000
_cell_angle_beta 90.000000
_cell_angle_gamma 90.000000
_cell_volume 1056.631945
_symmetry_space_group_name_H-M "P 43"
_symmetry_group_IT_number 78
_symmetry_cell_setting 'tetragonal'
loop_
_space_group_symop_operation_xyz
x,y,z
-y,x,3/4+z
-x,-y,1/2+z
y,-x,1/4+z
loop_
_atom_site_type_symbol
_atom_site_label
_atom_site_fract_x
_atom_site_fract_y
_atom_site_fract_z
Si Si1 0.154882 0.303870 0.127480
Si Si2 0.565121 0.118496 0.714481
Si Si3 0.455573 0.277503 0.236013
Si Si4 0.788257 0.418645 0.160144
Si Si5 0.914179 0.873715 0.361907
Si Si6 0.804306 0.796267 0.196205
O O1 0.297027 0.365323 0.189796
O O2 0.961672 0.306156 0.162119
O O3 0.182422 0.109718 0.099488
O O4 0.178868 0.424662 0.053145
O O5 0.738003 0.175292 0.670037
O O6 0.396627 0.194138 0.672327
O O7 0.542060 0.916915 0.710768
O O8 0.642351 0.354852 0.218289
O O9 0.421062 0.298620 0.326201
O O10 0.859811 0.600530 0.188302
O O11 0.815549 0.868327 0.281958
O O12 0.905791 0.069010 0.392380
#
# Coordination Sequence:
#
# PCOD8302038 Si02
#       6
#     4   4   4   4   4   4
#     4  10  22  45  74  96 142 184 235 295 353 432
#     4  10  23  44  68 104 134 183 240 286 356 432
#     4  10  24  45  67 100 138 182 236 292 361 420
#     4  11  26  44  66 106 138 184 238 294 361 432
#     4  11  23  46  70 104 138 190 233 301 359 422
#     4  12  26  42  75 100 148 183 240 298 358 438
#
# _framework density 22.71368
#
# number of rings (size 3 to 8) (size 9 to 14) (size 15 to 20)
#    0.000    1.333    1.667    3.000    4.667    4.000 
#    0.000    0.000    0.000    0.000    0.000    0.000 
#    0.000    0.000    0.000    0.000    0.000    0.000 
#
# Total GULP energy -297626.464065 kJ/mol
# GULP energy per Si atom -12401.102669 kJ/mol
# Density = 2.266198 g / cm^3
# Si number density = 22.713680 Si / 1000 Ang^3
#
#
#
# Elastic Constant Matrix: (Units=GPa)
#
#
# Indices 1 2 3 4 5 6 
#
# 1 85.7709 5.0842 29.8229 0.0000 0.0000 -8.1229
# 2 5.0842 85.7709 29.8229 0.0000 0.0000 8.1229
# 3 29.8229 29.8229 91.9848 0.0000 0.0000 0.0000
# 4 0.0000 0.0000 0.0000 28.2777 0.0000 0.0000
# 5 0.0000 0.0000 0.0000 0.0000 28.2777 0.0000
# 6 -8.1229 8.1229 0.0000 0.0000 0.0000 27.2708
#
#
#
# Elastic Compliance Matrix: (Units=1/GPa)
#
#
# Indices 1 2 3 4 5 6 
#
# 1 0.013584 0.000399 -0.004533 0.000000 0.000000 0.003927
# 2 0.000399 0.013584 -0.004533 0.000000 0.000000 -0.003927
# 3 -0.004533 -0.004533 0.013811 0.000000 0.000000 0.000000
# 4 0.000000 0.000000 0.000000 0.035364 0.000000 0.000000
# 5 0.000000 0.000000 0.000000 0.000000 0.035364 0.000000
# 6 0.003927 -0.003927 0.000000 0.000000 0.000000 0.039009
#
#
# Mechanical properties :
#
#
# Convention : Reuss Voigt Hill
#
# Bulk Modulus (GPa) = 42.29631 43.66518 42.98074
# Shear Modulus (GPa) = 28.42040 30.01836 29.21938
#
# Velocity S-wave (km/s) = 3.54113 3.63932 3.59056
# Velocity P-wave (km/s) = 5.94823 6.07663 6.01277
#
# Compressibility (1/GPa) = 0.02364273
#
# Stress axis : x y z
#
# Youngs Moduli (GPa) = 73.61864 73.61864 72.40624
#
# Poissons Ratio (x) = -0.02939 0.32825
# Poissons Ratio (y) = -0.02939 0.32825
# Poissons Ratio (z) = 0.33374 0.33374
#
# Static dielectric constant tensor:
#      x y z
#    x 4.131740 0.000000 0.000000 
#    y 0.000000 4.131740 0.000000 
#    z 0.000000 0.000000 4.024890 
# 
# 
# High freq. dielectric constant tensor:
#      x y z
#    x 1.899630 0.000000 0.000000 
#    y 0.000000 1.899630 0.000000 
#    z 0.000000 0.000000 1.891160 
# 
# From -- ./inp_files/1233.got.cif
#   From: 2010.03.12/outbox.cif.g09.slc.cpg/sg78_cif.got.tgz:1233.got - 2010.04.16 16:37:20.
