data_PCOD8302945
_publ_section_title
;
Structure prediction by ZEFSAII (Michael W. Deem and Ramdas Pophale) SiO2 
 PCOD8302945
Probable space group: P 4/M
;
_chemical_formula_sum "Si O2"
_cell_formula_units_Z 48
_cell_length_a 8.914092
_cell_length_b 8.914092
_cell_length_c 30.599786
_cell_angle_alpha 90.000000
_cell_angle_beta 90.000000
_cell_angle_gamma 90.000000
_cell_volume 2431.490703
_symmetry_space_group_name_H-M "P 4/M"
_symmetry_group_IT_number 83
_symmetry_cell_setting 'tetragonal'
loop_
_space_group_symop_operation_xyz
x,y,z
-y,x,z
-x,-y,z
y,-x,z
-x,-y,-z
y,-x,-z
x,y,-z
-y,x,-z
loop_
_atom_site_type_symbol
_atom_site_label
_atom_site_fract_x
_atom_site_fract_y
_atom_site_fract_z
Si Si1 0.273139 0.596310 0.000000
Si Si2 0.389944 0.280191 0.572409
Si Si3 0.270129 0.596579 0.905606
Si Si4 0.598685 0.723474 0.327818
Si Si5 0.094582 0.774240 0.261887
Si Si6 0.903529 0.225929 0.837351
Si Si7 0.776088 0.890876 0.500000
O O1 0.308197 0.422491 0.000000
O O2 0.192212 0.630405 0.953484
O O3 0.565389 0.302877 0.562329
O O4 0.371722 0.227425 0.622361
O O5 0.320497 0.150340 0.542674
O O6 0.307094 0.421629 0.900251
O O7 0.150574 0.641872 0.869001
O O8 0.425147 0.694061 0.318431
O O9 0.646258 0.855634 0.295386
O O10 0.119467 0.718851 0.212315
O O11 0.921529 0.807285 0.270628
O O12 0.077272 0.193242 0.846401
O O13 0.932065 0.801581 0.500000
#
# Coordination Sequence:
#
# PCOD8302945 Si02
#       7
#     4   8   8   8   8   8   4
#     4   7  12  26  46  67  94 124 152 189 240 293
#     4   9  19  37  58  77 100 133 169 203 244 294
#     4   9  17  30  50  74  96 121 157 200 244 290
#     4   9  19  35  54  78 105 129 159 203 249 292
#     4   9  19  35  52  70  96 132 169 202 240 288
#     4   9  19  35  50  66  95 133 167 199 239 288
#     4  11  24  37  50  76 110 137 166 207 248 286
#
# _framework density 19.740977999999998
#
# number of rings (size 3 to 8) (size 9 to 14) (size 15 to 20)
#    0.000    3.000    0.000    3.500    0.000    6.000 
#    0.000   10.833    0.000    4.000    0.000    0.000 
#    0.000    0.000    0.000    0.000    0.000    0.000 
#
# Total GULP energy -594974.730984 kJ/mol
# GULP energy per Si atom -12395.306896 kJ/mol
# Density = 1.969605 g / cm^3
# Si number density = 19.740978 Si / 1000 Ang^3
#
#
#
# Elastic Constant Matrix: (Units=GPa)
#
#
# Indices 1 2 3 4 5 6 
#
# 1 12.3865 -4.4090 10.7615 0.0000 0.0000 -2.0441
# 2 -4.4090 12.3865 10.7615 0.0000 0.0000 2.0441
# 3 10.7615 10.7615 93.3457 0.0000 0.0000 0.0000
# 4 0.0000 0.0000 0.0000 2.7804 0.0000 0.0000
# 5 0.0000 0.0000 0.0000 0.0000 2.7804 0.0000
# 6 -2.0441 2.0441 0.0000 0.0000 0.0000 29.8840
#
#
#
# Elastic Compliance Matrix: (Units=1/GPa)
#
#
# Indices 1 2 3 4 5 6 
#
# 1 0.121246 0.060698 -0.020976 0.000000 0.000000 0.004142
# 2 0.060698 0.121246 -0.020976 0.000000 0.000000 -0.004142
# 3 -0.020976 -0.020976 0.015549 0.000000 0.000000 0.000000
# 4 0.000000 0.000000 0.000000 0.359658 0.000000 0.000000
# 5 0.000000 0.000000 0.000000 0.000000 0.359658 0.000000
# 6 0.004142 -0.004142 0.000000 0.000000 0.000000 0.034029
#
#
# Mechanical properties :
#
#
# Convention : Reuss Voigt Hill
#
# Bulk Modulus (GPa) = 3.38369 16.92739 10.15554
# Shear Modulus (GPa) = 4.66242 13.82261 9.24252
#
# Velocity S-wave (km/s) = 1.53848 2.64900 2.16612
# Velocity P-wave (km/s) = 2.20764 4.23670 3.37811
#
# Compressibility (1/GPa) = 0.29553568
#
# Stress axis : x y z
#
# Youngs Moduli (GPa) = 8.24768 8.24768 64.31161
#
# Poissons Ratio (x) = -0.50062 1.34898
# Poissons Ratio (y) = -0.50062 1.34898
# Poissons Ratio (z) = 0.17300 0.17300
#
# Static dielectric constant tensor:
#      x y z
#    x 3.306410 0.000000 0.000000 
#    y 0.000000 3.306410 0.000000 
#    z 0.000000 0.000000 3.744400 
# 
# 
# High freq. dielectric constant tensor:
#      x y z
#    x 1.750880 0.000000 0.000000 
#    y 0.000000 1.750880 0.000000 
#    z 0.000000 0.000000 1.781790 
# 
# From -- ./inp_files/3487.got.cif
#   From: 2010.03.12/outbox.cif.g09.slc.cpg/sg83_2_cif.got.tgz:3487.got - 2010.04.08 20:05:18.
