data_PCOD8302798
_publ_section_title
;
Structure prediction by ZEFSAII (Michael W. Deem and Ramdas Pophale) SiO2 
 PCOD8302798
Probable space group: P 4/M
;
_chemical_formula_sum "Si O2"
_cell_formula_units_Z 52
_cell_length_a 16.578807
_cell_length_b 16.578807
_cell_length_c 10.033511
_cell_angle_alpha 90.000000
_cell_angle_beta 90.000000
_cell_angle_gamma 90.000000
_cell_volume 2757.779143
_symmetry_space_group_name_H-M "P 4/M"
_symmetry_group_IT_number 83
_symmetry_cell_setting 'tetragonal'
loop_
_space_group_symop_operation_xyz
x,y,z
-y,x,z
-x,-y,z
y,-x,z
-x,-y,-z
y,-x,-z
x,y,-z
-y,x,-z
loop_
_atom_site_type_symbol
_atom_site_label
_atom_site_fract_x
_atom_site_fract_y
_atom_site_fract_z
Si Si1 0.099781 0.356809 0.151175
Si Si2 0.911908 0.782997 0.645765
Si Si3 0.891756 0.923900 0.000000
Si Si4 0.914109 0.194752 0.733767
Si Si5 0.213844 0.503938 0.154429
Si Si6 0.507222 0.632410 0.345882
Si Si7 0.918262 0.364465 0.846838
O O1 0.115683 0.283469 0.249377
O O2 0.171147 0.418977 0.179478
O O3 0.010568 0.395721 0.173293
O O4 0.105402 0.324202 0.000000
O O5 0.922445 0.742861 0.500000
O O6 0.842447 0.850606 0.630523
O O7 0.995333 0.825749 0.688333
O O8 0.846746 0.890826 0.872028
O O9 0.980236 0.888136 0.000000
O O10 0.903164 0.290462 0.747256
O O11 0.291161 0.512852 0.248605
O O12 0.146371 0.568916 0.194008
O O13 0.240613 0.513360 0.000000
O O14 0.425006 0.583662 0.316762
O O15 0.508610 0.660951 0.500000
O O16 0.906197 0.337492 0.000000
#
# Coordination Sequence:
#
# PCOD8302798 Si02
#       7
#     8   8   4   8   8   8   8
#     4   9  20  37  58  79 108 147 186 226 273 331
#     4  11  24  38  53  76 111 150 189 236 284 325
#     4  11  20  32  54  86 105 143 201 240 273 337
#     4  11  21  35  55  78 112 146 191 232 283 332
#     4  10  20  36  59  91 116 137 177 228 279 327
#     4   9  20  40  62  82 109 148 185 215 261 332
#     4   9  18  33  57  82 110 145 182 227 273 326
#
# _framework density 18.855751999999999
#
# number of rings (size 3 to 8) (size 9 to 14) (size 15 to 20)
#    0.000    2.077    2.308    1.385    2.154    4.615 
#    0.000   10.000    0.000    4.615    0.000    0.000 
#    0.000    0.000    0.000    0.000    0.000    0.000 
#
# Total GULP energy -644693.075345 kJ/mol
# GULP energy per Si atom -12397.943757 kJ/mol
# Density = 1.881284 g / cm^3
# Si number density = 18.855752 Si / 1000 Ang^3
#
#
#
# Elastic Constant Matrix: (Units=GPa)
#
#
# Indices 1 2 3 4 5 6 
#
# 1 62.5988 8.5270 29.7137 0.0000 0.0000 -0.6621
# 2 8.5270 62.5988 29.7137 0.0000 0.0000 0.6621
# 3 29.7137 29.7137 89.2327 0.0000 0.0000 0.0000
# 4 0.0000 0.0000 0.0000 20.2079 0.0000 0.0000
# 5 0.0000 0.0000 0.0000 0.0000 20.2079 0.0000
# 6 -0.6621 0.6621 0.0000 0.0000 0.0000 25.2341
#
#
#
# Elastic Compliance Matrix: (Units=1/GPa)
#
#
# Indices 1 2 3 4 5 6 
#
# 1 0.018992 0.000487 -0.006486 0.000000 0.000000 0.000486
# 2 0.000487 0.018992 -0.006486 0.000000 0.000000 -0.000486
# 3 -0.006486 -0.006486 0.015526 0.000000 0.000000 0.000000
# 4 0.000000 0.000000 0.000000 0.049486 0.000000 0.000000
# 5 0.000000 0.000000 0.000000 0.000000 0.049486 0.000000
# 6 0.000486 -0.000486 0.000000 0.000000 0.000000 0.039654
#
#
# Mechanical properties :
#
#
# Convention : Reuss Voigt Hill
#
# Bulk Modulus (GPa) = 35.03950 38.92656 36.98303
# Shear Modulus (GPa) = 22.06314 22.89503 22.47909
#
# Velocity S-wave (km/s) = 3.42439 3.48835 3.45651
# Velocity P-wave (km/s) = 5.85308 6.07569 5.96542
#
# Compressibility (1/GPa) = 0.02853922
#
# Stress axis : x y z
#
# Youngs Moduli (GPa) = 52.65238 52.65238 64.40609
#
# Poissons Ratio (x) = -0.02562 0.41776
# Poissons Ratio (y) = -0.02562 0.41776
# Poissons Ratio (z) = 0.34152 0.34152
#
# Static dielectric constant tensor:
#      x y z
#    x 3.357780 0.000000 0.000000 
#    y 0.000000 3.357780 0.000000 
#    z 0.000000 0.000000 3.386180 
# 
# 
# High freq. dielectric constant tensor:
#      x y z
#    x 1.727560 0.000000 0.000000 
#    y 0.000000 1.727560 0.000000 
#    z 0.000000 0.000000 1.728870 
# 
# From -- ./inp_files/1011.got.cif
#   From: 2010.03.12/outbox.cif.g09.slc.cpg/sg83_1_cif.got.tgz:1011.got - 2010.04.08 20:05:18.
