data_PCOD8302695
_publ_section_title
;
Structure prediction by ZEFSAII (Michael W. Deem and Ramdas Pophale) SiO2 
 PCOD8302695
Probable space group: P 4/M
;
_chemical_formula_sum "Si O2"
_cell_formula_units_Z 36
_cell_length_a 14.952909
_cell_length_b 14.952909
_cell_length_c 9.234718
_cell_angle_alpha 90.000000
_cell_angle_beta 90.000000
_cell_angle_gamma 90.000000
_cell_volume 2064.785865
_symmetry_space_group_name_H-M "P 4/M"
_symmetry_group_IT_number 83
_symmetry_cell_setting 'tetragonal'
loop_
_space_group_symop_operation_xyz
x,y,z
-y,x,z
-x,-y,z
y,-x,z
-x,-y,-z
y,-x,-z
x,y,-z
-y,x,-z
loop_
_atom_site_type_symbol
_atom_site_label
_atom_site_fract_x
_atom_site_fract_y
_atom_site_fract_z
Si Si1 0.854328 0.023793 0.500000
Si Si2 0.041369 0.316105 0.339840
Si Si3 0.806107 0.589086 0.828881
Si Si4 0.079134 0.570888 0.841091
Si Si5 0.563831 0.369448 0.667188
O O1 0.791593 0.033576 0.356937
O O2 0.926753 0.101584 0.500000
O O3 0.052315 0.360385 0.500000
O O4 0.126337 0.339557 0.241590
O O5 0.948064 0.351457 0.270612
O O6 0.834608 0.486587 0.790481
O O7 0.707660 0.605512 0.766630
O O8 0.807134 0.605709 0.000000
O O9 0.000000 0.500000 0.851158
O O10 0.095654 0.613633 0.000000
O O11 0.617323 0.459542 0.703255
O O12 0.576032 0.342949 0.500000
#
# Coordination Sequence:
#
# PCOD8302695 Si02
#       5
#     4   8   8   8   8
#     4   9  20  40  59  76 104 135 170 217 279 335
#     4   9  18  31  54  81  99 128 175 216 269 313
#     4  10  19  32  51  78 113 145 173 217 267 311
#     4   8  15  29  48  72 107 141 163 202 265 318
#     4   9  19  36  53  71 102 148 190 220 249 291
#
# _framework density 17.435223000000001
#
# number of rings (size 3 to 8) (size 9 to 14) (size 15 to 20)
#    0.667    2.333    0.000    3.333    0.000    5.778 
#    4.000    1.111    0.000    4.000    0.000    6.222 
#    0.000    0.000    0.000    0.000    0.000    0.000 
#
# Total GULP energy -446116.401974 kJ/mol
# GULP energy per Si atom -12392.122277 kJ/mol
# Density = 1.739554 g / cm^3
# Si number density = 17.435223 Si / 1000 Ang^3
#
#
#
# Elastic Constant Matrix: (Units=GPa)
#
#
# Indices 1 2 3 4 5 6 
#
# 1 86.4827 29.7384 41.5998 0.0000 0.0000 1.3958
# 2 29.7384 86.4827 41.5998 0.0000 0.0000 -1.3958
# 3 41.5998 41.5998 92.1161 0.0000 0.0000 0.0000
# 4 0.0000 0.0000 0.0000 14.2716 0.0000 0.0000
# 5 0.0000 0.0000 0.0000 0.0000 14.2716 0.0000
# 6 1.3958 -1.3958 0.0000 0.0000 0.0000 15.9964
#
#
#
# Elastic Compliance Matrix: (Units=1/GPa)
#
#
# Indices 1 2 3 4 5 6 
#
# 1 0.015207 -0.002492 -0.005742 0.000000 0.000000 -0.001544
# 2 -0.002492 0.015207 -0.005742 0.000000 0.000000 0.001544
# 3 -0.005742 -0.005742 0.016042 0.000000 0.000000 0.000000
# 4 0.000000 0.000000 0.000000 0.070069 0.000000 0.000000
# 5 0.000000 0.000000 0.000000 0.000000 0.070069 0.000000
# 6 -0.001544 0.001544 0.000000 0.000000 0.000000 0.062783
#
#
# Mechanical properties :
#
#
# Convention : Reuss Voigt Hill
#
# Bulk Modulus (GPa) = 54.04346 54.55083 54.29714
# Shear Modulus (GPa) = 17.63684 19.05085 18.34385
#
# Velocity S-wave (km/s) = 3.18396 3.30913 3.24715
# Velocity P-wave (km/s) = 6.67689 6.77909 6.72818
#
# Compressibility (1/GPa) = 0.01850363
#
# Stress axis : x y z
#
# Youngs Moduli (GPa) = 65.75969 65.75969 62.33602
#
# Poissons Ratio (x) = 0.16387 0.35794
# Poissons Ratio (y) = 0.16387 0.35794
# Poissons Ratio (z) = 0.37760 0.37760
#
# Static dielectric constant tensor:
#      x y z
#    x 3.136130 0.000000 0.000000 
#    y 0.000000 3.136130 0.000000 
#    z 0.000000 0.000000 3.222840 
# 
# 
# High freq. dielectric constant tensor:
#      x y z
#    x 1.656150 0.000000 0.000000 
#    y 0.000000 1.656150 0.000000 
#    z 0.000000 0.000000 1.671870 
# 
# From -- ./inp_files/556.got.cif
#   From: 2010.03.12/outbox.cif.g09.slc.cpg/sg83_1_cif.got.tgz:556.got - 2010.04.08 20:05:18.
