data_PCOD8302543
_publ_section_title
;
Structure prediction by ZEFSAII (Michael W. Deem and Ramdas Pophale) SiO2 
 PCOD8302543
Probable space group: I -4 
;
_chemical_formula_sum "Si O2"
_cell_formula_units_Z 42
_cell_length_a 15.041440
_cell_length_b 15.041440
_cell_length_c 8.164249
_cell_angle_alpha 90.000000
_cell_angle_beta 90.000000
_cell_angle_gamma 90.000000
_cell_volume 1847.119840
_symmetry_space_group_name_H-M "I -4 "
_symmetry_group_IT_number 82
_symmetry_cell_setting 'tetragonal'
loop_
_space_group_symop_operation_xyz
x,y,z
y,-x,-z
-x,-y,z
-y,x,-z
1/2+x,1/2+y,1/2+z
1/2+y,1/2-x,1/2-z
1/2-x,1/2-y,1/2+z
1/2-y,1/2+x,1/2-z
loop_
_atom_site_type_symbol
_atom_site_label
_atom_site_fract_x
_atom_site_fract_y
_atom_site_fract_z
Si Si1 0.065397 0.306610 0.089334
Si Si2 0.493593 0.893690 0.916242
Si Si3 0.186235 0.802908 0.728528
Si Si4 0.368987 0.224417 0.093550
Si Si5 0.500000 0.500000 0.500000
Si Si6 0.992545 0.822438 0.819536
O O1 0.121482 0.392140 0.021815
O O2 0.137418 0.233821 0.135983
O O3 0.005273 0.341971 0.242032
O O4 0.003794 0.259134 0.952127
O O5 0.500000 0.000000 0.899084
O O6 0.564617 0.855925 0.044495
O O7 0.187420 0.699594 0.774396
O O8 0.235033 0.815917 0.557468
O O9 0.085055 0.834087 0.725612
O O10 0.421812 0.303943 0.178236
O O11 0.464696 0.416727 0.395696
#
# Coordination Sequence:
#
# PCOD8302543 Si02
#       6
#     8   8   8   8   2   8
#     4  11  22  43  77 104 149 191 241 298 371 433
#     4  11  22  44  71 114 149 193 236 299 374 440
#     4  11  26  46  71 108 148 199 242 302 372 437
#     4  11  28  46  74 107 151 197 252 304 365 442
#     4  12  28  52  78 104 148 204 246 304 376 436
#     4  12  27  49  73 111 145 196 253 308 363 445
#
# _framework density 22.738102000000001
#
# number of rings (size 3 to 8) (size 9 to 14) (size 15 to 20)
#    0.000    0.762    3.810    2.286    8.000    1.524 
#    0.000    0.952    0.000    0.000    0.000    0.000 
#    0.000    0.000    0.000    0.000    0.000    0.000 
#
# Total GULP energy -260369.215803 kJ/mol
# GULP energy per Si atom -12398.534086 kJ/mol
# Density = 2.268635 g / cm^3
# Si number density = 22.738102 Si / 1000 Ang^3
#
#
#
# Elastic Constant Matrix: (Units=GPa)
#
#
# Indices 1 2 3 4 5 6 
#
# 1 123.4204 19.2665 39.4365 0.0000 0.0000 1.6748
# 2 19.2665 123.4204 39.4365 0.0000 0.0000 -1.6748
# 3 39.4365 39.4365 87.2247 0.0000 0.0000 0.0000
# 4 0.0000 0.0000 0.0000 31.8941 0.0000 0.0000
# 5 0.0000 0.0000 0.0000 0.0000 31.8941 0.0000
# 6 1.6748 -1.6748 0.0000 0.0000 0.0000 38.0656
#
#
#
# Elastic Compliance Matrix: (Units=1/GPa)
#
#
# Indices 1 2 3 4 5 6 
#
# 1 0.009479 -0.000136 -0.004224 0.000000 0.000000 -0.000423
# 2 -0.000136 0.009479 -0.004224 0.000000 0.000000 0.000423
# 3 -0.004224 -0.004224 0.015285 0.000000 0.000000 0.000000
# 4 0.000000 0.000000 0.000000 0.031354 0.000000 0.000000
# 5 0.000000 0.000000 0.000000 0.000000 0.031354 0.000000
# 6 -0.000423 0.000423 0.000000 0.000000 0.000000 0.026308
#
#
# Mechanical properties :
#
#
# Convention : Reuss Voigt Hill
#
# Bulk Modulus (GPa) = 58.56908 58.92714 58.74811
# Shear Modulus (GPa) = 34.21887 36.09919 35.15903
#
# Velocity S-wave (km/s) = 3.88353 3.98880 3.93652
# Velocity P-wave (km/s) = 6.77666 6.86920 6.82309
#
# Compressibility (1/GPa) = 0.01707386
#
# Stress axis : x y z
#
# Youngs Moduli (GPa) = 105.49491 105.49491 65.42546
#
# Poissons Ratio (x) = 0.01431 0.27638
# Poissons Ratio (y) = 0.01431 0.27638
# Poissons Ratio (z) = 0.44565 0.44565
#
# Static dielectric constant tensor:
#      x y z
#    x 4.410540 0.000000 0.000000 
#    y 0.000000 4.410540 0.000000 
#    z 0.000000 0.000000 4.096210 
# 
# 
# High freq. dielectric constant tensor:
#      x y z
#    x 1.906690 0.000000 0.000000 
#    y 0.000000 1.906690 0.000000 
#    z 0.000000 0.000000 1.892750 
# 
# From -- ./inp_files/967.got.cif
#   From: 2010.03.12/outbox.cif.g09.slc.cpg/sg82_1_cif.got.tgz:967.got - 2010.04.08 20:02:50.
