data_PCOD8302056
_publ_section_title
;
Structure prediction by ZEFSAII (Michael W. Deem and Ramdas Pophale) SiO2 
 PCOD8302056
Probable space group: P 43
;
_chemical_formula_sum "Si O2"
_cell_formula_units_Z 24
_cell_length_a 11.791034
_cell_length_b 11.791034
_cell_length_c 7.053657
_cell_angle_alpha 90.000000
_cell_angle_beta 90.000000
_cell_angle_gamma 90.000000
_cell_volume 980.659231
_symmetry_space_group_name_H-M "P 43"
_symmetry_group_IT_number 78
_symmetry_cell_setting 'tetragonal'
loop_
_space_group_symop_operation_xyz
x,y,z
-y,x,3/4+z
-x,-y,1/2+z
y,-x,1/4+z
loop_
_atom_site_type_symbol
_atom_site_label
_atom_site_fract_x
_atom_site_fract_y
_atom_site_fract_z
Si Si1 0.500602 0.172391 0.070720
Si Si2 0.432120 0.364007 0.798631
Si Si3 0.335623 0.804186 0.906523
Si Si4 0.134490 0.950601 0.806627
Si Si5 0.899815 0.692330 0.568791
Si Si6 0.247905 0.102359 0.117662
O O1 0.548489 0.191055 0.283475
O O2 0.379837 0.112519 0.066180
O O3 0.492572 0.293152 0.964699
O O4 0.583669 0.089866 0.952951
O O5 0.518858 0.385856 0.630560
O O6 0.325019 0.299841 0.704543
O O7 0.234306 0.858791 0.781985
O O8 0.349235 0.870354 0.104969
O O9 0.110819 0.016610 0.612449
O O10 0.172787 0.048758 0.951726
O O11 0.803868 0.774087 0.658287
O O12 0.021524 0.756961 0.554121
#
# Coordination Sequence:
#
# PCOD8302056 Si02
#       6
#     4   4   4   4   4   4
#     4  12  25  46  72 110 143 195 249 300 383 440
#     4  12  23  44  72 106 150 194 248 310 367 451
#     4  11  25  46  69 106 143 193 243 307 373 440
#     4  11  23  47  71 101 145 194 248 308 373 443
#     4  11  25  49  70 105 148 189 248 308 366 449
#     4  11  23  46  74 100 149 191 238 311 366 441
#
# _framework density 24.473334000000001
#
# number of rings (size 3 to 8) (size 9 to 14) (size 15 to 20)
#    0.000    0.667    6.667    1.000    4.667    2.667 
#    3.000    0.000    0.000    0.000    0.000    0.000 
#    0.000    0.000    0.000    0.000    0.000    0.000 
#
# Total GULP energy -297662.229102 kJ/mol
# GULP energy per Si atom -12402.592879 kJ/mol
# Density = 2.441763 g / cm^3
# Si number density = 24.473334 Si / 1000 Ang^3
#
#
#
# Elastic Constant Matrix: (Units=GPa)
#
#
# Indices 1 2 3 4 5 6 
#
# 1 127.9850 31.4596 33.9976 0.0000 0.0000 9.9666
# 2 31.4596 127.9850 33.9976 0.0000 0.0000 -9.9666
# 3 33.9976 33.9976 91.4276 0.0000 0.0000 0.0000
# 4 0.0000 0.0000 0.0000 25.0192 0.0000 0.0000
# 5 0.0000 0.0000 0.0000 0.0000 25.0192 0.0000
# 6 9.9666 -9.9666 0.0000 0.0000 0.0000 36.0939
#
#
#
# Elastic Compliance Matrix: (Units=1/GPa)
#
#
# Indices 1 2 3 4 5 6 
#
# 1 0.009220 -0.001766 -0.002772 0.000000 0.000000 -0.003034
# 2 -0.001766 0.009220 -0.002772 0.000000 0.000000 0.003034
# 3 -0.002772 -0.002772 0.012999 0.000000 0.000000 0.000000
# 4 0.000000 0.000000 0.000000 0.039969 0.000000 0.000000
# 5 0.000000 0.000000 0.000000 0.000000 0.039969 0.000000
# 6 -0.003034 0.003034 0.000000 0.000000 0.000000 0.029381
#
#
# Mechanical properties :
#
#
# Convention : Reuss Voigt Hill
#
# Bulk Modulus (GPa) = 59.45423 60.70082 60.07752
# Shear Modulus (GPa) = 31.05886 33.75599 32.40743
#
# Velocity S-wave (km/s) = 3.56629 3.71792 3.64289
# Velocity P-wave (km/s) = 6.42683 6.57930 6.50351
#
# Compressibility (1/GPa) = 0.01681966
#
# Stress axis : x y z
#
# Youngs Moduli (GPa) = 108.45866 108.45866 76.92929
#
# Poissons Ratio (x) = 0.19157 0.21323
# Poissons Ratio (y) = 0.19157 0.21323
# Poissons Ratio (z) = 0.30062 0.30062
#
# Static dielectric constant tensor:
#      x y z
#    x 4.571350 0.000000 0.000000 
#    y 0.000000 4.571350 0.000000 
#    z 0.000000 0.000000 4.224320 
# 
# 
# High freq. dielectric constant tensor:
#      x y z
#    x 1.980190 0.000000 0.000000 
#    y 0.000000 1.980190 0.000000 
#    z 0.000000 0.000000 1.969340 
# 
# From -- ./inp_files/557.got.cif
#   From: 2010.03.12/outbox.cif.g09.slc.cpg/sg78_cif.got.tgz:557.got - 2010.04.16 16:37:20.
