data_PCOD8302401
_publ_section_title
;
Structure prediction by ZEFSAII (Michael W. Deem and Ramdas Pophale) SiO2 
 PCOD8302401
Probable space group: I -4 
;
_chemical_formula_sum "Si O2"
_cell_formula_units_Z 40
_cell_length_a 11.411383
_cell_length_b 11.411383
_cell_length_c 15.300403
_cell_angle_alpha 90.000000
_cell_angle_beta 90.000000
_cell_angle_gamma 90.000000
_cell_volume 1992.413307
_symmetry_space_group_name_H-M "I -4 "
_symmetry_group_IT_number 82
_symmetry_cell_setting 'tetragonal'
loop_
_space_group_symop_operation_xyz
x,y,z
y,-x,-z
-x,-y,z
-y,x,-z
1/2+x,1/2+y,1/2+z
1/2+y,1/2-x,1/2-z
1/2-x,1/2-y,1/2+z
1/2-y,1/2+x,1/2-z
loop_
_atom_site_type_symbol
_atom_site_label
_atom_site_fract_x
_atom_site_fract_y
_atom_site_fract_z
Si Si1 0.605940 0.924874 0.959620
Si Si2 0.480722 0.860685 0.354824
Si Si3 0.764825 0.124733 0.288242
Si Si4 0.667681 0.917868 0.775124
Si Si5 0.532564 0.677630 0.033442
O O1 0.695747 0.910607 0.879430
O O2 0.500000 0.000000 0.918045
O O3 0.661391 0.996859 0.041262
O O4 0.553262 0.804550 0.994505
O O5 0.351065 0.818686 0.329713
O O6 0.566919 0.774511 0.303165
O O7 0.500000 0.000000 0.332951
O O8 0.861505 0.223380 0.274270
O O9 0.817827 0.034452 0.360206
O O10 0.551016 0.842739 0.756771
O O11 0.633980 0.594158 0.996148
#
# Coordination Sequence:
#
# PCOD8302401 Si02
#       5
#     8   8   8   8   8
#     4  10  21  37  62  86 125 166 204 254 304 386
#     4  10  20  39  64  94 123 159 209 261 309 374
#     4  11  21  39  66  91 120 160 207 260 314 374
#     4  11  23  41  59  88 125 168 213 252 314 379
#     4  10  23  39  62  96 124 156 208 268 322 361
#
# _framework density 20.076156999999998
#
# number of rings (size 3 to 8) (size 9 to 14) (size 15 to 20)
#    0.000    1.600    4.000    1.200    2.800    0.000 
#    3.600    0.000    0.000    0.000    0.000    0.000 
#    0.000    0.000    0.000    0.000    0.000    0.000 
#
# Total GULP energy -247920.458949 kJ/mol
# GULP energy per Si atom -12396.022947 kJ/mol
# Density = 2.003046 g / cm^3
# Si number density = 20.076157 Si / 1000 Ang^3
#
#
#
# Elastic Constant Matrix: (Units=GPa)
#
#
# Indices 1 2 3 4 5 6 
#
# 1 69.0598 26.6820 32.6534 0.0000 0.0000 2.2866
# 2 26.6820 69.0598 32.6534 0.0000 0.0000 -2.2866
# 3 32.6534 32.6534 142.7784 0.0000 0.0000 0.0000
# 4 0.0000 0.0000 0.0000 26.4448 0.0000 0.0000
# 5 0.0000 0.0000 0.0000 0.0000 26.4448 0.0000
# 6 2.2866 -2.2866 0.0000 0.0000 0.0000 30.3033
#
#
#
# Elastic Compliance Matrix: (Units=1/GPa)
#
#
# Indices 1 2 3 4 5 6 
#
# 1 0.018083 -0.005708 -0.002830 0.000000 0.000000 -0.001795
# 2 -0.005708 0.018083 -0.002830 0.000000 0.000000 0.001795
# 3 -0.002830 -0.002830 0.008298 0.000000 0.000000 0.000000
# 4 0.000000 0.000000 0.000000 0.037815 0.000000 0.000000
# 5 0.000000 0.000000 0.000000 0.000000 0.037815 0.000000
# 6 -0.001795 0.001795 0.000000 0.000000 0.000000 0.033271
#
#
# Mechanical properties :
#
#
# Convention : Reuss Voigt Hill
#
# Bulk Modulus (GPa) = 46.02341 51.65286 48.83814
# Shear Modulus (GPa) = 27.27115 29.23251 28.25183
#
# Velocity S-wave (km/s) = 3.68963 3.82000 3.75538
# Velocity P-wave (km/s) = 6.41290 6.72613 6.57138
#
# Compressibility (1/GPa) = 0.02172807
#
# Stress axis : x y z
#
# Youngs Moduli (GPa) = 55.30016 55.30016 120.50501
#
# Poissons Ratio (x) = 0.31564 0.34106
# Poissons Ratio (y) = 0.31564 0.34106
# Poissons Ratio (z) = 0.15651 0.15651
#
# Static dielectric constant tensor:
#      x y z
#    x 3.430600 0.000000 0.000000 
#    y 0.000000 3.430600 0.000000 
#    z 0.000000 0.000000 4.122450 
# 
# 
# High freq. dielectric constant tensor:
#      x y z
#    x 1.761380 0.000000 0.000000 
#    y 0.000000 1.761380 0.000000 
#    z 0.000000 0.000000 1.812560 
# 
# From -- ./inp_files/2182.got.cif
#   From: 2010.03.12/outbox.cif.g09.slc.cpg/sg82_2_cif.got.tgz:2182.got - 2010.04.08 20:02:50.
