data_PCOD8302198
_publ_section_title
;
Structure prediction by ZEFSAII (Michael W. Deem and Ramdas Pophale) SiO2 
 PCOD8302198
Probable space group: I 41
;
_chemical_formula_sum "Si O2"
_cell_formula_units_Z 48
_cell_length_a 15.162896
_cell_length_b 15.162896
_cell_length_c 10.267901
_cell_angle_alpha 90.000000
_cell_angle_beta 90.000000
_cell_angle_gamma 90.000000
_cell_volume 2360.728185
_symmetry_space_group_name_H-M "I 41"
_symmetry_group_IT_number 80
_symmetry_cell_setting 'tetragonal'
loop_
_space_group_symop_operation_xyz
x,y,z
-y,1/2+x,1/4+z
-x,-y,z
y,1/2-x,1/4+z
1/2+x,1/2+y,1/2+z
1/2-y,x,3/4+z
1/2-x,1/2-y,1/2+z
1/2+y,-x,3/4+z
loop_
_atom_site_type_symbol
_atom_site_label
_atom_site_fract_x
_atom_site_fract_y
_atom_site_fract_z
Si Si1 0.431865 0.626441 0.080940
Si Si2 0.597971 0.909330 0.140573
Si Si3 0.000000 0.500000 0.027474
Si Si4 0.975996 0.275047 0.775096
Si Si5 0.500000 0.000000 0.926562
Si Si6 0.770658 0.815324 0.058447
Si Si7 0.539119 0.635000 0.477157
O O1 0.430284 0.550159 0.189330
O O2 0.330695 0.615540 0.034425
O O3 0.458817 0.716783 0.147583
O O4 0.497287 0.605154 0.962943
O O5 0.560869 0.835780 0.240147
O O6 0.695510 0.887908 0.086308
O O7 0.529790 0.918742 0.019364
O O8 0.932868 0.559165 0.110877
O O9 0.995340 0.221586 0.910269
O O10 0.584840 0.024629 0.833202
O O11 0.763965 0.745453 0.174801
O O12 0.869270 0.852296 0.052252
#
# Coordination Sequence:
#
# PCOD8302198 Si02
#       7
#     8   8   4   8   4   8   8
#     4  11  22  40  70  94 123 173 218 267 321 391
#     4  12  22  41  68  93 132 172 219 262 333 397
#     4   9  19  40  64  90 117 169 216 252 330 393
#     4  11  23  42  67  93 127 173 220 264 319 400
#     4  11  21  44  60  96 125 183 210 256 326 399
#     4  12  25  39  60 102 136 166 209 278 342 385
#     4  10  24  39  65  91 131 166 216 269 328 388
#
# _framework density 20.332709000000001
#
# number of rings (size 3 to 8) (size 9 to 14) (size 15 to 20)
#    0.000    1.000    5.000    2.000    2.333    1.333 
#    0.000    1.667    3.667    0.000    0.000    0.000 
#    0.000    0.000    0.000    0.000    0.000    0.000 
#
# Total GULP energy -297322.361350 kJ/mol
# GULP energy per Si atom -12388.431723 kJ/mol
# Density = 2.028643 g / cm^3
# Si number density = 20.332709 Si / 1000 Ang^3
#
#
#
# Elastic Constant Matrix: (Units=GPa)
#
#
# Indices 1 2 3 4 5 6 
#
# 1 98.0467 40.7858 43.8212 0.0000 0.0000 3.1832
# 2 40.7858 98.0467 43.8212 0.0000 0.0000 -3.1832
# 3 43.8212 43.8212 125.7460 0.0000 0.0000 0.0000
# 4 0.0000 0.0000 0.0000 31.3175 0.0000 0.0000
# 5 0.0000 0.0000 0.0000 0.0000 31.3175 0.0000
# 6 3.1832 -3.1832 0.0000 0.0000 0.0000 19.4100
#
#
#
# Elastic Compliance Matrix: (Units=1/GPa)
#
#
# Indices 1 2 3 4 5 6 
#
# 1 0.013511 -0.004277 -0.003218 0.000000 0.000000 -0.002917
# 2 -0.004277 0.013511 -0.003218 0.000000 0.000000 0.002917
# 3 -0.003218 -0.003218 0.010195 0.000000 0.000000 0.000000
# 4 0.000000 0.000000 0.000000 0.031931 0.000000 0.000000
# 5 0.000000 0.000000 0.000000 0.000000 0.031931 0.000000
# 6 -0.002917 0.002917 0.000000 0.000000 0.000000 0.052477
#
#
# Mechanical properties :
#
#
# Convention : Reuss Voigt Hill
#
# Bulk Modulus (GPa) = 63.32336 64.29954 63.81145
# Shear Modulus (GPa) = 27.73969 29.30308 28.52138
#
# Velocity S-wave (km/s) = 3.69764 3.80041 3.74937
# Velocity P-wave (km/s) = 7.03144 7.13791 7.08488
#
# Compressibility (1/GPa) = 0.01579196
#
# Stress axis : x y z
#
# Youngs Moduli (GPa) = 74.01175 74.01175 98.08251
#
# Poissons Ratio (x) = 0.31654 0.31564
# Poissons Ratio (y) = 0.31654 0.31564
# Poissons Ratio (z) = 0.23818 0.23818
#
# Static dielectric constant tensor:
#      x y z
#    x 3.633360 0.000000 0.000000 
#    y 0.000000 3.633360 0.000000 
#    z 0.000000 0.000000 4.167720 
# 
# 
# High freq. dielectric constant tensor:
#      x y z
#    x 1.776760 0.000000 0.000000 
#    y 0.000000 1.776760 0.000000 
#    z 0.000000 0.000000 1.822890 
# 
# From -- ./inp_files/1029.got.cif
#   From: 2010.03.12/outbox.cif.g09.slc.cpg/sg80_cif.got.tgz:1029.got - 2010.04.08 20:00:04.
