data_PCOD8302245
_publ_section_title
;
Structure prediction by ZEFSAII (Michael W. Deem and Ramdas Pophale) SiO2 
 PCOD8302245
Probable space group: P -4
;
_chemical_formula_sum "Si O2"
_cell_formula_units_Z 20
_cell_length_a 7.455463
_cell_length_b 7.455463
_cell_length_c 16.475561
_cell_angle_alpha 90.000000
_cell_angle_beta 90.000000
_cell_angle_gamma 90.000000
_cell_volume 915.776405
_symmetry_space_group_name_H-M "P -4"
_symmetry_group_IT_number 81
_symmetry_cell_setting 'tetragonal'
loop_
_space_group_symop_operation_xyz
x,y,z
y,-x,-z
-x,-y,z
-y,x,-z
loop_
_atom_site_type_symbol
_atom_site_label
_atom_site_fract_x
_atom_site_fract_y
_atom_site_fract_z
Si Si1 0.000000 0.214168 0.289970
Si Si2 0.290117 1.000000 0.526942
Si Si3 0.208057 0.208056 1.000000
Si Si4 0.791803 0.697164 0.827299
Si Si5 0.302836 0.208197 0.172701
O O1 0.830406 0.288328 0.239331
O O2 0.000001 0.307616 0.376447
O O3 0.169594 0.288328 0.239331
O O4 0.000000 0.000000 0.302587
O O5 0.179714 0.820286 0.500000
O O6 0.500000 0.000000 0.493774
O O7 0.289607 0.294227 0.082396
O O8 0.294227 0.289607 0.917604
O O9 0.000000 0.252015 0.004217
O O10 0.758949 0.500000 0.792139
O O11 1.000000 0.746287 0.837562
#
# Coordination Sequence:
#
# PCOD8302245 Si02
#       5
#     4   4   4   4   4
#     4  10  18  37  61  90 122 161 212 266 317 387
#     4  11  25  48  75 105 137 175 219 273 343 416
#     4   9  14  26  46  71 110 158 208 259 308 365
#     4   9  17  28  50  84 118 160 212 261 311 367
#     4   9  17  28  50  84 118 160 212 261 311 367
#
# _framework density 21.839390000000002
#
# number of rings (size 3 to 8) (size 9 to 14) (size 15 to 20)
#    0.000    2.400    4.000    0.000    0.000    2.000 
#    0.000    2.000    0.000    3.000    0.000    0.000 
#    0.000    0.000    0.000    0.000    0.000    0.000 
#
# Total GULP energy -247773.259945 kJ/mol
# GULP energy per Si atom -12388.662997 kJ/mol
# Density = 2.178968 g / cm^3
# Si number density = 21.839390 Si / 1000 Ang^3
#
#
#
# Elastic Constant Matrix: (Units=GPa)
#
#
# Indices 1 2 3 4 5 6 
#
# 1 321.0421 -185.3465 37.4356 0.0000 0.0000 0.0000
# 2 -185.3465 321.0421 37.4356 0.0000 0.0000 0.0000
# 3 37.4356 37.4356 160.3201 0.0000 0.0000 0.0000
# 4 0.0000 0.0000 0.0000 0.6497 0.0000 0.0000
# 5 0.0000 0.0000 0.0000 0.0000 0.6497 0.0000
# 6 0.0000 0.0000 0.0000 0.0000 0.0000 5.1717
#
#
#
# Elastic Compliance Matrix: (Units=1/GPa)
#
#
# Indices 1 2 3 4 5 6 
#
# 1 0.005217 0.003242 -0.001975 0.000000 0.000000 0.000000
# 2 0.003242 0.005217 -0.001975 0.000000 0.000000 0.000000
# 3 -0.001975 -0.001975 0.007160 0.000000 0.000000 0.000000
# 4 0.000000 0.000000 0.000000 1.539110 0.000000 0.000000
# 5 0.000000 0.000000 0.000000 0.000000 1.539110 0.000000
# 6 0.000000 0.000000 0.000000 0.000000 0.000000 0.193360
#
#
# Mechanical properties :
#
#
# Convention : Reuss Voigt Hill
#
# Bulk Modulus (GPa) = 61.81443 64.60600 63.21022
# Shear Modulus (GPa) = 1.51700 62.15286 31.83493
#
# Velocity S-wave (km/s) = 0.83434 5.34049 3.82210
# Velocity P-wave (km/s) = 5.41237 8.22644 6.96305
#
# Compressibility (1/GPa) = 0.01617745
#
# Stress axis : x y z
#
# Youngs Moduli (GPa) = 191.67944 191.67944 139.66465
#
# Poissons Ratio (x) = -0.62148 0.27588
# Poissons Ratio (y) = -0.62148 0.27588
# Poissons Ratio (z) = 0.37862 0.37862
#
# Static dielectric constant tensor:
#      x y z
#    x 3.704430 0.000000 0.000000 
#    y 0.000000 3.704430 0.000000 
#    z 0.000000 0.000000 3.904840 
# 
# 
# High freq. dielectric constant tensor:
#      x y z
#    x 1.837470 0.000000 0.000000 
#    y 0.000000 1.837470 0.000000 
#    z 0.000000 0.000000 1.857830 
# 
# From -- ./inp_files/1495.got.cif
#   From: 2010.03.12/outbox.cif.g09.slc.cpg/sg81_cif.got.tgz:1495.got - 2010.04.08 20:01:38.
