data_PCOD8302180
_publ_section_title
;
Structure prediction by ZEFSAII (Michael W. Deem and Ramdas Pophale) SiO2 
 PCOD8302180
Probable space group: I 41
;
_chemical_formula_sum "Si O2"
_cell_formula_units_Z 52
_cell_length_a 20.253322
_cell_length_b 20.253322
_cell_length_c 5.104927
_cell_angle_alpha 90.000000
_cell_angle_beta 90.000000
_cell_angle_gamma 90.000000
_cell_volume 2094.026006
_symmetry_space_group_name_H-M "I 41"
_symmetry_group_IT_number 80
_symmetry_cell_setting 'tetragonal'
loop_
_space_group_symop_operation_xyz
x,y,z
-y,1/2+x,1/4+z
-x,-y,z
y,1/2-x,1/4+z
1/2+x,1/2+y,1/2+z
1/2-y,x,3/4+z
1/2-x,1/2-y,1/2+z
1/2+y,-x,3/4+z
loop_
_atom_site_type_symbol
_atom_site_label
_atom_site_fract_x
_atom_site_fract_y
_atom_site_fract_z
Si Si1 0.661444 0.712252 0.857310
Si Si2 0.558751 0.796091 0.629030
Si Si3 0.924894 0.620761 0.639643
Si Si4 0.575106 0.379239 0.293918
Si Si5 0.441249 0.703909 0.804531
Si Si6 0.000000 0.000000 0.591780
Si Si7 0.212252 0.838556 0.826250
O O1 0.730718 0.675495 0.814326
O O2 0.625343 0.750454 0.615835
O O3 0.613032 0.653661 0.958845
O O4 0.543825 0.827862 0.347656
O O5 0.500000 0.750000 0.716781
O O6 0.567019 0.854287 0.842884
O O7 0.959347 0.549803 0.657104
O O8 0.567019 0.354287 0.590677
O O9 0.653661 0.386968 0.224716
O O10 0.543825 0.327861 0.085906
O O11 0.540653 0.450197 0.276455
O O12 0.374657 0.749546 0.817726
O O13 0.175495 0.769282 0.869234
#
# Coordination Sequence:
#
# PCOD8302180 Si02
#       7
#     8   8   8   8   8   4   8
#     4  10  21  40  68 100 134 170 218 281 345 408
#     4  11  24  44  68 100 134 176 230 284 343 415
#     4  11  26  42  68  97 133 183 227 280 346 407
#     4  11  26  42  68  97 133 183 227 280 346 407
#     4  11  24  44  68 100 134 176 230 284 343 415
#     4  12  28  50  68  98 144 190 240 286 336 414
#     4  10  21  40  68 100 134 170 218 281 345 408
#
# _framework density 24.832546000000001
#
# number of rings (size 3 to 8) (size 9 to 14) (size 15 to 20)
#    0.000    1.231    0.000    4.615    0.000   18.462 
#    0.000    0.000    0.000    0.000    0.000    0.000 
#    0.000    0.000    0.000    0.000    0.000    0.000 
#
# Total GULP energy -322210.502613 kJ/mol
# GULP energy per Si atom -12392.711639 kJ/mol
# Density = 2.477603 g / cm^3
# Si number density = 24.832546 Si / 1000 Ang^3
#
#
#
# Elastic Constant Matrix: (Units=GPa)
#
#
# Indices 1 2 3 4 5 6 
#
# 1 130.8836 62.5547 6.1359 0.0000 0.0000 -4.8315
# 2 62.5547 130.8836 6.1359 0.0000 0.0000 4.8315
# 3 6.1359 6.1359 60.3422 0.0000 0.0000 0.0000
# 4 0.0000 0.0000 0.0000 19.7269 0.0000 0.0000
# 5 0.0000 0.0000 0.0000 0.0000 19.7269 0.0000
# 6 -4.8315 4.8315 0.0000 0.0000 0.0000 58.3885
#
#
#
# Elastic Compliance Matrix: (Units=1/GPa)
#
#
# Indices 1 2 3 4 5 6 
#
# 1 0.010006 -0.004803 -0.000529 0.000000 0.000000 0.001225
# 2 -0.004803 0.010006 -0.000529 0.000000 0.000000 -0.001225
# 3 -0.000529 -0.000529 0.016680 0.000000 0.000000 0.000000
# 4 0.000000 0.000000 0.000000 0.050692 0.000000 0.000000
# 5 0.000000 0.000000 0.000000 0.000000 0.050692 0.000000
# 6 0.001225 -0.001225 0.000000 0.000000 0.000000 0.017329
#
#
# Mechanical properties :
#
#
# Convention : Reuss Voigt Hill
#
# Bulk Modulus (GPa) = 40.04847 52.41805 46.23326
# Shear Modulus (GPa) = 28.49814 36.05398 32.27606
#
# Velocity S-wave (km/s) = 3.39132 3.81449 3.60911
# Velocity P-wave (km/s) = 5.61223 6.36827 6.00217
#
# Compressibility (1/GPa) = 0.02496974
#
# Stress axis : x y z
#
# Youngs Moduli (GPa) = 99.94228 99.94228 59.95294
#
# Poissons Ratio (x) = 0.47998 0.03172
# Poissons Ratio (y) = 0.47998 0.03172
# Poissons Ratio (z) = 0.05288 0.05288
#
# Static dielectric constant tensor:
#      x y z
#    x 5.046010 0.000000 0.000000 
#    y 0.000000 5.046010 0.000000 
#    z 0.000000 0.000000 3.996820 
# 
# 
# High freq. dielectric constant tensor:
#      x y z
#    x 2.005020 0.000000 0.000000 
#    y 0.000000 2.005020 0.000000 
#    z 0.000000 0.000000 1.954170 
# 
# From -- ./inp_files/342.got.cif
#   From: 2010.03.12/outbox.cif.g09.slc.cpg/sg80_cif.got.tgz:342.got - 2010.04.08 20:00:04.
