data_PCOD8302913
_publ_section_title
;
Structure prediction by ZEFSAII (Michael W. Deem and Ramdas Pophale) SiO2 
 PCOD8302913
Probable space group: P 4/M
;
_chemical_formula_sum "Si O2"
_cell_formula_units_Z 40
_cell_length_a 15.848872
_cell_length_b 15.848872
_cell_length_c 8.783179
_cell_angle_alpha 90.000000
_cell_angle_beta 90.000000
_cell_angle_gamma 90.000000
_cell_volume 2206.218132
_symmetry_space_group_name_H-M "P 4/M"
_symmetry_group_IT_number 83
_symmetry_cell_setting 'tetragonal'
loop_
_space_group_symop_operation_xyz
x,y,z
-y,x,z
-x,-y,z
y,-x,z
-x,-y,-z
y,-x,-z
x,y,-z
-y,x,-z
loop_
_atom_site_type_symbol
_atom_site_label
_atom_site_fract_x
_atom_site_fract_y
_atom_site_fract_z
Si Si1 0.857498 0.282414 0.678389
Si Si2 0.080639 0.551221 0.179316
Si Si3 0.740906 0.515036 0.821336
Si Si4 0.061303 0.876601 0.175187
Si Si5 0.313256 0.665087 0.818318
O O1 0.846066 0.291985 0.500000
O O2 0.915312 0.358830 0.738678
O O3 0.903301 0.195167 0.715483
O O4 0.765443 0.282452 0.754847
O O5 0.161111 0.493985 0.222169
O O6 0.000000 0.500000 0.238374
O O7 0.076402 0.569060 0.000000
O O8 0.691305 0.432219 0.762728
O O9 0.703566 0.600530 0.748628
O O10 0.728718 0.522332 0.000000
O O11 0.962599 0.888759 0.210081
O O12 0.074449 0.850026 0.000000
O O13 0.308624 0.670849 0.000000
#
# Coordination Sequence:
#
# PCOD8302913 Si02
#       5
#     8   8   8   8   8
#     4  11  22  34  50  76 109 140 167 201 252 309
#     4   9  18  34  54  75 100 133 175 217 254 296
#     4   8  15  28  49  74  97 125 164 214 260 295
#     4   9  19  37  59  79  99 129 171 214 253 296
#     4   9  17  32  51  72  99 131 172 216 258 303
#
# _framework density 18.130575
#
# number of rings (size 3 to 8) (size 9 to 14) (size 15 to 20)
#    0.000    2.800    0.000    3.600    0.000    3.200 
#    0.000   11.000    0.000    0.000    0.000    5.600 
#    0.000    0.000    0.000    0.000    0.000    0.000 
#
# Total GULP energy -495946.777909 kJ/mol
# GULP energy per Si atom -12398.669448 kJ/mol
# Density = 1.808931 g / cm^3
# Si number density = 18.130575 Si / 1000 Ang^3
#
#
#
# Elastic Constant Matrix: (Units=GPa)
#
#
# Indices 1 2 3 4 5 6 
#
# 1 128.8687 80.5454 32.3207 0.0000 0.0000 15.6389
# 2 80.5454 128.8687 32.3207 0.0000 0.0000 -15.6389
# 3 32.3207 32.3207 49.3015 0.0000 0.0000 0.0000
# 4 0.0000 0.0000 0.0000 9.6566 0.0000 0.0000
# 5 0.0000 0.0000 0.0000 0.0000 9.6566 0.0000
# 6 15.6389 -15.6389 0.0000 0.0000 0.0000 32.4948
#
#
#
# Elastic Compliance Matrix: (Units=1/GPa)
#
#
# Indices 1 2 3 4 5 6 
#
# 1 0.018022 -0.012035 -0.003925 0.000000 0.000000 -0.014466
# 2 -0.012035 0.018022 -0.003925 0.000000 0.000000 0.014466
# 3 -0.003925 -0.003925 0.025429 0.000000 0.000000 0.000000
# 4 0.000000 0.000000 0.000000 0.103557 0.000000 0.000000
# 5 0.000000 0.000000 0.000000 0.000000 0.103557 0.000000
# 6 -0.014466 0.014466 0.000000 0.000000 0.000000 0.044698
#
#
# Mechanical properties :
#
#
# Convention : Reuss Voigt Hill
#
# Bulk Modulus (GPa) = 46.07497 66.37917 56.22707
# Shear Modulus (GPa) = 13.87778 21.15172 17.51475
#
# Velocity S-wave (km/s) = 2.76965 3.41931 3.11148
# Velocity P-wave (km/s) = 5.97461 7.23050 6.63235
#
# Compressibility (1/GPa) = 0.02170376
#
# Stress axis : x y z
#
# Youngs Moduli (GPa) = 55.48810 55.48810 39.32489
#
# Poissons Ratio (x) = 0.66781 0.15434
# Poissons Ratio (y) = 0.66781 0.15434
# Poissons Ratio (z) = 0.21777 0.21777
#
# Static dielectric constant tensor:
#      x y z
#    x 3.527420 0.000000 0.000000 
#    y 0.000000 3.527420 0.000000 
#    z 0.000000 0.000000 2.999110 
# 
# 
# High freq. dielectric constant tensor:
#      x y z
#    x 1.707030 0.000000 0.000000 
#    y 0.000000 1.707030 0.000000 
#    z 0.000000 0.000000 1.670090 
# 
# From -- ./inp_files/672.got.cif
#   From: 2010.03.12/outbox.cif.g09.slc.cpg/sg83_1_cif.got.tgz:672.got - 2010.04.08 20:05:18.
