data_PCOD8302884
_publ_section_title
;
Structure prediction by ZEFSAII (Michael W. Deem and Ramdas Pophale) SiO2 
 PCOD8302884
Probable space group: P 4/M
;
_chemical_formula_sum "Si O2"
_cell_formula_units_Z 40
_cell_length_a 12.264262
_cell_length_b 12.264262
_cell_length_c 13.645968
_cell_angle_alpha 90.000000
_cell_angle_beta 90.000000
_cell_angle_gamma 90.000000
_cell_volume 2052.519009
_symmetry_space_group_name_H-M "P 4/M"
_symmetry_group_IT_number 83
_symmetry_cell_setting 'tetragonal'
loop_
_space_group_symop_operation_xyz
x,y,z
-y,x,z
-x,-y,z
y,-x,z
-x,-y,-z
y,-x,-z
x,y,-z
-y,x,-z
loop_
_atom_site_type_symbol
_atom_site_label
_atom_site_fract_x
_atom_site_fract_y
_atom_site_fract_z
Si Si1 0.125689 0.734364 0.696136
Si Si2 0.123845 0.495405 0.745205
Si Si3 0.675792 0.514519 0.114846
Si Si4 0.103715 0.290738 0.613231
Si Si5 0.093534 0.846686 0.891489
O O1 0.151305 0.606716 0.688220
O O2 0.206731 0.797585 0.624929
O O3 0.143186 0.767715 0.809835
O O4 0.003414 0.762057 0.661869
O O5 0.208436 0.473107 0.832136
O O6 0.135933 0.403155 0.664040
O O7 0.000000 0.500000 0.788370
O O8 0.598105 0.615813 0.144508
O O9 0.699229 0.516837 0.000000
O O10 0.081703 0.314423 0.500000
O O11 0.964250 0.852815 0.878409
O O12 0.121783 0.800475 0.000000
#
# Coordination Sequence:
#
# PCOD8302884 Si02
#       5
#     8   8   8   8   8
#     4  11  21  38  61  86 117 150 194 244 288 350
#     4  10  23  38  56  81 117 156 188 229 289 356
#     4   9  18  36  62  87 111 144 190 241 287 334
#     4  11  24  40  59  84 112 152 196 246 299 343
#     4   9  17  32  56  85 119 153 183 225 283 346
#
# _framework density 19.488247999999999
#
# number of rings (size 3 to 8) (size 9 to 14) (size 15 to 20)
#    0.000    2.000    2.000    3.000    0.000    6.000 
#    0.000    5.000    0.000    0.000    0.000    4.200 
#    0.000    0.000    0.000    0.000    0.000    0.000 
#
# Total GULP energy -496082.470396 kJ/mol
# GULP energy per Si atom -12402.061760 kJ/mol
# Density = 1.944389 g / cm^3
# Si number density = 19.488248 Si / 1000 Ang^3
#
#
#
# Elastic Constant Matrix: (Units=GPa)
#
#
# Indices 1 2 3 4 5 6 
#
# 1 62.2782 44.3719 38.2381 0.0000 0.0000 -1.1423
# 2 44.3719 62.2782 38.2381 0.0000 0.0000 1.1423
# 3 38.2381 38.2381 106.1487 0.0000 0.0000 0.0000
# 4 0.0000 0.0000 0.0000 21.5249 0.0000 0.0000
# 5 0.0000 0.0000 0.0000 0.0000 21.5249 0.0000
# 6 -1.1423 1.1423 0.0000 0.0000 0.0000 19.1024
#
#
#
# Elastic Compliance Matrix: (Units=1/GPa)
#
#
# Indices 1 2 3 4 5 6 
#
# 1 0.034459 -0.021817 -0.004554 0.000000 0.000000 0.003365
# 2 -0.021817 0.034459 -0.004554 0.000000 0.000000 -0.003365
# 3 -0.004554 -0.004554 0.012702 0.000000 0.000000 0.000000
# 4 0.000000 0.000000 0.000000 0.046458 0.000000 0.000000
# 5 0.000000 0.000000 0.000000 0.000000 0.046458 0.000000
# 6 0.003365 -0.003365 0.000000 0.000000 0.000000 0.052752
#
#
# Mechanical properties :
#
#
# Convention : Reuss Voigt Hill
#
# Bulk Modulus (GPa) = 50.58261 52.48904 51.53582
# Shear Modulus (GPa) = 16.90750 19.75423 18.33087
#
# Velocity S-wave (km/s) = 2.94866 3.18724 3.07027
# Velocity P-wave (km/s) = 6.13226 6.36685 6.25065
#
# Compressibility (1/GPa) = 0.01976964
#
# Stress axis : x y z
#
# Youngs Moduli (GPa) = 29.02017 29.02017 78.72906
#
# Poissons Ratio (x) = 0.63312 0.35854
# Poissons Ratio (y) = 0.63312 0.35854
# Poissons Ratio (z) = 0.13216 0.13216
#
# Static dielectric constant tensor:
#      x y z
#    x 3.569160 0.000000 0.000000 
#    y 0.000000 3.569160 0.000000 
#    z 0.000000 0.000000 3.416850 
# 
# 
# High freq. dielectric constant tensor:
#      x y z
#    x 1.759060 0.000000 0.000000 
#    y 0.000000 1.759060 0.000000 
#    z 0.000000 0.000000 1.750960 
# 
# From -- ./inp_files/2264.got.cif
#   From: 2010.03.12/outbox.cif.g09.slc.cpg/sg83_2_cif.got.tgz:2264.got - 2010.04.08 20:05:18.
