data_PCOD8302103
_publ_section_title
;
Structure prediction by ZEFSAII (Michael W. Deem and Ramdas Pophale) SiO2 
 PCOD8302103
Probable space group: I 4
;
_chemical_formula_sum "Si O2"
_cell_formula_units_Z 56
_cell_length_a 12.443324
_cell_length_b 12.443324
_cell_length_c 18.452250
_cell_angle_alpha 90.000000
_cell_angle_beta 90.000000
_cell_angle_gamma 90.000000
_cell_volume 2857.078341
_symmetry_space_group_name_H-M "I 4"
_symmetry_group_IT_number 79
_symmetry_cell_setting 'tetragonal'
loop_
_space_group_symop_operation_xyz
x,y,z
-y,x,z
-x,-y,z
y,-x,z
1/2+x,1/2+y,1/2+z
1/2-y,1/2+x,1/2+z
1/2-x,1/2-y,1/2+z
1/2+y,1/2-x,1/2+z
loop_
_atom_site_type_symbol
_atom_site_label
_atom_site_fract_x
_atom_site_fract_y
_atom_site_fract_z
Si Si1 0.220217 0.769961 0.677120
Si Si2 0.892666 0.363309 0.277945
Si Si3 0.408607 0.357164 0.448546
Si Si4 0.091393 0.142836 0.119216
Si Si5 0.374776 0.375194 0.033881
Si Si6 0.136691 0.392666 0.289818
Si Si7 0.269961 0.279783 0.890642
O O1 0.315589 0.844875 0.708324
O O2 0.261717 0.652071 0.657436
O O3 0.174370 0.826672 0.606525
O O4 0.128614 0.737972 0.735439
O O5 0.862383 0.481118 0.310733
O O6 0.871386 0.262028 0.332324
O O7 0.018882 0.362383 0.257030
O O8 0.531583 0.353845 0.423388
O O9 0.399577 0.345479 0.533881
O O10 0.347930 0.261716 0.410326
O O11 0.968417 0.146155 0.144374
O O12 0.499799 0.349420 0.033881
O O13 0.326672 0.325630 0.961238
O O14 0.155125 0.315589 0.359438
#
# Coordination Sequence:
#
# PCOD8302103 Si02
#       7
#     8   8   8   8   8   8   8
#     4  11  20  37  60  80 111 149 184 225 278 329
#     4  10  22  38  56  82 114 148 188 228 268 324
#     4   9  17  30  51  81 113 142 177 221 265 315
#     4   9  17  30  51  81 113 142 177 221 265 315
#     4  11  24  40  58  83 110 138 182 235 284 336
#     4  10  22  38  56  82 114 148 188 228 268 324
#     4  11  20  37  60  80 111 149 184 225 278 329
#
# _framework density 19.600442999999999
#
# number of rings (size 3 to 8) (size 9 to 14) (size 15 to 20)
#    0.000    1.857    1.429    4.286    0.000    0.000 
#    0.000    0.000    0.000   20.571    0.000    0.000 
#    0.000    0.000    0.000    0.000    0.000    0.000 
#
# Total GULP energy -347041.036971 kJ/mol
# GULP energy per Si atom -12394.322749 kJ/mol
# Density = 1.955583 g / cm^3
# Si number density = 19.600443 Si / 1000 Ang^3
#
#
#
# Elastic Constant Matrix: (Units=GPa)
#
#
# Indices 1 2 3 4 5 6 
#
# 1 105.3439 9.6015 42.2342 0.0000 0.0000 9.2847
# 2 9.6015 105.3439 42.2342 0.0000 0.0000 -9.2847
# 3 42.2342 42.2342 107.1581 0.0000 0.0000 0.0000
# 4 0.0000 0.0000 0.0000 267.6164 -0.0001 0.0000
# 5 0.0000 0.0000 0.0000 -0.0001 267.6163 0.0000
# 6 9.2847 -9.2847 0.0000 0.0000 0.0000 37.0396
#
#
#
# Elastic Compliance Matrix: (Units=1/GPa)
#
#
# Indices 1 2 3 4 5 6 
#
# 1 0.011613 0.000634 -0.004827 0.000000 0.000000 -0.002752
# 2 0.000634 0.011613 -0.004827 0.000000 0.000000 0.002752
# 3 -0.004827 -0.004827 0.013137 0.000000 0.000000 0.000000
# 4 0.000000 0.000000 0.000000 0.003737 0.000000 0.000000
# 5 0.000000 0.000000 0.000000 0.000000 0.003737 0.000000
# 6 -0.002752 0.002752 0.000000 0.000000 0.000000 0.028378
#
#
# Mechanical properties :
#
#
# Convention : Reuss Voigt Hill
#
# Bulk Modulus (GPa) = 54.57593 56.22064 55.39829
# Shear Modulus (GPa) = 51.88876 129.37285 90.63081
#
# Velocity S-wave (km/s) = 5.15080 8.13316 6.80732
# Velocity P-wave (km/s) = 7.95481 10.81404 9.49269
#
# Compressibility (1/GPa) = 0.01832310
#
# Stress axis : x y z
#
# Youngs Moduli (GPa) = 86.11308 86.11308 76.12195
#
# Poissons Ratio (x) = -0.05461 0.36743
# Poissons Ratio (y) = -0.05461 0.36743
# Poissons Ratio (z) = 0.41565 0.41565
#
# Static dielectric constant tensor:
#      x y z
#    x 3.828780 0.000000 0.000000 
#    y 0.000000 3.828780 0.000000 
#    z 0.000000 0.000000 3.500310 
# 
# 
# High freq. dielectric constant tensor:
#      x y z
#    x 1.767860 0.000000 0.000000 
#    y 0.000000 1.767860 0.000000 
#    z 0.000000 0.000000 1.757600 
# 
# From -- ./inp_files/1823.got.cif
#   From: 2010.03.12/outbox.cif.g09.slc.cpg/sg79_cif.got.tgz:1823.got - 2010.04.16 16:38:49.
