data_PCOD8302795
_publ_section_title
;
Structure prediction by ZEFSAII (Michael W. Deem and Ramdas Pophale) SiO2 
 PCOD8302795
Probable space group: P 4/M
;
_chemical_formula_sum "Si O2"
_cell_formula_units_Z 52
_cell_length_a 17.805776
_cell_length_b 17.805776
_cell_length_c 8.056237
_cell_angle_alpha 90.000000
_cell_angle_beta 90.000000
_cell_angle_gamma 90.000000
_cell_volume 2554.194968
_symmetry_space_group_name_H-M "P 4/M"
_symmetry_group_IT_number 83
_symmetry_cell_setting 'tetragonal'
loop_
_space_group_symop_operation_xyz
x,y,z
-y,x,z
-x,-y,z
y,-x,z
-x,-y,-z
y,-x,-z
x,y,-z
-y,x,-z
loop_
_atom_site_type_symbol
_atom_site_label
_atom_site_fract_x
_atom_site_fract_y
_atom_site_fract_z
Si Si1 0.579504 0.593414 0.000000
Si Si2 0.779372 0.543321 0.687664
Si Si3 0.883145 0.018147 0.304611
Si Si4 0.061866 0.439820 0.194752
Si Si5 0.244101 0.297415 0.189463
Si Si6 0.079082 0.272701 0.805429
Si Si7 0.395526 0.308276 0.310259
O O1 0.491357 0.605007 0.000000
O O2 0.611335 0.626527 0.172470
O O3 0.755415 0.562972 0.500000
O O4 0.868006 0.532462 0.699699
O O5 0.753942 0.611507 0.804363
O O6 0.744107 0.464216 0.743185
O O7 0.887449 0.017905 0.500000
O O8 0.796730 0.028920 0.254111
O O9 0.937829 0.085139 0.237140
O O10 0.041207 0.352994 0.244115
O O11 0.000000 0.500000 0.245980
O O12 0.080580 0.443501 0.000000
O O13 0.164686 0.268557 0.266423
O O14 0.314933 0.264832 0.294696
O O15 0.253388 0.271590 0.000000
O O16 0.086635 0.267834 0.000000
O O17 0.405293 0.338505 0.500000
#
# Coordination Sequence:
#
# PCOD8302795 Si02
#       7
#     4   8   8   8   8   8   8
#     4  11  24  38  56  80 109 150 192 237 301 356
#     4  10  21  35  55  82 111 146 188 239 291 349
#     4   9  19  37  59  83 114 156 197 231 284 354
#     4   9  19  37  59  82 113 154 194 233 288 356
#     4  10  20  36  58  80 110 150 192 236 293 356
#     4   9  19  35  57  87 114 145 191 238 286 345
#     4  11  23  37  56  84 112 145 196 247 292 352
#
# _framework density 20.358664000000001
#
# number of rings (size 3 to 8) (size 9 to 14) (size 15 to 20)
#    0.000    2.231    0.769    3.231    2.154    5.846 
#    2.769    1.538    0.000    0.000    0.000    0.000 
#    0.000    0.000    0.000    0.000    0.000    0.000 
#
# Total GULP energy -644302.095833 kJ/mol
# GULP energy per Si atom -12390.424920 kJ/mol
# Density = 2.031233 g / cm^3
# Si number density = 20.358664 Si / 1000 Ang^3
#
#
#
# Elastic Constant Matrix: (Units=GPa)
#
#
# Indices 1 2 3 4 5 6 
#
# 1 92.6027 48.9624 6.9710 0.0000 0.0000 -11.1316
# 2 48.9624 92.6027 6.9710 0.0000 0.0000 11.1316
# 3 6.9710 6.9710 51.1919 0.0000 0.0000 0.0000
# 4 0.0000 0.0000 0.0000 20.1801 0.0000 0.0000
# 5 0.0000 0.0000 0.0000 0.0000 20.1801 0.0000
# 6 -11.1316 11.1316 0.0000 0.0000 0.0000 32.1195
#
#
#
# Elastic Compliance Matrix: (Units=1/GPa)
#
#
# Indices 1 2 3 4 5 6 
#
# 1 0.017498 -0.010338 -0.000975 0.000000 0.000000 0.009647
# 2 -0.010338 0.017498 -0.000975 0.000000 0.000000 -0.009647
# 3 -0.000975 -0.000975 0.019800 0.000000 0.000000 0.000000
# 4 0.000000 0.000000 0.000000 0.049554 0.000000 0.000000
# 5 0.000000 0.000000 0.000000 0.000000 0.049554 0.000000
# 6 0.009647 -0.009647 0.000000 0.000000 0.000000 0.037821
#
#
# Mechanical properties :
#
#
# Convention : Reuss Voigt Hill
#
# Bulk Modulus (GPa) = 33.09096 40.24511 36.66803
# Shear Modulus (GPa) = 22.08737 26.06212 24.07474
#
# Velocity S-wave (km/s) = 3.29737 3.58180 3.44252
# Velocity P-wave (km/s) = 5.54853 6.07591 5.81820
#
# Compressibility (1/GPa) = 0.03021974
#
# Stress axis : x y z
#
# Youngs Moduli (GPa) = 57.14924 57.14924 50.50539
#
# Poissons Ratio (x) = 0.59082 0.04924
# Poissons Ratio (y) = 0.59082 0.04924
# Poissons Ratio (z) = 0.05572 0.05572
#
# Static dielectric constant tensor:
#      x y z
#    x 4.490730 0.000000 0.000000 
#    y 0.000000 4.490730 0.000000 
#    z 0.000000 0.000000 3.561380 
# 
# 
# High freq. dielectric constant tensor:
#      x y z
#    x 1.787270 0.000000 0.000000 
#    y 0.000000 1.787270 0.000000 
#    z 0.000000 0.000000 1.788840 
# 
# From -- ./inp_files/991.got.cif
#   From: 2010.03.12/outbox.cif.g09.slc.cpg/sg83_1_cif.got.tgz:991.got - 2010.04.08 20:05:18.
