data_PCOD8302682
_publ_section_title
;
Structure prediction by ZEFSAII (Michael W. Deem and Ramdas Pophale) SiO2 
 PCOD8302682
Probable space group: P 4/M
;
_chemical_formula_sum "Si O2"
_cell_formula_units_Z 52
_cell_length_a 18.316149
_cell_length_b 18.316149
_cell_length_c 8.196280
_cell_angle_alpha 90.000000
_cell_angle_beta 90.000000
_cell_angle_gamma 90.000000
_cell_volume 2749.698786
_symmetry_space_group_name_H-M "P 4/M"
_symmetry_group_IT_number 83
_symmetry_cell_setting 'tetragonal'
loop_
_space_group_symop_operation_xyz
x,y,z
-y,x,z
-x,-y,z
y,-x,z
-x,-y,-z
y,-x,-z
x,y,-z
-y,x,-z
loop_
_atom_site_type_symbol
_atom_site_label
_atom_site_fract_x
_atom_site_fract_y
_atom_site_fract_z
Si Si1 0.442061 0.395943 0.500000
Si Si2 0.253905 0.251823 0.821301
Si Si3 0.991906 0.419157 0.190838
Si Si4 0.365529 0.854090 0.806509
Si Si5 0.624397 0.838345 0.686415
Si Si6 0.615558 0.362324 0.821540
Si Si7 0.488499 0.750646 0.309121
O O1 0.527343 0.402508 0.500000
O O2 0.415881 0.358886 0.671962
O O3 0.175724 0.283706 0.758791
O O4 0.293299 0.192765 0.706499
O O5 0.300618 0.324723 0.833004
O O6 0.246165 0.215459 0.000000
O O7 0.060765 0.369094 0.241752
O O8 0.000000 0.500000 0.270905
O O9 0.919000 0.377780 0.242242
O O10 0.989039 0.429496 0.000000
O O11 0.427700 0.813664 0.702110
O O12 0.379921 0.841761 0.000000
O O13 0.602935 0.844151 0.500000
O O14 0.563741 0.784184 0.768007
O O15 0.538265 0.321784 0.786053
O O16 0.608715 0.402091 0.000000
O O17 0.501030 0.727381 0.500000
#
# Coordination Sequence:
#
# PCOD8302682 Si02
#       7
#     4   8   8   8   8   8   8
#     4  11  26  42  54  70  96 123 167 231 283 333
#     4   9  20  35  52  75 101 134 178 221 259 315
#     4  10  19  33  54  77 107 143 176 218 271 327
#     4   9  18  34  52  73 102 140 181 217 267 328
#     4  11  23  32  49  79 109 138 176 222 266 317
#     4  10  22  38  58  76  96 132 175 220 277 336
#     4  10  19  31  49  74 103 136 172 219 266 317
#
# _framework density 18.911162999999998
#
# number of rings (size 3 to 8) (size 9 to 14) (size 15 to 20)
#    0.000    2.077    2.308    1.846    3.231    4.000 
#    0.000    0.769    0.000    0.000    0.000    0.000 
#    0.000    0.615    0.000    7.077    0.000    2.769 
#
# Total GULP energy -644358.083571 kJ/mol
# GULP energy per Si atom -12391.501607 kJ/mol
# Density = 1.886812 g / cm^3
# Si number density = 18.911163 Si / 1000 Ang^3
#
#
#
# Elastic Constant Matrix: (Units=GPa)
#
#
# Indices 1 2 3 4 5 6 
#
# 1 84.7277 16.0565 7.9309 0.0000 0.0000 -1.4848
# 2 16.0565 84.7277 7.9309 0.0000 0.0000 1.4848
# 3 7.9309 7.9309 52.0701 0.0000 0.0000 0.0000
# 4 0.0000 0.0000 0.0000 21.9856 0.0000 0.0000
# 5 0.0000 0.0000 0.0000 0.0000 21.9856 0.0000
# 6 -1.4848 1.4848 0.0000 0.0000 0.0000 18.6698
#
#
#
# Elastic Compliance Matrix: (Units=1/GPa)
#
#
# Indices 1 2 3 4 5 6 
#
# 1 0.012389 -0.002223 -0.001548 0.000000 0.000000 0.001162
# 2 -0.002223 0.012389 -0.001548 0.000000 0.000000 -0.001162
# 3 -0.001548 -0.001548 0.019677 0.000000 0.000000 0.000000
# 4 0.000000 0.000000 0.000000 0.045484 0.000000 0.000000
# 5 0.000000 0.000000 0.000000 0.000000 0.045484 0.000000
# 6 0.001162 -0.001162 0.000000 0.000000 0.000000 0.053747
#
#
# Mechanical properties :
#
#
# Convention : Reuss Voigt Hill
#
# Bulk Modulus (GPa) = 29.57285 31.70688 30.63986
# Shear Modulus (GPa) = 23.68742 25.16867 24.42805
#
# Velocity S-wave (km/s) = 3.54300 3.65209 3.59796
# Velocity P-wave (km/s) = 5.69287 5.88102 5.78771
#
# Compressibility (1/GPa) = 0.03381480
#
# Stress axis : x y z
#
# Youngs Moduli (GPa) = 80.71583 80.71583 50.82187
#
# Poissons Ratio (x) = 0.17945 0.07869
# Poissons Ratio (y) = 0.17945 0.07869
# Poissons Ratio (z) = 0.12498 0.12498
#
# Static dielectric constant tensor:
#      x y z
#    x 3.502380 0.000000 0.000000 
#    y 0.000000 3.502380 0.000000 
#    z 0.000000 0.000000 3.682800 
# 
# 
# High freq. dielectric constant tensor:
#      x y z
#    x 1.710540 0.000000 0.000000 
#    y 0.000000 1.710540 0.000000 
#    z 0.000000 0.000000 1.733340 
# 
# From -- ./inp_files/999.got.cif
#   From: 2010.03.12/outbox.cif.g09.slc.cpg/sg83_1_cif.got.tgz:999.got - 2010.04.08 20:05:18.
