data_PCOD8302816
_publ_section_title
;
Structure prediction by ZEFSAII (Michael W. Deem and Ramdas Pophale) SiO2 
 PCOD8302816
Probable space group: P 4/M
;
_chemical_formula_sum "Si O2"
_cell_formula_units_Z 36
_cell_length_a 14.650328
_cell_length_b 14.650328
_cell_length_c 7.892430
_cell_angle_alpha 90.000000
_cell_angle_beta 90.000000
_cell_angle_gamma 90.000000
_cell_volume 1693.968908
_symmetry_space_group_name_H-M "P 4/M"
_symmetry_group_IT_number 83
_symmetry_cell_setting 'tetragonal'
loop_
_space_group_symop_operation_xyz
x,y,z
-y,x,z
-x,-y,z
y,-x,z
-x,-y,-z
y,-x,-z
x,y,-z
-y,x,-z
loop_
_atom_site_type_symbol
_atom_site_label
_atom_site_fract_x
_atom_site_fract_y
_atom_site_fract_z
Si Si1 0.379196 0.252409 0.304000
Si Si2 0.483999 0.901708 0.695251
Si Si3 0.640398 0.454239 0.000000
Si Si4 0.132319 0.938948 0.199991
Si Si5 0.178884 0.298143 0.694603
O O1 0.389696 0.286128 0.500000
O O2 0.419793 0.150681 0.286863
O O3 0.441777 0.308626 0.177181
O O4 0.275107 0.258790 0.234252
O O5 0.457619 0.917083 0.500000
O O6 0.395548 0.850284 0.779139
O O7 0.500000 0.000000 0.783564
O O8 0.614820 0.558271 0.000000
O O9 0.223511 0.900097 0.283231
O O10 0.043900 0.880551 0.258572
O O11 0.142040 0.933115 0.000000
O O12 0.197223 0.316446 0.500000
#
# Coordination Sequence:
#
# PCOD8302816 Si02
#       5
#     8   8   4   8   8
#     4  10  22  41  62  86 123 164 202 249 307 373
#     4   9  19  37  59  85 122 159 196 252 314 367
#     4  11  24  40  63  92 118 151 203 260 310 364
#     4   9  20  38  57  80 117 161 200 244 304 368
#     4  10  21  35  60  89 113 155 202 243 305 364
#
# _framework density 21.251866
#
# number of rings (size 3 to 8) (size 9 to 14) (size 15 to 20)
#    0.000    2.333    0.000    2.000    4.667    3.556 
#    2.000    2.778    0.000    0.000    0.000    0.000 
#    0.000    0.000    0.000    0.000    0.000    0.000 
#
# Total GULP energy -446114.042016 kJ/mol
# GULP energy per Si atom -12392.056723 kJ/mol
# Density = 2.120350 g / cm^3
# Si number density = 21.251866 Si / 1000 Ang^3
#
#
#
# Elastic Constant Matrix: (Units=GPa)
#
#
# Indices 1 2 3 4 5 6 
#
# 1 139.4206 58.0312 14.1283 0.0000 0.0000 -2.9823
# 2 58.0312 139.4206 14.1283 0.0000 0.0000 2.9823
# 3 14.1283 14.1283 55.9019 0.0000 0.0000 0.0000
# 4 0.0000 0.0000 0.0000 23.7924 0.0000 0.0000
# 5 0.0000 0.0000 0.0000 0.0000 23.7924 0.0000
# 6 -2.9823 2.9823 0.0000 0.0000 0.0000 43.7445
#
#
#
# Elastic Compliance Matrix: (Units=1/GPa)
#
#
# Indices 1 2 3 4 5 6 
#
# 1 0.008801 -0.003547 -0.001328 0.000000 0.000000 0.000842
# 2 -0.003547 0.008801 -0.001328 0.000000 0.000000 -0.000842
# 3 -0.001328 -0.001328 0.018560 0.000000 0.000000 0.000000
# 4 0.000000 0.000000 0.000000 0.042030 0.000000 0.000000
# 5 0.000000 0.000000 0.000000 0.000000 0.042030 0.000000
# 6 0.000842 -0.000842 0.000000 0.000000 0.000000 0.022975
#
#
# Mechanical properties :
#
#
# Convention : Reuss Voigt Hill
#
# Bulk Modulus (GPa) = 42.09311 56.36874 49.23092
# Shear Modulus (GPa) = 30.57679 34.82953 32.70316
#
# Velocity S-wave (km/s) = 3.79724 4.05272 3.92706
# Velocity P-wave (km/s) = 6.25101 6.96283 6.61650
#
# Compressibility (1/GPa) = 0.02375686
#
# Stress axis : x y z
#
# Youngs Moduli (GPa) = 113.61774 113.61774 53.88005
#
# Poissons Ratio (x) = 0.40299 0.07155
# Poissons Ratio (y) = 0.40299 0.07155
# Poissons Ratio (z) = 0.15089 0.15089
#
# Static dielectric constant tensor:
#      x y z
#    x 4.045110 0.000000 0.000000 
#    y 0.000000 4.045110 0.000000 
#    z 0.000000 0.000000 3.607240 
# 
# 
# High freq. dielectric constant tensor:
#      x y z
#    x 1.838440 0.000000 0.000000 
#    y 0.000000 1.838440 0.000000 
#    z 0.000000 0.000000 1.807660 
# 
# From -- ./inp_files/529.got.cif
#   From: 2010.03.12/outbox.cif.g09.slc.cpg/sg83_1_cif.got.tgz:529.got - 2010.04.08 20:05:18.
