data_PCOD8302664
_publ_section_title
;
Structure prediction by ZEFSAII (Michael W. Deem and Ramdas Pophale) SiO2 
 PCOD8302664
Probable space group: P 4/M
;
_chemical_formula_sum "Si O2"
_cell_formula_units_Z 64
_cell_length_a 20.303421
_cell_length_b 20.303421
_cell_length_c 8.639217
_cell_angle_alpha 90.000000
_cell_angle_beta 90.000000
_cell_angle_gamma 90.000000
_cell_volume 3561.334958
_symmetry_space_group_name_H-M "P 4/M"
_symmetry_group_IT_number 83
_symmetry_cell_setting 'tetragonal'
loop_
_space_group_symop_operation_xyz
x,y,z
-y,x,z
-x,-y,z
y,-x,z
-x,-y,-z
y,-x,-z
x,y,-z
-y,x,-z
loop_
_atom_site_type_symbol
_atom_site_label
_atom_site_fract_x
_atom_site_fract_y
_atom_site_fract_z
Si Si1 0.073618 0.926384 0.315652
Si Si2 0.324696 0.819417 0.315972
Si Si3 0.426514 0.426517 0.183954
Si Si4 0.819420 0.324693 0.315968
Si Si5 0.678272 0.321733 0.183562
Si Si6 0.073350 0.426341 0.684009
Si Si7 0.926651 0.426339 0.684009
Si Si8 0.177018 0.177017 0.682805
O O1 0.075956 0.924049 0.500000
O O2 0.125462 0.874541 0.242097
O O3 0.000001 0.907843 0.258882
O O4 0.329014 0.813082 0.500000
O O5 0.343722 0.749416 0.244697
O O6 0.374703 0.873992 0.248366
O O7 0.251165 0.840484 0.263911
O O8 0.499998 0.407845 0.242400
O O9 0.374236 0.374241 0.250210
O O10 0.425140 0.425143 0.000000
O O11 0.813103 0.328995 0.500000
O O12 0.749414 0.343732 0.244741
O O13 0.873995 0.374701 0.248361
O O14 0.840472 0.251164 0.263862
O O15 0.679450 0.320575 0.000000
O O16 0.074149 0.423336 0.500000
O O17 0.092092 0.500001 0.739940
O O18 0.000001 0.407897 0.743671
O O19 0.925847 0.423333 0.500000
O O20 0.171791 0.171767 0.500000
#
# Coordination Sequence:
#
# PCOD8302664 Si02
#       8
#     8   8   8   8   8   8   8   8
#     4   8  13  20  30  48  76 104 127 159 205 245
#     4   9  17  29  44  63  88 116 144 176 214 255
#     4   8  15  29  47  65  85 110 143 183 223 263
#     4   9  17  29  44  63  88 116 144 176 214 255
#     4  10  19  30  46  67  89 114 145 182 222 265
#     4   8  14  25  42  65  90 114 143 179 217 259
#     4   8  14  25  42  65  90 114 143 179 217 259
#     4   8  14  23  34  50  74 104 135 162 192 237
#
# _framework density 17.970787999999999
#
# number of rings (size 3 to 8) (size 9 to 14) (size 15 to 20)
#    0.000    3.500    0.000    2.625    0.000    2.000 
#    0.000    5.000    0.000    3.000    0.000    5.250 
#    0.000    0.000    0.000   22.000    0.000   20.000 
#
# Total GULP energy -793148.114771 kJ/mol
# GULP energy per Si atom -12392.939293 kJ/mol
# Density = 1.792989 g / cm^3
# Si number density = 17.970788 Si / 1000 Ang^3
#
#
#
# Elastic Constant Matrix: (Units=GPa)
#
#
# Indices 1 2 3 4 5 6 
#
# 1 164.4790 137.1528 13.4254 0.0000 0.0000 -0.0003
# 2 137.1528 164.4790 13.4254 0.0000 0.0000 0.0003
# 3 13.4254 13.4254 13.7868 0.0000 0.0000 0.0000
# 4 0.0000 0.0000 0.0000 12.9546 0.0000 0.0000
# 5 0.0000 0.0000 0.0000 0.0000 12.9546 0.0000
# 6 -0.0003 0.0003 0.0000 0.0000 0.0000 48.3453
#
#
#
# Elastic Compliance Matrix: (Units=1/GPa)
#
#
# Indices 1 2 3 4 5 6 
#
# 1 0.020112 -0.016482 -0.003535 0.000000 0.000000 0.000000
# 2 -0.016482 0.020112 -0.003535 0.000000 0.000000 0.000000
# 3 -0.003535 -0.003535 0.079418 0.000000 0.000000 0.000000
# 4 0.000000 0.000000 0.000000 0.077192 0.000000 0.000000
# 5 0.000000 0.000000 0.000000 0.000000 0.077192 0.000000
# 6 0.000000 0.000000 0.000000 0.000000 0.000000 0.020685
#
#
# Mechanical properties :
#
#
# Convention : Reuss Voigt Hill
#
# Bulk Modulus (GPa) = 13.78582 74.52797 44.15689
# Shear Modulus (GPa) = 13.66137 26.76701 20.21419
#
# Velocity S-wave (km/s) = 2.76016 3.86356 3.35750
# Velocity P-wave (km/s) = 4.22444 7.83993 6.29724
#
# Compressibility (1/GPa) = 0.07253833
#
# Stress axis : x y z
#
# Youngs Moduli (GPa) = 49.72043 49.72043 12.59166
#
# Poissons Ratio (x) = 0.81952 0.04451
# Poissons Ratio (y) = 0.81952 0.04451
# Poissons Ratio (z) = 0.17575 0.17575
#
# Static dielectric constant tensor:
#      x y z
#    x 3.667800 0.000000 0.000000 
#    y 0.000000 3.667800 0.000000 
#    z 0.000000 0.000000 2.676880 
# 
# 
# High freq. dielectric constant tensor:
#      x y z
#    x 1.702440 0.000000 0.000000 
#    y 0.000000 1.702440 0.000000 
#    z 0.000000 0.000000 1.631110 
# 
# From -- ./inp_files/1305.got.cif
#   From: 2010.03.12/outbox.cif.g09.slc.cpg/sg83_1_cif.got.tgz:1305.got - 2010.04.08 20:05:18.
