data_PCOD8302951
_publ_section_title
;
Structure prediction by ZEFSAII (Michael W. Deem and Ramdas Pophale) SiO2 
 PCOD8302951
Probable space group: P 4/M
;
_chemical_formula_sum "Si O2"
_cell_formula_units_Z 40
_cell_length_a 8.864323
_cell_length_b 8.864323
_cell_length_c 25.196226
_cell_angle_alpha 90.000000
_cell_angle_beta 90.000000
_cell_angle_gamma 90.000000
_cell_volume 1979.824254
_symmetry_space_group_name_H-M "P 4/M"
_symmetry_group_IT_number 83
_symmetry_cell_setting 'tetragonal'
loop_
_space_group_symop_operation_xyz
x,y,z
-y,x,z
-x,-y,z
y,-x,z
-x,-y,-z
y,-x,-z
x,y,-z
-y,x,-z
loop_
_atom_site_type_symbol
_atom_site_label
_atom_site_fract_x
_atom_site_fract_y
_atom_site_fract_z
Si Si1 0.771001 0.907871 0.440097
Si Si2 0.596829 0.726241 0.640916
Si Si3 0.607497 0.722460 0.761751
Si Si4 0.716758 0.383061 0.060990
Si Si5 0.775396 0.891001 0.149928
O O1 0.711512 0.883121 0.500000
O O2 0.643439 0.859220 0.398702
O O3 0.918387 0.807384 0.430175
O O4 0.422529 0.694258 0.629848
O O5 0.626512 0.777616 0.701276
O O6 0.431508 0.697259 0.773463
O O7 0.673906 0.851421 0.799192
O O8 0.700188 0.559767 0.073834
O O9 0.848971 0.314213 0.096564
O O10 0.762630 0.358741 0.000000
O O11 0.931364 0.800523 0.151137
#
# Coordination Sequence:
#
# PCOD8302951 Si02
#       5
#     8   8   8   8   8
#     4   9  19  35  52  72 102 139 175 210 251 302
#     4   9  19  35  54  78 105 131 165 213 264 308
#     4   9  19  37  58  77 100 133 173 215 258 307
#     4   9  19  37  60  83 105 133 173 217 258 303
#     4  11  24  37  50  76 112 143 172 210 256 304
#
# _framework density 20.203814999999999
#
# number of rings (size 3 to 8) (size 9 to 14) (size 15 to 20)
#    0.000    2.600    0.000    3.600    0.000    8.800 
#    0.000   12.000    0.000    0.000    0.000    0.000 
#    0.000    0.000    0.000    0.000    0.000    0.000 
#
# Total GULP energy -496075.094562 kJ/mol
# GULP energy per Si atom -12401.877364 kJ/mol
# Density = 2.015783 g / cm^3
# Si number density = 20.203815 Si / 1000 Ang^3
#
#
#
# Elastic Constant Matrix: (Units=GPa)
#
#
# Indices 1 2 3 4 5 6 
#
# 1 16.3656 -7.3084 11.0773 0.0000 0.0000 -3.1528
# 2 -7.3084 16.3656 11.0773 0.0000 0.0000 3.1528
# 3 11.0773 11.0773 89.0561 0.0000 0.0000 0.0000
# 4 0.0000 0.0000 0.0000 6.0143 0.0000 0.0000
# 5 0.0000 0.0000 0.0000 0.0000 6.0143 0.0000
# 6 -3.1528 3.1528 0.0000 0.0000 0.0000 25.7974
#
#
#
# Elastic Compliance Matrix: (Units=1/GPa)
#
#
# Indices 1 2 3 4 5 6 
#
# 1 0.101177 0.057516 -0.019739 0.000000 0.000000 0.005336
# 2 0.057516 0.101177 -0.019739 0.000000 0.000000 -0.005336
# 3 -0.019739 -0.019739 0.016139 0.000000 0.000000 0.000000
# 4 0.000000 0.000000 0.000000 0.166270 0.000000 0.000000
# 5 0.000000 0.000000 0.000000 0.000000 0.166270 0.000000
# 6 0.005336 -0.005336 0.000000 0.000000 0.000000 0.040068
#
#
# Mechanical properties :
#
#
# Convention : Reuss Voigt Hill
#
# Bulk Modulus (GPa) = 3.92820 16.83109 10.37965
# Shear Modulus (GPa) = 7.81393 14.69462 11.25427
#
# Velocity S-wave (km/s) = 1.96874 2.69981 2.36272
# Velocity P-wave (km/s) = 2.66767 4.25057 3.54851
#
# Compressibility (1/GPa) = 0.25456922
#
# Stress axis : x y z
#
# Youngs Moduli (GPa) = 9.88363 9.88363 61.96002
#
# Poissons Ratio (x) = -0.56847 1.22304
# Poissons Ratio (y) = -0.56847 1.22304
# Poissons Ratio (z) = 0.19510 0.19510
#
# Static dielectric constant tensor:
#      x y z
#    x 3.470330 0.000000 0.000000 
#    y 0.000000 3.470330 0.000000 
#    z 0.000000 0.000000 3.642050 
# 
# 
# High freq. dielectric constant tensor:
#      x y z
#    x 1.780350 0.000000 0.000000 
#    y 0.000000 1.780350 0.000000 
#    z 0.000000 0.000000 1.796620 
# 
# From -- ./inp_files/3086.got.cif
#   From: 2010.03.12/outbox.cif.g09.slc.cpg/sg83_2_cif.got.tgz:3086.got - 2010.04.08 20:05:18.
