data_PCOD8302686
_publ_section_title
;
Structure prediction by ZEFSAII (Michael W. Deem and Ramdas Pophale) SiO2 
 PCOD8302686
Probable space group: P 4/M
;
_chemical_formula_sum "Si O2"
_cell_formula_units_Z 52
_cell_length_a 16.758084
_cell_length_b 16.758084
_cell_length_c 10.204661
_cell_angle_alpha 90.000000
_cell_angle_beta 90.000000
_cell_angle_gamma 90.000000
_cell_volume 2865.809434
_symmetry_space_group_name_H-M "P 4/M"
_symmetry_group_IT_number 83
_symmetry_cell_setting 'tetragonal'
loop_
_space_group_symop_operation_xyz
x,y,z
-y,x,z
-x,-y,z
y,-x,z
-x,-y,-z
y,-x,-z
x,y,-z
-y,x,-z
loop_
_atom_site_type_symbol
_atom_site_label
_atom_site_fract_x
_atom_site_fract_y
_atom_site_fract_z
Si Si1 0.365078 0.902857 0.348246
Si Si2 0.504886 0.631759 0.848375
Si Si3 0.382449 0.078842 0.345793
Si Si4 0.086827 0.796632 0.644401
Si Si5 0.130544 0.980359 0.000000
Si Si6 0.503166 0.783045 0.654660
Si Si7 0.801954 0.075566 0.255647
O O1 0.342098 0.913140 0.500000
O O2 0.417908 0.824845 0.326613
O O3 0.285108 0.885375 0.266726
O O4 0.405290 0.987625 0.301915
O O5 0.424311 0.581523 0.822624
O O6 0.508523 0.704812 0.745472
O O7 0.505849 0.661952 0.000000
O O8 0.393994 0.084046 0.500000
O O9 0.292579 0.097559 0.300787
O O10 0.436266 0.149970 0.288020
O O11 0.124472 0.804724 0.500000
O O12 0.131740 0.856502 0.739707
O O13 0.992392 0.815922 0.634265
O O14 0.189779 0.972235 0.878751
O O15 0.065685 0.910498 0.000000
O O16 0.517461 0.761059 0.500000
#
# Coordination Sequence:
#
# PCOD8302686 Si02
#       7
#     8   8   8   8   4   8   8
#     4   9  18  33  54  81 109 139 175 217 265 318
#     4   9  20  40  61  78 107 148 181 212 260 322
#     4   8  16  31  52  78 110 142 169 208 266 321
#     4  10  19  31  50  76 103 134 175 220 268 318
#     4  11  22  38  52  68  97 143 191 230 271 319
#     4  10  19  33  60  90 112 136 173 221 267 314
#     4  11  20  34  50  70 102 142 178 221 266 314
#
# _framework density 18.144960999999999
#
# number of rings (size 3 to 8) (size 9 to 14) (size 15 to 20)
#    0.000    2.385    1.538    3.231    0.000    4.000 
#    1.385    4.615    8.462    0.923    0.000    0.000 
#    0.000    0.000    0.000    0.000    0.000    0.000 
#
# Total GULP energy -644325.899914 kJ/mol
# GULP energy per Si atom -12390.882691 kJ/mol
# Density = 1.810366 g / cm^3
# Si number density = 18.144961 Si / 1000 Ang^3
#
#
#
# Elastic Constant Matrix: (Units=GPa)
#
#
# Indices 1 2 3 4 5 6 
#
# 1 78.8730 25.5156 30.9062 0.0000 0.0000 -0.4636
# 2 25.5156 78.8730 30.9062 0.0000 0.0000 0.4636
# 3 30.9062 30.9062 62.1648 0.0000 0.0000 0.0000
# 4 0.0000 0.0000 0.0000 20.4652 0.0000 0.0000
# 5 0.0000 0.0000 0.0000 0.0000 20.4652 0.0000
# 6 -0.4636 0.4636 0.0000 0.0000 0.0000 22.6633
#
#
#
# Elastic Compliance Matrix: (Units=1/GPa)
#
#
# Indices 1 2 3 4 5 6 
#
# 1 0.016162 -0.002586 -0.006750 0.000000 0.000000 0.000384
# 2 -0.002586 0.016162 -0.006750 0.000000 0.000000 -0.000384
# 3 -0.006750 -0.006750 0.022798 0.000000 0.000000 0.000000
# 4 0.000000 0.000000 0.000000 0.048863 0.000000 0.000000
# 5 0.000000 0.000000 0.000000 0.000000 0.048863 0.000000
# 6 0.000384 -0.000384 0.000000 0.000000 0.000000 0.044140
#
#
# Mechanical properties :
#
#
# Convention : Reuss Voigt Hill
#
# Bulk Modulus (GPa) = 43.56991 43.84075 43.70533
# Shear Modulus (GPa) = 21.11397 21.55760 21.33578
#
# Velocity S-wave (km/s) = 3.41490 3.45059 3.43279
# Velocity P-wave (km/s) = 6.29388 6.33161 6.31277
#
# Compressibility (1/GPa) = 0.02295162
#
# Stress axis : x y z
#
# Youngs Moduli (GPa) = 61.87249 61.87249 43.86414
#
# Poissons Ratio (x) = 0.16000 0.29607
# Poissons Ratio (y) = 0.16000 0.29607
# Poissons Ratio (z) = 0.41762 0.41762
#
# Static dielectric constant tensor:
#      x y z
#    x 3.360750 0.000000 0.000000 
#    y 0.000000 3.360750 0.000000 
#    z 0.000000 0.000000 3.087300 
# 
# 
# High freq. dielectric constant tensor:
#      x y z
#    x 1.703560 0.000000 0.000000 
#    y 0.000000 1.703560 0.000000 
#    z 0.000000 0.000000 1.672490 
# 
# From -- ./inp_files/958.got.cif
#   From: 2010.03.12/outbox.cif.g09.slc.cpg/sg83_1_cif.got.tgz:958.got - 2010.04.08 20:05:18.
