data_PCOD8302924
_publ_section_title
;
Structure prediction by ZEFSAII (Michael W. Deem and Ramdas Pophale) SiO2 
 PCOD8302924
Probable space group: P 4/M
;
_chemical_formula_sum "Si O2"
_cell_formula_units_Z 40
_cell_length_a 9.534923
_cell_length_b 9.534923
_cell_length_c 22.852450
_cell_angle_alpha 90.000000
_cell_angle_beta 90.000000
_cell_angle_gamma 90.000000
_cell_volume 2077.624930
_symmetry_space_group_name_H-M "P 4/M"
_symmetry_group_IT_number 83
_symmetry_cell_setting 'tetragonal'
loop_
_space_group_symop_operation_xyz
x,y,z
-y,x,z
-x,-y,z
y,-x,z
-x,-y,-z
y,-x,-z
x,y,-z
-y,x,-z
loop_
_atom_site_type_symbol
_atom_site_label
_atom_site_fract_x
_atom_site_fract_y
_atom_site_fract_z
Si Si1 0.166564 0.358985 0.225149
Si Si2 0.701237 0.615845 0.351264
Si Si3 0.881153 0.806800 0.568606
Si Si4 0.955378 0.227126 0.935139
Si Si5 0.128289 0.647969 0.179653
O O1 0.234351 0.349836 0.288596
O O2 0.209612 0.502734 0.191998
O O3 0.222340 0.230420 0.187346
O O4 0.998354 0.342998 0.226900
O O5 0.550827 0.689473 0.358945
O O6 0.805975 0.677808 0.399472
O O7 0.865305 0.780774 0.500000
O O8 0.045232 0.810003 0.586247
O O9 0.932005 0.347743 0.886481
O O10 0.108060 0.161457 0.926961
O O11 0.941562 0.294297 0.000000
#
# Coordination Sequence:
#
# PCOD8302924 Si02
#       5
#     8   8   8   8   8
#     4  11  24  38  59  87 122 159 200 249 302 362
#     4  11  24  41  61  88 123 165 206 249 301 362
#     4   9  21  42  66  94 128 163 201 250 305 353
#     4   9  17  33  59  88 118 155 200 253 306 358
#     4  11  22  39  59  88 121 158 201 242 309 365
#
# _framework density 19.252752999999998
#
# number of rings (size 3 to 8) (size 9 to 14) (size 15 to 20)
#    0.000    1.800    4.000    1.200    2.800    2.400 
#    0.000    6.000    0.000    0.000    0.000    1.400 
#    0.000    0.000    0.000    0.000    0.000    0.000 
#
# Total GULP energy -495950.052276 kJ/mol
# GULP energy per Si atom -12398.751307 kJ/mol
# Density = 1.920893 g / cm^3
# Si number density = 19.252753 Si / 1000 Ang^3
#
#
#
# Elastic Constant Matrix: (Units=GPa)
#
#
# Indices 1 2 3 4 5 6 
#
# 1 91.4389 39.4940 45.8548 0.0000 0.0000 4.6891
# 2 39.4940 91.4389 45.8548 0.0000 0.0000 -4.6891
# 3 45.8548 45.8548 107.0780 0.0000 0.0000 0.0000
# 4 0.0000 0.0000 0.0000 24.4448 0.0000 0.0000
# 5 0.0000 0.0000 0.0000 0.0000 24.4448 0.0000
# 6 4.6891 -4.6891 0.0000 0.0000 0.0000 36.1632
#
#
#
# Elastic Compliance Matrix: (Units=1/GPa)
#
#
# Indices 1 2 3 4 5 6 
#
# 1 0.015311 -0.004401 -0.004672 0.000000 0.000000 -0.002556
# 2 -0.004401 0.015311 -0.004672 0.000000 0.000000 0.002556
# 3 -0.004672 -0.004672 0.013340 0.000000 0.000000 0.000000
# 4 0.000000 0.000000 0.000000 0.040909 0.000000 0.000000
# 5 0.000000 0.000000 0.000000 0.000000 0.040909 0.000000
# 6 -0.002556 0.002556 0.000000 0.000000 0.000000 0.028315
#
#
# Mechanical properties :
#
#
# Convention : Reuss Voigt Hill
#
# Bulk Modulus (GPa) = 60.70838 61.37365 61.04102
# Shear Modulus (GPa) = 26.72695 27.59402 27.16048
#
# Velocity S-wave (km/s) = 3.72992 3.78994 3.76005
# Velocity P-wave (km/s) = 7.08170 7.14833 7.11509
#
# Compressibility (1/GPa) = 0.01647219
#
# Stress axis : x y z
#
# Youngs Moduli (GPa) = 65.31121 65.31121 74.95981
#
# Poissons Ratio (x) = 0.28746 0.35022
# Poissons Ratio (y) = 0.28746 0.35022
# Poissons Ratio (z) = 0.30514 0.30514
#
# Static dielectric constant tensor:
#      x y z
#    x 3.469630 0.000000 0.000000 
#    y 0.000000 3.469630 0.000000 
#    z 0.000000 0.000000 3.468520 
# 
# 
# High freq. dielectric constant tensor:
#      x y z
#    x 1.746030 0.000000 0.000000 
#    y 0.000000 1.746030 0.000000 
#    z 0.000000 0.000000 1.749670 
# 
# From -- ./inp_files/3091.got.cif
#   From: 2010.03.12/outbox.cif.g09.slc.cpg/sg83_2_cif.got.tgz:3091.got - 2010.04.08 20:05:18.
