data_PCOD8302271
_publ_section_title
;
Structure prediction by ZEFSAII (Michael W. Deem and Ramdas Pophale) SiO2 
 PCOD8302271
Probable space group: P -4
;
_chemical_formula_sum "Si O2"
_cell_formula_units_Z 24
_cell_length_a 11.123812
_cell_length_b 11.123812
_cell_length_c 8.484595
_cell_angle_alpha 90.000000
_cell_angle_beta 90.000000
_cell_angle_gamma 90.000000
_cell_volume 1049.876942
_symmetry_space_group_name_H-M "P -4"
_symmetry_group_IT_number 81
_symmetry_cell_setting 'tetragonal'
loop_
_space_group_symop_operation_xyz
x,y,z
y,-x,-z
-x,-y,z
-y,x,-z
loop_
_atom_site_type_symbol
_atom_site_label
_atom_site_fract_x
_atom_site_fract_y
_atom_site_fract_z
Si Si1 0.500000 0.500000 0.500000
Si Si2 0.173015 0.618873 0.431644
Si Si3 0.808105 0.797226 0.323219
Si Si4 0.737233 0.031935 0.144408
Si Si5 0.000000 0.500000 0.682328
Si Si6 0.500000 0.500000 0.000000
Si Si7 0.568220 0.329786 0.734217
Si Si8 0.226491 0.054503 0.796231
O O1 0.602921 0.440263 0.615987
O O2 0.207591 0.750879 0.501800
O O3 0.104298 0.547094 0.567771
O O4 0.283409 0.547191 0.361116
O O5 0.097205 0.646774 0.273784
O O6 0.768274 0.671928 0.240058
O O7 0.951849 0.814904 0.329520
O O8 0.757976 0.903564 0.219560
O O9 0.838302 0.129367 0.191882
O O10 0.602567 0.063138 0.206999
O O11 0.746340 0.015142 0.957613
O O12 0.530945 0.380361 0.903120
#
# Coordination Sequence:
#
# PCOD8302271 Si02
#       8
#     1   4   4   4   2   1   4   4
#     4  10  20  42  68  98 144 202 244 334 348 442
#     4  11  26  44  74 105 144 199 249 321 372 457
#     4  11  25  44  73 108 146 200 248 313 387 449
#     4  11  26  49  76 109 153 199 253 319 380 463
#     4  10  26  50  72 110 146 198 258 304 386 448
#     4  10  28  42  72 114 140 218 256 330 384 458
#     4  11  23  46  70 104 152 190 270 306 389 443
#     4  12  26  48  75 111 152 198 251 312 390 465
#
# _framework density 22.859824
#
# number of rings (size 3 to 8) (size 9 to 14) (size 15 to 20)
#    0.000    1.000    3.333    1.500    9.333    2.000 
#    6.000    0.000    0.000    0.000    0.000    0.000 
#    0.000    0.000    0.000    0.000    0.000    0.000 
#
# Total GULP energy -297360.585273 kJ/mol
# GULP energy per Si atom -12390.024386 kJ/mol
# Density = 2.280779 g / cm^3
# Si number density = 22.859824 Si / 1000 Ang^3
#
#
#
# Elastic Constant Matrix: (Units=GPa)
#
#
# Indices 1 2 3 4 5 6 
#
# 1 124.9804 43.8101 58.7295 0.0000 0.0000 6.1909
# 2 43.8101 124.9804 58.7295 0.0000 0.0000 -6.1909
# 3 58.7295 58.7295 112.1049 0.0000 0.0000 0.0000
# 4 0.0000 0.0000 0.0000 29.3979 0.0000 0.0000
# 5 0.0000 0.0000 0.0000 0.0000 29.3979 0.0000
# 6 6.1909 -6.1909 0.0000 0.0000 0.0000 36.9184
#
#
#
# Elastic Compliance Matrix: (Units=1/GPa)
#
#
# Indices 1 2 3 4 5 6 
#
# 1 0.010983 -0.001660 -0.004884 0.000000 0.000000 -0.002120
# 2 -0.001660 0.010983 -0.004884 0.000000 0.000000 0.002120
# 3 -0.004884 -0.004884 0.014038 0.000000 0.000000 0.000000
# 4 0.000000 0.000000 0.000000 0.034016 0.000000 0.000000
# 5 0.000000 0.000000 0.000000 0.000000 0.034016 0.000000
# 6 -0.002120 0.002120 0.000000 0.000000 0.000000 0.027798
#
#
# Mechanical properties :
#
#
# Convention : Reuss Voigt Hill
#
# Bulk Modulus (GPa) = 76.06123 76.06710 76.06417
# Shear Modulus (GPa) = 31.43186 32.52926 31.98056
#
# Velocity S-wave (km/s) = 3.71210 3.77634 3.74436
# Velocity P-wave (km/s) = 7.19152 7.23616 7.21388
#
# Compressibility (1/GPa) = 0.01314730
#
# Stress axis : x y z
#
# Youngs Moduli (GPa) = 91.04696 91.04696 71.23581
#
# Poissons Ratio (x) = 0.15112 0.34794
# Poissons Ratio (y) = 0.15112 0.34794
# Poissons Ratio (z) = 0.44471 0.44471
#
# Static dielectric constant tensor:
#      x y z
#    x 4.357830 0.000000 0.000000 
#    y 0.000000 4.357830 0.000000 
#    z 0.000000 0.000000 4.333790 
# 
# 
# High freq. dielectric constant tensor:
#      x y z
#    x 1.904150 0.000000 0.000000 
#    y 0.000000 1.904150 0.000000 
#    z 0.000000 0.000000 1.914010 
# 
# From -- ./inp_files/902.got.cif
#   From: 2010.03.12/outbox.cif.g09.slc.cpg/sg81_cif.got.tgz:902.got - 2010.04.08 20:01:38.
