data_PCOD8302673
_publ_section_title
;
Structure prediction by ZEFSAII (Michael W. Deem and Ramdas Pophale) SiO2 
 PCOD8302673
Probable space group: P 4/M
;
_chemical_formula_sum "Si O2"
_cell_formula_units_Z 64
_cell_length_a 21.448910
_cell_length_b 21.448910
_cell_length_c 9.007041
_cell_angle_alpha 90.000000
_cell_angle_beta 90.000000
_cell_angle_gamma 90.000000
_cell_volume 4143.740914
_symmetry_space_group_name_H-M "P 4/M"
_symmetry_group_IT_number 83
_symmetry_cell_setting 'tetragonal'
loop_
_space_group_symop_operation_xyz
x,y,z
-y,x,z
-x,-y,z
y,-x,z
-x,-y,-z
y,-x,-z
x,y,-z
-y,x,-z
loop_
_atom_site_type_symbol
_atom_site_label
_atom_site_fract_x
_atom_site_fract_y
_atom_site_fract_z
Si Si1 0.237799 0.153121 0.331618
Si Si2 0.847526 0.760141 0.832722
Si Si3 0.260124 0.341628 0.836524
Si Si4 0.064537 0.673053 0.174626
Si Si5 0.257648 0.656791 0.664589
Si Si6 0.334303 0.933005 0.322925
Si Si7 0.572152 0.831370 0.171826
Si Si8 0.431069 0.843792 0.824043
O O1 0.222882 0.131847 0.500000
O O2 0.174652 0.177622 0.253326
O O3 0.263485 0.095163 0.236396
O O4 0.288430 0.207488 0.332270
O O5 0.790766 0.712596 0.840076
O O6 0.904407 0.729307 0.743248
O O7 0.869202 0.777361 0.000000
O O8 0.317935 0.322497 0.733002
O O9 0.224759 0.404104 0.781598
O O10 0.288116 0.351870 0.000000
O O11 0.109339 0.614738 0.207970
O O12 0.002826 0.658866 0.265683
O O13 0.050936 0.680600 0.000000
O O14 0.273070 0.634531 0.500000
O O15 0.231025 0.597148 0.750347
O O16 0.331258 0.930823 0.500000
O O17 0.395084 0.896507 0.266892
O O18 0.502616 0.846628 0.226647
O O19 0.572353 0.815284 0.000000
O O20 0.421830 0.856356 0.000000
#
# Coordination Sequence:
#
# PCOD8302673 Si02
#       8
#     8   8   8   8   8   8   8   8
#     4   9  16  27  43  64  86 107 135 175 220 261
#     4   9  16  28  45  63  82 107 139 175 216 262
#     4   8  14  25  42  60  79 103 134 171 212 254
#     4  10  19  31  45  61  84 117 152 183 214 254
#     4   9  16  25  40  61  84 106 132 169 214 257
#     4  11  21  31  43  61  86 116 148 184 220 254
#     4   9  18  31  46  61  81 112 149 182 213 250
#     4   9  18  32  46  61  82 112 148 183 215 254
#
# _framework density 15.444981
#
# number of rings (size 3 to 8) (size 9 to 14) (size 15 to 20)
#    0.000    2.750    0.000    3.375    0.000    7.500 
#    0.000    2.500    0.000    0.000    0.000    0.000 
#    0.000    1.000    0.000   10.750    0.000    6.000 
#
# Total GULP energy -793402.370658 kJ/mol
# GULP energy per Si atom -12396.912042 kJ/mol
# Density = 1.540983 g / cm^3
# Si number density = 15.444981 Si / 1000 Ang^3
#
#
#
# Elastic Constant Matrix: (Units=GPa)
#
#
# Indices 1 2 3 4 5 6 
#
# 1 59.8469 58.8877 48.3044 0.0000 0.0000 0.2907
# 2 58.8877 59.8469 48.3044 0.0000 0.0000 -0.2907
# 3 48.3044 48.3044 107.4271 0.0000 0.0000 0.0000
# 4 0.0000 0.0000 0.0000 19.2357 0.0000 0.0000
# 5 0.0000 0.0000 0.0000 0.0000 19.2357 0.0000
# 6 0.2907 -0.2907 0.0000 0.0000 0.0000 13.3664
#
#
#
# Elastic Compliance Matrix: (Units=1/GPa)
#
#
# Indices 1 2 3 4 5 6 
#
# 1 0.534871 -0.521590 -0.005972 0.000000 0.000000 -0.022978
# 2 -0.521590 0.534871 -0.005972 0.000000 0.000000 0.022978
# 3 -0.005972 -0.005972 0.014679 0.000000 0.000000 0.000000
# 4 0.000000 0.000000 0.000000 0.051987 0.000000 0.000000
# 5 0.000000 0.000000 0.000000 0.000000 0.051987 0.000000
# 6 -0.022978 0.022978 0.000000 0.000000 0.000000 0.075814
#
#
# Mechanical properties :
#
#
# Convention : Reuss Voigt Hill
#
# Bulk Modulus (GPa) = 57.62353 59.79043 58.70698
# Shear Modulus (GPa) = 2.13944 15.14250 8.64097
#
# Velocity S-wave (km/s) = 1.17822 3.13456 2.36787
# Velocity P-wave (km/s) = 6.26425 7.20392 6.75046
#
# Compressibility (1/GPa) = 0.01735402
#
# Stress axis : x y z
#
# Youngs Moduli (GPa) = 1.86961 1.86961 68.12403
#
# Poissons Ratio (x) = 0.97517 0.40683
# Poissons Ratio (y) = 0.97517 0.40683
# Poissons Ratio (z) = 0.01117 0.01117
#
# Static dielectric constant tensor:
#      x y z
#    x 2.859250 0.000000 0.000000 
#    y 0.000000 2.859250 0.000000 
#    z 0.000000 0.000000 3.134530 
# 
# 
# High freq. dielectric constant tensor:
#      x y z
#    x 1.563560 0.000000 0.000000 
#    y 0.000000 1.563560 0.000000 
#    z 0.000000 0.000000 1.605710 
# 
# From -- ./inp_files/1325.got.cif
#   From: 2010.03.12/outbox.cif.g09.slc.cpg/sg83_1_cif.got.tgz:1325.got - 2010.04.08 20:05:18.
