data_PCOD8302700
_publ_section_title
;
Structure prediction by ZEFSAII (Michael W. Deem and Ramdas Pophale) SiO2 
 PCOD8302700
Probable space group: P 4/M
;
_chemical_formula_sum "Si O2"
_cell_formula_units_Z 56
_cell_length_a 13.373257
_cell_length_b 13.373257
_cell_length_c 17.725516
_cell_angle_alpha 90.000000
_cell_angle_beta 90.000000
_cell_angle_gamma 90.000000
_cell_volume 3170.102233
_symmetry_space_group_name_H-M "P 4/M"
_symmetry_group_IT_number 83
_symmetry_cell_setting 'tetragonal'
loop_
_space_group_symop_operation_xyz
x,y,z
-y,x,z
-x,-y,z
y,-x,z
-x,-y,-z
y,-x,-z
x,y,-z
-y,x,-z
loop_
_atom_site_type_symbol
_atom_site_label
_atom_site_fract_x
_atom_site_fract_y
_atom_site_fract_z
Si Si1 0.410143 0.637124 0.085480
Si Si2 0.602940 0.040367 0.721200
Si Si3 0.254986 0.347396 0.227687
Si Si4 0.543326 0.343408 0.358339
Si Si5 0.144144 0.490072 0.414592
Si Si6 0.308990 0.155447 0.319049
Si Si7 0.097423 0.871753 0.412353
O O1 0.364333 0.528283 0.100657
O O2 0.357336 0.716688 0.140229
O O3 0.387950 0.671090 0.000000
O O4 0.647914 0.134689 0.765645
O O5 0.577579 0.066454 0.632870
O O6 0.500000 0.000000 0.759648
O O7 0.684068 0.951245 0.723882
O O8 0.302765 0.441382 0.272943
O O9 0.302092 0.244771 0.259174
O O10 0.621067 0.431116 0.373080
O O11 0.566188 0.251914 0.415225
O O12 0.104495 0.502671 0.500000
O O13 0.164886 0.595106 0.373064
O O14 0.208183 0.162199 0.367350
O O15 0.112602 0.851162 0.500000
O O16 0.980908 0.861924 0.390809
#
# Coordination Sequence:
#
# PCOD8302700 Si02
#       7
#     8   8   8   8   8   8   8
#     4   9  19  34  57  90 118 140 169 210 259 318
#     4   9  22  36  50  74 108 139 184 227 275 322
#     4  11  20  34  58  79 102 145 179 215 265 325
#     4  10  19  33  49  71  98 129 172 217 265 312
#     4  10  21  35  48  67  98 139 179 221 275 321
#     4  11  20  34  50  74  98 135 186 223 262 323
#     4   9  18  32  50  70  93 123 167 233 295 324
#
# _framework density 17.665044999999999
#
# number of rings (size 3 to 8) (size 9 to 14) (size 15 to 20)
#    0.000    2.143    1.429    3.000    4.000    4.857 
#    0.000    2.857    0.000    1.286    0.000    0.000 
#    0.000    0.000    0.000    4.429    0.000    0.000 
#
# Total GULP energy -694206.774028 kJ/mol
# GULP energy per Si atom -12396.549536 kJ/mol
# Density = 1.762484 g / cm^3
# Si number density = 17.665045 Si / 1000 Ang^3
#
#
#
# Elastic Constant Matrix: (Units=GPa)
#
#
# Indices 1 2 3 4 5 6 
#
# 1 82.4140 29.0515 39.6721 0.0000 0.0000 0.9239
# 2 29.0515 82.4140 39.6721 0.0000 0.0000 -0.9239
# 3 39.6721 39.6721 102.6382 0.0000 0.0000 0.0000
# 4 0.0000 0.0000 0.0000 19.1376 0.0000 0.0000
# 5 0.0000 0.0000 0.0000 0.0000 19.1376 0.0000
# 6 0.9239 -0.9239 0.0000 0.0000 0.0000 22.7168
#
#
#
# Elastic Compliance Matrix: (Units=1/GPa)
#
#
# Indices 1 2 3 4 5 6 
#
# 1 0.015571 -0.003195 -0.004784 0.000000 0.000000 -0.000763
# 2 -0.003195 0.015571 -0.004784 0.000000 0.000000 0.000763
# 3 -0.004784 -0.004784 0.013441 0.000000 0.000000 0.000000
# 4 0.000000 0.000000 0.000000 0.052253 0.000000 0.000000
# 5 0.000000 0.000000 0.000000 0.000000 0.052253 0.000000
# 6 -0.000763 0.000763 0.000000 0.000000 0.000000 0.044082
#
#
# Mechanical properties :
#
#
# Convention : Reuss Voigt Hill
#
# Bulk Modulus (GPa) = 52.46874 53.80639 53.13756
# Shear Modulus (GPa) = 22.21720 22.80309 22.51014
#
# Velocity S-wave (km/s) = 3.55024 3.59675 3.57357
# Velocity P-wave (km/s) = 6.82438 6.91189 6.86827
#
# Compressibility (1/GPa) = 0.01905897
#
# Stress axis : x y z
#
# Youngs Moduli (GPa) = 64.22021 64.22021 74.39858
#
# Poissons Ratio (x) = 0.20517 0.35591
# Poissons Ratio (y) = 0.20517 0.35591
# Poissons Ratio (z) = 0.30722 0.30722
#
# Static dielectric constant tensor:
#      x y z
#    x 3.349510 0.000000 0.000000 
#    y 0.000000 3.349510 0.000000 
#    z 0.000000 0.000000 2.887210 
# 
# 
# High freq. dielectric constant tensor:
#      x y z
#    x 1.688790 0.000000 0.000000 
#    y 0.000000 1.688790 0.000000 
#    z 0.000000 0.000000 1.631850 
# 
# From -- ./inp_files/2705.got.cif
#   From: 2010.03.12/outbox.cif.g09.slc.cpg/sg83_2_cif.got.tgz:2705.got - 2010.04.08 20:05:18.
