data_PCOD8302831
_publ_section_title
;
Structure prediction by ZEFSAII (Michael W. Deem and Ramdas Pophale) SiO2 
 PCOD8302831
Probable space group: P 4/M
;
_chemical_formula_sum "Si O2"
_cell_formula_units_Z 64
_cell_length_a 11.801948
_cell_length_b 11.801948
_cell_length_c 22.733454
_cell_angle_alpha 90.000000
_cell_angle_beta 90.000000
_cell_angle_gamma 90.000000
_cell_volume 3166.451342
_symmetry_space_group_name_H-M "P 4/M"
_symmetry_group_IT_number 83
_symmetry_cell_setting 'tetragonal'
loop_
_space_group_symop_operation_xyz
x,y,z
-y,x,z
-x,-y,z
y,-x,z
-x,-y,-z
y,-x,-z
x,y,-z
-y,x,-z
loop_
_atom_site_type_symbol
_atom_site_label
_atom_site_fract_x
_atom_site_fract_y
_atom_site_fract_z
Si Si1 0.953306 0.180625 0.064335
Si Si2 0.189945 0.562775 0.771058
Si Si3 0.376623 0.639770 0.935333
Si Si4 0.290749 0.014344 0.816493
Si Si5 0.333655 0.753426 0.820112
Si Si6 0.821191 0.956939 0.696485
Si Si7 0.578779 0.893190 0.646689
Si Si8 0.677131 0.456374 0.569486
O O1 0.079996 0.135115 0.069505
O O2 0.933492 0.262473 0.119579
O O3 0.938738 0.241153 0.000000
O O4 0.263340 0.677869 0.774456
O O5 0.258930 0.465352 0.804050
O O6 0.168307 0.526961 0.704056
O O7 0.067762 0.586827 0.801089
O O8 0.343227 0.509962 0.927532
O O9 0.311320 0.713122 0.886895
O O10 0.338852 0.682846 0.000000
O O11 0.294700 0.880764 0.814683
O O12 0.201406 0.052997 0.766611
O O13 0.707599 0.933834 0.658860
O O14 0.917046 0.864963 0.680277
O O15 0.575496 0.799270 0.595879
O O16 0.500000 0.000000 0.629136
O O17 0.635460 0.581934 0.589227
O O18 0.691470 0.452891 0.500000
#
# Coordination Sequence:
#
# PCOD8302831 Si02
#       8
#     8   8   8   8   8   8   8   8
#     4   9  17  30  50  75 101 135 188 244 289 351
#     4  11  25  38  56  87 120 156 193 254 304 368
#     4   9  18  36  59  80 104 141 193 251 311 382
#     4  11  21  36  54  78 114 157 191 237 314 382
#     4  12  22  38  59  81 118 151 198 250 314 377
#     4  10  21  38  60  85 121 169 219 262 313 383
#     4  11  24  38  65  96 133 168 216 268 315 368
#     4   9  21  43  70 102 141 181 220 261 309 371
#
# _framework density 20.211901000000001
#
# number of rings (size 3 to 8) (size 9 to 14) (size 15 to 20)
#    0.000    1.750    1.250    6.000    3.500    2.000 
#    0.000    1.250    0.000    1.500    0.000    0.875 
#    0.000    0.000    0.000    0.000    0.000    0.000 
#
# Total GULP energy -793395.367921 kJ/mol
# GULP energy per Si atom -12396.802624 kJ/mol
# Density = 2.016590 g / cm^3
# Si number density = 20.211901 Si / 1000 Ang^3
#
#
#
# Elastic Constant Matrix: (Units=GPa)
#
#
# Indices 1 2 3 4 5 6 
#
# 1 104.3679 38.1538 36.8719 0.0000 0.0000 1.8189
# 2 38.1538 104.3679 36.8719 0.0000 0.0000 -1.8189
# 3 36.8719 36.8719 77.2245 0.0000 0.0000 0.0000
# 4 0.0000 0.0000 0.0000 27.5173 0.0000 0.0000
# 5 0.0000 0.0000 0.0000 0.0000 27.5173 0.0000
# 6 1.8189 -1.8189 0.0000 0.0000 0.0000 70.2701
#
#
#
# Elastic Compliance Matrix: (Units=1/GPa)
#
#
# Indices 1 2 3 4 5 6 
#
# 1 0.012221 -0.002903 -0.004449 0.000000 0.000000 -0.000391
# 2 -0.002903 0.012221 -0.004449 0.000000 0.000000 0.000391
# 3 -0.004449 -0.004449 0.017198 0.000000 0.000000 0.000000
# 4 0.000000 0.000000 0.000000 0.036341 0.000000 0.000000
# 5 0.000000 0.000000 0.000000 0.000000 0.036341 0.000000
# 6 -0.000391 0.000391 0.000000 0.000000 0.000000 0.014251
#
#
# Mechanical properties :
#
#
# Convention : Reuss Voigt Hill
#
# Bulk Modulus (GPa) = 55.43831 56.63948 56.03889
# Shear Modulus (GPa) = 31.60780 36.66509 34.13645
#
# Velocity S-wave (km/s) = 3.95881 4.26377 4.11412
# Velocity P-wave (km/s) = 6.95588 7.23349 7.09604
#
# Compressibility (1/GPa) = 0.01803807
#
# Stress axis : x y z
#
# Youngs Moduli (GPa) = 81.82406 81.82406 58.14618
#
# Poissons Ratio (x) = 0.23751 0.25871
# Poissons Ratio (y) = 0.23751 0.25871
# Poissons Ratio (z) = 0.36406 0.36406
#
# Static dielectric constant tensor:
#      x y z
#    x 3.680710 0.000000 0.000000 
#    y 0.000000 3.680710 0.000000 
#    z 0.000000 0.000000 3.531280 
# 
# 
# High freq. dielectric constant tensor:
#      x y z
#    x 1.791230 0.000000 0.000000 
#    y 0.000000 1.791230 0.000000 
#    z 0.000000 0.000000 1.768510 
# 
# From -- ./inp_files/3220.got.cif
#   From: 2010.03.12/outbox.cif.g09.slc.cpg/sg83_2_cif.got.tgz:3220.got - 2010.04.08 20:05:18.
