data_PCOD8302418
_publ_section_title
;
Structure prediction by ZEFSAII (Michael W. Deem and Ramdas Pophale) SiO2 
 PCOD8302418
Probable space group: I -4 
;
_chemical_formula_sum "Si O2"
_cell_formula_units_Z 36
_cell_length_a 13.684360
_cell_length_b 13.684360
_cell_length_c 9.054004
_cell_angle_alpha 90.000000
_cell_angle_beta 90.000000
_cell_angle_gamma 90.000000
_cell_volume 1695.468259
_symmetry_space_group_name_H-M "I -4 "
_symmetry_group_IT_number 82
_symmetry_cell_setting 'tetragonal'
loop_
_space_group_symop_operation_xyz
x,y,z
y,-x,-z
-x,-y,z
-y,x,-z
1/2+x,1/2+y,1/2+z
1/2+y,1/2-x,1/2-z
1/2-x,1/2-y,1/2+z
1/2-y,1/2+x,1/2-z
loop_
_atom_site_type_symbol
_atom_site_label
_atom_site_fract_x
_atom_site_fract_y
_atom_site_fract_z
Si Si1 0.303927 0.457185 0.127857
Si Si2 0.500000 0.500000 0.000000
Si Si3 0.246927 0.853249 0.446532
Si Si4 0.500000 0.000000 0.750000
Si Si5 0.447691 0.141643 0.296866
Si Si6 0.185093 0.441956 0.415181
O O1 0.282156 0.348596 0.058509
O O2 0.268160 0.466758 0.296137
O O3 0.420946 0.460670 0.116539
O O4 0.261412 0.546326 0.036792
O O5 0.273549 0.884574 0.279807
O O6 0.335458 0.791477 0.517476
O O7 0.561430 0.077010 0.654720
O O8 0.543106 0.117491 0.195863
O O9 0.475473 0.181770 0.458320
#
# Coordination Sequence:
#
# PCOD8302418 Si02
#       6
#     8   2   8   2   8   8
#     4  10  21  39  61  84 114 163 203 243 294 360
#     4   8  20  44  64  78 124 164 208 250 300 344
#     4  10  21  38  57  85 121 154 197 248 299 351
#     4  12  20  36  62  92 120 144 190 256 296 352
#     4   9  19  35  57  85 118 153 186 245 308 353
#     4  11  21  36  62  91 118 154 201 245 304 357
#
# _framework density 21.233073999999998
#
# number of rings (size 3 to 8) (size 9 to 14) (size 15 to 20)
#    0.000    2.000    2.222    2.667    0.000    3.556 
#    0.000    6.667    0.000    1.333    0.000    0.000 
#    0.000    0.000    0.000    0.000    0.000    0.000 
#
# Total GULP energy -223067.607343 kJ/mol
# GULP energy per Si atom -12392.644852 kJ/mol
# Density = 2.118475 g / cm^3
# Si number density = 21.233074 Si / 1000 Ang^3
#
#
#
# Elastic Constant Matrix: (Units=GPa)
#
#
# Indices 1 2 3 4 5 6 
#
# 1 51.0868 -1.5096 30.3569 0.0000 0.0000 1.7137
# 2 -1.5096 51.0868 30.3569 0.0000 0.0000 -1.7137
# 3 30.3569 30.3569 121.9494 0.0000 0.0000 0.0000
# 4 0.0000 0.0000 0.0000 28.5315 0.0000 0.0000
# 5 0.0000 0.0000 0.0000 0.0000 28.5315 0.0000
# 6 1.7137 -1.7137 0.0000 0.0000 0.0000 15.1766
#
#
#
# Elastic Compliance Matrix: (Units=1/GPa)
#
#
# Indices 1 2 3 4 5 6 
#
# 1 0.024085 0.004931 -0.007223 0.000000 0.000000 -0.002163
# 2 0.004931 0.024085 -0.007223 0.000000 0.000000 0.002163
# 3 -0.007223 -0.007223 0.011796 0.000000 0.000000 0.000000
# 4 0.000000 0.000000 0.000000 0.035049 0.000000 0.000000
# 5 0.000000 0.000000 0.000000 0.000000 0.035049 0.000000
# 6 -0.002163 0.002163 0.000000 0.000000 0.000000 0.066379
#
#
# Mechanical properties :
#
#
# Convention : Reuss Voigt Hill
#
# Bulk Modulus (GPa) = 24.42815 38.05903 31.24359
# Shear Modulus (GPa) = 21.82280 25.44251 23.63266
#
# Velocity S-wave (km/s) = 3.20937 3.46533 3.33980
# Velocity P-wave (km/s) = 5.02625 5.82878 5.44232
#
# Compressibility (1/GPa) = 0.04093638
#
# Stress axis : x y z
#
# Youngs Moduli (GPa) = 41.51985 41.51985 84.77337
#
# Poissons Ratio (x) = -0.20474 0.61232
# Poissons Ratio (y) = -0.20474 0.61232
# Poissons Ratio (z) = 0.29990 0.29990
#
# Static dielectric constant tensor:
#      x y z
#    x 3.777920 0.000000 0.000000 
#    y 0.000000 3.777920 0.000000 
#    z 0.000000 0.000000 3.718120 
# 
# 
# High freq. dielectric constant tensor:
#      x y z
#    x 1.824800 0.000000 0.000000 
#    y 0.000000 1.824800 0.000000 
#    z 0.000000 0.000000 1.824110 
# 
# From -- ./inp_files/862.got.cif
#   From: 2010.03.12/outbox.cif.g09.slc.cpg/sg82_1_cif.got.tgz:862.got - 2010.04.08 20:02:50.
