data_PCOD8302414
_publ_section_title
;
Structure prediction by ZEFSAII (Michael W. Deem and Ramdas Pophale) SiO2 
 PCOD8302414
Probable space group: I -4 
;
_chemical_formula_sum "Si O2"
_cell_formula_units_Z 42
_cell_length_a 11.611002
_cell_length_b 11.611002
_cell_length_c 15.890566
_cell_angle_alpha 90.000000
_cell_angle_beta 90.000000
_cell_angle_gamma 90.000000
_cell_volume 2142.292494
_symmetry_space_group_name_H-M "I -4 "
_symmetry_group_IT_number 82
_symmetry_cell_setting 'tetragonal'
loop_
_space_group_symop_operation_xyz
x,y,z
y,-x,-z
-x,-y,z
-y,x,-z
1/2+x,1/2+y,1/2+z
1/2+y,1/2-x,1/2-z
1/2-x,1/2-y,1/2+z
1/2-y,1/2+x,1/2-z
loop_
_atom_site_type_symbol
_atom_site_label
_atom_site_fract_x
_atom_site_fract_y
_atom_site_fract_z
Si Si1 0.679092 0.210279 0.215058
Si Si2 0.370623 0.959072 0.356646
Si Si3 0.500000 0.500000 0.500000
Si Si4 0.600006 0.864437 0.790699
Si Si5 0.097349 0.661623 0.021068
Si Si6 0.392641 0.285599 0.440579
O O1 0.658912 0.157635 0.306846
O O2 0.556171 0.223597 0.167638
O O3 0.745632 0.331152 0.224504
O O4 0.749491 0.121579 0.156118
O O5 0.357124 0.933068 0.455377
O O6 0.500000 0.000000 0.332801
O O7 0.468686 0.399751 0.435542
O O8 0.467199 0.844594 0.765155
O O9 0.604885 0.903781 0.887460
O O10 0.185437 0.769553 0.017270
O O11 0.965129 0.693136 0.995339
#
# Coordination Sequence:
#
# PCOD8302414 Si02
#       6
#     8   8   2   8   8   8
#     4  11  21  39  59  95 120 162 204 253 310 369
#     4  12  21  37  62  90 124 155 205 256 310 358
#     4   8  16  32  52  88 124 156 198 272 296 360
#     4  10  25  44  63  89 124 164 209 247 314 375
#     4  10  21  36  62  91 117 166 200 262 300 371
#     4   9  18  34  57  89 122 153 211 247 317 355
#
# _framework density 19.605167000000002
#
# number of rings (size 3 to 8) (size 9 to 14) (size 15 to 20)
#    0.000    1.714    3.810    0.000    5.333    0.000 
#   10.286    0.000    0.000    0.000    0.000    0.000 
#    0.000    0.000    0.000    0.000    0.000    0.000 
#
# Total GULP energy -260303.493562 kJ/mol
# GULP energy per Si atom -12395.404455 kJ/mol
# Density = 1.956054 g / cm^3
# Si number density = 19.605167 Si / 1000 Ang^3
#
#
#
# Elastic Constant Matrix: (Units=GPa)
#
#
# Indices 1 2 3 4 5 6 
#
# 1 81.6244 34.7552 33.2426 0.0000 0.0000 5.8607
# 2 34.7552 81.6244 33.2426 0.0000 0.0000 -5.8607
# 3 33.2426 33.2426 123.5268 0.0000 0.0000 0.0000
# 4 0.0000 0.0000 0.0000 27.4672 0.0000 0.0000
# 5 0.0000 0.0000 0.0000 0.0000 27.4672 0.0000
# 6 5.8607 -5.8607 0.0000 0.0000 0.0000 29.2127
#
#
#
# Elastic Compliance Matrix: (Units=1/GPa)
#
#
# Indices 1 2 3 4 5 6 
#
# 1 0.016308 -0.006155 -0.002732 0.000000 0.000000 -0.004507
# 2 -0.006155 0.016308 -0.002732 0.000000 0.000000 0.004507
# 3 -0.002732 -0.002732 0.009566 0.000000 0.000000 0.000000
# 4 0.000000 0.000000 0.000000 0.036407 0.000000 0.000000
# 5 0.000000 0.000000 0.000000 0.000000 0.036407 0.000000
# 6 -0.004507 0.004507 0.000000 0.000000 0.000000 0.036040
#
#
# Mechanical properties :
#
#
# Convention : Reuss Voigt Hill
#
# Bulk Modulus (GPa) = 52.78884 54.36185 53.57535
# Shear Modulus (GPa) = 27.68695 29.19843 28.44269
#
# Velocity S-wave (km/s) = 3.76204 3.86336 3.81304
# Velocity P-wave (km/s) = 6.77163 6.90574 6.83902
#
# Compressibility (1/GPa) = 0.01894340
#
# Stress axis : x y z
#
# Youngs Moduli (GPa) = 61.31850 61.31850 104.53594
#
# Poissons Ratio (x) = 0.37740 0.28564
# Poissons Ratio (y) = 0.37740 0.28564
# Poissons Ratio (z) = 0.16755 0.16755
#
# Static dielectric constant tensor:
#      x y z
#    x 3.641690 0.000000 0.000000 
#    y 0.000000 3.641690 0.000000 
#    z 0.000000 0.000000 3.586560 
# 
# 
# High freq. dielectric constant tensor:
#      x y z
#    x 1.753620 0.000000 0.000000 
#    y 0.000000 1.753620 0.000000 
#    z 0.000000 0.000000 1.768480 
# 
# From -- ./inp_files/2597.got.cif
#   From: 2010.03.12/outbox.cif.g09.slc.cpg/sg82_2_cif.got.tgz:2597.got - 2010.04.08 20:02:50.
