data_PCOD8302035
_publ_section_title
;
Structure prediction by ZEFSAII (Michael W. Deem and Ramdas Pophale) SiO2 
 PCOD8302035
Probable space group: P 43
;
_chemical_formula_sum "Si O2"
_cell_formula_units_Z 20
_cell_length_a 11.909475
_cell_length_b 11.909475
_cell_length_c 6.478800
_cell_angle_alpha 90.000000
_cell_angle_beta 90.000000
_cell_angle_gamma 90.000000
_cell_volume 918.924451
_symmetry_space_group_name_H-M "P 43"
_symmetry_group_IT_number 78
_symmetry_cell_setting 'tetragonal'
loop_
_space_group_symop_operation_xyz
x,y,z
-y,x,3/4+z
-x,-y,1/2+z
y,-x,1/4+z
loop_
_atom_site_type_symbol
_atom_site_label
_atom_site_fract_x
_atom_site_fract_y
_atom_site_fract_z
Si Si1 0.196569 0.672559 0.373400
Si Si2 0.000242 0.647765 0.692967
Si Si3 0.914825 0.870448 0.606834
Si Si4 0.476115 0.154358 0.746042
Si Si5 0.653301 0.450390 0.178477
O O1 0.086011 0.643726 0.502969
O O2 0.190298 0.799999 0.289074
O O3 0.210172 0.599748 0.169915
O O4 0.302398 0.645666 0.521511
O O5 0.972287 0.777455 0.759721
O O6 0.887515 0.589333 0.606268
O O7 0.047131 0.586614 0.895179
O O8 0.004774 0.888302 0.428682
O O9 0.499691 0.248480 0.574510
O O10 0.556402 0.393127 0.308021
#
# Coordination Sequence:
#
# PCOD8302035 Si02
#       5
#     4   4   4   4   4
#     4  10  24  45  66  99 134 186 234 287 351 425
#     4  10  22  42  66 100 136 182 239 277 344 422
#     4  10  24  42  65  98 139 180 224 285 348 417
#     4  11  23  42  71 101 136 187 232 293 345 429
#     4  11  29  45  68 104 137 181 235 300 370 427
#
# _framework density 21.764574
#
# number of rings (size 3 to 8) (size 9 to 14) (size 15 to 20)
#    0.000    1.600    2.000    0.000   11.200    0.000 
#    0.000    0.000    0.000    0.000    0.000    0.000 
#    0.000    0.000    0.000    0.000    0.000    0.000 
#
# Total GULP energy -247850.577450 kJ/mol
# GULP energy per Si atom -12392.528872 kJ/mol
# Density = 2.171504 g / cm^3
# Si number density = 21.764574 Si / 1000 Ang^3
#
#
#
# Elastic Constant Matrix: (Units=GPa)
#
#
# Indices 1 2 3 4 5 6 
#
# 1 105.9649 48.5725 40.2111 0.0000 0.0000 -5.4169
# 2 48.5725 105.9649 40.2111 0.0000 0.0000 5.4169
# 3 40.2111 40.2111 95.0170 0.0000 0.0000 0.0000
# 4 0.0000 0.0000 0.0000 32.2329 0.0000 0.0000
# 5 0.0000 0.0000 0.0000 0.0000 32.2329 0.0000
# 6 -5.4169 5.4169 0.0000 0.0000 0.0000 21.1294
#
#
#
# Elastic Compliance Matrix: (Units=1/GPa)
#
#
# Indices 1 2 3 4 5 6 
#
# 1 0.013304 -0.005006 -0.003512 0.000000 0.000000 0.004694
# 2 -0.005006 0.013304 -0.003512 0.000000 0.000000 -0.004694
# 3 -0.003512 -0.003512 0.013497 0.000000 0.000000 0.000000
# 4 0.000000 0.000000 0.000000 0.031024 0.000000 0.000000
# 5 0.000000 0.000000 0.000000 0.000000 0.031024 0.000000
# 6 0.004694 -0.004694 0.000000 0.000000 0.000000 0.049734
#
#
# Mechanical properties :
#
#
# Convention : Reuss Voigt Hill
#
# Bulk Modulus (GPa) = 62.31970 62.77067 62.54518
# Shear Modulus (GPa) = 27.57918 28.98250 28.28084
#
# Velocity S-wave (km/s) = 3.56358 3.65312 3.60863
# Velocity P-wave (km/s) = 6.75484 6.83352 6.79430
#
# Compressibility (1/GPa) = 0.01604629
#
# Stress axis : x y z
#
# Youngs Moduli (GPa) = 75.16381 75.16381 74.09092
#
# Poissons Ratio (x) = 0.37625 0.26020
# Poissons Ratio (y) = 0.37625 0.26020
# Poissons Ratio (z) = 0.26397 0.26397
#
# Static dielectric constant tensor:
#      x y z
#    x 4.203280 0.000000 0.000000 
#    y 0.000000 4.203280 0.000000 
#    z 0.000000 0.000000 3.720680 
# 
# 
# High freq. dielectric constant tensor:
#      x y z
#    x 1.870040 0.000000 0.000000 
#    y 0.000000 1.870040 0.000000 
#    z 0.000000 0.000000 1.833710 
# 
# From -- ./inp_files/96.got.cif
#   From: 2010.03.12/outbox.cif.g09.slc.cpg/sg78_cif.got.tgz:96.got - 2010.04.16 16:37:20.
