data_PCOD8302906
_publ_section_title
;
Structure prediction by ZEFSAII (Michael W. Deem and Ramdas Pophale) SiO2 
 PCOD8302906
Probable space group: P 4/M
;
_chemical_formula_sum "Si O2"
_cell_formula_units_Z 52
_cell_length_a 17.889570
_cell_length_b 17.889570
_cell_length_c 7.929225
_cell_angle_alpha 90.000000
_cell_angle_beta 90.000000
_cell_angle_gamma 90.000000
_cell_volume 2537.643120
_symmetry_space_group_name_H-M "P 4/M"
_symmetry_group_IT_number 83
_symmetry_cell_setting 'tetragonal'
loop_
_space_group_symop_operation_xyz
x,y,z
-y,x,z
-x,-y,z
y,-x,z
-x,-y,-z
y,-x,-z
x,y,-z
-y,x,-z
loop_
_atom_site_type_symbol
_atom_site_label
_atom_site_fract_x
_atom_site_fract_y
_atom_site_fract_z
Si Si1 0.458238 0.779669 0.691282
Si Si2 0.241851 0.298415 0.808569
Si Si3 0.394848 0.307238 0.692813
Si Si4 0.022591 0.116592 0.700764
Si Si5 0.273521 0.921589 0.303286
Si Si6 0.050502 0.436198 0.693051
Si Si7 0.579485 0.592343 0.000000
O O1 0.438834 0.755981 0.500000
O O2 0.388968 0.754082 0.804764
O O3 0.536712 0.744784 0.750142
O O4 0.469605 0.867466 0.706304
O O5 0.314678 0.264913 0.711106
O O6 0.167375 0.267418 0.721547
O O7 0.243505 0.270918 0.000000
O O8 0.405575 0.335704 0.500000
O O9 0.388361 0.374439 0.826361
O O10 0.025227 0.119597 0.500000
O O11 0.038817 0.199695 0.776179
O O12 0.941665 0.086863 0.762769
O O13 0.276049 0.937823 0.500000
O O14 0.352167 0.952589 0.223498
O O15 0.024261 0.427708 0.500000
O O16 0.000000 0.500000 0.784477
O O17 0.491939 0.604618 0.000000
#
# Coordination Sequence:
#
# PCOD8302906 Si02
#       7
#     8   8   8   8   8   8   4
#     4   9  19  34  54  78 104 140 181 227 283 340
#     4  11  21  34  54  76 105 142 184 230 281 337
#     4  11  22  37  56  80 109 142 187 237 284 339
#     4   8  14  27  49  80 113 142 179 233 292 345
#     4   9  17  31  51  77 106 141 183 227 280 344
#     4   8  14  28  49  75 107 139 178 225 276 336
#     4  11  24  38  54  80 109 142 188 231 283 344
#
# _framework density 20.491454000000001
#
# number of rings (size 3 to 8) (size 9 to 14) (size 15 to 20)
#    0.000    2.538    0.769    3.692    1.077    1.846 
#    2.769    0.769    0.000    8.308    0.000    1.077 
#    0.000    0.000    0.000    0.000    0.000    0.000 
#
# Total GULP energy -644249.004149 kJ/mol
# GULP energy per Si atom -12389.403926 kJ/mol
# Density = 2.044481 g / cm^3
# Si number density = 20.491454 Si / 1000 Ang^3
#
#
#
# Elastic Constant Matrix: (Units=GPa)
#
#
# Indices 1 2 3 4 5 6 
#
# 1 120.3019 46.9347 7.4835 0.0000 0.0000 2.5917
# 2 46.9347 120.3019 7.4835 0.0000 0.0000 -2.5917
# 3 7.4835 7.4835 50.2644 0.0000 0.0000 0.0000
# 4 0.0000 0.0000 0.0000 10.1128 0.0000 0.0000
# 5 0.0000 0.0000 0.0000 0.0000 10.1128 0.0000
# 6 2.5917 -2.5917 0.0000 0.0000 0.0000 50.4286
#
#
#
# Elastic Compliance Matrix: (Units=1/GPa)
#
#
# Indices 1 2 3 4 5 6 
#
# 1 0.009870 -0.003810 -0.000902 0.000000 0.000000 -0.000703
# 2 -0.003810 0.009870 -0.000902 0.000000 0.000000 0.000703
# 3 -0.000902 -0.000902 0.020163 0.000000 0.000000 0.000000
# 4 0.000000 0.000000 0.000000 0.098884 0.000000 0.000000
# 5 0.000000 0.000000 0.000000 0.000000 0.098884 0.000000
# 6 -0.000703 0.000703 0.000000 0.000000 0.000000 0.019902
#
#
# Mechanical properties :
#
#
# Convention : Reuss Voigt Hill
#
# Bulk Modulus (GPa) = 34.87362 46.07463 40.47413
# Shear Modulus (GPa) = 17.96230 29.39529 23.67879
#
# Velocity S-wave (km/s) = 2.96391 3.79161 3.40302
# Velocity P-wave (km/s) = 5.36364 6.45771 5.93593
#
# Compressibility (1/GPa) = 0.02867497
#
# Stress axis : x y z
#
# Youngs Moduli (GPa) = 101.31693 101.31693 49.59467
#
# Poissons Ratio (x) = 0.38599 0.04475
# Poissons Ratio (y) = 0.38599 0.04475
# Poissons Ratio (z) = 0.09142 0.09142
#
# Static dielectric constant tensor:
#      x y z
#    x 3.942620 0.000000 0.000000 
#    y 0.000000 3.942620 0.000000 
#    z 0.000000 0.000000 3.334100 
# 
# 
# High freq. dielectric constant tensor:
#      x y z
#    x 1.795750 0.000000 0.000000 
#    y 0.000000 1.795750 0.000000 
#    z 0.000000 0.000000 1.769300 
# 
# From -- ./inp_files/970.got.cif
#   From: 2010.03.12/outbox.cif.g09.slc.cpg/sg83_1_cif.got.tgz:970.got - 2010.04.08 20:05:18.
