data_PCOD8302339
_publ_section_title
;
Structure prediction by ZEFSAII (Michael W. Deem and Ramdas Pophale) SiO2 
 PCOD8302339
Probable space group: I -4 
;
_chemical_formula_sum "Si O2"
_cell_formula_units_Z 48
_cell_length_a 21.333358
_cell_length_b 21.333358
_cell_length_c 5.303022
_cell_angle_alpha 90.000000
_cell_angle_beta 90.000000
_cell_angle_gamma 90.000000
_cell_volume 2413.469816
_symmetry_space_group_name_H-M "I -4 "
_symmetry_group_IT_number 82
_symmetry_cell_setting 'tetragonal'
loop_
_space_group_symop_operation_xyz
x,y,z
y,-x,-z
-x,-y,z
-y,x,-z
1/2+x,1/2+y,1/2+z
1/2+y,1/2-x,1/2-z
1/2-x,1/2-y,1/2+z
1/2-y,1/2+x,1/2-z
loop_
_atom_site_type_symbol
_atom_site_label
_atom_site_fract_x
_atom_site_fract_y
_atom_site_fract_z
Si Si1 0.313198 0.362163 0.005573
Si Si2 0.695239 0.769341 0.505731
Si Si3 0.269272 0.375985 0.505452
Si Si4 0.742409 0.122436 0.494491
Si Si5 0.138730 0.440996 0.479494
Si Si6 0.021198 0.351286 0.521180
O O1 0.306038 0.403590 0.259246
O O2 0.254453 0.314294 0.008037
O O3 0.305546 0.403740 0.752669
O O4 0.375843 0.319000 0.004677
O O5 0.722374 0.699154 0.507591
O O6 0.654011 0.784275 0.751218
O O7 0.654870 0.784084 0.258236
O O8 0.197080 0.394338 0.507996
O O9 0.718612 0.050819 0.491584
O O10 0.075314 0.402293 0.492538
O O11 0.139257 0.490083 0.707129
O O12 0.141245 0.472743 0.206014
#
# Coordination Sequence:
#
# PCOD8302339 Si02
#       6
#     8   8   8   8   8   8
#     4  10  16  27  50  74  96 111 133 180 244 322
#     4  10  16  27  50  74  96 111 133 180 244 322
#     4  10  19  31  48  72  93 115 148 193 247 301
#     4  10  19  31  48  72  93 115 148 193 247 301
#     4  12  25  39  53  67  91 130 180 227 256 277
#     4  12  25  39  53  67  91 130 180 227 256 277
#
# _framework density 19.888379
#
# number of rings (size 3 to 8) (size 9 to 14) (size 15 to 20)
#    0.000    1.333    0.000   11.000    0.000    2.000 
#    0.000    0.000    0.000    0.000    0.000    0.000 
#    0.000    0.000    0.000    0.000    0.000  933.333 
#
# Total GULP energy -297398.371608 kJ/mol
# GULP energy per Si atom -12391.598817 kJ/mol
# Density = 1.984311 g / cm^3
# Si number density = 19.888379 Si / 1000 Ang^3
#
#
#
# Elastic Constant Matrix: (Units=GPa)
#
#
# Indices 1 2 3 4 5 6 
#
# 1 35.2341 37.0652 12.4188 0.0000 0.0000 -4.5471
# 2 37.0652 35.2341 12.4188 0.0000 0.0000 4.5471
# 3 12.4188 12.4188 169.8966 0.0000 0.0000 0.0000
# 4 0.0000 0.0000 0.0000 25.9283 0.0000 0.0000
# 5 0.0000 0.0000 0.0000 0.0000 25.9283 0.0000
# 6 -4.5471 4.5471 0.0000 0.0000 0.0000 29.0958
#
#
#
# Elastic Compliance Matrix: (Units=1/GPa)
#
#
# Indices 1 2 3 4 5 6 
#
# 1 -0.146642 0.160829 -0.001037 0.000000 0.000000 -0.048051
# 2 0.160829 -0.146642 -0.001037 0.000000 0.000000 0.048051
# 3 -0.001037 -0.001037 0.006038 0.000000 0.000000 0.000000
# 4 0.000000 0.000000 0.000000 0.038568 0.000000 0.000000
# 5 0.000000 0.000000 0.000000 0.000000 0.038568 0.000000
# 6 -0.048051 0.048051 0.000000 0.000000 0.000000 0.019350
#
#
# Mechanical properties :
#
#
# Convention : Reuss Voigt Hill
#
# Bulk Modulus (GPa) = 33.04188 40.46338 36.75263
# Shear Modulus (GPa) = -10.03651 28.08795 9.02572
#
# Velocity S-wave (km/s) = -2.24886 3.76211 2.13261
# Velocity P-wave (km/s) = 3.14747 6.26583 4.95819
#
# Compressibility (1/GPa) = 0.03026462
#
# Stress axis : x y z
#
# Youngs Moduli (GPa) = -6.81935 -6.81935 165.63023
#
# Poissons Ratio (x) = 1.09675 0.17177
# Poissons Ratio (y) = 1.09675 0.17177
# Poissons Ratio (z) = -0.00707 -0.00707
#
# Static dielectric constant tensor:
#      x y z
#    x 3.396160 0.000000 0.000000 
#    y 0.000000 3.396160 0.000000 
#    z 0.000000 0.000000 6.240930 
# 
# 
# High freq. dielectric constant tensor:
#      x y z
#    x 1.729980 0.000000 0.000000 
#    y 0.000000 1.729980 0.000000 
#    z 0.000000 0.000000 1.830470 
# 
# From -- ./inp_files/342.got.cif
#   From: 2010.03.12/outbox.cif.g09.slc.cpg/sg82_1_cif.got.tgz:342.got - 2010.04.08 20:02:50.
