data_PCOD8302977
_publ_section_title
;
Structure prediction by ZEFSAII (Michael W. Deem and Ramdas Pophale) SiO2 
 PCOD8302977
Probable space group: P 4/M
;
_chemical_formula_sum "Si O2"
_cell_formula_units_Z 40
_cell_length_a 8.339243
_cell_length_b 8.339243
_cell_length_c 26.202148
_cell_angle_alpha 90.000000
_cell_angle_beta 90.000000
_cell_angle_gamma 90.000000
_cell_volume 1822.175292
_symmetry_space_group_name_H-M "P 4/M"
_symmetry_group_IT_number 83
_symmetry_cell_setting 'tetragonal'
loop_
_space_group_symop_operation_xyz
x,y,z
-y,x,z
-x,-y,z
y,-x,z
-x,-y,-z
y,-x,-z
x,y,-z
-y,x,-z
loop_
_atom_site_type_symbol
_atom_site_label
_atom_site_fract_x
_atom_site_fract_y
_atom_site_fract_z
Si Si1 0.397182 0.254027 0.335885
Si Si2 0.239839 0.107429 0.942110
Si Si3 0.396481 0.256186 0.553767
Si Si4 0.405270 0.253445 0.850227
Si Si5 0.906909 0.247937 0.757541
O O1 0.584032 0.294661 0.329316
O O2 0.361461 0.170755 0.391757
O O3 0.346791 0.125097 0.293971
O O4 0.378485 0.169219 0.904830
O O5 0.078742 0.207151 0.931527
O O6 0.299276 0.133465 0.000000
O O7 0.582952 0.294876 0.553320
O O8 0.356496 0.160601 0.500000
O O9 0.590246 0.295515 0.845035
O O10 0.359598 0.130347 0.805766
O O11 0.092084 0.204137 0.759374
#
# Coordination Sequence:
#
# PCOD8302977 Si02
#       5
#     8   8   8   8   8
#     4   9  17  30  51  79 106 131 165 210 257 306
#     4   9  19  37  60  85 113 145 180 214 248 293
#     4   7  10  19  39  69 102 131 159 197 247 299
#     4  11  24  39  56  81 110 137 170 215 263 309
#     4  11  24  39  54  73  99 134 176 217 258 310
#
# _framework density 21.951782999999999
#
# number of rings (size 3 to 8) (size 9 to 14) (size 15 to 20)
#    0.000    2.600    0.000    4.800    0.000    9.600 
#    0.000    3.000    0.000    1.200    0.000    7.000 
#    0.000    0.000    0.000    0.000    0.000    0.000 
#
# Total GULP energy -495698.064193 kJ/mol
# GULP energy per Si atom -12392.451605 kJ/mol
# Density = 2.190182 g / cm^3
# Si number density = 21.951783 Si / 1000 Ang^3
#
#
#
# Elastic Constant Matrix: (Units=GPa)
#
#
# Indices 1 2 3 4 5 6 
#
# 1 17.3505 -7.4775 7.5714 0.0000 0.0000 0.3378
# 2 -7.4775 17.3505 7.5714 0.0000 0.0000 -0.3378
# 3 7.5714 7.5714 161.6369 0.0000 0.0000 0.0000
# 4 0.0000 0.0000 0.0000 -8.7707 0.0000 0.0000
# 5 0.0000 0.0000 0.0000 0.0000 -8.7707 0.0000
# 6 0.3378 -0.3378 0.0000 0.0000 0.0000 27.1985
#
#
#
# Elastic Compliance Matrix: (Units=1/GPa)
#
#
# Indices 1 2 3 4 5 6 
#
# 1 0.074708 0.034418 -0.005112 0.000000 0.000000 -0.000500
# 2 0.034418 0.074708 -0.005112 0.000000 0.000000 0.000500
# 3 -0.005112 -0.005112 0.006666 0.000000 0.000000 0.000000
# 4 0.000000 0.000000 0.000000 -0.114016 0.000000 0.000000
# 5 0.000000 0.000000 0.000000 0.000000 -0.114016 0.000000
# 6 -0.000500 0.000500 0.000000 0.000000 0.000000 0.036779
#
#
# Mechanical properties :
#
#
# Convention : Reuss Voigt Hill
#
# Bulk Modulus (GPa) = 4.89067 23.51874 14.20470
# Shear Modulus (GPa) = -324.64492 14.50959 -155.06767
#
# Velocity S-wave (km/s) = -12.17420 2.57373 -8.41389
# Velocity P-wave (km/s) = 13.97791 4.42371 9.37584
#
# Compressibility (1/GPa) = 0.20447104
#
# Stress axis : x y z
#
# Youngs Moduli (GPa) = 13.38537 13.38537 150.02422
#
# Poissons Ratio (x) = -0.46069 0.76688
# Poissons Ratio (y) = -0.46069 0.76688
# Poissons Ratio (z) = 0.06842 0.06842
#
# Static dielectric constant tensor:
#      x y z
#    x 3.607030 0.000000 0.000000 
#    y 0.000000 3.607030 0.000000 
#    z 0.000000 0.000000 4.479870 
# 
# 
# High freq. dielectric constant tensor:
#      x y z
#    x 1.836090 0.000000 0.000000 
#    y 0.000000 1.836090 0.000000 
#    z 0.000000 0.000000 1.890810 
# 
# From -- ./inp_files/3089.got.cif
#   From: 2010.03.12/outbox.cif.g09.slc.cpg/sg83_2_cif.got.tgz:3089.got - 2010.04.08 20:05:18.
