data_PCOD8302525
_publ_section_title
;
Structure prediction by ZEFSAII (Michael W. Deem and Ramdas Pophale) SiO2 
 PCOD8302525
Probable space group: I -4 
;
_chemical_formula_sum "Si O2"
_cell_formula_units_Z 48
_cell_length_a 9.045808
_cell_length_b 9.045808
_cell_length_c 28.927259
_cell_angle_alpha 90.000000
_cell_angle_beta 90.000000
_cell_angle_gamma 90.000000
_cell_volume 2367.020477
_symmetry_space_group_name_H-M "I -4 "
_symmetry_group_IT_number 82
_symmetry_cell_setting 'tetragonal'
loop_
_space_group_symop_operation_xyz
x,y,z
y,-x,-z
-x,-y,z
-y,x,-z
1/2+x,1/2+y,1/2+z
1/2+y,1/2-x,1/2-z
1/2-x,1/2-y,1/2+z
1/2-y,1/2+x,1/2-z
loop_
_atom_site_type_symbol
_atom_site_label
_atom_site_fract_x
_atom_site_fract_y
_atom_site_fract_z
Si Si1 0.856848 0.712627 0.548243
Si Si2 0.261797 0.045024 0.299126
Si Si3 0.512611 0.666341 0.396227
Si Si4 0.268768 0.060835 0.199285
Si Si5 0.354485 0.698187 0.105475
Si Si6 0.007071 0.665886 0.451985
O O1 0.783723 0.574262 0.573065
O O2 0.726041 0.829280 0.539041
O O3 0.996235 0.765846 0.577916
O O4 0.911891 0.662545 0.498368
O O5 0.183576 0.071360 0.248992
O O6 0.416805 0.129674 0.299199
O O7 0.162243 0.104707 0.341178
O O8 0.295058 0.871791 0.307543
O O9 0.500000 0.500000 0.416496
O O10 0.447012 0.657953 0.344010
O O11 0.677990 0.727414 0.397337
O O12 0.282343 0.552186 0.085247
O O13 0.000000 0.500000 0.431368
#
# Coordination Sequence:
#
# PCOD8302525 Si02
#       6
#     8   8   8   8   8   8
#     4  12  24  42  64  87 122 162 210 254 314 376
#     4   8  14  28  56  88 115 157 201 255 301 360
#     4  11  22  38  60  94 126 163 199 259 322 373
#     4   8  14  28  54  87 123 151 199 255 306 354
#     4  11  21  39  64  89 121 163 213 255 310 368
#     4  12  26  43  60  90 122 161 206 265 312 372
#
# _framework density 20.278658
#
# number of rings (size 3 to 8) (size 9 to 14) (size 15 to 20)
#    0.000    1.667    3.333    4.000    0.000    0.000 
#    0.000    1.667    0.000    0.000    0.000    0.000 
#    0.000    0.000    0.000    0.000    0.000    0.000 
#
# Total GULP energy -297489.607035 kJ/mol
# GULP energy per Si atom -12395.400293 kJ/mol
# Density = 2.023250 g / cm^3
# Si number density = 20.278658 Si / 1000 Ang^3
#
#
#
# Elastic Constant Matrix: (Units=GPa)
#
#
# Indices 1 2 3 4 5 6 
#
# 1 58.5282 -4.9889 2.5474 0.0000 0.0000 0.2887
# 2 -4.9889 58.5282 2.5474 0.0000 0.0000 -0.2887
# 3 2.5474 2.5474 107.7588 0.0000 0.0000 0.0000
# 4 0.0000 0.0000 0.0000 17.4539 0.0000 0.0000
# 5 0.0000 0.0000 0.0000 0.0000 17.4539 0.0000
# 6 0.2887 -0.2887 0.0000 0.0000 0.0000 30.3107
#
#
#
# Elastic Compliance Matrix: (Units=1/GPa)
#
#
# Indices 1 2 3 4 5 6 
#
# 1 0.017233 0.001487 -0.000443 0.000000 0.000000 -0.000150
# 2 0.001487 0.017233 -0.000443 0.000000 0.000000 0.000150
# 3 -0.000443 -0.000443 0.009301 0.000000 0.000000 0.000000
# 4 0.000000 0.000000 0.000000 0.057294 0.000000 0.000000
# 5 0.000000 0.000000 0.000000 0.000000 0.057294 0.000000
# 6 -0.000150 0.000150 0.000000 0.000000 0.000000 0.032995
#
#
# Mechanical properties :
#
#
# Convention : Reuss Voigt Hill
#
# Bulk Modulus (GPa) = 22.23666 25.00297 23.61981
# Shear Modulus (GPa) = 24.37438 28.02434 26.19936
#
# Velocity S-wave (km/s) = 3.47071 3.72151 3.59829
# Velocity P-wave (km/s) = 5.20100 5.55181 5.37927
#
# Compressibility (1/GPa) = 0.04497078
#
# Stress axis : x y z
#
# Youngs Moduli (GPa) = 58.02962 58.02961 107.51638
#
# Poissons Ratio (x) = -0.08631 0.04758
# Poissons Ratio (y) = -0.08631 0.04758
# Poissons Ratio (z) = 0.02568 0.02568
#
# Static dielectric constant tensor:
#      x y z
#    x 3.450020 0.000000 0.000000 
#    y 0.000000 3.450020 0.000000 
#    z 0.000000 0.000000 4.161190 
# 
# 
# High freq. dielectric constant tensor:
#      x y z
#    x 1.772030 0.000000 0.000000 
#    y 0.000000 1.772030 0.000000 
#    z 0.000000 0.000000 1.806250 
# 
# From -- ./inp_files/4038.got.cif
#   From: 2010.03.12/outbox.cif.g09.slc.cpg/sg82_3_cif.got.tgz:4038.got - 2010.04.08 20:02:50.
