data_PCOD8302844
_publ_section_title
;
Structure prediction by ZEFSAII (Michael W. Deem and Ramdas Pophale) SiO2 
 PCOD8302844
Probable space group: P 4/M
;
_chemical_formula_sum "Si O2"
_cell_formula_units_Z 64
_cell_length_a 11.507561
_cell_length_b 11.507561
_cell_length_c 25.357408
_cell_angle_alpha 90.000000
_cell_angle_beta 90.000000
_cell_angle_gamma 90.000000
_cell_volume 3357.928387
_symmetry_space_group_name_H-M "P 4/M"
_symmetry_group_IT_number 83
_symmetry_cell_setting 'tetragonal'
loop_
_space_group_symop_operation_xyz
x,y,z
-y,x,z
-x,-y,z
y,-x,z
-x,-y,-z
y,-x,-z
x,y,-z
-y,x,-z
loop_
_atom_site_type_symbol
_atom_site_label
_atom_site_fract_x
_atom_site_fract_y
_atom_site_fract_z
Si Si1 0.186492 0.037435 0.559235
Si Si2 0.914791 0.827281 0.210365
Si Si3 0.003853 0.374359 0.641079
Si Si4 0.608499 0.821438 0.853985
Si Si5 0.202589 0.331909 0.291251
Si Si6 0.364202 0.000248 0.943184
Si Si7 0.594610 0.825156 0.266966
Si Si8 0.337927 0.803138 0.125889
O O1 0.237114 0.046915 0.500000
O O2 0.286132 0.059276 0.601896
O O3 0.089626 0.134025 0.568359
O O4 0.880130 0.762144 0.263571
O O5 0.875530 0.745345 0.163437
O O6 0.051665 0.846553 0.207884
O O7 0.938699 0.382473 0.697717
O O8 0.000000 0.500000 0.613159
O O9 0.139989 0.343755 0.651629
O O10 0.664487 0.917258 0.893282
O O11 0.639980 0.849655 0.792833
O O12 0.668388 0.700748 0.872965
O O13 0.471163 0.810958 0.857024
O O14 0.207665 0.458664 0.263955
O O15 0.333912 0.282648 0.292672
O O16 0.500000 0.000000 0.951204
O O17 0.323718 0.867864 0.930397
O O18 0.307464 0.037463 0.000000
#
# Coordination Sequence:
#
# PCOD8302844 Si02
#       8
#     8   8   8   8   8   8   8   8
#     4   9  18  35  57  79 107 145 184 228 284 335
#     4  11  22  35  53  78 106 141 180 221 267 316
#     4  10  22  33  53  80 112 147 186 231 272 321
#     4  11  21  36  60  81 109 148 178 224 278 326
#     4  11  22  35  52  78 116 146 186 224 272 325
#     4   9  21  38  57  78 102 136 179 219 265 325
#     4  11  21  35  54  81 111 150 183 225 274 326
#     4  11  22  36  57  82 110 141 183 225 270 330
#
# _framework density 19.059369
#
# number of rings (size 3 to 8) (size 9 to 14) (size 15 to 20)
#    0.000    1.625    2.500    2.625    1.750    2.750 
#    0.000    2.500    0.000    0.000    0.000    6.125 
#    0.000    0.000    0.000   23.250    0.000    0.125 
#
# Total GULP energy -793000.444346 kJ/mol
# GULP energy per Si atom -12390.631943 kJ/mol
# Density = 1.901599 g / cm^3
# Si number density = 19.059369 Si / 1000 Ang^3
#
#
#
# Elastic Constant Matrix: (Units=GPa)
#
#
# Indices 1 2 3 4 5 6 
#
# 1 105.7243 45.3149 32.8007 0.0000 0.0000 -8.1231
# 2 45.3149 105.7243 32.8007 0.0000 0.0000 8.1231
# 3 32.8007 32.8007 78.5187 0.0000 0.0000 0.0000
# 4 0.0000 0.0000 0.0000 44.8930 0.0000 0.0000
# 5 0.0000 0.0000 0.0000 0.0000 44.8930 0.0000
# 6 -8.1231 8.1231 0.0000 0.0000 0.0000 32.7514
#
#
#
# Elastic Compliance Matrix: (Units=1/GPa)
#
#
# Indices 1 2 3 4 5 6 
#
# 1 0.012913 -0.004824 -0.003379 0.000000 0.000000 0.004399
# 2 -0.004824 0.012913 -0.003379 0.000000 0.000000 -0.004399
# 3 -0.003379 -0.003379 0.015559 0.000000 0.000000 0.000000
# 4 0.000000 0.000000 0.000000 0.022275 0.000000 0.000000
# 5 0.000000 0.000000 0.000000 0.000000 0.022275 0.000000
# 6 0.004399 -0.004399 0.000000 0.000000 0.000000 0.032715
#
#
# Mechanical properties :
#
#
# Convention : Reuss Voigt Hill
#
# Bulk Modulus (GPa) = 54.88451 56.86666 55.87559
# Shear Modulus (GPa) = 33.80968 36.44424 35.12696
#
# Velocity S-wave (km/s) = 4.21635 4.37755 4.29771
# Velocity P-wave (km/s) = 7.25001 7.44661 7.34897
#
# Compressibility (1/GPa) = 0.01822008
#
# Stress axis : x y z
#
# Youngs Moduli (GPa) = 77.44392 77.44392 64.27227
#
# Poissons Ratio (x) = 0.37361 0.21717
# Poissons Ratio (y) = 0.37361 0.21717
# Poissons Ratio (z) = 0.26167 0.26167
#
# Static dielectric constant tensor:
#      x y z
#    x 3.599510 0.000000 0.000000 
#    y 0.000000 3.599510 0.000000 
#    z 0.000000 0.000000 3.533790 
# 
# 
# High freq. dielectric constant tensor:
#      x y z
#    x 1.741110 0.000000 0.000000 
#    y 0.000000 1.741110 0.000000 
#    z 0.000000 0.000000 1.722480 
# 
# From -- ./inp_files/3212.got.cif
#   From: 2010.03.12/outbox.cif.g09.slc.cpg/sg83_2_cif.got.tgz:3212.got - 2010.04.08 20:05:18.
