data_PCOD8302755
_publ_section_title
;
Structure prediction by ZEFSAII (Michael W. Deem and Ramdas Pophale) SiO2 
 PCOD8302755
Probable space group: P 4/M
;
_chemical_formula_sum "Si O2"
_cell_formula_units_Z 64
_cell_length_a 19.801936
_cell_length_b 19.801936
_cell_length_c 9.020745
_cell_angle_alpha 90.000000
_cell_angle_beta 90.000000
_cell_angle_gamma 90.000000
_cell_volume 3537.184484
_symmetry_space_group_name_H-M "P 4/M"
_symmetry_group_IT_number 83
_symmetry_cell_setting 'tetragonal'
loop_
_space_group_symop_operation_xyz
x,y,z
-y,x,z
-x,-y,z
y,-x,z
-x,-y,-z
y,-x,-z
x,y,-z
-y,x,-z
loop_
_atom_site_type_symbol
_atom_site_label
_atom_site_fract_x
_atom_site_fract_y
_atom_site_fract_z
Si Si1 0.758135 0.590520 0.667429
Si Si2 0.173799 0.293498 0.832656
Si Si3 0.045847 0.367136 0.166742
Si Si4 0.462086 0.397340 0.831118
Si Si5 0.494290 0.857531 0.171427
Si Si6 0.287541 0.199033 0.829274
Si Si7 0.681077 0.361966 0.669433
Si Si8 0.908069 0.370660 0.325216
O O1 0.775498 0.569619 0.500000
O O2 0.797353 0.659012 0.705983
O O3 0.783333 0.529757 0.773225
O O4 0.679935 0.610818 0.687017
O O5 0.092303 0.299147 0.818643
O O6 0.207622 0.219194 0.809580
O O7 0.193455 0.319207 0.000000
O O8 0.089332 0.434228 0.201732
O O9 0.986020 0.361622 0.283314
O O10 0.016243 0.372503 0.000000
O O11 0.538528 0.414937 0.797371
O O12 0.437681 0.336905 0.723245
O O13 0.452107 0.374183 0.000000
O O14 0.560351 0.879055 0.259574
O O15 0.513210 0.852976 0.000000
O O16 0.333285 0.260837 0.774011
O O17 0.305633 0.132484 0.736150
O O18 0.304681 0.184721 0.000000
O O19 0.706826 0.362976 0.500000
O O20 0.900908 0.373066 0.500000
#
# Coordination Sequence:
#
# PCOD8302755 Si02
#       8
#     8   8   8   8   8   8   8   8
#     4   9  17  29  46  69  96 125 159 201 246 293
#     4   8  16  32  54  74  92 122 165 205 238 280
#     4   9  18  34  54  75  99 130 170 209 244 290
#     4   9  19  35  51  65  82 109 150 198 245 296
#     4  10  20  34  51  70  97 136 177 213 247 289
#     4  10  20  36  55  73  97 130 163 197 239 283
#     4  10  20  33  50  72  96 121 152 196 250 303
#     4  12  24  34  47  73 107 137 166 203 249 296
#
# _framework density 18.093487
#
# number of rings (size 3 to 8) (size 9 to 14) (size 15 to 20)
#    0.000    2.375    0.000    4.125    0.000    7.500 
#    0.000    3.125    0.000    0.000    0.000    0.000 
#    0.000    0.500    0.000    5.750    0.000    2.250 
#
# Total GULP energy -793142.985478 kJ/mol
# GULP energy per Si atom -12392.859148 kJ/mol
# Density = 1.805231 g / cm^3
# Si number density = 18.093487 Si / 1000 Ang^3
#
#
#
# Elastic Constant Matrix: (Units=GPa)
#
#
# Indices 1 2 3 4 5 6 
#
# 1 40.5233 28.9988 33.3159 0.0000 0.0000 3.7117
# 2 28.9988 40.5233 33.3159 0.0000 0.0000 -3.7117
# 3 33.3159 33.3159 110.6374 0.0000 0.0000 0.0000
# 4 0.0000 0.0000 0.0000 24.7326 0.0000 0.0000
# 5 0.0000 0.0000 0.0000 0.0000 24.7326 0.0000
# 6 3.7117 -3.7117 0.0000 0.0000 0.0000 21.5358
#
#
#
# Elastic Compliance Matrix: (Units=1/GPa)
#
#
# Indices 1 2 3 4 5 6 
#
# 1 0.058914 -0.038694 -0.006089 0.000000 0.000000 -0.016823
# 2 -0.038694 0.058914 -0.006089 0.000000 0.000000 0.016823
# 3 -0.006089 -0.006089 0.012705 0.000000 0.000000 0.000000
# 4 0.000000 0.000000 0.000000 0.040432 0.000000 0.000000
# 5 0.000000 0.000000 0.000000 0.000000 0.040432 0.000000
# 6 -0.016823 0.016823 0.000000 0.000000 0.000000 0.052233
#
#
# Mechanical properties :
#
#
# Convention : Reuss Voigt Hill
#
# Bulk Modulus (GPa) = 34.73457 42.54947 38.64202
# Shear Modulus (GPa) = 13.33440 20.60375 16.96908
#
# Velocity S-wave (km/s) = 2.71767 3.37818 3.06577
# Velocity P-wave (km/s) = 5.39320 6.22765 5.82539
#
# Compressibility (1/GPa) = 0.02878976
#
# Stress axis : x y z
#
# Youngs Moduli (GPa) = 16.97402 16.97402 78.70663
#
# Poissons Ratio (x) = 0.65680 0.47921
# Poissons Ratio (y) = 0.65680 0.47921
# Poissons Ratio (z) = 0.10335 0.10335
#
# Static dielectric constant tensor:
#      x y z
#    x 3.303870 0.000000 0.000000 
#    y 0.000000 3.303870 0.000000 
#    z 0.000000 0.000000 3.385600 
# 
# 
# High freq. dielectric constant tensor:
#      x y z
#    x 1.675940 0.000000 0.000000 
#    y 0.000000 1.675940 0.000000 
#    z 0.000000 0.000000 1.711330 
# 
# From -- ./inp_files/1285.got.cif
#   From: 2010.03.12/outbox.cif.g09.slc.cpg/sg83_1_cif.got.tgz:1285.got - 2010.04.08 20:05:18.
