data_PCOD8302498
_publ_section_title
;
Structure prediction by ZEFSAII (Michael W. Deem and Ramdas Pophale) SiO2 
 PCOD8302498
Probable space group: I -4 
;
_chemical_formula_sum "Si O2"
_cell_formula_units_Z 40
_cell_length_a 10.600351
_cell_length_b 10.600351
_cell_length_c 14.604149
_cell_angle_alpha 90.000000
_cell_angle_beta 90.000000
_cell_angle_gamma 90.000000
_cell_volume 1641.030856
_symmetry_space_group_name_H-M "I -4 "
_symmetry_group_IT_number 82
_symmetry_cell_setting 'tetragonal'
loop_
_space_group_symop_operation_xyz
x,y,z
y,-x,-z
-x,-y,z
-y,x,-z
1/2+x,1/2+y,1/2+z
1/2+y,1/2-x,1/2-z
1/2-x,1/2-y,1/2+z
1/2-y,1/2+x,1/2-z
loop_
_atom_site_type_symbol
_atom_site_label
_atom_site_fract_x
_atom_site_fract_y
_atom_site_fract_z
Si Si1 0.562841 0.833698 0.795941
Si Si2 0.256804 0.916904 0.118166
Si Si3 0.079636 0.795643 0.709481
Si Si4 0.153044 0.910008 0.452946
Si Si5 0.797032 0.612689 0.467307
O O1 0.414880 0.852492 0.776111
O O2 0.600443 0.688522 0.784936
O O3 0.587889 0.889861 0.896541
O O4 0.368642 0.831894 0.161116
O O5 0.135125 0.831874 0.091565
O O6 0.224413 0.027180 0.189213
O O7 0.299980 0.984267 0.024490
O O8 0.964457 0.847945 0.649225
O O9 0.267553 0.813380 0.465210
O O10 0.022128 0.836327 0.470772
#
# Coordination Sequence:
#
# PCOD8302498 Si02
#       5
#     8   8   8   8   8
#     4  10  24  47  71 109 146 200 251 315 381 448
#     4  11  26  49  73 112 151 202 253 316 388 461
#     4  11  25  50  76 108 152 199 258 308 389 465
#     4  11  23  47  75 107 140 194 249 308 378 462
#     4  11  26  48  71 112 150 193 253 312 393 457
#
# _framework density 24.374922999999999
#
# number of rings (size 3 to 8) (size 9 to 14) (size 15 to 20)
#    0.000    1.200    4.000    1.200    2.800   11.200 
#    3.600    0.000    0.000    0.000    0.000    0.000 
#    0.000    0.000    0.000    0.000    0.000    0.000 
#
# Total GULP energy -248000.313020 kJ/mol
# GULP energy per Si atom -12400.015651 kJ/mol
# Density = 2.431944 g / cm^3
# Si number density = 24.374923 Si / 1000 Ang^3
#
#
#
# Elastic Constant Matrix: (Units=GPa)
#
#
# Indices 1 2 3 4 5 6 
#
# 1 75.7645 11.6409 28.5707 0.0000 0.0000 -4.8214
# 2 11.6409 75.7645 28.5707 0.0000 0.0000 4.8214
# 3 28.5707 28.5707 128.6756 0.0000 0.0000 0.0000
# 4 0.0000 0.0000 0.0000 50.6859 0.0000 0.0000
# 5 0.0000 0.0000 0.0000 0.0000 50.6859 0.0000
# 6 -4.8214 4.8214 0.0000 0.0000 0.0000 33.0740
#
#
#
# Elastic Compliance Matrix: (Units=1/GPa)
#
#
# Indices 1 2 3 4 5 6 
#
# 1 0.014664 -0.001280 -0.002972 0.000000 0.000000 0.002324
# 2 -0.001280 0.014664 -0.002972 0.000000 0.000000 -0.002324
# 3 -0.002972 -0.002972 0.009091 0.000000 0.000000 0.000000
# 4 0.000000 0.000000 0.000000 0.019729 0.000000 0.000000
# 5 0.000000 0.000000 0.000000 0.000000 0.019729 0.000000
# 6 0.002324 -0.002324 0.000000 0.000000 0.000000 0.030913
#
#
# Mechanical properties :
#
#
# Convention : Reuss Voigt Hill
#
# Bulk Modulus (GPa) = 41.71572 46.41883 44.06728
# Shear Modulus (GPa) = 38.10138 40.98397 39.54268
#
# Velocity S-wave (km/s) = 3.95794 4.10493 4.03211
# Velocity P-wave (km/s) = 6.16753 6.44611 6.30836
#
# Compressibility (1/GPa) = 0.02397178
#
# Stress axis : x y z
#
# Youngs Moduli (GPa) = 68.19404 68.19405 109.99748
#
# Poissons Ratio (x) = 0.08731 0.32688
# Poissons Ratio (y) = 0.08731 0.32688
# Poissons Ratio (z) = 0.20265 0.20265
#
# Static dielectric constant tensor:
#      x y z
#    x 4.287450 0.000000 0.000000 
#    y 0.000000 4.287450 0.000000 
#    z 0.000000 0.000000 4.530650 
# 
# 
# High freq. dielectric constant tensor:
#      x y z
#    x 1.962870 0.000000 0.000000 
#    y 0.000000 1.962870 0.000000 
#    z 0.000000 0.000000 1.978400 
# 
# From -- ./inp_files/2200.got.cif
#   From: 2010.03.12/outbox.cif.g09.slc.cpg/sg82_2_cif.got.tgz:2200.got - 2010.04.08 20:02:50.
