data_PCOD8302745
_publ_section_title
;
Structure prediction by ZEFSAII (Michael W. Deem and Ramdas Pophale) SiO2 
 PCOD8302745
Probable space group: P 4/M
;
_chemical_formula_sum "Si O2"
_cell_formula_units_Z 64
_cell_length_a 11.958583
_cell_length_b 11.958583
_cell_length_c 24.427795
_cell_angle_alpha 90.000000
_cell_angle_beta 90.000000
_cell_angle_gamma 90.000000
_cell_volume 3493.362959
_symmetry_space_group_name_H-M "P 4/M"
_symmetry_group_IT_number 83
_symmetry_cell_setting 'tetragonal'
loop_
_space_group_symop_operation_xyz
x,y,z
-y,x,z
-x,-y,z
y,-x,z
-x,-y,-z
y,-x,-z
x,y,-z
-y,x,-z
loop_
_atom_site_type_symbol
_atom_site_label
_atom_site_fract_x
_atom_site_fract_y
_atom_site_fract_z
Si Si1 0.393891 0.081477 0.868782
Si Si2 0.365447 0.002069 0.636705
Si Si3 0.804685 0.375013 0.561422
Si Si4 0.463368 0.326904 0.742168
Si Si5 0.672597 0.459647 0.127908
Si Si6 0.601006 0.918518 0.746868
Si Si7 0.179623 0.020373 0.935965
Si Si8 0.629660 0.194421 0.562291
O O1 0.429514 0.202990 0.893003
O O2 0.343194 0.095360 0.806710
O O3 0.295526 0.029558 0.904311
O O4 0.500000 0.000000 0.872244
O O5 0.319295 0.891051 0.607242
O O6 0.500000 0.000000 0.636848
O O7 0.320113 0.103941 0.600688
O O8 0.323144 0.021186 0.699673
O O9 0.851328 0.363738 0.500000
O O10 0.688891 0.312127 0.569400
O O11 0.780801 0.502233 0.576561
O O12 0.585741 0.368255 0.721304
O O13 0.464194 0.325638 0.807142
O O14 0.438176 0.201292 0.721329
O O15 0.633231 0.582849 0.106972
O O16 0.500000 0.000000 0.759524
O O17 0.097070 0.121892 0.919976
O O18 0.205703 0.023521 0.000000
O O19 0.643583 0.147411 0.500000
#
# Coordination Sequence:
#
# PCOD8302745 Si02
#       8
#     8   8   8   8   8   8   8   8
#     4  10  20  31  54  84 108 133 176 219 262 309
#     4   9  17  32  48  64  98 135 168 196 235 292
#     4   9  17  30  49  72  94 122 163 203 247 293
#     4   8  14  28  48  70  96 132 174 208 237 281
#     4   8  15  28  48  73 107 144 172 203 252 306
#     4   9  18  33  45  72 109 140 167 204 245 298
#     4   9  20  40  61  78 101 136 179 226 269 307
#     4   9  17  30  51  74  95 124 162 206 248 297
#
# _framework density 18.320456
#
# number of rings (size 3 to 8) (size 9 to 14) (size 15 to 20)
#    0.000    3.125    0.000    1.500    1.750    2.000 
#    9.000    1.250    0.000    0.375    0.000    2.625 
#    0.000    0.000    0.000    0.000    0.000    0.000 
#
# Total GULP energy -792928.346129 kJ/mol
# GULP energy per Si atom -12389.505408 kJ/mol
# Density = 1.827876 g / cm^3
# Si number density = 18.320456 Si / 1000 Ang^3
#
#
#
# Elastic Constant Matrix: (Units=GPa)
#
#
# Indices 1 2 3 4 5 6 
#
# 1 92.9505 40.0430 41.1340 0.0000 0.0000 3.6742
# 2 40.0430 92.9505 41.1340 0.0000 0.0000 -3.6742
# 3 41.1340 41.1340 68.4162 0.0000 0.0000 0.0000
# 4 0.0000 0.0000 0.0000 5.8055 0.0000 0.0000
# 5 0.0000 0.0000 0.0000 0.0000 5.8055 0.0000
# 6 3.6742 -3.6742 0.0000 0.0000 0.0000 11.5404
#
#
#
# Elastic Compliance Matrix: (Units=1/GPa)
#
#
# Indices 1 2 3 4 5 6 
#
# 1 0.015873 -0.003902 -0.007198 0.000000 0.000000 -0.006296
# 2 -0.003902 0.015873 -0.007198 0.000000 0.000000 0.006296
# 3 -0.007198 -0.007198 0.023271 0.000000 0.000000 0.000000
# 4 0.000000 0.000000 0.000000 0.172251 0.000000 0.000000
# 5 0.000000 0.000000 0.000000 0.000000 0.172251 0.000000
# 6 -0.006296 0.006296 0.000000 0.000000 0.000000 0.090661
#
#
# Mechanical properties :
#
#
# Convention : Reuss Voigt Hill
#
# Bulk Modulus (GPa) = 54.27774 55.43768 54.85771
# Shear Modulus (GPa) = 9.38231 13.43067 11.40649
#
# Velocity S-wave (km/s) = 2.26547 2.71051 2.49792
# Velocity P-wave (km/s) = 6.04436 6.33416 6.19095
#
# Compressibility (1/GPa) = 0.01842376
#
# Stress axis : x y z
#
# Youngs Moduli (GPa) = 62.99813 62.99813 42.97115
#
# Poissons Ratio (x) = 0.24581 0.30929
# Poissons Ratio (y) = 0.24581 0.30929
# Poissons Ratio (z) = 0.45344 0.45344
#
# Static dielectric constant tensor:
#      x y z
#    x 3.360080 0.000000 0.000000 
#    y 0.000000 3.360080 0.000000 
#    z 0.000000 0.000000 3.410970 
# 
# 
# High freq. dielectric constant tensor:
#      x y z
#    x 1.693310 0.000000 0.000000 
#    y 0.000000 1.693310 0.000000 
#    z 0.000000 0.000000 1.698700 
# 
# From -- ./inp_files/3225.got.cif
#   From: 2010.03.12/outbox.cif.g09.slc.cpg/sg83_2_cif.got.tgz:3225.got - 2010.04.08 20:05:18.
