data_PCOD8302895
_publ_section_title
;
Structure prediction by ZEFSAII (Michael W. Deem and Ramdas Pophale) SiO2 
 PCOD8302895
Probable space group: P 4/M
;
_chemical_formula_sum "Si O2"
_cell_formula_units_Z 40
_cell_length_a 14.272416
_cell_length_b 14.272416
_cell_length_c 8.823438
_cell_angle_alpha 90.000000
_cell_angle_beta 90.000000
_cell_angle_gamma 90.000000
_cell_volume 1797.350719
_symmetry_space_group_name_H-M "P 4/M"
_symmetry_group_IT_number 83
_symmetry_cell_setting 'tetragonal'
loop_
_space_group_symop_operation_xyz
x,y,z
-y,x,z
-x,-y,z
y,-x,z
-x,-y,-z
y,-x,-z
x,y,-z
-y,x,-z
loop_
_atom_site_type_symbol
_atom_site_label
_atom_site_fract_x
_atom_site_fract_y
_atom_site_fract_z
Si Si1 0.204340 0.647042 0.821884
Si Si2 0.391885 0.006784 0.678985
Si Si3 0.094197 0.119635 0.833791
Si Si4 0.465905 0.352747 0.323283
Si Si5 0.278858 0.824945 0.326463
O O1 0.099224 0.654589 0.753912
O O2 0.256147 0.551840 0.767678
O O3 0.277134 0.728384 0.767769
O O4 0.193528 0.648674 0.000000
O O5 0.377406 0.016551 0.500000
O O6 0.500000 0.000000 0.725754
O O7 0.345856 0.908506 0.736442
O O8 0.138005 0.173429 0.692759
O O9 0.984480 0.129376 0.819430
O O10 0.126147 0.158990 0.000000
O O11 0.568577 0.389471 0.279964
O O12 0.460705 0.328859 0.500000
O O13 0.302736 0.801337 0.500000
#
# Coordination Sequence:
#
# PCOD8302895 Si02
#       5
#     8   8   8   8   8
#     4  12  26  41  64  98 137 177 216 268 337 410
#     4  10  24  46  69  94 127 172 228 282 332 390
#     4   9  18  33  54  81 115 153 192 243 311 377
#     4   9  20  41  69  97 127 168 219 274 329 389
#     4  11  23  39  61  88 119 162 217 271 317 378
#
# _framework density 22.254977
#
# number of rings (size 3 to 8) (size 9 to 14) (size 15 to 20)
#    0.000    1.800    0.000    4.800    2.800    6.800 
#    0.000    2.000    0.000    0.000    0.000    0.000 
#    0.000    0.000    0.000    0.000    0.000    0.000 
#
# Total GULP energy -495688.806551 kJ/mol
# GULP energy per Si atom -12392.220164 kJ/mol
# Density = 2.220432 g / cm^3
# Si number density = 22.254977 Si / 1000 Ang^3
#
#
#
# Elastic Constant Matrix: (Units=GPa)
#
#
# Indices 1 2 3 4 5 6 
#
# 1 93.5718 5.8885 26.8910 0.0000 0.0000 -4.1193
# 2 5.8885 93.5718 26.8910 0.0000 0.0000 4.1193
# 3 26.8910 26.8910 72.1872 0.0000 0.0000 0.0000
# 4 0.0000 0.0000 0.0000 9.3356 0.0000 0.0000
# 5 0.0000 0.0000 0.0000 0.0000 9.3356 0.0000
# 6 -4.1193 4.1193 0.0000 0.0000 0.0000 44.4836
#
#
#
# Elastic Compliance Matrix: (Units=1/GPa)
#
#
# Indices 1 2 3 4 5 6 
#
# 1 0.012048 0.000543 -0.004690 0.000000 0.000000 0.001065
# 2 0.000543 0.012048 -0.004690 0.000000 0.000000 -0.001065
# 3 -0.004690 -0.004690 0.017347 0.000000 0.000000 0.000000
# 4 0.000000 0.000000 0.000000 0.107117 0.000000 0.000000
# 5 0.000000 0.000000 0.000000 0.000000 0.107117 0.000000
# 6 0.001065 -0.001065 0.000000 0.000000 0.000000 0.022677
#
#
# Mechanical properties :
#
#
# Convention : Reuss Voigt Hill
#
# Bulk Modulus (GPa) = 42.07440 42.07464 42.07452
# Shear Modulus (GPa) = 16.44997 25.94165 21.19581
#
# Velocity S-wave (km/s) = 2.72170 3.41787 3.08946
# Velocity P-wave (km/s) = 5.36875 5.87559 5.62788
#
# Compressibility (1/GPa) = 0.02376742
#
# Stress axis : x y z
#
# Youngs Moduli (GPa) = 83.00421 83.00421 57.64627
#
# Poissons Ratio (x) = -0.04506 0.27037
# Poissons Ratio (y) = -0.04506 0.27037
# Poissons Ratio (z) = 0.38930 0.38930
#
# Static dielectric constant tensor:
#      x y z
#    x 4.146520 0.000000 0.000000 
#    y 0.000000 4.146520 0.000000 
#    z 0.000000 0.000000 3.806280 
# 
# 
# High freq. dielectric constant tensor:
#      x y z
#    x 1.885580 0.000000 0.000000 
#    y 0.000000 1.885580 0.000000 
#    z 0.000000 0.000000 1.852320 
# 
# From -- ./inp_files/691.got.cif
#   From: 2010.03.12/outbox.cif.g09.slc.cpg/sg83_1_cif.got.tgz:691.got - 2010.04.08 20:05:18.
