data_PCOD8302507
_publ_section_title
;
Structure prediction by ZEFSAII (Michael W. Deem and Ramdas Pophale) SiO2 
 PCOD8302507
Probable space group: I -4 
;
_chemical_formula_sum "Si O2"
_cell_formula_units_Z 48
_cell_length_a 8.762705
_cell_length_b 8.762705
_cell_length_c 29.869727
_cell_angle_alpha 90.000000
_cell_angle_beta 90.000000
_cell_angle_gamma 90.000000
_cell_volume 2293.546955
_symmetry_space_group_name_H-M "I -4 "
_symmetry_group_IT_number 82
_symmetry_cell_setting 'tetragonal'
loop_
_space_group_symop_operation_xyz
x,y,z
y,-x,-z
-x,-y,z
-y,x,-z
1/2+x,1/2+y,1/2+z
1/2+y,1/2-x,1/2-z
1/2-x,1/2-y,1/2+z
1/2-y,1/2+x,1/2-z
loop_
_atom_site_type_symbol
_atom_site_label
_atom_site_fract_x
_atom_site_fract_y
_atom_site_fract_z
Si Si1 0.908522 0.766564 0.999940
Si Si2 0.409956 0.344189 0.239247
Si Si3 0.760324 0.095340 0.903342
Si Si4 0.334409 0.040689 0.677680
Si Si5 0.275461 0.169002 0.317909
Si Si6 0.233967 0.909722 0.096655
O O1 0.874803 0.685235 0.951962
O O2 0.877622 0.681110 0.047236
O O3 0.084226 0.807326 0.999273
O O4 0.500000 0.500000 0.245757
O O5 0.246388 0.356163 0.215113
O O6 0.377436 0.284190 0.288732
O O7 0.510165 0.230702 0.208771
O O8 0.633086 0.147351 0.868374
O O9 0.911740 0.196814 0.898524
O O10 0.807766 0.918928 0.896809
O O11 0.500000 0.000000 0.697021
O O12 0.231440 0.892161 0.670254
O O13 0.362066 0.145912 0.365046
#
# Coordination Sequence:
#
# PCOD8302507 Si02
#       6
#     8   8   8   8   8   8
#     4   7  12  26  50  86 121 151 185 240 294 342
#     4  10  27  43  59  88 122 157 202 252 308 371
#     4   9  17  31  58  92 121 149 198 248 291 351
#     4  11  23  38  62  88 113 155 196 255 303 359
#     4  11  24  41  61  82 120 159 200 252 303 362
#     4   9  17  31  59  88 121 157 195 241 299 355
#
# _framework density 20.928284999999999
#
# number of rings (size 3 to 8) (size 9 to 14) (size 15 to 20)
#    0.000    2.500    1.667    2.000    9.333    0.333 
#    0.000    0.000    3.667    0.000    0.000    0.000 
#    0.000    0.000    0.000    0.000    0.000    0.000 
#
# Total GULP energy -297353.958152 kJ/mol
# GULP energy per Si atom -12389.748256 kJ/mol
# Density = 2.088065 g / cm^3
# Si number density = 20.928285 Si / 1000 Ang^3
#
#
#
# Elastic Constant Matrix: (Units=GPa)
#
#
# Indices 1 2 3 4 5 6 
#
# 1 62.2892 16.4113 44.9181 0.0000 0.0000 -4.1414
# 2 16.4113 62.2892 44.9182 0.0000 0.0000 4.1414
# 3 44.9181 44.9182 176.0567 0.0000 0.0000 0.0000
# 4 0.0000 0.0000 0.0000 20.6695 0.0000 0.0000
# 5 0.0000 0.0000 0.0000 0.0000 20.6695 0.0000
# 6 -4.1414 4.1414 0.0000 0.0000 0.0000 21.2051
#
#
#
# Elastic Compliance Matrix: (Units=1/GPa)
#
#
# Indices 1 2 3 4 5 6 
#
# 1 0.020261 -0.002333 -0.004574 0.000000 0.000000 0.004413
# 2 -0.002333 0.020261 -0.004574 0.000000 0.000000 -0.004413
# 3 -0.004574 -0.004574 0.008014 0.000000 0.000000 0.000000
# 4 0.000000 0.000000 0.000000 0.048380 0.000000 0.000000
# 5 0.000000 0.000000 0.000000 0.000000 0.048380 0.000000
# 6 0.004413 -0.004413 0.000000 0.000000 0.000000 0.048882
#
#
# Mechanical properties :
#
#
# Convention : Reuss Voigt Hill
#
# Bulk Modulus (GPa) = 39.10334 57.01446 48.05890
# Shear Modulus (GPa) = 22.15682 25.46800 23.81241
#
# Velocity S-wave (km/s) = 3.25730 3.49222 3.37680
# Velocity P-wave (km/s) = 5.73338 6.60021 6.18201
#
# Compressibility (1/GPa) = 0.02557326
#
# Stress axis : x y z
#
# Youngs Moduli (GPa) = 49.35692 49.35693 124.78278
#
# Poissons Ratio (x) = 0.11515 0.57075
# Poissons Ratio (y) = 0.11515 0.57075
# Poissons Ratio (z) = 0.22576 0.22576
#
# Static dielectric constant tensor:
#      x y z
#    x 3.544170 0.000000 0.000000 
#    y 0.000000 3.544170 0.000000 
#    z 0.000000 0.000000 4.327530 
# 
# 
# High freq. dielectric constant tensor:
#      x y z
#    x 1.789290 0.000000 0.000000 
#    y 0.000000 1.789290 0.000000 
#    z 0.000000 0.000000 1.846140 
# 
# From -- ./inp_files/4026.got.cif
#   From: 2010.03.12/outbox.cif.g09.slc.cpg/sg82_3_cif.got.tgz:4026.got - 2010.04.08 20:02:50.
