data_PCOD8302988
_publ_section_title
;
Structure prediction by ZEFSAII (Michael W. Deem and Ramdas Pophale) SiO2 
 PCOD8302988
Probable space group: P 4/M
;
_chemical_formula_sum "Si O2"
_cell_formula_units_Z 40
_cell_length_a 8.523651
_cell_length_b 8.523651
_cell_length_c 25.872292
_cell_angle_alpha 90.000000
_cell_angle_beta 90.000000
_cell_angle_gamma 90.000000
_cell_volume 1879.689964
_symmetry_space_group_name_H-M "P 4/M"
_symmetry_group_IT_number 83
_symmetry_cell_setting 'tetragonal'
loop_
_space_group_symop_operation_xyz
x,y,z
-y,x,z
-x,-y,z
y,-x,z
-x,-y,-z
y,-x,-z
x,y,-z
-y,x,-z
loop_
_atom_site_type_symbol
_atom_site_label
_atom_site_fract_x
_atom_site_fract_y
_atom_site_fract_z
Si Si1 0.605740 0.737150 0.095087
Si Si2 0.106056 0.765357 0.813449
Si Si3 0.239278 0.091985 0.696481
Si Si4 0.416359 0.254062 0.611115
Si Si5 0.584690 0.744015 0.500000
Si Si6 0.237553 0.107132 0.000000
O O1 0.422201 0.704313 0.090517
O O2 0.632276 0.825032 0.149432
O O3 0.659867 0.853081 0.050026
O O4 0.123772 0.703244 0.754895
O O5 0.923714 0.797024 0.824274
O O6 0.377394 0.134254 0.656887
O O7 0.087977 0.198758 0.686605
O O8 0.595610 0.304443 0.616295
O O9 0.385108 0.167790 0.554914
O O10 0.405681 0.694487 0.500000
O O11 0.077225 0.204836 0.000000
#
# Coordination Sequence:
#
# PCOD8302988 Si02
#       6
#     8   8   8   8   4   4
#     4  11  24  39  56  83 116 143 171 213 261 305
#     4   9  19  37  58  77 100 136 180 217 252 304
#     4   9  19  35  52  72 102 137 171 210 256 306
#     4   9  17  30  50  74  98 127 167 213 258 307
#     4   7  12  26  46  67  94 128 164 205 254 305
#     4  11  24  41  62  86 110 141 182 219 252 300
#
# _framework density 21.280104999999999
#
# number of rings (size 3 to 8) (size 9 to 14) (size 15 to 20)
#    0.000    2.600    0.000    4.200    0.000    8.800 
#    0.000    7.000    0.000    4.800    0.000    0.000 
#    0.000    0.000    0.000    0.000    0.000    0.000 
#
# Total GULP energy -495820.530284 kJ/mol
# GULP energy per Si atom -12395.513257 kJ/mol
# Density = 2.123167 g / cm^3
# Si number density = 21.280105 Si / 1000 Ang^3
#
#
#
# Elastic Constant Matrix: (Units=GPa)
#
#
# Indices 1 2 3 4 5 6 
#
# 1 19.5876 -9.2980 11.0532 0.0000 0.0000 5.6825
# 2 -9.2980 19.5876 11.0532 0.0000 0.0000 -5.6825
# 3 11.0532 11.0532 129.9477 0.0000 0.0000 0.0000
# 4 0.0000 0.0000 0.0000 -6.5529 0.0000 0.0000
# 5 0.0000 0.0000 0.0000 0.0000 -6.5529 0.0000
# 6 5.6825 -5.6825 0.0000 0.0000 0.0000 41.2075
#
#
#
# Elastic Compliance Matrix: (Units=1/GPa)
#
#
# Indices 1 2 3 4 5 6 
#
# 1 0.077761 0.041155 -0.010115 0.000000 0.000000 -0.005048
# 2 0.041155 0.077761 -0.010115 0.000000 0.000000 0.005048
# 3 -0.010115 -0.010115 0.009416 0.000000 0.000000 0.000000
# 4 0.000000 0.000000 0.000000 -0.152605 0.000000 0.000000
# 5 0.000000 0.000000 0.000000 0.000000 -0.152605 0.000000
# 6 -0.005048 0.005048 0.000000 0.000000 0.000000 0.025660
#
#
# Mechanical properties :
#
#
# Convention : Reuss Voigt Hill
#
# Bulk Modulus (GPa) = 4.83583 21.63773 13.23678
# Shear Modulus (GPa) = -57.12092 16.04131 -20.53980
#
# Velocity S-wave (km/s) = -5.18659 2.74855 -3.11016
# Velocity P-wave (km/s) = 5.79570 4.50143 2.58141
#
# Compressibility (1/GPa) = 0.20678953
#
# Stress axis : x y z
#
# Youngs Moduli (GPa) = 12.85992 12.85992 106.20084
#
# Poissons Ratio (x) = -0.52926 1.07421
# Poissons Ratio (y) = -0.52926 1.07421
# Poissons Ratio (z) = 0.13008 0.13008
#
# Static dielectric constant tensor:
#      x y z
#    x 3.579930 0.000000 0.000000 
#    y 0.000000 3.579930 0.000000 
#    z 0.000000 0.000000 4.141290 
# 
# 
# High freq. dielectric constant tensor:
#      x y z
#    x 1.818080 0.000000 0.000000 
#    y 0.000000 1.818080 0.000000 
#    z 0.000000 0.000000 1.852420 
# 
# From -- ./inp_files/3266.got.cif
#   From: 2010.03.12/outbox.cif.g09.slc.cpg/sg83_2_cif.got.tgz:3266.got - 2010.04.08 20:05:18.
