data_PCOD8302214
_publ_section_title
;
Structure prediction by ZEFSAII (Michael W. Deem and Ramdas Pophale) SiO2 
 PCOD8302214
Probable space group: I 41
;
_chemical_formula_sum "Si O2"
_cell_formula_units_Z 48
_cell_length_a 19.204208
_cell_length_b 19.204208
_cell_length_c 7.002406
_cell_angle_alpha 90.000000
_cell_angle_beta 90.000000
_cell_angle_gamma 90.000000
_cell_volume 2582.498571
_symmetry_space_group_name_H-M "I 41"
_symmetry_group_IT_number 80
_symmetry_cell_setting 'tetragonal'
loop_
_space_group_symop_operation_xyz
x,y,z
-y,1/2+x,1/4+z
-x,-y,z
y,1/2-x,1/4+z
1/2+x,1/2+y,1/2+z
1/2-y,x,3/4+z
1/2-x,1/2-y,1/2+z
1/2+y,-x,3/4+z
loop_
_atom_site_type_symbol
_atom_site_label
_atom_site_fract_x
_atom_site_fract_y
_atom_site_fract_z
Si Si1 0.693653 0.078145 0.054080
Si Si2 0.416222 0.810721 0.105824
Si Si3 0.689279 0.916222 0.068833
Si Si4 0.240400 0.347832 0.202572
Si Si5 0.193653 0.078145 0.370577
Si Si6 0.740400 0.347832 0.222084
O O1 0.622227 0.120554 0.033081
O O2 0.743122 0.104739 0.228553
O O3 0.730423 0.090252 0.852458
O O4 0.675319 0.997876 0.082476
O O5 0.497876 0.824681 0.092181
O O6 0.390127 0.804785 0.321477
O O7 0.695215 0.890127 0.853180
O O8 0.756878 0.895261 0.196104
O O9 0.620554 0.877772 0.141576
O O10 0.297966 0.303708 0.315192
O O11 0.269577 0.409748 0.072199
O O12 0.696292 0.297966 0.359465
#
# Coordination Sequence:
#
# PCOD8302214 Si02
#       6
#     8   8   8   8   8   8
#     4  11  23  40  62  89 121 159 199 245 300 357
#     4  11  23  40  62  89 121 159 199 245 300 357
#     4  11  23  40  62  89 121 159 199 245 300 357
#     4  12  21  36  62  94 123 152 198 254 301 350
#     4  11  23  40  62  89 121 159 199 245 300 357
#     4  12  21  36  62  94 123 152 198 254 301 350
#
# _framework density 18.586652000000001
#
# number of rings (size 3 to 8) (size 9 to 14) (size 15 to 20)
#    0.000    0.667    6.667    3.000    0.000    0.667 
#    0.000    0.000    0.000    0.000    0.000    0.000 
#    0.000    0.000    0.000    0.000    0.000    0.000 
#
# Total GULP energy -297538.947606 kJ/mol
# GULP energy per Si atom -12397.456150 kJ/mol
# Density = 1.854435 g / cm^3
# Si number density = 18.586652 Si / 1000 Ang^3
#
#
#
# Elastic Constant Matrix: (Units=GPa)
#
#
# Indices 1 2 3 4 5 6 
#
# 1 84.6671 43.7555 12.2625 0.0000 0.0000 -4.7270
# 2 43.7555 84.6671 12.2625 0.0000 0.0000 4.7270
# 3 12.2625 12.2625 72.6851 0.0000 0.0000 0.0000
# 4 0.0000 0.0000 0.0000 27.4413 0.0000 0.0000
# 5 0.0000 0.0000 0.0000 0.0000 27.4413 0.0000
# 6 -4.7270 4.7270 0.0000 0.0000 0.0000 25.4138
#
#
#
# Elastic Compliance Matrix: (Units=1/GPa)
#
#
# Indices 1 2 3 4 5 6 
#
# 1 0.016793 -0.008747 -0.001357 0.000000 0.000000 0.004751
# 2 -0.008747 0.016793 -0.001357 0.000000 0.000000 -0.004751
# 3 -0.001357 -0.001357 0.014216 0.000000 0.000000 0.000000
# 4 0.000000 0.000000 0.000000 0.036441 0.000000 0.000000
# 5 0.000000 0.000000 0.000000 0.000000 0.036441 0.000000
# 6 0.004751 -0.004751 0.000000 0.000000 0.000000 0.041116
#
#
# Mechanical properties :
#
#
# Convention : Reuss Voigt Hill
#
# Bulk Modulus (GPa) = 40.19559 42.06447 41.13003
# Shear Modulus (GPa) = 25.90426 27.64189 26.77307
#
# Velocity S-wave (km/s) = 3.73728 3.86059 3.79944
# Velocity P-wave (km/s) = 6.34792 6.52326 6.43619
#
# Compressibility (1/GPa) = 0.02487835
#
# Stress axis : x y z
#
# Youngs Moduli (GPa) = 59.54735 59.54735 70.34328
#
# Poissons Ratio (x) = 0.52088 0.09549
# Poissons Ratio (y) = 0.52088 0.09549
# Poissons Ratio (z) = 0.08083 0.08083
#
# Static dielectric constant tensor:
#      x y z
#    x 3.324970 0.000000 0.000000 
#    y 0.000000 3.324970 0.000000 
#    z 0.000000 0.000000 3.821480 
# 
# 
# High freq. dielectric constant tensor:
#      x y z
#    x 1.714300 0.000000 0.000000 
#    y 0.000000 1.714300 0.000000 
#    z 0.000000 0.000000 1.743500 
# 
# From -- ./inp_files/286.got.cif
#   From: 2010.03.12/outbox.cif.g09.slc.cpg/sg80_cif.got.tgz:286.got - 2010.04.08 20:00:04.
