data_PCOD8302311
_publ_section_title
;
Structure prediction by ZEFSAII (Michael W. Deem and Ramdas Pophale) SiO2 
 PCOD8302311
Probable space group: P -4
;
_chemical_formula_sum "Si O2"
_cell_formula_units_Z 13
_cell_length_a 7.781608
_cell_length_b 7.781608
_cell_length_c 9.399658
_cell_angle_alpha 90.000000
_cell_angle_beta 90.000000
_cell_angle_gamma 90.000000
_cell_volume 569.181468
_symmetry_space_group_name_H-M "P -4"
_symmetry_group_IT_number 81
_symmetry_cell_setting 'tetragonal'
loop_
_space_group_symop_operation_xyz
x,y,z
y,-x,-z
-x,-y,z
-y,x,-z
loop_
_atom_site_type_symbol
_atom_site_label
_atom_site_fract_x
_atom_site_fract_y
_atom_site_fract_z
Si Si1 0.000000 0.000000 0.500000
Si Si2 0.882826 0.261509 0.723189
Si Si3 0.393697 0.769933 0.196921
Si Si4 0.187646 0.452444 0.123771
O O1 0.884525 0.135547 0.588133
O O2 0.814802 0.456252 0.687302
O O3 0.747940 0.199819 0.840855
O O4 0.076320 0.254789 0.788785
O O5 0.314062 0.579487 0.214392
O O6 0.485049 0.779490 0.042634
O O7 0.000000 0.500000 0.171849
#
# Coordination Sequence:
#
# PCOD8302311 Si02
#       4
#     1   4   4   4
#     4  12  28  52  66  96 160 216 268 278 344 472
#     4  11  25  45  69 102 148 202 250 302 360 451
#     4  11  22  43  73 112 145 179 246 319 390 443
#     4  12  21  40  76 113 144 181 237 326 398 438
#
# _framework density 22.839815000000002
#
# number of rings (size 3 to 8) (size 9 to 14) (size 15 to 20)
#    0.000    0.615    6.154    2.769    0.000    0.000 
#   16.615    0.000    0.000    0.000    0.000    0.000 
#    0.000    0.000    0.000    0.000    0.000    0.000 
#
# Total GULP energy -161060.382986 kJ/mol
# GULP energy per Si atom -12389.260230 kJ/mol
# Density = 2.278783 g / cm^3
# Si number density = 22.839815 Si / 1000 Ang^3
#
#
#
# Elastic Constant Matrix: (Units=GPa)
#
#
# Indices 1 2 3 4 5 6 
#
# 1 113.1136 41.8943 35.9692 0.0000 0.0000 1.7962
# 2 41.8943 113.1136 35.9692 0.0000 0.0000 -1.7962
# 3 35.9692 35.9692 64.5962 0.0000 0.0000 0.0000
# 4 0.0000 0.0000 0.0000 25.1737 0.0000 0.0000
# 5 0.0000 0.0000 0.0000 0.0000 25.1737 0.0000
# 6 1.7962 -1.7962 0.0000 0.0000 0.0000 49.6660
#
#
#
# Elastic Compliance Matrix: (Units=1/GPa)
#
#
# Indices 1 2 3 4 5 6 
#
# 1 0.011383 -0.002684 -0.004844 0.000000 0.000000 -0.000509
# 2 -0.002684 0.011383 -0.004844 0.000000 0.000000 0.000509
# 3 -0.004844 -0.004844 0.020876 0.000000 0.000000 0.000000
# 4 0.000000 0.000000 0.000000 0.039724 0.000000 0.000000
# 5 0.000000 0.000000 0.000000 0.000000 0.039724 0.000000
# 6 -0.000509 0.000509 0.000000 0.000000 0.000000 0.020171
#
#
# Mechanical properties :
#
#
# Convention : Reuss Voigt Hill
#
# Bulk Modulus (GPa) = 52.91599 57.60988 55.26294
# Shear Modulus (GPa) = 28.68550 31.80207 30.24379
#
# Velocity S-wave (km/s) = 3.54777 3.73553 3.64286
# Velocity P-wave (km/s) = 6.32462 6.62448 6.47629
#
# Compressibility (1/GPa) = 0.01889788
#
# Stress axis : x y z
#
# Youngs Moduli (GPa) = 87.84942 87.84942 47.90304
#
# Poissons Ratio (x) = 0.23576 0.23205
# Poissons Ratio (y) = 0.23576 0.23205
# Poissons Ratio (z) = 0.42555 0.42555
#
# Static dielectric constant tensor:
#      x y z
#    x 4.453780 0.000000 0.000000 
#    y 0.000000 4.453780 0.000000 
#    z 0.000000 0.000000 3.542640 
# 
# 
# High freq. dielectric constant tensor:
#      x y z
#    x 1.923670 0.000000 0.000000 
#    y 0.000000 1.923670 0.000000 
#    z 0.000000 0.000000 1.834360 
# 
# From -- ./inp_files/474.got.cif
#   From: 2010.03.12/outbox.cif.g09.slc.cpg/sg81_cif.got.tgz:474.got - 2010.04.08 20:01:38.
