data_PCOD8302096
_publ_section_title
;
Structure prediction by ZEFSAII (Michael W. Deem and Ramdas Pophale) SiO2 
 PCOD8302096
Probable space group: I 4
;
_chemical_formula_sum "Si O2"
_cell_formula_units_Z 64
_cell_length_a 10.989813
_cell_length_b 10.989813
_cell_length_c 28.204684
_cell_angle_alpha 90.000000
_cell_angle_beta 90.000000
_cell_angle_gamma 90.000000
_cell_volume 3406.448626
_symmetry_space_group_name_H-M "I 4"
_symmetry_group_IT_number 79
_symmetry_cell_setting 'tetragonal'
loop_
_space_group_symop_operation_xyz
x,y,z
-y,x,z
-x,-y,z
y,-x,z
1/2+x,1/2+y,1/2+z
1/2-y,1/2+x,1/2+z
1/2-x,1/2-y,1/2+z
1/2+y,1/2-x,1/2+z
loop_
_atom_site_type_symbol
_atom_site_label
_atom_site_fract_x
_atom_site_fract_y
_atom_site_fract_z
Si Si1 0.187889 0.928407 0.576540
Si Si2 0.815739 0.074969 0.469038
Si Si3 0.100941 0.305263 0.375253
Si Si4 0.570410 0.879099 0.153949
Si Si5 0.199052 0.033988 0.722426
Si Si6 0.810254 0.947078 0.213713
Si Si7 0.143266 0.498167 0.307521
Si Si8 0.248318 0.120285 0.318371
O O1 0.231498 0.908498 0.522361
O O2 0.301398 0.885764 0.608339
O O3 0.069224 0.846165 0.586378
O O4 0.713131 0.118347 0.431484
O O5 0.934533 0.154991 0.459512
O O6 0.164385 0.430167 0.358100
O O7 0.141410 0.192003 0.342968
O O8 0.961870 0.310108 0.359569
O O9 0.468902 0.797903 0.180610
O O10 0.686535 0.910676 0.186792
O O11 0.500000 0.000000 0.137035
O O12 0.275341 0.070995 0.768916
O O13 0.099055 0.137947 0.718251
O O14 0.793980 0.947273 0.270684
O O15 0.916260 0.851158 0.199588
O O16 0.202181 0.632977 0.306907
O O17 0.000000 0.500000 0.291816
#
# Coordination Sequence:
#
# PCOD8302096 Si02
#       8
#     8   8   8   8   8   8   8   8
#     4   9  20  41  66  88 113 144 190 250 304 350
#     4   9  17  33  60  90 111 137 182 241 301 352
#     4  11  20  31  56  81 114 143 185 228 283 340
#     4  12  26  37  61  85 116 155 192 239 295 346
#     4  11  23  37  56  79 109 157 205 244 283 332
#     4  11  25  40  57  84 119 159 194 234 282 346
#     4  10  22  33  46  75 114 157 188 222 277 332
#     4  11  20  33  53  78 111 153 184 226 272 339
#
# _framework density 18.787896
#
# number of rings (size 3 to 8) (size 9 to 14) (size 15 to 20)
#    0.000    1.500    3.750    2.625    5.250    1.250 
#    0.000    1.875    0.000    0.000    0.000    0.000 
#    0.000    2.000    0.000    0.000    0.000    0.000 
#
# Total GULP energy -396480.817322 kJ/mol
# GULP energy per Si atom -12390.025541 kJ/mol
# Density = 1.874513 g / cm^3
# Si number density = 18.787896 Si / 1000 Ang^3
#
#
#
# Elastic Constant Matrix: (Units=GPa)
#
#
# Indices 1 2 3 4 5 6 
#
# 1 63.3307 13.0814 30.9677 0.0000 0.0000 0.5876
# 2 13.0814 63.3307 30.9677 0.0000 0.0000 -0.5876
# 3 30.9677 30.9677 106.9191 0.0000 0.0000 0.0000
# 4 0.0000 0.0000 0.0000 28.3165 0.0000 0.0000
# 5 0.0000 0.0000 0.0000 0.0000 28.3165 0.0000
# 6 0.5876 -0.5876 0.0000 0.0000 0.0000 20.6893
#
#
#
# Elastic Compliance Matrix: (Units=1/GPa)
#
#
# Indices 1 2 3 4 5 6 
#
# 1 0.018508 -0.001406 -0.004953 0.000000 0.000000 -0.000566
# 2 -0.001406 0.018508 -0.004953 0.000000 0.000000 0.000566
# 3 -0.004953 -0.004953 0.012222 0.000000 0.000000 0.000000
# 4 0.000000 0.000000 0.000000 0.035315 0.000000 0.000000
# 5 0.000000 0.000000 0.000000 0.000000 0.035315 0.000000
# 6 -0.000566 0.000566 0.000000 0.000000 0.000000 0.048366
#
#
# Mechanical properties :
#
#
# Convention : Reuss Voigt Hill
#
# Bulk Modulus (GPa) = 37.57625 42.62378 40.10002
# Shear Modulus (GPa) = 25.03371 26.03539 25.53455
#
# Velocity S-wave (km/s) = 3.65422 3.72661 3.69059
# Velocity P-wave (km/s) = 6.15208 6.42284 6.28892
#
# Compressibility (1/GPa) = 0.02661255
#
# Stress axis : x y z
#
# Youngs Moduli (GPa) = 54.03103 54.03103 81.81853
#
# Poissons Ratio (x) = 0.07597 0.40527
# Poissons Ratio (y) = 0.07597 0.40527
# Poissons Ratio (z) = 0.26763 0.26763
#
# Static dielectric constant tensor:
#      x y z
#    x 3.456610 0.000000 0.000000 
#    y 0.000000 3.456610 0.000000 
#    z 0.000000 0.000000 3.359570 
# 
# 
# High freq. dielectric constant tensor:
#      x y z
#    x 1.722210 0.000000 0.000000 
#    y 0.000000 1.722210 0.000000 
#    z 0.000000 0.000000 1.714050 
# 
# From -- ./inp_files/2081.got.cif
#   From: 2010.03.12/outbox.cif.g09.slc.cpg/sg79_cif.got.tgz:2081.got - 2010.04.16 16:38:49.
