data_PCOD8302476
_publ_section_title
;
Structure prediction by ZEFSAII (Michael W. Deem and Ramdas Pophale) SiO2 
 PCOD8302476
Probable space group: I -4 
;
_chemical_formula_sum "Si O2"
_cell_formula_units_Z 48
_cell_length_a 19.929044
_cell_length_b 19.929044
_cell_length_c 6.297775
_cell_angle_alpha 90.000000
_cell_angle_beta 90.000000
_cell_angle_gamma 90.000000
_cell_volume 2501.267111
_symmetry_space_group_name_H-M "I -4 "
_symmetry_group_IT_number 82
_symmetry_cell_setting 'tetragonal'
loop_
_space_group_symop_operation_xyz
x,y,z
y,-x,-z
-x,-y,z
-y,x,-z
1/2+x,1/2+y,1/2+z
1/2+y,1/2-x,1/2-z
1/2-x,1/2-y,1/2+z
1/2-y,1/2+x,1/2-z
loop_
_atom_site_type_symbol
_atom_site_label
_atom_site_fract_x
_atom_site_fract_y
_atom_site_fract_z
Si Si1 0.758803 0.962268 0.495121
Si Si2 0.402815 0.633399 0.714550
Si Si3 0.915403 0.747979 0.239133
Si Si4 0.315796 0.175267 0.469205
Si Si5 0.012582 0.169172 0.894003
Si Si6 0.770584 0.180966 0.382948
O O1 0.832453 0.941537 0.586914
O O2 0.707257 0.901271 0.473387
O O3 0.722938 0.015915 0.649560
O O4 0.770696 0.995168 0.266395
O O5 0.443133 0.645317 0.496740
O O6 0.391043 0.552418 0.730080
O O7 0.329309 0.667748 0.710144
O O8 0.867468 0.781278 0.415790
O O9 0.879273 0.684849 0.125866
O O10 0.934382 0.804787 0.068618
O O11 0.257699 0.226205 0.543947
O O12 0.333687 0.198771 0.229240
#
# Coordination Sequence:
#
# PCOD8302476 Si02
#       6
#     8   8   8   8   8   8
#     4  10  24  38  60  90 123 165 207 251 322 376
#     4  10  23  36  57  82 115 169 207 255 297 364
#     4  11  21  40  59  90 129 155 195 261 320 360
#     4  11  22  34  64  93 119 155 207 256 314 379
#     4  11  23  39  59  81 123 171 208 257 306 365
#     4  11  21  35  59  92 117 156 198 262 313 358
#
# _framework density 19.190273000000001
#
# number of rings (size 3 to 8) (size 9 to 14) (size 15 to 20)
#    0.000    1.333    5.000    0.000    7.000    1.667 
#    0.000    0.000    0.000    0.500    0.000    0.000 
#    0.000    0.000    0.000    0.000    0.000    0.000 
#
# Total GULP energy -297471.703714 kJ/mol
# GULP energy per Si atom -12394.654321 kJ/mol
# Density = 1.914660 g / cm^3
# Si number density = 19.190273 Si / 1000 Ang^3
#
#
#
# Elastic Constant Matrix: (Units=GPa)
#
#
# Indices 1 2 3 4 5 6 
#
# 1 104.3495 40.3350 51.3394 0.0000 0.0000 -1.5422
# 2 40.3350 104.3495 51.3394 0.0000 0.0000 1.5422
# 3 51.3394 51.3394 95.7763 0.0000 0.0000 0.0000
# 4 0.0000 0.0000 0.0000 33.8104 0.0000 0.0000
# 5 0.0000 0.0000 0.0000 0.0000 33.8104 0.0000
# 6 -1.5422 1.5422 0.0000 0.0000 0.0000 32.5233
#
#
#
# Elastic Compliance Matrix: (Units=1/GPa)
#
#
# Indices 1 2 3 4 5 6 
#
# 1 0.013406 -0.002251 -0.005980 0.000000 0.000000 0.000742
# 2 -0.002251 0.013406 -0.005980 0.000000 0.000000 -0.000742
# 3 -0.005980 -0.005980 0.016851 0.000000 0.000000 0.000000
# 4 0.000000 0.000000 0.000000 0.029577 0.000000 0.000000
# 5 0.000000 0.000000 0.000000 0.000000 0.029577 0.000000
# 6 0.000742 -0.000742 0.000000 0.000000 0.000000 0.030818
#
#
# Mechanical properties :
#
#
# Convention : Reuss Voigt Hill
#
# Bulk Modulus (GPa) = 65.60136 65.61140 65.60638
# Shear Modulus (GPa) = 29.91574 30.79293 30.35433
#
# Velocity S-wave (km/s) = 3.95258 4.01011 3.98144
# Velocity P-wave (km/s) = 7.42222 7.46361 7.44294
#
# Compressibility (1/GPa) = 0.01524359
#
# Stress axis : x y z
#
# Youngs Moduli (GPa) = 74.59254 74.59254 59.34209
#
# Poissons Ratio (x) = 0.16791 0.35484
# Poissons Ratio (y) = 0.16791 0.35484
# Poissons Ratio (z) = 0.44603 0.44603
#
# Static dielectric constant tensor:
#      x y z
#    x 3.422160 0.000000 0.000000 
#    y 0.000000 3.422160 0.000000 
#    z 0.000000 0.000000 3.733450 
# 
# 
# High freq. dielectric constant tensor:
#      x y z
#    x 1.726160 0.000000 0.000000 
#    y 0.000000 1.726160 0.000000 
#    z 0.000000 0.000000 1.761320 
# 
# From -- ./inp_files/340.got.cif
#   From: 2010.03.12/outbox.cif.g09.slc.cpg/sg82_1_cif.got.tgz:340.got - 2010.04.08 20:02:50.
