data_PCOD8302701
_publ_section_title
;
Structure prediction by ZEFSAII (Michael W. Deem and Ramdas Pophale) SiO2 
 PCOD8302701
Probable space group: P 4/M
;
_chemical_formula_sum "Si O2"
_cell_formula_units_Z 48
_cell_length_a 11.568856
_cell_length_b 11.568856
_cell_length_c 19.891861
_cell_angle_alpha 90.000000
_cell_angle_beta 90.000000
_cell_angle_gamma 90.000000
_cell_volume 2662.295429
_symmetry_space_group_name_H-M "P 4/M"
_symmetry_group_IT_number 83
_symmetry_cell_setting 'tetragonal'
loop_
_space_group_symop_operation_xyz
x,y,z
-y,x,z
-x,-y,z
y,-x,z
-x,-y,-z
y,-x,-z
x,y,-z
-y,x,-z
loop_
_atom_site_type_symbol
_atom_site_label
_atom_site_fract_x
_atom_site_fract_y
_atom_site_fract_z
Si Si1 0.951496 0.180908 0.733104
Si Si2 0.137969 0.503916 0.822397
Si Si3 0.316096 0.863275 0.073838
Si Si4 0.430822 0.113329 0.679210
Si Si5 0.895858 0.265307 0.877122
Si Si6 0.317348 0.541260 0.421879
O O1 0.920707 0.298463 0.694753
O O2 0.950157 0.201155 0.812912
O O3 0.081113 0.140458 0.713526
O O4 0.187517 0.396904 0.865957
O O5 0.172972 0.504283 0.743618
O O6 0.180396 0.623432 0.855266
O O7 0.000000 0.500000 0.823597
O O8 0.186694 0.817517 0.081287
O O9 0.309000 0.001598 0.075221
O O10 0.364687 0.828105 0.000000
O O11 0.430659 0.202750 0.618881
O O12 0.500000 0.000000 0.655849
O O13 0.364109 0.414209 0.403644
O O14 0.285718 0.548476 0.500000
#
# Coordination Sequence:
#
# PCOD8302701 Si02
#       6
#     8   8   8   8   8   8
#     4  10  20  35  55  77 114 154 180 228 293 341
#     4   8  19  35  49  71 101 136 171 218 266 319
#     4  11  21  32  49  71 101 135 177 227 280 330
#     4  10  21  33  59  89 112 140 194 236 268 336
#     4  10  19  33  50  71  97 133 181 220 272 328
#     4   9  20  39  61  86 118 154 186 228 285 331
#
# _framework density 18.029554999999998
#
# number of rings (size 3 to 8) (size 9 to 14) (size 15 to 20)
#    0.000    2.333    1.667    2.000    2.333    5.667 
#    0.000    0.833    0.000    0.500    0.000    2.333 
#    0.000    0.000    0.000    0.000    0.000    0.000 
#
# Total GULP energy -594993.933286 kJ/mol
# GULP energy per Si atom -12395.706943 kJ/mol
# Density = 1.798852 g / cm^3
# Si number density = 18.029555 Si / 1000 Ang^3
#
#
#
# Elastic Constant Matrix: (Units=GPa)
#
#
# Indices 1 2 3 4 5 6 
#
# 1 85.9847 42.5054 46.9879 0.0000 0.0000 -3.9686
# 2 42.5054 85.9847 46.9879 0.0000 0.0000 3.9686
# 3 46.9879 46.9879 87.1162 0.0000 0.0000 0.0000
# 4 0.0000 0.0000 0.0000 19.4377 0.0000 0.0000
# 5 0.0000 0.0000 0.0000 0.0000 19.4377 0.0000
# 6 -3.9686 3.9686 0.0000 0.0000 0.0000 13.2571
#
#
#
# Elastic Compliance Matrix: (Units=1/GPa)
#
#
# Indices 1 2 3 4 5 6 
#
# 1 0.018591 -0.005738 -0.006933 0.000000 0.000000 0.007283
# 2 -0.005738 0.018591 -0.006933 0.000000 0.000000 -0.007283
# 3 -0.006933 -0.006933 0.018957 0.000000 0.000000 0.000000
# 4 0.000000 0.000000 0.000000 0.051447 0.000000 0.000000
# 5 0.000000 0.000000 0.000000 0.000000 0.051447 0.000000
# 6 0.007283 -0.007283 0.000000 0.000000 0.000000 0.079791
#
#
# Mechanical properties :
#
#
# Convention : Reuss Voigt Hill
#
# Bulk Modulus (GPa) = 59.05542 59.11645 59.08593
# Shear Modulus (GPa) = 17.62583 18.60011 18.11297
#
# Velocity S-wave (km/s) = 3.13006 3.21541 3.17302
# Velocity P-wave (km/s) = 6.77414 6.82971 6.80198
#
# Compressibility (1/GPa) = 0.01693325
#
# Stress axis : x y z
#
# Youngs Moduli (GPa) = 53.78938 53.78938 52.74994
#
# Poissons Ratio (x) = 0.30864 0.36569
# Poissons Ratio (y) = 0.30864 0.36569
# Poissons Ratio (z) = 0.37290 0.37290
#
# Static dielectric constant tensor:
#      x y z
#    x 3.283690 0.000000 0.000000 
#    y 0.000000 3.283690 0.000000 
#    z 0.000000 0.000000 3.241930 
# 
# 
# High freq. dielectric constant tensor:
#      x y z
#    x 1.688300 0.000000 0.000000 
#    y 0.000000 1.688300 0.000000 
#    z 0.000000 0.000000 1.684290 
# 
# From -- ./inp_files/2629.got.cif
#   From: 2010.03.12/outbox.cif.g09.slc.cpg/sg83_2_cif.got.tgz:2629.got - 2010.04.08 20:05:18.
