data_PCOD8302864
_publ_section_title
;
Structure prediction by ZEFSAII (Michael W. Deem and Ramdas Pophale) SiO2 
 PCOD8302864
Probable space group: P 4/M
;
_chemical_formula_sum "Si O2"
_cell_formula_units_Z 40
_cell_length_a 14.795793
_cell_length_b 14.795793
_cell_length_c 10.012961
_cell_angle_alpha 90.000000
_cell_angle_beta 90.000000
_cell_angle_gamma 90.000000
_cell_volume 2191.992269
_symmetry_space_group_name_H-M "P 4/M"
_symmetry_group_IT_number 83
_symmetry_cell_setting 'tetragonal'
loop_
_space_group_symop_operation_xyz
x,y,z
-y,x,z
-x,-y,z
y,-x,z
-x,-y,-z
y,-x,-z
x,y,-z
-y,x,-z
loop_
_atom_site_type_symbol
_atom_site_label
_atom_site_fract_x
_atom_site_fract_y
_atom_site_fract_z
Si Si1 0.559751 0.911954 0.350263
Si Si2 0.081526 0.875194 0.500000
Si Si3 0.880920 0.247267 0.745147
Si Si4 0.508634 0.235266 0.846276
Si Si5 0.696122 0.317078 0.847712
Si Si6 0.857494 0.948906 0.000000
O O1 0.567573 0.870021 0.500000
O O2 0.660605 0.932912 0.295494
O O3 0.506391 0.848548 0.249474
O O4 0.500000 0.000000 0.356752
O O5 0.117402 0.826178 0.630193
O O6 0.973955 0.876190 0.500000
O O7 0.775656 0.270117 0.765204
O O8 0.929773 0.204822 0.872802
O O9 0.599122 0.284277 0.796541
O O10 0.425224 0.304122 0.831027
O O11 0.516362 0.201864 0.000000
O O12 0.712233 0.288620 0.000000
O O13 0.945983 0.885642 0.000000
#
# Coordination Sequence:
#
# PCOD8302864 Si02
#       6
#     8   4   8   8   8   4
#     4  10  22  40  57  83 117 152 196 245 289 340
#     4  11  24  40  59  84 114 151 203 244 286 344
#     4  11  21  41  60  85 119 157 191 242 292 347
#     4   9  19  35  59  85 117 151 190 239 289 348
#     4   9  18  36  58  87 116 149 190 235 288 347
#     4  11  24  40  61  88 120 153 193 246 296 342
#
# _framework density 18.248238000000001
#
# number of rings (size 3 to 8) (size 9 to 14) (size 15 to 20)
#    0.000    2.000    2.000    1.200    1.400    5.600 
#    1.800    2.000    0.000    0.000    0.000    2.800 
#    0.000    0.000    0.000    0.000    0.000    0.000 
#
# Total GULP energy -495992.270057 kJ/mol
# GULP energy per Si atom -12399.806751 kJ/mol
# Density = 1.820670 g / cm^3
# Si number density = 18.248238 Si / 1000 Ang^3
#
#
#
# Elastic Constant Matrix: (Units=GPa)
#
#
# Indices 1 2 3 4 5 6 
#
# 1 106.0598 65.1971 55.3628 0.0000 0.0000 9.1061
# 2 65.1971 106.0598 55.3628 0.0000 0.0000 -9.1061
# 3 55.3628 55.3628 123.0012 0.0000 0.0000 0.0000
# 4 0.0000 0.0000 0.0000 23.5565 0.0000 0.0000
# 5 0.0000 0.0000 0.0000 0.0000 23.5565 0.0000
# 6 9.1061 -9.1061 0.0000 0.0000 0.0000 28.3914
#
#
#
# Elastic Compliance Matrix: (Units=1/GPa)
#
#
# Indices 1 2 3 4 5 6 
#
# 1 0.018395 -0.010159 -0.003707 0.000000 0.000000 -0.009158
# 2 -0.010159 0.018395 -0.003707 0.000000 0.000000 0.009158
# 3 -0.003707 -0.003707 0.011467 0.000000 0.000000 0.000000
# 4 0.000000 0.000000 0.000000 0.042451 0.000000 0.000000
# 5 0.000000 0.000000 0.000000 0.000000 0.042451 0.000000
# 6 -0.009158 0.009158 0.000000 0.000000 0.000000 0.041097
#
#
# Mechanical properties :
#
#
# Convention : Reuss Voigt Hill
#
# Bulk Modulus (GPa) = 76.27227 76.32959 76.30093
# Shear Modulus (GPa) = 23.38938 25.71409 24.55174
#
# Velocity S-wave (km/s) = 3.58402 3.75791 3.67199
# Velocity P-wave (km/s) = 7.68210 7.79413 7.73832
#
# Compressibility (1/GPa) = 0.01311093
#
# Stress axis : x y z
#
# Youngs Moduli (GPa) = 54.36276 54.36276 87.20652
#
# Poissons Ratio (x) = 0.55227 0.32327
# Poissons Ratio (y) = 0.55227 0.32327
# Poissons Ratio (z) = 0.20152 0.20152
#
# Static dielectric constant tensor:
#      x y z
#    x 3.443410 0.000000 0.000000 
#    y 0.000000 3.443410 0.000000 
#    z 0.000000 0.000000 3.462840 
# 
# 
# High freq. dielectric constant tensor:
#      x y z
#    x 1.709740 0.000000 0.000000 
#    y 0.000000 1.709740 0.000000 
#    z 0.000000 0.000000 1.715480 
# 
# From -- ./inp_files/754.got.cif
#   From: 2010.03.12/outbox.cif.g09.slc.cpg/sg83_1_cif.got.tgz:754.got - 2010.04.08 20:05:18.
