data_PCOD8302074
_publ_section_title
;
Structure prediction by ZEFSAII (Michael W. Deem and Ramdas Pophale) SiO2 
 PCOD8302074
Probable space group: I 4
;
_chemical_formula_sum "Si O2"
_cell_formula_units_Z 44
_cell_length_a 14.073019
_cell_length_b 14.073019
_cell_length_c 11.002244
_cell_angle_alpha 90.000000
_cell_angle_beta 90.000000
_cell_angle_gamma 90.000000
_cell_volume 2178.992925
_symmetry_space_group_name_H-M "I 4"
_symmetry_group_IT_number 79
_symmetry_cell_setting 'tetragonal'
loop_
_space_group_symop_operation_xyz
x,y,z
-y,x,z
-x,-y,z
y,-x,z
1/2+x,1/2+y,1/2+z
1/2-y,1/2+x,1/2+z
1/2-x,1/2-y,1/2+z
1/2+y,1/2-x,1/2+z
loop_
_atom_site_type_symbol
_atom_site_label
_atom_site_fract_x
_atom_site_fract_y
_atom_site_fract_z
Si Si1 0.457010 0.823748 0.890480
Si Si2 0.105694 0.255488 0.925715
Si Si3 0.726394 0.589489 0.306800
Si Si4 0.962511 0.147231 0.557436
Si Si5 0.500000 0.000000 0.033644
Si Si6 0.669440 0.086734 0.179793
O O1 0.352519 0.862889 0.857429
O O2 0.513896 0.781600 0.775161
O O3 0.437624 0.742784 0.988412
O O4 0.520734 0.908341 0.948793
O O5 0.168472 0.170489 0.875827
O O6 0.993713 0.244904 0.902806
O O7 0.119701 0.259659 0.072490
O O8 0.663267 0.543536 0.201043
O O9 0.822571 0.631845 0.251957
O O10 0.067811 0.114186 0.520789
O O11 0.412610 0.976217 0.119624
#
# Coordination Sequence:
#
# PCOD8302074 Si02
#       6
#     8   8   8   8   4   8
#     4  11  24  42  67  99 135 170 218 274 336 395
#     4  11  26  41  66  99 127 179 218 270 338 388
#     4  12  23  43  68  94 131 170 225 268 325 408
#     4  11  24  45  71  92 123 178 232 271 316 396
#     4  10  18  38  66 102 130 168 210 264 334 392
#     4  11  23  40  65 101 131 169 216 272 338 389
#
# _framework density 20.192815
#
# number of rings (size 3 to 8) (size 9 to 14) (size 15 to 20)
#    0.000    0.909    5.455    3.818    2.545    1.818 
#    0.000    0.000    0.000    0.000    0.000    0.000 
#    0.000    0.000    0.000    0.000    0.000    0.000 
#
# Total GULP energy -272796.610549 kJ/mol
# GULP energy per Si atom -12399.845934 kJ/mol
# Density = 2.014685 g / cm^3
# Si number density = 20.192815 Si / 1000 Ang^3
#
#
#
# Elastic Constant Matrix: (Units=GPa)
#
#
# Indices 1 2 3 4 5 6 
#
# 1 117.9560 68.2504 52.3062 0.0000 0.0000 3.5466
# 2 68.2504 117.9560 52.3062 0.0000 0.0000 -3.5466
# 3 52.3062 52.3062 109.3022 0.0000 0.0000 0.0000
# 4 0.0000 0.0000 0.0000 28.1661 0.0000 0.0000
# 5 0.0000 0.0000 0.0000 0.0000 28.1661 0.0000
# 6 3.5466 -3.5466 0.0000 0.0000 0.0000 28.3868
#
#
#
# Elastic Compliance Matrix: (Units=1/GPa)
#
#
# Indices 1 2 3 4 5 6 
#
# 1 0.013914 -0.006569 -0.003515 0.000000 0.000000 -0.002559
# 2 -0.006569 0.013914 -0.003515 0.000000 0.000000 0.002559
# 3 -0.003515 -0.003515 0.012513 0.000000 0.000000 0.000000
# 4 0.000000 0.000000 0.000000 0.035504 0.000000 0.000000
# 5 0.000000 0.000000 0.000000 0.000000 0.035504 0.000000
# 6 -0.002559 0.002559 0.000000 0.000000 0.000000 0.035867
#
#
# Mechanical properties :
#
#
# Convention : Reuss Voigt Hill
#
# Bulk Modulus (GPa) = 76.08363 76.77110 76.42736
# Shear Modulus (GPa) = 27.96482 28.43388 28.19935
#
# Velocity S-wave (km/s) = 3.72545 3.75656 3.74104
# Velocity P-wave (km/s) = 7.50104 7.54435 7.52273
#
# Compressibility (1/GPa) = 0.01314343
#
# Stress axis : x y z
#
# Youngs Moduli (GPa) = 71.86801 71.86801 79.91605
#
# Poissons Ratio (x) = 0.47212 0.28090
# Poissons Ratio (y) = 0.47212 0.28090
# Poissons Ratio (z) = 0.25262 0.25262
#
# Static dielectric constant tensor:
#      x y z
#    x 3.669820 0.000000 0.000000 
#    y 0.000000 3.669820 0.000000 
#    z 0.000000 0.000000 3.875560 
# 
# 
# High freq. dielectric constant tensor:
#      x y z
#    x 1.788800 0.000000 0.000000 
#    y 0.000000 1.788800 0.000000 
#    z 0.000000 0.000000 1.792540 
# 
# From -- ./inp_files/1017.got.cif
#   From: 2010.03.12/outbox.cif.g09.slc.cpg/sg79_cif.got.tgz:1017.got - 2010.04.16 16:38:49.
