data_PCOD8302104
_publ_section_title
;
Structure prediction by ZEFSAII (Michael W. Deem and Ramdas Pophale) SiO2 
 PCOD8302104
Probable space group: I 4
;
_chemical_formula_sum "Si O2"
_cell_formula_units_Z 36
_cell_length_a 14.598311
_cell_length_b 14.598311
_cell_length_c 7.688229
_cell_angle_alpha 90.000000
_cell_angle_beta 90.000000
_cell_angle_gamma 90.000000
_cell_volume 1638.443741
_symmetry_space_group_name_H-M "I 4"
_symmetry_group_IT_number 79
_symmetry_cell_setting 'tetragonal'
loop_
_space_group_symop_operation_xyz
x,y,z
-y,x,z
-x,-y,z
y,-x,z
1/2+x,1/2+y,1/2+z
1/2-y,1/2+x,1/2+z
1/2-x,1/2-y,1/2+z
1/2+y,1/2-x,1/2+z
loop_
_atom_site_type_symbol
_atom_site_label
_atom_site_fract_x
_atom_site_fract_y
_atom_site_fract_z
Si Si1 0.500000 0.000000 0.583840
Si Si2 0.438502 0.855234 0.836111
Si Si3 0.123033 0.240545 0.374213
Si Si4 0.414702 0.377312 0.558498
Si Si5 0.735808 0.312848 0.267742
O O1 0.558757 0.077307 0.674376
O O2 0.426140 0.063881 0.492176
O O3 0.527097 0.791980 0.857008
O O4 0.343889 0.800767 0.814509
O O5 0.207788 0.300226 0.292078
O O6 0.146831 0.215778 0.575705
O O7 0.112105 0.150406 0.254971
O O8 0.522901 0.373684 0.529699
O O9 0.375982 0.310284 0.411614
#
# Coordination Sequence:
#
# PCOD8302104 Si02
#       5
#     4   8   8   8   8
#     4  10  22  38  66  98 138 182 234 302 368 428
#     4  11  23  43  65 104 142 188 240 300 363 439
#     4  12  25  45  73 105 148 191 246 298 372 442
#     4  11  27  50  76 108 149 195 252 310 359 434
#     4  12  26  46  75 111 146 199 245 303 372 442
#
# _framework density 21.972069000000001
#
# number of rings (size 3 to 8) (size 9 to 14) (size 15 to 20)
#    0.000    0.667    4.444    2.667    0.000    7.111 
#    0.000    2.222    0.000    0.000    0.000    0.000 
#    0.000    0.000    0.000    0.000    0.000    0.000 
#
# Total GULP energy -222998.720254 kJ/mol
# GULP energy per Si atom -12388.817792 kJ/mol
# Density = 2.192206 g / cm^3
# Si number density = 21.972069 Si / 1000 Ang^3
#
#
#
# Elastic Constant Matrix: (Units=GPa)
#
#
# Indices 1 2 3 4 5 6 
#
# 1 112.5333 62.9155 59.6654 0.0000 0.0000 -18.7630
# 2 62.9155 112.5333 59.6654 0.0000 0.0000 18.7630
# 3 59.6654 59.6654 161.5136 0.0000 0.0000 0.0000
# 4 0.0000 0.0000 0.0000 39.2604 0.0000 0.0000
# 5 0.0000 0.0000 0.0000 0.0000 39.2604 0.0000
# 6 -18.7630 18.7630 0.0000 0.0000 0.0000 28.3109
#
#
#
# Elastic Compliance Matrix: (Units=1/GPa)
#
#
# Indices 1 2 3 4 5 6 
#
# 1 0.024010 -0.016398 -0.002812 0.000000 0.000000 0.026780
# 2 -0.016398 0.024010 -0.002812 0.000000 0.000000 -0.026780
# 3 -0.002812 -0.002812 0.008269 0.000000 0.000000 0.000000
# 4 0.000000 0.000000 0.000000 0.025471 0.000000 0.000000
# 5 0.000000 0.000000 0.000000 0.000000 0.025471 0.000000
# 6 0.026780 -0.026780 0.000000 0.000000 0.000000 0.070819
#
#
# Mechanical properties :
#
#
# Convention : Reuss Voigt Hill
#
# Bulk Modulus (GPa) = 81.66385 83.45252 82.55819
# Shear Modulus (GPa) = 22.10667 34.98861 28.54764
#
# Velocity S-wave (km/s) = 3.17539 3.99483 3.60845
# Velocity P-wave (km/s) = 7.11983 7.70337 7.41734
#
# Compressibility (1/GPa) = 0.01224532
#
# Stress axis : x y z
#
# Youngs Moduli (GPa) = 41.64910 41.64910 120.93246
#
# Poissons Ratio (x) = 0.68295 0.34007
# Poissons Ratio (y) = 0.68295 0.34007
# Poissons Ratio (z) = 0.11712 0.11712
#
# Static dielectric constant tensor:
#      x y z
#    x 4.001900 0.000000 0.000000 
#    y 0.000000 4.001900 0.000000 
#    z 0.000000 0.000000 4.189510 
# 
# 
# High freq. dielectric constant tensor:
#      x y z
#    x 1.871350 0.000000 0.000000 
#    y 0.000000 1.871350 0.000000 
#    z 0.000000 0.000000 1.877390 
# 
# From -- ./inp_files/496.got.cif
#   From: 2010.03.12/outbox.cif.g09.slc.cpg/sg79_cif.got.tgz:496.got - 2010.04.16 16:38:49.
