data_PCOD8302575
_publ_section_title
;
Structure prediction by ZEFSAII (Michael W. Deem and Ramdas Pophale) SiO2 
 PCOD8302575
Probable space group: I -4 
;
_chemical_formula_sum "Si O2"
_cell_formula_units_Z 20
_cell_length_a 6.964442
_cell_length_b 6.964442
_cell_length_c 20.308000
_cell_angle_alpha 90.000000
_cell_angle_beta 90.000000
_cell_angle_gamma 90.000000
_cell_volume 985.008111
_symmetry_space_group_name_H-M "I -4 "
_symmetry_group_IT_number 82
_symmetry_cell_setting 'tetragonal'
loop_
_space_group_symop_operation_xyz
x,y,z
y,-x,-z
-x,-y,z
-y,x,-z
1/2+x,1/2+y,1/2+z
1/2+y,1/2-x,1/2-z
1/2-x,1/2-y,1/2+z
1/2-y,1/2+x,1/2-z
loop_
_atom_site_type_symbol
_atom_site_label
_atom_site_fract_x
_atom_site_fract_y
_atom_site_fract_z
Si Si1 0.227316 0.031237 0.721261
Si Si2 0.000000 0.000000 0.000000
Si Si3 0.153936 0.660853 0.420322
Si Si4 0.500000 0.500000 0.000000
O O1 0.321953 0.165251 0.779134
O O2 0.284734 0.151018 0.656518
O O3 0.000000 0.000000 0.730491
O O4 0.143189 0.906413 0.947702
O O5 0.118066 0.860305 0.454742
O O6 0.000000 0.500000 0.438676
#
# Coordination Sequence:
#
# PCOD8302575 Si02
#       4
#     8   2   8   2
#     4  11  25  45  69  98 138 179 227 282 332 400
#     4  12  28  40  74 104 136 176 228 274 348 400
#     4  12  24  44  67 103 139 178 224 281 334 405
#     4  12  24  44  70  96 144 180 224 278 344 392
#
# _framework density 20.304400999999999
#
# number of rings (size 3 to 8) (size 9 to 14) (size 15 to 20)
#    0.000    0.400   10.000    0.000    2.800    0.800 
#    0.000    4.000    0.000    0.000    0.000    0.000 
#    0.000    0.000    0.000    0.000    0.000    0.000 
#
# Total GULP energy -123918.069071 kJ/mol
# GULP energy per Si atom -12391.806907 kJ/mol
# Density = 2.025819 g / cm^3
# Si number density = 20.304401 Si / 1000 Ang^3
#
#
#
# Elastic Constant Matrix: (Units=GPa)
#
#
# Indices 1 2 3 4 5 6 
#
# 1 155.7189 68.0467 47.8494 0.0000 0.0000 2.6498
# 2 68.0467 155.7189 47.8494 0.0000 0.0000 -2.6498
# 3 47.8494 47.8494 111.8923 0.0000 0.0000 0.0000
# 4 0.0000 0.0000 0.0000 23.1766 0.0000 0.0000
# 5 0.0000 0.0000 0.0000 0.0000 23.1766 0.0000
# 6 2.6498 -2.6498 0.0000 0.0000 0.0000 37.3654
#
#
#
# Elastic Compliance Matrix: (Units=1/GPa)
#
#
# Indices 1 2 3 4 5 6 
#
# 1 0.008462 -0.002993 -0.002339 0.000000 0.000000 -0.000812
# 2 -0.002993 0.008462 -0.002339 0.000000 0.000000 0.000812
# 3 -0.002339 -0.002339 0.010938 0.000000 0.000000 0.000000
# 4 0.000000 0.000000 0.000000 0.043147 0.000000 0.000000
# 5 0.000000 0.000000 0.000000 0.000000 0.043147 0.000000
# 6 -0.000812 0.000812 0.000000 0.000000 0.000000 0.026878
#
#
# Mechanical properties :
#
#
# Convention : Reuss Voigt Hill
#
# Bulk Modulus (GPa) = 79.86847 83.42456 81.64652
# Shear Modulus (GPa) = 31.14320 34.04937 32.59628
#
# Velocity S-wave (km/s) = 3.92064 4.09950 4.01107
# Velocity P-wave (km/s) = 7.74056 7.97395 7.85812
#
# Compressibility (1/GPa) = 0.01252058
#
# Stress axis : x y z
#
# Youngs Moduli (GPa) = 118.17223 118.17222 91.42833
#
# Poissons Ratio (x) = 0.35369 0.21384
# Poissons Ratio (y) = 0.35369 0.21384
# Poissons Ratio (z) = 0.27639 0.27639
#
# Static dielectric constant tensor:
#      x y z
#    x 3.747830 0.000000 0.000000 
#    y 0.000000 3.747830 0.000000 
#    z 0.000000 0.000000 3.877540 
# 
# 
# High freq. dielectric constant tensor:
#      x y z
#    x 1.799680 0.000000 0.000000 
#    y 0.000000 1.799680 0.000000 
#    z 0.000000 0.000000 1.800010 
# 
# From -- ./inp_files/3206.got.cif
#   From: 2010.03.12/outbox.cif.g09.slc.cpg/sg82_2_cif.got.tgz:3206.got - 2010.04.08 20:02:50.
