data_PCOD8302431
_publ_section_title
;
Structure prediction by ZEFSAII (Michael W. Deem and Ramdas Pophale) SiO2 
 PCOD8302431
Probable space group: I -4 
;
_chemical_formula_sum "Si O2"
_cell_formula_units_Z 52
_cell_length_a 16.361966
_cell_length_b 16.361966
_cell_length_c 8.445954
_cell_angle_alpha 90.000000
_cell_angle_beta 90.000000
_cell_angle_gamma 90.000000
_cell_volume 2261.099550
_symmetry_space_group_name_H-M "I -4 "
_symmetry_group_IT_number 82
_symmetry_cell_setting 'tetragonal'
loop_
_space_group_symop_operation_xyz
x,y,z
y,-x,-z
-x,-y,z
-y,x,-z
1/2+x,1/2+y,1/2+z
1/2+y,1/2-x,1/2-z
1/2-x,1/2-y,1/2+z
1/2-y,1/2+x,1/2-z
loop_
_atom_site_type_symbol
_atom_site_label
_atom_site_fract_x
_atom_site_fract_y
_atom_site_fract_z
Si Si1 0.929543 0.837864 0.423549
Si Si2 0.500000 0.000000 0.750000
Si Si3 0.078700 0.348616 0.407436
Si Si4 0.926096 0.400309 0.769775
Si Si5 0.500000 0.500000 0.500000
Si Si6 0.333442 0.740103 0.602809
Si Si7 0.405698 0.418924 0.241976
Si Si8 0.756361 0.841165 0.272925
O O1 0.951258 0.744226 0.379645
O O2 0.935433 0.852740 0.612803
O O3 0.838969 0.863583 0.365837
O O4 0.992024 0.898267 0.337677
O O5 0.583639 0.015147 0.653830
O O6 0.088499 0.360382 0.593289
O O7 0.169569 0.358287 0.336224
O O8 0.906852 0.480674 0.661218
O O9 0.909079 0.313466 0.684646
O O10 0.468523 0.425605 0.388954
O O11 0.396321 0.681563 0.688089
O O12 0.242941 0.719345 0.662096
O O13 0.337627 0.727772 0.414285
#
# Coordination Sequence:
#
# PCOD8302431 Si02
#       8
#     8   2   8   8   2   8   8   8
#     4  11  25  44  71 101 135 186 238 291 365 434
#     4  12  20  40  66  96 148 180 224 310 352 428
#     4  10  23  41  62 100 135 177 230 280 352 421
#     4  10  21  40  61  97 131 171 227 281 345 422
#     4  12  28  46  68 104 140 170 244 292 360 426
#     4  10  21  43  66  95 139 179 238 289 350 432
#     4  12  24  46  69  98 136 182 229 301 356 427
#     4  10  22  44  66 102 134 182 236 289 357 430
#
# _framework density 22.997661000000001
#
# number of rings (size 3 to 8) (size 9 to 14) (size 15 to 20)
#    0.000    1.385    0.000    6.462    2.154    0.000 
#   30.462    0.000    0.000    0.000    0.000    0.000 
#    0.000    0.000    0.000    0.000    0.000    0.000 
#
# Total GULP energy -322294.532655 kJ/mol
# GULP energy per Si atom -12395.943564 kJ/mol
# Density = 2.294532 g / cm^3
# Si number density = 22.997661 Si / 1000 Ang^3
#
#
#
# Elastic Constant Matrix: (Units=GPa)
#
#
# Indices 1 2 3 4 5 6 
#
# 1 99.0707 54.4786 31.4010 0.0000 0.0000 -0.5301
# 2 54.4786 99.0707 31.4010 0.0000 0.0000 0.5301
# 3 31.4010 31.4010 90.7874 0.0000 0.0000 0.0000
# 4 0.0000 0.0000 0.0000 32.0557 0.0000 0.0000
# 5 0.0000 0.0000 0.0000 0.0000 32.0557 0.0000
# 6 -0.5301 0.5301 0.0000 0.0000 0.0000 37.7815
#
#
#
# Elastic Compliance Matrix: (Units=1/GPa)
#
#
# Indices 1 2 3 4 5 6 
#
# 1 0.015009 -0.007424 -0.002624 0.000000 0.000000 0.000315
# 2 -0.007424 0.015009 -0.002624 0.000000 0.000000 -0.000315
# 3 -0.002624 -0.002624 0.012830 0.000000 0.000000 0.000000
# 4 0.000000 0.000000 0.000000 0.031196 0.000000 0.000000
# 5 0.000000 0.000000 0.000000 0.000000 0.031196 0.000000
# 6 0.000315 -0.000315 0.000000 0.000000 0.000000 0.026477
#
#
# Mechanical properties :
#
#
# Convention : Reuss Voigt Hill
#
# Bulk Modulus (GPa) = 57.12241 58.16554 57.64398
# Shear Modulus (GPa) = 30.69481 31.82179 31.25830
#
# Velocity S-wave (km/s) = 3.65731 3.72384 3.69073
# Velocity P-wave (km/s) = 6.53658 6.62089 6.57887
#
# Compressibility (1/GPa) = 0.01750626
#
# Stress axis : x y z
#
# Youngs Moduli (GPa) = 66.62527 66.62527 77.94427
#
# Poissons Ratio (x) = 0.49460 0.20450
# Poissons Ratio (y) = 0.49460 0.20450
# Poissons Ratio (z) = 0.17480 0.17480
#
# Static dielectric constant tensor:
#      x y z
#    x 4.312330 0.000000 0.000000 
#    y 0.000000 4.312330 0.000000 
#    z 0.000000 0.000000 4.013880 
# 
# 
# High freq. dielectric constant tensor:
#      x y z
#    x 1.915860 0.000000 0.000000 
#    y 0.000000 1.915860 0.000000 
#    z 0.000000 0.000000 1.895380 
# 
# From -- ./inp_files/1122.got.cif
#   From: 2010.03.12/outbox.cif.g09.slc.cpg/sg82_1_cif.got.tgz:1122.got - 2010.04.08 20:02:50.
