data_PCOD8302110
_publ_section_title
;
Structure prediction by ZEFSAII (Michael W. Deem and Ramdas Pophale) SiO2 
 PCOD8302110
Probable space group: I 4
;
_chemical_formula_sum "Si O2"
_cell_formula_units_Z 28
_cell_length_a 11.949327
_cell_length_b 11.949327
_cell_length_c 8.667531
_cell_angle_alpha 90.000000
_cell_angle_beta 90.000000
_cell_angle_gamma 90.000000
_cell_volume 1237.605685
_symmetry_space_group_name_H-M "I 4"
_symmetry_group_IT_number 79
_symmetry_cell_setting 'tetragonal'
loop_
_space_group_symop_operation_xyz
x,y,z
-y,x,z
-x,-y,z
y,-x,z
1/2+x,1/2+y,1/2+z
1/2-y,1/2+x,1/2+z
1/2-x,1/2-y,1/2+z
1/2+y,1/2-x,1/2+z
loop_
_atom_site_type_symbol
_atom_site_label
_atom_site_fract_x
_atom_site_fract_y
_atom_site_fract_z
Si Si1 0.723173 0.292854 0.069960
Si Si2 0.823713 0.517963 0.162144
Si Si3 0.374126 0.361027 0.743836
Si Si4 0.500000 0.000000 0.912311
O O1 0.783611 0.391177 0.162858
O O2 0.603391 0.279212 0.154126
O O3 0.800957 0.181863 0.094238
O O4 0.702531 0.322541 0.891752
O O5 0.896073 0.543827 0.312960
O O6 0.898271 0.545018 0.012927
O O7 0.507676 0.343432 0.742754
#
# Coordination Sequence:
#
# PCOD8302110 Si02
#       4
#     8   8   8   4
#     4  12  24  44  72 104 136 188 226 288 342 418
#     4  11  24  41  68  99 137 178 230 280 342 409
#     4  11  26  50  72 101 142 186 230 287 350 412
#     4  10  24  42  64 100 134 176 234 286 332 400
#
# _framework density 22.62433
#
# number of rings (size 3 to 8) (size 9 to 14) (size 15 to 20)
#    0.000    0.857    2.857    3.429    8.000    0.571 
#    5.143    0.000    0.000    3.429    0.000    0.000 
#    0.000    0.000    0.000    0.000    0.000    0.000 
#
# Total GULP energy -173634.312872 kJ/mol
# GULP energy per Si atom -12402.450919 kJ/mol
# Density = 2.257284 g / cm^3
# Si number density = 22.624330 Si / 1000 Ang^3
#
#
#
# Elastic Constant Matrix: (Units=GPa)
#
#
# Indices 1 2 3 4 5 6 
#
# 1 108.5889 45.6373 44.6914 0.0000 0.0000 2.6744
# 2 45.6373 108.5889 44.6914 0.0000 0.0000 -2.6744
# 3 44.6914 44.6914 97.7584 0.0000 0.0000 0.0000
# 4 0.0000 0.0000 0.0000 21.2645 0.0000 0.0000
# 5 0.0000 0.0000 0.0000 0.0000 21.2645 0.0000
# 6 2.6744 -2.6744 0.0000 0.0000 0.0000 52.7627
#
#
#
# Elastic Compliance Matrix: (Units=1/GPa)
#
#
# Indices 1 2 3 4 5 6 
#
# 1 0.012388 -0.003566 -0.004033 0.000000 0.000000 -0.000809
# 2 -0.003566 0.012388 -0.004033 0.000000 0.000000 0.000809
# 3 -0.004033 -0.004033 0.013916 0.000000 0.000000 0.000000
# 4 0.000000 0.000000 0.000000 0.047027 0.000000 0.000000
# 5 0.000000 0.000000 0.000000 0.000000 0.047027 0.000000
# 6 -0.000809 0.000809 0.000000 0.000000 0.000000 0.019035
#
#
# Mechanical properties :
#
#
# Convention : Reuss Voigt Hill
#
# Bulk Modulus (GPa) = 64.81714 64.99739 64.90727
# Shear Modulus (GPa) = 27.74913 31.05277 29.40095
#
# Velocity S-wave (km/s) = 3.50597 3.70880 3.60881
# Velocity P-wave (km/s) = 6.71570 6.86525 6.79088
#
# Compressibility (1/GPa) = 0.01542802
#
# Stress axis : x y z
#
# Youngs Moduli (GPa) = 80.72623 80.72623 71.85718
#
# Poissons Ratio (x) = 0.28790 0.28978
# Poissons Ratio (y) = 0.28790 0.28978
# Poissons Ratio (z) = 0.32554 0.32554
#
# Static dielectric constant tensor:
#      x y z
#    x 4.242970 0.000000 0.000000 
#    y 0.000000 4.242970 0.000000 
#    z 0.000000 0.000000 3.933300 
# 
# 
# High freq. dielectric constant tensor:
#      x y z
#    x 1.902670 0.000000 0.000000 
#    y 0.000000 1.902670 0.000000 
#    z 0.000000 0.000000 1.884280 
# 
# From -- ./inp_files/400.got.cif
#   From: 2010.03.12/outbox.cif.g09.slc.cpg/sg79_cif.got.tgz:400.got - 2010.04.16 16:38:49.
