data_PCOD8302358
_publ_section_title
;
Structure prediction by ZEFSAII (Michael W. Deem and Ramdas Pophale) SiO2 
 PCOD8302358
Probable space group: I -4 
;
_chemical_formula_sum "Si O2"
_cell_formula_units_Z 64
_cell_length_a 31.077451
_cell_length_b 31.077451
_cell_length_c 5.166873
_cell_angle_alpha 90.000000
_cell_angle_beta 90.000000
_cell_angle_gamma 90.000000
_cell_volume 4990.207075
_symmetry_space_group_name_H-M "I -4 "
_symmetry_group_IT_number 82
_symmetry_cell_setting 'tetragonal'
loop_
_space_group_symop_operation_xyz
x,y,z
y,-x,-z
-x,-y,z
-y,x,-z
1/2+x,1/2+y,1/2+z
1/2+y,1/2-x,1/2-z
1/2-x,1/2-y,1/2+z
1/2-y,1/2+x,1/2-z
loop_
_atom_site_type_symbol
_atom_site_label
_atom_site_fract_x
_atom_site_fract_y
_atom_site_fract_z
Si Si1 0.269268 0.696201 0.708880
Si Si2 0.875690 0.500480 0.221430
Si Si3 0.334751 0.909847 0.739649
Si Si4 0.999448 0.430440 0.779814
Si Si5 0.701537 0.127909 0.233202
Si Si6 0.267915 0.304268 0.791152
Si Si7 0.907605 0.338731 0.239303
Si Si8 0.198496 0.370843 0.766994
O O1 0.249230 0.648221 0.716911
O O2 0.298284 0.700986 0.454150
O O3 0.231657 0.731193 0.713388
O O4 0.300206 0.702953 0.954159
O O5 0.844469 0.459882 0.202139
O O6 0.911120 0.490403 0.439547
O O7 0.850312 0.542897 0.306607
O O8 0.895178 0.509195 0.938707
O O9 0.304159 0.895386 0.506221
O O10 0.378836 0.882137 0.744807
O O11 0.307141 0.905372 0.001272
O O12 0.957367 0.459451 0.811232
O O13 0.668280 0.166206 0.198495
O O14 0.246685 0.351729 0.783462
O O15 0.903924 0.310991 0.501041
O O16 0.893843 0.307713 0.006450
#
# Coordination Sequence:
#
# PCOD8302358 Si02
#       8
#     8   8   8   8   8   8   8   8
#     4   9  15  23  37  56  75  93 111 129 152 192
#     4  12  22  33  46  58  70  90 120 148 184 234
#     4  10  19  30  42  54  70  91 115 146 181 219
#     4  11  22  34  46  58  70  82 104 148 200 242
#     4   9  17  28  40  55  74  93 111 134 168 206
#     4   9  15  23  37  56  75  93 111 129 152 192
#     4  10  19  30  42  54  70  91 115 146 181 219
#     4   9  17  28  40  55  74  93 111 134 168 206
#
# _framework density 12.825118
#
# number of rings (size 3 to 8) (size 9 to 14) (size 15 to 20)
#    0.000    2.125    0.000    5.250    0.000    9.000 
#    0.000    0.000    0.000    0.000    0.000    0.000 
#    0.000    0.000    0.000    0.000    0.000    0.000 
#
# Total GULP energy -396824.058386 kJ/mol
# GULP energy per Si atom -12400.751825 kJ/mol
# Density = 1.279593 g / cm^3
# Si number density = 12.825118 Si / 1000 Ang^3
#
#
#
# Elastic Constant Matrix: (Units=GPa)
#
#
# Indices 1 2 3 4 5 6 
#
# 1 37.6758 30.2731 12.7994 0.0000 0.0000 -0.6177
# 2 30.2731 37.6758 12.7994 0.0000 0.0000 0.6177
# 3 12.7994 12.7994 72.5901 0.0000 0.0000 0.0000
# 4 0.0000 0.0000 0.0000 15.7274 0.0000 0.0000
# 5 0.0000 0.0000 0.0000 0.0000 15.7274 0.0000
# 6 -0.6177 0.6177 0.0000 0.0000 0.0000 10.3072
#
#
#
# Elastic Compliance Matrix: (Units=1/GPa)
#
#
# Indices 1 2 3 4 5 6 
#
# 1 0.076107 -0.060343 -0.002780 0.000000 0.000000 0.008178
# 2 -0.060343 0.076107 -0.002780 0.000000 0.000000 -0.008178
# 3 -0.002780 -0.002780 0.014756 0.000000 0.000000 0.000000
# 4 0.000000 0.000000 0.000000 0.063583 0.000000 0.000000
# 5 0.000000 0.000000 0.000000 0.000000 0.063583 0.000000
# 6 0.008178 -0.008178 0.000000 0.000000 0.000000 0.098000
#
#
# Mechanical properties :
#
#
# Convention : Reuss Voigt Hill
#
# Bulk Modulus (GPa) = 28.43652 28.85394 28.64523
# Shear Modulus (GPa) = 9.33420 14.49037 11.91229
#
# Velocity S-wave (km/s) = 2.70072 3.36496 3.05097
# Velocity P-wave (km/s) = 5.65206 6.13548 5.89873
#
# Compressibility (1/GPa) = 0.03516605
#
# Stress axis : x y z
#
# Youngs Moduli (GPa) = 13.13934 13.13934 67.76809
#
# Poissons Ratio (x) = 0.79287 0.18837
# Poissons Ratio (y) = 0.79287 0.18837
# Poissons Ratio (z) = 0.03652 0.03652
#
# Static dielectric constant tensor:
#      x y z
#    x 2.415850 0.000000 0.000000 
#    y 0.000000 2.415850 0.000000 
#    z 0.000000 0.000000 2.799260 
# 
# 
# High freq. dielectric constant tensor:
#      x y z
#    x 1.448560 0.000000 0.000000 
#    y 0.000000 1.448560 0.000000 
#    z 0.000000 0.000000 1.513770 
# 
# From -- ./inp_files/495.got.cif
#   From: 2010.03.12/outbox.cif.g09.slc.cpg/sg82_1_cif.got.tgz:495.got - 2010.04.08 20:02:50.
