data_PCOD8302347
_publ_section_title
;
Structure prediction by ZEFSAII (Michael W. Deem and Ramdas Pophale) SiO2 
 PCOD8302347
Probable space group: I -4 
;
_chemical_formula_sum "Si O2"
_cell_formula_units_Z 26
_cell_length_a 11.263936
_cell_length_b 11.263936
_cell_length_c 10.845488
_cell_angle_alpha 90.000000
_cell_angle_beta 90.000000
_cell_angle_gamma 90.000000
_cell_volume 1376.034893
_symmetry_space_group_name_H-M "I -4 "
_symmetry_group_IT_number 82
_symmetry_cell_setting 'tetragonal'
loop_
_space_group_symop_operation_xyz
x,y,z
y,-x,-z
-x,-y,z
-y,x,-z
1/2+x,1/2+y,1/2+z
1/2+y,1/2-x,1/2-z
1/2-x,1/2-y,1/2+z
1/2-y,1/2+x,1/2-z
loop_
_atom_site_type_symbol
_atom_site_label
_atom_site_fract_x
_atom_site_fract_y
_atom_site_fract_z
Si Si1 0.618001 0.735313 0.624939
Si Si2 0.000000 0.000000 0.500000
Si Si3 0.304660 0.424627 0.183000
Si Si4 0.516813 0.642435 0.372305
O O1 0.516858 0.761501 0.726504
O O2 0.705905 0.845945 0.615881
O O3 0.560459 0.713931 0.491185
O O4 0.689666 0.614773 0.662577
O O5 0.881327 0.994812 0.581964
O O6 0.391071 0.337690 0.261396
O O7 0.500000 0.500000 0.393886
#
# Coordination Sequence:
#
# PCOD8302347 Si02
#       4
#     8   2   8   8
#     4  11  20  39  63  88 119 164 203 245 293 371
#     4  12  24  40  54 100 120 156 204 262 304 348
#     4  11  24  36  64  93 123 154 207 255 302 351
#     4  10  17  40  63  83 114 173 205 226 299 379
#
# _framework density 18.894870000000001
#
# number of rings (size 3 to 8) (size 9 to 14) (size 15 to 20)
#    0.000    1.231   10.769    0.000    4.308    0.615 
#    0.000    0.000    0.000    4.615    0.000    0.000 
#    0.000    0.000    0.000    0.000    0.000    0.000 
#
# Total GULP energy -161085.285879 kJ/mol
# GULP energy per Si atom -12391.175837 kJ/mol
# Density = 1.885186 g / cm^3
# Si number density = 18.894870 Si / 1000 Ang^3
#
#
#
# Elastic Constant Matrix: (Units=GPa)
#
#
# Indices 1 2 3 4 5 6 
#
# 1 72.6097 40.7827 24.3613 0.0000 0.0000 -2.4453
# 2 40.7827 72.6097 24.3613 0.0000 0.0000 2.4453
# 3 24.3613 24.3613 87.8601 0.0000 0.0000 0.0000
# 4 0.0000 0.0000 0.0000 27.0667 0.0000 0.0000
# 5 0.0000 0.0000 0.0000 0.0000 27.0667 0.0000
# 6 -2.4453 2.4453 0.0000 0.0000 0.0000 41.7653
#
#
#
# Elastic Compliance Matrix: (Units=1/GPa)
#
#
# Indices 1 2 3 4 5 6 
#
# 1 0.020858 -0.010847 -0.002776 0.000000 0.000000 0.001856
# 2 -0.010847 0.020858 -0.002776 0.000000 0.000000 -0.001856
# 3 -0.002776 -0.002776 0.012921 0.000000 0.000000 0.000000
# 4 0.000000 0.000000 0.000000 0.036946 0.000000 0.000000
# 5 0.000000 0.000000 0.000000 0.000000 0.036946 0.000000
# 6 0.001856 -0.001856 0.000000 0.000000 0.000000 0.024161
#
#
# Mechanical properties :
#
#
# Convention : Reuss Voigt Hill
#
# Bulk Modulus (GPa) = 45.78621 45.78780 45.78701
# Shear Modulus (GPa) = 25.93794 28.75134 27.34464
#
# Velocity S-wave (km/s) = 3.70908 3.90506 3.80833
# Velocity P-wave (km/s) = 6.52899 6.67969 6.60477
#
# Compressibility (1/GPa) = 0.02184064
#
# Stress axis : x y z
#
# Youngs Moduli (GPa) = 47.94222 47.94222 77.39243
#
# Poissons Ratio (x) = 0.52002 0.21484
# Poissons Ratio (y) = 0.52002 0.21484
# Poissons Ratio (z) = 0.13309 0.13309
#
# Static dielectric constant tensor:
#      x y z
#    x 3.488900 0.000000 0.000000 
#    y 0.000000 3.488900 0.000000 
#    z 0.000000 0.000000 3.623380 
# 
# 
# High freq. dielectric constant tensor:
#      x y z
#    x 1.709110 0.000000 0.000000 
#    y 0.000000 1.709110 0.000000 
#    z 0.000000 0.000000 1.747130 
# 
# From -- ./inp_files/1375.got.cif
#   From: 2010.03.12/outbox.cif.g09.slc.cpg/sg82_1_cif.got.tgz:1375.got - 2010.04.08 20:02:50.
