data_PCOD8302707
_publ_section_title
;
Structure prediction by ZEFSAII (Michael W. Deem and Ramdas Pophale) SiO2 
 PCOD8302707
Probable space group: P 4/M
;
_chemical_formula_sum "Si O2"
_cell_formula_units_Z 64
_cell_length_a 20.461003
_cell_length_b 20.461003
_cell_length_c 8.827285
_cell_angle_alpha 90.000000
_cell_angle_beta 90.000000
_cell_angle_gamma 90.000000
_cell_volume 3695.566203
_symmetry_space_group_name_H-M "P 4/M"
_symmetry_group_IT_number 83
_symmetry_cell_setting 'tetragonal'
loop_
_space_group_symop_operation_xyz
x,y,z
-y,x,z
-x,-y,z
y,-x,z
-x,-y,-z
y,-x,-z
x,y,-z
-y,x,-z
loop_
_atom_site_type_symbol
_atom_site_label
_atom_site_fract_x
_atom_site_fract_y
_atom_site_fract_z
Si Si1 0.895189 0.498066 0.821363
Si Si2 0.625093 0.062521 0.673743
Si Si3 0.495423 0.762158 0.674572
Si Si4 0.278358 0.614864 0.163688
Si Si5 0.736347 0.815631 0.169499
Si Si6 0.185284 0.291057 0.321278
Si Si7 0.356291 0.083830 0.674033
Si Si8 0.709500 0.617371 0.173784
O O1 0.943543 0.555458 0.763428
O O2 0.825347 0.525570 0.769778
O O3 0.902585 0.425828 0.752793
O O4 0.902176 0.491591 0.000000
O O5 0.606844 0.078020 0.500000
O O6 0.677514 0.116048 0.734345
O O7 0.660366 0.992643 0.690457
O O8 0.480047 0.773344 0.500000
O O9 0.571276 0.745145 0.697110
O O10 0.453721 0.703647 0.748838
O O11 0.239130 0.681577 0.162894
O O12 0.353444 0.636314 0.184397
O O13 0.268057 0.579160 0.000000
O O14 0.799449 0.780829 0.248199
O O15 0.705680 0.877785 0.256344
O O16 0.756503 0.837672 0.000000
O O17 0.184944 0.280495 0.500000
O O18 0.240100 0.342540 0.276003
O O19 0.364050 0.105265 0.500000
O O20 0.733735 0.615052 0.000000
#
# Coordination Sequence:
#
# PCOD8302707 Si02
#       8
#     8   8   8   8   8   8   8   8
#     4  12  23  34  49  71 102 139 177 212 249 296
#     4  10  22  37  52  74 104 138 175 212 251 301
#     4  12  22  32  51  74  99 128 164 207 253 303
#     4   9  19  34  51  71  96 124 159 204 254 303
#     4  10  20  34  52  74 101 131 169 213 252 295
#     4  10  19  33  53  74 100 132 168 209 254 298
#     4  11  22  36  53  73 103 140 176 212 252 299
#     4  10  20  34  52  73  97 125 161 208 257 306
#
# _framework density 17.318051000000001
#
# number of rings (size 3 to 8) (size 9 to 14) (size 15 to 20)
#    0.000    1.500    2.500    4.875    0.000    5.500 
#    0.000    0.000    0.000    0.375    0.000    2.625 
#    0.000    0.500    0.000    5.750    0.000    2.250 
#
# Total GULP energy -793195.807425 kJ/mol
# GULP energy per Si atom -12393.684491 kJ/mol
# Density = 1.727863 g / cm^3
# Si number density = 17.318051 Si / 1000 Ang^3
#
#
#
# Elastic Constant Matrix: (Units=GPa)
#
#
# Indices 1 2 3 4 5 6 
#
# 1 54.3679 29.9698 31.9540 0.0000 0.0000 -1.0291
# 2 29.9698 54.3679 31.9540 0.0000 0.0000 1.0291
# 3 31.9540 31.9540 108.1081 0.0000 0.0000 0.0000
# 4 0.0000 0.0000 0.0000 20.7808 0.0000 0.0000
# 5 0.0000 0.0000 0.0000 0.0000 20.7808 0.0000
# 6 -1.0291 1.0291 0.0000 0.0000 0.0000 22.7947
#
#
#
# Elastic Compliance Matrix: (Units=1/GPa)
#
#
# Indices 1 2 3 4 5 6 
#
# 1 0.028211 -0.012932 -0.004516 0.000000 0.000000 0.001857
# 2 -0.012932 0.028211 -0.004516 0.000000 0.000000 -0.001857
# 3 -0.004516 -0.004516 0.011920 0.000000 0.000000 0.000000
# 4 0.000000 0.000000 0.000000 0.048121 0.000000 0.000000
# 5 0.000000 0.000000 0.000000 0.000000 0.048121 0.000000
# 6 0.001857 -0.001857 0.000000 0.000000 0.000000 0.044038
#
#
# Mechanical properties :
#
#
# Convention : Reuss Voigt Hill
#
# Bulk Modulus (GPa) = 40.96074 44.95549 42.95811
# Shear Modulus (GPa) = 19.17989 21.06899 20.12444
#
# Velocity S-wave (km/s) = 3.33154 3.49175 3.41258
# Velocity P-wave (km/s) = 6.20502 6.50166 6.35507
#
# Compressibility (1/GPa) = 0.02441362
#
# Stress axis : x y z
#
# Youngs Moduli (GPa) = 35.44663 35.44663 83.89458
#
# Poissons Ratio (x) = 0.45840 0.37888
# Poissons Ratio (y) = 0.45840 0.37888
# Poissons Ratio (z) = 0.16008 0.16008
#
# Static dielectric constant tensor:
#      x y z
#    x 3.264350 0.000000 0.000000 
#    y 0.000000 3.264350 0.000000 
#    z 0.000000 0.000000 3.372280 
# 
# 
# High freq. dielectric constant tensor:
#      x y z
#    x 1.645250 0.000000 0.000000 
#    y 0.000000 1.645250 0.000000 
#    z 0.000000 0.000000 1.683430 
# 
# From -- ./inp_files/1320.got.cif
#   From: 2010.03.12/outbox.cif.g09.slc.cpg/sg83_1_cif.got.tgz:1320.got - 2010.04.08 20:05:18.
