data_PCOD8302787
_publ_section_title
;
Structure prediction by ZEFSAII (Michael W. Deem and Ramdas Pophale) SiO2 
 PCOD8302787
Probable space group: P 4/M
;
_chemical_formula_sum "Si O2"
_cell_formula_units_Z 40
_cell_length_a 15.528308
_cell_length_b 15.528308
_cell_length_c 9.022413
_cell_angle_alpha 90.000000
_cell_angle_beta 90.000000
_cell_angle_gamma 90.000000
_cell_volume 2175.559554
_symmetry_space_group_name_H-M "P 4/M"
_symmetry_group_IT_number 83
_symmetry_cell_setting 'tetragonal'
loop_
_space_group_symop_operation_xyz
x,y,z
-y,x,z
-x,-y,z
y,-x,z
-x,-y,-z
y,-x,-z
x,y,-z
-y,x,-z
loop_
_atom_site_type_symbol
_atom_site_label
_atom_site_fract_x
_atom_site_fract_y
_atom_site_fract_z
Si Si1 0.811203 0.556391 0.674238
Si Si2 0.867330 0.044939 0.329209
Si Si3 0.691927 0.066678 0.174940
Si Si4 0.924423 0.431243 0.836795
Si Si5 0.463087 0.635748 0.169608
O O1 0.820675 0.563953 0.500000
O O2 0.859429 0.636583 0.747364
O O3 0.851085 0.464327 0.725279
O O4 0.711999 0.560395 0.719480
O O5 0.839679 0.053532 0.500000
O O6 0.789905 0.074759 0.225400
O O7 0.946965 0.107180 0.293296
O O8 0.656788 0.970741 0.218137
O O9 0.684497 0.081260 0.000000
O O10 0.000000 0.500000 0.847354
O O11 0.882573 0.418739 0.000000
O O12 0.396169 0.559504 0.201454
O O13 0.454994 0.667271 0.000000
#
# Coordination Sequence:
#
# PCOD8302787 Si02
#       5
#     8   8   8   8   8
#     4  11  21  33  54  83 113 143 177 221 273 323
#     4   9  19  37  58  79 108 145 179 219 275 328
#     4  10  20  35  56  81 109 143 184 226 267 314
#     4   8  16  32  52  74 104 141 177 216 264 315
#     4   9  19  38  61  80 103 141 183 222 268 320
#
# _framework density 18.386074000000001
#
# number of rings (size 3 to 8) (size 9 to 14) (size 15 to 20)
#    0.000    2.600    0.000    4.800    0.000    6.000 
#    3.600    2.000    0.000    0.000    0.000    0.000 
#    0.000    0.000    0.000    0.000    0.000    0.000 
#
# Total GULP energy -495931.357476 kJ/mol
# GULP energy per Si atom -12398.283937 kJ/mol
# Density = 1.834423 g / cm^3
# Si number density = 18.386074 Si / 1000 Ang^3
#
#
#
# Elastic Constant Matrix: (Units=GPa)
#
#
# Indices 1 2 3 4 5 6 
#
# 1 96.0364 38.0782 54.5263 0.0000 0.0000 1.0006
# 2 38.0782 96.0364 54.5263 0.0000 0.0000 -1.0006
# 3 54.5263 54.5263 113.8695 0.0000 0.0000 0.0000
# 4 0.0000 0.0000 0.0000 25.2622 0.0000 0.0000
# 5 0.0000 0.0000 0.0000 0.0000 25.2622 0.0000
# 6 1.0006 -1.0006 0.0000 0.0000 0.0000 15.1523
#
#
#
# Elastic Compliance Matrix: (Units=1/GPa)
#
#
# Indices 1 2 3 4 5 6 
#
# 1 0.014752 -0.002541 -0.005847 0.000000 0.000000 -0.001142
# 2 -0.002541 0.014752 -0.005847 0.000000 0.000000 0.001142
# 3 -0.005847 -0.005847 0.014382 0.000000 0.000000 0.000000
# 4 0.000000 0.000000 0.000000 0.039585 0.000000 0.000000
# 5 0.000000 0.000000 0.000000 0.000000 0.039585 0.000000
# 6 -0.001142 0.001142 0.000000 0.000000 0.000000 0.066147
#
#
# Mechanical properties :
#
#
# Convention : Reuss Voigt Hill
#
# Bulk Modulus (GPa) = 64.87254 66.68930 65.78092
# Shear Modulus (GPa) = 22.44044 23.72278 23.08161
#
# Velocity S-wave (km/s) = 3.49737 3.59591 3.54699
# Velocity P-wave (km/s) = 7.18811 7.32060 7.25466
#
# Compressibility (1/GPa) = 0.01541484
#
# Stress axis : x y z
#
# Youngs Moduli (GPa) = 67.78736 67.78736 69.53250
#
# Poissons Ratio (x) = 0.17226 0.40657
# Poissons Ratio (y) = 0.17226 0.40657
# Poissons Ratio (z) = 0.39636 0.39636
#
# Static dielectric constant tensor:
#      x y z
#    x 3.383430 0.000000 0.000000 
#    y 0.000000 3.383430 0.000000 
#    z 0.000000 0.000000 3.287830 
# 
# 
# High freq. dielectric constant tensor:
#      x y z
#    x 1.704980 0.000000 0.000000 
#    y 0.000000 1.704980 0.000000 
#    z 0.000000 0.000000 1.709930 
# 
# From -- ./inp_files/646.got.cif
#   From: 2010.03.12/outbox.cif.g09.slc.cpg/sg83_1_cif.got.tgz:646.got - 2010.04.08 20:05:18.
