data_PCOD8302323
_publ_section_title
;
Structure prediction by ZEFSAII (Michael W. Deem and Ramdas Pophale) SiO2 
 PCOD8302323
Probable space group: P -4
;
_chemical_formula_sum "Si O2"
_cell_formula_units_Z 15
_cell_length_a 8.658936
_cell_length_b 8.658936
_cell_length_c 9.161897
_cell_angle_alpha 90.000000
_cell_angle_beta 90.000000
_cell_angle_gamma 90.000000
_cell_volume 686.933133
_symmetry_space_group_name_H-M "P -4"
_symmetry_group_IT_number 81
_symmetry_cell_setting 'tetragonal'
loop_
_space_group_symop_operation_xyz
x,y,z
y,-x,-z
-x,-y,z
-y,x,-z
loop_
_atom_site_type_symbol
_atom_site_label
_atom_site_fract_x
_atom_site_fract_y
_atom_site_fract_z
Si Si1 0.172076 0.523460 0.326133
Si Si2 0.000000 0.500000 0.785274
Si Si3 0.503513 0.255539 0.988832
Si Si4 0.271016 0.196410 0.408663
Si Si5 0.000000 0.000000 0.500000
O O1 0.177016 0.568982 0.155882
O O2 0.268566 0.365457 0.339144
O O3 0.232738 0.661303 0.429379
O O4 0.000000 0.500000 0.381165
O O5 0.926226 0.369592 0.683695
O O6 0.866842 0.565454 0.892279
O O7 0.364917 0.354860 0.058769
O O8 0.097363 0.126562 0.408841
#
# Coordination Sequence:
#
# PCOD8302323 Si02
#       5
#     4   2   4   4   1
#     4  12  25  44  69 103 136 181 230 288 346 415
#     4  12  24  46  68 102 138 182 230 288 350 416
#     4  11  26  43  67  97 138 180 230 285 348 412
#     4  12  26  44  71 102 139 180 232 290 349 416
#     4  12  24  44  68 102 140 172 228 298 344 404
#
# _framework density 21.836186999999999
#
# number of rings (size 3 to 8) (size 9 to 14) (size 15 to 20)
#    0.000    0.267    8.000    0.000    7.467    0.533 
#    0.000    0.000    0.000    1.600    0.000    0.000 
#    0.000    0.000    0.000    0.000    0.000    0.000 
#
# Total GULP energy -185938.420162 kJ/mol
# GULP energy per Si atom -12395.894677 kJ/mol
# Density = 2.178649 g / cm^3
# Si number density = 21.836187 Si / 1000 Ang^3
#
#
#
# Elastic Constant Matrix: (Units=GPa)
#
#
# Indices 1 2 3 4 5 6 
#
# 1 84.4442 16.9627 22.4534 0.0000 0.0000 6.3499
# 2 16.9627 84.4442 22.4534 0.0000 0.0000 -6.3499
# 3 22.4534 22.4534 127.9430 0.0000 0.0000 0.0000
# 4 0.0000 0.0000 0.0000 31.4952 0.0000 0.0000
# 5 0.0000 0.0000 0.0000 0.0000 31.4952 0.0000
# 6 6.3499 -6.3499 0.0000 0.0000 0.0000 33.8254
#
#
#
# Elastic Compliance Matrix: (Units=1/GPa)
#
#
# Indices 1 2 3 4 5 6 
#
# 1 0.013027 -0.002335 -0.001876 0.000000 0.000000 -0.002884
# 2 -0.002335 0.013027 -0.001876 0.000000 0.000000 0.002884
# 3 -0.001876 -0.001876 0.008475 0.000000 0.000000 0.000000
# 4 0.000000 0.000000 0.000000 0.031751 0.000000 0.000000
# 5 0.000000 0.000000 0.000000 0.000000 0.031751 0.000000
# 6 -0.002884 0.002884 0.000000 0.000000 0.000000 0.030646
#
#
# Mechanical properties :
#
#
# Convention : Reuss Voigt Hill
#
# Bulk Modulus (GPa) = 44.73616 46.73005 45.73311
# Shear Modulus (GPa) = 33.71485 35.02729 34.37107
#
# Velocity S-wave (km/s) = 3.93363 4.00946 3.97172
# Velocity P-wave (km/s) = 6.41583 6.54837 6.48244
#
# Compressibility (1/GPa) = 0.02235328
#
# Stress axis : x y z
#
# Youngs Moduli (GPa) = 76.76421 76.76421 117.99975
#
# Poissons Ratio (x) = 0.17922 0.22142
# Poissons Ratio (y) = 0.17922 0.22142
# Poissons Ratio (z) = 0.14404 0.14404
#
# Static dielectric constant tensor:
#      x y z
#    x 3.895580 0.000000 0.000000 
#    y 0.000000 3.895580 0.000000 
#    z 0.000000 0.000000 3.830610 
# 
# 
# High freq. dielectric constant tensor:
#      x y z
#    x 1.856620 0.000000 0.000000 
#    y 0.000000 1.856620 0.000000 
#    z 0.000000 0.000000 1.865500 
# 
# From -- ./inp_files/506.got.cif
#   From: 2010.03.12/outbox.cif.g09.slc.cpg/sg81_cif.got.tgz:506.got - 2010.04.08 20:01:38.
