data_PCOD8302957
_publ_section_title
;
Structure prediction by ZEFSAII (Michael W. Deem and Ramdas Pophale) SiO2 
 PCOD8302957
Probable space group: P 4/M
;
_chemical_formula_sum "Si O2"
_cell_formula_units_Z 48
_cell_length_a 8.253731
_cell_length_b 8.253731
_cell_length_c 31.884525
_cell_angle_alpha 90.000000
_cell_angle_beta 90.000000
_cell_angle_gamma 90.000000
_cell_volume 2172.103786
_symmetry_space_group_name_H-M "P 4/M"
_symmetry_group_IT_number 83
_symmetry_cell_setting 'tetragonal'
loop_
_space_group_symop_operation_xyz
x,y,z
-y,x,z
-x,-y,z
y,-x,z
-x,-y,-z
y,-x,-z
x,y,-z
-y,x,-z
loop_
_atom_site_type_symbol
_atom_site_label
_atom_site_fract_x
_atom_site_fract_y
_atom_site_fract_z
Si Si1 0.092905 0.250871 0.244616
Si Si2 0.748220 0.593705 0.926426
Si Si3 0.254492 0.076837 0.453273
Si Si4 0.254747 0.396944 0.831604
Si Si5 0.579744 0.243167 0.679123
Si Si6 0.500000 0.000000 0.611915
Si Si7 0.078943 0.254133 0.000000
O O1 0.115226 0.331691 0.198962
O O2 0.144085 0.385257 0.278530
O O3 0.906375 0.205412 0.250231
O O4 0.591887 0.704157 0.934569
O O5 0.809701 0.623233 0.879038
O O6 0.890261 0.640815 0.958299
O O7 0.328162 0.099288 0.500000
O O8 0.387870 0.111879 0.417899
O O9 0.198547 0.892518 0.447075
O O10 0.415704 0.292728 0.823035
O O11 0.701105 0.393797 0.677295
O O12 0.608068 0.121003 0.640323
O O13 0.895413 0.201002 0.000000
#
# Coordination Sequence:
#
# PCOD8302957 Si02
#       7
#     8   8   8   8   8   4   4
#     4  11  24  40  58  83 115 151 192 239 289 343
#     4   9  19  37  60  84 109 142 187 235 283 342
#     4   9  19  36  58  86 120 157 196 239 290 347
#     4   9  19  37  61  87 113 143 184 235 290 347
#     4  11  24  40  58  82 114 152 194 241 294 351
#     4  12  21  36  60  88 116 152 198 247 292 340
#     4  11  24  37  50  76 116 153 186 231 286 342
#
# _framework density 22.098393999999999
#
# number of rings (size 3 to 8) (size 9 to 14) (size 15 to 20)
#    0.000    1.917    0.000    5.250    0.000    6.667 
#    0.000    6.667    0.000    0.000    0.000    7.000 
#    0.000    0.000    0.000    0.000    0.000    0.000 
#
# Total GULP energy -595304.233004 kJ/mol
# GULP energy per Si atom -12402.171521 kJ/mol
# Density = 2.204810 g / cm^3
# Si number density = 22.098394 Si / 1000 Ang^3
#
#
#
# Elastic Constant Matrix: (Units=GPa)
#
#
# Indices 1 2 3 4 5 6 
#
# 1 51.4139 7.4206 34.5601 0.0000 0.0000 -1.7624
# 2 7.4206 51.4139 34.5601 0.0000 0.0000 1.7624
# 3 34.5601 34.5601 153.2386 0.0000 0.0000 0.0000
# 4 0.0000 0.0000 0.0000 25.1635 0.0000 0.0000
# 5 0.0000 0.0000 0.0000 0.0000 25.1635 0.0000
# 6 -1.7624 1.7624 0.0000 0.0000 0.0000 32.9182
#
#
#
# Elastic Compliance Matrix: (Units=1/GPa)
#
#
# Indices 1 2 3 4 5 6 
#
# 1 0.022976 0.000148 -0.005215 0.000000 0.000000 0.001222
# 2 0.000148 0.022976 -0.005215 0.000000 0.000000 -0.001222
# 3 -0.005215 -0.005215 0.008878 0.000000 0.000000 0.000000
# 4 0.000000 0.000000 0.000000 0.039740 0.000000 0.000000
# 5 0.000000 0.000000 0.000000 0.000000 0.039740 0.000000
# 6 0.001222 -0.001222 0.000000 0.000000 0.000000 0.030509
#
#
# Mechanical properties :
#
#
# Convention : Reuss Voigt Hill
#
# Bulk Modulus (GPa) = 29.18425 45.46088 37.32256
# Shear Modulus (GPa) = 25.40561 28.61742 27.01152
#
# Velocity S-wave (km/s) = 3.39434 3.60252 3.49998
# Velocity P-wave (km/s) = 5.34764 6.15799 5.76707
#
# Compressibility (1/GPa) = 0.03426506
#
# Stress axis : x y z
#
# Youngs Moduli (GPa) = 43.52332 43.52332 112.63650
#
# Poissons Ratio (x) = -0.00642 0.58741
# Poissons Ratio (y) = -0.00642 0.58741
# Poissons Ratio (z) = 0.22698 0.22698
#
# Static dielectric constant tensor:
#      x y z
#    x 3.803090 0.000000 0.000000 
#    y 0.000000 3.803090 0.000000 
#    z 0.000000 0.000000 4.048140 
# 
# 
# High freq. dielectric constant tensor:
#      x y z
#    x 1.862870 0.000000 0.000000 
#    y 0.000000 1.862870 0.000000 
#    z 0.000000 0.000000 1.880920 
# 
# From -- ./inp_files/3491.got.cif
#   From: 2010.03.12/outbox.cif.g09.slc.cpg/sg83_2_cif.got.tgz:3491.got - 2010.04.08 20:05:18.
