data_PCOD8302381
_publ_section_title
;
Structure prediction by ZEFSAII (Michael W. Deem and Ramdas Pophale) SiO2 
 PCOD8302381
Probable space group: I -4 
;
_chemical_formula_sum "Si O2"
_cell_formula_units_Z 48
_cell_length_a 8.292773
_cell_length_b 8.292773
_cell_length_c 33.072574
_cell_angle_alpha 90.000000
_cell_angle_beta 90.000000
_cell_angle_gamma 90.000000
_cell_volume 2274.403693
_symmetry_space_group_name_H-M "I -4 "
_symmetry_group_IT_number 82
_symmetry_cell_setting 'tetragonal'
loop_
_space_group_symop_operation_xyz
x,y,z
y,-x,-z
-x,-y,z
-y,x,-z
1/2+x,1/2+y,1/2+z
1/2+y,1/2-x,1/2-z
1/2-x,1/2-y,1/2+z
1/2-y,1/2+x,1/2-z
loop_
_atom_site_type_symbol
_atom_site_label
_atom_site_fract_x
_atom_site_fract_y
_atom_site_fract_z
Si Si1 0.265618 0.117477 0.758456
Si Si2 0.760296 0.900696 0.494924
Si Si3 0.403307 0.241920 0.331026
Si Si4 0.752044 0.228775 0.587991
Si Si5 0.500000 0.500000 0.871500
Si Si6 0.765774 0.393434 0.815275
Si Si7 0.500000 0.000000 0.554938
O O1 0.435150 0.211317 0.756551
O O2 0.184982 0.122993 0.803226
O O3 0.138732 0.206755 0.729882
O O4 0.694794 0.813235 0.454276
O O5 0.912897 0.805397 0.513243
O O6 0.619725 0.893516 0.527715
O O7 0.364685 0.275291 0.378081
O O8 0.597319 0.237622 0.327497
O O9 0.333643 0.072805 0.316085
O O10 0.587994 0.129379 0.583211
O O11 0.891240 0.106106 0.599864
O O12 0.612278 0.381053 0.844874
#
# Coordination Sequence:
#
# PCOD8302381 Si02
#       7
#     8   8   8   8   4   8   4
#     4  11  23  38  57  82 116 158 200 238 283 343
#     4   9  18  35  58  84 109 146 189 230 287 353
#     4  10  22  37  58  87 116 149 191 242 291 335
#     4  10  20  36  57  85 115 146 192 240 286 345
#     4  10  20  36  61  86 112 150 190 236 287 336
#     4  10  21  38  58  84 116 152 191 235 286 343
#     4  10  20  34  60  84 113 150 185 236 288 346
#
# _framework density 21.104431999999999
#
# number of rings (size 3 to 8) (size 9 to 14) (size 15 to 20)
#    0.000    2.000    0.000    5.000    0.000    8.667 
#    0.000    0.000    0.000   16.000    0.000    0.000 
#    0.000    0.000    0.000    0.000    0.000    0.000 
#
# Total GULP energy -297610.621834 kJ/mol
# GULP energy per Si atom -12400.442576 kJ/mol
# Density = 2.105640 g / cm^3
# Si number density = 21.104432 Si / 1000 Ang^3
#
#
#
# Elastic Constant Matrix: (Units=GPa)
#
#
# Indices 1 2 3 4 5 6 
#
# 1 74.3271 13.6490 32.8955 0.0000 0.0000 -1.4802
# 2 13.6490 74.3271 32.8954 0.0000 0.0000 1.4802
# 3 32.8955 32.8954 108.9906 0.0000 0.0000 0.0000
# 4 0.0000 0.0000 0.0000 30.2718 0.0000 0.0000
# 5 0.0000 0.0000 0.0000 0.0000 30.2718 0.0000
# 6 -1.4802 1.4802 0.0000 0.0000 0.0000 21.4480
#
#
#
# Elastic Compliance Matrix: (Units=1/GPa)
#
#
# Indices 1 2 3 4 5 6 
#
# 1 0.015608 -0.000928 -0.004431 0.000000 0.000000 0.001141
# 2 -0.000928 0.015608 -0.004431 0.000000 0.000000 -0.001141
# 3 -0.004431 -0.004431 0.011850 0.000000 0.000000 0.000000
# 4 0.000000 0.000000 0.000000 0.033034 0.000000 0.000000
# 5 0.000000 0.000000 0.000000 0.000000 0.033034 0.000000
# 6 0.001141 -0.001141 0.000000 0.000000 0.000000 0.046782
#
#
# Mechanical properties :
#
#
# Convention : Reuss Voigt Hill
#
# Bulk Modulus (GPa) = 42.57677 46.28051 44.42864
# Shear Modulus (GPa) = 27.27415 28.27866 27.77641
#
# Velocity S-wave (km/s) = 3.59882 3.66449 3.63180
# Velocity P-wave (km/s) = 6.12264 6.31518 6.21966
#
# Compressibility (1/GPa) = 0.02348699
#
# Stress axis : x y z
#
# Youngs Moduli (GPa) = 64.06923 64.06920 84.39049
#
# Poissons Ratio (x) = 0.05945 0.37391
# Poissons Ratio (y) = 0.05945 0.37391
# Poissons Ratio (z) = 0.28387 0.28387
#
# Static dielectric constant tensor:
#      x y z
#    x 3.870440 0.000000 0.000000 
#    y 0.000000 3.870440 0.000000 
#    z 0.000000 0.000000 3.950310 
# 
# 
# High freq. dielectric constant tensor:
#      x y z
#    x 1.820150 0.000000 0.000000 
#    y 0.000000 1.820150 0.000000 
#    z 0.000000 0.000000 1.829960 
# 
# From -- ./inp_files/4083.got.cif
#   From: 2010.03.12/outbox.cif.g09.slc.cpg/sg82_3_cif.got.tgz:4083.got - 2010.04.08 20:02:50.
