data_PCOD8302305
_publ_section_title
;
Structure prediction by ZEFSAII (Michael W. Deem and Ramdas Pophale) SiO2 
 PCOD8302305
Probable space group: P -4
;
_chemical_formula_sum "Si O2"
_cell_formula_units_Z 17
_cell_length_a 9.081367
_cell_length_b 9.081367
_cell_length_c 10.239199
_cell_angle_alpha 90.000000
_cell_angle_beta 90.000000
_cell_angle_gamma 90.000000
_cell_volume 844.439301
_symmetry_space_group_name_H-M "P -4"
_symmetry_group_IT_number 81
_symmetry_cell_setting 'tetragonal'
loop_
_space_group_symop_operation_xyz
x,y,z
y,-x,-z
-x,-y,z
-y,x,-z
loop_
_atom_site_type_symbol
_atom_site_label
_atom_site_fract_x
_atom_site_fract_y
_atom_site_fract_z
Si Si1 0.718963 0.626244 0.128778
Si Si2 0.626674 0.314579 0.151693
Si Si3 0.000000 0.000000 0.500000
Si Si4 0.791208 0.761001 0.386478
Si Si5 0.462435 0.841840 0.396416
O O1 0.737087 0.453439 0.162451
O O2 0.544508 0.648987 0.135479
O O3 0.808546 0.724641 0.232672
O O4 0.774958 0.667505 0.981998
O O5 0.645111 0.228101 0.287217
O O6 0.120695 0.087120 0.412746
O O7 0.617485 0.760813 0.422703
O O8 0.857948 0.627397 0.469783
O O9 0.500000 0.000000 0.338464
#
# Coordination Sequence:
#
# PCOD8302305 Si02
#       5
#     4   4   1   4   4
#     4   8  15  31  57  86 111 140 184 241 298 333
#     4   8  15  30  56  88 115 134 179 253 296 326
#     4  12  24  40  56  78 132 164 180 234 296 348
#     4  11  22  38  60  83 114 154 194 237 286 342
#     4  11  21  35  58  84 113 151 196 235 286 342
#
# _framework density 20.131699999999999
#
# number of rings (size 3 to 8) (size 9 to 14) (size 15 to 20)
#    0.000    2.353    2.353    2.824    0.000    2.353 
#    0.000    1.176   10.353    1.412    0.000    0.000 
#    0.000    0.000    0.000    0.000    0.000    0.000 
#
# Total GULP energy -210627.199954 kJ/mol
# GULP energy per Si atom -12389.835291 kJ/mol
# Density = 2.008588 g / cm^3
# Si number density = 20.131700 Si / 1000 Ang^3
#
#
#
# Elastic Constant Matrix: (Units=GPa)
#
#
# Indices 1 2 3 4 5 6 
#
# 1 61.1294 12.4156 37.2221 0.0000 0.0000 -1.5165
# 2 12.4156 61.1294 37.2221 0.0000 0.0000 1.5165
# 3 37.2221 37.2221 143.6550 0.0000 0.0000 0.0000
# 4 0.0000 0.0000 0.0000 15.9129 0.0000 0.0000
# 5 0.0000 0.0000 0.0000 0.0000 15.9129 0.0000
# 6 -1.5165 1.5165 0.0000 0.0000 0.0000 22.1723
#
#
#
# Elastic Compliance Matrix: (Units=1/GPa)
#
#
# Indices 1 2 3 4 5 6 
#
# 1 0.019524 -0.001092 -0.004776 0.000000 0.000000 0.001410
# 2 -0.001092 0.019524 -0.004776 0.000000 0.000000 -0.001410
# 3 -0.004776 -0.004776 0.009436 0.000000 0.000000 0.000000
# 4 0.000000 0.000000 0.000000 0.062842 0.000000 0.000000
# 5 0.000000 0.000000 0.000000 0.000000 0.062842 0.000000
# 6 0.001410 -0.001410 0.000000 0.000000 0.000000 0.045294
#
#
# Mechanical properties :
#
#
# Convention : Reuss Voigt Hill
#
# Bulk Modulus (GPa) = 36.77057 48.84814 42.80936
# Shear Modulus (GPa) = 20.01487 22.73654 21.37570
#
# Velocity S-wave (km/s) = 3.15651 3.36429 3.26205
# Velocity P-wave (km/s) = 5.62044 6.27759 5.95809
#
# Compressibility (1/GPa) = 0.02719566
#
# Stress axis : x y z
#
# Youngs Moduli (GPa) = 51.22031 51.22031 105.97778
#
# Poissons Ratio (x) = 0.05595 0.50611
# Poissons Ratio (y) = 0.05595 0.50611
# Poissons Ratio (z) = 0.24461 0.24461
#
# Static dielectric constant tensor:
#      x y z
#    x 3.495360 0.000000 0.000000 
#    y 0.000000 3.495360 0.000000 
#    z 0.000000 0.000000 3.978360 
# 
# 
# High freq. dielectric constant tensor:
#      x y z
#    x 1.756700 0.000000 0.000000 
#    y 0.000000 1.756700 0.000000 
#    z 0.000000 0.000000 1.796140 
# 
# From -- ./inp_files/708.got.cif
#   From: 2010.03.12/outbox.cif.g09.slc.cpg/sg81_cif.got.tgz:708.got - 2010.04.08 20:01:38.
