data_PCOD8302453
_publ_section_title
;
Structure prediction by ZEFSAII (Michael W. Deem and Ramdas Pophale) SiO2 
 PCOD8302453
Probable space group: I -4 
;
_chemical_formula_sum "Si O2"
_cell_formula_units_Z 56
_cell_length_a 15.329840
_cell_length_b 15.329840
_cell_length_c 11.412437
_cell_angle_alpha 90.000000
_cell_angle_beta 90.000000
_cell_angle_gamma 90.000000
_cell_volume 2681.968281
_symmetry_space_group_name_H-M "I -4 "
_symmetry_group_IT_number 82
_symmetry_cell_setting 'tetragonal'
loop_
_space_group_symop_operation_xyz
x,y,z
y,-x,-z
-x,-y,z
-y,x,-z
1/2+x,1/2+y,1/2+z
1/2+y,1/2-x,1/2-z
1/2-x,1/2-y,1/2+z
1/2-y,1/2+x,1/2-z
loop_
_atom_site_type_symbol
_atom_site_label
_atom_site_fract_x
_atom_site_fract_y
_atom_site_fract_z
Si Si1 0.351983 0.255383 0.811372
Si Si2 0.307358 0.097523 0.968223
Si Si3 0.310664 0.144769 0.229148
Si Si4 0.379413 0.969743 0.799904
Si Si5 0.129360 0.941199 0.494938
Si Si6 0.235876 0.966491 0.263150
Si Si7 0.366664 0.482860 0.533904
O O1 0.304820 0.181732 0.887078
O O2 0.278861 0.300508 0.731383
O O3 0.423947 0.212487 0.726896
O O4 0.397247 0.325391 0.894412
O O5 0.373859 0.023598 0.920865
O O6 0.337630 0.124552 0.096377
O O7 0.212298 0.056146 0.961140
O O8 0.390639 0.199181 0.285186
O O9 0.293548 0.052418 0.293977
O O10 0.459303 0.900704 0.804290
O O11 0.188250 0.932914 0.379343
O O12 0.040720 0.888977 0.470558
O O13 0.164072 0.988157 0.163672
O O14 0.406331 0.561316 0.456386
#
# Coordination Sequence:
#
# PCOD8302453 Si02
#       7
#     8   8   8   8   8   8   8
#     4  11  22  43  69  98 137 176 228 276 340 405
#     4  10  22  40  65  98 135 174 222 279 329 407
#     4  11  24  44  68  95 138 176 228 277 338 409
#     4   9  21  42  66 100 133 173 223 282 338 394
#     4  11  24  42  68  99 136 179 222 277 336 400
#     4  11  24  46  65 100 137 178 227 275 339 407
#     4  10  23  40  64  96 135 177 221 278 341 395
#
# _framework density 20.880186999999999
#
# number of rings (size 3 to 8) (size 9 to 14) (size 15 to 20)
#    0.000    1.571    2.857    0.857    4.000    6.000 
#    5.143    2.857    0.000    0.000    0.000    0.000 
#    0.000    0.000    0.000    0.000    0.000    0.000 
#
# Total GULP energy -347164.439811 kJ/mol
# GULP energy per Si atom -12398.729993 kJ/mol
# Density = 2.083266 g / cm^3
# Si number density = 20.880187 Si / 1000 Ang^3
#
#
#
# Elastic Constant Matrix: (Units=GPa)
#
#
# Indices 1 2 3 4 5 6 
#
# 1 109.3671 56.0699 25.2625 0.0000 0.0000 3.0273
# 2 56.0699 109.3671 25.2625 0.0000 0.0000 -3.0273
# 3 25.2625 25.2625 74.0129 0.0000 0.0000 0.0000
# 4 0.0000 0.0000 0.0000 30.9601 0.0000 0.0000
# 5 0.0000 0.0000 0.0000 0.0000 30.9601 0.0000
# 6 3.0273 -3.0273 0.0000 0.0000 0.0000 52.5182
#
#
#
# Elastic Compliance Matrix: (Units=1/GPa)
#
#
# Indices 1 2 3 4 5 6 
#
# 1 0.012817 -0.006069 -0.002303 0.000000 0.000000 -0.001089
# 2 -0.006069 0.012817 -0.002303 0.000000 0.000000 0.001089
# 3 -0.002303 -0.002303 0.015083 0.000000 0.000000 0.000000
# 4 0.000000 0.000000 0.000000 0.032300 0.000000 0.000000
# 5 0.000000 0.000000 0.000000 0.000000 0.032300 0.000000
# 6 -0.001089 0.001089 0.000000 0.000000 0.000000 0.019167
#
#
# Mechanical properties :
#
#
# Convention : Reuss Voigt Hill
#
# Bulk Modulus (GPa) = 51.63570 56.21520 53.92545
# Shear Modulus (GPa) = 32.83195 35.29782 34.06489
#
# Velocity S-wave (km/s) = 3.96965 4.11602 4.04350
# Velocity P-wave (km/s) = 6.76713 7.04060 6.90522
#
# Compressibility (1/GPa) = 0.01936645
#
# Stress axis : x y z
#
# Youngs Moduli (GPa) = 78.02017 78.02017 66.29765
#
# Poissons Ratio (x) = 0.47352 0.15270
# Poissons Ratio (y) = 0.47352 0.15270
# Poissons Ratio (z) = 0.17970 0.17970
#
# Static dielectric constant tensor:
#      x y z
#    x 4.008040 0.000000 0.000000 
#    y 0.000000 4.008040 0.000000 
#    z 0.000000 0.000000 3.505960 
# 
# 
# High freq. dielectric constant tensor:
#      x y z
#    x 1.831660 0.000000 0.000000 
#    y 0.000000 1.831660 0.000000 
#    z 0.000000 0.000000 1.796030 
# 
# From -- ./inp_files/1858.got.cif
#   From: 2010.03.12/outbox.cif.g09.slc.cpg/sg82_1_cif.got.tgz:1858.got - 2010.04.08 20:02:50.
