data_PCOD8302672
_publ_section_title
;
Structure prediction by ZEFSAII (Michael W. Deem and Ramdas Pophale) SiO2 
 PCOD8302672
Probable space group: P 4/M
;
_chemical_formula_sum "Si O2"
_cell_formula_units_Z 56
_cell_length_a 15.285783
_cell_length_b 15.285783
_cell_length_c 19.307945
_cell_angle_alpha 90.000000
_cell_angle_beta 90.000000
_cell_angle_gamma 90.000000
_cell_volume 4511.401015
_symmetry_space_group_name_H-M "P 4/M"
_symmetry_group_IT_number 83
_symmetry_cell_setting 'tetragonal'
loop_
_space_group_symop_operation_xyz
x,y,z
-y,x,z
-x,-y,z
y,-x,z
-x,-y,-z
y,-x,-z
x,y,-z
-y,x,-z
loop_
_atom_site_type_symbol
_atom_site_label
_atom_site_fract_x
_atom_site_fract_y
_atom_site_fract_z
Si Si1 0.159303 0.195489 0.580458
Si Si2 0.972812 0.143007 0.222727
Si Si3 0.342176 0.705697 0.417449
Si Si4 0.761862 0.976121 0.360514
Si Si5 0.249881 0.533327 0.582213
Si Si6 0.584118 0.941075 0.579521
Si Si7 0.026998 0.857950 0.073085
O O1 0.141742 0.211681 0.500000
O O2 0.222759 0.272182 0.609911
O O3 0.203375 0.101622 0.591069
O O4 0.067175 0.193769 0.619234
O O5 0.956953 0.216857 0.280331
O O6 0.963586 0.191643 0.147102
O O7 0.068283 0.100276 0.231097
O O8 0.341683 0.708480 0.500000
O O9 0.438504 0.725090 0.386624
O O10 0.316613 0.608177 0.391936
O O11 0.658108 0.983084 0.371929
O O12 0.250208 0.525845 0.500000
O O13 0.154315 0.560616 0.608129
O O14 0.617308 0.937561 0.500000
O O15 0.500000 0.000000 0.586311
O O16 0.932057 0.900171 0.072610
O O17 0.037482 0.802798 0.000000
#
# Coordination Sequence:
#
# PCOD8302672 Si02
#       7
#     8   8   8   8   8   8   8
#     4  11  21  30  38  50  70  98 133 163 186 223
#     4   9  16  26  35  51  78 102 122 148 185 222
#     4   9  17  29  42  56  70  84 111 155 202 242
#     4  12  20  29  40  53  73 100 126 158 194 226
#     4   9  16  27  42  56  70  85 107 151 203 241
#     4  10  19  31  43  53  66  93 134 167 191 221
#     4   7  10  18  34  51  68  94 124 147 171 211
#
# _framework density 12.412995
#
# number of rings (size 3 to 8) (size 9 to 14) (size 15 to 20)
#    0.000    2.429    2.857    3.429    0.000    2.857 
#    0.000    2.143    0.000    0.000    0.000    0.000 
#    0.000    0.571    0.000    0.000    0.000    0.000 
#
# Total GULP energy -693871.505680 kJ/mol
# GULP energy per Si atom -12390.562601 kJ/mol
# Density = 1.238474 g / cm^3
# Si number density = 12.412995 Si / 1000 Ang^3
#
#
#
# Elastic Constant Matrix: (Units=GPa)
#
#
# Indices 1 2 3 4 5 6 
#
# 1 61.8920 13.8714 17.4269 0.0000 0.0000 3.6442
# 2 13.8714 61.8920 17.4269 0.0000 0.0000 -3.6442
# 3 17.4269 17.4269 63.8821 0.0000 0.0000 0.0000
# 4 0.0000 0.0000 0.0000 6.3080 0.0000 0.0000
# 5 0.0000 0.0000 0.0000 0.0000 6.3080 0.0000
# 6 3.6442 -3.6442 0.0000 0.0000 0.0000 16.0459
#
#
#
# Elastic Compliance Matrix: (Units=1/GPa)
#
#
# Indices 1 2 3 4 5 6 
#
# 1 0.018330 -0.003237 -0.004117 0.000000 0.000000 -0.004898
# 2 -0.003237 0.018330 -0.004117 0.000000 0.000000 0.004898
# 3 -0.004117 -0.004117 0.017900 0.000000 0.000000 0.000000
# 4 0.000000 0.000000 0.000000 0.158529 0.000000 0.000000
# 5 0.000000 0.000000 0.000000 0.000000 0.158529 0.000000
# 6 -0.004898 0.004898 0.000000 0.000000 0.000000 0.064546
#
#
# Mechanical properties :
#
#
# Convention : Reuss Voigt Hill
#
# Bulk Modulus (GPa) = 31.62856 31.67962 31.65409
# Shear Modulus (GPa) = 10.64627 14.99510 12.82068
#
# Velocity S-wave (km/s) = 2.93178 3.47942 3.21728
# Velocity P-wave (km/s) = 6.08243 6.45899 6.27354
#
# Compressibility (1/GPa) = 0.03161700
#
# Stress axis : x y z
#
# Youngs Moduli (GPa) = 54.55394 54.55394 55.86507
#
# Poissons Ratio (x) = 0.17661 0.23002
# Poissons Ratio (y) = 0.17661 0.23002
# Poissons Ratio (z) = 0.22462 0.22462
#
# Static dielectric constant tensor:
#      x y z
#    x 2.526010 0.000000 0.000000 
#    y 0.000000 2.526010 0.000000 
#    z 0.000000 0.000000 2.522370 
# 
# 
# High freq. dielectric constant tensor:
#      x y z
#    x 1.461330 0.000000 0.000000 
#    y 0.000000 1.461330 0.000000 
#    z 0.000000 0.000000 1.428900 
# 
# From -- ./inp_files/2714.got.cif
#   From: 2010.03.12/outbox.cif.g09.slc.cpg/sg83_2_cif.got.tgz:2714.got - 2010.04.08 20:05:18.
