data_PCOD8302007
_publ_section_title
;
Structure prediction by ZEFSAII (Michael W. Deem and Ramdas Pophale) SiO2 
 PCOD8302007
Probable space group: P 43
;
_chemical_formula_sum "Si O2"
_cell_formula_units_Z 32
_cell_length_a 13.720645
_cell_length_b 13.720645
_cell_length_c 9.177459
_cell_angle_alpha 90.000000
_cell_angle_beta 90.000000
_cell_angle_gamma 90.000000
_cell_volume 1727.712632
_symmetry_space_group_name_H-M "P 43"
_symmetry_group_IT_number 78
_symmetry_cell_setting 'tetragonal'
loop_
_space_group_symop_operation_xyz
x,y,z
-y,x,3/4+z
-x,-y,1/2+z
y,-x,1/4+z
loop_
_atom_site_type_symbol
_atom_site_label
_atom_site_fract_x
_atom_site_fract_y
_atom_site_fract_z
Si Si1 0.139001 0.234293 0.674810
Si Si2 0.418783 0.098010 0.569715
Si Si3 0.365747 0.128266 0.075243
Si Si4 0.574280 0.116439 0.980440
Si Si5 0.746628 0.621545 0.982584
Si Si6 0.258376 0.070348 0.804048
Si Si7 0.625603 0.086947 0.672726
Si Si8 0.254093 0.597953 0.586624
O O1 0.225611 0.296307 0.600596
O O2 0.174437 0.124904 0.712114
O O3 0.117017 0.281365 0.830448
O O4 0.042939 0.228901 0.573374
O O5 0.358975 0.081188 0.717477
O O6 0.528097 0.131699 0.603899
O O7 0.374577 0.178810 0.463938
O O8 0.421679 0.999004 0.482028
O O9 0.461797 0.150638 0.978311
O O10 0.350194 0.217457 0.187624
O O11 0.382507 0.030960 0.172106
O O12 0.274963 0.117948 0.964359
O O13 0.625200 0.164237 0.119356
O O14 0.632679 0.138107 0.831257
O O15 0.647627 0.645746 0.892493
O O16 0.732415 0.517487 0.060917
#
# Coordination Sequence:
#
# PCOD8302007 Si02
#       8
#     4   4   4   4   4   4   4   4
#     4  11  23  38  62  87 119 162 208 252 312 372
#     4  11  18  32  62  90 118 143 200 248 316 345
#     4   9  20  32  56  86 118 145 190 246 312 345
#     4  10  19  32  55  91 120 143 183 260 309 353
#     4  11  23  38  62  87 119 162 208 252 312 372
#     4  11  22  39  59  88 121 162 201 253 304 381
#     4  10  19  32  55  91 120 143 183 260 309 353
#     4  11  22  39  59  88 121 162 201 253 304 381
#
# _framework density 18.521598000000001
#
# number of rings (size 3 to 8) (size 9 to 14) (size 15 to 20)
#    0.000    1.500    6.250    0.000    1.750    0.000 
#    0.000    0.000   16.500    0.000    0.000    0.000 
#    0.000    0.000    0.000    0.000    0.000    0.000 
#
# Total GULP energy -396605.930224 kJ/mol
# GULP energy per Si atom -12393.935320 kJ/mol
# Density = 1.847944 g / cm^3
# Si number density = 18.521598 Si / 1000 Ang^3
#
#
#
# Elastic Constant Matrix: (Units=GPa)
#
#
# Indices 1 2 3 4 5 6 
#
# 1 63.6022 35.0638 25.6158 0.0000 0.0000 1.1741
# 2 35.0638 63.6022 25.6158 0.0000 0.0000 -1.1741
# 3 25.6158 25.6158 84.2687 0.0000 0.0000 0.0000
# 4 0.0000 0.0000 0.0000 28.1254 0.0000 0.0000
# 5 0.0000 0.0000 0.0000 0.0000 28.1254 0.0000
# 6 1.1741 -1.1741 0.0000 0.0000 0.0000 27.5096
#
#
#
# Elastic Compliance Matrix: (Units=1/GPa)
#
#
# Indices 1 2 3 4 5 6 
#
# 1 0.023599 -0.011565 -0.003658 0.000000 0.000000 -0.001501
# 2 -0.011565 0.023599 -0.003658 0.000000 0.000000 0.001501
# 3 -0.003658 -0.003658 0.014091 0.000000 0.000000 0.000000
# 4 0.000000 0.000000 0.000000 0.035555 0.000000 0.000000
# 5 0.000000 0.000000 0.000000 0.000000 0.035555 0.000000
# 6 -0.001501 0.001501 0.000000 0.000000 0.000000 0.036479
#
#
# Mechanical properties :
#
#
# Convention : Reuss Voigt Hill
#
# Bulk Modulus (GPa) = 42.50399 42.67376 42.58887
# Shear Modulus (GPa) = 23.31181 25.09725 24.20453
#
# Velocity S-wave (km/s) = 3.55156 3.68506 3.61893
# Velocity P-wave (km/s) = 6.31002 6.41843 6.36445
#
# Compressibility (1/GPa) = 0.02352720
#
# Stress axis : x y z
#
# Youngs Moduli (GPa) = 42.37408 42.37408 70.96786
#
# Poissons Ratio (x) = 0.49004 0.25962
# Poissons Ratio (y) = 0.49004 0.25962
# Poissons Ratio (z) = 0.15502 0.15502
#
# Static dielectric constant tensor:
#      x y z
#    x 3.193640 0.000000 0.000000 
#    y 0.000000 3.193640 0.000000 
#    z 0.000000 0.000000 3.560330 
# 
# 
# High freq. dielectric constant tensor:
#      x y z
#    x 1.695550 0.000000 0.000000 
#    y 0.000000 1.695550 0.000000 
#    z 0.000000 0.000000 1.733420 
# 
# From -- ./inp_files/745.got.cif
#   From: 2010.03.12/outbox.cif.g09.slc.cpg/sg78_cif.got.tgz:745.got - 2010.04.16 16:37:20.
