data_PCOD8302571
_publ_section_title
;
Structure prediction by ZEFSAII (Michael W. Deem and Ramdas Pophale) SiO2 
 PCOD8302571
Probable space group: I -4 
;
_chemical_formula_sum "Si O2"
_cell_formula_units_Z 52
_cell_length_a 20.223107
_cell_length_b 20.223107
_cell_length_c 5.342774
_cell_angle_alpha 90.000000
_cell_angle_beta 90.000000
_cell_angle_gamma 90.000000
_cell_volume 2185.055957
_symmetry_space_group_name_H-M "I -4 "
_symmetry_group_IT_number 82
_symmetry_cell_setting 'tetragonal'
loop_
_space_group_symop_operation_xyz
x,y,z
y,-x,-z
-x,-y,z
-y,x,-z
1/2+x,1/2+y,1/2+z
1/2+y,1/2-x,1/2-z
1/2-x,1/2-y,1/2+z
1/2-y,1/2+x,1/2-z
loop_
_atom_site_type_symbol
_atom_site_label
_atom_site_fract_x
_atom_site_fract_y
_atom_site_fract_z
Si Si1 0.516803 0.138275 0.540992
Si Si2 0.000000 0.000000 0.000000
Si Si3 0.000000 0.500000 0.250000
Si Si4 0.819928 0.982149 0.353281
Si Si5 0.274113 0.785903 0.120825
Si Si6 0.309168 0.074304 0.477383
Si Si7 0.256273 0.571946 0.470588
Si Si8 0.429785 0.386498 0.801811
O O1 0.545167 0.151007 0.262435
O O2 0.450874 0.182002 0.601049
O O3 0.495936 0.062215 0.562221
O O4 0.570433 0.150614 0.762984
O O5 0.933158 0.021283 0.856777
O O6 0.757914 0.967741 0.536007
O O7 0.855723 0.912520 0.309795
O O8 0.788793 0.009023 0.103056
O O9 0.878923 0.031827 0.435728
O O10 0.257617 0.752075 0.384788
O O11 0.352100 0.787897 0.085478
O O12 0.247188 0.861107 0.133146
O O13 0.308605 0.582045 0.251322
#
# Coordination Sequence:
#
# PCOD8302571 Si02
#       8
#     8   2   2   8   8   8   8   8
#     4  11  26  48  77 111 147 198 240 326 387 468
#     4  12  24  38  64 104 150 192 264 318 368 438
#     4  12  28  50  88 118 152 194 264 322 408 486
#     4  11  25  40  72  96 147 196 248 313 376 451
#     4  12  28  46  74 107 145 200 258 313 378 463
#     4  11  25  49  72 110 150 196 257 307 394 461
#     4  11  26  47  70 102 150 193 248 313 385 453
#     4  12  23  43  63 103 143 195 248 311 370 449
#
# _framework density 23.798019
#
# number of rings (size 3 to 8) (size 9 to 14) (size 15 to 20)
#    0.000    0.615    3.077    3.692    4.308    5.538 
#    0.000    0.000    0.000    0.000    0.000    0.000 
#    0.000    0.000    0.000    0.000    0.000    0.000 
#
# Total GULP energy -322141.417397 kJ/mol
# GULP energy per Si atom -12390.054515 kJ/mol
# Density = 2.374385 g / cm^3
# Si number density = 23.798019 Si / 1000 Ang^3
#
#
#
# Elastic Constant Matrix: (Units=GPa)
#
#
# Indices 1 2 3 4 5 6 
#
# 1 132.2927 38.7826 19.2864 0.0000 0.0000 0.3600
# 2 38.7826 132.2927 19.2864 0.0000 0.0000 -0.3600
# 3 19.2864 19.2864 85.3647 0.0000 0.0000 0.0000
# 4 0.0000 0.0000 0.0000 27.1973 0.0000 0.0000
# 5 0.0000 0.0000 0.0000 0.0000 27.1973 0.0000
# 6 0.3600 -0.3600 0.0000 0.0000 0.0000 36.8841
#
#
#
# Elastic Compliance Matrix: (Units=1/GPa)
#
#
# Indices 1 2 3 4 5 6 
#
# 1 0.008427 -0.002268 -0.001392 0.000000 0.000000 -0.000104
# 2 -0.002268 0.008427 -0.001392 0.000000 0.000000 0.000104
# 3 -0.001392 -0.001392 0.012343 0.000000 0.000000 0.000000
# 4 0.000000 0.000000 0.000000 0.036768 0.000000 0.000000
# 5 0.000000 0.000000 0.000000 0.000000 0.036768 0.000000
# 6 -0.000104 0.000104 0.000000 0.000000 0.000000 0.027114
#
#
# Mechanical properties :
#
#
# Convention : Reuss Voigt Hill
#
# Bulk Modulus (GPa) = 52.36874 56.07344 54.22109
# Shear Modulus (GPa) = 34.17290 36.42873 35.30081
#
# Velocity S-wave (km/s) = 3.79351 3.91672 3.85561
# Velocity P-wave (km/s) = 6.42191 6.63835 6.53102
#
# Compressibility (1/GPa) = 0.01909536
#
# Stress axis : x y z
#
# Youngs Moduli (GPa) = 118.66638 118.66638 81.01616
#
# Poissons Ratio (x) = 0.26912 0.11274
# Poissons Ratio (y) = 0.26912 0.11274
# Poissons Ratio (z) = 0.16513 0.16513
#
# Static dielectric constant tensor:
#      x y z
#    x 4.847510 0.000000 0.000000 
#    y 0.000000 4.847510 0.000000 
#    z 0.000000 0.000000 4.007530 
# 
# 
# High freq. dielectric constant tensor:
#      x y z
#    x 1.961430 0.000000 0.000000 
#    y 0.000000 1.961430 0.000000 
#    z 0.000000 0.000000 1.926440 
# 
# From -- ./inp_files/402.got.cif
#   From: 2010.03.12/outbox.cif.g09.slc.cpg/sg82_1_cif.got.tgz:402.got - 2010.04.08 20:02:50.
