data_PCOD8302406
_publ_section_title
;
Structure prediction by ZEFSAII (Michael W. Deem and Ramdas Pophale) SiO2 
 PCOD8302406
Probable space group: I -4 
;
_chemical_formula_sum "Si O2"
_cell_formula_units_Z 56
_cell_length_a 11.402439
_cell_length_b 11.402439
_cell_length_c 20.273317
_cell_angle_alpha 90.000000
_cell_angle_beta 90.000000
_cell_angle_gamma 90.000000
_cell_volume 2635.847781
_symmetry_space_group_name_H-M "I -4 "
_symmetry_group_IT_number 82
_symmetry_cell_setting 'tetragonal'
loop_
_space_group_symop_operation_xyz
x,y,z
y,-x,-z
-x,-y,z
-y,x,-z
1/2+x,1/2+y,1/2+z
1/2+y,1/2-x,1/2-z
1/2-x,1/2-y,1/2+z
1/2-y,1/2+x,1/2-z
loop_
_atom_site_type_symbol
_atom_site_label
_atom_site_fract_x
_atom_site_fract_y
_atom_site_fract_z
Si Si1 0.400721 0.593592 0.083196
Si Si2 0.925423 0.884090 0.268477
Si Si3 0.500401 0.312919 0.395112
Si Si4 0.830624 0.491885 0.483676
Si Si5 0.673465 0.956686 0.225857
Si Si6 0.799827 0.493279 0.989752
Si Si7 0.314883 0.495558 0.361843
O O1 0.500000 0.500000 0.066003
O O2 0.347612 0.567216 0.155566
O O3 0.291683 0.571720 0.036374
O O4 0.456502 0.725007 0.073191
O O5 0.790165 0.905670 0.256471
O O6 0.974787 0.787014 0.215780
O O7 0.000000 0.000000 0.253223
O O8 0.473529 0.283880 0.471249
O O9 0.516857 0.194352 0.351736
O O10 0.388137 0.376592 0.364307
O O11 0.613914 0.395126 0.392060
O O12 0.899198 0.596515 0.522500
O O13 0.799437 0.523081 0.407672
O O14 0.897854 0.368180 0.477793
O O15 0.571969 0.860404 0.232589
#
# Coordination Sequence:
#
# PCOD8302406 Si02
#       7
#     8   8   8   8   8   8   8
#     4  11  23  43  69  89 127 178 220 265 319 400
#     4  10  21  43  63  89 125 170 218 261 320 400
#     4  10  21  38  61  93 126 170 207 260 335 391
#     4  11  26  38  66  95 131 167 210 287 332 392
#     4  10  22  36  58  95 134 160 209 270 330 392
#     4  11  25  44  59 100 128 164 228 265 331 396
#     4  10  20  42  60  93 130 161 219 258 325 406
#
# _framework density 21.245536000000001
#
# number of rings (size 3 to 8) (size 9 to 14) (size 15 to 20)
#    0.000    1.571    4.286    0.857    8.000    2.286 
#    7.714    0.000    0.000    1.714    0.000    0.000 
#    0.000    0.000    0.000    0.000    0.000    0.000 
#
# Total GULP energy -346917.887709 kJ/mol
# GULP energy per Si atom -12389.924561 kJ/mol
# Density = 2.119718 g / cm^3
# Si number density = 21.245536 Si / 1000 Ang^3
#
#
#
# Elastic Constant Matrix: (Units=GPa)
#
#
# Indices 1 2 3 4 5 6 
#
# 1 76.0450 15.6738 29.2836 0.0000 0.0000 3.7090
# 2 15.6738 76.0450 29.2836 0.0000 0.0000 -3.7090
# 3 29.2836 29.2836 133.4238 0.0000 0.0000 0.0000
# 4 0.0000 0.0000 0.0000 23.7144 0.0000 0.0000
# 5 0.0000 0.0000 0.0000 0.0000 23.7144 0.0000
# 6 3.7090 -3.7090 0.0000 0.0000 0.0000 16.1203
#
#
#
# Elastic Compliance Matrix: (Units=1/GPa)
#
#
# Indices 1 2 3 4 5 6 
#
# 1 0.014863 -0.002183 -0.002783 0.000000 0.000000 -0.003922
# 2 -0.002183 0.014863 -0.002783 0.000000 0.000000 0.003922
# 3 -0.002783 -0.002783 0.008717 0.000000 0.000000 0.000000
# 4 0.000000 0.000000 0.000000 0.042169 0.000000 0.000000
# 5 0.000000 0.000000 0.000000 0.000000 0.042169 0.000000
# 6 -0.003922 0.003922 0.000000 0.000000 0.000000 0.063838
#
#
# Mechanical properties :
#
#
# Convention : Reuss Voigt Hill
#
# Bulk Modulus (GPa) = 43.58330 48.22173 45.90251
# Shear Modulus (GPa) = 23.83631 26.79467 25.31549
#
# Velocity S-wave (km/s) = 3.35318 3.55518 3.45565
# Velocity P-wave (km/s) = 5.96241 6.29277 6.12982
#
# Compressibility (1/GPa) = 0.02294457
#
# Stress axis : x y z
#
# Youngs Moduli (GPa) = 67.28104 67.28104 114.72471
#
# Poissons Ratio (x) = 0.14688 0.31928
# Poissons Ratio (y) = 0.14688 0.31928
# Poissons Ratio (z) = 0.18724 0.18724
#
# Static dielectric constant tensor:
#      x y z
#    x 3.827060 0.000000 0.000000 
#    y 0.000000 3.827060 0.000000 
#    z 0.000000 0.000000 4.073020 
# 
# 
# High freq. dielectric constant tensor:
#      x y z
#    x 1.823120 0.000000 0.000000 
#    y 0.000000 1.823120 0.000000 
#    z 0.000000 0.000000 1.836030 
# 
# From -- ./inp_files/3128.got.cif
#   From: 2010.03.12/outbox.cif.g09.slc.cpg/sg82_2_cif.got.tgz:3128.got - 2010.04.08 20:02:50.
