data_PCOD8302482
_publ_section_title
;
Structure prediction by ZEFSAII (Michael W. Deem and Ramdas Pophale) SiO2 
 PCOD8302482
Probable space group: I -4 
;
_chemical_formula_sum "Si O2"
_cell_formula_units_Z 20
_cell_length_a 6.927309
_cell_length_b 6.927309
_cell_length_c 20.404873
_cell_angle_alpha 90.000000
_cell_angle_beta 90.000000
_cell_angle_gamma 90.000000
_cell_volume 979.181087
_symmetry_space_group_name_H-M "I -4 "
_symmetry_group_IT_number 82
_symmetry_cell_setting 'tetragonal'
loop_
_space_group_symop_operation_xyz
x,y,z
y,-x,-z
-x,-y,z
-y,x,-z
1/2+x,1/2+y,1/2+z
1/2+y,1/2-x,1/2-z
1/2-x,1/2-y,1/2+z
1/2-y,1/2+x,1/2-z
loop_
_atom_site_type_symbol
_atom_site_label
_atom_site_fract_x
_atom_site_fract_y
_atom_site_fract_z
Si Si1 0.500000 0.000000 0.979651
Si Si2 0.679315 0.642401 0.924350
Si Si3 0.720145 0.525222 0.778077
O O1 0.382090 0.855253 0.025698
O O2 0.626744 0.868097 0.931047
O O3 0.500000 0.500000 0.941229
O O4 0.749598 0.603227 0.851153
O O5 0.500000 0.500000 0.757784
O O6 0.825089 0.317821 0.772499
#
# Coordination Sequence:
#
# PCOD8302482 Si02
#       3
#     4   8   8
#     4  12  20  44  65  97 136 170 206 274 326 380
#     4  11  24  43  65  97 139 165 215 274 317 384
#     4  10  23  44  66  95 131 172 219 267 317 382
#
# _framework density 20.425232000000001
#
# number of rings (size 3 to 8) (size 9 to 14) (size 15 to 20)
#    0.000    1.200    4.000    2.400    0.000    8.000 
#    7.200    0.000    0.000    0.000    0.000    0.000 
#    0.000    0.000    0.000    0.000    0.000    0.000 
#
# Total GULP energy -123965.142497 kJ/mol
# GULP energy per Si atom -12396.514250 kJ/mol
# Density = 2.037874 g / cm^3
# Si number density = 20.425232 Si / 1000 Ang^3
#
#
#
# Elastic Constant Matrix: (Units=GPa)
#
#
# Indices 1 2 3 4 5 6 
#
# 1 157.3538 56.9042 65.8363 0.0000 0.0000 14.1129
# 2 56.9042 157.3538 65.8363 0.0000 0.0000 -14.1129
# 3 65.8363 65.8363 151.3276 0.0000 0.0000 0.0000
# 4 0.0000 0.0000 0.0000 42.5817 0.0000 0.0000
# 5 0.0000 0.0000 0.0000 0.0000 42.5817 0.0000
# 6 14.1129 -14.1129 0.0000 0.0000 0.0000 40.2303
#
#
#
# Elastic Compliance Matrix: (Units=1/GPa)
#
#
# Indices 1 2 3 4 5 6 
#
# 1 0.008707 -0.002337 -0.002772 0.000000 0.000000 -0.003874
# 2 -0.002337 0.008707 -0.002772 0.000000 0.000000 0.003874
# 3 -0.002772 -0.002772 0.009020 0.000000 0.000000 0.000000
# 4 0.000000 0.000000 0.000000 0.023484 0.000000 0.000000
# 5 0.000000 0.000000 0.000000 0.000000 0.023484 0.000000
# 6 -0.003874 0.003874 0.000000 0.000000 0.000000 0.027575
#
#
# Mechanical properties :
#
#
# Convention : Reuss Voigt Hill
#
# Bulk Modulus (GPa) = 93.68025 93.68765 93.68395
# Shear Modulus (GPa) = 41.56432 43.57597 42.57015
#
# Velocity S-wave (km/s) = 4.51594 4.62393 4.57025
# Velocity P-wave (km/s) = 8.55313 8.62993 8.59162
#
# Compressibility (1/GPa) = 0.01067461
#
# Stress axis : x y z
#
# Youngs Moduli (GPa) = 114.84743 114.84742 110.86777
#
# Poissons Ratio (x) = 0.26836 0.30728
# Poissons Ratio (y) = 0.26836 0.30728
# Poissons Ratio (z) = 0.31831 0.31831
#
# Static dielectric constant tensor:
#      x y z
#    x 3.952630 0.000000 0.000000 
#    y 0.000000 3.952630 0.000000 
#    z 0.000000 0.000000 3.790220 
# 
# 
# High freq. dielectric constant tensor:
#      x y z
#    x 1.800160 0.000000 0.000000 
#    y 0.000000 1.800160 0.000000 
#    z 0.000000 0.000000 1.809320 
# 
# From -- ./inp_files/3586.got.cif
#   From: 2010.03.12/outbox.cif.g09.slc.cpg/sg82_2_cif.got.tgz:3586.got - 2010.04.08 20:02:50.
