data_PCOD8302911
_publ_section_title
;
Structure prediction by ZEFSAII (Michael W. Deem and Ramdas Pophale) SiO2 
 PCOD8302911
Probable space group: P 4/M
;
_chemical_formula_sum "Si O2"
_cell_formula_units_Z 40
_cell_length_a 9.754948
_cell_length_b 9.754948
_cell_length_c 22.897688
_cell_angle_alpha 90.000000
_cell_angle_beta 90.000000
_cell_angle_gamma 90.000000
_cell_volume 2178.921332
_symmetry_space_group_name_H-M "P 4/M"
_symmetry_group_IT_number 83
_symmetry_cell_setting 'tetragonal'
loop_
_space_group_symop_operation_xyz
x,y,z
-y,x,z
-x,-y,z
y,-x,z
-x,-y,-z
y,-x,-z
x,y,-z
-y,x,-z
loop_
_atom_site_type_symbol
_atom_site_label
_atom_site_fract_x
_atom_site_fract_y
_atom_site_fract_z
Si Si1 0.387880 0.693997 0.725900
Si Si2 0.350081 0.841906 0.612176
Si Si3 0.640995 0.864476 0.566886
Si Si4 0.690951 0.620426 0.141555
Si Si5 0.185456 0.878729 0.931535
O O1 0.316180 0.549345 0.714717
O O2 0.328201 0.803988 0.680306
O O3 0.355555 0.739626 0.791914
O O4 0.500306 0.797799 0.589901
O O5 0.242852 0.762570 0.572001
O O6 0.324222 0.002946 0.605743
O O7 0.624035 0.910506 0.500000
O O8 0.542021 0.685821 0.129140
O O9 0.802974 0.690741 0.100720
O O10 0.039127 0.812959 0.914086
O O11 0.210486 0.862189 0.000000
#
# Coordination Sequence:
#
# PCOD8302911 Si02
#       5
#     8   8   8   8   8
#     4   9  17  35  58  81 107 142 185 227 274 329
#     4  11  21  38  57  80 111 144 183 228 276 333
#     4  11  23  38  57  82 110 143 184 230 282 335
#     4   9  19  35  56  83 115 145 182 232 283 334
#     4   9  19  37  57  80 114 155 195 233 272 319
#
# _framework density 18.357707000000001
#
# number of rings (size 3 to 8) (size 9 to 14) (size 15 to 20)
#    0.000    2.200    2.000    4.200    0.000    2.400 
#    3.600    5.000    0.000    0.000    0.000    0.000 
#    0.000    0.000    0.000    0.000    0.000    0.000 
#
# Total GULP energy -496010.851418 kJ/mol
# GULP energy per Si atom -12400.271285 kJ/mol
# Density = 1.831592 g / cm^3
# Si number density = 18.357707 Si / 1000 Ang^3
#
#
#
# Elastic Constant Matrix: (Units=GPa)
#
#
# Indices 1 2 3 4 5 6 
#
# 1 66.5838 59.7793 41.6550 0.0000 0.0000 0.0013
# 2 59.7793 66.5838 41.6550 0.0000 0.0000 -0.0013
# 3 41.6550 41.6550 95.3553 0.0000 0.0000 0.0000
# 4 0.0000 0.0000 0.0000 32.8261 0.0000 0.0000
# 5 0.0000 0.0000 0.0000 0.0000 32.8261 0.0000
# 6 0.0013 -0.0013 0.0000 0.0000 0.0000 35.4990
#
#
#
# Elastic Compliance Matrix: (Units=1/GPa)
#
#
# Indices 1 2 3 4 5 6 
#
# 1 0.079038 -0.067923 -0.004855 0.000000 0.000000 -0.000006
# 2 -0.067923 0.079038 -0.004855 0.000000 0.000000 0.000006
# 3 -0.004855 -0.004855 0.014729 0.000000 0.000000 0.000000
# 4 0.000000 0.000000 0.000000 0.030464 0.000000 0.000000
# 5 0.000000 0.000000 0.000000 0.000000 0.030464 0.000000
# 6 -0.000006 0.000006 0.000000 0.000000 0.000000 0.028170
#
#
# Mechanical properties :
#
#
# Convention : Reuss Voigt Hill
#
# Bulk Modulus (GPa) = 57.02164 57.18908 57.10536
# Shear Modulus (GPa) = 11.81992 25.92582 18.87287
#
# Velocity S-wave (km/s) = 2.54021 3.76208 3.20982
# Velocity P-wave (km/s) = 6.30336 7.07752 6.70163
#
# Compressibility (1/GPa) = 0.01753720
#
# Stress axis : x y z
#
# Youngs Moduli (GPa) = 12.65218 12.65218 67.89248
#
# Poissons Ratio (x) = 0.85937 0.32965
# Poissons Ratio (y) = 0.85937 0.32965
# Poissons Ratio (z) = 0.06143 0.06143
#
# Static dielectric constant tensor:
#      x y z
#    x 3.221440 0.000000 0.000000 
#    y 0.000000 3.221440 0.000000 
#    z 0.000000 0.000000 3.348160 
# 
# 
# High freq. dielectric constant tensor:
#      x y z
#    x 1.703340 0.000000 0.000000 
#    y 0.000000 1.703340 0.000000 
#    z 0.000000 0.000000 1.715840 
# 
# From -- ./inp_files/3101.got.cif
#   From: 2010.03.12/outbox.cif.g09.slc.cpg/sg83_2_cif.got.tgz:3101.got - 2010.04.08 20:05:18.
