data_PCOD8302823
_publ_section_title
;
Structure prediction by ZEFSAII (Michael W. Deem and Ramdas Pophale) SiO2 
 PCOD8302823
Probable space group: P 4/M
;
_chemical_formula_sum "Si O2"
_cell_formula_units_Z 36
_cell_length_a 14.825403
_cell_length_b 14.825403
_cell_length_c 7.735095
_cell_angle_alpha 90.000000
_cell_angle_beta 90.000000
_cell_angle_gamma 90.000000
_cell_volume 1700.116441
_symmetry_space_group_name_H-M "P 4/M"
_symmetry_group_IT_number 83
_symmetry_cell_setting 'tetragonal'
loop_
_space_group_symop_operation_xyz
x,y,z
-y,x,z
-x,-y,z
y,-x,z
-x,-y,-z
y,-x,-z
x,y,-z
-y,x,-z
loop_
_atom_site_type_symbol
_atom_site_label
_atom_site_fract_x
_atom_site_fract_y
_atom_site_fract_z
Si Si1 0.929913 0.752721 0.303243
Si Si2 0.130588 0.766168 0.292666
Si Si3 0.447869 0.912696 0.202491
Si Si4 0.235236 0.591560 0.195783
Si Si5 0.430816 0.368518 0.500000
O O1 0.935723 0.782448 0.500000
O O2 0.852958 0.815617 0.218809
O O3 0.902021 0.648469 0.291693
O O4 0.028067 0.771879 0.221533
O O5 0.136020 0.756629 0.500000
O O6 0.172421 0.678491 0.205586
O O7 0.504333 0.823538 0.246993
O O8 0.500000 0.000000 0.277784
O O9 0.432365 0.925099 0.000000
O O10 0.317792 0.600524 0.327116
O O11 0.272588 0.582405 0.000000
O O12 0.537562 0.379306 0.500000
#
# Coordination Sequence:
#
# PCOD8302823 Si02
#       5
#     8   8   8   8   4
#     4  10  22  36  61  90 126 175 217 269 327 389
#     4  10  21  39  59  92 132 173 223 269 325 388
#     4  10  21  37  58  89 123 155 204 268 327 379
#     4  11  24  41  68 100 130 167 218 276 327 387
#     4  11  28  50  69  92 132 175 214 265 327 402
#
# _framework density 21.17502
#
# number of rings (size 3 to 8) (size 9 to 14) (size 15 to 20)
#    0.000    1.667    3.333    0.000    4.667    2.667 
#    0.000    3.333    0.000    0.000    0.000    3.111 
#    0.000    0.000    0.000    0.000    0.000    0.000 
#
# Total GULP energy -446480.667723 kJ/mol
# GULP energy per Si atom -12402.240770 kJ/mol
# Density = 2.112682 g / cm^3
# Si number density = 21.175020 Si / 1000 Ang^3
#
#
#
# Elastic Constant Matrix: (Units=GPa)
#
#
# Indices 1 2 3 4 5 6 
#
# 1 128.2292 70.4511 19.2264 0.0000 0.0000 -6.2719
# 2 70.4511 128.2292 19.2264 0.0000 0.0000 6.2719
# 3 19.2264 19.2264 64.7235 0.0000 0.0000 0.0000
# 4 0.0000 0.0000 0.0000 -0.2586 0.0000 0.0000
# 5 0.0000 0.0000 0.0000 0.0000 -0.2586 0.0000
# 6 -6.2719 6.2719 0.0000 0.0000 0.0000 39.5855
#
#
#
# Elastic Compliance Matrix: (Units=1/GPa)
#
#
# Indices 1 2 3 4 5 6 
#
# 1 0.011632 -0.006292 -0.001586 0.000000 0.000000 0.002840
# 2 -0.006292 0.011632 -0.001586 0.000000 0.000000 -0.002840
# 3 -0.001586 -0.001586 0.016393 0.000000 0.000000 0.000000
# 4 0.000000 0.000000 0.000000 -3.866999 0.000000 0.000000
# 5 0.000000 0.000000 0.000000 0.000000 -3.866999 0.000000
# 6 0.002840 -0.002840 0.000000 0.000000 0.000000 0.026162
#
#
# Mechanical properties :
#
#
# Convention : Reuss Voigt Hill
#
# Bulk Modulus (GPa) = 48.24417 59.88777 54.06597
# Shear Modulus (GPa) = -0.65425 21.96553 10.65564
#
# Velocity S-wave (km/s) = -0.55646 3.22426 2.24568
# Velocity P-wave (km/s) = 4.73499 6.49652 5.68441
#
# Compressibility (1/GPa) = 0.02072789
#
# Stress axis : x y z
#
# Youngs Moduli (GPa) = 85.96834 85.96834 61.00244
#
# Poissons Ratio (x) = 0.54091 0.09677
# Poissons Ratio (y) = 0.54091 0.09677
# Poissons Ratio (z) = 0.13637 0.13637
#
# Static dielectric constant tensor:
#      x y z
#    x 3.918070 0.000000 0.000000 
#    y 0.000000 3.918070 0.000000 
#    z 0.000000 0.000000 3.596040 
# 
# 
# High freq. dielectric constant tensor:
#      x y z
#    x 1.834020 0.000000 0.000000 
#    y 0.000000 1.834020 0.000000 
#    z 0.000000 0.000000 1.818770 
# 
# From -- ./inp_files/503.got.cif
#   From: 2010.03.12/outbox.cif.g09.slc.cpg/sg83_1_cif.got.tgz:503.got - 2010.04.08 20:05:18.
