data_PCOD8302417
_publ_section_title
;
Structure prediction by ZEFSAII (Michael W. Deem and Ramdas Pophale) SiO2 
 PCOD8302417
Probable space group: I -4 
;
_chemical_formula_sum "Si O2"
_cell_formula_units_Z 48
_cell_length_a 15.101961
_cell_length_b 15.101961
_cell_length_c 11.092575
_cell_angle_alpha 90.000000
_cell_angle_beta 90.000000
_cell_angle_gamma 90.000000
_cell_volume 2529.874995
_symmetry_space_group_name_H-M "I -4 "
_symmetry_group_IT_number 82
_symmetry_cell_setting 'tetragonal'
loop_
_space_group_symop_operation_xyz
x,y,z
y,-x,-z
-x,-y,z
-y,x,-z
1/2+x,1/2+y,1/2+z
1/2+y,1/2-x,1/2-z
1/2-x,1/2-y,1/2+z
1/2-y,1/2+x,1/2-z
loop_
_atom_site_type_symbol
_atom_site_label
_atom_site_fract_x
_atom_site_fract_y
_atom_site_fract_z
Si Si1 0.620487 0.097768 0.085107
Si Si2 0.761483 0.360013 0.815034
Si Si3 0.861487 0.043043 0.488156
Si Si4 0.707290 0.029758 0.677248
Si Si5 0.904369 0.425671 0.966000
Si Si6 0.318246 0.164225 0.658776
O O1 0.690008 0.107361 0.193487
O O2 0.515429 0.109551 0.117874
O O3 0.622073 0.998512 0.033518
O O4 0.649570 0.169843 0.984677
O O5 0.682450 0.425586 0.860781
O O6 0.835378 0.353921 0.918523
O O7 0.728183 0.260724 0.803437
O O8 0.792171 0.050281 0.595790
O O9 0.942216 0.106822 0.525431
O O10 0.616728 0.047060 0.602859
O O11 0.709054 0.092553 0.792732
O O12 0.705265 0.928882 0.722402
#
# Coordination Sequence:
#
# PCOD8302417 Si02
#       6
#     8   8   8   8   8   8
#     4  10  21  38  56  87 122 151 196 243 319 354
#     4  11  22  34  60  89 117 149 201 250 296 356
#     4  10  21  40  63  85 115 159 206 248 289 357
#     4  10  21  37  61  85 120 151 207 239 303 354
#     4   9  20  37  61  85 115 156 191 254 303 357
#     4  11  23  37  56  89 118 160 192 250 296 364
#
# _framework density 18.973268999999998
#
# number of rings (size 3 to 8) (size 9 to 14) (size 15 to 20)
#    0.000    1.833    1.667    2.000    4.667    4.333 
#    0.000    0.000    0.000    0.000    0.000    2.333 
#    0.000    0.000    0.000    0.000    0.000    0.000 
#
# Total GULP energy -297436.010111 kJ/mol
# GULP energy per Si atom -12393.167088 kJ/mol
# Density = 1.893008 g / cm^3
# Si number density = 18.973269 Si / 1000 Ang^3
#
#
#
# Elastic Constant Matrix: (Units=GPa)
#
#
# Indices 1 2 3 4 5 6 
#
# 1 103.5953 36.7744 28.3285 0.0000 0.0000 -2.0244
# 2 36.7744 103.5953 28.3285 0.0000 0.0000 2.0244
# 3 28.3285 28.3285 51.4210 0.0000 0.0000 0.0000
# 4 0.0000 0.0000 0.0000 27.7039 0.0000 0.0000
# 5 0.0000 0.0000 0.0000 0.0000 27.7039 0.0000
# 6 -2.0244 2.0244 0.0000 0.0000 0.0000 36.3174
#
#
#
# Elastic Compliance Matrix: (Units=1/GPa)
#
#
# Indices 1 2 3 4 5 6 
#
# 1 0.012089 -0.002927 -0.005047 0.000000 0.000000 0.000837
# 2 -0.002927 0.012089 -0.005047 0.000000 0.000000 -0.000837
# 3 -0.005047 -0.005047 0.025008 0.000000 0.000000 0.000000
# 4 0.000000 0.000000 0.000000 0.036096 0.000000 0.000000
# 5 0.000000 0.000000 0.000000 0.000000 0.036096 0.000000
# 6 0.000837 -0.000837 0.000000 0.000000 0.000000 0.027628
#
#
# Mechanical properties :
#
#
# Convention : Reuss Voigt Hill
#
# Bulk Modulus (GPa) = 43.21047 49.49713 46.35380
# Shear Modulus (GPa) = 27.35787 29.35707 28.35747
#
# Velocity S-wave (km/s) = 3.80138 3.93782 3.87020
# Velocity P-wave (km/s) = 6.48777 6.84249 6.66749
#
# Compressibility (1/GPa) = 0.02314254
#
# Stress axis : x y z
#
# Youngs Moduli (GPa) = 82.72251 82.72251 39.98692
#
# Poissons Ratio (x) = 0.24217 0.20181
# Poissons Ratio (y) = 0.24217 0.20181
# Poissons Ratio (z) = 0.41750 0.41750
#
# Static dielectric constant tensor:
#      x y z
#    x 3.597640 0.000000 0.000000 
#    y 0.000000 3.597640 0.000000 
#    z 0.000000 0.000000 3.271810 
# 
# 
# High freq. dielectric constant tensor:
#      x y z
#    x 1.742560 0.000000 0.000000 
#    y 0.000000 1.742560 0.000000 
#    z 0.000000 0.000000 1.716960 
# 
# From -- ./inp_files/1758.got.cif
#   From: 2010.03.12/outbox.cif.g09.slc.cpg/sg82_1_cif.got.tgz:1758.got - 2010.04.08 20:02:50.
