data_PCOD8302975
_publ_section_title
;
Structure prediction by ZEFSAII (Michael W. Deem and Ramdas Pophale) SiO2 
 PCOD8302975
Probable space group: P 4/M
;
_chemical_formula_sum "Si O2"
_cell_formula_units_Z 37
_cell_length_a 8.744496
_cell_length_b 8.744496
_cell_length_c 23.061672
_cell_angle_alpha 90.000000
_cell_angle_beta 90.000000
_cell_angle_gamma 90.000000
_cell_volume 1763.438661
_symmetry_space_group_name_H-M "P 4/M"
_symmetry_group_IT_number 83
_symmetry_cell_setting 'tetragonal'
loop_
_space_group_symop_operation_xyz
x,y,z
-y,x,z
-x,-y,z
y,-x,z
-x,-y,-z
y,-x,-z
x,y,-z
-y,x,-z
loop_
_atom_site_type_symbol
_atom_site_label
_atom_site_fract_x
_atom_site_fract_y
_atom_site_fract_z
Si Si1 0.881723 0.779569 0.896196
Si Si2 0.115511 0.222787 0.764920
Si Si3 0.500000 0.500000 0.000000
Si Si4 0.112124 0.223583 0.433936
Si Si5 0.728316 0.606972 0.335021
Si Si6 0.829102 0.567959 0.000000
O O1 0.853432 0.722097 0.830559
O O2 0.061280 0.796863 0.907195
O O3 0.810533 0.661423 0.940480
O O4 0.177002 0.352660 0.722425
O O5 0.936120 0.201789 0.753170
O O6 0.682720 0.451675 0.000000
O O7 0.138411 0.276467 0.500000
O O8 0.175106 0.354651 0.392293
O O9 0.933466 0.200896 0.421336
O O10 0.572363 0.701407 0.335156
O O11 0.000000 0.500000 0.000000
#
# Coordination Sequence:
#
# PCOD8302975 Si02
#       6
#     8   8   1   8   8   4
#     4   9  18  37  65  92 120 161 210 259 318 382
#     4   9  19  38  62  87 113 149 203 255 300 359
#     4  12  28  44  60 104 132 164 220 268 310 392
#     4   9  19  37  62  89 114 145 191 247 301 355
#     4  11  24  39  52  80 121 161 198 240 302 361
#     4  12  24  43  64  93 136 172 210 260 328 388
#
# _framework density 20.981732999999998
#
# number of rings (size 3 to 8) (size 9 to 14) (size 15 to 20)
#    0.000    2.162    0.000    5.189    0.000    6.919 
#   11.676    3.243    0.000    0.000    0.000    0.000 
#    0.000    0.000    0.000    0.000    0.000    0.000 
#
# Total GULP energy -458366.566137 kJ/mol
# GULP energy per Si atom -12388.285571 kJ/mol
# Density = 2.093398 g / cm^3
# Si number density = 20.981733 Si / 1000 Ang^3
#
#
#
# Elastic Constant Matrix: (Units=GPa)
#
#
# Indices 1 2 3 4 5 6 
#
# 1 50.7206 17.3801 27.5071 0.0000 0.0000 -1.2089
# 2 17.3801 50.7206 27.5071 0.0000 0.0000 1.2089
# 3 27.5071 27.5071 122.7970 0.0000 0.0000 0.0000
# 4 0.0000 0.0000 0.0000 11.5639 0.0000 0.0000
# 5 0.0000 0.0000 0.0000 0.0000 11.5639 0.0000
# 6 -1.2089 1.2089 0.0000 0.0000 0.0000 33.8919
#
#
#
# Elastic Compliance Matrix: (Units=1/GPa)
#
#
# Indices 1 2 3 4 5 6 
#
# 1 0.024000 -0.006071 -0.004016 0.000000 0.000000 0.001073
# 2 -0.006071 0.024000 -0.004016 0.000000 0.000000 -0.001073
# 3 -0.004016 -0.004016 0.009943 0.000000 0.000000 0.000000
# 4 0.000000 0.000000 0.000000 0.086476 0.000000 0.000000
# 5 0.000000 0.000000 0.000000 0.000000 0.086476 0.000000
# 6 0.001073 -0.001073 0.000000 0.000000 0.000000 0.029582
#
#
# Mechanical properties :
#
#
# Convention : Reuss Voigt Hill
#
# Bulk Modulus (GPa) = 33.62990 41.00298 37.31644
# Shear Modulus (GPa) = 16.74509 21.52688 19.13599
#
# Velocity S-wave (km/s) = 2.82810 3.20657 3.02326
# Velocity P-wave (km/s) = 5.16983 5.77010 5.47820
#
# Compressibility (1/GPa) = 0.02973544
#
# Stress axis : x y z
#
# Youngs Moduli (GPa) = 41.66685 41.66685 100.57576
#
# Poissons Ratio (x) = 0.25298 0.40392
# Poissons Ratio (y) = 0.25298 0.40392
# Poissons Ratio (z) = 0.16734 0.16734
#
# Static dielectric constant tensor:
#      x y z
#    x 3.688460 0.000000 0.000000 
#    y 0.000000 3.688460 0.000000 
#    z 0.000000 0.000000 3.815620 
# 
# 
# High freq. dielectric constant tensor:
#      x y z
#    x 1.818710 0.000000 0.000000 
#    y 0.000000 1.818710 0.000000 
#    z 0.000000 0.000000 1.827430 
# 
# From -- ./inp_files/3118.got.cif
#   From: 2010.03.12/outbox.cif.g09.slc.cpg/sg83_2_cif.got.tgz:3118.got - 2010.04.08 20:05:18.
