data_PCOD8302003
_publ_section_title
;
Structure prediction by ZEFSAII (Michael W. Deem and Ramdas Pophale) SiO2 
 PCOD8302003
Probable space group: P 42
;
_chemical_formula_sum "Si O2"
_cell_formula_units_Z 24
_cell_length_a 8.295248
_cell_length_b 8.295248
_cell_length_c 16.050673
_cell_angle_alpha 90.000000
_cell_angle_beta 90.000000
_cell_angle_gamma 90.000000
_cell_volume 1104.465097
_symmetry_space_group_name_H-M "P 42"
_symmetry_group_IT_number 77
_symmetry_cell_setting 'tetragonal'
loop_
_space_group_symop_operation_xyz
x,y,z
-y,x,1/2+z
-x,-y,z
y,-x,1/2+z
loop_
_atom_site_type_symbol
_atom_site_label
_atom_site_fract_x
_atom_site_fract_y
_atom_site_fract_z
Si Si1 0.243750 0.772967 0.620140
Si Si2 0.939129 0.325270 0.778269
Si Si3 0.221717 0.827021 0.920577
Si Si4 0.553281 0.682825 0.964080
Si Si5 0.737640 0.851123 0.818519
Si Si6 0.000000 0.500000 0.191116
Si Si7 0.000000 0.000000 0.040755
O O1 0.198540 0.704796 0.709942
O O2 0.287631 0.636271 0.553086
O O3 0.393672 0.892556 0.629273
O O4 0.082079 0.863789 0.594807
O O5 0.844226 0.321852 0.866171
O O6 0.000000 0.500000 0.759232
O O7 0.093653 0.206222 0.778603
O O8 0.394470 0.794141 0.961710
O O9 0.232704 0.977554 0.859436
O O10 0.085803 0.859627 0.988650
O O11 0.500000 0.500000 0.954311
O O12 0.673349 0.726633 0.888307
O O13 0.606221 0.876395 0.746135
#
# Coordination Sequence:
#
# PCOD8302003 Si02
#       7
#     4   4   4   4   4   2   2
#     4  12  28  45  67 110 142 190 231 298 366 416
#     4  12  26  44  73 107 144 182 242 299 356 427
#     4  12  23  47  74 102 138 192 245 290 348 436
#     4  12  27  45  73 107 148 185 235 300 371 425
#     4  12  22  48  76 101 134 191 246 286 352 438
#     4  12  26  46  74 100 150 184 236 292 360 428
#     4  12  26  42  76  98 138 182 254 294 342 420
#
# _framework density 21.729977999999999
#
# number of rings (size 3 to 8) (size 9 to 14) (size 15 to 20)
#    0.000    0.000    6.667    2.000    4.667    1.333 
#    1.500    0.833    0.000    0.000    0.000    0.000 
#    0.000    0.000    0.000    0.000    0.000    0.000 
#
# Total GULP energy -297688.110938 kJ/mol
# GULP energy per Si atom -12403.671289 kJ/mol
# Density = 2.168052 g / cm^3
# Si number density = 21.729978 Si / 1000 Ang^3
#
#
#
# Elastic Constant Matrix: (Units=GPa)
#
#
# Indices 1 2 3 4 5 6 
#
# 1 105.5121 27.4170 34.2401 0.0000 0.0000 -7.1083
# 2 27.4170 105.5121 34.2401 0.0000 0.0000 7.1083
# 3 34.2401 34.2401 99.4021 0.0000 0.0000 0.0000
# 4 0.0000 0.0000 0.0000 -370.6359 0.0000 0.0000
# 5 0.0000 0.0000 0.0000 0.0000 -370.6359 0.0000
# 6 -7.1083 7.1083 0.0000 0.0000 0.0000 45.7288
#
#
#
# Elastic Compliance Matrix: (Units=1/GPa)
#
#
# Indices 1 2 3 4 5 6 
#
# 1 0.011162 -0.002016 -0.003150 0.000000 0.000000 0.002048
# 2 -0.002016 0.011162 -0.003150 0.000000 0.000000 -0.002048
# 3 -0.003150 -0.003150 0.012230 0.000000 0.000000 0.000000
# 4 0.000000 0.000000 0.000000 -0.002698 0.000000 0.000000
# 5 0.000000 0.000000 0.000000 0.000000 -0.002698 0.000000
# 6 0.002048 -0.002048 0.000000 0.000000 0.000000 0.022505
#
#
# Mechanical properties :
#
#
# Convention : Reuss Voigt Hill
#
# Bulk Modulus (GPa) = 55.80171 55.80229 55.80200
# Shear Modulus (GPa) = 67.32214 -124.80664 -28.74225
#
# Velocity S-wave (km/s) = 5.57212 -7.58683 -3.64084
# Velocity P-wave (km/s) = 8.19349 7.14220 2.83922
#
# Compressibility (1/GPa) = 0.01792060
#
# Stress axis : x y z
#
# Youngs Moduli (GPa) = 89.59148 89.59148 81.76287
#
# Poissons Ratio (x) = 0.18062 0.25758
# Poissons Ratio (y) = 0.18062 0.25758
# Poissons Ratio (z) = 0.28224 0.28224
#
# Static dielectric constant tensor:
#      x y z
#    x 5.999510 0.000000 0.000000 
#    y 0.000000 5.999510 0.000000 
#    z 0.000000 0.000000 4.101610 
# 
# 
# High freq. dielectric constant tensor:
#      x y z
#    x 1.863790 0.000000 0.000000 
#    y 0.000000 1.863790 0.000000 
#    z 0.000000 0.000000 1.859200 
# 
# From -- ./inp_files/1131.got.cif
#   From: 2010.03.12/outbox.cif.g09.slc.cpg/sg77_cif.got.tgz:1131.got - 2010.04.16 16:36:19.
