data_PCOD8302289
_publ_section_title
;
Structure prediction by ZEFSAII (Michael W. Deem and Ramdas Pophale) SiO2 
 PCOD8302289
Probable space group: P -4
;
_chemical_formula_sum "Si O2"
_cell_formula_units_Z 18
_cell_length_a 11.751319
_cell_length_b 11.751319
_cell_length_c 6.016168
_cell_angle_alpha 90.000000
_cell_angle_beta 90.000000
_cell_angle_gamma 90.000000
_cell_volume 830.793685
_symmetry_space_group_name_H-M "P -4"
_symmetry_group_IT_number 81
_symmetry_cell_setting 'tetragonal'
loop_
_space_group_symop_operation_xyz
x,y,z
y,-x,-z
-x,-y,z
-y,x,-z
loop_
_atom_site_type_symbol
_atom_site_label
_atom_site_fract_x
_atom_site_fract_y
_atom_site_fract_z
Si Si1 0.170751 0.619994 0.590575
Si Si2 0.306925 0.001540 0.044084
Si Si3 0.000000 0.500000 0.286790
Si Si4 0.404829 0.347703 0.053440
Si Si5 0.801234 0.222673 0.206651
O O1 0.080471 0.627946 0.785362
O O2 0.114910 0.528694 0.423241
O O3 0.290973 0.580327 0.700234
O O4 0.187260 0.741563 0.465459
O O5 0.255478 0.899444 0.186602
O O6 0.212505 0.075598 0.912519
O O7 0.395664 0.955990 0.862425
O O8 0.353129 0.474314 0.074339
O O9 0.321383 0.271520 0.908045
#
# Coordination Sequence:
#
# PCOD8302289 Si02
#       5
#     4   4   2   4   4
#     4  10  23  41  67 103 124 186 224 272 342 402
#     4  10  23  44  63 100 130 175 224 282 334 395
#     4  10  22  40  72  98 130 174 236 278 328 408
#     4  10  24  44  64  96 139 173 218 278 338 396
#     4  10  24  42  69  93 136 174 221 280 336 402
#
# _framework density 21.666027
#
# number of rings (size 3 to 8) (size 9 to 14) (size 15 to 20)
#    0.000    2.000    0.000    0.667   12.444    9.333 
#    0.000    2.222    0.000    0.000    0.000    0.000 
#    0.000    0.000    0.000    0.000    0.000    0.000 
#
# Total GULP energy -223129.119769 kJ/mol
# GULP energy per Si atom -12396.062209 kJ/mol
# Density = 2.161671 g / cm^3
# Si number density = 21.666027 Si / 1000 Ang^3
#
#
#
# Elastic Constant Matrix: (Units=GPa)
#
#
# Indices 1 2 3 4 5 6 
#
# 1 115.7965 42.4016 36.6837 0.0000 0.0000 -8.1047
# 2 42.4016 115.7965 36.6837 0.0000 0.0000 8.1047
# 3 36.6837 36.6837 90.9083 0.0000 0.0000 0.0000
# 4 0.0000 0.0000 0.0000 32.1867 0.0000 0.0000
# 5 0.0000 0.0000 0.0000 0.0000 32.1867 0.0000
# 6 -8.1047 8.1047 0.0000 0.0000 0.0000 30.1471
#
#
#
# Elastic Compliance Matrix: (Units=1/GPa)
#
#
# Indices 1 2 3 4 5 6 
#
# 1 0.011131 -0.003354 -0.003138 0.000000 0.000000 0.003894
# 2 -0.003354 0.011131 -0.003138 0.000000 0.000000 -0.003894
# 3 -0.003138 -0.003138 0.013533 0.000000 0.000000 0.000000
# 4 0.000000 0.000000 0.000000 0.031069 0.000000 0.000000
# 5 0.000000 0.000000 0.000000 0.000000 0.031069 0.000000
# 6 0.003894 -0.003894 0.000000 0.000000 0.000000 0.035264
#
#
# Mechanical properties :
#
#
# Convention : Reuss Voigt Hill
#
# Bulk Modulus (GPa) = 60.48295 61.55995 61.02145
# Shear Modulus (GPa) = 31.65206 32.68626 32.16916
#
# Velocity S-wave (km/s) = 3.82633 3.88834 3.85746
# Velocity P-wave (km/s) = 6.89186 6.97379 6.93294
#
# Compressibility (1/GPa) = 0.01653359
#
# Stress axis : x y z
#
# Youngs Moduli (GPa) = 89.84145 89.84145 73.89552
#
# Poissons Ratio (x) = 0.30135 0.23188
# Poissons Ratio (y) = 0.30135 0.23188
# Poissons Ratio (z) = 0.28192 0.28192
#
# Static dielectric constant tensor:
#      x y z
#    x 3.991280 0.000000 0.000000 
#    y 0.000000 3.991280 0.000000 
#    z 0.000000 0.000000 4.228500 
# 
# 
# High freq. dielectric constant tensor:
#      x y z
#    x 1.845190 0.000000 0.000000 
#    y 0.000000 1.845190 0.000000 
#    z 0.000000 0.000000 1.858820 
# 
# From -- ./inp_files/186.got.cif
#   From: 2010.03.12/outbox.cif.g09.slc.cpg/sg81_cif.got.tgz:186.got - 2010.04.08 20:01:38.
