data_PCOD8302495
_publ_section_title
;
Structure prediction by ZEFSAII (Michael W. Deem and Ramdas Pophale) SiO2 
 PCOD8302495
Probable space group: I -4 
;
_chemical_formula_sum "Si O2"
_cell_formula_units_Z 42
_cell_length_a 8.292296
_cell_length_b 8.292296
_cell_length_c 28.043052
_cell_angle_alpha 90.000000
_cell_angle_beta 90.000000
_cell_angle_gamma 90.000000
_cell_volume 1928.301192
_symmetry_space_group_name_H-M "I -4 "
_symmetry_group_IT_number 82
_symmetry_cell_setting 'tetragonal'
loop_
_space_group_symop_operation_xyz
x,y,z
y,-x,-z
-x,-y,z
-y,x,-z
1/2+x,1/2+y,1/2+z
1/2+y,1/2-x,1/2-z
1/2-x,1/2-y,1/2+z
1/2-y,1/2+x,1/2-z
loop_
_atom_site_type_symbol
_atom_site_label
_atom_site_fract_x
_atom_site_fract_y
_atom_site_fract_z
Si Si1 0.760360 0.600446 0.744687
Si Si2 0.817386 0.546547 0.560867
Si Si3 0.292165 0.229944 0.965666
Si Si4 0.500000 0.000000 0.902495
Si Si5 0.271075 0.762902 0.852998
Si Si6 0.000000 0.000000 0.500000
Si Si7 0.000000 0.000000 0.315356
O O1 0.805819 0.414567 0.733951
O O2 0.698641 0.685632 0.696933
O O3 0.616964 0.610146 0.782935
O O4 0.758981 0.662310 0.518510
O O5 0.720056 0.378170 0.561353
O O6 0.788279 0.632449 0.610744
O O7 0.000000 0.500000 0.552571
O O8 0.424344 0.132510 0.936701
O O9 0.360024 0.413672 0.968811
O O10 0.637243 0.076899 0.869411
O O11 0.396978 0.616215 0.849111
#
# Coordination Sequence:
#
# PCOD8302495 Si02
#       7
#     8   8   8   4   8   2   4
#     4   9  21  44  70  99 136 177 231 295 367 429
#     4  12  26  42  72 101 137 181 233 287 341 408
#     4  12  25  46  66 100 142 188 230 281 355 404
#     4  12  28  44  63 104 144 184 235 280 350 428
#     4  11  27  43  69 105 133 185 237 292 350 427
#     4  12  20  42  72  88 128 180 244 272 328 426
#     4  10  24  45  72  97 138 181 232 294 362 431
#
# _framework density 21.780829000000001
#
# number of rings (size 3 to 8) (size 9 to 14) (size 15 to 20)
#    0.000    0.952    2.857    2.286    8.000    8.000 
#    0.000    0.000    0.000    0.000    0.000    0.000 
#    0.000    0.000    0.000    0.000    0.000    0.000 
#
# Total GULP energy -260530.312455 kJ/mol
# GULP energy per Si atom -12406.205355 kJ/mol
# Density = 2.173125 g / cm^3
# Si number density = 21.780829 Si / 1000 Ang^3
#
#
#
# Elastic Constant Matrix: (Units=GPa)
#
#
# Indices 1 2 3 4 5 6 
#
# 1 106.6971 30.8630 36.2619 0.0000 0.0000 -7.3687
# 2 30.8630 106.6971 36.2619 0.0000 0.0000 7.3687
# 3 36.2619 36.2619 85.4933 0.0000 0.0000 0.0000
# 4 0.0000 0.0000 0.0000 29.0831 0.0000 0.0000
# 5 0.0000 0.0000 0.0000 0.0000 29.0831 0.0000
# 6 -7.3687 7.3687 0.0000 0.0000 0.0000 37.2819
#
#
#
# Elastic Compliance Matrix: (Units=1/GPa)
#
#
# Indices 1 2 3 4 5 6 
#
# 1 0.011538 -0.002175 -0.003971 0.000000 0.000000 0.002710
# 2 -0.002175 0.011538 -0.003971 0.000000 0.000000 -0.002710
# 3 -0.003971 -0.003971 0.015066 0.000000 0.000000 0.000000
# 4 0.000000 0.000000 0.000000 0.034384 0.000000 0.000000
# 5 0.000000 0.000000 0.000000 0.000000 0.034384 0.000000
# 6 0.002710 -0.002710 0.000000 0.000000 0.000000 0.027894
#
#
# Mechanical properties :
#
#
# Convention : Reuss Voigt Hill
#
# Bulk Modulus (GPa) = 55.84505 56.18457 56.01481
# Shear Modulus (GPa) = 31.05400 32.12302 31.58851
#
# Velocity S-wave (km/s) = 3.78001 3.84452 3.81240
# Velocity P-wave (km/s) = 6.68928 6.74970 6.71956
#
# Compressibility (1/GPa) = 0.01790669
#
# Stress axis : x y z
#
# Youngs Moduli (GPa) = 86.66723 86.66726 66.37548
#
# Poissons Ratio (x) = 0.18850 0.26361
# Poissons Ratio (y) = 0.18850 0.26361
# Poissons Ratio (z) = 0.34420 0.34420
#
# Static dielectric constant tensor:
#      x y z
#    x 4.143320 0.000000 0.000000 
#    y 0.000000 4.143320 0.000000 
#    z 0.000000 0.000000 3.836160 
# 
# 
# High freq. dielectric constant tensor:
#      x y z
#    x 1.866510 0.000000 0.000000 
#    y 0.000000 1.866510 0.000000 
#    z 0.000000 0.000000 1.850090 
# 
# From -- ./inp_files/3738.got.cif
#   From: 2010.03.12/outbox.cif.g09.slc.cpg/sg82_2_cif.got.tgz:3738.got - 2010.04.08 20:02:50.
