data_PCOD8302238
_publ_section_title
;
Structure prediction by ZEFSAII (Michael W. Deem and Ramdas Pophale) SiO2 
 PCOD8302238
Probable space group: P -4
;
_chemical_formula_sum "Si O2"
_cell_formula_units_Z 22
_cell_length_a 8.140691
_cell_length_b 8.140691
_cell_length_c 15.855483
_cell_angle_alpha 90.000000
_cell_angle_beta 90.000000
_cell_angle_gamma 90.000000
_cell_volume 1050.756335
_symmetry_space_group_name_H-M "P -4"
_symmetry_group_IT_number 81
_symmetry_cell_setting 'tetragonal'
loop_
_space_group_symop_operation_xyz
x,y,z
y,-x,-z
-x,-y,z
-y,x,-z
loop_
_atom_site_type_symbol
_atom_site_label
_atom_site_fract_x
_atom_site_fract_y
_atom_site_fract_z
Si Si1 0.000000 0.000000 0.763338
Si Si2 0.747174 0.408080 0.019514
Si Si3 0.500000 0.000000 0.100983
Si Si4 0.586866 0.748929 0.635077
Si Si5 0.000000 0.000000 0.500000
Si Si6 0.730343 0.241131 0.187426
Si Si7 0.906006 0.753640 0.371431
Si Si8 0.500000 0.500000 0.500000
O O1 0.895093 0.872337 0.816449
O O2 0.133311 0.897098 0.710570
O O3 0.781683 0.375744 0.118134
O O4 0.600395 0.294100 0.987135
O O5 0.907587 0.370687 0.961844
O O6 0.431183 0.857456 0.160973
O O7 0.664900 0.693172 0.724579
O O8 0.388643 0.770968 0.639587
O O9 0.613657 0.614555 0.560959
O O10 0.674968 0.916387 0.611280
O O11 0.880379 0.121882 0.552083
#
# Coordination Sequence:
#
# PCOD8302238 Si02
#       8
#     2   4   2   4   1   4   4   1
#     4   9  20  35  57  86 109 144 198 240 285 357
#     4   9  20  38  59  84 118 156 193 236 297 368
#     4  10  22  38  60  92 118 150 202 246 288 360
#     4  10  22  38  55  82 118 156 193 243 309 362
#     4  10  16  32  60  80 102 144 194 248 286 336
#     4  10  22  39  59  84 119 159 194 243 308 360
#     4   9  19  36  56  79 110 148 190 238 300 358
#     4  12  24  36  56  88 114 148 212 260 284 344
#
# _framework density 20.937301000000001
#
# number of rings (size 3 to 8) (size 9 to 14) (size 15 to 20)
#    0.000    2.364    0.000    1.091    0.000   11.636 
#    0.000    3.636    0.000    0.000    0.000    0.000 
#    0.000    0.000    0.000    0.000    0.000    0.000 
#
# Total GULP energy -272598.039460 kJ/mol
# GULP energy per Si atom -12390.819975 kJ/mol
# Density = 2.088965 g / cm^3
# Si number density = 20.937301 Si / 1000 Ang^3
#
#
#
# Elastic Constant Matrix: (Units=GPa)
#
#
# Indices 1 2 3 4 5 6 
#
# 1 84.4037 16.4207 50.2373 0.0000 0.0000 -6.9790
# 2 16.4207 84.4037 50.2373 0.0000 0.0000 6.9790
# 3 50.2373 50.2373 142.4532 0.0000 0.0000 0.0000
# 4 0.0000 0.0000 0.0000 23.6052 0.0000 0.0000
# 5 0.0000 0.0000 0.0000 0.0000 23.6052 0.0000
# 6 -6.9790 6.9790 0.0000 0.0000 0.0000 25.7279
#
#
#
# Elastic Compliance Matrix: (Units=1/GPa)
#
#
# Indices 1 2 3 4 5 6 
#
# 1 0.015435 -0.000142 -0.005393 0.000000 0.000000 0.004225
# 2 -0.000142 0.015435 -0.005393 0.000000 0.000000 -0.004225
# 3 -0.005393 -0.005393 0.010824 0.000000 0.000000 0.000000
# 4 0.000000 0.000000 0.000000 0.042363 0.000000 0.000000
# 5 0.000000 0.000000 0.000000 0.000000 0.042363 0.000000
# 6 0.004225 -0.004225 0.000000 0.000000 0.000000 0.041161
#
#
# Mechanical properties :
#
#
# Convention : Reuss Voigt Hill
#
# Bulk Modulus (GPa) = 50.41188 60.56124 55.48656
# Shear Modulus (GPa) = 25.50370 27.54536 26.52453
#
# Velocity S-wave (km/s) = 3.49391 3.63107 3.56315
# Velocity P-wave (km/s) = 6.35660 6.82403 6.59446
#
# Compressibility (1/GPa) = 0.01983660
#
# Stress axis : x y z
#
# Youngs Moduli (GPa) = 64.78845 64.78845 92.39018
#
# Poissons Ratio (x) = 0.00922 0.49827
# Poissons Ratio (y) = 0.00922 0.49827
# Poissons Ratio (z) = 0.34941 0.34941
#
# Static dielectric constant tensor:
#      x y z
#    x 3.823950 0.000000 0.000000 
#    y 0.000000 3.823950 0.000000 
#    z 0.000000 0.000000 3.908300 
# 
# 
# High freq. dielectric constant tensor:
#      x y z
#    x 1.812480 0.000000 0.000000 
#    y 0.000000 1.812480 0.000000 
#    z 0.000000 0.000000 1.824650 
# 
# From -- ./inp_files/1575.got.cif
#   From: 2010.03.12/outbox.cif.g09.slc.cpg/sg81_cif.got.tgz:1575.got - 2010.04.08 20:01:38.
