data_PCOD8302925
_publ_section_title
;
Structure prediction by ZEFSAII (Michael W. Deem and Ramdas Pophale) SiO2 
 PCOD8302925
Probable space group: P 4/M
;
_chemical_formula_sum "Si O2"
_cell_formula_units_Z 28
_cell_length_a 9.851546
_cell_length_b 9.851546
_cell_length_c 15.863542
_cell_angle_alpha 90.000000
_cell_angle_beta 90.000000
_cell_angle_gamma 90.000000
_cell_volume 1539.603685
_symmetry_space_group_name_H-M "P 4/M"
_symmetry_group_IT_number 83
_symmetry_cell_setting 'tetragonal'
loop_
_space_group_symop_operation_xyz
x,y,z
-y,x,z
-x,-y,z
y,-x,z
-x,-y,-z
y,-x,-z
x,y,-z
-y,x,-z
loop_
_atom_site_type_symbol
_atom_site_label
_atom_site_fract_x
_atom_site_fract_y
_atom_site_fract_z
Si Si1 0.711311 0.420036 0.500000
Si Si2 0.350552 0.866155 0.258920
Si Si3 0.938112 0.785266 0.094431
Si Si4 0.364594 0.157943 0.676185
O O1 0.672688 0.577879 0.500000
O O2 0.803194 0.385885 0.579663
O O3 0.500460 0.804172 0.270555
O O4 0.237827 0.759773 0.284761
O O5 0.333145 0.905834 0.160876
O O6 0.333608 0.997937 0.318432
O O7 0.835414 0.909178 0.108855
O O8 0.920871 0.726452 0.000000
#
# Coordination Sequence:
#
# PCOD8302925 Si02
#       4
#     4   8   8   8
#     4  11  22  41  65  88 116 163 210 245 297 364
#     4  11  22  39  59  93 122 158 198 247 305 357
#     4   9  17  33  61  90 120 160 204 247 294 357
#     4  11  24  38  63  88 121 160 198 251 302 355
#
# _framework density 18.186499000000001
#
# number of rings (size 3 to 8) (size 9 to 14) (size 15 to 20)
#    0.000    1.571    5.714    0.857    0.000    4.571 
#    0.000    4.286    0.000    1.714    0.000    2.000 
#    0.000    0.000    0.000    0.000    0.000    0.000 
#
# Total GULP energy -347241.315693 kJ/mol
# GULP energy per Si atom -12401.475560 kJ/mol
# Density = 1.814511 g / cm^3
# Si number density = 18.186499 Si / 1000 Ang^3
#
#
#
# Elastic Constant Matrix: (Units=GPa)
#
#
# Indices 1 2 3 4 5 6 
#
# 1 84.2558 32.2209 44.0107 0.0000 0.0000 -12.0106
# 2 32.2209 84.2558 44.0107 0.0000 0.0000 12.0106
# 3 44.0107 44.0107 164.4362 0.0000 0.0000 0.0000
# 4 0.0000 0.0000 0.0000 -133.4542 0.0000 0.0000
# 5 0.0000 0.0000 0.0000 0.0000 -133.4542 0.0000
# 6 -12.0106 12.0106 0.0000 0.0000 0.0000 31.2323
#
#
#
# Elastic Compliance Matrix: (Units=1/GPa)
#
#
# Indices 1 2 3 4 5 6 
#
# 1 0.017064 -0.006302 -0.002880 0.000000 0.000000 0.008986
# 2 -0.006302 0.017064 -0.002880 0.000000 0.000000 -0.008986
# 3 -0.002880 -0.002880 0.007623 0.000000 0.000000 0.000000
# 4 0.000000 0.000000 0.000000 -0.007493 0.000000 0.000000
# 5 0.000000 0.000000 0.000000 0.000000 -0.007493 0.000000
# 6 0.008986 -0.008986 0.000000 0.000000 0.000000 0.038929
#
#
# Mechanical properties :
#
#
# Convention : Reuss Voigt Hill
#
# Bulk Modulus (GPa) = 56.73502 63.71471 60.22487
# Shear Modulus (GPa) = 52.24944 -32.95483 9.64730
#
# Velocity S-wave (km/s) = 5.36583 -4.26144 2.30568
# Velocity P-wave (km/s) = 8.34587 3.30106 6.34628
#
# Compressibility (1/GPa) = 0.01762580
#
# Stress axis : x y z
#
# Youngs Moduli (GPa) = 58.60272 58.60272 131.17735
#
# Poissons Ratio (x) = 0.36931 0.37785
# Poissons Ratio (y) = 0.36931 0.37785
# Poissons Ratio (z) = 0.16880 0.16880
#
# Static dielectric constant tensor:
#      x y z
#    x 3.349980 0.000000 0.000000 
#    y 0.000000 3.349980 0.000000 
#    z 0.000000 0.000000 3.480360 
# 
# 
# High freq. dielectric constant tensor:
#      x y z
#    x 1.700970 0.000000 0.000000 
#    y 0.000000 1.700970 0.000000 
#    z 0.000000 0.000000 1.712820 
# 
# From -- ./inp_files/2767.got.cif
#   From: 2010.03.12/outbox.cif.g09.slc.cpg/sg83_2_cif.got.tgz:2767.got - 2010.04.08 20:05:18.
