data_PCOD8302585
_publ_section_title
;
Structure prediction by ZEFSAII (Michael W. Deem and Ramdas Pophale) SiO2 
 PCOD8302585
Probable space group: I -4 
;
_chemical_formula_sum "Si O2"
_cell_formula_units_Z 26
_cell_length_a 7.841228
_cell_length_b 7.841228
_cell_length_c 15.717326
_cell_angle_alpha 90.000000
_cell_angle_beta 90.000000
_cell_angle_gamma 90.000000
_cell_volume 966.377534
_symmetry_space_group_name_H-M "I -4 "
_symmetry_group_IT_number 82
_symmetry_cell_setting 'tetragonal'
loop_
_space_group_symop_operation_xyz
x,y,z
y,-x,-z
-x,-y,z
-y,x,-z
1/2+x,1/2+y,1/2+z
1/2+y,1/2-x,1/2-z
1/2-x,1/2-y,1/2+z
1/2-y,1/2+x,1/2-z
loop_
_atom_site_type_symbol
_atom_site_label
_atom_site_fract_x
_atom_site_fract_y
_atom_site_fract_z
Si Si1 0.089938 0.299470 0.696955
Si Si2 0.175816 0.669160 0.560228
Si Si3 0.000000 0.000000 0.000000
Si Si4 0.189474 0.477595 0.123072
O O1 0.219334 0.451385 0.726250
O O2 0.192487 0.123062 0.690027
O O3 0.001240 0.368875 0.609921
O O4 0.332581 0.532566 0.560137
O O5 0.132707 0.690277 0.462060
O O6 0.232381 0.840055 0.606812
O O7 0.000000 0.500000 0.160184
#
# Coordination Sequence:
#
# PCOD8302585 Si02
#       4
#     8   8   2   8
#     4  11  29  51  84 124 188 235 292 374 475 514
#     4  12  26  50  85 129 176 238 299 372 441 555
#     4  12  28  44  92 132 176 220 338 352 424 556
#     4  12  26  51  91 124 172 240 313 360 454 550
#
# _framework density 26.904596000000002
#
# number of rings (size 3 to 8) (size 9 to 14) (size 15 to 20)
#    0.000    0.308    6.154    0.923   12.923    0.000 
#   16.615    0.000    0.000    0.000    0.000    0.000 
#    0.000    0.000    0.000    0.000    0.000    0.000 
#
# Total GULP energy -161098.818078 kJ/mol
# GULP energy per Si atom -12392.216775 kJ/mol
# Density = 2.684336 g / cm^3
# Si number density = 26.904596 Si / 1000 Ang^3
#
#
#
# Elastic Constant Matrix: (Units=GPa)
#
#
# Indices 1 2 3 4 5 6 
#
# 1 160.4088 66.1403 39.7306 0.0000 0.0000 -5.6274
# 2 66.1403 160.4088 39.7306 0.0000 0.0000 5.6274
# 3 39.7306 39.7306 89.5796 0.0000 0.0000 0.0000
# 4 0.0000 0.0000 0.0000 45.1065 0.0000 0.0000
# 5 0.0000 0.0000 0.0000 0.0000 45.1065 0.0000
# 6 -5.6274 5.6274 0.0000 0.0000 0.0000 46.0434
#
#
#
# Elastic Compliance Matrix: (Units=1/GPa)
#
#
# Indices 1 2 3 4 5 6 
#
# 1 0.007996 -0.002769 -0.002318 0.000000 0.000000 0.001316
# 2 -0.002769 0.007996 -0.002318 0.000000 0.000000 -0.001316
# 3 -0.002318 -0.002318 0.013220 0.000000 0.000000 0.000000
# 4 0.000000 0.000000 0.000000 0.022170 0.000000 0.000000
# 5 0.000000 0.000000 0.000000 0.000000 0.022170 0.000000
# 6 0.001316 -0.001316 0.000000 0.000000 0.000000 0.022040
#
#
# Mechanical properties :
#
#
# Convention : Reuss Voigt Hill
#
# Bulk Modulus (GPa) = 69.44134 77.95560 73.69847
# Shear Modulus (GPa) = 43.40148 44.90433 44.15290
#
# Velocity S-wave (km/s) = 4.02078 4.08980 4.05543
# Velocity P-wave (km/s) = 6.88635 7.16517 7.02714
#
# Compressibility (1/GPa) = 0.01440064
#
# Stress axis : x y z
#
# Youngs Moduli (GPa) = 125.06020 125.06020 75.64427
#
# Poissons Ratio (x) = 0.34628 0.17537
# Poissons Ratio (y) = 0.34628 0.17537
# Poissons Ratio (z) = 0.28994 0.28994
#
# Static dielectric constant tensor:
#      x y z
#    x 5.355450 0.000000 0.000000 
#    y 0.000000 5.355450 0.000000 
#    z 0.000000 0.000000 4.931330 
# 
# 
# High freq. dielectric constant tensor:
#      x y z
#    x 2.095720 0.000000 0.000000 
#    y 0.000000 2.095720 0.000000 
#    z 0.000000 0.000000 2.072950 
# 
# From -- ./inp_files/2419.got.cif
#   From: 2010.03.12/outbox.cif.g09.slc.cpg/sg82_2_cif.got.tgz:2419.got - 2010.04.08 20:02:50.
