data_PCOD8302046
_publ_section_title
;
Structure prediction by ZEFSAII (Michael W. Deem and Ramdas Pophale) SiO2 
 PCOD8302046
Probable space group: P 43
;
_chemical_formula_sum "Si O2"
_cell_formula_units_Z 28
_cell_length_a 11.519052
_cell_length_b 11.519052
_cell_length_c 9.267614
_cell_angle_alpha 90.000000
_cell_angle_beta 90.000000
_cell_angle_gamma 90.000000
_cell_volume 1229.706347
_symmetry_space_group_name_H-M "P 43"
_symmetry_group_IT_number 78
_symmetry_cell_setting 'tetragonal'
loop_
_space_group_symop_operation_xyz
x,y,z
-y,x,3/4+z
-x,-y,1/2+z
y,-x,1/4+z
loop_
_atom_site_type_symbol
_atom_site_label
_atom_site_fract_x
_atom_site_fract_y
_atom_site_fract_z
Si Si1 0.882051 0.949116 0.380600
Si Si2 0.663050 0.705357 0.092747
Si Si3 0.480536 0.300928 0.145527
Si Si4 0.696897 0.093477 0.727825
Si Si5 0.879624 0.407484 0.108138
Si Si6 0.079099 0.334852 0.659181
Si Si7 0.471092 0.711115 0.333880
O O1 0.873950 0.831907 0.474061
O O2 0.954735 0.937766 0.235072
O O3 0.752309 0.988446 0.332347
O O4 0.663084 0.595332 0.984986
O O5 0.617774 0.820370 0.011622
O O6 0.793231 0.722989 0.149393
O O7 0.583323 0.690469 0.233814
O O8 0.393680 0.218410 0.235598
O O9 0.416547 0.420371 0.109466
O O10 0.503162 0.235866 0.992795
O O11 0.654487 0.043388 0.575478
O O12 0.623390 0.207244 0.760756
O O13 0.678691 0.988168 0.840725
O O14 0.927712 0.538740 0.089218
#
# Coordination Sequence:
#
# PCOD8302046 Si02
#       7
#     4   4   4   4   4   4   4
#     4  10  25  47  74  99 135 180 241 295 353 420
#     4  11  25  48  70 104 145 190 239 289 367 433
#     4  11  27  40  69 107 142 186 235 290 350 436
#     4  11  26  45  71 103 139 182 236 299 352 428
#     4  11  25  47  72 103 146 183 241 294 356 431
#     4  10  24  48  70 103 140 188 234 296 353 434
#     4  12  26  41  72 101 143 191 228 291 359 422
#
# _framework density 22.769666000000001
#
# number of rings (size 3 to 8) (size 9 to 14) (size 15 to 20)
#    0.000    1.143    2.857    0.857   12.000    2.286 
#    2.571    0.000    0.000    0.000    0.000    0.000 
#    0.000    0.000    0.000    0.000    0.000    0.000 
#
# Total GULP energy -347212.456192 kJ/mol
# GULP energy per Si atom -12400.444864 kJ/mol
# Density = 2.271784 g / cm^3
# Si number density = 22.769666 Si / 1000 Ang^3
#
#
#
# Elastic Constant Matrix: (Units=GPa)
#
#
# Indices 1 2 3 4 5 6 
#
# 1 91.2378 42.6008 10.7343 0.0000 0.0000 -4.9806
# 2 42.6008 91.2378 10.7343 0.0000 0.0000 4.9806
# 3 10.7343 10.7343 84.5986 0.0000 0.0000 0.0000
# 4 0.0000 0.0000 0.0000 31.9810 0.0000 0.0000
# 5 0.0000 0.0000 0.0000 0.0000 31.9810 0.0000
# 6 -4.9806 4.9806 0.0000 0.0000 0.0000 46.5354
#
#
#
# Elastic Compliance Matrix: (Units=1/GPa)
#
#
# Indices 1 2 3 4 5 6 
#
# 1 0.014324 -0.006697 -0.000968 0.000000 0.000000 0.002250
# 2 -0.006697 0.014324 -0.000968 0.000000 0.000000 -0.002250
# 3 -0.000968 -0.000968 0.012066 0.000000 0.000000 0.000000
# 4 0.000000 0.000000 0.000000 0.031269 0.000000 0.000000
# 5 0.000000 0.000000 0.000000 0.000000 0.031269 0.000000
# 6 0.002250 -0.002250 0.000000 0.000000 0.000000 0.021971
#
#
# Mechanical properties :
#
#
# Convention : Reuss Voigt Hill
#
# Bulk Modulus (GPa) = 42.64575 43.91252 43.27913
# Shear Modulus (GPa) = 33.26597 35.63312 34.44954
#
# Velocity S-wave (km/s) = 3.82642 3.96022 3.89390
# Velocity P-wave (km/s) = 6.18804 6.34339 6.26619
#
# Compressibility (1/GPa) = 0.02344900
#
# Stress axis : x y z
#
# Youngs Moduli (GPa) = 69.81240 69.81240 82.87672
#
# Poissons Ratio (x) = 0.46755 0.08020
# Poissons Ratio (y) = 0.46755 0.08020
# Poissons Ratio (z) = 0.06756 0.06756
#
# Static dielectric constant tensor:
#      x y z
#    x 4.109800 0.000000 0.000000 
#    y 0.000000 4.109800 0.000000 
#    z 0.000000 0.000000 4.348110 
# 
# 
# High freq. dielectric constant tensor:
#      x y z
#    x 1.900400 0.000000 0.000000 
#    y 0.000000 1.900400 0.000000 
#    z 0.000000 0.000000 1.903710 
# 
# From -- ./inp_files/633.got.cif
#   From: 2010.03.12/outbox.cif.g09.slc.cpg/sg78_cif.got.tgz:633.got - 2010.04.16 16:37:20.
