data_PCOD8302992
_publ_section_title
;
Structure prediction by ZEFSAII (Michael W. Deem and Ramdas Pophale) SiO2 
 PCOD8302992
Probable space group: P 4/M
;
_chemical_formula_sum "Si O2"
_cell_formula_units_Z 28
_cell_length_a 8.219517
_cell_length_b 8.219517
_cell_length_c 19.110871
_cell_angle_alpha 90.000000
_cell_angle_beta 90.000000
_cell_angle_gamma 90.000000
_cell_volume 1291.139230
_symmetry_space_group_name_H-M "P 4/M"
_symmetry_group_IT_number 83
_symmetry_cell_setting 'tetragonal'
loop_
_space_group_symop_operation_xyz
x,y,z
-y,x,z
-x,-y,z
y,-x,z
-x,-y,-z
y,-x,-z
x,y,-z
-y,x,-z
loop_
_atom_site_type_symbol
_atom_site_label
_atom_site_fract_x
_atom_site_fract_y
_atom_site_fract_z
Si Si1 0.500000 0.000000 0.184526
Si Si2 0.246709 0.584861 0.079000
Si Si3 0.756660 0.579305 0.295646
Si Si4 0.097945 0.248115 0.579328
O O1 0.621448 0.896127 0.134395
O O2 0.388033 0.884273 0.233227
O O3 0.298417 0.398193 0.092364
O O4 0.181433 0.606894 0.000000
O O5 0.606630 0.701258 0.288732
O O6 0.844925 0.607265 0.369925
O O7 0.122141 0.309630 0.500000
O O8 0.910579 0.206822 0.593603
#
# Coordination Sequence:
#
# PCOD8302992 Si02
#       4
#     4   8   8   8
#     4  12  21  34  57  84 114 152 190 236 289 340
#     4   9  19  37  61  88 116 147 187 235 287 347
#     4  11  24  39  56  83 117 154 199 246 291 344
#     4   9  19  38  63  89 118 152 190 235 290 350
#
# _framework density 21.686274000000001
#
# number of rings (size 3 to 8) (size 9 to 14) (size 15 to 20)
#    0.000    2.000    0.000    5.571    0.000    3.429 
#    0.000    5.000    0.000    7.714    0.000   16.000 
#    0.000    0.000    0.000    0.000    0.000    0.000 
#
# Total GULP energy -347186.206984 kJ/mol
# GULP energy per Si atom -12399.507392 kJ/mol
# Density = 2.163691 g / cm^3
# Si number density = 21.686274 Si / 1000 Ang^3
#
#
#
# Elastic Constant Matrix: (Units=GPa)
#
#
# Indices 1 2 3 4 5 6 
#
# 1 94.4739 25.9974 66.9645 0.0000 0.0000 -5.6915
# 2 25.9974 94.4739 66.9645 0.0000 0.0000 5.6915
# 3 66.9645 66.9645 178.2681 0.0000 0.0000 0.0000
# 4 0.0000 0.0000 0.0000 38.5538 0.0000 0.0000
# 5 0.0000 0.0000 0.0000 0.0000 38.5538 0.0000
# 6 -5.6915 5.6915 0.0000 0.0000 0.0000 26.5229
#
#
#
# Elastic Compliance Matrix: (Units=1/GPa)
#
#
# Indices 1 2 3 4 5 6 
#
# 1 0.014698 -0.000446 -0.005354 0.000000 0.000000 0.003250
# 2 -0.000446 0.014698 -0.005354 0.000000 0.000000 -0.003250
# 3 -0.005354 -0.005354 0.009632 0.000000 0.000000 0.000000
# 4 0.000000 0.000000 0.000000 0.025938 0.000000 0.000000
# 5 0.000000 0.000000 0.000000 0.000000 0.025938 0.000000
# 6 0.003250 -0.003250 0.000000 0.000000 0.000000 0.039098
#
#
# Mechanical properties :
#
#
# Convention : Reuss Voigt Hill
#
# Bulk Modulus (GPa) = 59.80268 76.34096 68.07182
# Shear Modulus (GPa) = 31.66919 34.54541 33.10730
#
# Velocity S-wave (km/s) = 3.82558 3.99552 3.91147
# Velocity P-wave (km/s) = 6.86655 7.52093 7.20118
#
# Compressibility (1/GPa) = 0.01672166
#
# Stress axis : x y z
#
# Youngs Moduli (GPa) = 68.03548 68.03548 103.82305
#
# Poissons Ratio (x) = 0.03031 0.55585
# Poissons Ratio (y) = 0.03031 0.55585
# Poissons Ratio (z) = 0.36425 0.36425
#
# Static dielectric constant tensor:
#      x y z
#    x 3.740020 0.000000 0.000000 
#    y 0.000000 3.740020 0.000000 
#    z 0.000000 0.000000 4.137100 
# 
# 
# High freq. dielectric constant tensor:
#      x y z
#    x 1.833520 0.000000 0.000000 
#    y 0.000000 1.833520 0.000000 
#    z 0.000000 0.000000 1.873830 
# 
# From -- ./inp_files/2517.got.cif
#   From: 2010.03.12/outbox.cif.g09.slc.cpg/sg83_2_cif.got.tgz:2517.got - 2010.04.08 20:05:18.
