data_PCOD8302083
_publ_section_title
;
Structure prediction by ZEFSAII (Michael W. Deem and Ramdas Pophale) SiO2 
 PCOD8302083
Probable space group: I 4
;
_chemical_formula_sum "Si O2"
_cell_formula_units_Z 60
_cell_length_a 17.377964
_cell_length_b 17.377964
_cell_length_c 9.054087
_cell_angle_alpha 90.000000
_cell_angle_beta 90.000000
_cell_angle_gamma 90.000000
_cell_volume 2734.276625
_symmetry_space_group_name_H-M "I 4"
_symmetry_group_IT_number 79
_symmetry_cell_setting 'tetragonal'
loop_
_space_group_symop_operation_xyz
x,y,z
-y,x,z
-x,-y,z
y,-x,z
1/2+x,1/2+y,1/2+z
1/2-y,1/2+x,1/2+z
1/2-x,1/2-y,1/2+z
1/2+y,1/2-x,1/2+z
loop_
_atom_site_type_symbol
_atom_site_label
_atom_site_fract_x
_atom_site_fract_y
_atom_site_fract_z
Si Si1 0.618436 0.544141 0.368030
Si Si2 0.500000 0.000000 0.908920
Si Si3 0.306778 0.199848 0.790463
Si Si4 0.431194 0.730648 0.122480
Si Si5 0.607983 0.995844 0.655210
Si Si6 0.415553 0.170344 0.557386
Si Si7 0.228592 0.418598 0.525780
Si Si8 0.856061 0.274702 0.350926
O O1 0.544667 0.597633 0.394810
O O2 0.650886 0.544467 0.198793
O O3 0.681509 0.579730 0.479064
O O4 0.428244 0.970300 0.807359
O O5 0.464674 0.070904 0.008449
O O6 0.250712 0.154812 0.678189
O O7 0.381789 0.222596 0.692435
O O8 0.271534 0.277381 0.850361
O O9 0.320527 0.141042 0.926654
O O10 0.493095 0.798890 0.160797
O O11 0.419963 0.726497 0.945718
O O12 0.572216 0.910778 0.637524
O O13 0.495119 0.201509 0.495871
O O14 0.358027 0.161947 0.418671
O O15 0.214874 0.392502 0.691367
#
# Coordination Sequence:
#
# PCOD8302083 Si02
#       8
#     8   4   8   8   8   8   8   8
#     4  10  24  46  71  97 130 170 220 279 345 408
#     4  10  20  36  58  78 128 166 216 260 312 366
#     4   9  20  41  64  92 134 173 224 271 335 400
#     4   9  21  42  61  92 131 166 220 261 340 401
#     4   9  21  36  56  85 123 168 213 255 315 383
#     4  10  24  38  60  93 136 163 223 271 332 399
#     4  11  23  40  73 100 130 178 227 275 340 393
#     4  10  21  42  66  99 134 170 233 278 327 401
#
# _framework density 21.943646000000001
#
# number of rings (size 3 to 8) (size 9 to 14) (size 15 to 20)
#    0.000    2.533    0.000    1.600   14.933    0.000 
#    2.400    2.667    0.000    1.600    0.000    0.000 
#    0.000    0.000    0.000    0.000    0.000    0.000 
#
# Total GULP energy -371652.693852 kJ/mol
# GULP energy per Si atom -12388.423128 kJ/mol
# Density = 2.189370 g / cm^3
# Si number density = 21.943646 Si / 1000 Ang^3
#
#
#
# Elastic Constant Matrix: (Units=GPa)
#
#
# Indices 1 2 3 4 5 6 
#
# 1 77.7273 21.9632 35.8825 0.0000 0.0000 11.7532
# 2 21.9632 77.7273 35.8825 0.0000 0.0000 -11.7532
# 3 35.8825 35.8825 158.5213 0.0000 0.0000 0.0000
# 4 0.0000 0.0000 0.0000 23.1319 0.0000 0.0000
# 5 0.0000 0.0000 0.0000 0.0000 23.1319 0.0000
# 6 11.7532 -11.7532 0.0000 0.0000 0.0000 29.0808
#
#
#
# Elastic Compliance Matrix: (Units=1/GPa)
#
#
# Indices 1 2 3 4 5 6 
#
# 1 0.016799 -0.004816 -0.002713 0.000000 0.000000 -0.008736
# 2 -0.004816 0.016799 -0.002713 0.000000 0.000000 0.008736
# 3 -0.002713 -0.002713 0.007536 0.000000 0.000000 0.000000
# 4 0.000000 0.000000 0.000000 0.043230 0.000000 0.000000
# 5 0.000000 0.000000 0.000000 0.000000 0.043230 0.000000
# 6 -0.008736 0.008736 0.000000 0.000000 0.000000 0.041448
#
#
# Mechanical properties :
#
#
# Convention : Reuss Voigt Hill
#
# Bulk Modulus (GPa) = 48.41803 55.71471 52.06637
# Shear Modulus (GPa) = 25.45684 29.75208 27.60446
#
# Velocity S-wave (km/s) = 3.40972 3.68617 3.55064
# Velocity P-wave (km/s) = 6.13304 6.60016 6.37088
#
# Compressibility (1/GPa) = 0.02065346
#
# Stress axis : x y z
#
# Youngs Moduli (GPa) = 59.52561 59.52561 132.69021
#
# Poissons Ratio (x) = 0.28666 0.35994
# Poissons Ratio (y) = 0.28666 0.35994
# Poissons Ratio (z) = 0.16147 0.16147
#
# Static dielectric constant tensor:
#      x y z
#    x 3.966560 0.000000 0.000000 
#    y 0.000000 3.966560 0.000000 
#    z 0.000000 0.000000 4.487790 
# 
# 
# High freq. dielectric constant tensor:
#      x y z
#    x 1.844670 0.000000 0.000000 
#    y 0.000000 1.844670 0.000000 
#    z 0.000000 0.000000 1.880970 
# 
# From -- ./inp_files/749.got.cif
#   From: 2010.03.12/outbox.cif.g09.slc.cpg/sg79_cif.got.tgz:749.got - 2010.04.16 16:38:49.
