data_PCOD8302205
_publ_section_title
;
Structure prediction by ZEFSAII (Michael W. Deem and Ramdas Pophale) SiO2 
 PCOD8302205
Probable space group: I 41
;
_chemical_formula_sum "Si O2"
_cell_formula_units_Z 40
_cell_length_a 13.307502
_cell_length_b 13.307502
_cell_length_c 10.117615
_cell_angle_alpha 90.000000
_cell_angle_beta 90.000000
_cell_angle_gamma 90.000000
_cell_volume 1791.724489
_symmetry_space_group_name_H-M "I 41"
_symmetry_group_IT_number 80
_symmetry_cell_setting 'tetragonal'
loop_
_space_group_symop_operation_xyz
x,y,z
-y,1/2+x,1/4+z
-x,-y,z
y,1/2-x,1/4+z
1/2+x,1/2+y,1/2+z
1/2-y,x,3/4+z
1/2-x,1/2-y,1/2+z
1/2+y,-x,3/4+z
loop_
_atom_site_type_symbol
_atom_site_label
_atom_site_fract_x
_atom_site_fract_y
_atom_site_fract_z
Si Si1 0.658246 0.244349 0.877100
Si Si2 0.095272 0.926854 0.955240
Si Si3 0.827066 0.810119 0.593015
Si Si4 0.536285 0.392688 0.025349
Si Si5 0.524937 0.206711 0.452865
O O1 0.725240 0.266477 0.748055
O O2 0.585553 0.148787 0.848275
O O3 0.589840 0.340746 0.902604
O O4 0.181718 0.970839 0.858789
O O5 0.065333 0.814929 0.911160
O O6 0.000000 0.000000 0.963972
O O7 0.796834 0.720929 0.695504
O O8 0.947796 0.820059 0.578553
O O9 0.787440 0.911110 0.657437
O O10 0.500000 0.500000 0.971632
O O11 0.616042 0.410485 0.141435
#
# Coordination Sequence:
#
# PCOD8302205 Si02
#       5
#     8   8   8   8   8
#     4  12  27  47  74 109 146 194 246 314 376 454
#     4  12  25  44  72 108 146 186 252 312 379 453
#     4  11  25  46  72 104 147 204 250 311 377 456
#     4  10  25  44  73 105 145 194 251 308 376 449
#     4  11  23  45  73 104 139 195 249 310 374 460
#
# _framework density 22.324860999999999
#
# number of rings (size 3 to 8) (size 9 to 14) (size 15 to 20)
#    0.000    0.800    2.000    5.400    8.400    4.000 
#    0.000    0.000    0.000    0.000    0.000    0.000 
#    0.000    0.000    0.000    0.000    0.000    0.000 
#
# Total GULP energy -247927.329839 kJ/mol
# GULP energy per Si atom -12396.366492 kJ/mol
# Density = 2.227405 g / cm^3
# Si number density = 22.324861 Si / 1000 Ang^3
#
#
#
# Elastic Constant Matrix: (Units=GPa)
#
#
# Indices 1 2 3 4 5 6 
#
# 1 119.8052 53.0445 53.1855 0.0000 0.0000 -1.2848
# 2 53.0445 119.8052 53.1855 0.0000 0.0000 1.2848
# 3 53.1855 53.1855 115.8803 0.0000 0.0000 0.0000
# 4 0.0000 0.0000 0.0000 37.3486 0.0000 0.0000
# 5 0.0000 0.0000 0.0000 0.0000 37.3486 0.0000
# 6 -1.2848 1.2848 0.0000 0.0000 0.0000 31.7639
#
#
#
# Elastic Compliance Matrix: (Units=1/GPa)
#
#
# Indices 1 2 3 4 5 6 
#
# 1 0.011532 -0.003470 -0.003701 0.000000 0.000000 0.000607
# 2 -0.003470 0.011532 -0.003701 0.000000 0.000000 -0.000607
# 3 -0.003701 -0.003701 0.012026 0.000000 0.000000 0.000000
# 4 0.000000 0.000000 0.000000 0.026775 0.000000 0.000000
# 5 0.000000 0.000000 0.000000 0.000000 0.026775 0.000000
# 6 0.000607 -0.000607 0.000000 0.000000 0.000000 0.031531
#
#
# Mechanical properties :
#
#
# Convention : Reuss Voigt Hill
#
# Bulk Modulus (GPa) = 74.90806 74.92464 74.91635
# Shear Modulus (GPa) = 34.16147 34.36390 34.26268
#
# Velocity S-wave (km/s) = 3.91602 3.92760 3.92182
# Velocity P-wave (km/s) = 7.35346 7.36220 7.35783
#
# Compressibility (1/GPa) = 0.01334970
#
# Stress axis : x y z
#
# Youngs Moduli (GPa) = 86.71194 86.71194 83.15009
#
# Poissons Ratio (x) = 0.30087 0.30770
# Poissons Ratio (y) = 0.30087 0.30770
# Poissons Ratio (z) = 0.32088 0.32088
#
# Static dielectric constant tensor:
#      x y z
#    x 4.190310 0.000000 0.000000 
#    y 0.000000 4.190310 0.000000 
#    z 0.000000 0.000000 3.987430 
# 
# 
# High freq. dielectric constant tensor:
#      x y z
#    x 1.887330 0.000000 0.000000 
#    y 0.000000 1.887330 0.000000 
#    z 0.000000 0.000000 1.870840 
# 
# From -- ./inp_files/612.got.cif
#   From: 2010.03.12/outbox.cif.g09.slc.cpg/sg80_cif.got.tgz:612.got - 2010.04.08 20:00:04.
