data_PCOD8302071
_publ_section_title
;
Structure prediction by ZEFSAII (Michael W. Deem and Ramdas Pophale) SiO2 
 PCOD8302071
Probable space group: P 43
;
_chemical_formula_sum "Si O2"
_cell_formula_units_Z 20
_cell_length_a 5.268578
_cell_length_b 5.268578
_cell_length_c 27.562673
_cell_angle_alpha 90.000000
_cell_angle_beta 90.000000
_cell_angle_gamma 90.000000
_cell_volume 765.082311
_symmetry_space_group_name_H-M "P 43"
_symmetry_group_IT_number 78
_symmetry_cell_setting 'tetragonal'
loop_
_space_group_symop_operation_xyz
x,y,z
-y,x,3/4+z
-x,-y,1/2+z
y,-x,1/4+z
loop_
_atom_site_type_symbol
_atom_site_label
_atom_site_fract_x
_atom_site_fract_y
_atom_site_fract_z
Si Si1 0.348363 0.251580 0.259480
Si Si2 0.665275 0.751884 0.258546
Si Si3 0.999740 0.484970 0.329237
Si Si4 0.832535 0.759177 0.649892
Si Si5 0.740681 0.151026 0.398844
O O1 0.475101 0.522717 0.267879
O O2 0.111728 0.252775 0.296735
O O3 0.249390 0.232983 0.205273
O O4 0.537179 0.020626 0.271033
O O5 0.750785 0.735958 0.203290
O O6 0.905341 0.712148 0.293885
O O7 0.221416 0.587289 0.365160
O O8 0.760448 0.385927 0.361335
O O9 0.986562 0.506501 0.636914
O O10 0.995165 0.006312 0.639327
#
# Coordination Sequence:
#
# PCOD8302071 Si02
#       5
#     4   4   4   4   4
#     4  12  29  53  84 121 175 227 294 363 438 519
#     4  12  29  53  84 121 175 227 294 363 438 519
#     4  12  32  48  84 124 170 232 292 356 444 526
#     4  12  29  53  84 121 175 227 294 363 438 519
#     4  12  29  53  84 121 175 227 294 363 438 519
#
# _framework density 26.140979000000002
#
# number of rings (size 3 to 8) (size 9 to 14) (size 15 to 20)
#    0.000    0.000    4.000    2.400   11.200    0.000 
#    0.000    0.000    0.000    0.000    0.000    0.000 
#    0.000    0.000    0.000    0.000    0.000    0.000 
#
# Total GULP energy -248122.156484 kJ/mol
# GULP energy per Si atom -12406.107824 kJ/mol
# Density = 2.608148 g / cm^3
# Si number density = 26.140979 Si / 1000 Ang^3
#
#
#
# Elastic Constant Matrix: (Units=GPa)
#
#
# Indices 1 2 3 4 5 6 
#
# 1 125.7375 58.7501 48.3601 0.0000 0.0000 2.6073
# 2 58.7501 125.7375 48.3601 0.0000 0.0000 -2.6073
# 3 48.3601 48.3601 206.2730 0.0000 0.0000 0.0000
# 4 0.0000 0.0000 0.0000 44.7794 0.0000 0.0000
# 5 0.0000 0.0000 0.0000 0.0000 44.7794 0.0000
# 6 2.6073 -2.6073 0.0000 0.0000 0.0000 67.6485
#
#
#
# Elastic Compliance Matrix: (Units=1/GPa)
#
#
# Indices 1 2 3 4 5 6 
#
# 1 0.010577 -0.004397 -0.001449 0.000000 0.000000 -0.000577
# 2 -0.004397 0.010577 -0.001449 0.000000 0.000000 0.000577
# 3 -0.001449 -0.001449 0.005527 0.000000 0.000000 0.000000
# 4 0.000000 0.000000 0.000000 0.022332 0.000000 0.000000
# 5 0.000000 0.000000 0.000000 0.000000 0.022332 0.000000
# 6 -0.000577 0.000577 0.000000 0.000000 0.000000 0.014827
#
#
# Mechanical properties :
#
#
# Convention : Reuss Voigt Hill
#
# Bulk Modulus (GPa) = 82.70064 85.40987 84.05525
# Shear Modulus (GPa) = 47.71453 51.59329 49.65391
#
# Velocity S-wave (km/s) = 4.27696 4.44740 4.36302
# Velocity P-wave (km/s) = 7.48966 7.68871 7.58984
#
# Compressibility (1/GPa) = 0.01209180
#
# Stress axis : x y z
#
# Youngs Moduli (GPa) = 94.54863 94.54863 180.91952
#
# Poissons Ratio (x) = 0.41569 0.26213
# Poissons Ratio (y) = 0.41569 0.26213
# Poissons Ratio (z) = 0.13699 0.13699
#
# Static dielectric constant tensor:
#      x y z
#    x 4.905150 0.000000 0.000000 
#    y 0.000000 4.905150 0.000000 
#    z 0.000000 0.000000 5.559660 
# 
# 
# High freq. dielectric constant tensor:
#      x y z
#    x 2.052510 0.000000 0.000000 
#    y 0.000000 2.052510 0.000000 
#    z 0.000000 0.000000 2.081430 
# 
# From -- ./inp_files/1634.got.cif
#   From: 2010.03.12/outbox.cif.g09.slc.cpg/sg78_cif.got.tgz:1634.got - 2010.04.16 16:37:20.
