data_PCOD8302879
_publ_section_title
;
Structure prediction by ZEFSAII (Michael W. Deem and Ramdas Pophale) SiO2 
 PCOD8302879
Probable space group: P 4/M
;
_chemical_formula_sum "Si O2"
_cell_formula_units_Z 48
_cell_length_a 15.063964
_cell_length_b 15.063964
_cell_length_c 11.301711
_cell_angle_alpha 90.000000
_cell_angle_beta 90.000000
_cell_angle_gamma 90.000000
_cell_volume 2564.618294
_symmetry_space_group_name_H-M "P 4/M"
_symmetry_group_IT_number 83
_symmetry_cell_setting 'tetragonal'
loop_
_space_group_symop_operation_xyz
x,y,z
-y,x,z
-x,-y,z
y,-x,z
-x,-y,-z
y,-x,-z
x,y,-z
-y,x,-z
loop_
_atom_site_type_symbol
_atom_site_label
_atom_site_fract_x
_atom_site_fract_y
_atom_site_fract_z
Si Si1 0.088638 0.448423 0.135830
Si Si2 0.944193 0.871230 0.639164
Si Si3 0.877279 0.080003 0.000000
Si Si4 0.681835 0.669717 0.859928
Si Si5 0.258316 0.869293 0.805691
Si Si6 0.734537 0.495015 0.247432
Si Si7 0.647959 0.490520 0.500000
O O1 0.073530 0.342902 0.150602
O O2 0.163094 0.478543 0.229199
O O3 0.000000 0.500000 0.169659
O O4 0.117431 0.468465 0.000000
O O5 0.943392 0.869617 0.500000
O O6 0.904039 0.776495 0.679448
O O7 0.045306 0.885005 0.685075
O O8 0.826486 0.115796 0.886858
O O9 0.974250 0.121725 0.000000
O O10 0.765811 0.716762 0.799068
O O11 0.671769 0.569386 0.811924
O O12 0.595432 0.722882 0.823727
O O13 0.696058 0.668986 0.000000
O O14 0.711241 0.485284 0.385587
O O15 0.593209 0.581973 0.500000
#
# Coordination Sequence:
#
# PCOD8302879 Si02
#       7
#     8   8   4   8   8   8   4
#     4  10  22  42  63  86 121 165 203 246 300 364
#     4   9  19  37  59  82 111 150 196 248 299 345
#     4  11  22  34  55  90 124 153 189 246 302 350
#     4  11  22  39  60  90 121 155 193 250 298 358
#     4  11  20  38  57  85 122 152 198 238 294 359
#     4  11  22  40  63  90 122 156 203 246 301 369
#     4  11  22  42  65  92 126 162 195 248 330 377
#
# _framework density 18.716235999999999
#
# number of rings (size 3 to 8) (size 9 to 14) (size 15 to 20)
#    0.000    1.500    3.333    4.000    0.000    4.333 
#    7.500    1.250    0.000    0.000    0.000    0.000 
#    0.000    0.000    0.000    0.000    0.000    0.000 
#
# Total GULP energy -595193.677925 kJ/mol
# GULP energy per Si atom -12399.868290 kJ/mol
# Density = 1.867364 g / cm^3
# Si number density = 18.716236 Si / 1000 Ang^3
#
#
#
# Elastic Constant Matrix: (Units=GPa)
#
#
# Indices 1 2 3 4 5 6 
#
# 1 95.0792 45.9490 30.4210 0.0000 0.0000 -9.4983
# 2 45.9490 95.0792 30.4210 0.0000 0.0000 9.4983
# 3 30.4210 30.4210 72.0222 0.0000 0.0000 0.0000
# 4 0.0000 0.0000 0.0000 40.4356 0.0000 0.0000
# 5 0.0000 0.0000 0.0000 0.0000 40.4356 0.0000
# 6 -9.4983 9.4983 0.0000 0.0000 0.0000 28.9288
#
#
#
# Elastic Compliance Matrix: (Units=1/GPa)
#
#
# Indices 1 2 3 4 5 6 
#
# 1 0.015992 -0.007322 -0.003662 0.000000 0.000000 0.007655
# 2 -0.007322 0.015992 -0.003662 0.000000 0.000000 -0.007655
# 3 -0.003662 -0.003662 0.016978 0.000000 0.000000 0.000000
# 4 0.000000 0.000000 0.000000 0.024731 0.000000 0.000000
# 5 0.000000 0.000000 0.000000 0.000000 0.024731 0.000000
# 6 0.007655 -0.007655 0.000000 0.000000 0.000000 0.039594
#
#
# Mechanical properties :
#
#
# Convention : Reuss Voigt Hill
#
# Bulk Modulus (GPa) = 50.83759 52.86249 51.85004
# Shear Modulus (GPa) = 28.75743 32.31931 30.53837
#
# Velocity S-wave (km/s) = 3.92407 4.15999 4.04375
# Velocity P-wave (km/s) = 6.91031 7.16795 7.04031
#
# Compressibility (1/GPa) = 0.01967048
#
# Stress axis : x y z
#
# Youngs Moduli (GPa) = 62.53006 62.53006 58.89804
#
# Poissons Ratio (x) = 0.45781 0.21571
# Poissons Ratio (y) = 0.45781 0.21571
# Poissons Ratio (z) = 0.22901 0.22901
#
# Static dielectric constant tensor:
#      x y z
#    x 3.499400 0.000000 0.000000 
#    y 0.000000 3.499400 0.000000 
#    z 0.000000 0.000000 3.602850 
# 
# 
# High freq. dielectric constant tensor:
#      x y z
#    x 1.727750 0.000000 0.000000 
#    y 0.000000 1.727750 0.000000 
#    z 0.000000 0.000000 1.726430 
# 
# From -- ./inp_files/1871.got.cif
#   From: 2010.03.12/outbox.cif.g09.slc.cpg/sg83_1_cif.got.tgz:1871.got - 2010.04.08 20:05:18.
