data_PCOD8302511
_publ_section_title
;
Structure prediction by ZEFSAII (Michael W. Deem and Ramdas Pophale) SiO2 
 PCOD8302511
Probable space group: I -4 
;
_chemical_formula_sum "Si O2"
_cell_formula_units_Z 16
_cell_length_a 5.009838
_cell_length_b 5.009838
_cell_length_c 24.812720
_cell_angle_alpha 90.000000
_cell_angle_beta 90.000000
_cell_angle_gamma 90.000000
_cell_volume 622.761477
_symmetry_space_group_name_H-M "I -4 "
_symmetry_group_IT_number 82
_symmetry_cell_setting 'tetragonal'
loop_
_space_group_symop_operation_xyz
x,y,z
y,-x,-z
-x,-y,z
-y,x,-z
1/2+x,1/2+y,1/2+z
1/2+y,1/2-x,1/2-z
1/2-x,1/2-y,1/2+z
1/2-y,1/2+x,1/2-z
loop_
_atom_site_type_symbol
_atom_site_label
_atom_site_fract_x
_atom_site_fract_y
_atom_site_fract_z
Si Si1 0.000000 0.000000 0.500000
Si Si2 0.000000 0.500000 0.570894
Si Si3 0.811128 0.751885 0.341651
Si Si4 0.500000 0.000000 0.250000
O O1 0.251817 0.899971 0.465015
O O2 0.753246 0.402332 0.609101
O O3 0.647213 0.776218 0.285980
O O4 0.000000 0.500000 0.340531
O O5 0.000000 0.000000 0.351305
#
# Coordination Sequence:
#
# PCOD8302511 Si02
#       4
#     2   4   8   2
#     4  12  28  48  84 116 160 208 268 332 400 474
#     4  11  28  53  80 120 158 211 268 331 402 476
#     4  11  27  50  81 116 164 210 265 330 397 478
#     4  10  28  44  80 124 164 216 268 326 400 478
#
# _framework density 25.692021
#
# number of rings (size 3 to 8) (size 9 to 14) (size 15 to 20)
#    0.000    1.000    2.500    0.000   10.500   11.000 
#    0.000    0.000    5.500    0.000    0.000    0.000 
#    0.000    0.000    0.000    0.000    0.000    0.000 
#
# Total GULP energy -99202.109325 kJ/mol
# GULP energy per Si atom -12400.263666 kJ/mol
# Density = 2.563354 g / cm^3
# Si number density = 25.692021 Si / 1000 Ang^3
#
#
#
# Elastic Constant Matrix: (Units=GPa)
#
#
# Indices 1 2 3 4 5 6 
#
# 1 189.1106 84.9648 86.8543 0.0000 0.0000 8.8284
# 2 84.9648 189.1108 86.8544 0.0002 0.0001 -8.8284
# 3 86.8543 86.8544 197.1841 0.0001 0.0000 0.0000
# 4 0.0000 0.0002 0.0001 6.4308 0.0001 0.0000
# 5 0.0000 0.0001 0.0000 0.0001 6.4306 0.0000
# 6 8.8284 -8.8284 0.0000 0.0000 0.0000 64.7893
#
#
#
# Elastic Compliance Matrix: (Units=1/GPa)
#
#
# Indices 1 2 3 4 5 6 
#
# 1 0.007445 -0.002384 -0.002230 0.000000 0.000000 -0.001339
# 2 -0.002384 0.007445 -0.002230 0.000000 0.000000 0.001339
# 3 -0.002230 -0.002230 0.007036 0.000000 0.000000 0.000000
# 4 0.000000 0.000000 0.000000 0.155502 -0.000002 0.000000
# 5 0.000000 0.000000 0.000000 -0.000002 0.155506 0.000000
# 6 -0.001339 0.001339 0.000000 0.000000 0.000000 0.015800
#
#
# Mechanical properties :
#
#
# Convention : Reuss Voigt Hill
#
# Bulk Modulus (GPa) = 121.34824 121.41695 121.38259
# Shear Modulus (GPa) = 13.69237 36.64560 25.16899
#
# Velocity S-wave (km/s) = 2.31106 3.78079 3.13332
# Velocity P-wave (km/s) = 7.37941 8.14987 7.77419
#
# Compressibility (1/GPa) = 0.00824075
#
# Stress axis : x y z
#
# Youngs Moduli (GPa) = 134.31197 134.31210 142.13582
#
# Poissons Ratio (x) = 0.32015 0.31690
# Poissons Ratio (y) = 0.32015 0.31690
# Poissons Ratio (z) = 0.29946 0.29946
#
# Static dielectric constant tensor:
#      x y z
#    x 4.555790 0.000000 0.000000 
#    y 0.000000 4.555790 0.000000 
#    z 0.000000 0.000000 5.141940 
# 
# 
# High freq. dielectric constant tensor:
#      x y z
#    x 2.028580 0.000000 0.000000 
#    y 0.000000 2.028580 0.000000 
#    z 0.000000 0.000000 2.045040 
# 
# From -- ./inp_files/2753.got.cif
#   From: 2010.03.12/outbox.cif.g09.slc.cpg/sg82_2_cif.got.tgz:2753.got - 2010.04.08 20:02:50.
