data_PCOD8302970
_publ_section_title
;
Structure prediction by ZEFSAII (Michael W. Deem and Ramdas Pophale) SiO2 
 PCOD8302970
Probable space group: P 4/M
;
_chemical_formula_sum "Si O2"
_cell_formula_units_Z 48
_cell_length_a 8.392921
_cell_length_b 8.392921
_cell_length_c 32.134170
_cell_angle_alpha 90.000000
_cell_angle_beta 90.000000
_cell_angle_gamma 90.000000
_cell_volume 2263.567019
_symmetry_space_group_name_H-M "P 4/M"
_symmetry_group_IT_number 83
_symmetry_cell_setting 'tetragonal'
loop_
_space_group_symop_operation_xyz
x,y,z
-y,x,z
-x,-y,z
y,-x,z
-x,-y,-z
y,-x,-z
x,y,-z
-y,x,-z
loop_
_atom_site_type_symbol
_atom_site_label
_atom_site_fract_x
_atom_site_fract_y
_atom_site_fract_z
Si Si1 0.577062 0.249435 0.000000
Si Si2 0.426985 0.754426 0.323083
Si Si3 0.575260 0.246970 0.089465
Si Si4 0.080806 0.247283 0.157779
Si Si5 0.089203 0.246432 0.747799
Si Si6 0.500000 0.000000 0.610595
Si Si7 0.930243 0.251811 0.546472
O O1 0.693993 0.397196 0.000000
O O2 0.604391 0.158789 0.044185
O O3 0.304491 0.608390 0.324712
O O4 0.392041 0.854275 0.281150
O O5 0.400262 0.874879 0.361511
O O6 0.694554 0.395470 0.093787
O O7 0.610966 0.122068 0.126031
O O8 0.106354 0.307358 0.204896
O O9 0.900593 0.197092 0.149633
O O10 0.906723 0.200000 0.738863
O O11 0.615714 0.896019 0.581140
O O12 0.910106 0.323496 0.500000
O O13 0.807205 0.109993 0.552856
#
# Coordination Sequence:
#
# PCOD8302970 Si02
#       7
#     4   8   8   8   8   4   8
#     4   7  12  26  46  67  96 132 168 209 256 307
#     4  11  24  38  53  79 113 144 179 227 276 322
#     4   9  17  30  50  75 100 130 171 216 261 311
#     4   9  19  35  53  74 102 134 169 210 258 314
#     4   9  19  38  60  77  98 137 184 223 266 327
#     4  12  21  36  58  82 112 152 186 219 274 334
#     4   9  19  36  58  85 114 145 187 234 271 310
#
# _framework density 21.205466999999999
#
# number of rings (size 3 to 8) (size 9 to 14) (size 15 to 20)
#    0.000    2.583    0.000    4.750    0.000    2.000 
#    0.000    7.500    0.000    4.000    0.000    7.000 
#    0.000    0.000    0.000    0.000    0.000    0.000 
#
# Total GULP energy -594936.553675 kJ/mol
# GULP energy per Si atom -12394.511535 kJ/mol
# Density = 2.115720 g / cm^3
# Si number density = 21.205467 Si / 1000 Ang^3
#
#
#
# Elastic Constant Matrix: (Units=GPa)
#
#
# Indices 1 2 3 4 5 6 
#
# 1 49.3660 11.7325 40.1179 0.0000 0.0000 -6.0907
# 2 11.7325 49.3660 40.1179 0.0000 0.0000 6.0907
# 3 40.1179 40.1179 161.0687 0.0000 0.0000 0.0000
# 4 0.0000 0.0000 0.0000 14.9113 0.0000 0.0000
# 5 0.0000 0.0000 0.0000 0.0000 14.9113 0.0000
# 6 -6.0907 6.0907 0.0000 0.0000 0.0000 31.9919
#
#
#
# Elastic Compliance Matrix: (Units=1/GPa)
#
#
# Indices 1 2 3 4 5 6 
#
# 1 0.026320 -0.001997 -0.006058 0.000000 0.000000 0.005391
# 2 -0.001997 0.026320 -0.006058 0.000000 0.000000 -0.005391
# 3 -0.006058 -0.006058 0.009226 0.000000 0.000000 0.000000
# 4 0.000000 0.000000 0.000000 0.067063 0.000000 0.000000
# 5 0.000000 0.000000 0.000000 0.000000 0.067063 0.000000
# 6 0.005391 -0.005391 0.000000 0.000000 0.000000 0.033311
#
#
# Mechanical properties :
#
#
# Convention : Reuss Voigt Hill
#
# Bulk Modulus (GPa) = 29.72727 49.30416 39.51572
# Shear Modulus (GPa) = 18.60513 23.55173 21.07843
#
# Velocity S-wave (km/s) = 2.96526 3.33625 3.15621
# Velocity P-wave (km/s) = 5.07669 6.17591 5.65308
#
# Compressibility (1/GPa) = 0.03363915
#
# Stress axis : x y z
#
# Youngs Moduli (GPa) = 37.99411 37.99411 108.38507
#
# Poissons Ratio (x) = 0.07588 0.65661
# Poissons Ratio (y) = 0.07588 0.65661
# Poissons Ratio (z) = 0.23017 0.23017
#
# Static dielectric constant tensor:
#      x y z
#    x 3.547120 0.000000 0.000000 
#    y 0.000000 3.547120 0.000000 
#    z 0.000000 0.000000 4.078480 
# 
# 
# High freq. dielectric constant tensor:
#      x y z
#    x 1.814120 0.000000 0.000000 
#    y 0.000000 1.814120 0.000000 
#    z 0.000000 0.000000 1.847360 
# 
# From -- ./inp_files/3432.got.cif
#   From: 2010.03.12/outbox.cif.g09.slc.cpg/sg83_2_cif.got.tgz:3432.got - 2010.04.08 20:05:18.
