data_PCOD8302560
_publ_section_title
;
Structure prediction by ZEFSAII (Michael W. Deem and Ramdas Pophale) SiO2 
 PCOD8302560
Probable space group: I -4 
;
_chemical_formula_sum "Si O2"
_cell_formula_units_Z 40
_cell_length_a 15.392373
_cell_length_b 15.392373
_cell_length_c 7.922512
_cell_angle_alpha 90.000000
_cell_angle_beta 90.000000
_cell_angle_gamma 90.000000
_cell_volume 1877.042317
_symmetry_space_group_name_H-M "I -4 "
_symmetry_group_IT_number 82
_symmetry_cell_setting 'tetragonal'
loop_
_space_group_symop_operation_xyz
x,y,z
y,-x,-z
-x,-y,z
-y,x,-z
1/2+x,1/2+y,1/2+z
1/2+y,1/2-x,1/2-z
1/2-x,1/2-y,1/2+z
1/2-y,1/2+x,1/2-z
loop_
_atom_site_type_symbol
_atom_site_label
_atom_site_fract_x
_atom_site_fract_y
_atom_site_fract_z
Si Si1 0.836372 0.196731 0.081097
Si Si2 0.250297 0.520593 0.547032
Si Si3 0.251486 0.995738 0.419344
Si Si4 0.827918 0.188066 0.464259
Si Si5 0.019061 0.364849 0.262445
O O1 0.853231 0.218523 0.276544
O O2 0.824488 0.093719 0.055136
O O3 0.923621 0.216404 0.980363
O O4 0.755025 0.255570 0.023184
O O5 0.205821 0.520265 0.733767
O O6 0.192603 0.553980 0.391703
O O7 0.191241 0.914603 0.470893
O O8 0.323949 0.004248 0.559737
O O9 0.200443 0.087863 0.416324
O O10 0.092547 0.432777 0.312095
#
# Coordination Sequence:
#
# PCOD8302560 Si02
#       5
#     8   8   8   8   8
#     4  11  24  42  68  98 135 180 226 281 336 403
#     4  11  25  42  65 100 134 174 227 278 336 406
#     4  11  25  42  65 100 134 174 227 278 336 406
#     4  11  24  42  68  98 135 180 226 281 336 403
#     4  11  24  42  66  95 132 178 226 281 344 407
#
# _framework density 21.310122
#
# number of rings (size 3 to 8) (size 9 to 14) (size 15 to 20)
#    0.000    1.000    2.000    3.600    5.600    5.600 
#    0.000    6.000    0.000    0.000    0.000    0.000 
#    0.000    0.000    0.000    0.000    0.000    0.000 
#
# Total GULP energy -247887.813603 kJ/mol
# GULP energy per Si atom -12394.390680 kJ/mol
# Density = 2.126162 g / cm^3
# Si number density = 21.310122 Si / 1000 Ang^3
#
#
#
# Elastic Constant Matrix: (Units=GPa)
#
#
# Indices 1 2 3 4 5 6 
#
# 1 89.1610 10.1727 22.6960 0.0000 0.0000 -13.9155
# 2 10.1727 89.1610 22.6960 0.0000 0.0000 13.9155
# 3 22.6960 22.6960 109.3182 0.0000 0.0000 0.0000
# 4 0.0000 0.0000 0.0000 27.5556 0.0000 0.0000
# 5 0.0000 0.0000 0.0000 0.0000 27.5556 0.0000
# 6 -13.9155 13.9155 0.0000 0.0000 0.0000 -27.2706
#
#
#
# Elastic Compliance Matrix: (Units=1/GPa)
#
#
# Indices 1 2 3 4 5 6 
#
# 1 0.010927 0.000196 -0.002309 0.000000 0.000000 -0.005476
# 2 0.000196 0.010927 -0.002309 0.000000 0.000000 0.005476
# 3 -0.002309 -0.002309 0.010106 0.000000 0.000000 0.000000
# 4 0.000000 0.000000 0.000000 0.036290 0.000000 0.000000
# 5 0.000000 0.000000 0.000000 0.000000 0.036290 0.000000
# 6 -0.005476 0.005476 0.000000 0.000000 0.000000 -0.031081
#
#
# Mechanical properties :
#
#
# Convention : Reuss Voigt Hill
#
# Bulk Modulus (GPa) = 43.26304 44.30772 43.78538
# Shear Modulus (GPa) = 55.55023 21.03981 38.29502
#
# Velocity S-wave (km/s) = 5.11118 3.14557 4.24374
# Velocity P-wave (km/s) = 7.42818 5.83351 6.67861
#
# Compressibility (1/GPa) = 0.02311442
#
# Stress axis : x y z
#
# Youngs Moduli (GPa) = 91.52032 91.52032 98.94689
#
# Poissons Ratio (x) = -0.01791 0.22848
# Poissons Ratio (y) = -0.01791 0.22848
# Poissons Ratio (z) = 0.21133 0.21133
#
# Static dielectric constant tensor:
#      x y z
#    x 3.906190 0.000000 0.000000 
#    y 0.000000 3.906190 0.000000 
#    z 0.000000 0.000000 4.649280 
# 
# 
# High freq. dielectric constant tensor:
#      x y z
#    x 1.836380 0.000000 0.000000 
#    y 0.000000 1.836380 0.000000 
#    z 0.000000 0.000000 1.858100 
# 
# From -- ./inp_files/925.got.cif
#   From: 2010.03.12/outbox.cif.g09.slc.cpg/sg82_1_cif.got.tgz:925.got - 2010.04.08 20:02:50.
