data_PCOD8302194
_publ_section_title
;
Structure prediction by ZEFSAII (Michael W. Deem and Ramdas Pophale) SiO2 
 PCOD8302194
Probable space group: I 41
;
_chemical_formula_sum "Si O2"
_cell_formula_units_Z 52
_cell_length_a 17.155295
_cell_length_b 17.155295
_cell_length_c 8.893945
_cell_angle_alpha 90.000000
_cell_angle_beta 90.000000
_cell_angle_gamma 90.000000
_cell_volume 2617.524893
_symmetry_space_group_name_H-M "I 41"
_symmetry_group_IT_number 80
_symmetry_cell_setting 'tetragonal'
loop_
_space_group_symop_operation_xyz
x,y,z
-y,1/2+x,1/4+z
-x,-y,z
y,1/2-x,1/4+z
1/2+x,1/2+y,1/2+z
1/2-y,x,3/4+z
1/2-x,1/2-y,1/2+z
1/2+y,-x,3/4+z
loop_
_atom_site_type_symbol
_atom_site_label
_atom_site_fract_x
_atom_site_fract_y
_atom_site_fract_z
Si Si1 0.565187 0.131951 0.584210
Si Si2 0.053852 0.176343 0.160062
Si Si3 0.442232 0.179033 0.828540
Si Si4 0.061110 0.871380 0.409576
Si Si5 0.458259 0.781529 0.085856
Si Si6 0.725033 0.049847 0.655168
Si Si7 0.000000 0.500000 0.880774
O O1 0.518836 0.160883 0.730152
O O2 0.643342 0.094345 0.650674
O O3 0.597516 0.200748 0.473459
O O4 0.506371 0.075197 0.490416
O O5 0.111436 0.119301 0.075540
O O6 0.095389 0.239963 0.268470
O O7 0.986942 0.132234 0.254211
O O8 0.021683 0.222150 0.017788
O O9 0.465228 0.186750 0.003309
O O10 0.146712 0.901049 0.367919
O O11 0.077849 0.786348 0.480594
O O12 0.008576 0.924206 0.523087
O O13 0.484117 0.743900 0.242112
#
# Coordination Sequence:
#
# PCOD8302194 Si02
#       7
#     8   8   8   8   8   8   4
#     4  11  23  38  64  91 128 167 216 268 327 401
#     4  10  23  42  65  91 126 166 216 274 330 395
#     4  10  23  42  65  91 126 166 216 274 330 395
#     4  11  23  38  64  91 128 167 216 268 327 401
#     4  11  21  41  59  93 128 165 212 267 326 392
#     4  11  21  41  59  93 128 165 212 267 326 392
#     4  12  20  36  66  88 116 164 218 260 318 380
#
# _framework density 19.866095000000001
#
# number of rings (size 3 to 8) (size 9 to 14) (size 15 to 20)
#    0.000    1.231    3.077    2.769    0.000    1.231 
#    0.000   18.462    0.000    0.000    0.000    0.000 
#    0.000    0.000    0.000    0.000    0.000    0.000 
#
# Total GULP energy -322142.507339 kJ/mol
# GULP energy per Si atom -12390.096436 kJ/mol
# Density = 1.982088 g / cm^3
# Si number density = 19.866095 Si / 1000 Ang^3
#
#
#
# Elastic Constant Matrix: (Units=GPa)
#
#
# Indices 1 2 3 4 5 6 
#
# 1 82.3065 39.0714 28.2402 0.0000 0.0000 -0.8365
# 2 39.0714 82.3065 28.2402 0.0000 0.0000 0.8365
# 3 28.2402 28.2402 104.5866 0.0000 0.0000 0.0000
# 4 0.0000 0.0000 0.0000 30.3341 0.0000 0.0000
# 5 0.0000 0.0000 0.0000 0.0000 30.3341 0.0000
# 6 -0.8365 0.8365 0.0000 0.0000 0.0000 3.8494
#
#
#
# Elastic Compliance Matrix: (Units=1/GPa)
#
#
# Indices 1 2 3 4 5 6 
#
# 1 0.016374 -0.006951 -0.002544 0.000000 0.000000 0.005069
# 2 -0.006951 0.016374 -0.002544 0.000000 0.000000 -0.005069
# 3 -0.002544 -0.002544 0.010935 0.000000 0.000000 0.000000
# 4 0.000000 0.000000 0.000000 0.032966 0.000000 0.000000
# 5 0.000000 0.000000 0.000000 0.000000 0.032966 0.000000
# 6 0.005069 -0.005069 0.000000 0.000000 0.000000 0.261986
#
#
# Mechanical properties :
#
#
# Convention : Reuss Voigt Hill
#
# Bulk Modulus (GPa) = 51.01091 51.14478 51.07784
# Shear Modulus (GPa) = 12.43113 24.48005 18.45559
#
# Velocity S-wave (km/s) = 2.50421 3.51415 3.05126
# Velocity P-wave (km/s) = 5.83905 6.50126 6.17903
#
# Compressibility (1/GPa) = 0.01960365
#
# Stress axis : x y z
#
# Youngs Moduli (GPa) = 61.07217 61.07217 91.44563
#
# Poissons Ratio (x) = 0.42454 0.23266
# Poissons Ratio (y) = 0.42454 0.23266
# Poissons Ratio (z) = 0.15538 0.15538
#
# Static dielectric constant tensor:
#      x y z
#    x 3.646650 0.000000 0.000000 
#    y 0.000000 3.646650 0.000000 
#    z 0.000000 0.000000 4.028040 
# 
# 
# High freq. dielectric constant tensor:
#      x y z
#    x 1.762700 0.000000 0.000000 
#    y 0.000000 1.762700 0.000000 
#    z 0.000000 0.000000 1.806530 
# 
# From -- ./inp_files/698.got.cif
#   From: 2010.03.12/outbox.cif.g09.slc.cpg/sg80_cif.got.tgz:698.got - 2010.04.08 20:00:04.
