data_PCOD8302887
_publ_section_title
;
Structure prediction by ZEFSAII (Michael W. Deem and Ramdas Pophale) SiO2 
 PCOD8302887
Probable space group: P 4/M
;
_chemical_formula_sum "Si O2"
_cell_formula_units_Z 32
_cell_length_a 12.032689
_cell_length_b 12.032689
_cell_length_c 11.115504
_cell_angle_alpha 90.000000
_cell_angle_beta 90.000000
_cell_angle_gamma 90.000000
_cell_volume 1609.364967
_symmetry_space_group_name_H-M "P 4/M"
_symmetry_group_IT_number 83
_symmetry_cell_setting 'tetragonal'
loop_
_space_group_symop_operation_xyz
x,y,z
-y,x,z
-x,-y,z
y,-x,z
-x,-y,-z
y,-x,-z
x,y,-z
-y,x,-z
loop_
_atom_site_type_symbol
_atom_site_label
_atom_site_fract_x
_atom_site_fract_y
_atom_site_fract_z
Si Si1 0.626688 0.006043 0.800139
Si Si2 0.234167 0.613441 0.748826
Si Si3 0.788203 0.609700 0.637790
Si Si4 0.024349 0.187854 0.000000
Si Si5 0.451420 0.323387 0.000000
O O1 0.623052 0.088458 0.687653
O O2 0.500000 0.000000 0.857197
O O3 0.661002 0.889470 0.741597
O O4 0.727249 0.038814 0.888953
O O5 0.317616 0.710766 0.721937
O O6 0.253199 0.516841 0.650804
O O7 0.248651 0.566012 0.883209
O O8 0.783186 0.647957 0.500000
O O9 0.904390 0.123875 0.000000
O O10 0.576744 0.364878 0.000000
#
# Coordination Sequence:
#
# PCOD8302887 Si02
#       5
#     8   8   8   4   4
#     4  10  23  40  61  86 121 161 204 247 308 372
#     4  11  22  40  63  92 122 162 205 256 307 370
#     4  11  24  40  61  88 124 164 209 256 302 361
#     4  11  22  39  63  91 120 151 196 258 316 365
#     4  11  21  37  60  90 130 156 191 246 317 369
#
# _framework density 19.883617999999998
#
# number of rings (size 3 to 8) (size 9 to 14) (size 15 to 20)
#    0.000    1.250    2.500    3.375    0.000   10.000 
#    0.000    1.250    0.000    0.000    0.000    5.250 
#    0.000    0.000    0.000    0.000    0.000    0.000 
#
# Total GULP energy -396692.689440 kJ/mol
# GULP energy per Si atom -12396.646545 kJ/mol
# Density = 1.983836 g / cm^3
# Si number density = 19.883618 Si / 1000 Ang^3
#
#
#
# Elastic Constant Matrix: (Units=GPa)
#
#
# Indices 1 2 3 4 5 6 
#
# 1 101.9100 3.7722 17.1324 0.0000 0.0000 -2.4710
# 2 3.7722 101.9100 17.1324 0.0000 0.0000 2.4710
# 3 17.1324 17.1324 86.6129 0.0000 0.0000 0.0000
# 4 0.0000 0.0000 0.0000 17.4022 0.0000 0.0000
# 5 0.0000 0.0000 0.0000 0.0000 17.4022 0.0000
# 6 -2.4710 2.4710 0.0000 0.0000 0.0000 33.0994
#
#
#
# Elastic Compliance Matrix: (Units=1/GPa)
#
#
# Indices 1 2 3 4 5 6 
#
# 1 0.010169 -0.000059 -0.002000 0.000000 0.000000 0.000764
# 2 -0.000059 0.010169 -0.002000 0.000000 0.000000 -0.000764
# 3 -0.002000 -0.002000 0.012337 0.000000 0.000000 0.000000
# 4 0.000000 0.000000 0.000000 0.057464 0.000000 0.000000
# 5 0.000000 0.000000 0.000000 0.000000 0.057464 0.000000
# 6 0.000764 -0.000764 0.000000 0.000000 0.000000 0.030326
#
#
# Mechanical properties :
#
#
# Convention : Reuss Voigt Hill
#
# Bulk Modulus (GPa) = 40.71902 40.72299 40.72101
# Shear Modulus (GPa) = 25.74223 30.40714 28.07469
#
# Velocity S-wave (km/s) = 3.60202 3.91481 3.76167
# Velocity P-wave (km/s) = 6.15000 6.39996 6.27623
#
# Compressibility (1/GPa) = 0.02455855
#
# Stress axis : x y z
#
# Youngs Moduli (GPa) = 98.33335 98.33335 81.05811
#
# Poissons Ratio (x) = 0.00577 0.16211
# Poissons Ratio (y) = 0.00577 0.16211
# Poissons Ratio (z) = 0.19666 0.19666
#
# Static dielectric constant tensor:
#      x y z
#    x 3.766960 0.000000 0.000000 
#    y 0.000000 3.766960 0.000000 
#    z 0.000000 0.000000 3.358760 
# 
# 
# High freq. dielectric constant tensor:
#      x y z
#    x 1.786400 0.000000 0.000000 
#    y 0.000000 1.786400 0.000000 
#    z 0.000000 0.000000 1.762960 
# 
# From -- ./inp_files/1566.got.cif
#   From: 2010.03.12/outbox.cif.g09.slc.cpg/sg83_1_cif.got.tgz:1566.got - 2010.04.08 20:05:18.
