data_PCOD8302276
_publ_section_title
;
Structure prediction by ZEFSAII (Michael W. Deem and Ramdas Pophale) SiO2 
 PCOD8302276
Probable space group: P -4
;
_chemical_formula_sum "Si O2"
_cell_formula_units_Z 20
_cell_length_a 8.945278
_cell_length_b 8.945278
_cell_length_c 12.686913
_cell_angle_alpha 90.000000
_cell_angle_beta 90.000000
_cell_angle_gamma 90.000000
_cell_volume 1015.181385
_symmetry_space_group_name_H-M "P -4"
_symmetry_group_IT_number 81
_symmetry_cell_setting 'tetragonal'
loop_
_space_group_symop_operation_xyz
x,y,z
y,-x,-z
-x,-y,z
-y,x,-z
loop_
_atom_site_type_symbol
_atom_site_label
_atom_site_fract_x
_atom_site_fract_y
_atom_site_fract_z
Si Si1 0.316243 0.340536 0.509728
Si Si2 0.677309 0.826463 0.108194
Si Si3 0.667793 0.821239 0.721257
Si Si4 0.320710 0.832400 0.702641
Si Si5 0.671187 0.172974 0.084440
O O1 0.298238 0.517166 0.526445
O O2 0.268511 0.260425 0.617693
O O3 0.206028 0.284372 0.418400
O O4 0.734395 0.787775 0.224788
O O5 0.502554 0.793705 0.099665
O O6 0.710907 0.998751 0.085226
O O7 0.765280 0.721191 0.027937
O O8 0.491371 0.792110 0.730367
O O9 0.743975 0.758598 0.824379
O O10 0.710600 0.993915 0.717175
#
# Coordination Sequence:
#
# PCOD8302276 Si02
#       5
#     4   4   4   4   4
#     4   9  18  34  56  81 112 152 194 233 274 323
#     4  11  24  40  59  84 113 146 186 231 279 333
#     4  10  21  37  58  85 116 149 187 231 278 330
#     4  10  21  37  58  85 116 149 187 231 278 330
#     4  11  24  40  59  84 113 146 186 231 279 333
#
# _framework density 19.700911999999999
#
# number of rings (size 3 to 8) (size 9 to 14) (size 15 to 20)
#    0.000    1.800    0.000    3.600    0.000   12.000 
#    0.000    4.000    0.000    0.000    0.000    0.000 
#    0.000    0.000    0.000    0.000    0.000    0.000 
#
# Total GULP energy -248120.106173 kJ/mol
# GULP energy per Si atom -12406.005309 kJ/mol
# Density = 1.965607 g / cm^3
# Si number density = 19.700912 Si / 1000 Ang^3
#
#
#
# Elastic Constant Matrix: (Units=GPa)
#
#
# Indices 1 2 3 4 5 6 
#
# 1 40.8314 13.1823 -0.4519 0.0000 0.0000 1.1467
# 2 13.1823 40.8314 -0.4519 0.0000 0.0000 -1.1467
# 3 -0.4519 -0.4519 60.7512 0.0000 0.0000 0.0000
# 4 0.0000 0.0000 0.0000 31.4091 0.0000 0.0000
# 5 0.0000 0.0000 0.0000 0.0000 31.4091 0.0000
# 6 1.1467 -1.1467 0.0000 0.0000 0.0000 24.0479
#
#
#
# Elastic Compliance Matrix: (Units=1/GPa)
#
#
# Indices 1 2 3 4 5 6 
#
# 1 0.027414 -0.008898 0.000138 0.000000 0.000000 -0.001732
# 2 -0.008898 0.027414 0.000138 0.000000 0.000000 0.001732
# 3 0.000138 0.000138 0.016463 0.000000 0.000000 0.000000
# 4 0.000000 0.000000 0.000000 0.031838 0.000000 0.000000
# 5 0.000000 0.000000 0.000000 0.000000 0.031838 0.000000
# 6 -0.001732 0.001732 0.000000 0.000000 0.000000 0.041749
#
#
# Mechanical properties :
#
#
# Convention : Reuss Voigt Hill
#
# Bulk Modulus (GPa) = 18.50280 18.55231 18.52755
# Shear Modulus (GPa) = 23.58782 26.04894 24.81838
#
# Velocity S-wave (km/s) = 3.46395 3.64018 3.55316
# Velocity P-wave (km/s) = 5.04092 5.20627 5.12426
#
# Compressibility (1/GPa) = 0.05404588
#
# Stress axis : x y z
#
# Youngs Moduli (GPa) = 36.47817 36.47817 60.74364
#
# Poissons Ratio (x) = 0.32456 -0.00837
# Poissons Ratio (y) = 0.32456 -0.00837
# Poissons Ratio (z) = -0.00502 -0.00502
#
# Static dielectric constant tensor:
#      x y z
#    x 3.637450 0.000000 0.000000 
#    y 0.000000 3.637450 0.000000 
#    z 0.000000 0.000000 3.655480 
# 
# 
# High freq. dielectric constant tensor:
#      x y z
#    x 1.769820 0.000000 0.000000 
#    y 0.000000 1.769820 0.000000 
#    z 0.000000 0.000000 1.782740 
# 
# From -- ./inp_files/1240.got.cif
#   From: 2010.03.12/outbox.cif.g09.slc.cpg/sg81_cif.got.tgz:1240.got - 2010.04.08 20:01:38.
