data_PCOD8302243
_publ_section_title
;
Structure prediction by ZEFSAII (Michael W. Deem and Ramdas Pophale) SiO2 
 PCOD8302243
Probable space group: P -4
;
_chemical_formula_sum "Si O2"
_cell_formula_units_Z 25
_cell_length_a 16.432610
_cell_length_b 16.432610
_cell_length_c 4.984448
_cell_angle_alpha 90.000000
_cell_angle_beta 90.000000
_cell_angle_gamma 90.000000
_cell_volume 1345.953840
_symmetry_space_group_name_H-M "P -4"
_symmetry_group_IT_number 81
_symmetry_cell_setting 'tetragonal'
loop_
_space_group_symop_operation_xyz
x,y,z
y,-x,-z
-x,-y,z
-y,x,-z
loop_
_atom_site_type_symbol
_atom_site_label
_atom_site_fract_x
_atom_site_fract_y
_atom_site_fract_z
Si Si1 0.374178 0.844384 0.249623
Si Si2 0.500000 0.500000 0.500000
Si Si3 0.686109 0.715043 0.814833
Si Si4 0.618692 0.873994 0.676402
Si Si5 0.458439 0.789070 0.760747
Si Si6 0.406115 0.020317 0.184821
Si Si7 0.374034 0.379205 0.299803
O O1 0.305929 0.781624 0.141146
O O2 0.391831 0.828834 0.561798
O O3 0.350980 0.938903 0.209298
O O4 0.452391 0.828059 0.057773
O O5 0.460761 0.426889 0.319295
O O6 0.690573 0.812677 0.764142
O O7 0.648042 0.662626 0.577591
O O8 0.630148 0.691293 0.072475
O O9 0.545924 0.809466 0.645430
O O10 0.632889 0.914852 0.389133
O O11 0.601301 0.945796 0.885545
O O12 0.448305 0.692201 0.773366
O O13 0.500000 0.000000 0.260700
#
# Coordination Sequence:
#
# PCOD8302243 Si02
#       7
#     4   1   4   4   4   4   4
#     4  10  20  35  52  73 107 135 170 210 271 317
#     4  12  24  38  52  74 100 138 208 262 260 302
#     4  10  23  40  52  74 104 148 174 219 274 339
#     4  12  21  33  55  78 109 132 181 213 274 329
#     4  10  18  33  50  71  98 137 170 221 263 321
#     4  12  21  33  55  86 106 133 172 229 273 322
#     4  10  23  36  53  69 100 142 193 231 280 293
#
# _framework density 18.574189000000001
#
# number of rings (size 3 to 8) (size 9 to 14) (size 15 to 20)
#    0.000    1.280    3.200    3.360    0.000    5.760 
#    0.000    0.000    0.000    0.000    0.000    0.000 
#    0.000    3.840    0.000    0.000    0.000    0.000 
#
# Total GULP energy -309928.538709 kJ/mol
# GULP energy per Si atom -12397.141548 kJ/mol
# Density = 1.853191 g / cm^3
# Si number density = 18.574189 Si / 1000 Ang^3
#
#
#
# Elastic Constant Matrix: (Units=GPa)
#
#
# Indices 1 2 3 4 5 6 
#
# 1 65.8987 21.1999 3.9511 0.0000 0.0000 2.1027
# 2 21.1999 65.8987 3.9511 0.0000 0.0000 -2.1027
# 3 3.9511 3.9511 75.8037 0.0000 0.0000 0.0000
# 4 0.0000 0.0000 0.0000 25.1127 0.0000 0.0000
# 5 0.0000 0.0000 0.0000 0.0000 25.1127 0.0000
# 6 2.1027 -2.1027 0.0000 0.0000 0.0000 15.9016
#
#
#
# Elastic Compliance Matrix: (Units=1/GPa)
#
#
# Indices 1 2 3 4 5 6 
#
# 1 0.017095 -0.005559 -0.000601 0.000000 0.000000 -0.002996
# 2 -0.005559 0.017095 -0.000601 0.000000 0.000000 0.002996
# 3 -0.000601 -0.000601 0.013255 0.000000 0.000000 0.000000
# 4 0.000000 0.000000 0.000000 0.039820 0.000000 0.000000
# 5 0.000000 0.000000 0.000000 0.000000 0.039820 0.000000
# 6 -0.002996 0.002996 0.000000 0.000000 0.000000 0.063679
#
#
# Mechanical properties :
#
#
# Convention : Reuss Voigt Hill
#
# Bulk Modulus (GPa) = 29.48016 29.53393 29.50704
# Shear Modulus (GPa) = 23.19171 25.12534 24.15852
#
# Velocity S-wave (km/s) = 3.53738 3.68190 3.61037
# Velocity P-wave (km/s) = 5.70878 5.83183 5.77063
#
# Compressibility (1/GPa) = 0.03392112
#
# Stress axis : x y z
#
# Youngs Moduli (GPa) = 58.49730 58.49730 75.44521
#
# Poissons Ratio (x) = 0.32519 0.04536
# Poissons Ratio (y) = 0.32519 0.04536
# Poissons Ratio (z) = 0.03517 0.03517
#
# Static dielectric constant tensor:
#      x y z
#    x 3.420240 0.000000 0.000000 
#    y 0.000000 3.420240 0.000000 
#    z 0.000000 0.000000 3.576000 
# 
# 
# High freq. dielectric constant tensor:
#      x y z
#    x 1.690510 0.000000 0.000000 
#    y 0.000000 1.690510 0.000000 
#    z 0.000000 0.000000 1.742100 
# 
# From -- ./inp_files/352.got.cif
#   From: 2010.03.12/outbox.cif.g09.slc.cpg/sg81_cif.got.tgz:352.got - 2010.04.08 20:01:38.
