data_PCOD8302487
_publ_section_title
;
Structure prediction by ZEFSAII (Michael W. Deem and Ramdas Pophale) SiO2 
 PCOD8302487
Probable space group: I -4 
;
_chemical_formula_sum "Si O2"
_cell_formula_units_Z 56
_cell_length_a 11.890306
_cell_length_b 11.890306
_cell_length_c 19.138659
_cell_angle_alpha 90.000000
_cell_angle_beta 90.000000
_cell_angle_gamma 90.000000
_cell_volume 2705.811682
_symmetry_space_group_name_H-M "I -4 "
_symmetry_group_IT_number 82
_symmetry_cell_setting 'tetragonal'
loop_
_space_group_symop_operation_xyz
x,y,z
y,-x,-z
-x,-y,z
-y,x,-z
1/2+x,1/2+y,1/2+z
1/2+y,1/2-x,1/2-z
1/2-x,1/2-y,1/2+z
1/2-y,1/2+x,1/2-z
loop_
_atom_site_type_symbol
_atom_site_label
_atom_site_fract_x
_atom_site_fract_y
_atom_site_fract_z
Si Si1 0.153280 0.705502 0.263836
Si Si2 0.991876 0.629360 0.143086
Si Si3 0.626325 0.215612 0.218686
Si Si4 0.109944 0.423818 0.499413
Si Si5 0.836956 0.061184 0.479825
Si Si6 0.938772 0.881495 0.672785
Si Si7 0.507792 0.132577 0.352471
O O1 0.063801 0.655046 0.211074
O O2 0.158279 0.636870 0.337175
O O3 0.274097 0.694531 0.227073
O O4 0.120139 0.834795 0.274598
O O5 0.000000 0.500000 0.125266
O O6 0.037518 0.683226 0.069430
O O7 0.519577 0.277153 0.187396
O O8 0.599911 0.168480 0.295772
O O9 0.673653 0.117545 0.167550
O O10 0.080267 0.290443 0.493575
O O11 0.178109 0.450893 0.571376
O O12 0.000000 0.500000 0.505892
O O13 0.858056 0.111565 0.403352
O O14 0.927683 0.130424 0.526426
O O15 0.000000 0.000000 0.680831
O O16 0.500000 0.000000 0.349643
#
# Coordination Sequence:
#
# PCOD8302487 Si02
#       7
#     8   8   8   8   8   8   8
#     4  12  23  42  65  94 130 171 224 273 325 391
#     4  11  24  43  63  90 127 174 222 270 318 398
#     4  12  22  39  69  94 131 169 216 277 328 392
#     4  10  24  40  66  92 130 173 220 263 323 402
#     4  11  24  42  62  99 141 168 208 277 346 391
#     4  12  25  39  65  99 130 170 213 276 343 396
#     4  11  19  42  62  98 127 163 221 266 324 388
#
# _framework density 20.696192
#
# number of rings (size 3 to 8) (size 9 to 14) (size 15 to 20)
#    0.000    0.714    5.714    3.429    6.000    0.000 
#    0.000    0.000    0.000    0.000    0.000    0.000 
#    0.000    0.000    0.000    0.000    0.000    0.000 
#
# Total GULP energy -347035.009266 kJ/mol
# GULP energy per Si atom -12394.107474 kJ/mol
# Density = 2.064909 g / cm^3
# Si number density = 20.696192 Si / 1000 Ang^3
#
#
#
# Elastic Constant Matrix: (Units=GPa)
#
#
# Indices 1 2 3 4 5 6 
#
# 1 89.5750 17.4225 25.3419 0.0000 0.0000 -0.9640
# 2 17.4225 89.5750 25.3419 0.0000 0.0000 0.9640
# 3 25.3419 25.3419 105.8975 0.0000 0.0000 0.0000
# 4 0.0000 0.0000 0.0000 21.9860 0.0000 0.0000
# 5 0.0000 0.0000 0.0000 0.0000 21.9860 0.0000
# 6 -0.9640 0.9640 0.0000 0.0000 0.0000 29.3173
#
#
#
# Elastic Compliance Matrix: (Units=1/GPa)
#
#
# Indices 1 2 3 4 5 6 
#
# 1 0.012206 -0.001665 -0.002522 0.000000 0.000000 0.000456
# 2 -0.001665 0.012206 -0.002522 0.000000 0.000000 -0.000456
# 3 -0.002522 -0.002522 0.010650 0.000000 0.000000 0.000000
# 4 0.000000 0.000000 0.000000 0.045483 0.000000 0.000000
# 5 0.000000 0.000000 0.000000 0.000000 0.045483 0.000000
# 6 0.000456 -0.000456 0.000000 0.000000 0.000000 0.034140
#
#
# Mechanical properties :
#
#
# Convention : Reuss Voigt Hill
#
# Bulk Modulus (GPa) = 46.20603 46.80666 46.50634
# Shear Modulus (GPa) = 27.65420 29.12061 28.38741
#
# Velocity S-wave (km/s) = 3.65937 3.75514 3.70756
# Velocity P-wave (km/s) = 6.34263 6.43946 6.39123
#
# Compressibility (1/GPa) = 0.02164220
#
# Stress axis : x y z
#
# Youngs Moduli (GPa) = 81.92483 81.92483 93.89327
#
# Poissons Ratio (x) = 0.13644 0.23685
# Poissons Ratio (y) = 0.13644 0.23685
# Poissons Ratio (z) = 0.20665 0.20665
#
# Static dielectric constant tensor:
#      x y z
#    x 3.855510 0.000000 0.000000 
#    y 0.000000 3.855510 0.000000 
#    z 0.000000 0.000000 4.595090 
# 
# 
# High freq. dielectric constant tensor:
#      x y z
#    x 1.797240 0.000000 0.000000 
#    y 0.000000 1.797240 0.000000 
#    z 0.000000 0.000000 1.822660 
# 
# From -- ./inp_files/3132.got.cif
#   From: 2010.03.12/outbox.cif.g09.slc.cpg/sg82_2_cif.got.tgz:3132.got - 2010.04.08 20:02:50.
