data_PCOD8302623
_publ_section_title
;
Structure prediction by ZEFSAII (Michael W. Deem and Ramdas Pophale) SiO2 
 PCOD8302623
Probable space group: P 4/M
;
_chemical_formula_sum "Si O2"
_cell_formula_units_Z 40
_cell_length_a 15.742815
_cell_length_b 15.742815
_cell_length_c 9.035393
_cell_angle_alpha 90.000000
_cell_angle_beta 90.000000
_cell_angle_gamma 90.000000
_cell_volume 2239.297685
_symmetry_space_group_name_H-M "P 4/M"
_symmetry_group_IT_number 83
_symmetry_cell_setting 'tetragonal'
loop_
_space_group_symop_operation_xyz
x,y,z
-y,x,z
-x,-y,z
y,-x,z
-x,-y,-z
y,-x,-z
x,y,-z
-y,x,-z
loop_
_atom_site_type_symbol
_atom_site_label
_atom_site_fract_x
_atom_site_fract_y
_atom_site_fract_z
Si Si1 0.938638 0.682761 0.324884
Si Si2 0.538749 0.367212 0.329378
Si Si3 0.036729 0.128363 0.675802
Si Si4 0.933927 0.424226 0.837466
Si Si5 0.439614 0.807103 0.825275
O O1 0.930490 0.675600 0.500000
O O2 0.936012 0.779361 0.265732
O O3 0.859613 0.635234 0.252006
O O4 0.030412 0.644436 0.277982
O O5 0.603463 0.443233 0.293675
O O6 0.546201 0.339700 0.500000
O O7 0.564627 0.289553 0.225992
O O8 0.034824 0.129565 0.500000
O O9 0.942092 0.103819 0.733030
O O10 0.845813 0.467461 0.782387
O O11 0.000000 0.500000 0.851601
O O12 0.922220 0.381920 0.000000
O O13 0.425047 0.813047 0.000000
#
# Coordination Sequence:
#
# PCOD8302623 Si02
#       5
#     8   8   8   8   8
#     4  10  18  29  51  79 103 130 171 217 260 302
#     4   9  19  37  58  78 102 132 167 212 260 299
#     4   8  15  30  50  71  99 133 167 206 255 306
#     4   8  16  31  48  67  98 137 167 200 250 300
#     4  10  20  34  52  74 105 140 172 205 249 307
#
# _framework density 17.862743999999999
#
# number of rings (size 3 to 8) (size 9 to 14) (size 15 to 20)
#    0.000    3.000    0.000    3.600    0.000    5.200 
#    3.600    1.000    0.000    3.600    0.000    5.600 
#    0.000    0.000    0.000    0.000    0.000    0.000 
#
# Total GULP energy -495768.280604 kJ/mol
# GULP energy per Si atom -12394.207015 kJ/mol
# Density = 1.782209 g / cm^3
# Si number density = 17.862744 Si / 1000 Ang^3
#
#
#
# Elastic Constant Matrix: (Units=GPa)
#
#
# Indices 1 2 3 4 5 6 
#
# 1 116.8946 55.6788 46.8015 0.0000 0.0000 -0.6779
# 2 55.6788 116.8946 46.8015 0.0000 0.0000 0.6779
# 3 46.8015 46.8015 69.0014 0.0000 0.0000 0.0000
# 4 0.0000 0.0000 0.0000 11.4886 0.0000 0.0000
# 5 0.0000 0.0000 0.0000 0.0000 11.4886 0.0000
# 6 -0.6779 0.6779 0.0000 0.0000 0.0000 16.6714
#
#
#
# Elastic Compliance Matrix: (Units=1/GPa)
#
#
# Indices 1 2 3 4 5 6 
#
# 1 0.012759 -0.003592 -0.006218 0.000000 0.000000 0.000665
# 2 -0.003592 0.012759 -0.006218 0.000000 0.000000 -0.000665
# 3 -0.006218 -0.006218 0.022927 0.000000 0.000000 0.000000
# 4 0.000000 0.000000 0.000000 0.087043 0.000000 0.000000
# 5 0.000000 0.000000 0.000000 0.000000 0.087043 0.000000
# 6 0.000665 -0.000665 0.000000 0.000000 0.000000 0.060037
#
#
# Mechanical properties :
#
#
# Convention : Reuss Voigt Hill
#
# Bulk Modulus (GPa) = 61.01183 66.81711 63.91447
# Shear Modulus (GPa) = 15.62086 18.16365 16.89225
#
# Velocity S-wave (km/s) = 2.96039 3.19226 3.07851
# Velocity P-wave (km/s) = 6.77608 7.14664 6.96382
#
# Compressibility (1/GPa) = 0.01639026
#
# Stress axis : x y z
#
# Youngs Moduli (GPa) = 78.37754 78.37754 43.61652
#
# Poissons Ratio (x) = 0.28150 0.27120
# Poissons Ratio (y) = 0.28150 0.27120
# Poissons Ratio (z) = 0.48733 0.48733
#
# Static dielectric constant tensor:
#      x y z
#    x 3.452340 0.000000 0.000000 
#    y 0.000000 3.452340 0.000000 
#    z 0.000000 0.000000 3.135990 
# 
# 
# High freq. dielectric constant tensor:
#      x y z
#    x 1.684620 0.000000 0.000000 
#    y 0.000000 1.684620 0.000000 
#    z 0.000000 0.000000 1.676190 
# 
# From -- ./inp_files/684.got.cif
#   From: 2010.03.12/outbox.cif.g09.slc.cpg/sg83_1_cif.got.tgz:684.got - 2010.04.08 20:05:18.
