data_PCOD8302608
_publ_section_title
;
Structure prediction by ZEFSAII (Michael W. Deem and Ramdas Pophale) SiO2 
 PCOD8302608
Probable space group: P 4/M
;
_chemical_formula_sum "Si O2"
_cell_formula_units_Z 52
_cell_length_a 17.198184
_cell_length_b 17.198184
_cell_length_c 9.806752
_cell_angle_alpha 90.000000
_cell_angle_beta 90.000000
_cell_angle_gamma 90.000000
_cell_volume 2900.616912
_symmetry_space_group_name_H-M "P 4/M"
_symmetry_group_IT_number 83
_symmetry_cell_setting 'tetragonal'
loop_
_space_group_symop_operation_xyz
x,y,z
-y,x,z
-x,-y,z
y,-x,z
-x,-y,-z
y,-x,-z
x,y,-z
-y,x,-z
loop_
_atom_site_type_symbol
_atom_site_label
_atom_site_fract_x
_atom_site_fract_y
_atom_site_fract_z
Si Si1 0.164631 0.557334 0.849145
Si Si2 0.597162 0.258905 0.158304
Si Si3 0.000000 0.500000 0.762678
Si Si4 0.430531 0.606772 0.650773
Si Si5 0.847044 0.303198 0.660301
Si Si6 0.014309 0.331110 0.656026
Si Si7 0.177950 0.278658 0.340529
O O1 0.223385 0.487538 0.820523
O O2 0.075393 0.526608 0.847509
O O3 0.188813 0.622839 0.739432
O O4 0.178487 0.591651 0.000000
O O5 0.604098 0.343110 0.226895
O O6 0.656157 0.206088 0.239146
O O7 0.620573 0.264751 0.000000
O O8 0.026861 0.423729 0.678351
O O9 0.394386 0.522585 0.666519
O O10 0.408965 0.640477 0.500000
O O11 0.842602 0.322919 0.500000
O O12 0.801873 0.222734 0.691285
O O13 0.934806 0.296910 0.721677
O O14 0.999347 0.318975 0.500000
O O15 0.086454 0.275969 0.698825
O O16 0.188489 0.302156 0.500000
#
# Coordination Sequence:
#
# PCOD8302608 Si02
#       7
#     8   8   4   8   8   8   8
#     4  10  21  34  50  74 106 138 168 207 256 308
#     4  11  23  35  49  75 106 135 170 213 263 313
#     4  10  16  32  52  74 103 138 175 206 251 314
#     4   9  20  39  58  73  92 128 179 225 262 303
#     4   9  20  35  54  78 103 136 176 215 258 312
#     4   9  17  31  53  79 106 136 173 221 264 311
#     4  10  20  36  55  77 104 138 177 217 265 316
#
# _framework density 17.927219999999998
#
# number of rings (size 3 to 8) (size 9 to 14) (size 15 to 20)
#    0.000    2.308    1.538    1.385    2.154    3.077 
#    0.000    0.769    0.000    0.462    0.000    3.231 
#    0.000    0.000    0.000    5.385    0.000    5.385 
#
# Total GULP energy -644213.207423 kJ/mol
# GULP energy per Si atom -12388.715527 kJ/mol
# Density = 1.788642 g / cm^3
# Si number density = 17.927220 Si / 1000 Ang^3
#
#
#
# Elastic Constant Matrix: (Units=GPa)
#
#
# Indices 1 2 3 4 5 6 
#
# 1 56.1449 32.9739 29.3475 0.0000 0.0000 -3.0134
# 2 32.9739 56.1449 29.3475 0.0000 0.0000 3.0134
# 3 29.3475 29.3475 71.3273 0.0000 0.0000 0.0000
# 4 0.0000 0.0000 0.0000 12.8510 0.0000 0.0000
# 5 0.0000 0.0000 0.0000 0.0000 12.8510 0.0000
# 6 -3.0134 3.0134 0.0000 0.0000 0.0000 29.7729
#
#
#
# Elastic Compliance Matrix: (Units=1/GPa)
#
#
# Indices 1 2 3 4 5 6 
#
# 1 0.029858 -0.014466 -0.006333 0.000000 0.000000 0.004486
# 2 -0.014466 0.029858 -0.006333 0.000000 0.000000 -0.004486
# 3 -0.006333 -0.006333 0.019231 0.000000 0.000000 0.000000
# 4 0.000000 0.000000 0.000000 0.077815 0.000000 0.000000
# 5 0.000000 0.000000 0.000000 0.000000 0.077815 0.000000
# 6 0.004486 -0.004486 0.000000 0.000000 0.000000 0.034496
#
#
# Mechanical properties :
#
#
# Convention : Reuss Voigt Hill
#
# Bulk Modulus (GPa) = 40.51334 40.77278 40.64306
# Shear Modulus (GPa) = 15.07998 17.22485 16.15241
#
# Velocity S-wave (km/s) = 2.90345 3.10307 3.00492
# Velocity P-wave (km/s) = 5.82133 5.96922 5.89574
#
# Compressibility (1/GPa) = 0.02468323
#
# Stress axis : x y z
#
# Youngs Moduli (GPa) = 33.49180 33.49180 51.99864
#
# Poissons Ratio (x) = 0.48449 0.32931
# Poissons Ratio (y) = 0.48449 0.32931
# Poissons Ratio (z) = 0.21210 0.21210
#
# Static dielectric constant tensor:
#      x y z
#    x 3.998370 0.000000 0.000000 
#    y 0.000000 3.998370 0.000000 
#    z 0.000000 0.000000 3.286020 
# 
# 
# High freq. dielectric constant tensor:
#      x y z
#    x 1.685840 0.000000 0.000000 
#    y 0.000000 1.685840 0.000000 
#    z 0.000000 0.000000 1.686920 
# 
# From -- ./inp_files/1031.got.cif
#   From: 2010.03.12/outbox.cif.g09.slc.cpg/sg83_1_cif.got.tgz:1031.got - 2010.04.08 20:05:18.
