data_PCOD8302741
_publ_section_title
;
Structure prediction by ZEFSAII (Michael W. Deem and Ramdas Pophale) SiO2 
 PCOD8302741
Probable space group: P 4/M
;
_chemical_formula_sum "Si O2"
_cell_formula_units_Z 40
_cell_length_a 15.128520
_cell_length_b 15.128520
_cell_length_c 8.441651
_cell_angle_alpha 90.000000
_cell_angle_beta 90.000000
_cell_angle_gamma 90.000000
_cell_volume 1932.058539
_symmetry_space_group_name_H-M "P 4/M"
_symmetry_group_IT_number 83
_symmetry_cell_setting 'tetragonal'
loop_
_space_group_symop_operation_xyz
x,y,z
-y,x,z
-x,-y,z
y,-x,z
-x,-y,-z
y,-x,-z
x,y,-z
-y,x,-z
loop_
_atom_site_type_symbol
_atom_site_label
_atom_site_fract_x
_atom_site_fract_y
_atom_site_fract_z
Si Si1 0.307030 0.100301 0.187916
Si Si2 0.391910 0.277871 0.813115
Si Si3 0.880639 0.932292 0.811254
Si Si4 0.582509 0.061309 0.185331
Si Si5 0.741590 0.579111 0.315725
O O1 0.366057 0.180422 0.254176
O O2 0.207561 0.114724 0.252801
O O3 0.336023 0.001242 0.237660
O O4 0.311338 0.106905 0.000000
O O5 0.314406 0.346603 0.774944
O O6 0.484587 0.300755 0.730279
O O7 0.407488 0.276436 0.000000
O O8 0.966457 0.881297 0.748371
O O9 0.880010 0.934202 0.000000
O O10 0.585024 0.154341 0.275180
O O11 0.500000 0.000000 0.231072
O O12 0.582242 0.084524 0.000000
O O13 0.728831 0.595336 0.500000
#
# Coordination Sequence:
#
# PCOD8302741 Si02
#       5
#     8   8   8   8   8
#     4   9  18  31  54  87 119 154 204 261 307 352
#     4  11  23  43  67  92 121 162 214 266 315 373
#     4   8  14  24  40  71 116 156 189 235 299 356
#     4  10  19  37  62  90 122 158 206 256 302 358
#     4  12  26  43  63  94 130 166 204 256 322 388
#
# _framework density 20.703306000000001
#
# number of rings (size 3 to 8) (size 9 to 14) (size 15 to 20)
#    0.000    2.000    2.000    3.000    2.800    0.800 
#    0.000    2.000    0.000    0.000    0.000    0.000 
#    0.000    1.600    0.000    0.000    0.000    0.000 
#
# Total GULP energy -495702.597887 kJ/mol
# GULP energy per Si atom -12392.564947 kJ/mol
# Density = 2.065618 g / cm^3
# Si number density = 20.703306 Si / 1000 Ang^3
#
#
#
# Elastic Constant Matrix: (Units=GPa)
#
#
# Indices 1 2 3 4 5 6 
#
# 1 97.6164 32.6126 7.7478 0.0000 0.0000 1.1272
# 2 32.6126 97.6164 7.7478 0.0000 0.0000 -1.1272
# 3 7.7478 7.7478 33.1735 0.0000 0.0000 0.0000
# 4 0.0000 0.0000 0.0000 15.8708 0.0000 0.0000
# 5 0.0000 0.0000 0.0000 0.0000 15.8708 0.0000
# 6 1.1272 -1.1272 0.0000 0.0000 0.0000 23.2732
#
#
#
# Elastic Compliance Matrix: (Units=1/GPa)
#
#
# Indices 1 2 3 4 5 6 
#
# 1 0.011654 -0.003756 -0.001845 0.000000 0.000000 -0.000746
# 2 -0.003756 0.011654 -0.001845 0.000000 0.000000 0.000746
# 3 -0.001845 -0.001845 0.031006 0.000000 0.000000 0.000000
# 4 0.000000 0.000000 0.000000 0.063009 0.000000 0.000000
# 5 0.000000 0.000000 0.000000 0.000000 0.063009 0.000000
# 6 -0.000746 0.000746 0.000000 0.000000 0.000000 0.043040
#
#
# Mechanical properties :
#
#
# Convention : Reuss Voigt Hill
#
# Bulk Modulus (GPa) = 25.36523 36.06919 30.71721
# Shear Modulus (GPa) = 19.88839 23.02284 21.45561
#
# Velocity S-wave (km/s) = 3.10278 3.33834 3.22271
# Velocity P-wave (km/s) = 5.01146 5.68499 5.35882
#
# Compressibility (1/GPa) = 0.03942404
#
# Stress axis : x y z
#
# Youngs Moduli (GPa) = 85.80787 85.80787 32.25162
#
# Poissons Ratio (x) = 0.32227 0.05949
# Poissons Ratio (y) = 0.32227 0.05949
# Poissons Ratio (z) = 0.15829 0.15829
#
# Static dielectric constant tensor:
#      x y z
#    x 4.012430 0.000000 0.000000 
#    y 0.000000 4.012430 0.000000 
#    z 0.000000 0.000000 3.247100 
# 
# 
# High freq. dielectric constant tensor:
#      x y z
#    x 1.820800 0.000000 0.000000 
#    y 0.000000 1.820800 0.000000 
#    z 0.000000 0.000000 1.759390 
# 
# From -- ./inp_files/694.got.cif
#   From: 2010.03.12/outbox.cif.g09.slc.cpg/sg83_1_cif.got.tgz:694.got - 2010.04.08 20:05:18.
