data_PCOD8302385
_publ_section_title
;
Structure prediction by ZEFSAII (Michael W. Deem and Ramdas Pophale) SiO2 
 PCOD8302385
Probable space group: I -4 
;
_chemical_formula_sum "Si O2"
_cell_formula_units_Z 48
_cell_length_a 16.901610
_cell_length_b 16.901610
_cell_length_c 7.241795
_cell_angle_alpha 90.000000
_cell_angle_beta 90.000000
_cell_angle_gamma 90.000000
_cell_volume 2068.723173
_symmetry_space_group_name_H-M "I -4 "
_symmetry_group_IT_number 82
_symmetry_cell_setting 'tetragonal'
loop_
_space_group_symop_operation_xyz
x,y,z
y,-x,-z
-x,-y,z
-y,x,-z
1/2+x,1/2+y,1/2+z
1/2+y,1/2-x,1/2-z
1/2-x,1/2-y,1/2+z
1/2-y,1/2+x,1/2-z
loop_
_atom_site_type_symbol
_atom_site_label
_atom_site_fract_x
_atom_site_fract_y
_atom_site_fract_z
Si Si1 0.383097 0.455644 0.022651
Si Si2 0.941338 0.722735 0.006934
Si Si3 0.570953 0.087933 0.184628
Si Si4 0.330060 0.312125 0.220009
Si Si5 0.829315 0.757977 0.303876
Si Si6 0.081063 0.764360 0.784301
O O1 0.310885 0.464264 0.879034
O O2 0.410548 0.543463 0.081263
O O3 0.357176 0.404412 0.203304
O O4 0.945657 0.627713 0.976934
O O5 0.879547 0.761519 0.864236
O O6 0.026745 0.763125 0.968636
O O7 0.913805 0.733272 0.217562
O O8 0.475954 0.086300 0.145195
O O9 0.600882 0.175203 0.226984
O O10 0.237217 0.309486 0.274736
O O11 0.342163 0.275924 0.016271
O O12 0.803993 0.834509 0.180912
#
# Coordination Sequence:
#
# PCOD8302385 Si02
#       6
#     8   8   8   8   8   8
#     4  10  20  35  56  86 121 164 210 245 302 372
#     4  11  20  39  60  85 121 157 199 251 305 365
#     4   9  18  34  63  90 114 155 199 245 306 367
#     4  11  20  37  60  83 116 160 197 254 300 359
#     4  11  22  38  58  91 118 156 208 249 306 367
#     4  10  20  37  58  88 122 158 205 252 304 365
#
# _framework density 23.202717
#
# number of rings (size 3 to 8) (size 9 to 14) (size 15 to 20)
#    0.000    1.667    5.000    1.000    0.000    0.000 
#    6.000    0.000    0.000    0.000    0.000    7.000 
#    0.000    0.000    0.000    0.000    0.000    0.000 
#
# Total GULP energy -297335.540280 kJ/mol
# GULP energy per Si atom -12388.980845 kJ/mol
# Density = 2.314991 g / cm^3
# Si number density = 23.202717 Si / 1000 Ang^3
#
#
#
# Elastic Constant Matrix: (Units=GPa)
#
#
# Indices 1 2 3 4 5 6 
#
# 1 77.7842 -9.5013 0.0801 0.0000 0.0000 -1.5450
# 2 -9.5013 77.7842 0.0801 0.0000 0.0000 1.5450
# 3 0.0801 0.0801 51.7349 0.0000 0.0000 0.0000
# 4 0.0000 0.0000 0.0000 21.1585 0.0000 0.0000
# 5 0.0000 0.0000 0.0000 0.0000 21.1585 0.0000
# 6 -1.5450 1.5450 0.0000 0.0000 0.0000 30.0809
#
#
#
# Elastic Compliance Matrix: (Units=1/GPa)
#
#
# Indices 1 2 3 4 5 6 
#
# 1 0.013061 0.001584 -0.000023 0.000000 0.000000 0.000590
# 2 0.001584 0.013061 -0.000023 0.000000 0.000000 -0.000590
# 3 -0.000023 -0.000023 0.019329 0.000000 0.000000 0.000000
# 4 0.000000 0.000000 0.000000 0.047262 0.000000 0.000000
# 5 0.000000 0.000000 0.000000 0.000000 0.047262 0.000000
# 6 0.000590 -0.000590 0.000000 0.000000 0.000000 0.033304
#
#
# Mechanical properties :
#
#
# Convention : Reuss Voigt Hill
#
# Bulk Modulus (GPa) = 20.60634 20.95787 20.78211
# Shear Modulus (GPa) = 26.82686 28.92253 27.87469
#
# Velocity S-wave (km/s) = 3.40398 3.53443 3.46982
# Velocity P-wave (km/s) = 4.93454 5.07034 5.00290
#
# Compressibility (1/GPa) = 0.04852876
#
# Stress axis : x y z
#
# Youngs Moduli (GPa) = 76.56222 76.56222 51.73475
#
# Poissons Ratio (x) = -0.12126 0.00117
# Poissons Ratio (y) = -0.12126 0.00117
# Poissons Ratio (z) = 0.00174 0.00174
#
# Static dielectric constant tensor:
#      x y z
#    x 4.524680 0.000000 0.000000 
#    y 0.000000 4.524680 0.000000 
#    z 0.000000 0.000000 3.631810 
# 
# 
# High freq. dielectric constant tensor:
#      x y z
#    x 1.931960 0.000000 0.000000 
#    y 0.000000 1.931960 0.000000 
#    z 0.000000 0.000000 1.859750 
# 
# From -- ./inp_files/1071.got.cif
#   From: 2010.03.12/outbox.cif.g09.slc.cpg/sg82_1_cif.got.tgz:1071.got - 2010.04.08 20:02:50.
