data_PCOD8302051
_publ_section_title
;
Structure prediction by ZEFSAII (Michael W. Deem and Ramdas Pophale) SiO2 
 PCOD8302051
Probable space group: P 43
;
_chemical_formula_sum "Si O2"
_cell_formula_units_Z 24
_cell_length_a 14.004938
_cell_length_b 14.004938
_cell_length_c 6.130133
_cell_angle_alpha 90.000000
_cell_angle_beta 90.000000
_cell_angle_gamma 90.000000
_cell_volume 1202.353794
_symmetry_space_group_name_H-M "P 43"
_symmetry_group_IT_number 78
_symmetry_cell_setting 'tetragonal'
loop_
_space_group_symop_operation_xyz
x,y,z
-y,x,3/4+z
-x,-y,1/2+z
y,-x,1/4+z
loop_
_atom_site_type_symbol
_atom_site_label
_atom_site_fract_x
_atom_site_fract_y
_atom_site_fract_z
Si Si1 0.970579 0.733034 0.432020
Si Si2 0.056104 0.122240 0.584018
Si Si3 0.336831 0.149747 0.430612
Si Si4 0.938304 0.397505 0.585922
Si Si5 0.121527 0.478931 0.438691
Si Si6 0.724931 0.175156 0.070035
O O1 0.979085 0.836674 0.318263
O O2 0.873471 0.722357 0.578424
O O3 0.060135 0.719784 0.585575
O O4 0.982888 0.656542 0.236566
O O5 0.127475 0.199069 0.482092
O O6 0.976435 0.107229 0.398057
O O7 0.328272 0.129809 0.691029
O O8 0.450879 0.155389 0.382718
O O9 0.286383 0.243166 0.326851
O O10 0.862676 0.460709 0.718113
O O11 0.006701 0.461708 0.434314
O O12 0.177865 0.379745 0.428661
#
# Coordination Sequence:
#
# PCOD8302051 Si02
#       6
#     4   4   4   4   4   4
#     4  11  21  39  59  85 122 165 206 257 303 365
#     4  12  27  38  57  86 129 177 216 243 298 370
#     4  11  24  38  62  93 123 160 214 264 319 378
#     4  11  19  38  63  91 118 158 208 261 319 361
#     4  11  21  38  62  89 119 158 205 271 318 371
#     4  12  24  41  61  88 125 166 211 260 323 379
#
# _framework density 19.960847000000001
#
# number of rings (size 3 to 8) (size 9 to 14) (size 15 to 20)
#    0.000    0.667    5.000    4.000    4.667    1.333 
#    0.000    0.000    0.000    0.000    4.333    0.000 
#    0.000    0.000    0.000    0.000    0.000    0.000 
#
# Total GULP energy -297337.200266 kJ/mol
# GULP energy per Si atom -12389.050011 kJ/mol
# Density = 1.991542 g / cm^3
# Si number density = 19.960847 Si / 1000 Ang^3
#
#
#
# Elastic Constant Matrix: (Units=GPa)
#
#
# Indices 1 2 3 4 5 6 
#
# 1 94.0761 43.8230 31.6754 0.0000 0.0000 1.7714
# 2 43.8230 94.0761 31.6754 0.0000 0.0000 -1.7714
# 3 31.6754 31.6754 101.6412 0.0000 0.0000 0.0000
# 4 0.0000 0.0000 0.0000 29.1768 0.0000 0.0000
# 5 0.0000 0.0000 0.0000 0.0000 29.1768 0.0000
# 6 1.7714 -1.7714 0.0000 0.0000 0.0000 22.3498
#
#
#
# Elastic Compliance Matrix: (Units=1/GPa)
#
#
# Indices 1 2 3 4 5 6 
#
# 1 0.014237 -0.005774 -0.002638 0.000000 0.000000 -0.001586
# 2 -0.005774 0.014237 -0.002638 0.000000 0.000000 0.001586
# 3 -0.002638 -0.002638 0.011482 0.000000 0.000000 0.000000
# 4 0.000000 0.000000 0.000000 0.034274 0.000000 0.000000
# 5 0.000000 0.000000 0.000000 0.000000 0.034274 0.000000
# 6 -0.001586 0.001586 0.000000 0.000000 0.000000 0.044994
#
#
# Mechanical properties :
#
#
# Convention : Reuss Voigt Hill
#
# Bulk Modulus (GPa) = 55.99393 56.01569 56.00481
# Shear Modulus (GPa) = 27.54067 28.31534 27.92800
#
# Velocity S-wave (km/s) = 3.71851 3.77044 3.74456
# Velocity P-wave (km/s) = 6.82270 6.86139 6.84207
#
# Compressibility (1/GPa) = 0.01785908
#
# Stress axis : x y z
#
# Youngs Moduli (GPa) = 70.23841 70.23841 87.08952
#
# Poissons Ratio (x) = 0.40555 0.22970
# Poissons Ratio (y) = 0.40555 0.22970
# Poissons Ratio (z) = 0.18525 0.18525
#
# Static dielectric constant tensor:
#      x y z
#    x 3.616620 0.000000 0.000000 
#    y 0.000000 3.616620 0.000000 
#    z 0.000000 0.000000 4.006100 
# 
# 
# High freq. dielectric constant tensor:
#      x y z
#    x 1.751770 0.000000 0.000000 
#    y 0.000000 1.751770 0.000000 
#    z 0.000000 0.000000 1.800220 
# 
# From -- ./inp_files/198.got.cif
#   From: 2010.03.12/outbox.cif.g09.slc.cpg/sg78_cif.got.tgz:198.got - 2010.04.16 16:37:20.
