data_PCOD8302263
_publ_section_title
;
Structure prediction by ZEFSAII (Michael W. Deem and Ramdas Pophale) SiO2 
 PCOD8302263
Probable space group: P -4
;
_chemical_formula_sum "Si O2"
_cell_formula_units_Z 22
_cell_length_a 9.260522
_cell_length_b 9.260522
_cell_length_c 12.876833
_cell_angle_alpha 90.000000
_cell_angle_beta 90.000000
_cell_angle_gamma 90.000000
_cell_volume 1104.282015
_symmetry_space_group_name_H-M "P -4"
_symmetry_group_IT_number 81
_symmetry_cell_setting 'tetragonal'
loop_
_space_group_symop_operation_xyz
x,y,z
y,-x,-z
-x,-y,z
-y,x,-z
loop_
_atom_site_type_symbol
_atom_site_label
_atom_site_fract_x
_atom_site_fract_y
_atom_site_fract_z
Si Si1 0.143308 0.261383 0.134684
Si Si2 0.002567 0.335531 0.923776
Si Si3 0.989450 0.803107 0.555968
Si Si4 0.000000 0.500000 0.470144
Si Si5 0.853252 0.173551 0.232455
Si Si6 0.507781 0.841147 0.728056
O O1 0.263511 0.154487 0.088774
O O2 0.234407 0.378034 0.206428
O O3 0.023999 0.177333 0.204790
O O4 0.055137 0.336754 0.042156
O O5 0.000000 0.500000 0.882601
O O6 0.115450 0.240574 0.860974
O O7 0.928244 0.838348 0.668263
O O8 0.142127 0.883935 0.537184
O O9 0.015777 0.633893 0.546417
O O10 0.142431 0.480395 0.396436
O O11 0.781766 0.330977 0.255356
O O12 0.500000 0.000000 0.779924
#
# Coordination Sequence:
#
# PCOD8302263 Si02
#       6
#     4   4   4   2   4   4
#     4  11  22  41  68  87 126 163 209 259 316 376
#     4  12  26  39  60  99 124 162 210 264 310 366
#     4  11  23  37  61  95 123 159 212 264 315 372
#     4  10  20  38  60  92 122 162 202 258 318 380
#     4  11  22  39  62  95 125 160 210 266 311 373
#     4   8  18  38  63  87 118 169 200 246 320 379
#
# _framework density 19.922446999999998
#
# number of rings (size 3 to 8) (size 9 to 14) (size 15 to 20)
#    0.545    0.909    3.636    2.182    8.909    0.000 
#    0.000    0.909    0.000    0.545    0.000    0.000 
#    0.000    0.000    0.000    0.000    0.000    0.000 
#
# Total GULP energy -272584.092540 kJ/mol
# GULP energy per Si atom -12390.186025 kJ/mol
# Density = 1.987710 g / cm^3
# Si number density = 19.922447 Si / 1000 Ang^3
#
#
#
# Elastic Constant Matrix: (Units=GPa)
#
#
# Indices 1 2 3 4 5 6 
#
# 1 84.6014 20.6937 17.5763 0.0000 0.0000 -3.5771
# 2 20.6937 84.6014 17.5763 0.0000 0.0000 3.5771
# 3 17.5763 17.5763 99.0078 0.0000 0.0000 0.0000
# 4 0.0000 0.0000 0.0000 22.1332 0.0000 0.0000
# 5 0.0000 0.0000 0.0000 0.0000 22.1332 0.0000
# 6 -3.5771 3.5771 0.0000 0.0000 0.0000 6.3216
#
#
#
# Elastic Compliance Matrix: (Units=1/GPa)
#
#
# Indices 1 2 3 4 5 6 
#
# 1 0.013401 -0.003305 -0.001792 0.000000 0.000000 0.009453
# 2 -0.003305 0.013401 -0.001792 0.000000 0.000000 -0.009453
# 3 -0.001792 -0.001792 0.010737 0.000000 0.000000 0.000000
# 4 0.000000 0.000000 0.000000 0.045181 0.000000 0.000000
# 5 0.000000 0.000000 0.000000 0.000000 0.045181 0.000000
# 6 0.009453 -0.009453 0.000000 0.000000 0.000000 0.168887
#
#
# Mechanical properties :
#
#
# Convention : Reuss Voigt Hill
#
# Bulk Modulus (GPa) = 42.08990 42.21145 42.15068
# Shear Modulus (GPa) = 15.69931 24.27523 19.98727
#
# Velocity S-wave (km/s) = 2.81022 3.49447 3.17085
# Velocity P-wave (km/s) = 5.63050 6.12500 5.88295
#
# Compressibility (1/GPa) = 0.02375867
#
# Stress axis : x y z
#
# Youngs Moduli (GPa) = 74.62345 74.62345 93.14004
#
# Poissons Ratio (x) = 0.24664 0.16692
# Poissons Ratio (y) = 0.24664 0.16692
# Poissons Ratio (z) = 0.13374 0.13374
#
# Static dielectric constant tensor:
#      x y z
#    x 3.563390 0.000000 0.000000 
#    y 0.000000 3.563390 0.000000 
#    z 0.000000 0.000000 3.626220 
# 
# 
# High freq. dielectric constant tensor:
#      x y z
#    x 1.753720 0.000000 0.000000 
#    y 0.000000 1.753720 0.000000 
#    z 0.000000 0.000000 1.790200 
# 
# From -- ./inp_files/1614.got.cif
#   From: 2010.03.12/outbox.cif.g09.slc.cpg/sg81_cif.got.tgz:1614.got - 2010.04.08 20:01:38.
