data_PCOD8302528
_publ_section_title
;
Structure prediction by ZEFSAII (Michael W. Deem and Ramdas Pophale) SiO2 
 PCOD8302528
Probable space group: I -4 
;
_chemical_formula_sum "Si O2"
_cell_formula_units_Z 56
_cell_length_a 15.292774
_cell_length_b 15.292774
_cell_length_c 11.909369
_cell_angle_alpha 90.000000
_cell_angle_beta 90.000000
_cell_angle_gamma 90.000000
_cell_volume 2785.231464
_symmetry_space_group_name_H-M "I -4 "
_symmetry_group_IT_number 82
_symmetry_cell_setting 'tetragonal'
loop_
_space_group_symop_operation_xyz
x,y,z
y,-x,-z
-x,-y,z
-y,x,-z
1/2+x,1/2+y,1/2+z
1/2+y,1/2-x,1/2-z
1/2-x,1/2-y,1/2+z
1/2-y,1/2+x,1/2-z
loop_
_atom_site_type_symbol
_atom_site_label
_atom_site_fract_x
_atom_site_fract_y
_atom_site_fract_z
Si Si1 0.592529 0.124476 0.432922
Si Si2 0.405162 0.078577 0.461318
Si Si3 0.859585 0.282987 0.719744
Si Si4 0.323627 0.782093 0.642640
Si Si5 0.124611 0.063628 0.138345
Si Si6 0.128138 0.061945 0.875681
Si Si7 0.604300 0.085721 0.788020
O O1 0.486767 0.141834 0.421622
O O2 0.642787 0.141266 0.315467
O O3 0.647596 0.182831 0.520462
O O4 0.581423 0.024878 0.470769
O O5 0.321821 0.083697 0.380728
O O6 0.380526 0.108194 0.585856
O O7 0.770366 0.262596 0.653851
O O8 0.903779 0.199151 0.777595
O O9 0.393059 0.709481 0.686535
O O10 0.317864 0.864079 0.726473
O O11 0.038841 0.122208 0.160734
O O12 0.108031 0.961670 0.161131
O O13 0.148519 0.074526 0.007931
O O14 0.517971 0.115284 0.718766
#
# Coordination Sequence:
#
# PCOD8302528 Si02
#       7
#     8   8   8   8   8   8   8
#     4  11  23  46  63  95 133 170 224 267 347 409
#     4  11  24  43  69  92 129 184 212 277 352 402
#     4  12  27  37  64 101 137 165 222 284 336 406
#     4  12  25  37  66  96 125 168 218 282 320 400
#     4   9  20  40  62  91 125 169 222 269 330 398
#     4   9  20  39  65  87 123 177 216 267 334 393
#     4  11  21  42  65  93 123 167 221 270 329 397
#
# _framework density 20.10605
#
# number of rings (size 3 to 8) (size 9 to 14) (size 15 to 20)
#    0.000    1.286    4.286    2.571    8.000    1.143 
#    0.000    0.000    0.000    0.000    0.000    2.000 
#    0.000    0.000    0.000    0.000    0.000    0.000 
#
# Total GULP energy -346870.103517 kJ/mol
# GULP energy per Si atom -12388.217983 kJ/mol
# Density = 2.006029 g / cm^3
# Si number density = 20.106050 Si / 1000 Ang^3
#
#
#
# Elastic Constant Matrix: (Units=GPa)
#
#
# Indices 1 2 3 4 5 6 
#
# 1 69.0214 25.5875 29.2953 0.0000 0.0000 2.8000
# 2 25.5875 69.0214 29.2953 0.0000 0.0000 -2.8000
# 3 29.2953 29.2953 102.4304 0.0000 0.0000 0.0000
# 4 0.0000 0.0000 0.0000 35.0849 0.0000 0.0000
# 5 0.0000 0.0000 0.0000 0.0000 35.0849 0.0000
# 6 2.8000 -2.8000 0.0000 0.0000 0.0000 31.0015
#
#
#
# Elastic Compliance Matrix: (Units=1/GPa)
#
#
# Indices 1 2 3 4 5 6 
#
# 1 0.018070 -0.005225 -0.003674 0.000000 0.000000 -0.002104
# 2 -0.005225 0.018070 -0.003674 0.000000 0.000000 0.002104
# 3 -0.003674 -0.003674 0.011864 0.000000 0.000000 0.000000
# 4 0.000000 0.000000 0.000000 0.028502 0.000000 0.000000
# 5 0.000000 0.000000 0.000000 0.000000 0.028502 0.000000
# 6 -0.002104 0.002104 0.000000 0.000000 0.000000 0.032637
#
#
# Mechanical properties :
#
#
# Convention : Reuss Voigt Hill
#
# Bulk Modulus (GPa) = 43.74604 45.42551 44.58577
# Shear Modulus (GPa) = 29.34116 30.65394 29.99755
#
# Velocity S-wave (km/s) = 3.82425 3.90887 3.86679
# Velocity P-wave (km/s) = 6.42688 6.55853 6.49304
#
# Compressibility (1/GPa) = 0.02285921
#
# Stress axis : x y z
#
# Youngs Moduli (GPa) = 55.34090 55.34090 84.28805
#
# Poissons Ratio (x) = 0.28915 0.30965
# Poissons Ratio (y) = 0.28915 0.30965
# Poissons Ratio (z) = 0.20330 0.20330
#
# Static dielectric constant tensor:
#      x y z
#    x 3.718490 0.000000 0.000000 
#    y 0.000000 3.718490 0.000000 
#    z 0.000000 0.000000 3.457090 
# 
# 
# High freq. dielectric constant tensor:
#      x y z
#    x 1.786540 0.000000 0.000000 
#    y 0.000000 1.786540 0.000000 
#    z 0.000000 0.000000 1.771190 
# 
# From -- ./inp_files/1833.got.cif
#   From: 2010.03.12/outbox.cif.g09.slc.cpg/sg82_1_cif.got.tgz:1833.got - 2010.04.08 20:02:50.
