data_PCOD8302555
_publ_section_title
;
Structure prediction by ZEFSAII (Michael W. Deem and Ramdas Pophale) SiO2 
 PCOD8302555
Probable space group: I -4 
;
_chemical_formula_sum "Si O2"
_cell_formula_units_Z 44
_cell_length_a 18.712048
_cell_length_b 18.712048
_cell_length_c 6.435158
_cell_angle_alpha 90.000000
_cell_angle_beta 90.000000
_cell_angle_gamma 90.000000
_cell_volume 2253.210986
_symmetry_space_group_name_H-M "I -4 "
_symmetry_group_IT_number 82
_symmetry_cell_setting 'tetragonal'
loop_
_space_group_symop_operation_xyz
x,y,z
y,-x,-z
-x,-y,z
-y,x,-z
1/2+x,1/2+y,1/2+z
1/2+y,1/2-x,1/2-z
1/2-x,1/2-y,1/2+z
1/2-y,1/2+x,1/2-z
loop_
_atom_site_type_symbol
_atom_site_label
_atom_site_fract_x
_atom_site_fract_y
_atom_site_fract_z
Si Si1 0.445040 0.128478 0.535388
Si Si2 0.500000 0.000000 0.250000
Si Si3 0.000000 0.000000 0.000000
Si Si4 0.082874 0.054077 0.618224
Si Si5 0.158771 0.786583 0.395948
Si Si6 0.674783 0.810101 0.272274
Si Si7 0.662360 0.902956 0.877861
O O1 0.463857 0.060753 0.391636
O O2 0.388776 0.183952 0.437374
O O3 0.411658 0.101086 0.751393
O O4 0.513591 0.177172 0.583988
O O5 0.941312 0.959633 0.856646
O O6 0.154902 0.097648 0.597245
O O7 0.021318 0.096734 0.495297
O O8 0.170426 0.751044 0.622272
O O9 0.230921 0.823357 0.318345
O O10 0.134119 0.727668 0.234565
O O11 0.653490 0.866141 0.098095
#
# Coordination Sequence:
#
# PCOD8302555 Si02
#       7
#     8   2   2   8   8   8   8
#     4  11  24  39  65  95 128 169 218 259 321 376
#     4  12  20  42  64  92 134 172 204 278 308 376
#     4   8  18  40  64  94 124 160 206 264 324 378
#     4   9  21  41  63  96 125 158 213 270 316 388
#     4  11  24  42  64  90 130 171 210 267 322 380
#     4  11  24  43  62  91 129 172 213 262 318 382
#     4  11  24  42  64  93 130 169 215 263 314 381
#
# _framework density 19.527688000000001
#
# number of rings (size 3 to 8) (size 9 to 14) (size 15 to 20)
#    0.000    1.636    3.636    1.091    0.000    7.273 
#    0.000    0.000    0.000    0.000    0.000    0.000 
#    0.000    0.000    0.000    0.000    0.000    0.000 
#
# Total GULP energy -272818.080085 kJ/mol
# GULP energy per Si atom -12400.821822 kJ/mol
# Density = 1.948324 g / cm^3
# Si number density = 19.527688 Si / 1000 Ang^3
#
#
#
# Elastic Constant Matrix: (Units=GPa)
#
#
# Indices 1 2 3 4 5 6 
#
# 1 66.3398 8.6357 16.2895 0.0000 0.0000 11.1456
# 2 8.6357 66.3398 16.2895 0.0000 0.0000 -11.1456
# 3 16.2895 16.2895 99.7351 0.0000 0.0000 0.0000
# 4 0.0000 0.0000 0.0000 26.1370 0.0000 0.0000
# 5 0.0000 0.0000 0.0000 0.0000 26.1370 0.0000
# 6 11.1456 -11.1456 0.0000 0.0000 0.0000 42.3191
#
#
#
# Elastic Compliance Matrix: (Units=1/GPa)
#
#
# Indices 1 2 3 4 5 6 
#
# 1 0.016825 -0.002468 -0.002345 0.000000 0.000000 -0.005081
# 2 -0.002468 0.016825 -0.002345 0.000000 0.000000 0.005081
# 3 -0.002345 -0.002345 0.010793 0.000000 0.000000 0.000000
# 4 0.000000 0.000000 0.000000 0.038260 0.000000 0.000000
# 5 0.000000 0.000000 0.000000 0.000000 0.038260 0.000000
# 6 -0.005081 0.005081 0.000000 0.000000 0.000000 0.026306
#
#
# Mechanical properties :
#
#
# Convention : Reuss Voigt Hill
#
# Bulk Modulus (GPa) = 33.19352 34.98269 34.08810
# Shear Modulus (GPa) = 29.13321 31.66529 30.39925
#
# Velocity S-wave (km/s) = 3.86669 4.03123 3.94982
# Velocity P-wave (km/s) = 6.08031 6.29452 6.18834
#
# Compressibility (1/GPa) = 0.03012636
#
# Stress axis : x y z
#
# Youngs Moduli (GPa) = 59.43678 59.43678 92.65682
#
# Poissons Ratio (x) = 0.14669 0.21726
# Poissons Ratio (y) = 0.14669 0.21726
# Poissons Ratio (z) = 0.13937 0.13937
#
# Static dielectric constant tensor:
#      x y z
#    x 3.514930 0.000000 0.000000 
#    y 0.000000 3.514930 0.000000 
#    z 0.000000 0.000000 3.821240 
# 
# 
# High freq. dielectric constant tensor:
#      x y z
#    x 1.761160 0.000000 0.000000 
#    y 0.000000 1.761160 0.000000 
#    z 0.000000 0.000000 1.776850 
# 
# From -- ./inp_files/324.got.cif
#   From: 2010.03.12/outbox.cif.g09.slc.cpg/sg82_1_cif.got.tgz:324.got - 2010.04.08 20:02:50.
