data_PCOD8302034
_publ_section_title
;
Structure prediction by ZEFSAII (Michael W. Deem and Ramdas Pophale) SiO2 
 PCOD8302034
Probable space group: P 43
;
_chemical_formula_sum "Si O2"
_cell_formula_units_Z 32
_cell_length_a 8.764553
_cell_length_b 8.764553
_cell_length_c 19.892870
_cell_angle_alpha 90.000000
_cell_angle_beta 90.000000
_cell_angle_gamma 90.000000
_cell_volume 1528.118339
_symmetry_space_group_name_H-M "P 43"
_symmetry_group_IT_number 78
_symmetry_cell_setting 'tetragonal'
loop_
_space_group_symop_operation_xyz
x,y,z
-y,x,3/4+z
-x,-y,1/2+z
y,-x,1/4+z
loop_
_atom_site_type_symbol
_atom_site_label
_atom_site_fract_x
_atom_site_fract_y
_atom_site_fract_z
Si Si1 0.067688 0.905889 0.386040
Si Si2 0.583555 0.425396 0.647097
Si Si3 0.914237 0.568594 0.018831
Si Si4 0.083554 0.074604 0.521218
Si Si5 0.602174 0.079598 0.035935
Si Si6 0.432312 0.405890 0.282275
Si Si7 0.420402 0.897826 0.382379
Si Si8 0.068594 0.414237 0.899484
O O1 0.242991 0.900542 0.362532
O O2 0.018363 0.742590 0.414686
O O3 0.041224 0.027031 0.445545
O O4 0.964453 0.945659 0.321645
O O5 0.541224 0.472969 0.722770
O O6 0.445660 0.464452 0.596670
O O7 0.729163 0.516609 0.619315
O O8 0.617695 0.247192 0.646346
O O9 0.882306 0.747193 0.021969
O O10 0.757409 0.481639 0.003628
O O11 0.980495 0.512924 0.089401
O O12 0.032213 0.532213 0.959158
O O13 0.229162 0.983389 0.548999
O O14 0.599458 0.257010 0.055783
O O15 0.480497 0.987075 0.078914
O O16 0.554192 0.054191 0.959157
#
# Coordination Sequence:
#
# PCOD8302034 Si02
#       8
#     4   4   4   4   4   4   4   4
#     4  11  23  41  66  90 124 169 212 260 320 388
#     4  11  24  41  63  93 126 162 211 266 318 379
#     4  12  24  40  64  93 128 167 211 264 321 381
#     4  11  24  41  63  93 126 162 211 266 318 379
#     4  10  22  42  64  90 123 164 212 260 317 384
#     4  11  23  41  66  90 124 169 212 260 320 388
#     4  10  22  42  64  90 123 164 212 260 317 384
#     4  12  24  40  64  93 128 167 211 264 321 381
#
# _framework density 20.940784000000001
#
# number of rings (size 3 to 8) (size 9 to 14) (size 15 to 20)
#    0.000    1.000    0.000    8.250    0.000    8.000 
#    0.000    1.250    0.000    0.000    0.000    0.000 
#    0.000    0.000    0.000    0.000    0.000    0.000 
#
# Total GULP energy -397091.946949 kJ/mol
# GULP energy per Si atom -12409.123342 kJ/mol
# Density = 2.089312 g / cm^3
# Si number density = 20.940784 Si / 1000 Ang^3
#
#
#
# Elastic Constant Matrix: (Units=GPa)
#
#
# Indices 1 2 3 4 5 6 
#
# 1 79.0074 13.6324 38.9882 0.0000 0.0000 -0.0001
# 2 13.6324 79.0074 38.9882 0.0000 0.0000 0.0001
# 3 38.9882 38.9882 87.2226 0.0000 0.0000 0.0000
# 4 0.0000 0.0000 0.0000 36.9856 0.0000 0.0000
# 5 0.0000 0.0000 0.0000 0.0000 36.9856 0.0000
# 6 -0.0001 0.0001 0.0000 0.0000 0.0000 34.8178
#
#
#
# Elastic Compliance Matrix: (Units=1/GPa)
#
#
# Indices 1 2 3 4 5 6 
#
# 1 0.016301 0.001005 -0.007736 0.000000 0.000000 0.000000
# 2 0.001005 0.016301 -0.007736 0.000000 0.000000 0.000000
# 3 -0.007736 -0.007736 0.018380 0.000000 0.000000 0.000000
# 4 0.000000 0.000000 0.000000 0.027038 0.000000 0.000000
# 5 0.000000 0.000000 0.000000 0.000000 0.027038 0.000000
# 6 0.000000 0.000000 0.000000 0.000000 0.000000 0.028721
#
#
# Mechanical properties :
#
#
# Convention : Reuss Voigt Hill
#
# Bulk Modulus (GPa) = 45.35254 47.60612 46.47933
# Shear Modulus (GPa) = 29.40117 31.99970 30.70043
#
# Velocity S-wave (km/s) = 3.75108 3.91334 3.83307
# Velocity P-wave (km/s) = 6.36124 6.57282 6.46790
#
# Compressibility (1/GPa) = 0.02204948
#
# Stress axis : x y z
#
# Youngs Moduli (GPa) = 61.34596 61.34596 54.40563
#
# Poissons Ratio (x) = -0.06163 0.42086
# Poissons Ratio (y) = -0.06163 0.42086
# Poissons Ratio (z) = 0.47454 0.47454
#
# Static dielectric constant tensor:
#      x y z
#    x 3.756440 0.000000 0.000000 
#    y 0.000000 3.756440 0.000000 
#    z 0.000000 0.000000 3.753010 
# 
# 
# High freq. dielectric constant tensor:
#      x y z
#    x 1.825990 0.000000 0.000000 
#    y 0.000000 1.825990 0.000000 
#    z 0.000000 0.000000 1.829870 
# 
# From -- ./inp_files/1486.got.cif
#   From: 2010.03.12/outbox.cif.g09.slc.cpg/sg78_cif.got.tgz:1486.got - 2010.04.16 16:37:20.
