data_PCOD8302184
_publ_section_title
;
Structure prediction by ZEFSAII (Michael W. Deem and Ramdas Pophale) SiO2 
 PCOD8302184
Probable space group: I 41
;
_chemical_formula_sum "Si O2"
_cell_formula_units_Z 48
_cell_length_a 11.560479
_cell_length_b 11.560479
_cell_length_c 17.339275
_cell_angle_alpha 90.000000
_cell_angle_beta 90.000000
_cell_angle_gamma 90.000000
_cell_volume 2317.301767
_symmetry_space_group_name_H-M "I 41"
_symmetry_group_IT_number 80
_symmetry_cell_setting 'tetragonal'
loop_
_space_group_symop_operation_xyz
x,y,z
-y,1/2+x,1/4+z
-x,-y,z
y,1/2-x,1/4+z
1/2+x,1/2+y,1/2+z
1/2-y,x,3/4+z
1/2-x,1/2-y,1/2+z
1/2+y,-x,3/4+z
loop_
_atom_site_type_symbol
_atom_site_label
_atom_site_fract_x
_atom_site_fract_y
_atom_site_fract_z
Si Si1 0.278822 0.549212 0.631080
Si Si2 0.375401 0.551051 0.369392
Si Si3 0.679156 0.805549 0.095903
Si Si4 0.566177 0.323571 0.515058
Si Si5 0.624421 0.445560 0.797200
Si Si6 0.828738 0.683979 0.202259
O O1 0.247654 0.414528 0.631788
O O2 0.386788 0.578949 0.574212
O O3 0.309536 0.587234 0.718083
O O4 0.168671 0.620001 0.599262
O O5 0.500000 0.500000 0.345004
O O6 0.383783 0.657138 0.429284
O O7 0.305399 0.597245 0.295226
O O8 0.299797 0.451013 0.409640
O O9 0.540088 0.809417 0.100600
O O10 0.725740 0.689206 0.138408
O O11 0.705826 0.804027 0.005294
O O12 0.428196 0.331454 0.506299
O O13 0.500000 0.500000 0.775774
#
# Coordination Sequence:
#
# PCOD8302184 Si02
#       6
#     8   8   8   8   8   8
#     4  11  22  37  62  94 130 161 213 268 321 374
#     4  10  22  37  59  93 125 161 209 264 316 375
#     4  11  21  38  62  96 127 165 209 267 321 378
#     4  11  22  37  61  92 127 162 210 260 321 371
#     4  10  24  39  64  96 126 169 213 265 321 380
#     4  11  21  35  62  97 123 161 206 263 320 369
#
# _framework density 20.713746
#
# number of rings (size 3 to 8) (size 9 to 14) (size 15 to 20)
#    0.000    1.333    5.000    1.000    4.667    0.000 
#    0.000    3.333    3.667    0.000    0.000    0.000 
#    0.000    0.000    0.000    0.000    0.000    0.000 
#
# Total GULP energy -297473.843780 kJ/mol
# GULP energy per Si atom -12394.743491 kJ/mol
# Density = 2.066660 g / cm^3
# Si number density = 20.713746 Si / 1000 Ang^3
#
#
#
# Elastic Constant Matrix: (Units=GPa)
#
#
# Indices 1 2 3 4 5 6 
#
# 1 97.0192 42.7535 59.0949 0.0000 0.0000 -0.2691
# 2 42.7535 97.0192 59.0949 0.0000 0.0000 0.2691
# 3 59.0949 59.0949 91.2069 0.0000 0.0000 0.0000
# 4 0.0000 0.0000 0.0000 31.7496 0.0000 0.0000
# 5 0.0000 0.0000 0.0000 0.0000 31.7496 0.0000
# 6 -0.2691 0.2691 0.0000 0.0000 0.0000 25.7663
#
#
#
# Elastic Compliance Matrix: (Units=1/GPa)
#
#
# Indices 1 2 3 4 5 6 
#
# 1 0.017127 -0.001303 -0.010253 0.000000 0.000000 0.000192
# 2 -0.001303 0.017127 -0.010253 0.000000 0.000000 -0.000192
# 3 -0.010253 -0.010253 0.024250 0.000000 0.000000 0.000000
# 4 0.000000 0.000000 0.000000 0.031496 0.000000 0.000000
# 5 0.000000 0.000000 0.000000 0.000000 0.031496 0.000000
# 6 0.000192 -0.000192 0.000000 0.000000 0.000000 0.038814
#
#
# Mechanical properties :
#
#
# Convention : Reuss Voigt Hill
#
# Bulk Modulus (GPa) = 67.17199 67.45910 67.31554
# Shear Modulus (GPa) = 23.93604 26.13991 25.03797
#
# Velocity S-wave (km/s) = 3.40305 3.55626 3.48050
# Velocity P-wave (km/s) = 6.92388 7.03567 6.98000
#
# Compressibility (1/GPa) = 0.01488716
#
# Stress axis : x y z
#
# Youngs Moduli (GPa) = 58.38769 58.38769 41.23717
#
# Poissons Ratio (x) = 0.07607 0.42279
# Poissons Ratio (y) = 0.07607 0.42279
# Poissons Ratio (z) = 0.59863 0.59863
#
# Static dielectric constant tensor:
#      x y z
#    x 3.755690 0.000000 0.000000 
#    y 0.000000 3.755690 0.000000 
#    z 0.000000 0.000000 3.669380 
# 
# 
# High freq. dielectric constant tensor:
#      x y z
#    x 1.798390 0.000000 0.000000 
#    y 0.000000 1.798390 0.000000 
#    z 0.000000 0.000000 1.805910 
# 
# From -- ./inp_files/1516.got.cif
#   From: 2010.03.12/outbox.cif.g09.slc.cpg/sg80_cif.got.tgz:1516.got - 2010.04.08 20:00:04.
