data_PCOD8302267
_publ_section_title
;
Structure prediction by ZEFSAII (Michael W. Deem and Ramdas Pophale) SiO2 
 PCOD8302267
Probable space group: P -4
;
_chemical_formula_sum "Si O2"
_cell_formula_units_Z 26
_cell_length_a 11.389243
_cell_length_b 11.389243
_cell_length_c 9.412298
_cell_angle_alpha 90.000000
_cell_angle_beta 90.000000
_cell_angle_gamma 90.000000
_cell_volume 1220.914881
_symmetry_space_group_name_H-M "P -4"
_symmetry_group_IT_number 81
_symmetry_cell_setting 'tetragonal'
loop_
_space_group_symop_operation_xyz
x,y,z
y,-x,-z
-x,-y,z
-y,x,-z
loop_
_atom_site_type_symbol
_atom_site_label
_atom_site_fract_x
_atom_site_fract_y
_atom_site_fract_z
Si Si1 0.371982 0.962112 0.619172
Si Si2 0.694771 0.007952 0.306472
Si Si3 0.242672 0.182091 0.699750
Si Si4 0.596036 0.400683 0.809313
Si Si5 0.500000 0.000000 0.078861
Si Si6 0.724821 0.749056 0.386888
Si Si7 0.233906 0.572537 0.073946
O O1 0.378175 0.971918 0.449459
O O2 0.333406 0.832187 0.660247
O O3 0.500000 0.000000 0.679971
O O4 0.272189 0.044857 0.687821
O O5 0.801291 0.101834 0.293072
O O6 0.610210 0.035026 0.175164
O O7 0.744504 0.875436 0.310400
O O8 0.292100 0.243395 0.556036
O O9 0.304578 0.235269 0.839499
O O10 0.500000 0.500000 0.780180
O O11 0.687116 0.391702 0.677300
O O12 0.529769 0.276157 0.820931
O O13 0.670652 0.424148 0.949828
O O14 0.460524 0.105796 0.979444
#
# Coordination Sequence:
#
# PCOD8302267 Si02
#       7
#     4   4   4   4   2   4   4
#     4  10  20  40  67  99 137 171 222 288 335 403
#     4  10  21  42  67  95 131 180 228 271 338 417
#     4  10  24  41  66 103 132 172 229 284 341 406
#     4  12  24  45  64  94 138 178 225 281 340 416
#     4  12  24  40  72  90 134 190 222 276 342 410
#     4  10  23  43  70  97 135 178 224 281 346 406
#     4  12  24  43  65  96 133 178 228 280 345 403
#
# _framework density 21.295504999999999
#
# number of rings (size 3 to 8) (size 9 to 14) (size 15 to 20)
#    0.000    1.231    3.846    1.846    3.231    0.615 
#    5.538    3.846    0.000    0.000    0.000    0.000 
#    0.000    0.000    0.000    0.000    0.000    0.000 
#
# Total GULP energy -322332.607385 kJ/mol
# GULP energy per Si atom -12397.407976 kJ/mol
# Density = 2.124704 g / cm^3
# Si number density = 21.295505 Si / 1000 Ang^3
#
#
#
# Elastic Constant Matrix: (Units=GPa)
#
#
# Indices 1 2 3 4 5 6 
#
# 1 127.5875 64.6133 47.4862 0.0000 0.0000 -3.4116
# 2 64.6133 127.5875 47.4862 0.0000 0.0000 3.4116
# 3 47.4862 47.4862 80.0929 0.0000 0.0000 0.0000
# 4 0.0000 0.0000 0.0000 22.4141 0.0000 0.0000
# 5 0.0000 0.0000 0.0000 0.0000 22.4141 0.0000
# 6 -3.4116 3.4116 0.0000 0.0000 0.0000 39.3758
#
#
#
# Elastic Compliance Matrix: (Units=1/GPa)
#
#
# Indices 1 2 3 4 5 6 
#
# 1 0.011694 -0.004336 -0.004363 0.000000 0.000000 0.001389
# 2 -0.004336 0.011694 -0.004363 0.000000 0.000000 -0.001389
# 3 -0.004363 -0.004363 0.017659 0.000000 0.000000 0.000000
# 4 0.000000 0.000000 0.000000 0.044615 0.000000 0.000000
# 5 0.000000 0.000000 0.000000 0.000000 0.044615 0.000000
# 6 0.001389 -0.001389 0.000000 0.000000 0.000000 0.025637
#
#
# Mechanical properties :
#
#
# Convention : Reuss Voigt Hill
#
# Bulk Modulus (GPa) = 67.00271 72.71547 69.85909
# Shear Modulus (GPa) = 26.73621 28.55293 27.64457
#
# Velocity S-wave (km/s) = 3.54713 3.66566 3.60688
# Velocity P-wave (km/s) = 6.95038 7.22054 7.08675
#
# Compressibility (1/GPa) = 0.01492477
#
# Stress axis : x y z
#
# Youngs Moduli (GPa) = 85.51118 85.51118 56.62849
#
# Poissons Ratio (x) = 0.37074 0.24707
# Poissons Ratio (y) = 0.37074 0.24707
# Poissons Ratio (z) = 0.37308 0.37308
#
# Static dielectric constant tensor:
#      x y z
#    x 3.911610 0.000000 0.000000 
#    y 0.000000 3.911610 0.000000 
#    z 0.000000 0.000000 3.846570 
# 
# 
# High freq. dielectric constant tensor:
#      x y z
#    x 1.834470 0.000000 0.000000 
#    y 0.000000 1.834470 0.000000 
#    z 0.000000 0.000000 1.836600 
# 
# From -- ./inp_files/873.got.cif
#   From: 2010.03.12/outbox.cif.g09.slc.cpg/sg81_cif.got.tgz:873.got - 2010.04.08 20:01:38.
