data_PCOD8302155
_publ_section_title
;
Structure prediction by ZEFSAII (Michael W. Deem and Ramdas Pophale) SiO2 
 PCOD8302155
Probable space group: I 41
;
_chemical_formula_sum "Si O2"
_cell_formula_units_Z 56
_cell_length_a 14.120382
_cell_length_b 14.120382
_cell_length_c 14.991578
_cell_angle_alpha 90.000000
_cell_angle_beta 90.000000
_cell_angle_gamma 90.000000
_cell_volume 2989.098595
_symmetry_space_group_name_H-M "I 41"
_symmetry_group_IT_number 80
_symmetry_cell_setting 'tetragonal'
loop_
_space_group_symop_operation_xyz
x,y,z
-y,1/2+x,1/4+z
-x,-y,z
y,1/2-x,1/4+z
1/2+x,1/2+y,1/2+z
1/2-y,x,3/4+z
1/2-x,1/2-y,1/2+z
1/2+y,-x,3/4+z
loop_
_atom_site_type_symbol
_atom_site_label
_atom_site_fract_x
_atom_site_fract_y
_atom_site_fract_z
Si Si1 0.500000 0.000000 0.040931
Si Si2 0.339802 0.106246 0.124956
Si Si3 0.311776 0.186599 0.314372
Si Si4 0.500000 0.500000 0.346447
Si Si5 0.888828 0.657751 0.996996
Si Si6 0.972022 0.291981 0.271715
Si Si7 0.630854 0.073267 0.897194
Si Si8 0.556305 0.625952 0.490509
O O1 0.445582 0.074899 0.102047
O O2 0.562507 0.070660 0.981476
O O3 0.337755 0.124692 0.229530
O O4 0.307479 0.198549 0.070646
O O5 0.273637 0.020243 0.095813
O O6 0.348225 0.296071 0.310581
O O7 0.356060 0.129143 0.397369
O O8 0.410727 0.472207 0.283121
O O9 0.481247 0.590831 0.413157
O O10 0.924700 0.763817 0.983308
O O11 0.925251 0.237104 0.187558
O O12 0.887891 0.342247 0.327243
O O13 0.054876 0.355399 0.227256
O O14 0.609513 0.978296 0.841183
#
# Coordination Sequence:
#
# PCOD8302155 Si02
#       8
#     4   8   8   4   8   8   8   8
#     4  10  19  35  54  88 118 156 198 261 329 368
#     4  10  21  33  61  85 123 156 208 263 318 370
#     4  10  21  36  58  93 120 162 208 260 318 378
#     4  12  23  39  60  96 130 166 206 267 331 402
#     4  11  23  38  61  91 132 163 207 264 327 378
#     4  11  21  36  60  91 128 161 209 268 321 380
#     4  11  22  34  59  88 125 159 197 263 325 380
#     4  12  21  37  60  90 124 157 210 266 324 367
#
# _framework density 18.734745
#
# number of rings (size 3 to 8) (size 9 to 14) (size 15 to 20)
#    0.000    1.143    5.714    1.714    2.000    0.571 
#    0.000    0.000    0.000   20.571    0.000    0.000 
#    0.000    0.000    0.000    0.000    0.000    0.000 
#
# Total GULP energy -346975.180068 kJ/mol
# GULP energy per Si atom -12391.970717 kJ/mol
# Density = 1.869210 g / cm^3
# Si number density = 18.734745 Si / 1000 Ang^3
#
#
#
# Elastic Constant Matrix: (Units=GPa)
#
#
# Indices 1 2 3 4 5 6 
#
# 1 84.8238 52.1086 54.9749 0.0000 0.0000 -5.4910
# 2 52.1086 84.8238 54.9749 0.0000 0.0000 5.4910
# 3 54.9749 54.9749 118.4438 0.0000 0.0000 0.0000
# 4 0.0000 0.0000 0.0000 32.2781 0.0000 0.0000
# 5 0.0000 0.0000 0.0000 0.0000 32.2781 0.0000
# 6 -5.4910 5.4910 0.0000 0.0000 0.0000 34.6257
#
#
#
# Elastic Compliance Matrix: (Units=1/GPa)
#
#
# Indices 1 2 3 4 5 6 
#
# 1 0.021963 -0.010322 -0.005403 0.000000 0.000000 0.005120
# 2 -0.010322 0.021963 -0.005403 0.000000 0.000000 -0.005120
# 3 -0.005403 -0.005403 0.013459 0.000000 0.000000 0.000000
# 4 0.000000 0.000000 0.000000 0.030981 0.000000 0.000000
# 5 0.000000 0.000000 0.000000 0.000000 0.030981 0.000000
# 6 0.005120 -0.005120 0.000000 0.000000 0.000000 0.030504
#
#
# Mechanical properties :
#
#
# Convention : Reuss Voigt Hill
#
# Bulk Modulus (GPa) = 66.10113 68.02312 67.06213
# Shear Modulus (GPa) = 25.36125 28.23859 26.79992
#
# Velocity S-wave (km/s) = 3.68326 3.88659 3.78629
# Velocity P-wave (km/s) = 7.31080 7.51852 7.41539
#
# Compressibility (1/GPa) = 0.01512833
#
# Stress axis : x y z
#
# Youngs Moduli (GPa) = 45.53014 45.53014 74.30181
#
# Poissons Ratio (x) = 0.46996 0.40147
# Poissons Ratio (y) = 0.46996 0.40147
# Poissons Ratio (z) = 0.24601 0.24601
#
# Static dielectric constant tensor:
#      x y z
#    x 3.409720 0.000000 0.000000 
#    y 0.000000 3.409720 0.000000 
#    z 0.000000 0.000000 3.661120 
# 
# 
# High freq. dielectric constant tensor:
#      x y z
#    x 1.709700 0.000000 0.000000 
#    y 0.000000 1.709700 0.000000 
#    z 0.000000 0.000000 1.745670 
# 
# From -- ./inp_files/1344.got.cif
#   From: 2010.03.12/outbox.cif.g09.slc.cpg/sg80_cif.got.tgz:1344.got - 2010.04.08 20:00:04.
