data_PCOD8302266
_publ_section_title
;
Structure prediction by ZEFSAII (Michael W. Deem and Ramdas Pophale) SiO2 
 PCOD8302266
Probable space group: P -4
;
_chemical_formula_sum "Si O2"
_cell_formula_units_Z 26
_cell_length_a 13.277058
_cell_length_b 13.277058
_cell_length_c 7.113919
_cell_angle_alpha 90.000000
_cell_angle_beta 90.000000
_cell_angle_gamma 90.000000
_cell_volume 1254.043556
_symmetry_space_group_name_H-M "P -4"
_symmetry_group_IT_number 81
_symmetry_cell_setting 'tetragonal'
loop_
_space_group_symop_operation_xyz
x,y,z
y,-x,-z
-x,-y,z
-y,x,-z
loop_
_atom_site_type_symbol
_atom_site_label
_atom_site_fract_x
_atom_site_fract_y
_atom_site_fract_z
Si Si1 0.500000 0.500000 0.000000
Si Si2 0.532081 0.837836 0.511659
Si Si3 0.380049 0.246989 0.151987
Si Si4 0.757025 0.934790 0.118296
Si Si5 0.031434 0.346587 0.536107
Si Si6 0.704448 0.535775 0.140340
Si Si7 0.046737 0.174936 0.255353
Si Si8 0.000000 0.000000 0.500000
O O1 0.489726 0.408065 0.853105
O O2 0.591889 0.765604 0.369805
O O3 0.430519 0.884161 0.422934
O O4 0.503943 0.771737 0.690585
O O5 0.606453 0.930714 0.558291
O O6 0.321846 0.152005 0.064878
O O7 0.305815 0.343231 0.129814
O O8 0.488132 0.250411 0.049488
O O9 0.852578 0.885487 0.214943
O O10 0.706579 0.011750 0.264724
O O11 0.788979 0.993507 0.933086
O O12 0.075419 0.269803 0.383313
O O13 0.975329 0.097604 0.370599
#
# Coordination Sequence:
#
# PCOD8302266 Si02
#       8
#     1   4   4   4   4   4   4   1
#     4   8  20  36  58  88 132 158 212 260 306 376
#     4  10  22  41  66  90 123 163 206 257 318 368
#     4  10  23  40  61  95 126 159 214 253 306 383
#     4  11  24  40  64  92 124 169 206 256 319 367
#     4  10  23  42  62  93 125 159 209 263 307 377
#     4  10  20  40  61  90 125 165 201 257 311 364
#     4  12  23  42  63  90 127 166 209 255 313 370
#     4  12  24  42  60  96 126 160 212 262 300 376
#
# _framework density 20.732934
#
# number of rings (size 3 to 8) (size 9 to 14) (size 15 to 20)
#    0.000    1.538    1.538    2.769    0.000    6.154 
#    0.000    3.846    0.000    0.000    0.000    0.000 
#    0.000    0.000    0.000    0.000    0.000    0.000 
#
# Total GULP energy -322328.939834 kJ/mol
# GULP energy per Si atom -12397.266917 kJ/mol
# Density = 2.068574 g / cm^3
# Si number density = 20.732934 Si / 1000 Ang^3
#
#
#
# Elastic Constant Matrix: (Units=GPa)
#
#
# Indices 1 2 3 4 5 6 
#
# 1 76.9640 7.1591 27.6117 0.0000 0.0000 -2.7046
# 2 7.1591 76.9640 27.6117 0.0000 0.0000 2.7046
# 3 27.6117 27.6117 80.8054 0.0000 0.0000 0.0000
# 4 0.0000 0.0000 0.0000 35.5297 0.0000 0.0000
# 5 0.0000 0.0000 0.0000 0.0000 35.5297 0.0000
# 6 -2.7046 2.7046 0.0000 0.0000 0.0000 28.1143
#
#
#
# Elastic Compliance Matrix: (Units=1/GPa)
#
#
# Indices 1 2 3 4 5 6 
#
# 1 0.014879 0.000446 -0.005237 0.000000 0.000000 0.001388
# 2 0.000446 0.014879 -0.005237 0.000000 0.000000 -0.001388
# 3 -0.005237 -0.005237 0.015954 0.000000 0.000000 0.000000
# 4 0.000000 0.000000 0.000000 0.028146 0.000000 0.000000
# 5 0.000000 0.000000 0.000000 0.000000 0.028146 0.000000
# 6 0.001388 -0.001388 0.000000 0.000000 0.000000 0.035836
#
#
# Mechanical properties :
#
#
# Convention : Reuss Voigt Hill
#
# Bulk Modulus (GPa) = 38.97481 39.94427 39.45954
# Shear Modulus (GPa) = 30.03959 31.32478 30.68219
#
# Velocity S-wave (km/s) = 3.81055 3.89121 3.85109
# Velocity P-wave (km/s) = 6.18059 6.28463 6.23283
#
# Compressibility (1/GPa) = 0.02565760
#
# Stress axis : x y z
#
# Youngs Moduli (GPa) = 67.20829 67.20829 62.67945
#
# Poissons Ratio (x) = -0.02997 0.32823
# Poissons Ratio (y) = -0.02997 0.32823
# Poissons Ratio (z) = 0.35195 0.35195
#
# Static dielectric constant tensor:
#      x y z
#    x 3.973460 0.000000 0.000000 
#    y 0.000000 3.973460 0.000000 
#    z 0.000000 0.000000 3.595680 
# 
# 
# High freq. dielectric constant tensor:
#      x y z
#    x 1.821500 0.000000 0.000000 
#    y 0.000000 1.821500 0.000000 
#    z 0.000000 0.000000 1.803530 
# 
# From -- ./inp_files/364.got.cif
#   From: 2010.03.12/outbox.cif.g09.slc.cpg/sg81_cif.got.tgz:364.got - 2010.04.08 20:01:38.
