data_PCOD8302101
_publ_section_title
;
Structure prediction by ZEFSAII (Michael W. Deem and Ramdas Pophale) SiO2 
 PCOD8302101
Probable space group: I 4
;
_chemical_formula_sum "Si O2"
_cell_formula_units_Z 60
_cell_length_a 17.048365
_cell_length_b 17.048365
_cell_length_c 8.624580
_cell_angle_alpha 90.000000
_cell_angle_beta 90.000000
_cell_angle_gamma 90.000000
_cell_volume 2506.706140
_symmetry_space_group_name_H-M "I 4"
_symmetry_group_IT_number 79
_symmetry_cell_setting 'tetragonal'
loop_
_space_group_symop_operation_xyz
x,y,z
-y,x,z
-x,-y,z
y,-x,z
1/2+x,1/2+y,1/2+z
1/2-y,1/2+x,1/2+z
1/2-x,1/2-y,1/2+z
1/2+y,1/2-x,1/2+z
loop_
_atom_site_type_symbol
_atom_site_label
_atom_site_fract_x
_atom_site_fract_y
_atom_site_fract_z
Si Si1 0.146887 0.276859 0.809540
Si Si2 0.000000 0.500000 0.212243
Si Si3 0.773084 0.407956 0.657056
Si Si4 0.991526 0.771854 0.599099
Si Si5 0.955154 0.879375 0.331550
Si Si6 0.141333 0.733963 0.790205
Si Si7 0.111872 0.514172 0.966902
Si Si8 0.918966 0.321246 0.093340
O O1 0.064995 0.248285 0.739885
O O2 0.215019 0.218009 0.763907
O O3 0.173309 0.360029 0.739161
O O4 0.135452 0.279671 0.992730
O O5 0.924319 0.531438 0.115979
O O6 0.026152 0.575248 0.314255
O O7 0.684050 0.414420 0.719599
O O8 0.830579 0.356720 0.767024
O O9 0.803205 0.496122 0.658830
O O10 0.961260 0.850310 0.512161
O O11 0.987253 0.705534 0.464063
O O12 0.079174 0.770232 0.667453
O O13 0.045748 0.900456 0.298785
O O14 0.109334 0.743256 0.966235
O O15 0.074358 0.599755 0.992884
#
# Coordination Sequence:
#
# PCOD8302101 Si02
#       8
#     8   4   8   8   8   8   8   8
#     4  11  26  48  75 113 152 203 256 330 398 480
#     4  10  22  36  56  88 138 186 232 280 342 440
#     4  12  28  46  80 108 152 206 258 331 397 478
#     4  11  24  46  72 112 152 197 255 315 394 480
#     4  11  28  51  78 110 149 204 266 333 401 470
#     4  12  26  46  77 113 152 204 260 325 406 481
#     4  10  23  36  61  90 140 185 231 285 358 444
#     4  11  26  46  66 107 153 190 258 309 389 481
#
# _framework density 23.935794000000001
#
# number of rings (size 3 to 8) (size 9 to 14) (size 15 to 20)
#    0.000    0.933    1.333    4.000   14.933    0.000 
#    0.000    0.000    0.000    1.600    0.000    0.000 
#    0.000    0.000    0.000    0.000    0.000    0.000 
#
# Total GULP energy -371891.467973 kJ/mol
# GULP energy per Si atom -12396.382266 kJ/mol
# Density = 2.388132 g / cm^3
# Si number density = 23.935794 Si / 1000 Ang^3
#
#
#
# Elastic Constant Matrix: (Units=GPa)
#
#
# Indices 1 2 3 4 5 6 
#
# 1 84.8570 19.0868 17.8923 0.0000 0.0000 -3.8450
# 2 19.0868 84.8570 17.8923 0.0000 0.0000 3.8450
# 3 17.8923 17.8923 99.3392 0.0000 0.0000 0.0000
# 4 0.0000 0.0000 0.0000 33.8785 0.0000 0.0000
# 5 0.0000 0.0000 0.0000 0.0000 33.8785 0.0000
# 6 -3.8450 3.8450 0.0000 0.0000 0.0000 38.8158
#
#
#
# Elastic Compliance Matrix: (Units=1/GPa)
#
#
# Indices 1 2 3 4 5 6 
#
# 1 0.012820 -0.002563 -0.001847 0.000000 0.000000 0.001524
# 2 -0.002563 0.012820 -0.001847 0.000000 0.000000 -0.001524
# 3 -0.001847 -0.001847 0.010732 0.000000 0.000000 0.000000
# 4 0.000000 0.000000 0.000000 0.029517 0.000000 0.000000
# 5 0.000000 0.000000 0.000000 0.000000 0.029517 0.000000
# 6 0.001524 -0.001524 0.000000 0.000000 0.000000 0.026065
#
#
# Mechanical properties :
#
#
# Convention : Reuss Voigt Hill
#
# Bulk Modulus (GPa) = 41.91859 42.08841 42.00350
# Shear Modulus (GPa) = 35.22675 35.59334 35.41004
#
# Velocity S-wave (km/s) = 3.84046 3.86039 3.85044
# Velocity P-wave (km/s) = 6.10053 6.12309 6.11182
#
# Compressibility (1/GPa) = 0.02385576
#
# Stress axis : x y z
#
# Youngs Moduli (GPa) = 78.00563 78.00563 93.17945
#
# Poissons Ratio (x) = 0.19993 0.17213
# Poissons Ratio (y) = 0.19993 0.17213
# Poissons Ratio (z) = 0.14410 0.14410
#
# Static dielectric constant tensor:
#      x y z
#    x 4.370420 0.000000 0.000000 
#    y 0.000000 4.370420 0.000000 
#    z 0.000000 0.000000 4.565670 
# 
# 
# High freq. dielectric constant tensor:
#      x y z
#    x 1.951500 0.000000 0.000000 
#    y 0.000000 1.951500 0.000000 
#    z 0.000000 0.000000 1.966580 
# 
# From -- ./inp_files/726.got.cif
#   From: 2010.03.12/outbox.cif.g09.slc.cpg/sg79_cif.got.tgz:726.got - 2010.04.16 16:38:49.
