data_PCOD8302116
_publ_section_title
;
Structure prediction by ZEFSAII (Michael W. Deem and Ramdas Pophale) SiO2 
 PCOD8302116
Probable space group: I 4
;
_chemical_formula_sum "Si O2"
_cell_formula_units_Z 56
_cell_length_a 14.993934
_cell_length_b 14.993934
_cell_length_c 11.482671
_cell_angle_alpha 90.000000
_cell_angle_beta 90.000000
_cell_angle_gamma 90.000000
_cell_volume 2581.511781
_symmetry_space_group_name_H-M "I 4"
_symmetry_group_IT_number 79
_symmetry_cell_setting 'tetragonal'
loop_
_space_group_symop_operation_xyz
x,y,z
-y,x,z
-x,-y,z
y,-x,z
1/2+x,1/2+y,1/2+z
1/2-y,1/2+x,1/2+z
1/2-x,1/2-y,1/2+z
1/2+y,1/2-x,1/2+z
loop_
_atom_site_type_symbol
_atom_site_label
_atom_site_fract_x
_atom_site_fract_y
_atom_site_fract_z
Si Si1 0.214372 0.446989 0.281580
Si Si2 0.832195 0.582153 0.639652
Si Si3 0.924803 0.673069 0.968700
Si Si4 0.069018 0.296982 0.307797
Si Si5 0.167807 0.188827 0.120721
Si Si6 0.376152 0.427802 0.426322
Si Si7 0.500378 0.829588 0.044994
O O1 0.193073 0.545965 0.335677
O O2 0.128011 0.384983 0.294768
O O3 0.296472 0.394274 0.342311
O O4 0.235224 0.457473 0.143094
O O5 0.801719 0.516206 0.535801
O O6 0.819880 0.528819 0.759441
O O7 0.772534 0.672888 0.646550
O O8 0.934067 0.606839 0.617417
O O9 0.846683 0.737291 0.018906
O O10 0.893912 0.572100 0.985213
O O11 0.115203 0.214171 0.239419
O O12 0.053258 0.274409 0.444591
O O13 0.137970 0.093768 0.064076
O O14 0.467939 0.379293 0.395936
#
# Coordination Sequence:
#
# PCOD8302116 Si02
#       7
#     8   8   8   8   8   8   8
#     4  12  23  41  68 104 147 181 245 303 368 444
#     4  11  22  41  70  95 139 198 240 293 353 444
#     4  11  22  40  69 104 139 186 246 293 358 431
#     4  11  25  42  67 108 146 190 241 301 386 435
#     4  11  21  45  67  98 136 180 253 298 344 437
#     4  11  22  41  71  98 128 179 248 306 343 415
#     4  12  24  42  63 104 150 190 233 307 377 446
#
# _framework density 21.692716000000001
#
# number of rings (size 3 to 8) (size 9 to 14) (size 15 to 20)
#    0.000    0.714    7.143    2.143    0.000    2.286 
#    7.714    0.000    0.000    0.000    0.000    2.000 
#    0.000    0.000    0.000    0.000    0.000    0.000 
#
# Total GULP energy -346970.378480 kJ/mol
# GULP energy per Si atom -12391.799231 kJ/mol
# Density = 2.164334 g / cm^3
# Si number density = 21.692716 Si / 1000 Ang^3
#
#
#
# Elastic Constant Matrix: (Units=GPa)
#
#
# Indices 1 2 3 4 5 6 
#
# 1 78.5550 64.1784 39.3301 0.0000 0.0000 3.7933
# 2 64.1784 78.5550 39.3301 0.0000 0.0000 -3.7933
# 3 39.3301 39.3301 161.0725 0.0000 0.0000 0.0000
# 4 0.0000 0.0000 0.0000 27.1488 0.0000 0.0000
# 5 0.0000 0.0000 0.0000 0.0000 27.1488 0.0000
# 6 3.7933 -3.7933 0.0000 0.0000 0.0000 35.6645
#
#
#
# Elastic Compliance Matrix: (Units=1/GPa)
#
#
# Indices 1 2 3 4 5 6 
#
# 1 0.040895 -0.032799 -0.001977 0.000000 0.000000 -0.007838
# 2 -0.032799 0.040895 -0.001977 0.000000 0.000000 0.007838
# 3 -0.001977 -0.001977 0.007174 0.000000 0.000000 0.000000
# 4 0.000000 0.000000 0.000000 0.036834 0.000000 0.000000
# 5 0.000000 0.000000 0.000000 0.000000 0.036834 0.000000
# 6 -0.007838 0.007838 0.000000 0.000000 0.000000 0.029706
#
#
# Mechanical properties :
#
#
# Convention : Reuss Voigt Hill
#
# Bulk Modulus (GPa) = 64.69257 67.09554 65.89406
# Shear Modulus (GPa) = 18.45054 29.68202 24.06628
#
# Velocity S-wave (km/s) = 2.91957 3.70306 3.33441
# Velocity P-wave (km/s) = 6.42278 7.02002 6.72803
#
# Compressibility (1/GPa) = 0.01545773
#
# Stress axis : x y z
#
# Youngs Moduli (GPa) = 24.45316 24.45316 139.39770
#
# Poissons Ratio (x) = 0.80204 0.27555
# Poissons Ratio (y) = 0.80204 0.27555
# Poissons Ratio (z) = 0.04834 0.04834
#
# Static dielectric constant tensor:
#      x y z
#    x 3.871370 0.000000 0.000000 
#    y 0.000000 3.871370 0.000000 
#    z 0.000000 0.000000 4.263350 
# 
# 
# High freq. dielectric constant tensor:
#      x y z
#    x 1.839880 0.000000 0.000000 
#    y 0.000000 1.839880 0.000000 
#    z 0.000000 0.000000 1.853530 
# 
# From -- ./inp_files/1145.got.cif
#   From: 2010.03.12/outbox.cif.g09.slc.cpg/sg79_cif.got.tgz:1145.got - 2010.04.16 16:38:49.
