data_PCOD8302928
_publ_section_title
;
Structure prediction by ZEFSAII (Michael W. Deem and Ramdas Pophale) SiO2 
 PCOD8302928
Probable space group: P 4/M
;
_chemical_formula_sum "Si O2"
_cell_formula_units_Z 64
_cell_length_a 11.334093
_cell_length_b 11.334093
_cell_length_c 23.876801
_cell_angle_alpha 90.000000
_cell_angle_beta 90.000000
_cell_angle_gamma 90.000000
_cell_volume 3067.253591
_symmetry_space_group_name_H-M "P 4/M"
_symmetry_group_IT_number 83
_symmetry_cell_setting 'tetragonal'
loop_
_space_group_symop_operation_xyz
x,y,z
-y,x,z
-x,-y,z
y,-x,z
-x,-y,-z
y,-x,-z
x,y,-z
-y,x,-z
loop_
_atom_site_type_symbol
_atom_site_label
_atom_site_fract_x
_atom_site_fract_y
_atom_site_fract_z
Si Si1 0.032682 0.308924 0.675845
Si Si2 0.951482 0.811777 0.438285
Si Si3 0.814918 0.050330 0.212080
Si Si4 0.682607 0.558396 0.065367
Si Si5 0.571963 0.115807 0.848787
Si Si6 0.176980 0.535628 0.671450
Si Si7 0.692811 0.484917 0.437927
Si Si8 0.517293 0.687890 0.224325
O O1 0.072577 0.275808 0.612943
O O2 0.059030 0.207160 0.720897
O O3 0.104151 0.424255 0.693297
O O4 0.894347 0.342559 0.679187
O O5 0.935197 0.751375 0.500000
O O6 0.083342 0.858910 0.432744
O O7 0.697379 0.080833 0.177761
O O8 0.917801 0.143065 0.196815
O O9 0.575272 0.645847 0.081536
O O10 0.801076 0.595394 0.097692
O O11 0.710152 0.568193 0.000000
O O12 0.485474 0.185391 0.805690
O O13 0.500000 0.000000 0.867313
O O14 0.202405 0.523944 0.605895
O O15 0.295007 0.537136 0.709047
O O16 0.624629 0.606413 0.428924
O O17 0.748223 0.479944 0.500000
O O18 0.394782 0.625733 0.206308
#
# Coordination Sequence:
#
# PCOD8302928 Si02
#       8
#     8   8   8   8   8   8   8   8
#     4  11  23  38  56  79 114 156 198 255 323 385
#     4   9  19  36  57  79 101 133 189 256 317 379
#     4  11  26  44  63  88 126 178 225 263 317 389
#     4   9  20  42  72 106 143 182 223 270 326 378
#     4  12  25  38  67 100 136 173 219 271 315 371
#     4  11  23  36  53  81 114 147 192 253 317 380
#     4   9  19  36  55  74 101 141 187 237 305 392
#     4  11  24  40  62  91 124 164 209 265 332 382
#
# _framework density 20.865572
#
# number of rings (size 3 to 8) (size 9 to 14) (size 15 to 20)
#    0.000    1.625    1.250    4.125    5.250    7.250 
#    0.000    3.750    0.000    0.000    0.000    0.875 
#    0.000    0.000    0.000    0.000    0.000    0.000 
#
# Total GULP energy -793514.551135 kJ/mol
# GULP energy per Si atom -12398.664861 kJ/mol
# Density = 2.081808 g / cm^3
# Si number density = 20.865572 Si / 1000 Ang^3
#
#
#
# Elastic Constant Matrix: (Units=GPa)
#
#
# Indices 1 2 3 4 5 6 
#
# 1 88.6205 24.8914 34.4570 0.0000 0.0000 2.5672
# 2 24.8914 88.6205 34.4570 0.0000 0.0000 -2.5672
# 3 34.4570 34.4570 94.6575 0.0000 0.0000 0.0000
# 4 0.0000 0.0000 0.0000 34.2621 0.0000 0.0000
# 5 0.0000 0.0000 0.0000 0.0000 34.2621 0.0000
# 6 2.5672 -2.5672 0.0000 0.0000 0.0000 44.4735
#
#
#
# Elastic Compliance Matrix: (Units=1/GPa)
#
#
# Indices 1 2 3 4 5 6 
#
# 1 0.013537 -0.002228 -0.004117 0.000000 0.000000 -0.000910
# 2 -0.002228 0.013537 -0.004117 0.000000 0.000000 0.000910
# 3 -0.004117 -0.004117 0.013561 0.000000 0.000000 0.000000
# 4 0.000000 0.000000 0.000000 0.029187 0.000000 0.000000
# 5 0.000000 0.000000 0.000000 0.000000 0.029187 0.000000
# 6 -0.000910 0.000910 0.000000 0.000000 0.000000 0.022590
#
#
# Mechanical properties :
#
#
# Convention : Reuss Voigt Hill
#
# Bulk Modulus (GPa) = 50.72870 51.05657 50.89263
# Shear Modulus (GPa) = 33.53629 34.47242 34.00436
#
# Velocity S-wave (km/s) = 4.01341 4.06904 4.04132
# Velocity P-wave (km/s) = 6.77064 6.82631 6.79853
#
# Compressibility (1/GPa) = 0.01971271
#
# Stress axis : x y z
#
# Youngs Moduli (GPa) = 73.87263 73.87263 73.73837
#
# Poissons Ratio (x) = 0.16458 0.30355
# Poissons Ratio (y) = 0.16458 0.30355
# Poissons Ratio (z) = 0.30411 0.30411
#
# Static dielectric constant tensor:
#      x y z
#    x 3.688850 0.000000 0.000000 
#    y 0.000000 3.688850 0.000000 
#    z 0.000000 0.000000 3.695090 
# 
# 
# High freq. dielectric constant tensor:
#      x y z
#    x 1.811960 0.000000 0.000000 
#    y 0.000000 1.811960 0.000000 
#    z 0.000000 0.000000 1.811240 
# 
# From -- ./inp_files/3216.got.cif
#   From: 2010.03.12/outbox.cif.g09.slc.cpg/sg83_2_cif.got.tgz:3216.got - 2010.04.08 20:05:18.
