data_PCOD8302589
_publ_section_title
;
Structure prediction by ZEFSAII (Michael W. Deem and Ramdas Pophale) SiO2 
 PCOD8302589
Probable space group: I -4 
;
_chemical_formula_sum "Si O2"
_cell_formula_units_Z 34
_cell_length_a 7.870731
_cell_length_b 7.870731
_cell_length_c 23.498122
_cell_angle_alpha 90.000000
_cell_angle_beta 90.000000
_cell_angle_gamma 90.000000
_cell_volume 1455.671213
_symmetry_space_group_name_H-M "I -4 "
_symmetry_group_IT_number 82
_symmetry_cell_setting 'tetragonal'
loop_
_space_group_symop_operation_xyz
x,y,z
y,-x,-z
-x,-y,z
-y,x,-z
1/2+x,1/2+y,1/2+z
1/2+y,1/2-x,1/2-z
1/2-x,1/2-y,1/2+z
1/2-y,1/2+x,1/2-z
loop_
_atom_site_type_symbol
_atom_site_label
_atom_site_fract_x
_atom_site_fract_y
_atom_site_fract_z
Si Si1 0.277499 0.763838 0.542433
Si Si2 0.000000 0.000000 0.754725
Si Si3 0.000000 0.500000 0.384280
Si Si4 0.000000 0.000000 0.000000
Si Si5 0.730103 0.245167 0.817531
Si Si6 0.432018 0.180199 0.072323
O O1 0.342744 0.566881 0.538780
O O2 0.238414 0.818575 0.477373
O O3 0.105820 0.789952 0.578476
O O4 0.426658 0.859158 0.574230
O O5 0.111630 0.141120 0.721539
O O6 0.865798 0.116460 0.789385
O O7 0.925506 0.358230 0.343230
O O8 0.831343 0.339175 0.867638
O O9 0.500000 0.000000 0.051141
#
# Coordination Sequence:
#
# PCOD8302589 Si02
#       6
#     8   4   4   2   8   8
#     4  12  24  44  69 110 157 194 236 298 369 475
#     4  12  30  55  78 108 148 200 270 343 386 452
#     4  12  26  47  74 110 148 201 238 306 388 474
#     4  12  20  38  64  96 152 204 236 278 344 440
#     4  12  29  50  80 107 147 201 261 326 394 457
#     4  12  26  42  73 110 149 194 242 301 377 460
#
# _framework density 23.356925
#
# number of rings (size 3 to 8) (size 9 to 14) (size 15 to 20)
#    0.000    0.000    3.529    5.647    6.588    3.294 
#    0.000    0.000    0.000    0.000    0.000    0.000 
#    0.000    0.000    0.000    0.000    0.000    0.000 
#
# Total GULP energy -210725.442218 kJ/mol
# GULP energy per Si atom -12395.614248 kJ/mol
# Density = 2.330376 g / cm^3
# Si number density = 23.356925 Si / 1000 Ang^3
#
#
#
# Elastic Constant Matrix: (Units=GPa)
#
#
# Indices 1 2 3 4 5 6 
#
# 1 109.1425 30.6842 39.6706 0.0000 0.0000 3.6503
# 2 30.6842 109.1425 39.6706 0.0000 0.0000 -3.6503
# 3 39.6706 39.6706 112.5657 0.0000 0.0000 0.0000
# 4 0.0000 0.0000 0.0000 42.3798 0.0000 0.0000
# 5 0.0000 0.0000 0.0000 0.0000 42.3798 0.0000
# 6 3.6503 -3.6503 0.0000 0.0000 0.0000 51.5983
#
#
#
# Elastic Compliance Matrix: (Units=1/GPa)
#
#
# Indices 1 2 3 4 5 6 
#
# 1 0.010885 -0.001945 -0.003150 0.000000 0.000000 -0.000908
# 2 -0.001945 0.010885 -0.003150 0.000000 0.000000 0.000908
# 3 -0.003150 -0.003150 0.011104 0.000000 0.000000 0.000000
# 4 0.000000 0.000000 0.000000 0.023596 0.000000 0.000000
# 5 0.000000 0.000000 0.000000 0.000000 0.023596 0.000000
# 6 -0.000908 0.000908 0.000000 0.000000 0.000000 0.019509
#
#
# Mechanical properties :
#
#
# Convention : Reuss Voigt Hill
#
# Bulk Modulus (GPa) = 61.04536 61.21127 61.12831
# Shear Modulus (GPa) = 41.14290 41.99329 41.56810
#
# Velocity S-wave (km/s) = 4.20156 4.24476 4.22321
# Velocity P-wave (km/s) = 7.05196 7.09139 7.07170
#
# Compressibility (1/GPa) = 0.01638126
#
# Stress axis : x y z
#
# Youngs Moduli (GPa) = 91.87200 91.87200 90.05563
#
# Poissons Ratio (x) = 0.17873 0.28371
# Poissons Ratio (y) = 0.17873 0.28371
# Poissons Ratio (z) = 0.28943 0.28943
#
# Static dielectric constant tensor:
#      x y z
#    x 4.674860 0.000000 0.000000 
#    y 0.000000 4.674860 0.000000 
#    z 0.000000 0.000000 4.145460 
# 
# 
# High freq. dielectric constant tensor:
#      x y z
#    x 1.947460 0.000000 0.000000 
#    y 0.000000 1.947460 0.000000 
#    z 0.000000 0.000000 1.912280 
# 
# From -- ./inp_files/2982.got.cif
#   From: 2010.03.12/outbox.cif.g09.slc.cpg/sg82_2_cif.got.tgz:2982.got - 2010.04.08 20:02:50.
