data_PCOD8302197
_publ_section_title
;
Structure prediction by ZEFSAII (Michael W. Deem and Ramdas Pophale) SiO2 
 PCOD8302197
Probable space group: I 41
;
_chemical_formula_sum "Si O2"
_cell_formula_units_Z 56
_cell_length_a 13.971573
_cell_length_b 13.971573
_cell_length_c 13.795338
_cell_angle_alpha 90.000000
_cell_angle_beta 90.000000
_cell_angle_gamma 90.000000
_cell_volume 2692.916914
_symmetry_space_group_name_H-M "I 41"
_symmetry_group_IT_number 80
_symmetry_cell_setting 'tetragonal'
loop_
_space_group_symop_operation_xyz
x,y,z
-y,1/2+x,1/4+z
-x,-y,z
y,1/2-x,1/4+z
1/2+x,1/2+y,1/2+z
1/2-y,x,3/4+z
1/2-x,1/2-y,1/2+z
1/2+y,-x,3/4+z
loop_
_atom_site_type_symbol
_atom_site_label
_atom_site_fract_x
_atom_site_fract_y
_atom_site_fract_z
Si Si1 0.500000 0.500000 0.226151
Si Si2 0.500000 0.000000 0.976151
Si Si3 0.676635 0.548627 0.862497
Si Si4 0.846121 0.180693 0.898032
Si Si5 0.846121 0.680693 0.804269
Si Si6 0.099289 0.320271 0.016265
Si Si7 0.099289 0.820271 0.686036
Si Si8 0.548627 0.323365 0.589804
O O1 0.583288 0.542431 0.297411
O O2 0.542431 0.416712 0.154890
O O3 0.469273 0.087733 0.043199
O O4 0.587733 0.030727 0.909102
O O5 0.749215 0.620171 0.809573
O O6 0.641192 0.594547 0.963164
O O7 0.728527 0.448563 0.886749
O O8 0.912015 0.175806 0.802843
O O9 0.749215 0.120171 0.892728
O O10 0.816795 0.290657 0.909653
O O11 0.905453 0.141192 0.989137
O O12 0.816795 0.790657 0.792649
O O13 0.912015 0.675806 0.899458
O O14 0.051437 0.228528 0.065552
#
# Coordination Sequence:
#
# PCOD8302197 Si02
#       8
#     4   4   8   8   8   8   8   8
#     4  12  20  38  68 108 128 158 236 288 354 388
#     4  12  32  46  64 108 138 212 216 256 366 448
#     4  11  26  45  67  99 143 176 238 277 345 428
#     4  10  23  44  69  99 132 180 225 300 346 384
#     4  10  23  44  69  99 132 180 225 300 346 384
#     4  11  23  40  71 104 133 173 233 296 347 400
#     4  11  23  40  71 104 133 173 233 296 347 400
#     4  11  26  45  67  99 143 176 238 277 345 428
#
# _framework density 20.795294999999999
#
# number of rings (size 3 to 8) (size 9 to 14) (size 15 to 20)
#    0.000    1.143    5.714    0.857    8.000    4.571 
#    0.000    0.000    0.000    0.000    0.000    0.000 
#    0.000    0.000    0.000    0.000    0.000    0.000 
#
# Total GULP energy -347185.071387 kJ/mol
# GULP energy per Si atom -12399.466835 kJ/mol
# Density = 2.074796 g / cm^3
# Si number density = 20.795295 Si / 1000 Ang^3
#
#
#
# Elastic Constant Matrix: (Units=GPa)
#
#
# Indices 1 2 3 4 5 6 
#
# 1 118.3516 56.4154 60.6529 0.0000 0.0000 -4.2151
# 2 56.4154 118.3516 60.6529 0.0000 0.0000 4.2151
# 3 60.6529 60.6529 123.3553 0.0000 0.0000 0.0000
# 4 0.0000 0.0000 0.0000 25.7690 0.0000 0.0000
# 5 0.0000 0.0000 0.0000 0.0000 25.7690 0.0000
# 6 -4.2151 4.2151 0.0000 0.0000 0.0000 32.3831
#
#
#
# Elastic Compliance Matrix: (Units=1/GPa)
#
#
# Indices 1 2 3 4 5 6 
#
# 1 0.012562 -0.003875 -0.004271 0.000000 0.000000 0.002140
# 2 -0.003875 0.012562 -0.004271 0.000000 0.000000 -0.002140
# 3 -0.004271 -0.004271 0.012307 0.000000 0.000000 0.000000
# 4 0.000000 0.000000 0.000000 0.038806 0.000000 0.000000
# 5 0.000000 0.000000 0.000000 0.000000 0.038806 0.000000
# 6 0.002140 -0.002140 0.000000 0.000000 0.000000 0.031437
#
#
# Mechanical properties :
#
#
# Convention : Reuss Voigt Hill
#
# Bulk Modulus (GPa) = 79.39400 79.50010 79.44705
# Shear Modulus (GPa) = 28.48788 28.94003 28.71396
#
# Velocity S-wave (km/s) = 3.70526 3.73455 3.71993
# Velocity P-wave (km/s) = 7.52110 7.54378 7.53245
#
# Compressibility (1/GPa) = 0.01259541
#
# Stress axis : x y z
#
# Youngs Moduli (GPa) = 79.60738 79.60738 81.25612
#
# Poissons Ratio (x) = 0.30850 0.34705
# Poissons Ratio (y) = 0.30850 0.34705
# Poissons Ratio (z) = 0.34001 0.34001
#
# Static dielectric constant tensor:
#      x y z
#    x 3.831110 0.000000 0.000000 
#    y 0.000000 3.831110 0.000000 
#    z 0.000000 0.000000 3.975280 
# 
# 
# High freq. dielectric constant tensor:
#      x y z
#    x 1.825040 0.000000 0.000000 
#    y 0.000000 1.825040 0.000000 
#    z 0.000000 0.000000 1.803030 
# 
# From -- ./inp_files/1352.got.cif
#   From: 2010.03.12/outbox.cif.g09.slc.cpg/sg80_cif.got.tgz:1352.got - 2010.04.08 20:00:04.
