data_PCOD8302870
_publ_section_title
;
Structure prediction by ZEFSAII (Michael W. Deem and Ramdas Pophale) SiO2 
 PCOD8302870
Probable space group: P 4/M
;
_chemical_formula_sum "Si O2"
_cell_formula_units_Z 48
_cell_length_a 8.326015
_cell_length_b 8.326015
_cell_length_c 32.421150
_cell_angle_alpha 90.000000
_cell_angle_beta 90.000000
_cell_angle_gamma 90.000000
_cell_volume 2247.516007
_symmetry_space_group_name_H-M "P 4/M"
_symmetry_group_IT_number 83
_symmetry_cell_setting 'tetragonal'
loop_
_space_group_symop_operation_xyz
x,y,z
-y,x,z
-x,-y,z
y,-x,z
-x,-y,-z
y,-x,-z
x,y,-z
-y,x,-z
loop_
_atom_site_type_symbol
_atom_site_label
_atom_site_fract_x
_atom_site_fract_y
_atom_site_fract_z
Si Si1 0.923068 0.749025 0.200391
Si Si2 0.258748 0.059192 0.500000
Si Si3 0.757392 0.567064 0.636789
Si Si4 0.426213 0.755501 0.867788
Si Si5 0.422303 0.753765 0.043438
Si Si6 0.917594 0.748886 0.293664
Si Si7 0.500000 0.000000 0.431274
O O1 0.882518 0.607657 0.168369
O O2 0.899153 0.685333 0.246930
O O3 0.103789 0.803184 0.192690
O O4 0.366098 0.085824 0.459411
O O5 0.121002 0.191125 0.500000
O O6 0.613827 0.694199 0.637152
O O7 0.867792 0.602408 0.676682
O O8 0.866072 0.589266 0.596279
O O9 0.304766 0.606922 0.863461
O O10 0.396305 0.844099 0.912648
O O11 0.304434 0.603967 0.043163
O O12 0.391551 0.852769 0.000000
O O13 0.099967 0.801358 0.302087
#
# Coordination Sequence:
#
# PCOD8302870 Si02
#       7
#     8   4   8   8   8   8   4
#     4   9  19  35  52  70  96 134 176 212 252 309
#     4  10  22  40  64  92 118 152 200 241 270 312
#     4  11  23  37  56  85 118 150 185 227 277 329
#     4   9  17  28  45  72 100 124 159 210 263 314
#     4   7  10  19  37  61  89 120 154 197 252 310
#     4   9  19  37  58  77 101 139 185 228 271 323
#     4  11  22  40  62  86 122 158 188 230 283 328
#
# _framework density 21.356909999999999
#
# number of rings (size 3 to 8) (size 9 to 14) (size 15 to 20)
#    0.000    2.750    0.000    4.500    0.000    2.000 
#    0.000    6.667    0.000    5.000    0.000    5.833 
#    0.000    0.000    0.000    0.000    0.000    0.000 
#
# Total GULP energy -594792.049430 kJ/mol
# GULP energy per Si atom -12391.501030 kJ/mol
# Density = 2.130830 g / cm^3
# Si number density = 21.356910 Si / 1000 Ang^3
#
#
#
# Elastic Constant Matrix: (Units=GPa)
#
#
# Indices 1 2 3 4 5 6 
#
# 1 53.1065 16.6211 43.1692 0.0000 0.0000 -5.9407
# 2 16.6211 53.1065 43.1692 0.0000 0.0000 5.9407
# 3 43.1692 43.1692 182.0738 0.0000 0.0000 0.0000
# 4 0.0000 0.0000 0.0000 -113.7833 0.0000 0.0000
# 5 0.0000 0.0000 0.0000 0.0000 -113.7833 0.0000
# 6 -5.9407 5.9407 0.0000 0.0000 0.0000 32.9795
#
#
#
# Elastic Compliance Matrix: (Units=1/GPa)
#
#
# Indices 1 2 3 4 5 6 
#
# 1 0.024709 -0.004407 -0.004813 0.000000 0.000000 0.005245
# 2 -0.004407 0.024709 -0.004813 0.000000 0.000000 -0.005245
# 3 -0.004813 -0.004813 0.007775 0.000000 0.000000 0.000000
# 4 0.000000 0.000000 0.000000 -0.008789 0.000000 0.000000
# 5 0.000000 0.000000 0.000000 0.000000 -0.008789 0.000000
# 6 0.005245 -0.005245 0.000000 0.000000 0.000000 0.032211
#
#
# Mechanical properties :
#
#
# Convention : Reuss Voigt Hill
#
# Bulk Modulus (GPa) = 34.33566 54.91175 44.62371
# Shear Modulus (GPa) = 45.61909 -26.56228 9.52841
#
# Velocity S-wave (km/s) = 4.62674 -3.53049 2.11452
# Velocity P-wave (km/s) = 6.68238 3.02460 5.18664
#
# Compressibility (1/GPa) = 0.02912424
#
# Stress axis : x y z
#
# Youngs Moduli (GPa) = 40.47123 40.47123 128.62076
#
# Poissons Ratio (x) = 0.17837 0.61911
# Poissons Ratio (y) = 0.17837 0.61911
# Poissons Ratio (z) = 0.19481 0.19481
#
# Static dielectric constant tensor:
#      x y z
#    x 3.531710 0.000000 0.000000 
#    y 0.000000 3.531710 0.000000 
#    z 0.000000 0.000000 4.243850 
# 
# 
# High freq. dielectric constant tensor:
#      x y z
#    x 1.817600 0.000000 0.000000 
#    y 0.000000 1.817600 0.000000 
#    z 0.000000 0.000000 1.858020 
# 
# From -- ./inp_files/3478.got.cif
#   From: 2010.03.12/outbox.cif.g09.slc.cpg/sg83_2_cif.got.tgz:3478.got - 2010.04.08 20:05:18.
