data_PCOD8302017
_publ_section_title
;
Structure prediction by ZEFSAII (Michael W. Deem and Ramdas Pophale) SiO2 
 PCOD8302017
Probable space group: P 43
;
_chemical_formula_sum "Si O2"
_cell_formula_units_Z 32
_cell_length_a 10.986140
_cell_length_b 10.986140
_cell_length_c 13.835849
_cell_angle_alpha 90.000000
_cell_angle_beta 90.000000
_cell_angle_gamma 90.000000
_cell_volume 1669.921560
_symmetry_space_group_name_H-M "P 43"
_symmetry_group_IT_number 78
_symmetry_cell_setting 'tetragonal'
loop_
_space_group_symop_operation_xyz
x,y,z
-y,x,3/4+z
-x,-y,1/2+z
y,-x,1/4+z
loop_
_atom_site_type_symbol
_atom_site_label
_atom_site_fract_x
_atom_site_fract_y
_atom_site_fract_z
Si Si1 0.744620 0.592834 0.397830
Si Si2 0.279986 0.067696 0.769136
Si Si3 0.768486 0.474344 0.597500
Si Si4 0.358433 0.878461 0.498531
Si Si5 0.801777 0.078703 0.634645
Si Si6 0.362119 0.139523 0.569484
Si Si7 0.056591 0.150557 0.101433
Si Si8 0.164676 0.205370 0.425391
O O1 0.732947 0.570706 0.513485
O O2 0.623279 0.660299 0.361203
O O3 0.865070 0.668733 0.366834
O O4 0.762540 0.466778 0.341530
O O5 0.409432 0.105663 0.814877
O O6 0.175814 0.101934 0.844805
O O7 0.271806 0.130475 0.662452
O O8 0.270644 0.923774 0.752378
O O9 0.794611 0.537533 0.700695
O O10 0.258979 0.899167 0.417120
O O11 0.293389 0.806838 0.585510
O O12 0.412232 0.004977 0.541375
O O13 0.801225 0.041162 0.745296
O O14 0.839230 0.951868 0.586145
O O15 0.292692 0.188922 0.476692
O O16 0.924145 0.104838 0.140661
#
# Coordination Sequence:
#
# PCOD8302017 Si02
#       8
#     4   4   4   4   4   4   4   4
#     4  10  22  42  60  81 116 159 210 254 292 349
#     4   9  21  35  59  90 121 156 192 243 297 367
#     4  10  21  43  61  82 118 157 204 260 294 344
#     4  10  20  38  61  88 127 154 188 249 313 353
#     4  11  21  32  59  92 122 157 195 239 302 365
#     4   9  21  40  60  84 126 159 198 244 306 356
#     4  11  20  32  57  93 129 155 186 237 306 377
#     4  10  20  38  59  92 127 159 189 246 300 373
#
# _framework density 19.162576000000001
#
# number of rings (size 3 to 8) (size 9 to 14) (size 15 to 20)
#    0.000    2.000    2.500    0.750    5.250    2.000 
#    6.750    0.000    2.750    0.000    0.000    0.000 
#    0.000    0.000    0.000    0.000    0.000    0.000 
#
# Total GULP energy -396504.524757 kJ/mol
# GULP energy per Si atom -12390.766399 kJ/mol
# Density = 1.911896 g / cm^3
# Si number density = 19.162576 Si / 1000 Ang^3
#
#
#
# Elastic Constant Matrix: (Units=GPa)
#
#
# Indices 1 2 3 4 5 6 
#
# 1 74.0230 44.1767 29.4438 0.0000 0.0000 3.9006
# 2 44.1767 74.0230 29.4438 0.0000 0.0000 -3.9006
# 3 29.4438 29.4438 85.4313 0.0000 0.0000 0.0000
# 4 0.0000 0.0000 0.0000 41.5752 0.0000 0.0000
# 5 0.0000 0.0000 0.0000 0.0000 41.5752 0.0000
# 6 3.9006 -3.9006 0.0000 0.0000 0.0000 30.7362
#
#
#
# Elastic Compliance Matrix: (Units=1/GPa)
#
#
# Indices 1 2 3 4 5 6 
#
# 1 0.022434 -0.012220 -0.003520 0.000000 0.000000 -0.004398
# 2 -0.012220 0.022434 -0.003520 0.000000 0.000000 0.004398
# 3 -0.003520 -0.003520 0.014132 0.000000 0.000000 0.000000
# 4 0.000000 0.000000 0.000000 0.024053 0.000000 0.000000
# 5 0.000000 0.000000 0.000000 0.000000 0.024053 0.000000
# 6 -0.004398 0.004398 0.000000 0.000000 0.000000 0.033651
#
#
# Mechanical properties :
#
#
# Convention : Reuss Voigt Hill
#
# Bulk Modulus (GPa) = 48.83074 48.84508 48.83791
# Shear Modulus (GPa) = 26.86654 31.47153 29.16903
#
# Velocity S-wave (km/s) = 3.74843 4.05698 3.90575
# Velocity P-wave (km/s) = 6.65372 6.89134 6.77357
#
# Compressibility (1/GPa) = 0.02047890
#
# Stress axis : x y z
#
# Youngs Moduli (GPa) = 44.57456 44.57456 70.76231
#
# Poissons Ratio (x) = 0.54471 0.24910
# Poissons Ratio (y) = 0.54471 0.24910
# Poissons Ratio (z) = 0.15691 0.15691
#
# Static dielectric constant tensor:
#      x y z
#    x 3.319630 0.000000 0.000000 
#    y 0.000000 3.319630 0.000000 
#    z 0.000000 0.000000 3.907420 
# 
# 
# High freq. dielectric constant tensor:
#      x y z
#    x 1.727840 0.000000 0.000000 
#    y 0.000000 1.727840 0.000000 
#    z 0.000000 0.000000 1.761280 
# 
# From -- ./inp_files/953.got.cif
#   From: 2010.03.12/outbox.cif.g09.slc.cpg/sg78_cif.got.tgz:953.got - 2010.04.16 16:37:20.
