data_PCOD8302759
_publ_section_title
;
Structure prediction by ZEFSAII (Michael W. Deem and Ramdas Pophale) SiO2 
 PCOD8302759
Probable space group: P 4/M
;
_chemical_formula_sum "Si O2"
_cell_formula_units_Z 24
_cell_length_a 10.394958
_cell_length_b 10.394958
_cell_length_c 11.926821
_cell_angle_alpha 90.000000
_cell_angle_beta 90.000000
_cell_angle_gamma 90.000000
_cell_volume 1288.754454
_symmetry_space_group_name_H-M "P 4/M"
_symmetry_group_IT_number 83
_symmetry_cell_setting 'tetragonal'
loop_
_space_group_symop_operation_xyz
x,y,z
-y,x,z
-x,-y,z
y,-x,z
-x,-y,-z
y,-x,-z
x,y,-z
-y,x,-z
loop_
_atom_site_type_symbol
_atom_site_label
_atom_site_fract_x
_atom_site_fract_y
_atom_site_fract_z
Si Si1 0.493553 0.288541 0.000000
Si Si2 0.587593 0.115717 0.184718
Si Si3 0.207748 0.951242 0.000000
Si Si4 0.691577 0.587990 0.372263
O O1 0.625058 0.368501 0.000000
O O2 0.491489 0.202166 0.110403
O O3 0.707722 0.067497 0.111513
O O4 0.639235 0.196181 0.291070
O O5 0.500000 0.000000 0.230283
O O6 0.095042 0.846449 0.000000
O O7 0.562345 0.667220 0.348129
O O8 0.736134 0.608940 0.500000
#
# Coordination Sequence:
#
# PCOD8302759 Si02
#       4
#     4   8   4   8
#     4  10  20  33  53  79 110 142 177 230 290 333
#     4  11  23  32  57  83 111 142 185 227 273 322
#     4  10  24  41  55  73 110 156 191 220 264 321
#     4   9  19  37  60  85 113 143 176 226 289 338
#
# _framework density 18.622631999999999
#
# number of rings (size 3 to 8) (size 9 to 14) (size 15 to 20)
#    0.000    2.000    0.000    5.000   14.000    3.333 
#    0.000    0.000    0.000    0.000    0.000    2.333 
#    0.000    0.000    0.000    0.000    0.000    0.000 
#
# Total GULP energy -297642.331215 kJ/mol
# GULP energy per Si atom -12401.763801 kJ/mol
# Density = 1.858025 g / cm^3
# Si number density = 18.622632 Si / 1000 Ang^3
#
#
#
# Elastic Constant Matrix: (Units=GPa)
#
#
# Indices 1 2 3 4 5 6 
#
# 1 81.6574 22.4889 33.6411 0.0000 0.0000 -3.8914
# 2 22.4889 81.6574 33.6411 0.0000 0.0000 3.8914
# 3 33.6411 33.6411 102.6252 0.0000 0.0000 0.0000
# 4 0.0000 0.0000 0.0000 -345.5194 0.0000 0.0000
# 5 0.0000 0.0000 0.0000 0.0000 -345.5194 0.0000
# 6 -3.8914 3.8914 0.0000 0.0000 0.0000 21.0091
#
#
#
# Elastic Compliance Matrix: (Units=1/GPa)
#
#
# Indices 1 2 3 4 5 6 
#
# 1 0.014752 -0.002571 -0.003993 0.000000 0.000000 0.003209
# 2 -0.002571 0.014752 -0.003993 0.000000 0.000000 -0.003209
# 3 -0.003993 -0.003993 0.012362 0.000000 0.000000 0.000000
# 4 0.000000 0.000000 0.000000 -0.002894 0.000000 0.000000
# 5 0.000000 0.000000 0.000000 0.000000 -0.002894 0.000000
# 6 0.003209 -0.003209 0.000000 0.000000 0.000000 0.048787
#
#
# Mechanical properties :
#
#
# Convention : Reuss Voigt Hill
#
# Bulk Modulus (GPa) = 48.18668 49.49803 48.84236
# Shear Modulus (GPa) = 44.28812 -122.26136 -38.98662
#
# Velocity S-wave (km/s) = 4.88196 -8.11138 -4.58045
# Velocity P-wave (km/s) = 7.59668 7.81594 1.29987
#
# Compressibility (1/GPa) = 0.02075262
#
# Stress axis : x y z
#
# Youngs Moduli (GPa) = 67.78608 67.78608 80.89185
#
# Poissons Ratio (x) = 0.17425 0.32302
# Poissons Ratio (y) = 0.17425 0.32302
# Poissons Ratio (z) = 0.27068 0.27068
#
# Static dielectric constant tensor:
#      x y z
#    x 3.364920 0.000000 0.000000 
#    y 0.000000 3.364920 0.000000 
#    z 0.000000 0.000000 3.438660 
# 
# 
# High freq. dielectric constant tensor:
#      x y z
#    x 1.716660 0.000000 0.000000 
#    y 0.000000 1.716660 0.000000 
#    z 0.000000 0.000000 1.719640 
# 
# From -- ./inp_files/1448.got.cif
#   From: 2010.03.12/outbox.cif.g09.slc.cpg/sg83_1_cif.got.tgz:1448.got - 2010.04.08 20:05:18.
