data_PCOD8302625
_publ_section_title
;
Structure prediction by ZEFSAII (Michael W. Deem and Ramdas Pophale) SiO2 
 PCOD8302625
Probable space group: P 4/M
;
_chemical_formula_sum "Si O2"
_cell_formula_units_Z 44
_cell_length_a 14.835898
_cell_length_b 14.835898
_cell_length_c 12.602324
_cell_angle_alpha 90.000000
_cell_angle_beta 90.000000
_cell_angle_gamma 90.000000
_cell_volume 2773.820277
_symmetry_space_group_name_H-M "P 4/M"
_symmetry_group_IT_number 83
_symmetry_cell_setting 'tetragonal'
loop_
_space_group_symop_operation_xyz
x,y,z
-y,x,z
-x,-y,z
y,-x,z
-x,-y,-z
y,-x,-z
x,y,-z
-y,x,-z
loop_
_atom_site_type_symbol
_atom_site_label
_atom_site_fract_x
_atom_site_fract_y
_atom_site_fract_z
Si Si1 0.132614 0.767494 0.626329
Si Si2 0.904852 0.544005 0.375008
Si Si3 0.762684 0.405296 0.306922
Si Si4 0.634526 0.440905 0.877921
Si Si5 0.254516 0.930796 0.625521
Si Si6 0.433835 0.366406 0.500000
O O1 0.139784 0.753420 0.500000
O O2 0.176252 0.682741 0.684003
O O3 0.182301 0.857930 0.665531
O O4 0.029458 0.775226 0.665178
O O5 0.886073 0.536400 0.500000
O O6 0.824778 0.493355 0.315340
O O7 0.904794 0.646346 0.332677
O O8 0.000000 0.500000 0.345901
O O9 0.716379 0.404693 0.192348
O O10 0.686241 0.403366 0.396047
O O11 0.616272 0.545340 0.851714
O O12 0.662158 0.428573 0.000000
O O13 0.258365 0.931898 0.500000
O O14 0.540401 0.380236 0.500000
#
# Coordination Sequence:
#
# PCOD8302625 Si02
#       6
#     8   8   8   8   8   4
#     4  10  19  32  45  72  99 134 176 208 252 297
#     4  10  18  30  45  69 103 138 163 192 246 309
#     4  12  20  30  52  73  99 132 168 205 246 302
#     4   9  20  38  54  69  95 134 175 207 241 292
#     4   9  19  30  46  64 100 138 173 210 240 297
#     4  11  24  32  39  70 110 131 154 195 251 296
#
# _framework density 15.8626
#
# number of rings (size 3 to 8) (size 9 to 14) (size 15 to 20)
#    0.000    1.909    3.636    1.636    5.091    1.818 
#    0.000    1.818    0.000    0.545    0.000    1.273 
#    0.000    0.000    0.000    1.636    0.000    0.182 
#
# Total GULP energy -545686.387438 kJ/mol
# GULP energy per Si atom -12401.963351 kJ/mol
# Density = 1.582650 g / cm^3
# Si number density = 15.862600 Si / 1000 Ang^3
#
#
#
# Elastic Constant Matrix: (Units=GPa)
#
#
# Indices 1 2 3 4 5 6 
#
# 1 114.4204 63.6999 26.4902 0.0000 0.0000 -2.9926
# 2 63.6999 114.4204 26.4902 0.0000 0.0000 2.9926
# 3 26.4902 26.4902 48.0607 0.0000 0.0000 0.0000
# 4 0.0000 0.0000 0.0000 14.6398 0.0000 0.0000
# 5 0.0000 0.0000 0.0000 0.0000 14.6398 0.0000
# 6 -2.9926 2.9926 0.0000 0.0000 0.0000 30.3568
#
#
#
# Elastic Compliance Matrix: (Units=1/GPa)
#
#
# Indices 1 2 3 4 5 6 
#
# 1 0.013332 -0.006616 -0.003701 0.000000 0.000000 0.001967
# 2 -0.006616 0.013332 -0.003701 0.000000 0.000000 -0.001967
# 3 -0.003701 -0.003701 0.024887 0.000000 0.000000 0.000000
# 4 0.000000 0.000000 0.000000 0.068307 0.000000 0.000000
# 5 0.000000 0.000000 0.000000 0.000000 0.068307 0.000000
# 6 0.001967 -0.001967 0.000000 0.000000 0.000000 0.033329
#
#
# Mechanical properties :
#
#
# Convention : Reuss Voigt Hill
#
# Bulk Modulus (GPa) = 42.53081 56.69580 49.61331
# Shear Modulus (GPa) = 19.42736 22.60868 21.01802
#
# Velocity S-wave (km/s) = 3.50341 3.77939 3.64401
# Velocity P-wave (km/s) = 6.57536 7.40705 7.00356
#
# Compressibility (1/GPa) = 0.02351236
#
# Stress axis : x y z
#
# Youngs Moduli (GPa) = 75.01029 75.01029 40.18134
#
# Poissons Ratio (x) = 0.49630 0.14872
# Poissons Ratio (y) = 0.49630 0.14872
# Poissons Ratio (z) = 0.27763 0.27763
#
# Static dielectric constant tensor:
#      x y z
#    x 3.188860 0.000000 0.000000 
#    y 0.000000 3.188860 0.000000 
#    z 0.000000 0.000000 2.562850 
# 
# 
# High freq. dielectric constant tensor:
#      x y z
#    x 1.620240 0.000000 0.000000 
#    y 0.000000 1.620240 0.000000 
#    z 0.000000 0.000000 1.547660 
# 
# From -- ./inp_files/1699.got.cif
#   From: 2010.03.12/outbox.cif.g09.slc.cpg/sg83_1_cif.got.tgz:1699.got - 2010.04.08 20:05:18.
