data_PCOD8302040
_publ_section_title
;
Structure prediction by ZEFSAII (Michael W. Deem and Ramdas Pophale) SiO2 
 PCOD8302040
Probable space group: P 43
;
_chemical_formula_sum "Si O2"
_cell_formula_units_Z 28
_cell_length_a 14.451174
_cell_length_b 14.451174
_cell_length_c 5.822646
_cell_angle_alpha 90.000000
_cell_angle_beta 90.000000
_cell_angle_gamma 90.000000
_cell_volume 1215.980604
_symmetry_space_group_name_H-M "P 43"
_symmetry_group_IT_number 78
_symmetry_cell_setting 'tetragonal'
loop_
_space_group_symop_operation_xyz
x,y,z
-y,x,3/4+z
-x,-y,1/2+z
y,-x,1/4+z
loop_
_atom_site_type_symbol
_atom_site_label
_atom_site_fract_x
_atom_site_fract_y
_atom_site_fract_z
Si Si1 0.770520 0.163114 0.112610
Si Si2 0.221382 0.414697 0.139526
Si Si3 0.136222 0.006655 0.747197
Si Si4 0.527504 0.955211 0.494598
Si Si5 0.120077 0.722257 0.291185
Si Si6 0.391703 0.418383 0.457275
Si Si7 0.703074 0.274752 0.506771
O O1 0.798524 0.055316 0.081926
O O2 0.744260 0.186354 0.374000
O O3 0.681899 0.175309 0.956866
O O4 0.852147 0.234972 0.038541
O O5 0.148330 0.493783 0.194345
O O6 0.318235 0.440065 0.257683
O O7 0.243339 0.394624 0.872556
O O8 0.071188 0.075674 0.616764
O O9 0.195403 0.067665 0.917102
O O10 0.636021 0.949443 0.554521
O O11 0.485353 0.992316 0.742822
O O12 0.216259 0.689289 0.173135
O O13 0.492503 0.396186 0.366461
O O14 0.358972 0.325868 0.590299
#
# Coordination Sequence:
#
# PCOD8302040 Si02
#       7
#     4   4   4   4   4   4   4
#     4  10  23  46  70 103 140 196 243 320 386 461
#     4  10  26  46  75 103 150 195 259 311 390 464
#     4  12  24  42  70 105 144 187 250 314 388 464
#     4  12  31  48  78 114 151 205 262 325 382 469
#     4  11  26  44  75 103 149 197 250 315 395 459
#     4  11  28  43  73 111 153 194 252 320 388 471
#     4  10  24  47  71 103 143 198 246 315 391 462
#
# _framework density 23.026682000000001
#
# number of rings (size 3 to 8) (size 9 to 14) (size 15 to 20)
#    0.000    1.143    1.429    1.714   18.000    1.143 
#    0.000    0.000    0.000    0.000    0.000    0.000 
#    0.000    0.000    0.000    0.000    0.000    0.000 
#
# Total GULP energy -346921.460139 kJ/mol
# GULP energy per Si atom -12390.052148 kJ/mol
# Density = 2.297427 g / cm^3
# Si number density = 23.026682 Si / 1000 Ang^3
#
#
#
# Elastic Constant Matrix: (Units=GPa)
#
#
# Indices 1 2 3 4 5 6 
#
# 1 78.1394 1.2436 7.4628 0.0000 0.0000 2.9987
# 2 1.2436 78.1394 7.4628 0.0000 0.0000 -2.9987
# 3 7.4628 7.4628 88.5233 0.0000 0.0000 0.0000
# 4 0.0000 0.0000 0.0000 37.5867 0.0000 0.0000
# 5 0.0000 0.0000 0.0000 0.0000 37.5867 0.0000
# 6 2.9987 -2.9987 0.0000 0.0000 0.0000 47.3133
#
#
#
# Elastic Compliance Matrix: (Units=1/GPa)
#
#
# Indices 1 2 3 4 5 6 
#
# 1 0.012935 -0.000135 -0.001079 0.000000 0.000000 -0.000828
# 2 -0.000135 0.012935 -0.001079 0.000000 0.000000 0.000828
# 3 -0.001079 -0.001079 0.011478 0.000000 0.000000 0.000000
# 4 0.000000 0.000000 0.000000 0.026605 0.000000 0.000000
# 5 0.000000 0.000000 0.000000 0.000000 0.026605 0.000000
# 6 -0.000828 0.000828 0.000000 0.000000 0.000000 0.021241
#
#
# Mechanical properties :
#
#
# Convention : Reuss Voigt Hill
#
# Bulk Modulus (GPa) = 30.52300 30.79336 30.65818
# Shear Modulus (GPa) = 39.27577 39.73952 39.50764
#
# Velocity S-wave (km/s) = 4.13445 4.15879 4.14663
# Velocity P-wave (km/s) = 6.00632 6.03843 6.02239
#
# Compressibility (1/GPa) = 0.03276218
#
# Stress axis : x y z
#
# Youngs Moduli (GPa) = 77.31185 77.31185 87.12013
#
# Poissons Ratio (x) = 0.01041 0.09401
# Poissons Ratio (y) = 0.01041 0.09401
# Poissons Ratio (z) = 0.08343 0.08343
#
# Static dielectric constant tensor:
#      x y z
#    x 4.164660 0.000000 0.000000 
#    y 0.000000 4.164660 0.000000 
#    z 0.000000 0.000000 4.521170 
# 
# 
# High freq. dielectric constant tensor:
#      x y z
#    x 1.919230 0.000000 0.000000 
#    y 0.000000 1.919230 0.000000 
#    z 0.000000 0.000000 1.910400 
# 
# From -- ./inp_files/233.got.cif
#   From: 2010.03.12/outbox.cif.g09.slc.cpg/sg78_cif.got.tgz:233.got - 2010.04.16 16:37:20.
