data_PCOD8302021
_publ_section_title
;
Structure prediction by ZEFSAII (Michael W. Deem and Ramdas Pophale) SiO2 
 PCOD8302021
Probable space group: P 43
;
_chemical_formula_sum "Si O2"
_cell_formula_units_Z 32
_cell_length_a 9.075821
_cell_length_b 9.075821
_cell_length_c 20.792295
_cell_angle_alpha 90.000000
_cell_angle_beta 90.000000
_cell_angle_gamma 90.000000
_cell_volume 1712.672293
_symmetry_space_group_name_H-M "P 43"
_symmetry_group_IT_number 78
_symmetry_cell_setting 'tetragonal'
loop_
_space_group_symop_operation_xyz
x,y,z
-y,x,3/4+z
-x,-y,1/2+z
y,-x,1/4+z
loop_
_atom_site_type_symbol
_atom_site_label
_atom_site_fract_x
_atom_site_fract_y
_atom_site_fract_z
Si Si1 0.654953 0.027115 0.274420
Si Si2 0.113220 0.636044 0.456110
Si Si3 0.190900 0.203030 0.959493
Si Si4 0.056304 0.832033 0.801331
Si Si5 0.955204 0.085646 0.443078
Si Si6 0.199741 0.539309 0.127848
Si Si7 0.369590 0.285003 0.075791
Si Si8 0.636172 0.168500 0.001218
O O1 0.525915 0.106242 0.236261
O O2 0.764048 0.155442 0.303592
O O3 0.754234 0.924033 0.225966
O O4 0.583677 0.928121 0.329134
O O5 0.186610 0.617134 0.387848
O O6 0.212457 0.739483 0.501038
O O7 0.954094 0.705526 0.444497
O O8 0.317045 0.266948 0.912342
O O9 0.234753 0.222533 0.033545
O O10 0.181553 0.027479 0.944386
O O11 0.002560 0.923320 0.737894
O O12 0.992891 0.893936 0.869091
O O13 0.986401 0.669663 0.788796
O O14 0.334102 0.455875 0.092022
O O15 0.130460 0.427061 0.180619
O O16 0.522318 0.273196 0.038216
#
# Coordination Sequence:
#
# PCOD8302021 Si02
#       8
#     4   4   4   4   4   4   4   4
#     4  10  21  37  60  88 129 150 210 262 328 362
#     4  11  21  37  62  89 114 168 208 259 311 378
#     4  11  20  36  64  91 115 160 213 259 313 373
#     4  10  21  37  62  93 127 154 209 279 320 370
#     4  10  21  34  61  92 124 152 203 272 322 366
#     4  10  21  40  60  88 126 165 204 258 312 396
#     4  10  23  38  59  86 126 162 207 251 312 394
#     4  10  22  39  62  87 123 161 214 250 318 383
#
# _framework density 18.684252999999998
#
# number of rings (size 3 to 8) (size 9 to 14) (size 15 to 20)
#    0.750    1.000    3.750    0.750    3.500    1.000 
#    0.000    2.500    0.000    0.000    0.000    0.000 
#    0.000    0.000    0.000    0.000    0.000    0.000 
#
# Total GULP energy -396500.826463 kJ/mol
# GULP energy per Si atom -12390.650827 kJ/mol
# Density = 1.864173 g / cm^3
# Si number density = 18.684253 Si / 1000 Ang^3
#
#
#
# Elastic Constant Matrix: (Units=GPa)
#
#
# Indices 1 2 3 4 5 6 
#
# 1 108.4256 62.1378 43.0987 0.0000 0.0000 6.4543
# 2 62.1378 108.4256 43.0987 0.0000 0.0000 -6.4543
# 3 43.0987 43.0987 107.7095 0.0000 0.0000 0.0000
# 4 0.0000 0.0000 0.0000 21.4744 0.0000 0.0000
# 5 0.0000 0.0000 0.0000 0.0000 21.4744 0.0000
# 6 6.4543 -6.4543 0.0000 0.0000 0.0000 20.9177
#
#
#
# Elastic Compliance Matrix: (Units=1/GPa)
#
#
# Indices 1 2 3 4 5 6 
#
# 1 0.015494 -0.008144 -0.002941 0.000000 0.000000 -0.007294
# 2 -0.008144 0.015494 -0.002941 0.000000 0.000000 0.007294
# 3 -0.002941 -0.002941 0.011638 0.000000 0.000000 0.000000
# 4 0.000000 0.000000 0.000000 0.046567 0.000000 0.000000
# 5 0.000000 0.000000 0.000000 0.000000 0.046567 0.000000
# 6 -0.007294 0.007294 0.000000 0.000000 0.000000 0.052307
#
#
# Mechanical properties :
#
#
# Convention : Reuss Voigt Hill
#
# Bulk Modulus (GPa) = 68.61962 69.02566 68.82264
# Shear Modulus (GPa) = 22.62694 24.52166 23.57430
#
# Velocity S-wave (km/s) = 3.48374 3.62667 3.55592
# Velocity P-wave (km/s) = 7.27926 7.38650 7.33308
#
# Compressibility (1/GPa) = 0.01457309
#
# Stress axis : x y z
#
# Youngs Moduli (GPa) = 64.54317 64.54317 85.92878
#
# Poissons Ratio (x) = 0.52567 0.25268
# Poissons Ratio (y) = 0.52567 0.25268
# Poissons Ratio (z) = 0.18980 0.18980
#
# Static dielectric constant tensor:
#      x y z
#    x 3.385480 0.000000 0.000000 
#    y 0.000000 3.385480 0.000000 
#    z 0.000000 0.000000 3.622520 
# 
# 
# High freq. dielectric constant tensor:
#      x y z
#    x 1.711350 0.000000 0.000000 
#    y 0.000000 1.711350 0.000000 
#    z 0.000000 0.000000 1.742190 
# 
# From -- ./inp_files/1515.got.cif
#   From: 2010.03.12/outbox.cif.g09.slc.cpg/sg78_cif.got.tgz:1515.got - 2010.04.16 16:37:20.
