data_PCOD8302286
_publ_section_title
;
Structure prediction by ZEFSAII (Michael W. Deem and Ramdas Pophale) SiO2 
 PCOD8302286
Probable space group: P -4
;
_chemical_formula_sum "Si O2"
_cell_formula_units_Z 18
_cell_length_a 9.814840
_cell_length_b 9.814840
_cell_length_c 10.200228
_cell_angle_alpha 90.000000
_cell_angle_beta 90.000000
_cell_angle_gamma 90.000000
_cell_volume 982.599023
_symmetry_space_group_name_H-M "P -4"
_symmetry_group_IT_number 81
_symmetry_cell_setting 'tetragonal'
loop_
_space_group_symop_operation_xyz
x,y,z
y,-x,-z
-x,-y,z
-y,x,-z
loop_
_atom_site_type_symbol
_atom_site_label
_atom_site_fract_x
_atom_site_fract_y
_atom_site_fract_z
Si Si1 0.336896 0.499892 0.178086
Si Si2 0.000000 0.500000 0.616924
Si Si3 0.727645 0.742198 0.018469
Si Si4 0.350087 0.985337 0.129302
Si Si5 0.716230 0.481136 0.464377
O O1 0.500000 0.500000 0.194181
O O2 0.288992 0.588271 0.055861
O O3 0.267576 0.554109 0.310992
O O4 0.275832 0.350945 0.148204
O O5 0.012186 0.366365 0.711565
O O6 0.864895 0.488002 0.529198
O O7 0.846486 0.718445 0.914845
O O8 0.742505 0.893914 0.073675
O O9 0.500000 0.000000 0.064588
O O10 0.626491 0.361762 0.529701
#
# Coordination Sequence:
#
# PCOD8302286 Si02
#       5
#     4   2   4   4   4
#     4  12  19  34  60  87 122 160 204 274 301 362
#     4  10  22  44  56  90 132 170 192 272 316 350
#     4  12  21  37  62  92 124 162 202 252 330 368
#     4  10  22  38  61  88 125 167 195 254 321 367
#     4  11  22  35  60  91 115 165 223 250 300 375
#
# _framework density 18.318763000000001
#
# number of rings (size 3 to 8) (size 9 to 14) (size 15 to 20)
#    0.667    0.222    6.667    2.667    0.000    2.222 
#    0.000    0.000    0.000    3.333    0.000    0.000 
#    0.000    0.000    0.000    0.000    0.000    0.000 
#
# Total GULP energy -223130.946309 kJ/mol
# GULP energy per Si atom -12396.163684 kJ/mol
# Density = 1.827707 g / cm^3
# Si number density = 18.318763 Si / 1000 Ang^3
#
#
#
# Elastic Constant Matrix: (Units=GPa)
#
#
# Indices 1 2 3 4 5 6 
#
# 1 99.4323 22.3738 22.7529 0.0000 0.0000 5.7555
# 2 22.3738 99.4323 22.7529 0.0000 0.0000 -5.7555
# 3 22.7529 22.7529 89.7626 0.0000 0.0000 0.0000
# 4 0.0000 0.0000 0.0000 24.2982 0.0000 0.0000
# 5 0.0000 0.0000 0.0000 0.0000 24.2982 0.0000
# 6 5.7555 -5.7555 0.0000 0.0000 0.0000 21.4189
#
#
#
# Elastic Compliance Matrix: (Units=1/GPa)
#
#
# Indices 1 2 3 4 5 6 
#
# 1 0.011294 -0.002226 -0.002299 0.000000 0.000000 -0.003633
# 2 -0.002226 0.011294 -0.002299 0.000000 0.000000 0.003633
# 3 -0.002299 -0.002299 0.012306 0.000000 0.000000 0.000000
# 4 0.000000 0.000000 0.000000 0.041155 0.000000 0.000000
# 5 0.000000 0.000000 0.000000 0.000000 0.041155 0.000000
# 6 -0.003633 0.003633 0.000000 0.000000 0.000000 0.048640
#
#
# Mechanical properties :
#
#
# Convention : Reuss Voigt Hill
#
# Bulk Modulus (GPa) = 47.06286 47.15406 47.10846
# Shear Modulus (GPa) = 26.79905 28.71956 27.75930
#
# Velocity S-wave (km/s) = 3.82897 3.96380 3.89697
# Velocity P-wave (km/s) = 6.73015 6.83708 6.78383
#
# Compressibility (1/GPa) = 0.02124818
#
# Stress axis : x y z
#
# Youngs Moduli (GPa) = 88.54104 88.54104 81.26230
#
# Poissons Ratio (x) = 0.19706 0.18680
# Poissons Ratio (y) = 0.19706 0.18680
# Poissons Ratio (z) = 0.20353 0.20353
#
# Static dielectric constant tensor:
#      x y z
#    x 3.221080 0.000000 0.000000 
#    y 0.000000 3.221080 0.000000 
#    z 0.000000 0.000000 3.420750 
# 
# 
# High freq. dielectric constant tensor:
#      x y z
#    x 1.694080 0.000000 0.000000 
#    y 0.000000 1.694080 0.000000 
#    z 0.000000 0.000000 1.718410 
# 
# From -- ./inp_files/1246.got.cif
#   From: 2010.03.12/outbox.cif.g09.slc.cpg/sg81_cif.got.tgz:1246.got - 2010.04.08 20:01:38.
