data_PCOD8302078
_publ_section_title
;
Structure prediction by ZEFSAII (Michael W. Deem and Ramdas Pophale) SiO2 
 PCOD8302078
Probable space group: I 4
;
_chemical_formula_sum "Si O2"
_cell_formula_units_Z 40
_cell_length_a 21.353694
_cell_length_b 21.353694
_cell_length_c 5.130322
_cell_angle_alpha 90.000000
_cell_angle_beta 90.000000
_cell_angle_gamma 90.000000
_cell_volume 2339.325495
_symmetry_space_group_name_H-M "I 4"
_symmetry_group_IT_number 79
_symmetry_cell_setting 'tetragonal'
loop_
_space_group_symop_operation_xyz
x,y,z
-y,x,z
-x,-y,z
y,-x,z
1/2+x,1/2+y,1/2+z
1/2-y,1/2+x,1/2+z
1/2-x,1/2-y,1/2+z
1/2+y,1/2-x,1/2+z
loop_
_atom_site_type_symbol
_atom_site_label
_atom_site_fract_x
_atom_site_fract_y
_atom_site_fract_z
Si Si1 0.680933 0.476775 0.591330
Si Si2 0.712248 0.341057 0.677865
Si Si3 0.107774 0.761801 0.007005
Si Si4 0.765754 0.671458 0.996529
Si Si5 0.483170 0.399255 0.092634
O O1 0.719295 0.415888 0.690627
O O2 0.727395 0.535701 0.579494
O O3 0.655210 0.469970 0.298918
O O4 0.625324 0.485817 0.797324
O O5 0.648884 0.326168 0.511996
O O6 0.774184 0.315413 0.540050
O O7 0.703049 0.304209 0.956113
O O8 0.135816 0.715433 0.229054
O O9 0.119049 0.732335 0.722970
O O10 0.550947 0.428716 0.138338
#
# Coordination Sequence:
#
# PCOD8302078 Si02
#       5
#     8   8   8   8   8
#     4  12  24  32  56  77 105 136 188 227 268 304
#     4  10  21  35  58  75 102 142 179 215 272 324
#     4  10  20  35  49  80 104 135 171 233 261 306
#     4  10  20  36  56  72 104 138 179 213 279 317
#     4  11  23  37  47  68 106 152 186 215 251 302
#
# _framework density 17.098946999999999
#
# number of rings (size 3 to 8) (size 9 to 14) (size 15 to 20)
#    1.200    0.200    2.000    4.800    5.600    1.600 
#    0.000    0.000    0.000    0.000    0.000    0.000 
#    0.000    4.800    0.000    0.000    0.000    0.000 
#
# Total GULP energy -247767.726815 kJ/mol
# GULP energy per Si atom -12388.386341 kJ/mol
# Density = 1.706003 g / cm^3
# Si number density = 17.098947 Si / 1000 Ang^3
#
#
#
# Elastic Constant Matrix: (Units=GPa)
#
#
# Indices 1 2 3 4 5 6 
#
# 1 82.3236 41.1691 21.4551 0.0000 0.0000 -0.2060
# 2 41.1691 82.3236 21.4551 0.0000 0.0000 0.2060
# 3 21.4551 21.4551 98.8494 0.0000 0.0000 0.0000
# 4 0.0000 0.0000 0.0000 22.1034 0.0000 0.0000
# 5 0.0000 0.0000 0.0000 0.0000 22.1034 0.0000
# 6 -0.2060 0.2060 0.0000 0.0000 0.0000 90.1184
#
#
#
# Elastic Compliance Matrix: (Units=1/GPa)
#
#
# Indices 1 2 3 4 5 6 
#
# 1 0.016529 -0.007771 -0.001901 0.000000 0.000000 0.000056
# 2 -0.007771 0.016529 -0.001901 0.000000 0.000000 -0.000056
# 3 -0.001901 -0.001901 0.010942 0.000000 0.000000 0.000000
# 4 0.000000 0.000000 0.000000 0.045242 0.000000 0.000000
# 5 0.000000 0.000000 0.000000 0.000000 0.045242 0.000000
# 6 0.000056 -0.000056 0.000000 0.000000 0.000000 0.011097
#
#
# Mechanical properties :
#
#
# Convention : Reuss Voigt Hill
#
# Bulk Modulus (GPa) = 47.95210 47.96170 47.95690
# Shear Modulus (GPa) = 28.46151 38.82618 33.64384
#
# Velocity S-wave (km/s) = 4.08428 4.77033 4.44057
# Velocity P-wave (km/s) = 7.09553 7.64538 7.37558
#
# Compressibility (1/GPa) = 0.02085414
#
# Stress axis : x y z
#
# Youngs Moduli (GPa) = 60.50081 60.50081 91.39435
#
# Poissons Ratio (x) = 0.47012 0.17374
# Poissons Ratio (y) = 0.47012 0.17374
# Poissons Ratio (z) = 0.11501 0.11501
#
# Static dielectric constant tensor:
#      x y z
#    x 2.919370 0.000000 0.000000 
#    y 0.000000 2.919370 0.000000 
#    z 0.000000 0.000000 3.336780 
# 
# 
# High freq. dielectric constant tensor:
#      x y z
#    x 1.626320 0.000000 0.000000 
#    y 0.000000 1.626320 0.000000 
#    z 0.000000 0.000000 1.679180 
# 
# From -- ./inp_files/186.got.cif
#   From: 2010.03.12/outbox.cif.g09.slc.cpg/sg79_cif.got.tgz:186.got - 2010.04.16 16:38:49.
