data_PCOD8302835
_publ_section_title
;
Structure prediction by ZEFSAII (Michael W. Deem and Ramdas Pophale) SiO2 
 PCOD8302835
Probable space group: P 4/M
;
_chemical_formula_sum "Si O2"
_cell_formula_units_Z 48
_cell_length_a 13.846798
_cell_length_b 13.846798
_cell_length_c 12.482215
_cell_angle_alpha 90.000000
_cell_angle_beta 90.000000
_cell_angle_gamma 90.000000
_cell_volume 2393.262700
_symmetry_space_group_name_H-M "P 4/M"
_symmetry_group_IT_number 83
_symmetry_cell_setting 'tetragonal'
loop_
_space_group_symop_operation_xyz
x,y,z
-y,x,z
-x,-y,z
y,-x,z
-x,-y,-z
y,-x,-z
x,y,-z
-y,x,-z
loop_
_atom_site_type_symbol
_atom_site_label
_atom_site_fract_x
_atom_site_fract_y
_atom_site_fract_z
Si Si1 0.599933 0.051907 0.234414
Si Si2 0.237019 0.466537 0.881188
Si Si3 0.250584 0.094376 0.877262
Si Si4 0.802084 0.710195 0.621169
Si Si5 0.900233 0.117728 0.690996
Si Si6 0.710269 0.337800 0.808634
O O1 0.575018 0.131654 0.145856
O O2 0.651774 0.104822 0.334535
O O3 0.500000 0.000000 0.271296
O O4 0.676084 0.977468 0.183648
O O5 0.270304 0.548337 0.796956
O O6 0.317236 0.383333 0.880203
O O7 0.231510 0.511458 0.000000
O O8 0.146374 0.101692 0.817582
O O9 0.292986 0.200799 0.872700
O O10 0.235382 0.061511 0.000000
O O11 0.782681 0.677219 0.500000
O O12 0.815694 0.826517 0.625216
O O13 0.707162 0.689545 0.691454
O O14 0.010698 0.133522 0.659412
#
# Coordination Sequence:
#
# PCOD8302835 Si02
#       6
#     8   8   8   8   8   8
#     4  11  22  38  62  93 125 154 208 255 293 364
#     4  11  21  37  61  90 126 164 196 245 310 364
#     4  11  21  37  59  87 128 167 197 244 305 359
#     4  10  23  44  64  86 121 162 204 261 309 343
#     4  10  21  39  58  86 122 156 210 249 287 371
#     4  10  23  39  58  89 123 154 208 254 292 372
#
# _framework density 20.056304000000001
#
# number of rings (size 3 to 8) (size 9 to 14) (size 15 to 20)
#    0.000    1.500    3.333    2.000    0.000    2.667 
#    0.000    5.833    0.000    0.000    0.000    4.667 
#    0.000    0.000    0.000    0.000    0.000    0.000 
#
# Total GULP energy -594911.673844 kJ/mol
# GULP energy per Si atom -12393.993205 kJ/mol
# Density = 2.001065 g / cm^3
# Si number density = 20.056304 Si / 1000 Ang^3
#
#
#
# Elastic Constant Matrix: (Units=GPa)
#
#
# Indices 1 2 3 4 5 6 
#
# 1 87.1309 18.9831 20.2369 0.0000 0.0000 6.2338
# 2 18.9831 87.1309 20.2369 0.0000 0.0000 -6.2338
# 3 20.2369 20.2369 121.3719 0.0000 0.0000 0.0000
# 4 0.0000 0.0000 0.0000 17.1272 0.0000 0.0000
# 5 0.0000 0.0000 0.0000 0.0000 17.1272 0.0000
# 6 6.2338 -6.2338 0.0000 0.0000 0.0000 29.8592
#
#
#
# Elastic Compliance Matrix: (Units=1/GPa)
#
#
# Indices 1 2 3 4 5 6 
#
# 1 0.012660 -0.002596 -0.001678 0.000000 0.000000 -0.003185
# 2 -0.002596 0.012660 -0.001678 0.000000 0.000000 0.003185
# 3 -0.001678 -0.001678 0.008799 0.000000 0.000000 0.000000
# 4 0.000000 0.000000 0.000000 0.058387 0.000000 0.000000
# 5 0.000000 0.000000 0.000000 0.000000 0.058387 0.000000
# 6 -0.003185 0.003185 0.000000 0.000000 0.000000 0.034821
#
#
# Mechanical properties :
#
#
# Convention : Reuss Voigt Hill
#
# Bulk Modulus (GPa) = 45.01577 46.06080 45.53828
# Shear Modulus (GPa) = 24.38751 28.56782 26.47766
#
# Velocity S-wave (km/s) = 3.49083 3.77819 3.63735
# Velocity P-wave (km/s) = 6.22425 6.48449 6.35570
#
# Compressibility (1/GPa) = 0.02221444
#
# Stress axis : x y z
#
# Youngs Moduli (GPa) = 78.98717 78.98717 113.65323
#
# Poissons Ratio (x) = 0.20509 0.19071
# Poissons Ratio (y) = 0.20509 0.19071
# Poissons Ratio (z) = 0.13254 0.13254
#
# Static dielectric constant tensor:
#      x y z
#    x 3.797440 0.000000 0.000000 
#    y 0.000000 3.797440 0.000000 
#    z 0.000000 0.000000 3.387970 
# 
# 
# High freq. dielectric constant tensor:
#      x y z
#    x 1.788020 0.000000 0.000000 
#    y 0.000000 1.788020 0.000000 
#    z 0.000000 0.000000 1.754360 
# 
# From -- ./inp_files/1843.got.cif
#   From: 2010.03.12/outbox.cif.g09.slc.cpg/sg83_1_cif.got.tgz:1843.got - 2010.04.08 20:05:18.
