data_PCOD8302734
_publ_section_title
;
Structure prediction by ZEFSAII (Michael W. Deem and Ramdas Pophale) SiO2 
 PCOD8302734
Probable space group: P 4/M
;
_chemical_formula_sum "Si O2"
_cell_formula_units_Z 52
_cell_length_a 17.259479
_cell_length_b 17.259479
_cell_length_c 8.939031
_cell_angle_alpha 90.000000
_cell_angle_beta 90.000000
_cell_angle_gamma 90.000000
_cell_volume 2662.844506
_symmetry_space_group_name_H-M "P 4/M"
_symmetry_group_IT_number 83
_symmetry_cell_setting 'tetragonal'
loop_
_space_group_symop_operation_xyz
x,y,z
-y,x,z
-x,-y,z
y,-x,z
-x,-y,-z
y,-x,-z
x,y,-z
-y,x,-z
loop_
_atom_site_type_symbol
_atom_site_label
_atom_site_fract_x
_atom_site_fract_y
_atom_site_fract_z
Si Si1 0.203305 0.991620 0.323553
Si Si2 0.339336 0.947376 0.164919
Si Si3 0.140679 0.840305 0.822086
Si Si4 0.500000 0.000000 0.245170
Si Si5 0.301790 0.224051 0.324446
Si Si6 0.829412 0.465183 0.666620
Si Si7 0.369116 0.793124 0.325518
O O1 0.190502 0.993573 0.500000
O O2 0.293298 0.006201 0.276014
O O3 0.189161 0.907898 0.253294
O O4 0.149137 0.054229 0.243624
O O5 0.427044 0.976480 0.145143
O O6 0.331088 0.861362 0.230405
O O7 0.301339 0.947343 0.000000
O O8 0.174068 0.758509 0.769524
O O9 0.140027 0.846370 0.000000
O O10 0.523239 0.922865 0.337782
O O11 0.293539 0.201716 0.500000
O O12 0.386190 0.201414 0.254945
O O13 0.283795 0.316435 0.301911
O O14 0.799337 0.455120 0.500000
O O15 0.785088 0.541543 0.732276
O O16 0.369831 0.818232 0.500000
#
# Coordination Sequence:
#
# PCOD8302734 Si02
#       7
#     8   8   8   4   8   8   8
#     4  12  25  42  61  83 112 151 197 240 290 347
#     4  11  21  35  55  81 114 150 188 237 292 347
#     4  12  25  41  61  86 114 148 193 245 296 344
#     4  10  20  32  50  80 119 154 187 238 303 360
#     4  10  19  35  58  83 114 153 198 242 293 355
#     4   9  18  31  51  81 112 149 196 246 292 352
#     4   9  18  33  54  78 109 150 193 235 288 349
#
# _framework density 19.527989999999999
#
# number of rings (size 3 to 8) (size 9 to 14) (size 15 to 20)
#    0.000    1.538    1.538    4.615    0.000    3.385 
#    0.000    4.615    0.000    0.462    0.000    3.231 
#    0.000    0.000    0.000    6.923    0.000    5.846 
#
# Total GULP energy -644288.591654 kJ/mol
# GULP energy per Si atom -12390.165224 kJ/mol
# Density = 1.948354 g / cm^3
# Si number density = 19.527990 Si / 1000 Ang^3
#
#
#
# Elastic Constant Matrix: (Units=GPa)
#
#
# Indices 1 2 3 4 5 6 
#
# 1 105.8798 45.5660 14.4864 0.0000 0.0000 -0.7517
# 2 45.5660 105.8798 14.4864 0.0000 0.0000 0.7517
# 3 14.4864 14.4864 62.0783 0.0000 0.0000 0.0000
# 4 0.0000 0.0000 0.0000 15.2072 0.0000 0.0000
# 5 0.0000 0.0000 0.0000 0.0000 15.2072 0.0000
# 6 -0.7517 0.7517 0.0000 0.0000 0.0000 32.2549
#
#
#
# Elastic Compliance Matrix: (Units=1/GPa)
#
#
# Indices 1 2 3 4 5 6 
#
# 1 0.011751 -0.004839 -0.001613 0.000000 0.000000 0.000387
# 2 -0.004839 0.011751 -0.001613 0.000000 0.000000 -0.000387
# 3 -0.001613 -0.001613 0.016861 0.000000 0.000000 0.000000
# 4 0.000000 0.000000 0.000000 0.065759 0.000000 0.000000
# 5 0.000000 0.000000 0.000000 0.000000 0.065759 0.000000
# 6 0.000387 -0.000387 0.000000 0.000000 0.000000 0.031021
#
#
# Mechanical properties :
#
#
# Convention : Reuss Voigt Hill
#
# Bulk Modulus (GPa) = 41.26579 46.99059 44.12819
# Shear Modulus (GPa) = 22.01596 25.82044 23.91820
#
# Velocity S-wave (km/s) = 3.36133 3.64019 3.50353
# Velocity P-wave (km/s) = 6.02015 6.46401 6.24602
#
# Compressibility (1/GPa) = 0.02423315
#
# Stress axis : x y z
#
# Youngs Moduli (GPa) = 85.10210 85.10210 59.30691
#
# Poissons Ratio (x) = 0.41181 0.09565
# Poissons Ratio (y) = 0.41181 0.09565
# Poissons Ratio (z) = 0.13726 0.13726
#
# Static dielectric constant tensor:
#      x y z
#    x 3.804260 0.000000 0.000000 
#    y 0.000000 3.804260 0.000000 
#    z 0.000000 0.000000 3.340910 
# 
# 
# High freq. dielectric constant tensor:
#      x y z
#    x 1.756870 0.000000 0.000000 
#    y 0.000000 1.756870 0.000000 
#    z 0.000000 0.000000 1.746730 
# 
# From -- ./inp_files/1049.got.cif
#   From: 2010.03.12/outbox.cif.g09.slc.cpg/sg83_1_cif.got.tgz:1049.got - 2010.04.08 20:05:18.
