data_PCOD8302638
_publ_section_title
;
Structure prediction by ZEFSAII (Michael W. Deem and Ramdas Pophale) SiO2 
 PCOD8302638
Probable space group: P 4/M
;
_chemical_formula_sum "Si O2"
_cell_formula_units_Z 56
_cell_length_a 12.128111
_cell_length_b 12.128111
_cell_length_c 21.725792
_cell_angle_alpha 90.000000
_cell_angle_beta 90.000000
_cell_angle_gamma 90.000000
_cell_volume 3195.670132
_symmetry_space_group_name_H-M "P 4/M"
_symmetry_group_IT_number 83
_symmetry_cell_setting 'tetragonal'
loop_
_space_group_symop_operation_xyz
x,y,z
-y,x,z
-x,-y,z
y,-x,z
-x,-y,-z
y,-x,-z
x,y,-z
-y,x,-z
loop_
_atom_site_type_symbol
_atom_site_label
_atom_site_fract_x
_atom_site_fract_y
_atom_site_fract_z
Si Si1 0.676913 0.472992 0.428288
Si Si2 0.023803 0.621276 0.125420
Si Si3 0.875928 0.498837 0.342235
Si Si4 0.159445 0.294937 0.266361
Si Si5 0.766925 0.409465 0.069000
Si Si6 0.092345 0.693823 0.250825
Si Si7 0.636531 0.217170 0.132066
O O1 0.623393 0.590903 0.411117
O O2 0.705670 0.469201 0.500000
O O3 0.790295 0.451636 0.391914
O O4 0.101191 0.614130 0.065336
O O5 0.097103 0.685026 0.176711
O O6 0.000000 0.500000 0.153790
O O7 0.905093 0.672512 0.107758
O O8 0.829289 0.618524 0.322182
O O9 0.882235 0.423551 0.281555
O O10 0.000000 0.500000 0.371235
O O11 0.220189 0.179593 0.278838
O O12 0.214482 0.349550 0.205636
O O13 0.031150 0.264642 0.262841
O O14 0.711755 0.303075 0.097470
O O15 0.747310 0.512392 0.114281
O O16 0.723418 0.433355 0.000000
#
# Coordination Sequence:
#
# PCOD8302638 Si02
#       7
#     8   8   8   8   8   8   8
#     4   9  18  33  51  73 106 145 179 211 245 288
#     4   9  18  34  52  70  94 122 161 202 241 293
#     4  10  19  31  51  79 105 134 169 211 254 292
#     4  10  20  32  54  72 101 130 161 209 249 300
#     4  11  21  34  53  72  95 127 159 198 248 302
#     4  10  18  33  51  76 100 129 163 203 253 295
#     4  10  21  35  51  72  97 126 160 201 249 299
#
# _framework density 17.523710999999999
#
# number of rings (size 3 to 8) (size 9 to 14) (size 15 to 20)
#    0.000    2.143    1.429    4.714    0.000    4.000 
#    0.000    0.714    0.000    0.429    0.000    1.000 
#    0.000    0.000    0.000   26.571    0.000    0.000 
#
# Total GULP energy -693879.694666 kJ/mol
# GULP energy per Si atom -12390.708833 kJ/mol
# Density = 1.748383 g / cm^3
# Si number density = 17.523711 Si / 1000 Ang^3
#
#
#
# Elastic Constant Matrix: (Units=GPa)
#
#
# Indices 1 2 3 4 5 6 
#
# 1 86.1523 41.7480 28.7978 0.0000 0.0000 -3.2738
# 2 41.7480 86.1523 28.7978 0.0000 0.0000 3.2738
# 3 28.7978 28.7978 55.7628 0.0000 0.0000 0.0000
# 4 0.0000 0.0000 0.0000 17.4523 0.0000 0.0000
# 5 0.0000 0.0000 0.0000 0.0000 17.4523 0.0000
# 6 -3.2738 3.2738 0.0000 0.0000 0.0000 31.7693
#
#
#
# Elastic Compliance Matrix: (Units=1/GPa)
#
#
# Indices 1 2 3 4 5 6 
#
# 1 0.016528 -0.006340 -0.005261 0.000000 0.000000 0.002356
# 2 -0.006340 0.016528 -0.005261 0.000000 0.000000 -0.002356
# 3 -0.005261 -0.005261 0.023367 0.000000 0.000000 0.000000
# 4 0.000000 0.000000 0.000000 0.057299 0.000000 0.000000
# 5 0.000000 0.000000 0.000000 0.000000 0.057299 0.000000
# 6 0.002356 -0.002356 0.000000 0.000000 0.000000 0.031963
#
#
# Mechanical properties :
#
#
# Convention : Reuss Voigt Hill
#
# Bulk Modulus (GPa) = 44.05734 47.41716 45.73725
# Shear Modulus (GPa) = 20.46873 21.91636 21.19254
#
# Velocity S-wave (km/s) = 3.42140 3.54032 3.48136
# Velocity P-wave (km/s) = 6.38781 6.62038 6.50513
#
# Compressibility (1/GPa) = 0.02269769
#
# Stress axis : x y z
#
# Youngs Moduli (GPa) = 60.50398 60.50398 42.79466
#
# Poissons Ratio (x) = 0.38359 0.22516
# Poissons Ratio (y) = 0.38359 0.22516
# Poissons Ratio (z) = 0.31833 0.31833
#
# Static dielectric constant tensor:
#      x y z
#    x 3.306620 0.000000 0.000000 
#    y 0.000000 3.306620 0.000000 
#    z 0.000000 0.000000 3.019100 
# 
# 
# High freq. dielectric constant tensor:
#      x y z
#    x 1.676210 0.000000 0.000000 
#    y 0.000000 1.676210 0.000000 
#    z 0.000000 0.000000 1.654100 
# 
# From -- ./inp_files/3011.got.cif
#   From: 2010.03.12/outbox.cif.g09.slc.cpg/sg83_2_cif.got.tgz:3011.got - 2010.04.08 20:05:18.
