data_PCOD8302681
_publ_section_title
;
Structure prediction by ZEFSAII (Michael W. Deem and Ramdas Pophale) SiO2 
 PCOD8302681
Probable space group: P 4/M
;
_chemical_formula_sum "Si O2"
_cell_formula_units_Z 64
_cell_length_a 19.355127
_cell_length_b 19.355127
_cell_length_c 10.094984
_cell_angle_alpha 90.000000
_cell_angle_beta 90.000000
_cell_angle_gamma 90.000000
_cell_volume 3781.792407
_symmetry_space_group_name_H-M "P 4/M"
_symmetry_group_IT_number 83
_symmetry_cell_setting 'tetragonal'
loop_
_space_group_symop_operation_xyz
x,y,z
-y,x,z
-x,-y,z
y,-x,z
-x,-y,-z
y,-x,-z
x,y,-z
-y,x,-z
loop_
_atom_site_type_symbol
_atom_site_label
_atom_site_fract_x
_atom_site_fract_y
_atom_site_fract_z
Si Si1 0.411100 0.312501 0.146363
Si Si2 0.120392 0.499450 0.350470
Si Si3 0.690008 0.193376 0.152607
Si Si4 0.651889 0.919865 0.348124
Si Si5 0.422667 0.417471 0.354240
Si Si6 0.460399 0.767873 0.147085
Si Si7 0.196096 0.695002 0.152559
Si Si8 0.074916 0.349330 0.349030
O O1 0.383916 0.370777 0.246720
O O2 0.494661 0.302680 0.154939
O O3 0.374175 0.240077 0.177845
O O4 0.388981 0.337933 0.000000
O O5 0.149419 0.500103 0.500000
O O6 0.079168 0.569674 0.320548
O O7 0.184381 0.496378 0.253732
O O8 0.072745 0.432225 0.327276
O O9 0.621437 0.240989 0.176437
O O10 0.756856 0.238690 0.187817
O O11 0.688217 0.126831 0.247778
O O12 0.693031 0.168297 0.000000
O O13 0.667001 0.897534 0.500000
O O14 0.693543 0.869572 0.249643
O O15 0.678636 0.997724 0.322255
O O16 0.503570 0.404417 0.334638
O O17 0.399516 0.392752 0.500000
O O18 0.469472 0.800304 0.000000
O O19 0.170881 0.698671 0.000000
O O20 0.097869 0.332344 0.500000
#
# Coordination Sequence:
#
# PCOD8302681 Si02
#       8
#     8   8   8   8   8   8   8   8
#     4  10  20  31  48  69  90 119 156 199 245 292
#     4   9  16  28  46  68  95 125 156 192 235 281
#     4   9  19  34  50  68  95 130 164 201 242 287
#     4  10  19  31  49  73 100 129 162 201 243 290
#     4   9  20  37  50  61  81 109 148 204 262 308
#     4   9  17  30  46  64  90 122 158 196 237 282
#     4  10  21  35  49  69 100 131 161 201 246 289
#     4   9  18  32  50  72  98 128 164 203 241 286
#
# _framework density 16.923193000000001
#
# number of rings (size 3 to 8) (size 9 to 14) (size 15 to 20)
#    0.000    2.625    1.250    0.750    1.750    4.000 
#    0.000    0.625    0.000    3.750    0.000    0.000 
#    0.000    0.500    0.000    5.500    0.000    4.000 
#
# Total GULP energy -793159.431437 kJ/mol
# GULP energy per Si atom -12393.116116 kJ/mol
# Density = 1.688467 g / cm^3
# Si number density = 16.923193 Si / 1000 Ang^3
#
#
#
# Elastic Constant Matrix: (Units=GPa)
#
#
# Indices 1 2 3 4 5 6 
#
# 1 67.5356 25.1059 46.9128 0.0000 0.0000 0.3164
# 2 25.1059 67.5356 46.9128 0.0000 0.0000 -0.3164
# 3 46.9128 46.9128 100.3268 0.0000 0.0000 0.0000
# 4 0.0000 0.0000 0.0000 25.2550 0.0000 0.0000
# 5 0.0000 0.0000 0.0000 0.0000 25.2550 0.0000
# 6 0.3164 -0.3164 0.0000 0.0000 0.0000 15.6889
#
#
#
# Elastic Compliance Matrix: (Units=1/GPa)
#
#
# Indices 1 2 3 4 5 6 
#
# 1 0.022040 -0.001535 -0.009588 0.000000 0.000000 -0.000475
# 2 -0.001535 0.022040 -0.009588 0.000000 0.000000 0.000475
# 3 -0.009588 -0.009588 0.018934 0.000000 0.000000 0.000000
# 4 0.000000 0.000000 0.000000 0.039596 0.000000 0.000000
# 5 0.000000 0.000000 0.000000 0.000000 0.039596 0.000000
# 6 -0.000475 0.000475 0.000000 0.000000 0.000000 0.063758
#
#
# Mechanical properties :
#
#
# Convention : Reuss Voigt Hill
#
# Bulk Modulus (GPa) = 46.31409 52.58454 49.44932
# Shear Modulus (GPa) = 19.63976 21.00421 20.32198
#
# Velocity S-wave (km/s) = 3.41034 3.52682 3.46907
# Velocity P-wave (km/s) = 6.55239 6.90829 6.73270
#
# Compressibility (1/GPa) = 0.02159170
#
# Stress axis : x y z
#
# Youngs Moduli (GPa) = 45.37157 45.37157 52.81440
#
# Poissons Ratio (x) = 0.06966 0.50639
# Poissons Ratio (y) = 0.06966 0.50639
# Poissons Ratio (z) = 0.43503 0.43503
#
# Static dielectric constant tensor:
#      x y z
#    x 2.897320 0.000000 0.000000 
#    y 0.000000 2.897320 0.000000 
#    z 0.000000 0.000000 3.305540 
# 
# 
# High freq. dielectric constant tensor:
#      x y z
#    x 1.621960 0.000000 0.000000 
#    y 0.000000 1.621960 0.000000 
#    z 0.000000 0.000000 1.665210 
# 
# From -- ./inp_files/1263.got.cif
#   From: 2010.03.12/outbox.cif.g09.slc.cpg/sg83_1_cif.got.tgz:1263.got - 2010.04.08 20:05:18.
