data_PCOD8302512
_publ_section_title
;
Structure prediction by ZEFSAII (Michael W. Deem and Ramdas Pophale) SiO2 
 PCOD8302512
Probable space group: I -4 
;
_chemical_formula_sum "Si O2"
_cell_formula_units_Z 32
_cell_length_a 8.224803
_cell_length_b 8.224803
_cell_length_c 20.418210
_cell_angle_alpha 90.000000
_cell_angle_beta 90.000000
_cell_angle_gamma 90.000000
_cell_volume 1381.238500
_symmetry_space_group_name_H-M "I -4 "
_symmetry_group_IT_number 82
_symmetry_cell_setting 'tetragonal'
loop_
_space_group_symop_operation_xyz
x,y,z
y,-x,-z
-x,-y,z
-y,x,-z
1/2+x,1/2+y,1/2+z
1/2+y,1/2-x,1/2-z
1/2-x,1/2-y,1/2+z
1/2-y,1/2+x,1/2-z
loop_
_atom_site_type_symbol
_atom_site_label
_atom_site_fract_x
_atom_site_fract_y
_atom_site_fract_z
Si Si1 0.500000 0.000000 0.886190
Si Si2 0.753250 0.462971 0.497701
Si Si3 0.170625 0.943329 0.683528
Si Si4 0.500000 0.500000 0.308002
Si Si5 0.087004 0.337375 0.863357
O O1 0.522692 0.164936 0.844663
O O2 0.654930 0.983282 0.932497
O O3 0.624701 0.330093 0.474317
O O4 0.860635 0.391860 0.557818
O O5 0.176687 0.751674 0.676159
O O6 0.159914 0.992716 0.760543
O O7 0.000000 0.000000 0.648197
O O8 0.496902 0.664265 0.351227
O O9 0.000000 0.500000 0.835668
#
# Coordination Sequence:
#
# PCOD8302512 Si02
#       5
#     4   8   8   4   8
#     4  12  24  48  77 108 149 196 242 310 392 438
#     4  11  24  44  72 107 144 188 245 310 373 455
#     4  10  28  47  69 111 147 200 243 308 373 455
#     4  10  28  48  71 111 152 194 256 310 372 458
#     4  12  26  47  76 109 147 200 255 311 379 452
#
# _framework density 23.167614
#
# number of rings (size 3 to 8) (size 9 to 14) (size 15 to 20)
#    0.750    0.250    3.750    1.500    7.000    2.000 
#    0.000    0.000    0.000    0.000    0.000    0.000 
#    0.000    0.000    0.000    0.000    0.000    0.000 
#
# Total GULP energy -198265.471299 kJ/mol
# GULP energy per Si atom -12391.591956 kJ/mol
# Density = 2.311488 g / cm^3
# Si number density = 23.167614 Si / 1000 Ang^3
#
#
#
# Elastic Constant Matrix: (Units=GPa)
#
#
# Indices 1 2 3 4 5 6 
#
# 1 137.7096 23.3784 24.3372 0.0000 0.0000 3.0722
# 2 23.3784 137.7096 24.3372 0.0000 0.0000 -3.0722
# 3 24.3372 24.3372 90.3497 0.0000 0.0000 0.0000
# 4 0.0000 0.0000 0.0000 29.7401 0.0000 0.0000
# 5 0.0000 0.0000 0.0000 0.0000 29.7401 0.0000
# 6 3.0722 -3.0722 0.0000 0.0000 0.0000 25.7673
#
#
#
# Elastic Compliance Matrix: (Units=1/GPa)
#
#
# Indices 1 2 3 4 5 6 
#
# 1 0.007780 -0.001023 -0.001820 0.000000 0.000000 -0.001050
# 2 -0.001023 0.007780 -0.001820 0.000000 0.000000 0.001050
# 3 -0.001820 -0.001820 0.012049 0.000000 0.000000 0.000000
# 4 0.000000 0.000000 0.000000 0.033625 0.000000 0.000000
# 5 0.000000 0.000000 0.000000 0.000000 0.033625 0.000000
# 6 -0.001050 0.001050 0.000000 0.000000 0.000000 0.039059
#
#
# Mechanical properties :
#
#
# Convention : Reuss Voigt Hill
#
# Bulk Modulus (GPa) = 54.69536 56.65274 55.67405
# Shear Modulus (GPa) = 33.48094 36.63058 35.05576
#
# Velocity S-wave (km/s) = 3.80565 3.98063 3.89413
# Velocity P-wave (km/s) = 6.55518 6.75528 6.65598
#
# Compressibility (1/GPa) = 0.01828309
#
# Stress axis : x y z
#
# Youngs Moduli (GPa) = 128.52857 128.52857 82.99592
#
# Poissons Ratio (x) = 0.13143 0.15108
# Poissons Ratio (y) = 0.13143 0.15108
# Poissons Ratio (z) = 0.23396 0.23396
#
# Static dielectric constant tensor:
#      x y z
#    x 4.325220 0.000000 0.000000 
#    y 0.000000 4.325220 0.000000 
#    z 0.000000 0.000000 4.090870 
# 
# 
# High freq. dielectric constant tensor:
#      x y z
#    x 1.915520 0.000000 0.000000 
#    y 0.000000 1.915520 0.000000 
#    z 0.000000 0.000000 1.916380 
# 
# From -- ./inp_files/2897.got.cif
#   From: 2010.03.12/outbox.cif.g09.slc.cpg/sg82_2_cif.got.tgz:2897.got - 2010.04.08 20:02:50.
