data_PCOD8302200
_publ_section_title
;
Structure prediction by ZEFSAII (Michael W. Deem and Ramdas Pophale) SiO2 
 PCOD8302200
Probable space group: I 41
;
_chemical_formula_sum "Si O2"
_cell_formula_units_Z 32
_cell_length_a 16.301201
_cell_length_b 16.301201
_cell_length_c 5.356455
_cell_angle_alpha 90.000000
_cell_angle_beta 90.000000
_cell_angle_gamma 90.000000
_cell_volume 1423.366256
_symmetry_space_group_name_H-M "I 41"
_symmetry_group_IT_number 80
_symmetry_cell_setting 'tetragonal'
loop_
_space_group_symop_operation_xyz
x,y,z
-y,1/2+x,1/4+z
-x,-y,z
y,1/2-x,1/4+z
1/2+x,1/2+y,1/2+z
1/2-y,x,3/4+z
1/2-x,1/2-y,1/2+z
1/2+y,-x,3/4+z
loop_
_atom_site_type_symbol
_atom_site_label
_atom_site_fract_x
_atom_site_fract_y
_atom_site_fract_z
Si Si1 0.312813 0.643116 0.525760
Si Si2 0.117872 0.442035 0.556450
Si Si3 0.370438 0.977494 0.548805
Si Si4 0.021459 0.279119 0.532037
O O1 0.343707 0.721863 0.677754
O O2 0.378364 0.626935 0.305045
O O3 0.316873 0.565849 0.707553
O O4 0.082521 0.493321 0.796086
O O5 0.217419 0.443785 0.567533
O O6 0.087436 0.349351 0.578536
O O7 0.088475 0.483533 0.297096
O O8 0.275153 0.007825 0.532933
#
# Coordination Sequence:
#
# PCOD8302200 Si02
#       4
#     8   8   8   8
#     4  12  23  44  73 106 146 193 242 299 361 438
#     4  10  24  46  72 104 145 180 243 291 362 425
#     4  10  24  45  64 111 134 194 229 293 361 412
#     4  10  25  47  73 108 142 187 244 291 367 425
#
# _framework density 22.481915000000001
#
# number of rings (size 3 to 8) (size 9 to 14) (size 15 to 20)
#    1.500    0.000    2.500    1.500    3.500    3.000 
#    4.500    5.000    0.000    0.000    0.000    0.000 
#    0.000    0.000    0.000    0.000    0.000    0.000 
#
# Total GULP energy -198272.672695 kJ/mol
# GULP energy per Si atom -12392.042043 kJ/mol
# Density = 2.243075 g / cm^3
# Si number density = 22.481915 Si / 1000 Ang^3
#
#
#
# Elastic Constant Matrix: (Units=GPa)
#
#
# Indices 1 2 3 4 5 6 
#
# 1 91.4861 39.5593 21.9502 0.0000 0.0000 -14.9237
# 2 39.5593 91.4861 21.9502 0.0000 0.0000 14.9237
# 3 21.9502 21.9502 139.2723 0.0000 0.0000 0.0000
# 4 0.0000 0.0000 0.0000 -4.5236 0.0000 0.0000
# 5 0.0000 0.0000 0.0000 0.0000 -4.5236 0.0000
# 6 -14.9237 14.9237 0.0000 0.0000 0.0000 26.1738
#
#
#
# Elastic Compliance Matrix: (Units=1/GPa)
#
#
# Indices 1 2 3 4 5 6 
#
# 1 0.018351 -0.010295 -0.001270 0.000000 0.000000 0.016333
# 2 -0.010295 0.018351 -0.001270 0.000000 0.000000 -0.016333
# 3 -0.001270 -0.001270 0.007580 0.000000 0.000000 0.000000
# 4 0.000000 0.000000 0.000000 -0.221061 0.000000 0.000000
# 5 0.000000 0.000000 0.000000 0.000000 -0.221061 0.000000
# 6 0.016333 -0.016333 0.000000 0.000000 0.000000 0.056832
#
#
# Mechanical properties :
#
#
# Convention : Reuss Voigt Hill
#
# Bulk Modulus (GPa) = 53.72267 54.35155 54.03711
# Shear Modulus (GPa) = -16.17420 19.34431 1.58506
#
# Velocity S-wave (km/s) = -2.68513 2.93651 0.84058
# Velocity P-wave (km/s) = 3.78610 5.97709 5.00301
#
# Compressibility (1/GPa) = 0.01861412
#
# Stress axis : x y z
#
# Youngs Moduli (GPa) = 54.49212 54.49212 131.91895
#
# Poissons Ratio (x) = 0.56099 0.16750
# Poissons Ratio (y) = 0.56099 0.16750
# Poissons Ratio (z) = 0.06919 0.06919
#
# Static dielectric constant tensor:
#      x y z
#    x 3.937220 0.000000 0.000000 
#    y 0.000000 3.937220 0.000000 
#    z 0.000000 0.000000 3.868890 
# 
# 
# High freq. dielectric constant tensor:
#      x y z
#    x 1.883450 0.000000 0.000000 
#    y 0.000000 1.883450 0.000000 
#    z 0.000000 0.000000 1.880340 
# 
# From -- ./inp_files/142.got.cif
#   From: 2010.03.12/outbox.cif.g09.slc.cpg/sg80_cif.got.tgz:142.got - 2010.04.08 20:00:04.
