data_PCOD8302475
_publ_section_title
;
Structure prediction by ZEFSAII (Michael W. Deem and Ramdas Pophale) SiO2 
 PCOD8302475
Probable space group: I -4 
;
_chemical_formula_sum "Si O2"
_cell_formula_units_Z 50
_cell_length_a 13.889576
_cell_length_b 13.889576
_cell_length_c 11.438728
_cell_angle_alpha 90.000000
_cell_angle_beta 90.000000
_cell_angle_gamma 90.000000
_cell_volume 2206.763083
_symmetry_space_group_name_H-M "I -4 "
_symmetry_group_IT_number 82
_symmetry_cell_setting 'tetragonal'
loop_
_space_group_symop_operation_xyz
x,y,z
y,-x,-z
-x,-y,z
-y,x,-z
1/2+x,1/2+y,1/2+z
1/2+y,1/2-x,1/2-z
1/2-x,1/2-y,1/2+z
1/2-y,1/2+x,1/2-z
loop_
_atom_site_type_symbol
_atom_site_label
_atom_site_fract_x
_atom_site_fract_y
_atom_site_fract_z
Si Si1 0.548062 0.794749 0.813599
Si Si2 0.433261 0.592841 0.825641
Si Si3 0.662870 0.672842 0.968533
Si Si4 0.500000 0.000000 0.750000
Si Si5 0.244999 0.915246 0.168396
Si Si6 0.884883 0.251431 0.755483
Si Si7 0.748680 0.152354 0.916167
O O1 0.483264 0.698268 0.820514
O O2 0.627333 0.776857 0.916554
O O3 0.594929 0.805235 0.685586
O O4 0.500095 0.901147 0.829946
O O5 0.500000 0.500000 0.814150
O O6 0.362730 0.589691 0.715556
O O7 0.375963 0.582817 0.949106
O O8 0.682173 0.602813 0.857474
O O9 0.757410 0.683657 0.046974
O O10 0.305851 0.829803 0.223402
O O11 0.297269 0.013219 0.210348
O O12 0.237190 0.914704 0.028627
O O13 0.850767 0.188981 0.866567
#
# Coordination Sequence:
#
# PCOD8302475 Si02
#       7
#     8   8   8   2   8   8   8
#     4  11  27  45  72 112 147 195 257 304 373 457
#     4  12  26  45  75 111 144 189 253 312 377 443
#     4  10  23  43  74  98 148 191 237 309 369 432
#     4  12  28  48  72 112 154 200 248 304 380 446
#     4  11  25  44  73 101 147 188 239 303 374 440
#     4  10  23  44  69 107 136 192 238 295 370 437
#     4  10  22  46  72  99 148 193 236 303 375 439
#
# _framework density 22.657620999999999
#
# number of rings (size 3 to 8) (size 9 to 14) (size 15 to 20)
#    0.000    1.280    1.600    2.880   11.200    0.320 
#    0.000    0.000    0.000    0.000    0.000    0.000 
#    0.000    0.000    0.000    0.000    0.000    0.000 
#
# Total GULP energy -309834.509897 kJ/mol
# GULP energy per Si atom -12393.380396 kJ/mol
# Density = 2.260605 g / cm^3
# Si number density = 22.657621 Si / 1000 Ang^3
#
#
#
# Elastic Constant Matrix: (Units=GPa)
#
#
# Indices 1 2 3 4 5 6 
#
# 1 124.7383 41.0358 49.8340 0.0000 0.0000 0.8693
# 2 41.0358 124.7383 49.8340 0.0000 0.0000 -0.8693
# 3 49.8340 49.8340 139.7219 0.0000 0.0000 0.0000
# 4 0.0000 0.0000 0.0000 26.0337 0.0000 0.0000
# 5 0.0000 0.0000 0.0000 0.0000 26.0337 0.0000
# 6 0.8693 -0.8693 0.0000 0.0000 0.0000 34.0128
#
#
#
# Elastic Compliance Matrix: (Units=1/GPa)
#
#
# Indices 1 2 3 4 5 6 
#
# 1 0.009816 -0.002137 -0.002739 0.000000 0.000000 -0.000305
# 2 -0.002137 0.009816 -0.002739 0.000000 0.000000 0.000305
# 3 -0.002739 -0.002739 0.009111 0.000000 0.000000 0.000000
# 4 0.000000 0.000000 0.000000 0.038412 0.000000 0.000000
# 5 0.000000 0.000000 0.000000 0.000000 0.038412 0.000000
# 6 -0.000305 0.000305 0.000000 0.000000 0.000000 0.029416
#
#
# Mechanical properties :
#
#
# Convention : Reuss Voigt Hill
#
# Bulk Modulus (GPa) = 74.00063 74.51178 74.25621
# Shear Modulus (GPa) = 32.31706 33.78237 33.04971
#
# Velocity S-wave (km/s) = 3.78076 3.86553 3.82338
# Velocity P-wave (km/s) = 7.19654 7.27189 7.23431
#
# Compressibility (1/GPa) = 0.01351340
#
# Stress axis : x y z
#
# Youngs Moduli (GPa) = 101.87255 101.87255 109.76037
#
# Poissons Ratio (x) = 0.21773 0.30061
# Poissons Ratio (y) = 0.21773 0.30061
# Poissons Ratio (z) = 0.27901 0.27901
#
# Static dielectric constant tensor:
#      x y z
#    x 4.121600 0.000000 0.000000 
#    y 0.000000 4.121600 0.000000 
#    z 0.000000 0.000000 4.331500 
# 
# 
# High freq. dielectric constant tensor:
#      x y z
#    x 1.894190 0.000000 0.000000 
#    y 0.000000 1.894190 0.000000 
#    z 0.000000 0.000000 1.899180 
# 
# From -- ./inp_files/1813.got.cif
#   From: 2010.03.12/outbox.cif.g09.slc.cpg/sg82_1_cif.got.tgz:1813.got - 2010.04.08 20:02:50.
