data_PCOD8302457
_publ_section_title
;
Structure prediction by ZEFSAII (Michael W. Deem and Ramdas Pophale) SiO2 
 PCOD8302457
Probable space group: I -4 
;
_chemical_formula_sum "Si O2"
_cell_formula_units_Z 48
_cell_length_a 9.459582
_cell_length_b 9.459582
_cell_length_c 25.308801
_cell_angle_alpha 90.000000
_cell_angle_beta 90.000000
_cell_angle_gamma 90.000000
_cell_volume 2264.724944
_symmetry_space_group_name_H-M "I -4 "
_symmetry_group_IT_number 82
_symmetry_cell_setting 'tetragonal'
loop_
_space_group_symop_operation_xyz
x,y,z
y,-x,-z
-x,-y,z
-y,x,-z
1/2+x,1/2+y,1/2+z
1/2+y,1/2-x,1/2-z
1/2-x,1/2-y,1/2+z
1/2-y,1/2+x,1/2-z
loop_
_atom_site_type_symbol
_atom_site_label
_atom_site_fract_x
_atom_site_fract_y
_atom_site_fract_z
Si Si1 0.848070 0.777655 0.447645
Si Si2 0.835066 0.511669 0.888595
Si Si3 0.196283 0.406153 0.771049
Si Si4 0.663236 0.996802 0.883902
Si Si5 0.427687 0.203104 0.731062
Si Si6 0.719386 0.676864 0.063263
O O1 0.744932 0.907101 0.435383
O O2 0.794785 0.649585 0.411066
O O3 0.825848 0.744707 0.509327
O O4 0.010650 0.819448 0.436779
O O5 0.809987 0.591216 0.833970
O O6 0.759203 0.358443 0.888588
O O7 0.000000 0.500000 0.901781
O O8 0.187380 0.564864 0.748890
O O9 0.344064 0.337783 0.753679
O O10 0.500000 0.000000 0.868908
O O11 0.742459 0.021449 0.828214
O O12 0.699661 0.115147 0.927071
O O13 0.564685 0.174046 0.767845
#
# Coordination Sequence:
#
# PCOD8302457 Si02
#       6
#     8   8   8   8   8   8
#     4  11  24  43  69 101 133 170 233 281 333 405
#     4  12  25  42  69  96 134 182 222 284 343 390
#     4  11  24  46  64  95 138 174 223 275 339 410
#     4  10  22  41  67  99 134 172 216 279 344 403
#     4  11  22  42  69  99 132 171 224 276 334 405
#     4  11  24  42  70 100 131 175 228 281 335 403
#
# _framework density 21.194628999999999
#
# number of rings (size 3 to 8) (size 9 to 14) (size 15 to 20)
#    0.000    1.000    5.000    2.500    4.667    0.667 
#    3.000    0.833    0.000    0.000    0.000    0.000 
#    0.000    0.000    0.000    0.000    0.000    0.000 
#
# Total GULP energy -297656.841992 kJ/mol
# GULP energy per Si atom -12402.368416 kJ/mol
# Density = 2.114639 g / cm^3
# Si number density = 21.194629 Si / 1000 Ang^3
#
#
#
# Elastic Constant Matrix: (Units=GPa)
#
#
# Indices 1 2 3 4 5 6 
#
# 1 83.6403 32.7469 36.1020 0.0000 0.0000 -5.9927
# 2 32.7469 83.6403 36.1020 0.0000 0.0000 5.9927
# 3 36.1020 36.1020 100.1013 0.0000 0.0000 0.0000
# 4 0.0000 0.0000 0.0000 31.6205 0.0000 0.0000
# 5 0.0000 0.0000 0.0000 0.0000 31.6205 0.0000
# 6 -5.9927 5.9927 0.0000 0.0000 0.0000 26.7457
#
#
#
# Elastic Compliance Matrix: (Units=1/GPa)
#
#
# Indices 1 2 3 4 5 6 
#
# 1 0.015906 -0.004837 -0.003992 0.000000 0.000000 0.004648
# 2 -0.004837 0.015906 -0.003992 0.000000 0.000000 -0.004648
# 3 -0.003992 -0.003992 0.012869 0.000000 0.000000 0.000000
# 4 0.000000 0.000000 0.000000 0.031625 0.000000 0.000000
# 5 0.000000 0.000000 0.000000 0.000000 0.031625 0.000000
# 6 0.004648 -0.004648 0.000000 0.000000 0.000000 0.039472
#
#
# Mechanical properties :
#
#
# Convention : Reuss Voigt Hill
#
# Bulk Modulus (GPa) = 52.52472 53.03152 52.77812
# Shear Modulus (GPa) = 27.87187 28.82605 28.34896
#
# Velocity S-wave (km/s) = 3.63029 3.69191 3.66123
# Velocity P-wave (km/s) = 6.51213 6.57640 6.54435
#
# Compressibility (1/GPa) = 0.01903865
#
# Stress axis : x y z
#
# Youngs Moduli (GPa) = 62.86938 62.86937 77.70432
#
# Poissons Ratio (x) = 0.30413 0.31019
# Poissons Ratio (y) = 0.30413 0.31019
# Poissons Ratio (z) = 0.25097 0.25097
#
# Static dielectric constant tensor:
#      x y z
#    x 3.786750 0.000000 0.000000 
#    y 0.000000 3.786750 0.000000 
#    z 0.000000 0.000000 3.761120 
# 
# 
# High freq. dielectric constant tensor:
#      x y z
#    x 1.823270 0.000000 0.000000 
#    y 0.000000 1.823270 0.000000 
#    z 0.000000 0.000000 1.841740 
# 
# From -- ./inp_files/4051.got.cif
#   From: 2010.03.12/outbox.cif.g09.slc.cpg/sg82_3_cif.got.tgz:4051.got - 2010.04.08 20:02:50.
