data_PCOD8302225
_publ_section_title
;
Structure prediction by ZEFSAII (Michael W. Deem and Ramdas Pophale) SiO2 
 PCOD8302225
Probable space group: I 41
;
_chemical_formula_sum "Si O2"
_cell_formula_units_Z 36
_cell_length_a 12.050354
_cell_length_b 12.050354
_cell_length_c 9.632792
_cell_angle_alpha 90.000000
_cell_angle_beta 90.000000
_cell_angle_gamma 90.000000
_cell_volume 1398.787663
_symmetry_space_group_name_H-M "I 41"
_symmetry_group_IT_number 80
_symmetry_cell_setting 'tetragonal'
loop_
_space_group_symop_operation_xyz
x,y,z
-y,1/2+x,1/4+z
-x,-y,z
y,1/2-x,1/4+z
1/2+x,1/2+y,1/2+z
1/2-y,x,3/4+z
1/2-x,1/2-y,1/2+z
1/2+y,-x,3/4+z
loop_
_atom_site_type_symbol
_atom_site_label
_atom_site_fract_x
_atom_site_fract_y
_atom_site_fract_z
Si Si1 0.176075 0.474506 0.962040
Si Si2 0.475965 0.831158 0.461739
Si Si3 0.161828 0.822261 0.141306
Si Si4 0.000000 0.000000 0.215412
Si Si5 0.320347 0.334539 0.775747
O O1 0.127740 0.592809 0.916174
O O2 0.227064 0.420355 0.826276
O O3 0.076860 0.400924 0.025591
O O4 0.269755 0.484217 0.075799
O O5 0.438353 0.750584 0.582257
O O6 0.186633 0.772304 0.295102
O O7 0.107759 0.946085 0.138266
O O8 0.058311 0.105226 0.293290
O O9 0.280199 0.311968 0.616095
#
# Coordination Sequence:
#
# PCOD8302225 Si02
#       5
#     8   8   8   4   8
#     4  11  25  44  75 113 155 201 263 313 386 458
#     4  11  25  44  75 113 155 201 263 313 386 458
#     4  12  29  52  81 114 159 206 262 323 393 465
#     4  12  32  48  80 118 164 192 264 330 396 448
#     4  12  29  52  81 114 159 206 262 323 393 465
#
# _framework density 25.73657
#
# number of rings (size 3 to 8) (size 9 to 14) (size 15 to 20)
#    0.000    0.444    4.444    1.333   12.444    0.000 
#    0.000    0.000    0.000    0.000    0.000    0.000 
#    0.000    0.000    0.000    0.000    0.000    0.000 
#
# Total GULP energy -223065.384476 kJ/mol
# GULP energy per Si atom -12392.521360 kJ/mol
# Density = 2.567799 g / cm^3
# Si number density = 25.736570 Si / 1000 Ang^3
#
#
#
# Elastic Constant Matrix: (Units=GPa)
#
#
# Indices 1 2 3 4 5 6 
#
# 1 105.6941 25.9597 40.0579 0.0000 0.0000 15.0539
# 2 25.9597 105.6941 40.0579 0.0000 0.0000 -15.0539
# 3 40.0579 40.0579 90.0740 0.0000 0.0000 0.0000
# 4 0.0000 0.0000 0.0000 40.5000 0.0000 0.0000
# 5 0.0000 0.0000 0.0000 0.0000 40.5000 0.0000
# 6 15.0539 -15.0539 0.0000 0.0000 0.0000 70.3022
#
#
#
# Elastic Compliance Matrix: (Units=1/GPa)
#
#
# Indices 1 2 3 4 5 6 
#
# 1 0.012029 -0.001615 -0.004631 0.000000 0.000000 -0.002922
# 2 -0.001615 0.012029 -0.004631 0.000000 0.000000 0.002922
# 3 -0.004631 -0.004631 0.015221 0.000000 0.000000 0.000000
# 4 0.000000 0.000000 0.000000 0.024691 0.000000 0.000000
# 5 0.000000 0.000000 0.000000 0.000000 0.024691 0.000000
# 6 -0.002922 0.002922 0.000000 0.000000 0.000000 0.015476
#
#
# Mechanical properties :
#
#
# Convention : Reuss Voigt Hill
#
# Bulk Modulus (GPa) = 57.06473 57.06812 57.06643
# Shear Modulus (GPa) = 37.95467 43.28621 40.62044
#
# Velocity S-wave (km/s) = 3.84440 4.10554 3.97711
# Velocity P-wave (km/s) = 6.47508 6.68551 6.58113
#
# Compressibility (1/GPa) = 0.01752396
#
# Stress axis : x y z
#
# Youngs Moduli (GPa) = 83.12927 83.12927 65.69746
#
# Poissons Ratio (x) = 0.13429 0.30427
# Poissons Ratio (y) = 0.13429 0.30427
# Poissons Ratio (z) = 0.38500 0.38500
#
# Static dielectric constant tensor:
#      x y z
#    x 4.638170 0.000000 0.000000 
#    y 0.000000 4.638170 0.000000 
#    z 0.000000 0.000000 4.204420 
# 
# 
# High freq. dielectric constant tensor:
#      x y z
#    x 2.050550 0.000000 0.000000 
#    y 0.000000 2.050550 0.000000 
#    z 0.000000 0.000000 1.996000 
# 
# From -- ./inp_files/955.got.cif
#   From: 2010.03.12/outbox.cif.g09.slc.cpg/sg80_cif.got.tgz:955.got - 2010.04.08 20:00:04.
