data_PCOD8302968
_publ_section_title
;
Structure prediction by ZEFSAII (Michael W. Deem and Ramdas Pophale) SiO2 
 PCOD8302968
Probable space group: P 4/M
;
_chemical_formula_sum "Si O2"
_cell_formula_units_Z 33
_cell_length_a 8.690721
_cell_length_b 8.690721
_cell_length_c 20.519873
_cell_angle_alpha 90.000000
_cell_angle_beta 90.000000
_cell_angle_gamma 90.000000
_cell_volume 1549.837926
_symmetry_space_group_name_H-M "P 4/M"
_symmetry_group_IT_number 83
_symmetry_cell_setting 'tetragonal'
loop_
_space_group_symop_operation_xyz
x,y,z
-y,x,z
-x,-y,z
y,-x,z
-x,-y,-z
y,-x,-z
x,y,-z
-y,x,-z
loop_
_atom_site_type_symbol
_atom_site_label
_atom_site_fract_x
_atom_site_fract_y
_atom_site_fract_z
Si Si1 0.614960 0.274098 0.373989
Si Si2 0.395965 0.731056 0.000000
Si Si3 0.665818 0.081299 0.500000
Si Si4 0.776494 0.115779 0.260199
Si Si5 0.225396 0.887819 0.888069
Si Si6 0.000000 0.000000 0.500000
O O1 0.704890 0.433642 0.375841
O O2 0.677260 0.181947 0.435099
O O3 0.647815 0.182293 0.307552
O O4 0.298413 0.575814 0.000000
O O5 0.357674 0.827359 0.935383
O O6 0.500000 0.000000 0.500000
O O7 0.813895 0.965402 0.500000
O O8 0.721494 0.141111 0.186065
O O9 0.935801 0.202750 0.274228
O O10 0.067567 0.798094 0.901910
#
# Coordination Sequence:
#
# PCOD8302968 Si02
#       6
#     8   4   4   8   8   1
#     4  11  25  43  63  92 132 173 210 267 335 395
#     4  11  24  37  54  84 124 165 208 259 314 382
#     4  12  28  47  70 103 132 171 225 280 334 402
#     4   9  21  39  64  93 125 160 212 267 319 392
#     4   9  19  39  62  89 119 158 206 265 320 376
#     4  12  28  44  76 104 124 180 228 270 340 400
#
# _framework density 21.292549999999999
#
# number of rings (size 3 to 8) (size 9 to 14) (size 15 to 20)
#    0.000    1.818    0.000    4.364    6.788    5.818 
#    0.000    7.273    0.000    0.000    0.000    0.000 
#    0.000    0.000    0.000    0.000    0.000    0.000 
#
# Total GULP energy -408840.802937 kJ/mol
# GULP energy per Si atom -12389.115241 kJ/mol
# Density = 2.124409 g / cm^3
# Si number density = 21.292550 Si / 1000 Ang^3
#
#
#
# Elastic Constant Matrix: (Units=GPa)
#
#
# Indices 1 2 3 4 5 6 
#
# 1 52.7286 46.9098 37.4944 0.0000 0.0000 10.2971
# 2 46.9098 52.7286 37.4944 0.0000 0.0000 -10.2971
# 3 37.4944 37.4944 132.7328 0.0000 0.0000 0.0000
# 4 0.0000 0.0000 0.0000 -21.8681 0.0000 0.0000
# 5 0.0000 0.0000 0.0000 0.0000 -21.8681 0.0000
# 6 10.2971 -10.2971 0.0000 0.0000 0.0000 26.8043
#
#
#
# Elastic Compliance Matrix: (Units=1/GPa)
#
#
# Indices 1 2 3 4 5 6 
#
# 1 -0.232557 0.245303 -0.003601 0.000000 0.000000 0.183574
# 2 0.245303 -0.232557 -0.003601 0.000000 0.000000 -0.183574
# 3 -0.003601 -0.003601 0.009568 0.000000 0.000000 0.000000
# 4 0.000000 0.000000 0.000000 -0.045729 0.000000 0.000000
# 5 0.000000 0.000000 0.000000 0.000000 -0.045729 0.000000
# 6 0.183574 -0.183574 0.000000 0.000000 0.000000 -0.103736
#
#
# Mechanical properties :
#
#
# Convention : Reuss Voigt Hill
#
# Bulk Modulus (GPa) = 48.40703 53.55416 50.98059
# Shear Modulus (GPa) = -4.46406 4.36638 -0.04884
#
# Velocity S-wave (km/s) = -1.44951 1.43357 -0.15161
# Velocity P-wave (km/s) = 4.47014 5.28643 4.89533
#
# Compressibility (1/GPa) = 0.02065816
#
# Stress axis : x y z
#
# Youngs Moduli (GPa) = -4.30002 -4.30002 104.51412
#
# Poissons Ratio (x) = 1.05481 0.37630
# Poissons Ratio (y) = 1.05481 0.37630
# Poissons Ratio (z) = -0.01548 -0.01548
#
# Static dielectric constant tensor:
#      x y z
#    x 3.813220 0.000000 0.000000 
#    y 0.000000 3.813220 0.000000 
#    z 0.000000 0.000000 3.859520 
# 
# 
# High freq. dielectric constant tensor:
#      x y z
#    x 1.840160 0.000000 0.000000 
#    y 0.000000 1.840160 0.000000 
#    z 0.000000 0.000000 1.839000 
# 
# From -- ./inp_files/2866.got.cif
#   From: 2010.03.12/outbox.cif.g09.slc.cpg/sg83_2_cif.got.tgz:2866.got - 2010.04.08 20:05:18.
