data_PCOD8302995
_publ_section_title
;
Structure prediction by ZEFSAII (Michael W. Deem and Ramdas Pophale) SiO2 
 PCOD8302995
Probable space group: P 4/M
;
_chemical_formula_sum "Si O2"
_cell_formula_units_Z 48
_cell_length_a 8.376400
_cell_length_b 8.376400
_cell_length_c 32.099315
_cell_angle_alpha 90.000000
_cell_angle_beta 90.000000
_cell_angle_gamma 90.000000
_cell_volume 2252.218808
_symmetry_space_group_name_H-M "P 4/M"
_symmetry_group_IT_number 83
_symmetry_cell_setting 'tetragonal'
loop_
_space_group_symop_operation_xyz
x,y,z
-y,x,z
-x,-y,z
y,-x,z
-x,-y,-z
y,-x,-z
x,y,-z
-y,x,-z
loop_
_atom_site_type_symbol
_atom_site_label
_atom_site_fract_x
_atom_site_fract_y
_atom_site_fract_z
Si Si1 0.242894 0.903544 0.952310
Si Si2 0.751151 0.423938 0.500000
Si Si3 0.251210 0.072600 0.751502
Si Si4 0.245673 0.574313 0.410310
Si Si5 0.000000 0.500000 0.815148
Si Si6 0.925791 0.251422 0.658050
Si Si7 0.575161 0.246480 0.119181
O O1 0.390192 0.845776 0.923995
O O2 0.087357 0.796794 0.942678
O O3 0.296615 0.882153 0.000000
O O4 0.694001 0.603880 0.500000
O O5 0.841745 0.397068 0.455762
O O6 0.386281 0.107075 0.785656
O O7 0.320141 0.094274 0.704817
O O8 0.108171 0.194474 0.758327
O O9 0.305618 0.394295 0.405644
O O10 0.116362 0.609487 0.374575
O O11 0.121779 0.396437 0.843307
O O12 0.105141 0.194475 0.650820
O O13 0.696872 0.393078 0.121899
#
# Coordination Sequence:
#
# PCOD8302995 Si02
#       7
#     8   4   8   8   4   8   8
#     4   9  19  38  64  91 117 149 192 234 268 315
#     4   7  12  26  46  69 100 134 166 205 250 301
#     4   9  20  38  58  79 103 136 180 224 269 323
#     4   9  17  30  51  77 102 131 170 212 256 309
#     4  12  22  38  61  82 106 145 188 228 270 322
#     4   9  19  35  52  73 103 135 169 213 263 314
#     4  11  24  39  56  85 122 153 183 226 281 330
#
# _framework density 21.312314000000001
#
# number of rings (size 3 to 8) (size 9 to 14) (size 15 to 20)
#    0.000    2.583    0.000    4.500    0.000    4.000 
#    0.000    5.417    0.000    6.000    0.000    0.000 
#    0.000    0.000    0.000    0.000    0.000    0.000 
#
# Total GULP energy -594949.790222 kJ/mol
# GULP energy per Si atom -12394.787296 kJ/mol
# Density = 2.126381 g / cm^3
# Si number density = 21.312314 Si / 1000 Ang^3
#
#
#
# Elastic Constant Matrix: (Units=GPa)
#
#
# Indices 1 2 3 4 5 6 
#
# 1 60.5046 23.3575 54.2842 0.0000 0.0000 -4.9209
# 2 23.3575 60.5046 54.2842 0.0000 0.0000 4.9209
# 3 54.2842 54.2842 178.9706 0.0000 0.0000 0.0000
# 4 0.0000 0.0000 0.0000 16.8867 0.0000 0.0000
# 5 0.0000 0.0000 0.0000 0.0000 16.8867 0.0000
# 6 -4.9209 4.9209 0.0000 0.0000 0.0000 32.9775
#
#
#
# Elastic Compliance Matrix: (Units=1/GPa)
#
#
# Indices 1 2 3 4 5 6 
#
# 1 0.023831 -0.004197 -0.005955 0.000000 0.000000 0.004182
# 2 -0.004197 0.023831 -0.005955 0.000000 0.000000 -0.004182
# 3 -0.005955 -0.005955 0.009200 0.000000 0.000000 0.000000
# 4 0.000000 0.000000 0.000000 0.059218 0.000000 0.000000
# 5 0.000000 0.000000 0.000000 0.000000 0.059218 0.000000
# 6 0.004182 -0.004182 0.000000 0.000000 0.000000 0.031572
#
#
# Mechanical properties :
#
#
# Convention : Reuss Voigt Hill
#
# Bulk Modulus (GPa) = 40.57256 62.64796 51.61026
# Shear Modulus (GPa) = 20.21826 24.55379 22.38602
#
# Velocity S-wave (km/s) = 3.08338 3.39793 3.24447
# Velocity P-wave (km/s) = 5.63514 6.69728 6.18904
#
# Compressibility (1/GPa) = 0.02464720
#
# Stress axis : x y z
#
# Youngs Moduli (GPa) = 41.96195 41.96195 108.69383
#
# Poissons Ratio (x) = 0.17611 0.64730
# Poissons Ratio (y) = 0.17611 0.64730
# Poissons Ratio (z) = 0.24990 0.24990
#
# Static dielectric constant tensor:
#      x y z
#    x 3.575170 0.000000 0.000000 
#    y 0.000000 3.575170 0.000000 
#    z 0.000000 0.000000 4.093250 
# 
# 
# High freq. dielectric constant tensor:
#      x y z
#    x 1.818810 0.000000 0.000000 
#    y 0.000000 1.818810 0.000000 
#    z 0.000000 0.000000 1.851580 
# 
# From -- ./inp_files/3507.got.cif
#   From: 2010.03.12/outbox.cif.g09.slc.cpg/sg83_2_cif.got.tgz:3507.got - 2010.04.08 20:05:18.
