data_PCOD8302728
_publ_section_title
;
Structure prediction by ZEFSAII (Michael W. Deem and Ramdas Pophale) SiO2 
 PCOD8302728
Probable space group: P 4/M
;
_chemical_formula_sum "Si O2"
_cell_formula_units_Z 40
_cell_length_a 14.406666
_cell_length_b 14.406666
_cell_length_c 10.213161
_cell_angle_alpha 90.000000
_cell_angle_beta 90.000000
_cell_angle_gamma 90.000000
_cell_volume 2119.762250
_symmetry_space_group_name_H-M "P 4/M"
_symmetry_group_IT_number 83
_symmetry_cell_setting 'tetragonal'
loop_
_space_group_symop_operation_xyz
x,y,z
-y,x,z
-x,-y,z
y,-x,z
-x,-y,-z
y,-x,-z
x,y,-z
-y,x,-z
loop_
_atom_site_type_symbol
_atom_site_label
_atom_site_fract_x
_atom_site_fract_y
_atom_site_fract_z
Si Si1 0.297056 0.889155 0.145492
Si Si2 0.424538 0.258322 0.263378
Si Si3 0.369183 0.742604 0.353963
Si Si4 0.590328 0.938844 0.150019
Si Si5 0.436360 0.361199 0.000000
Si Si6 0.126953 0.915954 0.000000
O O1 0.331309 0.816738 0.251100
O O2 0.323430 0.994335 0.185967
O O3 0.342806 0.868802 0.000000
O O4 0.184780 0.883956 0.129390
O O5 0.347898 0.303558 0.357816
O O6 0.525602 0.284376 0.318086
O O7 0.410995 0.147612 0.249715
O O8 0.405626 0.303491 0.124071
O O9 0.367359 0.785647 0.500000
O O10 0.500000 0.000000 0.174823
O O11 0.595645 0.903040 0.000000
O O12 0.545260 0.378001 0.000000
O O13 0.027148 0.872413 0.000000
#
# Coordination Sequence:
#
# PCOD8302728 Si02
#       6
#     8   8   8   8   4   4
#     4   9  22  38  64  92 124 159 206 256 307 368
#     4  12  24  39  65  89 127 164 207 263 315 376
#     4  12  27  44  59  87 128 171 214 256 314 376
#     4  10  19  34  61  97 124 149 196 257 316 359
#     4  11  22  35  56  95 121 157 200 255 302 360
#     4   9  20  37  66 103 133 156 198 261 327 377
#
# _framework density 18.870041000000001
#
# number of rings (size 3 to 8) (size 9 to 14) (size 15 to 20)
#    0.600    0.800    5.000    0.600    5.600    0.400 
#    0.000    4.000    0.000    0.000    0.000    1.400 
#    0.000    0.000    0.000    0.000    0.000    0.000 
#
# Total GULP energy -495820.469524 kJ/mol
# GULP energy per Si atom -12395.511738 kJ/mol
# Density = 1.882709 g / cm^3
# Si number density = 18.870041 Si / 1000 Ang^3
#
#
#
# Elastic Constant Matrix: (Units=GPa)
#
#
# Indices 1 2 3 4 5 6 
#
# 1 92.4992 15.8161 25.3770 0.0000 0.0000 -1.9854
# 2 15.8161 92.4992 25.3770 0.0000 0.0000 1.9854
# 3 25.3770 25.3770 85.2635 0.0000 0.0000 0.0000
# 4 0.0000 0.0000 0.0000 16.9723 0.0000 0.0000
# 5 0.0000 0.0000 0.0000 0.0000 16.9723 0.0000
# 6 -1.9854 1.9854 0.0000 0.0000 0.0000 30.7428
#
#
#
# Elastic Compliance Matrix: (Units=1/GPa)
#
#
# Indices 1 2 3 4 5 6 
#
# 1 0.011906 -0.001178 -0.003193 0.000000 0.000000 0.000845
# 2 -0.001178 0.011906 -0.003193 0.000000 0.000000 -0.000845
# 3 -0.003193 -0.003193 0.013629 0.000000 0.000000 0.000000
# 4 0.000000 0.000000 0.000000 0.058920 0.000000 0.000000
# 5 0.000000 0.000000 0.000000 0.000000 0.058920 0.000000
# 6 0.000845 -0.000845 0.000000 0.000000 0.000000 0.032637
#
#
# Mechanical properties :
#
#
# Convention : Reuss Voigt Hill
#
# Bulk Modulus (GPa) = 44.81569 44.82246 44.81907
# Shear Modulus (GPa) = 23.75471 26.51693 25.13582
#
# Velocity S-wave (km/s) = 3.55189 3.75272 3.65368
# Velocity P-wave (km/s) = 6.37357 6.52549 6.44998
#
# Compressibility (1/GPa) = 0.02231362
#
# Stress axis : x y z
#
# Youngs Moduli (GPa) = 83.98786 83.98786 73.37239
#
# Poissons Ratio (x) = 0.09893 0.23429
# Poissons Ratio (y) = 0.09893 0.23429
# Poissons Ratio (z) = 0.26819 0.26819
#
# Static dielectric constant tensor:
#      x y z
#    x 3.509900 0.000000 0.000000 
#    y 0.000000 3.509900 0.000000 
#    z 0.000000 0.000000 3.208110 
# 
# 
# High freq. dielectric constant tensor:
#      x y z
#    x 1.738020 0.000000 0.000000 
#    y 0.000000 1.738020 0.000000 
#    z 0.000000 0.000000 1.702060 
# 
# From -- ./inp_files/757.got.cif
#   From: 2010.03.12/outbox.cif.g09.slc.cpg/sg83_1_cif.got.tgz:757.got - 2010.04.08 20:05:18.
