data_PCOD8302386
_publ_section_title
;
Structure prediction by ZEFSAII (Michael W. Deem and Ramdas Pophale) SiO2 
 PCOD8302386
Probable space group: I -4 
;
_chemical_formula_sum "Si O2"
_cell_formula_units_Z 40
_cell_length_a 21.374809
_cell_length_b 21.374809
_cell_length_c 4.946928
_cell_angle_alpha 90.000000
_cell_angle_beta 90.000000
_cell_angle_gamma 90.000000
_cell_volume 2260.164633
_symmetry_space_group_name_H-M "I -4 "
_symmetry_group_IT_number 82
_symmetry_cell_setting 'tetragonal'
loop_
_space_group_symop_operation_xyz
x,y,z
y,-x,-z
-x,-y,z
-y,x,-z
1/2+x,1/2+y,1/2+z
1/2+y,1/2-x,1/2-z
1/2-x,1/2-y,1/2+z
1/2-y,1/2+x,1/2-z
loop_
_atom_site_type_symbol
_atom_site_label
_atom_site_fract_x
_atom_site_fract_y
_atom_site_fract_z
Si Si1 0.673296 0.720089 0.587084
Si Si2 0.458210 0.699487 0.950148
Si Si3 0.241405 0.170117 0.587766
Si Si4 0.437517 0.567211 0.908830
Si Si5 0.538819 0.678115 0.431394
O O1 0.693065 0.793215 0.550287
O O2 0.714262 0.677463 0.388136
O O3 0.600048 0.713897 0.531395
O O4 0.689086 0.698514 0.888701
O O5 0.404576 0.752933 0.955238
O O6 0.419789 0.635250 0.030099
O O7 0.485330 0.686427 0.653383
O O8 0.513243 0.713570 0.162605
O O9 0.395039 0.551636 0.646081
O O10 0.513601 0.571826 0.858065
#
# Coordination Sequence:
#
# PCOD8302386 Si02
#       5
#     8   8   8   8   8
#     4  10  20  35  57  72 100 130 179 210 270 307
#     4  11  22  34  52  72 103 131 174 216 254 294
#     4  10  20  36  54  76  96 135 171 221 259 317
#     4   9  20  33  46  65  98 140 177 206 239 284
#     4  11  22  34  53  71 101 132 171 219 250 299
#
# _framework density 17.697825000000002
#
# number of rings (size 3 to 8) (size 9 to 14) (size 15 to 20)
#    0.000    1.800    2.000    2.400    2.800    4.800 
#    0.000    2.000    0.000    0.000    0.000    0.000 
#    0.000    4.800    0.000    0.000    0.000    0.000 
#
# Total GULP energy -247762.328367 kJ/mol
# GULP energy per Si atom -12388.116418 kJ/mol
# Density = 1.765754 g / cm^3
# Si number density = 17.697825 Si / 1000 Ang^3
#
#
#
# Elastic Constant Matrix: (Units=GPa)
#
#
# Indices 1 2 3 4 5 6 
#
# 1 81.3550 47.1137 15.3119 0.0000 0.0000 -5.4393
# 2 47.1137 81.3550 15.3119 0.0000 0.0000 5.4393
# 3 15.3119 15.3119 60.0341 0.0000 0.0000 0.0000
# 4 0.0000 0.0000 0.0000 21.0193 0.0000 0.0000
# 5 0.0000 0.0000 0.0000 0.0000 21.0193 0.0000
# 6 -5.4393 5.4393 0.0000 0.0000 0.0000 24.8390
#
#
#
# Elastic Compliance Matrix: (Units=1/GPa)
#
#
# Indices 1 2 3 4 5 6 
#
# 1 0.019838 -0.011550 -0.002114 0.000000 0.000000 0.006873
# 2 -0.011550 0.019838 -0.002114 0.000000 0.000000 -0.006873
# 3 -0.002114 -0.002114 0.017735 0.000000 0.000000 0.000000
# 4 0.000000 0.000000 0.000000 0.047575 0.000000 0.000000
# 5 0.000000 0.000000 0.000000 0.000000 0.047575 0.000000
# 6 0.006873 -0.006873 0.000000 0.000000 0.000000 0.043270
#
#
# Mechanical properties :
#
#
# Convention : Reuss Voigt Hill
#
# Bulk Modulus (GPa) = 38.67599 42.02436 40.35018
# Shear Modulus (GPa) = 21.18586 23.04260 22.11423
#
# Velocity S-wave (km/s) = 3.46365 3.61224 3.53873
# Velocity P-wave (km/s) = 6.15604 6.41831 6.28854
#
# Compressibility (1/GPa) = 0.02585584
#
# Stress axis : x y z
#
# Youngs Moduli (GPa) = 50.40812 50.40812 56.38413
#
# Poissons Ratio (x) = 0.58222 0.11919
# Poissons Ratio (y) = 0.58222 0.11919
# Poissons Ratio (z) = 0.10656 0.10656
#
# Static dielectric constant tensor:
#      x y z
#    x 3.306490 0.000000 0.000000 
#    y 0.000000 3.306490 0.000000 
#    z 0.000000 0.000000 3.330780 
# 
# 
# High freq. dielectric constant tensor:
#      x y z
#    x 1.653930 0.000000 0.000000 
#    y 0.000000 1.653930 0.000000 
#    z 0.000000 0.000000 1.698370 
# 
# From -- ./inp_files/286.got.cif
#   From: 2010.03.12/outbox.cif.g09.slc.cpg/sg82_1_cif.got.tgz:286.got - 2010.04.08 20:02:50.
