data_PCOD8302419
_publ_section_title
;
Structure prediction by ZEFSAII (Michael W. Deem and Ramdas Pophale) SiO2 
 PCOD8302419
Probable space group: I -4 
;
_chemical_formula_sum "Si O2"
_cell_formula_units_Z 64
_cell_length_a 24.360187
_cell_length_b 24.360187
_cell_length_c 5.086334
_cell_angle_alpha 90.000000
_cell_angle_beta 90.000000
_cell_angle_gamma 90.000000
_cell_volume 3018.325764
_symmetry_space_group_name_H-M "I -4 "
_symmetry_group_IT_number 82
_symmetry_cell_setting 'tetragonal'
loop_
_space_group_symop_operation_xyz
x,y,z
y,-x,-z
-x,-y,z
-y,x,-z
1/2+x,1/2+y,1/2+z
1/2+y,1/2-x,1/2-z
1/2-x,1/2-y,1/2+z
1/2-y,1/2+x,1/2-z
loop_
_atom_site_type_symbol
_atom_site_label
_atom_site_fract_x
_atom_site_fract_y
_atom_site_fract_z
Si Si1 0.606660 0.886295 0.772879
Si Si2 0.715045 0.246764 0.197354
Si Si3 0.502549 0.161439 0.856618
Si Si4 0.478169 0.650969 0.363242
Si Si5 0.904401 0.885021 0.858029
Si Si6 0.869618 0.676066 0.765503
Si Si7 0.727639 0.021975 0.149978
Si Si8 0.365178 0.651930 0.144782
O O1 0.545182 0.884186 0.895614
O O2 0.630510 0.946566 0.768375
O O3 0.605888 0.867291 0.471403
O O4 0.642262 0.849472 0.976786
O O5 0.737300 0.238589 0.492342
O O6 0.693854 0.187645 0.108017
O O7 0.665774 0.290694 0.188083
O O8 0.481819 0.203922 0.640649
O O9 0.514150 0.194101 0.131118
O O10 0.446088 0.623002 0.612204
O O11 0.530153 0.611161 0.300617
O O12 0.502884 0.710832 0.402081
O O13 0.431989 0.658249 0.136668
O O14 0.874942 0.849654 0.631154
O O15 0.891055 0.849988 0.122575
O O16 0.914553 0.725331 0.747707
#
# Coordination Sequence:
#
# PCOD8302419 Si02
#       8
#     8   8   8   8   8   8   8   8
#     4  10  21  38  60  87 128 154 216 257 315 375
#     4  12  26  43  65  95 132 175 212 270 328 388
#     4  10  22  38  60  93 119 169 207 261 315 379
#     4  10  26  43  71  92 134 167 217 275 326 403
#     4  10  25  44  67 100 128 170 218 273 328 394
#     4  10  23  40  59  91 122 170 208 268 310 389
#     4  10  23  38  64  90 122 170 212 256 330 376
#     4  10  26  42  67 101 130 172 222 266 334 397
#
# _framework density 21.203809
#
# number of rings (size 3 to 8) (size 9 to 14) (size 15 to 20)
#    0.750    1.000    0.000    2.250   10.500    0.500 
#    0.000    0.000    0.000    4.500    0.000    0.000 
#    0.000    0.000    0.000    0.000    0.000    0.000 
#
# Total GULP energy -396426.335700 kJ/mol
# GULP energy per Si atom -12388.322991 kJ/mol
# Density = 2.115555 g / cm^3
# Si number density = 21.203809 Si / 1000 Ang^3
#
#
#
# Elastic Constant Matrix: (Units=GPa)
#
#
# Indices 1 2 3 4 5 6 
#
# 1 105.9288 55.5119 22.6859 0.0000 0.0000 -13.2442
# 2 55.5119 105.9288 22.6859 0.0000 0.0000 13.2442
# 3 22.6859 22.6859 107.8707 0.0000 0.0000 0.0000
# 4 0.0000 0.0000 0.0000 23.9454 0.0000 0.0000
# 5 0.0000 0.0000 0.0000 0.0000 23.9454 0.0000
# 6 -13.2442 13.2442 0.0000 0.0000 0.0000 32.5454
#
#
#
# Elastic Compliance Matrix: (Units=1/GPa)
#
#
# Indices 1 2 3 4 5 6 
#
# 1 0.015906 -0.009323 -0.001385 0.000000 0.000000 0.010267
# 2 -0.009323 0.015906 -0.001385 0.000000 0.000000 -0.010267
# 3 -0.001385 -0.001385 0.009853 0.000000 0.000000 0.000000
# 4 0.000000 0.000000 0.000000 0.041762 0.000000 0.000000
# 5 0.000000 0.000000 0.000000 0.000000 0.041762 0.000000
# 6 0.010267 -0.010267 0.000000 0.000000 0.000000 0.039082
#
#
# Mechanical properties :
#
#
# Convention : Reuss Voigt Hill
#
# Bulk Modulus (GPa) = 57.20395 57.94395 57.57395
# Shear Modulus (GPa) = 25.73596 30.67687 28.20642
#
# Velocity S-wave (km/s) = 3.48766 3.80776 3.65122
# Velocity P-wave (km/s) = 6.57686 6.83509 6.70722
#
# Compressibility (1/GPa) = 0.01748131
#
# Stress axis : x y z
#
# Youngs Moduli (GPa) = 62.86955 62.86955 101.49495
#
# Poissons Ratio (x) = 0.58611 0.14052
# Poissons Ratio (y) = 0.58611 0.14052
# Poissons Ratio (z) = 0.08704 0.08704
#
# Static dielectric constant tensor:
#      x y z
#    x 3.741860 0.000000 0.000000 
#    y 0.000000 3.741860 0.000000 
#    z 0.000000 0.000000 3.888900 
# 
# 
# High freq. dielectric constant tensor:
#      x y z
#    x 1.822110 0.000000 0.000000 
#    y 0.000000 1.822110 0.000000 
#    z 0.000000 0.000000 1.840150 
# 
# From -- ./inp_files/472.got.cif
#   From: 2010.03.12/outbox.cif.g09.slc.cpg/sg82_1_cif.got.tgz:472.got - 2010.04.08 20:02:50.
