data_PCOD8302106
_publ_section_title
;
Structure prediction by ZEFSAII (Michael W. Deem and Ramdas Pophale) SiO2 
 PCOD8302106
Probable space group: I 4
;
_chemical_formula_sum "Si O2"
_cell_formula_units_Z 56
_cell_length_a 14.143400
_cell_length_b 14.143400
_cell_length_c 12.928458
_cell_angle_alpha 90.000000
_cell_angle_beta 90.000000
_cell_angle_gamma 90.000000
_cell_volume 2586.153968
_symmetry_space_group_name_H-M "I 4"
_symmetry_group_IT_number 79
_symmetry_cell_setting 'tetragonal'
loop_
_space_group_symop_operation_xyz
x,y,z
-y,x,z
-x,-y,z
y,-x,z
1/2+x,1/2+y,1/2+z
1/2-y,1/2+x,1/2+z
1/2-x,1/2-y,1/2+z
1/2+y,1/2-x,1/2+z
loop_
_atom_site_type_symbol
_atom_site_label
_atom_site_fract_x
_atom_site_fract_y
_atom_site_fract_z
Si Si1 0.447084 0.239911 0.708540
Si Si2 0.711793 0.370402 0.501817
Si Si3 0.172947 0.436735 0.207010
Si Si4 0.701625 0.680749 0.078423
Si Si5 0.562939 0.228682 0.436917
Si Si6 0.126395 0.646381 0.146309
Si Si7 0.072344 0.137518 0.398968
O O1 0.419224 0.309546 0.613920
O O2 0.402770 0.140567 0.672495
O O3 0.559209 0.215054 0.715303
O O4 0.402937 0.284397 0.812531
O O5 0.790146 0.286914 0.502050
O O6 0.614512 0.328667 0.457263
O O7 0.752036 0.451232 0.427752
O O8 0.270072 0.414476 0.142107
O O9 0.186131 0.412664 0.326759
O O10 0.127854 0.538340 0.184008
O O11 0.686944 0.767376 0.158694
O O12 0.604643 0.671381 0.012695
O O13 0.591861 0.153497 0.526350
O O14 0.960775 0.126103 0.384548
#
# Coordination Sequence:
#
# PCOD8302106 Si02
#       7
#     8   8   8   8   8   8   8
#     4  10  22  40  65  97 131 173 226 285 350 404
#     4   9  21  38  62  92 125 171 219 278 335 405
#     4  11  23  39  70  98 134 185 223 284 353 408
#     4  10  22  42  65  92 132 179 221 280 338 415
#     4  10  22  40  63  96 132 173 225 277 344 411
#     4  10  22  42  63  94 137 170 229 291 335 421
#     4  11  25  41  65  99 133 180 228 280 346 407
#
# _framework density 21.653777000000002
#
# number of rings (size 3 to 8) (size 9 to 14) (size 15 to 20)
#    0.000    1.857    0.000    3.000   10.000    1.429 
#    0.000   10.000    0.000    0.000    0.000    0.000 
#    0.000    0.000    0.000    0.000    0.000    0.000 
#
# Total GULP energy -347005.838305 kJ/mol
# GULP energy per Si atom -12393.065654 kJ/mol
# Density = 2.160449 g / cm^3
# Si number density = 21.653777 Si / 1000 Ang^3
#
#
#
# Elastic Constant Matrix: (Units=GPa)
#
#
# Indices 1 2 3 4 5 6 
#
# 1 96.9073 31.6475 29.6745 0.0000 0.0000 2.5483
# 2 31.6475 96.9073 29.6745 0.0000 0.0000 -2.5483
# 3 29.6745 29.6745 95.2771 0.0000 0.0000 0.0000
# 4 0.0000 0.0000 0.0000 29.9733 0.0000 0.0000
# 5 0.0000 0.0000 0.0000 0.0000 29.9733 0.0000
# 6 2.5483 -2.5483 0.0000 0.0000 0.0000 29.0975
#
#
#
# Elastic Compliance Matrix: (Units=1/GPa)
#
#
# Indices 1 2 3 4 5 6 
#
# 1 0.012257 -0.003172 -0.002830 0.000000 0.000000 -0.001351
# 2 -0.003172 0.012257 -0.002830 0.000000 0.000000 0.001351
# 3 -0.002830 -0.002830 0.012258 0.000000 0.000000 0.000000
# 4 0.000000 0.000000 0.000000 0.033363 0.000000 0.000000
# 5 0.000000 0.000000 0.000000 0.000000 0.033363 0.000000
# 6 -0.001351 0.001351 0.000000 0.000000 0.000000 0.034604
#
#
# Mechanical properties :
#
#
# Convention : Reuss Voigt Hill
#
# Bulk Modulus (GPa) = 52.32836 52.34276 52.33556
# Shear Modulus (GPa) = 30.83860 31.01516 30.92688
#
# Velocity S-wave (km/s) = 3.77791 3.78871 3.78331
# Velocity P-wave (km/s) = 6.57636 6.58514 6.58075
#
# Compressibility (1/GPa) = 0.01911010
#
# Stress axis : x y z
#
# Youngs Moduli (GPa) = 81.58606 81.58606 81.57748
#
# Poissons Ratio (x) = 0.25878 0.23083
# Poissons Ratio (y) = 0.25878 0.23083
# Poissons Ratio (z) = 0.23086 0.23086
#
# Static dielectric constant tensor:
#      x y z
#    x 3.929120 0.000000 0.000000 
#    y 0.000000 3.929120 0.000000 
#    z 0.000000 0.000000 3.688680 
# 
# 
# High freq. dielectric constant tensor:
#      x y z
#    x 1.850020 0.000000 0.000000 
#    y 0.000000 1.850020 0.000000 
#    z 0.000000 0.000000 1.834970 
# 
# From -- ./inp_files/1161.got.cif
#   From: 2010.03.12/outbox.cif.g09.slc.cpg/sg79_cif.got.tgz:1161.got - 2010.04.16 16:38:49.
