data_PCOD8302523
_publ_section_title
;
Structure prediction by ZEFSAII (Michael W. Deem and Ramdas Pophale) SiO2 
 PCOD8302523
Probable space group: I -4 
;
_chemical_formula_sum "Si O2"
_cell_formula_units_Z 56
_cell_length_a 10.851588
_cell_length_b 10.851588
_cell_length_c 22.331315
_cell_angle_alpha 90.000000
_cell_angle_beta 90.000000
_cell_angle_gamma 90.000000
_cell_volume 2629.667815
_symmetry_space_group_name_H-M "I -4 "
_symmetry_group_IT_number 82
_symmetry_cell_setting 'tetragonal'
loop_
_space_group_symop_operation_xyz
x,y,z
y,-x,-z
-x,-y,z
-y,x,-z
1/2+x,1/2+y,1/2+z
1/2+y,1/2-x,1/2-z
1/2-x,1/2-y,1/2+z
1/2-y,1/2+x,1/2-z
loop_
_atom_site_type_symbol
_atom_site_label
_atom_site_fract_x
_atom_site_fract_y
_atom_site_fract_z
Si Si1 0.138960 0.694979 0.379168
Si Si2 0.737696 0.102398 0.688469
Si Si3 0.689954 0.145334 0.307470
Si Si4 0.720952 0.509222 0.314198
Si Si5 0.443421 0.281608 0.317772
Si Si6 0.938016 0.191396 0.500803
Si Si7 0.903889 0.290439 0.626692
O O1 0.194663 0.815798 0.347796
O O2 0.226824 0.575101 0.368717
O O3 0.121556 0.723433 0.449258
O O4 0.008211 0.675481 0.348028
O O5 0.625731 0.193859 0.697892
O O6 0.853957 0.160399 0.653155
O O7 0.788153 0.069770 0.754000
O O8 0.588260 0.254739 0.312426
O O9 0.727164 0.132502 0.238739
O O10 0.649796 0.012877 0.333074
O O11 0.586270 0.572415 0.327288
O O12 0.390333 0.206122 0.374400
O O13 0.949735 0.274939 0.559335
O O14 0.074820 0.147951 0.483298
#
# Coordination Sequence:
#
# PCOD8302523 Si02
#       7
#     8   8   8   8   8   8   8
#     4  12  23  40  64  99 132 175 225 277 337 410
#     4  11  21  38  65  96 136 175 212 278 339 398
#     4  12  23  40  64  98 136 172 228 275 338 406
#     4  11  23  40  61  97 138 176 222 270 340 417
#     4  11  24  41  62  95 139 180 217 280 335 407
#     4  11  23  42  66  96 135 172 222 283 338 402
#     4  11  23  41  65  97 132 172 224 280 336 399
#
# _framework density 21.295466000000001
#
# number of rings (size 3 to 8) (size 9 to 14) (size 15 to 20)
#    0.000    0.714    7.143    1.714    0.000    1.143 
#    0.000    5.714    0.000    0.000    0.000    4.000 
#    0.000    0.000    0.000    0.000    0.000    0.000 
#
# Total GULP energy -347158.864118 kJ/mol
# GULP energy per Si atom -12398.530861 kJ/mol
# Density = 2.124700 g / cm^3
# Si number density = 21.295466 Si / 1000 Ang^3
#
#
#
# Elastic Constant Matrix: (Units=GPa)
#
#
# Indices 1 2 3 4 5 6 
#
# 1 65.1308 45.9882 32.8680 0.0000 0.0000 14.5354
# 2 45.9882 65.1308 32.8680 0.0000 0.0000 -14.5354
# 3 32.8680 32.8680 95.7847 0.0000 0.0000 0.0000
# 4 0.0000 0.0000 0.0000 30.3490 0.0000 0.0000
# 5 0.0000 0.0000 0.0000 0.0000 30.3490 0.0000
# 6 14.5354 -14.5354 0.0000 0.0000 0.0000 43.6101
#
#
#
# Elastic Compliance Matrix: (Units=1/GPa)
#
#
# Indices 1 2 3 4 5 6 
#
# 1 0.058538 -0.047246 -0.003875 0.000000 0.000000 -0.035258
# 2 -0.047246 0.058538 -0.003875 0.000000 0.000000 0.035258
# 3 -0.003875 -0.003875 0.013099 0.000000 0.000000 0.000000
# 4 0.000000 0.000000 0.000000 0.032950 0.000000 0.000000
# 5 0.000000 0.000000 0.000000 0.000000 0.032950 0.000000
# 6 -0.035258 0.035258 0.000000 0.000000 0.000000 0.046434
#
#
# Mechanical properties :
#
#
# Convention : Reuss Voigt Hill
#
# Bulk Modulus (GPa) = 49.54484 49.94386 49.74435
# Shear Modulus (GPa) = 13.91875 28.48308 21.20091
#
# Velocity S-wave (km/s) = 2.55934 3.66118 3.15867
# Velocity P-wave (km/s) = 5.66123 6.43242 6.05911
#
# Compressibility (1/GPa) = 0.02018374
#
# Stress axis : x y z
#
# Youngs Moduli (GPa) = 17.08296 17.08296 76.34057
#
# Poissons Ratio (x) = 0.80711 0.29579
# Poissons Ratio (y) = 0.80711 0.29579
# Poissons Ratio (z) = 0.06619 0.06619
#
# Static dielectric constant tensor:
#      x y z
#    x 4.007070 0.000000 0.000000 
#    y 0.000000 4.007070 0.000000 
#    z 0.000000 0.000000 3.578940 
# 
# 
# High freq. dielectric constant tensor:
#      x y z
#    x 1.843020 0.000000 0.000000 
#    y 0.000000 1.843020 0.000000 
#    z 0.000000 0.000000 1.807080 
# 
# From -- ./inp_files/3146.got.cif
#   From: 2010.03.12/outbox.cif.g09.slc.cpg/sg82_2_cif.got.tgz:3146.got - 2010.04.08 20:02:50.
