data_PCOD8302857
_publ_section_title
;
Structure prediction by ZEFSAII (Michael W. Deem and Ramdas Pophale) SiO2 
 PCOD8302857
Probable space group: P 4/M
;
_chemical_formula_sum "Si O2"
_cell_formula_units_Z 48
_cell_length_a 8.314933
_cell_length_b 8.314933
_cell_length_c 31.907658
_cell_angle_alpha 90.000000
_cell_angle_beta 90.000000
_cell_angle_gamma 90.000000
_cell_volume 2206.035194
_symmetry_space_group_name_H-M "P 4/M"
_symmetry_group_IT_number 83
_symmetry_cell_setting 'tetragonal'
loop_
_space_group_symop_operation_xyz
x,y,z
-y,x,z
-x,-y,z
y,-x,z
-x,-y,-z
y,-x,-z
x,y,-z
-y,x,-z
loop_
_atom_site_type_symbol
_atom_site_label
_atom_site_fract_x
_atom_site_fract_y
_atom_site_fract_z
Si Si1 0.576887 0.248436 0.866418
Si Si2 0.249925 0.413453 0.772413
Si Si3 0.747674 0.594012 0.376628
Si Si4 0.890576 0.760235 0.547612
Si Si5 0.740578 0.933647 0.000000
Si Si6 0.914712 0.748075 0.698966
Si Si7 0.000000 0.500000 0.930893
O O1 0.697508 0.394012 0.873124
O O2 0.604175 0.180360 0.819513
O O3 0.608508 0.114252 0.901323
O O4 0.403397 0.300070 0.764686
O O5 0.112259 0.359209 0.740408
O O6 0.591252 0.704569 0.371359
O O7 0.826841 0.620426 0.422173
O O8 0.877410 0.640661 0.341575
O O9 0.864666 0.701791 0.500000
O O10 0.077533 0.791696 0.556499
O O11 0.628454 0.904469 0.040557
O O12 0.805308 0.116686 0.000000
O O13 0.098777 0.798450 0.698490
#
# Coordination Sequence:
#
# PCOD8302857 Si02
#       7
#     8   8   8   8   4   8   4
#     4   9  19  35  55  82 113 143 183 234 281 332
#     4   9  19  36  57  81 110 143 179 223 276 332
#     4  11  24  39  56  81 112 146 187 233 280 333
#     4   9  19  37  60  85 113 145 183 229 281 338
#     4  10  22  38  54  80 118 154 192 240 290 338
#     4  11  24  39  56  81 111 143 184 231 275 328
#     4  11  20  34  60  84 108 152 198 234 283 342
#
# _framework density 21.758493000000001
#
# number of rings (size 3 to 8) (size 9 to 14) (size 15 to 20)
#    0.000    2.083    0.000    4.500    0.000   10.667 
#    0.000    2.500    0.000    6.000    0.000    0.000 
#    0.000    0.000    0.000    0.000    0.000    0.000 
#
# Total GULP energy -595308.522445 kJ/mol
# GULP energy per Si atom -12402.260884 kJ/mol
# Density = 2.170897 g / cm^3
# Si number density = 21.758493 Si / 1000 Ang^3
#
#
#
# Elastic Constant Matrix: (Units=GPa)
#
#
# Indices 1 2 3 4 5 6 
#
# 1 58.1907 -21.4039 25.0548 0.0000 0.0000 16.1855
# 2 -21.4039 58.1907 25.0548 0.0000 0.0000 -16.1855
# 3 25.0548 25.0548 145.4658 0.0000 0.0000 0.0000
# 4 0.0000 0.0000 0.0000 26.9504 0.0000 0.0000
# 5 0.0000 0.0000 0.0000 0.0000 26.9504 0.0000
# 6 16.1855 -16.1855 0.0000 0.0000 0.0000 48.0803
#
#
#
# Elastic Compliance Matrix: (Units=1/GPa)
#
#
# Indices 1 2 3 4 5 6 
#
# 1 0.025036 0.010480 -0.006117 0.000000 0.000000 -0.004900
# 2 0.010480 0.025036 -0.006117 0.000000 0.000000 0.004900
# 3 -0.006117 -0.006117 0.008982 0.000000 0.000000 0.000000
# 4 0.000000 0.000000 0.000000 0.037105 0.000000 0.000000
# 5 0.000000 0.000000 0.000000 0.000000 0.037105 0.000000
# 6 -0.004900 0.004900 0.000000 0.000000 0.000000 0.024098
#
#
# Mechanical properties :
#
#
# Convention : Reuss Voigt Hill
#
# Bulk Modulus (GPa) = 18.00332 35.47316 26.73824
# Shear Modulus (GPa) = 27.87266 35.93898 31.90582
#
# Velocity S-wave (km/s) = 3.58299 4.06855 3.83346
# Velocity P-wave (km/s) = 5.04076 6.19752 5.64883
#
# Compressibility (1/GPa) = 0.05554530
#
# Stress axis : x y z
#
# Youngs Moduli (GPa) = 39.94176 39.94176 111.33725
#
# Poissons Ratio (x) = -0.41858 0.68108
# Poissons Ratio (y) = -0.41858 0.68108
# Poissons Ratio (z) = 0.24433 0.24433
#
# Static dielectric constant tensor:
#      x y z
#    x 3.744180 0.000000 0.000000 
#    y 0.000000 3.744180 0.000000 
#    z 0.000000 0.000000 3.994590 
# 
# 
# High freq. dielectric constant tensor:
#      x y z
#    x 1.847450 0.000000 0.000000 
#    y 0.000000 1.847450 0.000000 
#    z 0.000000 0.000000 1.866970 
# 
# From -- ./inp_files/3434.got.cif
#   From: 2010.03.12/outbox.cif.g09.slc.cpg/sg83_2_cif.got.tgz:3434.got - 2010.04.08 20:05:18.
