data_PCOD8302174
_publ_section_title
;
Structure prediction by ZEFSAII (Michael W. Deem and Ramdas Pophale) SiO2 
 PCOD8302174
Probable space group: I 41
;
_chemical_formula_sum "Si O2"
_cell_formula_units_Z 48
_cell_length_a 13.870467
_cell_length_b 13.870467
_cell_length_c 14.785944
_cell_angle_alpha 90.000000
_cell_angle_beta 90.000000
_cell_angle_gamma 90.000000
_cell_volume 2844.665619
_symmetry_space_group_name_H-M "I 41"
_symmetry_group_IT_number 80
_symmetry_cell_setting 'tetragonal'
loop_
_space_group_symop_operation_xyz
x,y,z
-y,1/2+x,1/4+z
-x,-y,z
y,1/2-x,1/4+z
1/2+x,1/2+y,1/2+z
1/2-y,x,3/4+z
1/2-x,1/2-y,1/2+z
1/2+y,-x,3/4+z
loop_
_atom_site_type_symbol
_atom_site_label
_atom_site_fract_x
_atom_site_fract_y
_atom_site_fract_z
Si Si1 0.672867 0.404739 0.711040
Si Si2 0.129477 0.490204 0.721671
Si Si3 0.197420 0.802580 0.026772
Si Si4 0.172868 0.595261 0.092503
Si Si5 0.000000 0.500000 0.556253
Si Si6 0.000000 0.500000 0.997290
Si Si7 0.509796 0.870523 0.331872
O O1 0.760701 0.478975 0.717903
O O2 0.656522 0.360880 0.611691
O O3 0.682650 0.312909 0.776998
O O4 0.585242 0.471687 0.739343
O O5 0.091308 0.475608 0.619636
O O6 0.072450 0.572450 0.776771
O O7 0.110459 0.389542 0.776771
O O8 0.182651 0.687091 0.026545
O O9 0.139120 0.843478 0.941852
O O10 0.085242 0.528314 0.064200
O O11 0.260701 0.521024 0.085640
O O12 0.975608 0.591308 0.933907
#
# Coordination Sequence:
#
# PCOD8302174 Si02
#       7
#     8   8   8   8   4   4   8
#     4  11  19  36  54  86 114 142 193 230 284 329
#     4   9  19  31  52  85 115 144 178 229 290 332
#     4  10  22  31  59  82 110 152 180 242 270 325
#     4  11  19  36  54  86 114 142 193 230 284 329
#     4  10  21  33  56  82 114 150 178 233 287 332
#     4  10  21  33  56  82 114 150 178 233 287 332
#     4   9  19  31  52  85 115 144 178 229 290 332
#
# _framework density 16.873688000000001
#
# number of rings (size 3 to 8) (size 9 to 14) (size 15 to 20)
#    0.000    2.333    5.000    0.000    0.000    6.000 
#    0.000    0.000    0.000    8.000    0.000    0.000 
#    0.000    0.000    0.000    0.000    0.000    0.000 
#
# Total GULP energy -297411.276941 kJ/mol
# GULP energy per Si atom -12392.136539 kJ/mol
# Density = 1.683528 g / cm^3
# Si number density = 16.873688 Si / 1000 Ang^3
#
#
#
# Elastic Constant Matrix: (Units=GPa)
#
#
# Indices 1 2 3 4 5 6 
#
# 1 113.2108 70.3318 50.2418 0.0000 0.0000 0.0000
# 2 70.3318 113.2108 50.2417 0.0000 0.0000 0.0000
# 3 50.2418 50.2417 90.9578 0.0000 0.0000 0.0000
# 4 0.0000 0.0000 0.0000 20.6697 0.0000 0.0000
# 5 0.0000 0.0000 0.0000 0.0000 20.6697 0.0000
# 6 0.0000 0.0000 0.0000 0.0000 0.0000 24.7362
#
#
#
# Elastic Compliance Matrix: (Units=1/GPa)
#
#
# Indices 1 2 3 4 5 6 
#
# 1 0.015566 -0.007756 -0.004314 0.000000 0.000000 0.000000
# 2 -0.007756 0.015566 -0.004314 0.000000 0.000000 0.000000
# 3 -0.004314 -0.004314 0.015760 0.000000 0.000000 0.000000
# 4 0.000000 0.000000 0.000000 0.048380 0.000000 0.000000
# 5 0.000000 0.000000 0.000000 0.000000 0.048380 0.000000
# 6 0.000000 0.000000 0.000000 0.000000 0.000000 0.040427
#
#
# Mechanical properties :
#
#
# Convention : Reuss Voigt Hill
#
# Bulk Modulus (GPa) = 70.80113 73.22332 72.01223
# Shear Modulus (GPa) = 22.56792 22.98606 22.77699
#
# Velocity S-wave (km/s) = 3.66110 3.69486 3.67802
# Velocity P-wave (km/s) = 7.74094 7.85442 7.79788
#
# Compressibility (1/GPa) = 0.01412407
#
# Stress axis : x y z
#
# Youngs Moduli (GPa) = 64.24351 64.24351 63.45213
#
# Poissons Ratio (x) = 0.49825 0.27373
# Poissons Ratio (y) = 0.49825 0.27373
# Poissons Ratio (z) = 0.27715 0.27715
#
# Static dielectric constant tensor:
#      x y z
#    x 3.082260 0.000000 0.000000 
#    y 0.000000 3.082260 0.000000 
#    z 0.000000 0.000000 3.222740 
# 
# 
# High freq. dielectric constant tensor:
#      x y z
#    x 1.632240 0.000000 0.000000 
#    y 0.000000 1.632240 0.000000 
#    z 0.000000 0.000000 1.660800 
# 
# From -- ./inp_files/1312.got.cif
#   From: 2010.03.12/outbox.cif.g09.slc.cpg/sg80_cif.got.tgz:1312.got - 2010.04.08 20:00:04.
