data_PCOD8302708
_publ_section_title
;
Structure prediction by ZEFSAII (Michael W. Deem and Ramdas Pophale) SiO2 
 PCOD8302708
Probable space group: P 4/M
;
_chemical_formula_sum "Si O2"
_cell_formula_units_Z 64
_cell_length_a 14.283825
_cell_length_b 14.283825
_cell_length_c 16.566843
_cell_angle_alpha 90.000000
_cell_angle_beta 90.000000
_cell_angle_gamma 90.000000
_cell_volume 3380.094155
_symmetry_space_group_name_H-M "P 4/M"
_symmetry_group_IT_number 83
_symmetry_cell_setting 'tetragonal'
loop_
_space_group_symop_operation_xyz
x,y,z
-y,x,z
-x,-y,z
y,-x,z
-x,-y,-z
y,-x,-z
x,y,-z
-y,x,-z
loop_
_atom_site_type_symbol
_atom_site_label
_atom_site_fract_x
_atom_site_fract_y
_atom_site_fract_z
Si Si1 0.480544 0.350433 0.646442
Si Si2 0.156478 0.487545 0.591367
Si Si3 0.741331 0.826428 0.796748
Si Si4 0.955156 0.408274 0.724253
Si Si5 0.336195 0.849167 0.718364
Si Si6 0.140570 0.061966 0.911206
Si Si7 0.301174 0.637912 0.094045
Si Si8 0.718437 0.535439 0.184189
O O1 0.580406 0.396260 0.624919
O O2 0.462757 0.257850 0.593590
O O3 0.479241 0.326995 0.741370
O O4 0.121709 0.475776 0.500000
O O5 0.079443 0.550692 0.637921
O O6 0.172268 0.384749 0.632040
O O7 0.642069 0.864504 0.762584
O O8 0.799984 0.766170 0.729304
O O9 0.797251 0.913286 0.833657
O O10 0.723535 0.761189 0.873983
O O11 0.000000 0.500000 0.770399
O O12 0.037399 0.329842 0.721369
O O13 0.406830 0.809540 0.786892
O O14 0.047147 0.121946 0.903915
O O15 0.186381 0.081580 0.000000
O O16 0.399864 0.641528 0.140705
O O17 0.250669 0.540374 0.116976
O O18 0.316861 0.649105 0.000000
#
# Coordination Sequence:
#
# PCOD8302708 Si02
#       8
#     8   8   8   8   8   8   8   8
#     4  10  19  33  53  77 109 147 181 221 271 320
#     4  10  22  37  57  81 112 144 179 226 277 332
#     4  11  20  35  57  78 109 146 187 236 276 333
#     4  10  21  38  58  83 108 147 191 224 279 344
#     4   9  21  36  57  80 104 141 186 224 279 338
#     4   9  18  33  55  84 114 142 178 232 297 349
#     4  11  21  31  47  73 104 142 186 233 279 320
#     4  10  19  34  50  71 102 142 181 232 272 320
#
# _framework density 18.934384999999999
#
# number of rings (size 3 to 8) (size 9 to 14) (size 15 to 20)
#    0.000    2.000    1.250    4.125    3.500    3.000 
#    0.000    1.250    0.000    9.000    0.000    0.000 
#    0.000    0.000    0.000   14.250    0.000    0.000 
#
# Total GULP energy -792892.706627 kJ/mol
# GULP energy per Si atom -12388.948541 kJ/mol
# Density = 1.889129 g / cm^3
# Si number density = 18.934385 Si / 1000 Ang^3
#
#
#
# Elastic Constant Matrix: (Units=GPa)
#
#
# Indices 1 2 3 4 5 6 
#
# 1 86.5394 14.5272 30.9177 0.0000 0.0000 -5.4368
# 2 14.5272 86.5394 30.9177 0.0000 0.0000 5.4368
# 3 30.9177 30.9177 108.2669 0.0000 0.0000 0.0000
# 4 0.0000 0.0000 0.0000 19.2575 0.0000 0.0000
# 5 0.0000 0.0000 0.0000 0.0000 19.2575 0.0000
# 6 -5.4368 5.4368 0.0000 0.0000 0.0000 33.2795
#
#
#
# Elastic Compliance Matrix: (Units=1/GPa)
#
#
# Indices 1 2 3 4 5 6 
#
# 1 0.013113 -0.001124 -0.003424 0.000000 0.000000 0.002326
# 2 -0.001124 0.013113 -0.003424 0.000000 0.000000 -0.002326
# 3 -0.003424 -0.003424 0.011192 0.000000 0.000000 0.000000
# 4 0.000000 0.000000 0.000000 0.051928 0.000000 0.000000
# 5 0.000000 0.000000 0.000000 0.000000 0.051928 0.000000
# 6 0.002326 -0.002326 0.000000 0.000000 0.000000 0.030808
#
#
# Mechanical properties :
#
#
# Convention : Reuss Voigt Hill
#
# Bulk Modulus (GPa) = 46.56513 48.23008 47.39760
# Shear Modulus (GPa) = 25.61673 28.02445 26.82059
#
# Velocity S-wave (km/s) = 3.68220 3.85136 3.76773
# Velocity P-wave (km/s) = 6.53639 6.73088 6.63435
#
# Compressibility (1/GPa) = 0.02147530
#
# Stress axis : x y z
#
# Youngs Moduli (GPa) = 76.25745 76.25745 89.35059
#
# Poissons Ratio (x) = 0.08573 0.30591
# Poissons Ratio (y) = 0.08573 0.30591
# Poissons Ratio (z) = 0.26109 0.26109
#
# Static dielectric constant tensor:
#      x y z
#    x 3.503100 0.000000 0.000000 
#    y 0.000000 3.503100 0.000000 
#    z 0.000000 0.000000 3.237840 
# 
# 
# High freq. dielectric constant tensor:
#      x y z
#    x 1.733590 0.000000 0.000000 
#    y 0.000000 1.733590 0.000000 
#    z 0.000000 0.000000 1.707740 
# 
# From -- ./inp_files/2748.got.cif
#   From: 2010.03.12/outbox.cif.g09.slc.cpg/sg83_2_cif.got.tgz:2748.got - 2010.04.08 20:05:18.
