data_PCOD8302151
_publ_section_title
;
Structure prediction by ZEFSAII (Michael W. Deem and Ramdas Pophale) SiO2 
 PCOD8302151
Probable space group: I 41
;
_chemical_formula_sum "Si O2"
_cell_formula_units_Z 64
_cell_length_a 18.430491
_cell_length_b 18.430491
_cell_length_c 9.545496
_cell_angle_alpha 90.000000
_cell_angle_beta 90.000000
_cell_angle_gamma 90.000000
_cell_volume 3242.442703
_symmetry_space_group_name_H-M "I 41"
_symmetry_group_IT_number 80
_symmetry_cell_setting 'tetragonal'
loop_
_space_group_symop_operation_xyz
x,y,z
-y,1/2+x,1/4+z
-x,-y,z
y,1/2-x,1/4+z
1/2+x,1/2+y,1/2+z
1/2-y,x,3/4+z
1/2-x,1/2-y,1/2+z
1/2+y,-x,3/4+z
loop_
_atom_site_type_symbol
_atom_site_label
_atom_site_fract_x
_atom_site_fract_y
_atom_site_fract_z
Si Si1 0.849353 0.630559 0.251430
Si Si2 0.215166 0.094568 0.242284
Si Si3 0.949845 0.358749 0.426915
Si Si4 0.295311 0.803903 0.960811
Si Si5 0.124904 0.386899 0.714756
Si Si6 0.188837 0.077175 0.734749
Si Si7 0.989164 0.886347 0.221990
Si Si8 0.767541 0.048182 0.913511
O O1 0.867165 0.703283 0.340943
O O2 0.888512 0.637218 0.102719
O O3 0.763383 0.623055 0.224490
O O4 0.887030 0.565248 0.339202
O O5 0.181590 0.144036 0.365186
O O6 0.299370 0.083640 0.275417
O O7 0.172133 0.018349 0.260252
O O8 0.878564 0.321979 0.489808
O O9 0.942859 0.445893 0.441110
O O10 0.957813 0.337118 0.264158
O O11 0.286515 0.734683 0.863228
O O12 0.251812 0.868523 0.881318
O O13 0.089450 0.450217 0.617576
O O14 0.074899 0.358559 0.842467
O O15 0.211725 0.994391 0.771702
O O16 0.014282 0.802747 0.241691
#
# Coordination Sequence:
#
# PCOD8302151 Si02
#       8
#     8   8   8   8   8   8   8   8
#     4  10  20  34  57  80 114 155 199 242 279 360
#     4  11  21  38  57  84 118 157 202 244 287 346
#     4  10  18  36  67  83 110 154 198 238 291 344
#     4   9  19  36  64  94 114 145 193 243 294 360
#     4  11  23  35  56  86 122 154 194 250 296 351
#     4  11  21  36  53  84 119 155 192 241 302 338
#     4   9  19  35  61  87 110 150 202 240 285 354
#     4   9  17  37  61  85 116 151 195 243 287 350
#
# _framework density 19.738206000000002
#
# number of rings (size 3 to 8) (size 9 to 14) (size 15 to 20)
#    0.000    2.000    2.500    2.250    0.000    5.000 
#    2.250    0.000    8.250    0.000    0.000    0.000 
#    0.000    0.000    0.000    0.000    0.000    0.000 
#
# Total GULP energy -396653.750946 kJ/mol
# GULP energy per Si atom -12395.429717 kJ/mol
# Density = 1.969328 g / cm^3
# Si number density = 19.738206 Si / 1000 Ang^3
#
#
#
# Elastic Constant Matrix: (Units=GPa)
#
#
# Indices 1 2 3 4 5 6 
#
# 1 73.6774 20.3842 16.6225 0.0000 0.0000 -0.1746
# 2 20.3842 73.6774 16.6225 0.0000 0.0000 0.1746
# 3 16.6225 16.6225 80.9485 0.0000 0.0000 0.0000
# 4 0.0000 0.0000 0.0000 28.1994 0.0000 0.0000
# 5 0.0000 0.0000 0.0000 0.0000 28.1994 0.0000
# 6 -0.1746 0.1746 0.0000 0.0000 0.0000 21.7049
#
#
#
# Elastic Compliance Matrix: (Units=1/GPa)
#
#
# Indices 1 2 3 4 5 6 
#
# 1 0.015114 -0.003651 -0.002354 0.000000 0.000000 0.000151
# 2 -0.003651 0.015114 -0.002354 0.000000 0.000000 -0.000151
# 3 -0.002354 -0.002354 0.013320 0.000000 0.000000 0.000000
# 4 0.000000 0.000000 0.000000 0.035462 0.000000 0.000000
# 5 0.000000 0.000000 0.000000 0.000000 0.035462 0.000000
# 6 0.000151 -0.000151 0.000000 0.000000 0.000000 0.046075
#
#
# Mechanical properties :
#
#
# Convention : Reuss Voigt Hill
#
# Bulk Modulus (GPa) = 37.27019 37.28463 37.27741
# Shear Modulus (GPa) = 26.85160 27.26566 27.05863
#
# Velocity S-wave (km/s) = 3.69234 3.72070 3.70655
# Velocity P-wave (km/s) = 6.09107 6.11464 6.10286
#
# Compressibility (1/GPa) = 0.02683110
#
# Stress axis : x y z
#
# Youngs Moduli (GPa) = 66.16287 66.16287 75.07350
#
# Poissons Ratio (x) = 0.24155 0.17672
# Poissons Ratio (y) = 0.24155 0.17672
# Poissons Ratio (z) = 0.15574 0.15574
#
# Static dielectric constant tensor:
#      x y z
#    x 3.688320 0.000000 0.000000 
#    y 0.000000 3.688320 0.000000 
#    z 0.000000 0.000000 3.350850 
# 
# 
# High freq. dielectric constant tensor:
#      x y z
#    x 1.770370 0.000000 0.000000 
#    y 0.000000 1.770370 0.000000 
#    z 0.000000 0.000000 1.744300 
# 
# From -- ./inp_files/818.got.cif
#   From: 2010.03.12/outbox.cif.g09.slc.cpg/sg80_cif.got.tgz:818.got - 2010.04.08 20:00:04.
