data_PCOD8302771
_publ_section_title
;
Structure prediction by ZEFSAII (Michael W. Deem and Ramdas Pophale) SiO2 
 PCOD8302771
Probable space group: P 4/M
;
_chemical_formula_sum "Si O2"
_cell_formula_units_Z 40
_cell_length_a 15.815726
_cell_length_b 15.815726
_cell_length_c 8.920867
_cell_angle_alpha 90.000000
_cell_angle_beta 90.000000
_cell_angle_gamma 90.000000
_cell_volume 2231.440594
_symmetry_space_group_name_H-M "P 4/M"
_symmetry_group_IT_number 83
_symmetry_cell_setting 'tetragonal'
loop_
_space_group_symop_operation_xyz
x,y,z
-y,x,z
-x,-y,z
y,-x,z
-x,-y,-z
y,-x,-z
x,y,-z
-y,x,-z
loop_
_atom_site_type_symbol
_atom_site_label
_atom_site_fract_x
_atom_site_fract_y
_atom_site_fract_z
Si Si1 0.059785 0.875691 0.827866
Si Si2 0.482022 0.748173 0.678522
Si Si3 0.087518 0.545604 0.825332
Si Si4 0.867138 0.285705 0.323688
Si Si5 0.660342 0.684722 0.676328
O O1 0.094651 0.804078 0.719440
O O2 0.961123 0.889107 0.793528
O O3 0.072723 0.848600 0.000000
O O4 0.479121 0.757885 0.500000
O O5 0.488961 0.841049 0.747377
O O6 0.562941 0.692327 0.728659
O O7 0.398505 0.703529 0.746877
O O8 0.082060 0.639645 0.757687
O O9 0.000000 0.500000 0.792281
O O10 0.107629 0.552631 0.000000
O O11 0.875980 0.300262 0.500000
O O12 0.768663 0.288767 0.274149
O O13 0.663619 0.673923 0.500000
#
# Coordination Sequence:
#
# PCOD8302771 Si02
#       5
#     8   8   8   8   8
#     4   9  19  36  55  75 103 139 174 207 249 303
#     4   9  17  32  52  74 102 132 165 206 253 304
#     4  10  21  36  52  72  99 132 172 212 252 304
#     4  10  20  34  53  78 105 133 169 213 259 303
#     4   8  16  30  49  74 101 130 164 203 248 299
#
# _framework density 17.925640000000001
#
# number of rings (size 3 to 8) (size 9 to 14) (size 15 to 20)
#    0.000    2.800    0.000    3.000    0.000    4.400 
#    0.000   12.000    0.000    0.000    0.000    5.600 
#    0.000    0.000    0.000    0.000    0.000    0.000 
#
# Total GULP energy -495957.390006 kJ/mol
# GULP energy per Si atom -12398.934750 kJ/mol
# Density = 1.788484 g / cm^3
# Si number density = 17.925640 Si / 1000 Ang^3
#
#
#
# Elastic Constant Matrix: (Units=GPa)
#
#
# Indices 1 2 3 4 5 6 
#
# 1 124.3964 80.3069 45.3724 0.0000 0.0000 12.4913
# 2 80.3069 124.3964 45.3724 0.0000 0.0000 -12.4913
# 3 45.3724 45.3724 52.9091 0.0000 0.0000 0.0000
# 4 0.0000 0.0000 0.0000 24.8704 0.0000 0.0000
# 5 0.0000 0.0000 0.0000 0.0000 24.8704 0.0000
# 6 12.4913 -12.4913 0.0000 0.0000 0.0000 30.1938
#
#
#
# Elastic Compliance Matrix: (Units=1/GPa)
#
#
# Indices 1 2 3 4 5 6 
#
# 1 0.018754 -0.010872 -0.006759 0.000000 0.000000 -0.012256
# 2 -0.010872 0.018754 -0.006759 0.000000 0.000000 0.012256
# 3 -0.006759 -0.006759 0.030492 0.000000 0.000000 0.000000
# 4 0.000000 0.000000 0.000000 0.040208 0.000000 0.000000
# 5 0.000000 0.000000 0.000000 0.000000 0.040208 0.000000
# 6 -0.012256 0.012256 0.000000 0.000000 0.000000 0.043260
#
#
# Mechanical properties :
#
#
# Convention : Reuss Voigt Hill
#
# Bulk Modulus (GPa) = 52.02871 71.53393 61.78132
# Shear Modulus (GPa) = 20.25424 24.69694 22.47559
#
# Velocity S-wave (km/s) = 3.36505 3.71582 3.54478
# Velocity P-wave (km/s) = 6.64724 7.64214 7.16199
#
# Compressibility (1/GPa) = 0.01922016
#
# Stress axis : x y z
#
# Youngs Moduli (GPa) = 53.32318 53.32318 32.79559
#
# Poissons Ratio (x) = 0.57975 0.22165
# Poissons Ratio (y) = 0.57975 0.22165
# Poissons Ratio (z) = 0.36039 0.36039
#
# Static dielectric constant tensor:
#      x y z
#    x 3.442160 0.000000 0.000000 
#    y 0.000000 3.442160 0.000000 
#    z 0.000000 0.000000 3.129130 
# 
# 
# High freq. dielectric constant tensor:
#      x y z
#    x 1.697570 0.000000 0.000000 
#    y 0.000000 1.697570 0.000000 
#    z 0.000000 0.000000 1.677620 
# 
# From -- ./inp_files/654.got.cif
#   From: 2010.03.12/outbox.cif.g09.slc.cpg/sg83_1_cif.got.tgz:654.got - 2010.04.08 20:05:18.
