data_PCOD8302699
_publ_section_title
;
Structure prediction by ZEFSAII (Michael W. Deem and Ramdas Pophale) SiO2 
 PCOD8302699
Probable space group: P 4/M
;
_chemical_formula_sum "Si O2"
_cell_formula_units_Z 40
_cell_length_a 15.219538
_cell_length_b 15.219538
_cell_length_c 8.682152
_cell_angle_alpha 90.000000
_cell_angle_beta 90.000000
_cell_angle_gamma 90.000000
_cell_volume 2011.084522
_symmetry_space_group_name_H-M "P 4/M"
_symmetry_group_IT_number 83
_symmetry_cell_setting 'tetragonal'
loop_
_space_group_symop_operation_xyz
x,y,z
-y,x,z
-x,-y,z
y,-x,z
-x,-y,-z
y,-x,-z
x,y,-z
-y,x,-z
loop_
_atom_site_type_symbol
_atom_site_label
_atom_site_fract_x
_atom_site_fract_y
_atom_site_fract_z
Si Si1 0.578984 0.250406 0.317459
Si Si2 0.880840 0.935208 0.682194
Si Si3 0.616045 0.725807 0.317871
Si Si4 0.416605 0.944004 0.818615
Si Si5 0.690659 0.907722 0.317975
O O1 0.586450 0.243195 0.500000
O O2 0.484758 0.292569 0.270009
O O3 0.652775 0.317042 0.249196
O O4 0.589728 0.152409 0.253843
O O5 0.886443 0.940321 0.500000
O O6 0.882146 0.035523 0.747322
O O7 0.791151 0.887703 0.729926
O O8 0.627868 0.725068 0.500000
O O9 0.637638 0.823460 0.255265
O O10 0.500000 0.000000 0.757624
O O11 0.334103 0.002140 0.766937
O O12 0.419585 0.932005 0.000000
O O13 0.677719 0.921282 0.500000
#
# Coordination Sequence:
#
# PCOD8302699 Si02
#       5
#     8   8   8   8   8
#     4  10  20  37  59  85 114 145 183 229 278 335
#     4   8  15  27  45  73 107 139 173 216 264 316
#     4   9  19  33  55  86 114 142 183 230 281 331
#     4  11  23  38  55  78 109 145 183 225 276 325
#     4  10  19  32  54  82 108 140 181 228 276 327
#
# _framework density 19.889766999999999
#
# number of rings (size 3 to 8) (size 9 to 14) (size 15 to 20)
#    0.000    2.400    2.000    1.200    2.800    1.200 
#    0.000    4.000    0.000    0.000    0.000    2.800 
#    0.000    0.000    0.000    0.000    0.000    0.000 
#
# Total GULP energy -495712.740857 kJ/mol
# GULP energy per Si atom -12392.818521 kJ/mol
# Density = 1.984450 g / cm^3
# Si number density = 19.889767 Si / 1000 Ang^3
#
#
#
# Elastic Constant Matrix: (Units=GPa)
#
#
# Indices 1 2 3 4 5 6 
#
# 1 124.1502 67.0583 16.9817 0.0000 0.0000 6.7680
# 2 67.0583 124.1502 16.9817 0.0000 0.0000 -6.7680
# 3 16.9817 16.9817 19.4512 0.0000 0.0000 0.0000
# 4 0.0000 0.0000 0.0000 8.3454 0.0000 0.0000
# 5 0.0000 0.0000 0.0000 0.0000 8.3454 0.0000
# 6 6.7680 -6.7680 0.0000 0.0000 0.0000 38.9001
#
#
#
# Elastic Compliance Matrix: (Units=1/GPa)
#
#
# Indices 1 2 3 4 5 6 
#
# 1 0.012229 -0.006040 -0.005404 0.000000 0.000000 -0.003179
# 2 -0.006040 0.012229 -0.005404 0.000000 0.000000 0.003179
# 3 -0.005404 -0.005404 0.060846 0.000000 0.000000 0.000000
# 4 0.000000 0.000000 0.000000 0.119827 0.000000 0.000000
# 5 0.000000 0.000000 0.000000 0.000000 0.119827 0.000000
# 6 -0.003179 0.003179 0.000000 0.000000 0.000000 0.026813
#
#
# Mechanical properties :
#
#
# Convention : Reuss Voigt Hill
#
# Bulk Modulus (GPa) = 19.37604 52.19945 35.78774
# Shear Modulus (GPa) = 12.41709 22.23349 17.32529
#
# Velocity S-wave (km/s) = 2.50130 3.34703 2.95458
# Velocity P-wave (km/s) = 4.25498 6.42170 5.44716
#
# Compressibility (1/GPa) = 0.05161013
#
# Stress axis : x y z
#
# Youngs Moduli (GPa) = 81.76955 81.76955 16.43487
#
# Poissons Ratio (x) = 0.49387 0.08881
# Poissons Ratio (y) = 0.49387 0.08881
# Poissons Ratio (z) = 0.44188 0.44188
#
# Static dielectric constant tensor:
#      x y z
#    x 3.889440 0.000000 0.000000 
#    y 0.000000 3.889440 0.000000 
#    z 0.000000 0.000000 3.062800 
# 
# 
# High freq. dielectric constant tensor:
#      x y z
#    x 1.785280 0.000000 0.000000 
#    y 0.000000 1.785280 0.000000 
#    z 0.000000 0.000000 1.717500 
# 
# From -- ./inp_files/653.got.cif
#   From: 2010.03.12/outbox.cif.g09.slc.cpg/sg83_1_cif.got.tgz:653.got - 2010.04.08 20:05:18.
