data_PCOD8302367
_publ_section_title
;
Structure prediction by ZEFSAII (Michael W. Deem and Ramdas Pophale) SiO2 
 PCOD8302367
Probable space group: I -4 
;
_chemical_formula_sum "Si O2"
_cell_formula_units_Z 28
_cell_length_a 9.286079
_cell_length_b 9.286079
_cell_length_c 15.087468
_cell_angle_alpha 90.000000
_cell_angle_beta 90.000000
_cell_angle_gamma 90.000000
_cell_volume 1301.011424
_symmetry_space_group_name_H-M "I -4 "
_symmetry_group_IT_number 82
_symmetry_cell_setting 'tetragonal'
loop_
_space_group_symop_operation_xyz
x,y,z
y,-x,-z
-x,-y,z
-y,x,-z
1/2+x,1/2+y,1/2+z
1/2+y,1/2-x,1/2-z
1/2-x,1/2-y,1/2+z
1/2-y,1/2+x,1/2-z
loop_
_atom_site_type_symbol
_atom_site_label
_atom_site_fract_x
_atom_site_fract_y
_atom_site_fract_z
Si Si1 0.005788 0.209172 0.540175
Si Si2 0.681229 0.091153 0.798200
Si Si3 0.079720 0.714239 0.732999
Si Si4 0.500000 0.000000 0.954339
O O1 0.946488 0.205183 0.640055
O O2 0.048696 0.371045 0.517428
O O3 0.148846 0.112176 0.529837
O O4 0.552674 0.192908 0.761506
O O5 0.831761 0.176693 0.796163
O O6 0.640201 0.043880 0.897414
O O7 0.174399 0.569459 0.718377
#
# Coordination Sequence:
#
# PCOD8302367 Si02
#       4
#     8   8   8   4
#     4  11  23  40  62  89 121 161 202 245 299 362
#     4   9  19  36  58  86 118 156 198 243 295 358
#     4  11  23  39  60  90 123 157 199 251 301 353
#     4  10  19  36  61  88 120 156 198 248 299 352
#
# _framework density 21.521718
#
# number of rings (size 3 to 8) (size 9 to 14) (size 15 to 20)
#    0.000    2.000    0.000    6.857    0.000    3.429 
#    0.000    0.000    0.000    4.286    0.000    0.000 
#    0.000    0.000    0.000    0.000    0.000    0.000 
#
# Total GULP energy -173597.001067 kJ/mol
# GULP energy per Si atom -12399.785790 kJ/mol
# Density = 2.147273 g / cm^3
# Si number density = 21.521718 Si / 1000 Ang^3
#
#
#
# Elastic Constant Matrix: (Units=GPa)
#
#
# Indices 1 2 3 4 5 6 
#
# 1 95.8941 34.7336 28.0512 0.0000 0.0000 6.4889
# 2 34.7336 95.8941 28.0512 0.0000 0.0000 -6.4889
# 3 28.0512 28.0512 65.4934 0.0000 0.0000 0.0000
# 4 0.0000 0.0000 0.0000 27.2229 0.0000 0.0000
# 5 0.0000 0.0000 0.0000 0.0000 27.2229 0.0000
# 6 6.4889 -6.4889 0.0000 0.0000 0.0000 49.4192
#
#
#
# Elastic Compliance Matrix: (Units=1/GPa)
#
#
# Indices 1 2 3 4 5 6 
#
# 1 0.013100 -0.003719 -0.004018 0.000000 0.000000 -0.002208
# 2 -0.003719 0.013100 -0.004018 0.000000 0.000000 0.002208
# 3 -0.004018 -0.004018 0.018711 0.000000 0.000000 0.000000
# 4 0.000000 0.000000 0.000000 0.036734 0.000000 0.000000
# 5 0.000000 0.000000 0.000000 0.000000 0.036734 0.000000
# 6 -0.002208 0.002208 0.000000 0.000000 0.000000 0.020815
#
#
# Mechanical properties :
#
#
# Convention : Reuss Voigt Hill
#
# Bulk Modulus (GPa) = 46.72729 48.77261 47.74995
# Shear Modulus (GPa) = 29.44011 31.86938 30.65474
#
# Velocity S-wave (km/s) = 3.70256 3.85229 3.77817
# Velocity P-wave (km/s) = 6.32751 6.51906 6.42400
#
# Compressibility (1/GPa) = 0.02140077
#
# Stress axis : x y z
#
# Youngs Moduli (GPa) = 76.33595 76.33595 53.44592
#
# Poissons Ratio (x) = 0.28390 0.21474
# Poissons Ratio (y) = 0.28390 0.21474
# Poissons Ratio (z) = 0.30671 0.30671
#
# Static dielectric constant tensor:
#      x y z
#    x 3.887890 0.000000 0.000000 
#    y 0.000000 3.887890 0.000000 
#    z 0.000000 0.000000 3.650090 
# 
# 
# High freq. dielectric constant tensor:
#      x y z
#    x 1.841410 0.000000 0.000000 
#    y 0.000000 1.841410 0.000000 
#    z 0.000000 0.000000 1.830510 
# 
# From -- ./inp_files/2466.got.cif
#   From: 2010.03.12/outbox.cif.g09.slc.cpg/sg82_2_cif.got.tgz:2466.got - 2010.04.08 20:02:50.
