data_PCOD8302875
_publ_section_title
;
Structure prediction by ZEFSAII (Michael W. Deem and Ramdas Pophale) SiO2 
 PCOD8302875
Probable space group: P 4/M
;
_chemical_formula_sum "Si O2"
_cell_formula_units_Z 64
_cell_length_a 19.055597
_cell_length_b 19.055597
_cell_length_c 9.037733
_cell_angle_alpha 90.000000
_cell_angle_beta 90.000000
_cell_angle_gamma 90.000000
_cell_volume 3281.743441
_symmetry_space_group_name_H-M "P 4/M"
_symmetry_group_IT_number 83
_symmetry_cell_setting 'tetragonal'
loop_
_space_group_symop_operation_xyz
x,y,z
-y,x,z
-x,-y,z
y,-x,z
-x,-y,-z
y,-x,-z
x,y,-z
-y,x,-z
loop_
_atom_site_type_symbol
_atom_site_label
_atom_site_fract_x
_atom_site_fract_y
_atom_site_fract_z
Si Si1 0.172815 0.827367 0.171240
Si Si2 0.905413 0.713527 0.325065
Si Si3 0.440963 0.863436 0.326339
Si Si4 0.895246 0.428937 0.833511
Si Si5 0.720610 0.948376 0.176431
Si Si6 0.525691 0.609895 0.673178
Si Si7 0.933332 0.907416 0.663493
Si Si8 0.483826 0.248836 0.833694
O O1 0.245599 0.836051 0.262661
O O2 0.118279 0.767965 0.228407
O O3 0.136936 0.902233 0.202559
O O4 0.190652 0.817050 0.000000
O O5 0.908932 0.723084 0.500000
O O6 0.896595 0.632724 0.278507
O O7 0.978848 0.742268 0.255816
O O8 0.447497 0.854374 0.500000
O O9 0.503154 0.915190 0.266917
O O10 0.449775 0.785908 0.252818
O O11 0.929857 0.358303 0.771587
O O12 0.809603 0.421313 0.832182
O O13 0.921566 0.443544 0.000000
O O14 0.726925 0.957728 0.000000
O O15 0.448328 0.582968 0.718356
O O16 0.529049 0.624561 0.500000
O O17 0.544185 0.681019 0.757467
O O18 0.912019 0.878055 0.500000
O O19 0.015467 0.903772 0.681113
O O20 0.507594 0.266742 0.000000
#
# Coordination Sequence:
#
# PCOD8302875 Si02
#       8
#     8   8   8   8   8   8   8   8
#     4  11  23  37  55  80 111 148 188 231 281 340
#     4  11  24  40  60  86 116 152 193 239 291 347
#     4   9  19  37  58  82 114 147 187 234 281 342
#     4   8  18  37  58  83 114 146 185 232 284 341
#     4  10  22  41  62  85 116 153 193 238 290 350
#     4   9  18  33  53  79 113 153 196 241 290 345
#     4   9  18  33  53  76 104 140 180 225 276 328
#     4   9  18  34  56  81 111 148 188 235 288 342
#
# _framework density 19.501830000000002
#
# number of rings (size 3 to 8) (size 9 to 14) (size 15 to 20)
#    0.750    1.750    0.000    2.625    0.000    7.000 
#    2.250    3.750    0.000    0.000    0.000    0.000 
#    0.000    0.000    0.000    0.000    0.000    0.000 
#
# Total GULP energy -792915.357527 kJ/mol
# GULP energy per Si atom -12389.302461 kJ/mol
# Density = 1.945744 g / cm^3
# Si number density = 19.501830 Si / 1000 Ang^3
#
#
#
# Elastic Constant Matrix: (Units=GPa)
#
#
# Indices 1 2 3 4 5 6 
#
# 1 51.2214 13.3522 15.8593 0.0000 0.0000 -1.6155
# 2 13.3522 51.2214 15.8593 0.0000 0.0000 1.6155
# 3 15.8593 15.8593 59.7809 0.0000 0.0000 0.0000
# 4 0.0000 0.0000 0.0000 19.8924 0.0000 0.0000
# 5 0.0000 0.0000 0.0000 0.0000 19.8924 0.0000
# 6 -1.6155 1.6155 0.0000 0.0000 0.0000 27.4747
#
#
#
# Elastic Compliance Matrix: (Units=1/GPa)
#
#
# Indices 1 2 3 4 5 6 
#
# 1 0.022173 -0.004367 -0.004724 0.000000 0.000000 0.001561
# 2 -0.004367 0.022173 -0.004724 0.000000 0.000000 -0.001561
# 3 -0.004724 -0.004724 0.019234 0.000000 0.000000 0.000000
# 4 0.000000 0.000000 0.000000 0.050270 0.000000 0.000000
# 5 0.000000 0.000000 0.000000 0.000000 0.050270 0.000000
# 6 0.001561 -0.001561 0.000000 0.000000 0.000000 0.036581
#
#
# Mechanical properties :
#
#
# Convention : Reuss Voigt Hill
#
# Bulk Modulus (GPa) = 27.81509 28.04057 27.92783
# Shear Modulus (GPa) = 20.80604 21.26211 21.03407
#
# Velocity S-wave (km/s) = 3.26985 3.30549 3.28772
# Velocity P-wave (km/s) = 5.34319 5.38312 5.36319
#
# Compressibility (1/GPa) = 0.03595171
#
# Stress axis : x y z
#
# Youngs Moduli (GPa) = 45.09949 45.09949 51.99086
#
# Poissons Ratio (x) = 0.19693 0.24560
# Poissons Ratio (y) = 0.19693 0.24560
# Poissons Ratio (z) = 0.21305 0.21305
#
# Static dielectric constant tensor:
#      x y z
#    x 3.517450 0.000000 0.000000 
#    y 0.000000 3.517450 0.000000 
#    z 0.000000 0.000000 3.451990 
# 
# 
# High freq. dielectric constant tensor:
#      x y z
#    x 1.750440 0.000000 0.000000 
#    y 0.000000 1.750440 0.000000 
#    z 0.000000 0.000000 1.756640 
# 
# From -- ./inp_files/1295.got.cif
#   From: 2010.03.12/outbox.cif.g09.slc.cpg/sg83_1_cif.got.tgz:1295.got - 2010.04.08 20:05:18.
