data_PCOD8302292
_publ_section_title
;
Structure prediction by ZEFSAII (Michael W. Deem and Ramdas Pophale) SiO2 
 PCOD8302292
Probable space group: P -4
;
_chemical_formula_sum "Si O2"
_cell_formula_units_Z 15
_cell_length_a 10.074910
_cell_length_b 10.074910
_cell_length_c 7.392842
_cell_angle_alpha 90.000000
_cell_angle_beta 90.000000
_cell_angle_gamma 90.000000
_cell_volume 750.401641
_symmetry_space_group_name_H-M "P -4"
_symmetry_group_IT_number 81
_symmetry_cell_setting 'tetragonal'
loop_
_space_group_symop_operation_xyz
x,y,z
y,-x,-z
-x,-y,z
-y,x,-z
loop_
_atom_site_type_symbol
_atom_site_label
_atom_site_fract_x
_atom_site_fract_y
_atom_site_fract_z
Si Si1 0.741835 0.489012 0.246163
Si Si2 0.000000 0.500000 0.016923
Si Si3 0.500000 0.500000 0.000000
Si Si4 0.017379 0.352688 0.669876
Si Si5 0.745851 0.268442 0.536843
O O1 0.877692 0.460105 0.142174
O O2 0.620248 0.446320 0.120370
O O3 0.731909 0.404651 0.428162
O O4 0.731014 0.643395 0.297540
O O5 0.033275 0.373480 0.887060
O O6 0.891404 0.260766 0.624853
O O7 0.000000 0.500000 0.578426
O O8 0.145113 0.277132 0.595563
#
# Coordination Sequence:
#
# PCOD8302292 Si02
#       5
#     4   2   1   4   4
#     4  12  22  38  62  94 126 172 212 268 318 380
#     4  10  22  44  62  92 138 170 200 268 340 366
#     4  12  24  30  56 100 124 154 220 276 304 374
#     4  10  23  43  61  99 128 168 211 265 316 384
#     4  12  22  42  68  92 128 172 218 260 322 384
#
# _framework density 19.989297000000001
#
# number of rings (size 3 to 8) (size 9 to 14) (size 15 to 20)
#    0.800    0.000    2.667    6.400    0.000    0.533 
#    0.000    0.000    0.000    3.200    0.000    0.000 
#    0.000    0.000    0.000    0.000    0.000    0.000 
#
# Total GULP energy -186040.691767 kJ/mol
# GULP energy per Si atom -12402.712784 kJ/mol
# Density = 1.994380 g / cm^3
# Si number density = 19.989297 Si / 1000 Ang^3
#
#
#
# Elastic Constant Matrix: (Units=GPa)
#
#
# Indices 1 2 3 4 5 6 
#
# 1 90.5771 14.0362 15.1460 0.0000 0.0000 7.1572
# 2 14.0362 90.5771 15.1460 0.0000 0.0000 -7.1572
# 3 15.1460 15.1460 74.5302 0.0000 0.0000 0.0000
# 4 0.0000 0.0000 0.0000 39.9116 0.0000 0.0000
# 5 0.0000 0.0000 0.0000 0.0000 39.9116 0.0000
# 6 7.1572 -7.1572 0.0000 0.0000 0.0000 32.7651
#
#
#
# Elastic Compliance Matrix: (Units=1/GPa)
#
#
# Indices 1 2 3 4 5 6 
#
# 1 0.011889 -0.001732 -0.002064 0.000000 0.000000 -0.002975
# 2 -0.001732 0.011889 -0.002064 0.000000 0.000000 0.002975
# 3 -0.002064 -0.002064 0.014256 0.000000 0.000000 0.000000
# 4 0.000000 0.000000 0.000000 0.025055 0.000000 0.000000
# 5 0.000000 0.000000 0.000000 0.000000 0.025055 0.000000
# 6 -0.002975 0.002975 0.000000 0.000000 0.000000 0.031820
#
#
# Mechanical properties :
#
#
# Convention : Reuss Voigt Hill
#
# Bulk Modulus (GPa) = 38.00331 38.26009 38.13170
# Shear Modulus (GPa) = 35.59803 36.60809 36.10306
#
# Velocity S-wave (km/s) = 4.22460 4.28411 4.25446
# Velocity P-wave (km/s) = 6.54594 6.60707 6.57658
#
# Compressibility (1/GPa) = 0.02631350
#
# Stress axis : x y z
#
# Youngs Moduli (GPa) = 84.11121 84.11121 70.14454
#
# Poissons Ratio (x) = 0.14571 0.14478
# Poissons Ratio (y) = 0.14571 0.14478
# Poissons Ratio (z) = 0.17361 0.17361
#
# Static dielectric constant tensor:
#      x y z
#    x 3.359960 0.000000 0.000000 
#    y 0.000000 3.359960 0.000000 
#    z 0.000000 0.000000 3.622380 
# 
# 
# High freq. dielectric constant tensor:
#      x y z
#    x 1.773710 0.000000 0.000000 
#    y 0.000000 1.773710 0.000000 
#    z 0.000000 0.000000 1.787620 
# 
# From -- ./inp_files/628.got.cif
#   From: 2010.03.12/outbox.cif.g09.slc.cpg/sg81_cif.got.tgz:628.got - 2010.04.08 20:01:38.
