data_PCOD8302042
_publ_section_title
;
Structure prediction by ZEFSAII (Michael W. Deem and Ramdas Pophale) SiO2 
 PCOD8302042
Probable space group: P 43
;
_chemical_formula_sum "Si O2"
_cell_formula_units_Z 28
_cell_length_a 11.893908
_cell_length_b 11.893908
_cell_length_c 9.839221
_cell_angle_alpha 90.000000
_cell_angle_beta 90.000000
_cell_angle_gamma 90.000000
_cell_volume 1391.905866
_symmetry_space_group_name_H-M "P 43"
_symmetry_group_IT_number 78
_symmetry_cell_setting 'tetragonal'
loop_
_space_group_symop_operation_xyz
x,y,z
-y,x,3/4+z
-x,-y,1/2+z
y,-x,1/4+z
loop_
_atom_site_type_symbol
_atom_site_label
_atom_site_fract_x
_atom_site_fract_y
_atom_site_fract_z
Si Si1 0.506957 0.117989 0.120500
Si Si2 0.083886 0.516677 0.069520
Si Si3 0.133751 0.735438 0.429727
Si Si4 0.107517 0.001332 0.710489
Si Si5 0.869381 0.719555 0.471209
Si Si6 0.261645 0.798789 0.688254
Si Si7 0.740128 0.792580 0.235489
O O1 0.388050 0.180010 0.139646
O O2 0.611555 0.204928 0.128021
O O3 0.531295 0.031068 0.240067
O O4 0.492599 0.052958 0.978275
O O5 0.145746 0.400412 0.040390
O O6 0.165824 0.618704 0.032286
O O7 0.183876 0.828325 0.326802
O O8 0.173890 0.745203 0.584340
O O9 0.998258 0.743271 0.426911
O O10 0.158816 0.118438 0.757174
O O11 0.046297 0.014485 0.564861
O O12 0.219314 0.926101 0.703145
O O13 0.785753 0.702221 0.342928
O O14 0.254556 0.733452 0.832086
#
# Coordination Sequence:
#
# PCOD8302042 Si02
#       7
#     4   4   4   4   4   4   4
#     4  11  24  43  66  91 133 175 226 266 322 393
#     4  11  24  43  66  91 133 175 226 266 322 393
#     4  11  26  42  66  96 131 174 216 264 326 392
#     4  10  24  36  56  88 136 168 200 250 320 392
#     4  11  26  42  66  96 131 174 216 264 326 392
#     4  11  25  41  62  95 130 173 216 267 328 382
#     4  11  25  41  62  95 130 173 216 267 328 382
#
# _framework density 20.116302999999998
#
# number of rings (size 3 to 8) (size 9 to 14) (size 15 to 20)
#    0.000    1.143    4.286    0.000   18.000    0.000 
#    0.000    0.000    0.000    5.143    0.000    0.000 
#    0.000    0.000    0.000    0.000    0.000    0.000 
#
# Total GULP energy -347079.683544 kJ/mol
# GULP energy per Si atom -12395.702984 kJ/mol
# Density = 2.007052 g / cm^3
# Si number density = 20.116303 Si / 1000 Ang^3
#
#
#
# Elastic Constant Matrix: (Units=GPa)
#
#
# Indices 1 2 3 4 5 6 
#
# 1 79.6219 20.3066 17.6583 0.0000 0.0000 -2.2799
# 2 20.3066 79.6219 17.6583 0.0000 0.0000 2.2799
# 3 17.6583 17.6583 125.6949 0.0000 0.0000 0.0000
# 4 0.0000 0.0000 0.0000 25.8624 0.0000 0.0000
# 5 0.0000 0.0000 0.0000 0.0000 25.8624 0.0000
# 6 -2.2799 2.2799 0.0000 0.0000 0.0000 8.2119
#
#
#
# Elastic Compliance Matrix: (Units=1/GPa)
#
#
# Indices 1 2 3 4 5 6 
#
# 1 0.013878 -0.003348 -0.001479 0.000000 0.000000 0.004783
# 2 -0.003348 0.013878 -0.001479 0.000000 0.000000 -0.004783
# 3 -0.001479 -0.001479 0.008371 0.000000 0.000000 0.000000
# 4 0.000000 0.000000 0.000000 0.038666 0.000000 0.000000
# 5 0.000000 0.000000 0.000000 0.000000 0.038666 0.000000
# 6 0.004783 -0.004783 0.000000 0.000000 0.000000 0.124430
#
#
# Mechanical properties :
#
#
# Convention : Reuss Voigt Hill
#
# Bulk Modulus (GPa) = 42.52762 44.02056 43.27409
# Shear Modulus (GPa) = 19.35414 27.27505 23.31459
#
# Velocity S-wave (km/s) = 3.10516 3.68621 3.40809
# Velocity P-wave (km/s) = 5.83462 6.32835 6.08649
#
# Compressibility (1/GPa) = 0.02351413
#
# Stress axis : x y z
#
# Youngs Moduli (GPa) = 72.05473 72.05473 119.45417
#
# Poissons Ratio (x) = 0.24127 0.17671
# Poissons Ratio (y) = 0.24127 0.17671
# Poissons Ratio (z) = 0.10659 0.10659
#
# Static dielectric constant tensor:
#      x y z
#    x 3.605420 0.000000 0.000000 
#    y 0.000000 3.605420 0.000000 
#    z 0.000000 0.000000 3.992120 
# 
# 
# High freq. dielectric constant tensor:
#      x y z
#    x 1.770050 0.000000 0.000000 
#    y 0.000000 1.770050 0.000000 
#    z 0.000000 0.000000 1.811000 
# 
# From -- ./inp_files/654.got.cif
#   From: 2010.03.12/outbox.cif.g09.slc.cpg/sg78_cif.got.tgz:654.got - 2010.04.16 16:37:20.
