data_PCOD8302777
_publ_section_title
;
Structure prediction by ZEFSAII (Michael W. Deem and Ramdas Pophale) SiO2 
 PCOD8302777
Probable space group: P 4/M
;
_chemical_formula_sum "Si O2"
_cell_formula_units_Z 52
_cell_length_a 17.527873
_cell_length_b 17.527873
_cell_length_c 8.088506
_cell_angle_alpha 90.000000
_cell_angle_beta 90.000000
_cell_angle_gamma 90.000000
_cell_volume 2485.002029
_symmetry_space_group_name_H-M "P 4/M"
_symmetry_group_IT_number 83
_symmetry_cell_setting 'tetragonal'
loop_
_space_group_symop_operation_xyz
x,y,z
-y,x,z
-x,-y,z
y,-x,z
-x,-y,-z
y,-x,-z
x,y,-z
-y,x,-z
loop_
_atom_site_type_symbol
_atom_site_label
_atom_site_fract_x
_atom_site_fract_y
_atom_site_fract_z
Si Si1 0.928680 0.448719 0.306595
Si Si2 0.027045 0.709963 0.810793
Si Si3 0.212294 0.447121 0.694926
Si Si4 0.862474 0.164712 0.316307
Si Si5 0.902319 0.076015 0.000000
Si Si6 0.515173 0.380360 0.303630
Si Si7 0.852389 0.709517 0.191560
O O1 0.933034 0.429667 0.500000
O O2 0.931946 0.371227 0.204088
O O3 0.849811 0.489343 0.258040
O O4 0.000000 0.500000 0.251640
O O5 0.075735 0.769277 0.703894
O O6 0.940300 0.703526 0.744918
O O7 0.029414 0.737506 0.000000
O O8 0.213299 0.432410 0.500000
O O9 0.294535 0.474262 0.763953
O O10 0.190847 0.369294 0.784483
O O11 0.874649 0.129634 0.500000
O O12 0.774564 0.192909 0.296728
O O13 0.864765 0.100847 0.172704
O O14 0.986806 0.106861 0.000000
O O15 0.584514 0.434617 0.240929
O O16 0.515023 0.378751 0.500000
O O17 0.850973 0.732242 0.000000
#
# Coordination Sequence:
#
# PCOD8302777 Si02
#       7
#     8   8   8   8   4   8   8
#     4  10  20  35  55  86 126 161 208 265 316 384
#     4  11  23  40  63  87 122 167 214 265 323 392
#     4  10  20  34  57  89 122 161 212 266 321 387
#     4  12  25  42  66  94 126 167 215 267 327 386
#     4  11  24  44  66  92 127 161 207 266 320 386
#     4   8  15  30  53  82 117 156 202 258 317 375
#     4  11  23  40  61  86 123 164 209 265 324 384
#
# _framework density 20.925536999999998
#
# number of rings (size 3 to 8) (size 9 to 14) (size 15 to 20)
#    0.000    1.615    3.077    2.308    0.000    5.846 
#    0.000    3.846    0.000    0.923    0.000    1.077 
#    0.000    0.000    0.000    0.000    0.000    0.000 
#
# Total GULP energy -644749.430019 kJ/mol
# GULP energy per Si atom -12399.027500 kJ/mol
# Density = 2.087791 g / cm^3
# Si number density = 20.925537 Si / 1000 Ang^3
#
#
#
# Elastic Constant Matrix: (Units=GPa)
#
#
# Indices 1 2 3 4 5 6 
#
# 1 130.8967 41.9405 20.6489 0.0000 0.0000 5.4329
# 2 41.9405 130.8967 20.6489 0.0000 0.0000 -5.4329
# 3 20.6489 20.6489 83.0063 0.0000 0.0000 0.0000
# 4 0.0000 0.0000 0.0000 21.8303 0.0000 0.0000
# 5 0.0000 0.0000 0.0000 0.0000 21.8303 0.0000
# 6 5.4329 -5.4329 0.0000 0.0000 0.0000 35.4948
#
#
#
# Elastic Compliance Matrix: (Units=1/GPa)
#
#
# Indices 1 2 3 4 5 6 
#
# 1 0.008804 -0.002652 -0.001530 0.000000 0.000000 -0.001753
# 2 -0.002652 0.008804 -0.001530 0.000000 0.000000 0.001753
# 3 -0.001530 -0.001530 0.012809 0.000000 0.000000 0.000000
# 4 0.000000 0.000000 0.000000 0.045808 0.000000 0.000000
# 5 0.000000 0.000000 0.000000 0.000000 0.045808 0.000000
# 6 -0.001753 0.001753 0.000000 0.000000 0.000000 0.028710
#
#
# Mechanical properties :
#
#
# Convention : Reuss Voigt Hill
#
# Bulk Modulus (GPa) = 52.65794 56.80847 54.73320
# Shear Modulus (GPa) = 29.67417 33.26852 31.47134
#
# Velocity S-wave (km/s) = 3.76983 3.99162 3.88231
# Velocity P-wave (km/s) = 6.64589 6.96067 6.80510
#
# Compressibility (1/GPa) = 0.01899049
#
# Stress axis : x y z
#
# Youngs Moduli (GPa) = 113.59062 113.59062 78.07241
#
# Poissons Ratio (x) = 0.30126 0.11947
# Poissons Ratio (y) = 0.30126 0.11947
# Poissons Ratio (z) = 0.17382 0.17382
#
# Static dielectric constant tensor:
#      x y z
#    x 3.920520 0.000000 0.000000 
#    y 0.000000 3.920520 0.000000 
#    z 0.000000 0.000000 3.545050 
# 
# 
# High freq. dielectric constant tensor:
#      x y z
#    x 1.823030 0.000000 0.000000 
#    y 0.000000 1.823030 0.000000 
#    z 0.000000 0.000000 1.802560 
# 
# From -- ./inp_files/975.got.cif
#   From: 2010.03.12/outbox.cif.g09.slc.cpg/sg83_1_cif.got.tgz:975.got - 2010.04.08 20:05:18.
