data_PCOD8302190
_publ_section_title
;
Structure prediction by ZEFSAII (Michael W. Deem and Ramdas Pophale) SiO2 
 PCOD8302190
Probable space group: I 41
;
_chemical_formula_sum "Si O2"
_cell_formula_units_Z 48
_cell_length_a 19.324221
_cell_length_b 19.324221
_cell_length_c 5.438286
_cell_angle_alpha 90.000000
_cell_angle_beta 90.000000
_cell_angle_gamma 90.000000
_cell_volume 2030.794763
_symmetry_space_group_name_H-M "I 41"
_symmetry_group_IT_number 80
_symmetry_cell_setting 'tetragonal'
loop_
_space_group_symop_operation_xyz
x,y,z
-y,1/2+x,1/4+z
-x,-y,z
y,1/2-x,1/4+z
1/2+x,1/2+y,1/2+z
1/2-y,x,3/4+z
1/2-x,1/2-y,1/2+z
1/2+y,-x,3/4+z
loop_
_atom_site_type_symbol
_atom_site_label
_atom_site_fract_x
_atom_site_fract_y
_atom_site_fract_z
Si Si1 0.502939 0.875203 0.836100
Si Si2 0.584802 0.851244 0.343771
Si Si3 0.371942 0.952743 0.824540
Si Si4 0.060830 0.200790 0.785216
Si Si5 0.740174 0.064764 0.213500
Si Si6 0.793618 0.335859 0.086660
O O1 0.542632 0.880459 0.577643
O O2 0.454290 0.943637 0.865772
O O3 0.451456 0.808963 0.807450
O O4 0.551484 0.870107 0.078507
O O5 0.599880 0.769188 0.388805
O O6 0.659482 0.889269 0.349861
O O7 0.349374 0.896085 0.622732
O O8 0.352653 0.031180 0.741860
O O9 0.331780 0.936085 0.071724
O O10 0.995290 0.236970 0.663936
O O11 0.748608 0.140346 0.341252
O O12 0.831041 0.261808 0.058221
#
# Coordination Sequence:
#
# PCOD8302190 Si02
#       6
#     8   8   8   8   8   8
#     4  11  25  42  72 100 144 185 234 281 352 426
#     4  11  26  49  73 107 138 184 232 301 359 432
#     4  11  23  42  67  95 140 191 230 289 354 421
#     4  10  25  47  74 102 141 179 236 297 368 426
#     4  10  22  43  64  90 139 187 233 290 350 412
#     4  11  25  35  57  96 137 187 248 293 342 415
#
# _framework density 23.636067000000001
#
# number of rings (size 3 to 8) (size 9 to 14) (size 15 to 20)
#    0.000    1.333    1.667    2.000   16.333    0.667 
#    0.000    3.333    0.000    0.000    0.000    0.000 
#    0.000    0.000    0.000    0.000    0.000    0.000 
#
# Total GULP energy -297454.150766 kJ/mol
# GULP energy per Si atom -12393.922949 kJ/mol
# Density = 2.358227 g / cm^3
# Si number density = 23.636067 Si / 1000 Ang^3
#
#
#
# Elastic Constant Matrix: (Units=GPa)
#
#
# Indices 1 2 3 4 5 6 
#
# 1 61.5477 55.4966 8.6936 0.0000 0.0000 -1.4377
# 2 55.4966 61.5477 8.6936 0.0000 0.0000 1.4377
# 3 8.6936 8.6936 92.2086 0.0000 0.0000 0.0000
# 4 0.0000 0.0000 0.0000 30.3808 0.0000 0.0000
# 5 0.0000 0.0000 0.0000 0.0000 30.3808 0.0000
# 6 -1.4377 1.4377 0.0000 0.0000 0.0000 38.5183
#
#
#
# Elastic Compliance Matrix: (Units=1/GPa)
#
#
# Indices 1 2 3 4 5 6 
#
# 1 0.088453 -0.079788 -0.000817 0.000000 0.000000 0.006280
# 2 -0.079788 0.088453 -0.000817 0.000000 0.000000 -0.006280
# 3 -0.000817 -0.000817 0.010999 0.000000 0.000000 0.000000
# 4 0.000000 0.000000 0.000000 0.032915 0.000000 0.000000
# 5 0.000000 0.000000 0.000000 0.000000 0.032915 0.000000
# 6 0.006280 -0.006280 0.000000 0.000000 0.000000 0.026430
#
#
# Mechanical properties :
#
#
# Convention : Reuss Voigt Hill
#
# Bulk Modulus (GPa) = 39.90195 40.11907 40.01051
# Shear Modulus (GPa) = 11.07750 29.35067 20.21409
#
# Velocity S-wave (km/s) = 2.16723 3.52771 2.92759
# Velocity P-wave (km/s) = 4.81466 5.79685 5.32843
#
# Compressibility (1/GPa) = 0.02506143
#
# Stress axis : x y z
#
# Youngs Moduli (GPa) = 11.30539 11.30539 90.91716
#
# Poissons Ratio (x) = 0.90204 0.07428
# Poissons Ratio (y) = 0.90204 0.07428
# Poissons Ratio (z) = 0.00924 0.00924
#
# Static dielectric constant tensor:
#      x y z
#    x 4.352460 0.000000 0.000000 
#    y 0.000000 4.352460 0.000000 
#    z 0.000000 0.000000 4.162220 
# 
# 
# High freq. dielectric constant tensor:
#      x y z
#    x 1.932640 0.000000 0.000000 
#    y 0.000000 1.932640 0.000000 
#    z 0.000000 0.000000 1.932420 
# 
# From -- ./inp_files/274.got.cif
#   From: 2010.03.12/outbox.cif.g09.slc.cpg/sg80_cif.got.tgz:274.got - 2010.04.08 20:00:04.
