data_PCOD8302781
_publ_section_title
;
Structure prediction by ZEFSAII (Michael W. Deem and Ramdas Pophale) SiO2 
 PCOD8302781
Probable space group: P 4/M
;
_chemical_formula_sum "Si O2"
_cell_formula_units_Z 52
_cell_length_a 19.708547
_cell_length_b 19.708547
_cell_length_c 7.823896
_cell_angle_alpha 90.000000
_cell_angle_beta 90.000000
_cell_angle_gamma 90.000000
_cell_volume 3039.011081
_symmetry_space_group_name_H-M "P 4/M"
_symmetry_group_IT_number 83
_symmetry_cell_setting 'tetragonal'
loop_
_space_group_symop_operation_xyz
x,y,z
-y,x,z
-x,-y,z
y,-x,z
-x,-y,-z
y,-x,-z
x,y,-z
-y,x,-z
loop_
_atom_site_type_symbol
_atom_site_label
_atom_site_fract_x
_atom_site_fract_y
_atom_site_fract_z
Si Si1 0.265653 0.858701 0.195248
Si Si2 0.367072 0.758457 0.687723
Si Si3 0.985411 0.890820 0.500000
Si Si4 0.999929 0.792490 0.803211
Si Si5 0.151106 0.756707 0.200941
Si Si6 0.311823 0.582441 0.000000
Si Si7 0.570533 0.307046 0.000000
Si Si8 0.249514 0.649298 0.311087
O O1 0.332827 0.832706 0.292825
O O2 0.196122 0.821799 0.262064
O O3 0.263299 0.940180 0.215409
O O4 0.275197 0.836714 0.000000
O O5 0.401481 0.753721 0.500000
O O6 0.306350 0.705993 0.707972
O O7 0.421595 0.740873 0.833223
O O8 0.058043 0.924198 0.500000
O O9 0.977621 0.851144 0.676439
O O10 0.072658 0.764034 0.743181
O O11 0.002857 0.819179 0.000000
O O12 0.177664 0.686950 0.284685
O O13 0.156290 0.748171 0.000000
O O14 0.378103 0.629789 0.000000
O O15 0.337359 0.505076 0.000000
O O16 0.264621 0.593369 0.166934
O O17 0.250775 0.615522 0.500000
#
# Coordination Sequence:
#
# PCOD8302781 Si02
#       8
#     8   8   4   8   8   4   4   8
#     4   9  16  29  48  69  96 127 165 214 264 309
#     4   9  17  30  50  74  99 131 167 208 253 287
#     4  11  24  36  44  60  92 136 181 214 254 324
#     4  10  21  33  47  70  96 127 169 217 271 314
#     4   9  16  29  48  69  96 127 165 214 264 309
#     4  10  20  35  54  79 111 139 166 194 224 280
#     4  10  20  35  54  79 111 139 166 194 224 280
#     4   9  17  30  50  74  99 131 167 208 253 287
#
# _framework density 17.11083
#
# number of rings (size 3 to 8) (size 9 to 14) (size 15 to 20)
#    0.000    2.538    1.538    0.923    2.154    2.615 
#    0.000    0.769    0.000    0.000    0.000    6.462 
#    0.000    2.462    0.000    0.000    0.000    0.000 
#
# Total GULP energy -644460.915275 kJ/mol
# GULP energy per Si atom -12393.479140 kJ/mol
# Density = 1.707188 g / cm^3
# Si number density = 17.110830 Si / 1000 Ang^3
#
#
#
# Elastic Constant Matrix: (Units=GPa)
#
#
# Indices 1 2 3 4 5 6 
#
# 1 59.8162 24.2740 25.5127 0.0000 0.0000 -1.3358
# 2 24.2740 59.8162 25.5127 0.0000 0.0000 1.3358
# 3 25.5127 25.5127 96.2546 0.0000 0.0000 0.0000
# 4 0.0000 0.0000 0.0000 6.7140 0.0000 0.0000
# 5 0.0000 0.0000 0.0000 0.0000 6.7140 0.0000
# 6 -1.3358 1.3358 0.0000 0.0000 0.0000 17.2282
#
#
#
# Elastic Compliance Matrix: (Units=1/GPa)
#
#
# Indices 1 2 3 4 5 6 
#
# 1 0.021236 -0.007065 -0.003756 0.000000 0.000000 0.002194
# 2 -0.007065 0.021236 -0.003756 0.000000 0.000000 -0.002194
# 3 -0.003756 -0.003756 0.012380 0.000000 0.000000 0.000000
# 4 0.000000 0.000000 0.000000 0.148942 0.000000 0.000000
# 5 0.000000 0.000000 0.000000 0.000000 0.148942 0.000000
# 6 0.002194 -0.002194 0.000000 0.000000 0.000000 0.058384
#
#
# Mechanical properties :
#
#
# Convention : Reuss Voigt Hill
#
# Bulk Modulus (GPa) = 38.91337 40.72066 39.81701
# Shear Modulus (GPa) = 11.13979 15.50375 13.32177
#
# Velocity S-wave (km/s) = 2.55431 3.01338 2.79329
# Velocity P-wave (km/s) = 5.61165 5.99643 5.80723
#
# Compressibility (1/GPa) = 0.02569811
#
# Stress axis : x y z
#
# Youngs Moduli (GPa) = 47.09017 47.09017 80.77366
#
# Poissons Ratio (x) = 0.33268 0.30340
# Poissons Ratio (y) = 0.33268 0.30340
# Poissons Ratio (z) = 0.17688 0.17688
#
# Static dielectric constant tensor:
#      x y z
#    x 2.968200 0.000000 0.000000 
#    y 0.000000 2.968200 0.000000 
#    z 0.000000 0.000000 3.461270 
# 
# 
# High freq. dielectric constant tensor:
#      x y z
#    x 1.628450 0.000000 0.000000 
#    y 0.000000 1.628450 0.000000 
#    z 0.000000 0.000000 1.677550 
# 
# From -- ./inp_files/1084.got.cif
#   From: 2010.03.12/outbox.cif.g09.slc.cpg/sg83_1_cif.got.tgz:1084.got - 2010.04.08 20:05:18.
