data_PCOD8302210
_publ_section_title
;
Structure prediction by ZEFSAII (Michael W. Deem and Ramdas Pophale) SiO2 
 PCOD8302210
Probable space group: I 41
;
_chemical_formula_sum "Si O2"
_cell_formula_units_Z 56
_cell_length_a 11.353464
_cell_length_b 11.353464
_cell_length_c 21.041459
_cell_angle_alpha 90.000000
_cell_angle_beta 90.000000
_cell_angle_gamma 90.000000
_cell_volume 2712.268153
_symmetry_space_group_name_H-M "I 41"
_symmetry_group_IT_number 80
_symmetry_cell_setting 'tetragonal'
loop_
_space_group_symop_operation_xyz
x,y,z
-y,1/2+x,1/4+z
-x,-y,z
y,1/2-x,1/4+z
1/2+x,1/2+y,1/2+z
1/2-y,x,3/4+z
1/2-x,1/2-y,1/2+z
1/2+y,-x,3/4+z
loop_
_atom_site_type_symbol
_atom_site_label
_atom_site_fract_x
_atom_site_fract_y
_atom_site_fract_z
Si Si1 0.504142 0.640071 0.008190
Si Si2 0.487080 0.638868 0.865418
Si Si3 0.776005 0.314190 0.853304
Si Si4 0.721180 0.794430 0.045231
Si Si5 0.247389 0.328070 0.164257
Si Si6 0.135671 0.531469 0.097173
Si Si7 0.862651 0.497472 0.950359
O O1 0.500000 0.500000 0.012837
O O2 0.383941 0.677904 0.042023
O O3 0.616694 0.698044 0.041827
O O4 0.512596 0.687124 0.936088
O O5 0.500000 0.500000 0.867790
O O6 0.363084 0.693694 0.844751
O O7 0.575574 0.679063 0.811081
O O8 0.833408 0.181879 0.855279
O O9 0.803146 0.383653 0.918975
O O10 0.800806 0.751009 0.105316
O O11 0.795944 0.810673 0.981377
O O12 0.216354 0.462327 0.147739
O O13 0.387152 0.304480 0.169680
O O14 0.000000 0.500000 0.113539
O O15 0.162363 0.494183 0.025091
O O16 0.000000 0.500000 0.934933
#
# Coordination Sequence:
#
# PCOD8302210 Si02
#       7
#     8   8   8   8   8   8   8
#     4  11  22  36  64 101 133 169 225 286 352 404
#     4  11  23  41  60  98 141 177 225 287 350 416
#     4  12  22  40  69  99 134 175 226 289 345 414
#     4  12  23  39  65  96 138 179 216 278 350 424
#     4  12  22  41  67  94 132 171 218 275 353 410
#     4  11  26  45  64  97 136 175 225 287 341 417
#     4  11  21  38  69 101 125 161 221 289 353 393
#
# _framework density 20.646925
#
# number of rings (size 3 to 8) (size 9 to 14) (size 15 to 20)
#    0.000    0.571    7.143    2.143    2.000    0.000 
#    5.143    0.000    0.000    0.000    0.000    0.000 
#    0.000    0.000    0.000    0.000    0.000    0.000 
#
# Total GULP energy -347087.645750 kJ/mol
# GULP energy per Si atom -12395.987348 kJ/mol
# Density = 2.059993 g / cm^3
# Si number density = 20.646925 Si / 1000 Ang^3
#
#
#
# Elastic Constant Matrix: (Units=GPa)
#
#
# Indices 1 2 3 4 5 6 
#
# 1 103.6442 29.5082 38.9303 0.0000 0.0000 3.6860
# 2 29.5082 103.6442 38.9303 0.0000 0.0000 -3.6860
# 3 38.9303 38.9303 141.8767 0.0000 0.0000 0.0000
# 4 0.0000 0.0000 0.0000 8.0641 0.0000 0.0000
# 5 0.0000 0.0000 0.0000 0.0000 8.0641 0.0000
# 6 3.6860 -3.6860 0.0000 0.0000 0.0000 31.3597
#
#
#
# Elastic Compliance Matrix: (Units=1/GPa)
#
#
# Indices 1 2 3 4 5 6 
#
# 1 0.011297 -0.002351 -0.002455 0.000000 0.000000 -0.001604
# 2 -0.002351 0.011297 -0.002455 0.000000 0.000000 0.001604
# 3 -0.002455 -0.002455 0.008395 0.000000 0.000000 0.000000
# 4 0.000000 0.000000 0.000000 0.124006 0.000000 0.000000
# 5 0.000000 0.000000 0.000000 0.000000 0.124006 0.000000
# 6 -0.001604 0.001604 0.000000 0.000000 0.000000 0.032265
#
#
# Mechanical properties :
#
#
# Convention : Reuss Voigt Hill
#
# Bulk Modulus (GPa) = 60.72365 62.65584 61.68975
# Shear Modulus (GPa) = 15.09310 25.61735 20.35522
#
# Velocity S-wave (km/s) = 2.70665 3.52623 3.14327
# Velocity P-wave (km/s) = 6.26437 6.85502 6.56634
#
# Compressibility (1/GPa) = 0.01646805
#
# Stress axis : x y z
#
# Youngs Moduli (GPa) = 88.52007 88.52007 119.11232
#
# Poissons Ratio (x) = 0.20814 0.29237
# Poissons Ratio (y) = 0.20814 0.29237
# Poissons Ratio (z) = 0.21728 0.21728
#
# Static dielectric constant tensor:
#      x y z
#    x 3.705000 0.000000 0.000000 
#    y 0.000000 3.705000 0.000000 
#    z 0.000000 0.000000 4.061830 
# 
# 
# High freq. dielectric constant tensor:
#      x y z
#    x 1.790650 0.000000 0.000000 
#    y 0.000000 1.790650 0.000000 
#    z 0.000000 0.000000 1.826180 
# 
# From -- ./inp_files/1796.got.cif
#   From: 2010.03.12/outbox.cif.g09.slc.cpg/sg80_cif.got.tgz:1796.got - 2010.04.08 20:00:04.
