data_PCOD8302310
_publ_section_title
;
Structure prediction by ZEFSAII (Michael W. Deem and Ramdas Pophale) SiO2 
 PCOD8302310
Probable space group: P -4
;
_chemical_formula_sum "Si O2"
_cell_formula_units_Z 19
_cell_length_a 9.092294
_cell_length_b 9.092294
_cell_length_c 11.156601
_cell_angle_alpha 90.000000
_cell_angle_beta 90.000000
_cell_angle_gamma 90.000000
_cell_volume 922.314087
_symmetry_space_group_name_H-M "P -4"
_symmetry_group_IT_number 81
_symmetry_cell_setting 'tetragonal'
loop_
_space_group_symop_operation_xyz
x,y,z
y,-x,-z
-x,-y,z
-y,x,-z
loop_
_atom_site_type_symbol
_atom_site_label
_atom_site_fract_x
_atom_site_fract_y
_atom_site_fract_z
Si Si1 0.114115 0.254176 0.360777
Si Si2 0.419443 0.149762 0.259295
Si Si3 0.424122 0.705388 0.459851
Si Si4 0.000000 0.000000 0.500000
Si Si5 0.259825 0.537340 0.999167
Si Si6 0.000000 0.500000 0.185350
O O1 0.251681 0.164277 0.304644
O O2 0.157537 0.345025 0.479094
O O3 0.995254 0.139796 0.411394
O O4 0.034180 0.356389 0.264022
O O5 0.518687 0.272103 0.324878
O O6 0.500000 0.000000 0.296066
O O7 0.420839 0.168685 0.117896
O O8 0.562996 0.678469 0.547995
O O9 0.144978 0.534682 0.107920
O O10 0.380158 0.663502 0.021445
#
# Coordination Sequence:
#
# PCOD8302310 Si02
#       6
#     4   4   4   1   4   2
#     4  11  26  43  69 102 137 188 224 295 353 427
#     4  11  22  41  68  98 135 177 229 285 352 418
#     4   9  21  37  63  99 129 165 220 282 345 407
#     4  12  28  48  64 106 148 188 228 276 374 436
#     4  11  25  44  68  97 133 181 234 289 343 408
#     4  12  26  46  68 104 142 182 238 294 352 424
#
# _framework density 20.600359000000001
#
# number of rings (size 3 to 8) (size 9 to 14) (size 15 to 20)
#    0.000    1.263    3.158    1.263   10.316    3.368 
#    0.000    0.000    0.000    0.000    0.000    0.000 
#    0.000    0.000    0.000    0.000    0.000    0.000 
#
# Total GULP energy -235574.841766 kJ/mol
# GULP energy per Si atom -12398.675882 kJ/mol
# Density = 2.055347 g / cm^3
# Si number density = 20.600359 Si / 1000 Ang^3
#
#
#
# Elastic Constant Matrix: (Units=GPa)
#
#
# Indices 1 2 3 4 5 6 
#
# 1 97.9604 49.8953 42.0423 0.0000 0.0000 0.5300
# 2 49.8953 97.9604 42.0423 0.0000 0.0000 -0.5300
# 3 42.0423 42.0423 106.4189 0.0000 0.0000 0.0000
# 4 0.0000 0.0000 0.0000 35.0694 0.0000 0.0000
# 5 0.0000 0.0000 0.0000 0.0000 35.0694 0.0000
# 6 0.5300 -0.5300 0.0000 0.0000 0.0000 42.7019
#
#
#
# Elastic Compliance Matrix: (Units=1/GPa)
#
#
# Indices 1 2 3 4 5 6 
#
# 1 0.014767 -0.006044 -0.003446 0.000000 0.000000 -0.000258
# 2 -0.006044 0.014767 -0.003446 0.000000 0.000000 0.000258
# 3 -0.003446 -0.003446 0.012120 0.000000 0.000000 0.000000
# 4 0.000000 0.000000 0.000000 0.028515 0.000000 0.000000
# 5 0.000000 0.000000 0.000000 0.000000 0.028515 0.000000
# 6 -0.000258 0.000258 0.000000 0.000000 0.000000 0.023425
#
#
# Mechanical properties :
#
#
# Convention : Reuss Voigt Hill
#
# Bulk Modulus (GPa) = 63.36618 63.36660 63.36639
# Shear Modulus (GPa) = 32.62834 33.79214 33.21024
#
# Velocity S-wave (km/s) = 3.98411 4.05454 4.01948
# Velocity P-wave (km/s) = 7.21046 7.26263 7.23659
#
# Compressibility (1/GPa) = 0.01578129
#
# Stress axis : x y z
#
# Youngs Moduli (GPa) = 67.71860 67.71860 82.50975
#
# Poissons Ratio (x) = 0.40928 0.28435
# Poissons Ratio (y) = 0.40928 0.28435
# Poissons Ratio (z) = 0.23337 0.23337
#
# Static dielectric constant tensor:
#      x y z
#    x 3.807340 0.000000 0.000000 
#    y 0.000000 3.807340 0.000000 
#    z 0.000000 0.000000 3.665500 
# 
# 
# High freq. dielectric constant tensor:
#      x y z
#    x 1.810420 0.000000 0.000000 
#    y 0.000000 1.810420 0.000000 
#    z 0.000000 0.000000 1.809050 
# 
# From -- ./inp_files/1156.got.cif
#   From: 2010.03.12/outbox.cif.g09.slc.cpg/sg81_cif.got.tgz:1156.got - 2010.04.08 20:01:38.
