data_PCOD8302425
_publ_section_title
;
Structure prediction by ZEFSAII (Michael W. Deem and Ramdas Pophale) SiO2 
 PCOD8302425
Probable space group: I -4 
;
_chemical_formula_sum "Si O2"
_cell_formula_units_Z 48
_cell_length_a 13.709200
_cell_length_b 13.709200
_cell_length_c 13.024723
_cell_angle_alpha 90.000000
_cell_angle_beta 90.000000
_cell_angle_gamma 90.000000
_cell_volume 2447.894634
_symmetry_space_group_name_H-M "I -4 "
_symmetry_group_IT_number 82
_symmetry_cell_setting 'tetragonal'
loop_
_space_group_symop_operation_xyz
x,y,z
y,-x,-z
-x,-y,z
-y,x,-z
1/2+x,1/2+y,1/2+z
1/2+y,1/2-x,1/2-z
1/2-x,1/2-y,1/2+z
1/2-y,1/2+x,1/2-z
loop_
_atom_site_type_symbol
_atom_site_label
_atom_site_fract_x
_atom_site_fract_y
_atom_site_fract_z
Si Si1 0.343807 0.960992 0.008219
Si Si2 0.922363 0.380913 0.792746
Si Si3 0.930203 0.141800 0.502531
Si Si4 0.974177 0.328736 0.381556
Si Si5 0.104233 0.680875 0.157688
Si Si6 0.278357 0.200409 0.361915
O O1 0.439563 0.915160 0.956643
O O2 0.283919 0.015677 0.917287
O O3 0.289973 0.870571 0.061568
O O4 0.363697 0.045218 0.091433
O O5 0.875718 0.488588 0.788873
O O6 0.846068 0.302517 0.749394
O O7 0.937490 0.220861 0.411818
O O8 0.862542 0.188276 0.592013
O O9 0.041494 0.118441 0.540223
O O10 0.937299 0.347975 0.267428
O O11 0.089414 0.338330 0.389990
O O12 0.187064 0.761577 0.163618
#
# Coordination Sequence:
#
# PCOD8302425 Si02
#       6
#     8   8   8   8   8   8
#     4  10  23  38  61  90 124 161 205 256 317 361
#     4   9  20  35  58  88 123 156 202 257 305 357
#     4  10  21  39  61  90 128 165 204 254 309 372
#     4  11  23  38  63  92 121 163 204 258 317 369
#     4  12  23  40  62  92 128 160 206 258 310 380
#     4  10  23  39  62  95 122 169 211 252 313 374
#
# _framework density 19.608685999999999
#
# number of rings (size 3 to 8) (size 9 to 14) (size 15 to 20)
#    0.000    1.667    3.333    0.500   11.667    5.333 
#    0.000    0.000    0.000    0.500    0.000    0.000 
#    0.000    0.000    0.000    0.000    0.000    0.000 
#
# Total GULP energy -297395.234349 kJ/mol
# GULP energy per Si atom -12391.468098 kJ/mol
# Density = 1.956406 g / cm^3
# Si number density = 19.608686 Si / 1000 Ang^3
#
#
#
# Elastic Constant Matrix: (Units=GPa)
#
#
# Indices 1 2 3 4 5 6 
#
# 1 90.3379 33.0002 33.6345 0.0000 0.0000 6.4751
# 2 33.0002 90.3379 33.6345 0.0000 0.0000 -6.4751
# 3 33.6345 33.6345 98.7384 0.0000 0.0000 0.0000
# 4 0.0000 0.0000 0.0000 24.1022 0.0000 0.0000
# 5 0.0000 0.0000 0.0000 0.0000 24.1022 0.0000
# 6 6.4751 -6.4751 0.0000 0.0000 0.0000 31.7086
#
#
#
# Elastic Compliance Matrix: (Units=1/GPa)
#
#
# Indices 1 2 3 4 5 6 
#
# 1 0.014121 -0.004163 -0.003392 0.000000 0.000000 -0.003734
# 2 -0.004163 0.014121 -0.003392 0.000000 0.000000 0.003734
# 3 -0.003392 -0.003392 0.012439 0.000000 0.000000 0.000000
# 4 0.000000 0.000000 0.000000 0.041490 0.000000 0.000000
# 5 0.000000 0.000000 0.000000 0.000000 0.041490 0.000000
# 6 -0.003734 0.003734 0.000000 0.000000 0.000000 0.033062
#
#
# Mechanical properties :
#
#
# Convention : Reuss Voigt Hill
#
# Bulk Modulus (GPa) = 53.23068 53.32806 53.27937
# Shear Modulus (GPa) = 27.04475 27.92560 27.48518
#
# Velocity S-wave (km/s) = 3.71782 3.77788 3.74797
# Velocity P-wave (km/s) = 6.75537 6.80331 6.77938
#
# Compressibility (1/GPa) = 0.01878616
#
# Stress axis : x y z
#
# Youngs Moduli (GPa) = 70.81733 70.81733 80.39407
#
# Poissons Ratio (x) = 0.29481 0.27270
# Poissons Ratio (y) = 0.29481 0.27270
# Poissons Ratio (z) = 0.24022 0.24022
#
# Static dielectric constant tensor:
#      x y z
#    x 3.564410 0.000000 0.000000 
#    y 0.000000 3.564410 0.000000 
#    z 0.000000 0.000000 3.544960 
# 
# 
# High freq. dielectric constant tensor:
#      x y z
#    x 1.756430 0.000000 0.000000 
#    y 0.000000 1.756430 0.000000 
#    z 0.000000 0.000000 1.762720 
# 
# From -- ./inp_files/1756.got.cif
#   From: 2010.03.12/outbox.cif.g09.slc.cpg/sg82_1_cif.got.tgz:1756.got - 2010.04.08 20:02:50.
