data_PCOD8302423
_publ_section_title
;
Structure prediction by ZEFSAII (Michael W. Deem and Ramdas Pophale) SiO2 
 PCOD8302423
Probable space group: I -4 
;
_chemical_formula_sum "Si O2"
_cell_formula_units_Z 40
_cell_length_a 14.729667
_cell_length_b 14.729667
_cell_length_c 8.354384
_cell_angle_alpha 90.000000
_cell_angle_beta 90.000000
_cell_angle_gamma 90.000000
_cell_volume 1812.592967
_symmetry_space_group_name_H-M "I -4 "
_symmetry_group_IT_number 82
_symmetry_cell_setting 'tetragonal'
loop_
_space_group_symop_operation_xyz
x,y,z
y,-x,-z
-x,-y,z
-y,x,-z
1/2+x,1/2+y,1/2+z
1/2+y,1/2-x,1/2-z
1/2-x,1/2-y,1/2+z
1/2-y,1/2+x,1/2-z
loop_
_atom_site_type_symbol
_atom_site_label
_atom_site_fract_x
_atom_site_fract_y
_atom_site_fract_z
Si Si1 0.847074 0.681230 0.873624
Si Si2 0.368017 0.556082 0.042543
Si Si3 0.828247 0.768764 0.204296
Si Si4 0.594874 0.093238 0.675881
Si Si5 0.183554 0.523242 0.889137
O O1 0.775327 0.702695 0.732839
O O2 0.817982 0.582245 0.934953
O O3 0.948110 0.672912 0.796641
O O4 0.846772 0.756571 0.014292
O O5 0.343128 0.601758 0.216245
O O6 0.449165 0.607029 0.947021
O O7 0.278942 0.567701 0.937567
O O8 0.832087 0.669328 0.283770
O O9 0.493493 0.124405 0.713998
O O10 0.601058 0.067975 0.489078
#
# Coordination Sequence:
#
# PCOD8302423 Si02
#       5
#     8   8   8   8   8
#     4  12  26  45  68 104 140 190 234 300 357 429
#     4  10  21  44  73 101 138 186 233 290 352 421
#     4  11  23  44  69 100 140 186 237 288 359 424
#     4  10  21  38  67  98 135 181 226 284 354 423
#     4  11  25  42  66 102 139 181 236 288 358 426
#
# _framework density 22.067836
#
# number of rings (size 3 to 8) (size 9 to 14) (size 15 to 20)
#    0.000    1.200    4.000    2.400    2.800    0.400 
#    3.600    0.000    0.000    2.400    0.000    0.000 
#    0.000    0.000    0.000    0.000    0.000    0.000 
#
# Total GULP energy -247832.947525 kJ/mol
# GULP energy per Si atom -12391.647376 kJ/mol
# Density = 2.201761 g / cm^3
# Si number density = 22.067836 Si / 1000 Ang^3
#
#
#
# Elastic Constant Matrix: (Units=GPa)
#
#
# Indices 1 2 3 4 5 6 
#
# 1 80.7342 15.2243 29.5806 0.0000 0.0000 0.4797
# 2 15.2243 80.7342 29.5806 0.0000 0.0000 -0.4797
# 3 29.5806 29.5806 124.4352 0.0000 0.0000 0.0000
# 4 0.0000 0.0000 0.0000 34.7161 0.0000 0.0000
# 5 0.0000 0.0000 0.0000 0.0000 34.7161 0.0000
# 6 0.4797 -0.4797 0.0000 0.0000 0.0000 30.7988
#
#
#
# Elastic Compliance Matrix: (Units=1/GPa)
#
#
# Indices 1 2 3 4 5 6 
#
# 1 0.013740 -0.001529 -0.002903 0.000000 0.000000 -0.000238
# 2 -0.001529 0.013740 -0.002903 0.000000 0.000000 0.000238
# 3 -0.002903 -0.002903 0.009416 0.000000 0.000000 0.000000
# 4 0.000000 0.000000 0.000000 0.028805 0.000000 0.000000
# 5 0.000000 0.000000 0.000000 0.000000 0.028805 0.000000
# 6 -0.000238 0.000238 0.000000 0.000000 0.000000 0.032476
#
#
# Mechanical properties :
#
#
# Convention : Reuss Voigt Hill
#
# Bulk Modulus (GPa) = 44.99029 48.29719 46.64374
# Shear Modulus (GPa) = 33.54365 34.14738 33.84551
#
# Velocity S-wave (km/s) = 3.90298 3.93795 3.92050
# Velocity P-wave (km/s) = 6.38299 6.52762 6.45571
#
# Compressibility (1/GPa) = 0.02222702
#
# Stress axis : x y z
#
# Youngs Moduli (GPa) = 72.78242 72.78242 106.19782
#
# Poissons Ratio (x) = 0.11127 0.30826
# Poissons Ratio (y) = 0.11127 0.30826
# Poissons Ratio (z) = 0.21127 0.21127
#
# Static dielectric constant tensor:
#      x y z
#    x 3.982910 0.000000 0.000000 
#    y 0.000000 3.982910 0.000000 
#    z 0.000000 0.000000 3.862930 
# 
# 
# High freq. dielectric constant tensor:
#      x y z
#    x 1.869300 0.000000 0.000000 
#    y 0.000000 1.869300 0.000000 
#    z 0.000000 0.000000 1.854050 
# 
# From -- ./inp_files/927.got.cif
#   From: 2010.03.12/outbox.cif.g09.slc.cpg/sg82_1_cif.got.tgz:927.got - 2010.04.08 20:02:50.
