data_PCOD8302882
_publ_section_title
;
Structure prediction by ZEFSAII (Michael W. Deem and Ramdas Pophale) SiO2 
 PCOD8302882
Probable space group: P 4/M
;
_chemical_formula_sum "Si O2"
_cell_formula_units_Z 48
_cell_length_a 12.098950
_cell_length_b 12.098950
_cell_length_c 18.827273
_cell_angle_alpha 90.000000
_cell_angle_beta 90.000000
_cell_angle_gamma 90.000000
_cell_volume 2756.022660
_symmetry_space_group_name_H-M "P 4/M"
_symmetry_group_IT_number 83
_symmetry_cell_setting 'tetragonal'
loop_
_space_group_symop_operation_xyz
x,y,z
-y,x,z
-x,-y,z
y,-x,z
-x,-y,-z
y,-x,-z
x,y,-z
-y,x,-z
loop_
_atom_site_type_symbol
_atom_site_label
_atom_site_fract_x
_atom_site_fract_y
_atom_site_fract_z
Si Si1 0.897343 0.150075 0.421975
Si Si2 0.472930 0.678973 0.582573
Si Si3 0.822435 0.041311 0.079832
Si Si4 0.875447 0.509438 0.689587
Si Si5 0.867448 0.265508 0.716757
Si Si6 0.904423 0.714353 0.217823
O O1 0.865903 0.196083 0.500000
O O2 0.842534 0.229483 0.364213
O O3 0.028463 0.150643 0.412391
O O4 0.376234 0.591325 0.600366
O O5 0.467930 0.712718 0.500000
O O6 0.452685 0.789339 0.629051
O O7 0.721622 0.064373 0.134351
O O8 0.919282 0.129868 0.092698
O O9 0.775407 0.052165 0.000000
O O10 0.838838 0.393945 0.723607
O O11 0.876081 0.590950 0.757206
O O12 0.000000 0.500000 0.656530
O O13 0.789703 0.202003 0.770821
O O14 0.994246 0.238096 0.735756
#
# Coordination Sequence:
#
# PCOD8302882 Si02
#       6
#     8   8   8   8   8   8
#     4   9  17  29  46  70  97 126 170 220 261 303
#     4   9  18  36  60  76  89 123 182 242 277 298
#     4   9  17  30  53  86 112 131 164 211 255 297
#     4  10  23  35  46  73 108 141 173 204 259 321
#     4  11  20  32  52  73 103 139 176 214 261 307
#     4  11  20  33  53  76 104 139 168 210 257 311
#
# _framework density 17.416401
#
# number of rings (size 3 to 8) (size 9 to 14) (size 15 to 20)
#    0.000    2.167    3.333    2.500    0.000    1.333 
#    0.000    3.333    0.000    5.500    0.000    0.000 
#    0.000    0.000    0.000    5.167    0.000    0.000 
#
# Total GULP energy -595079.801455 kJ/mol
# GULP energy per Si atom -12397.495864 kJ/mol
# Density = 1.737676 g / cm^3
# Si number density = 17.416401 Si / 1000 Ang^3
#
#
#
# Elastic Constant Matrix: (Units=GPa)
#
#
# Indices 1 2 3 4 5 6 
#
# 1 67.2038 17.4639 35.3942 0.0000 0.0000 -5.4400
# 2 17.4639 67.2038 35.3942 0.0000 0.0000 5.4400
# 3 35.3942 35.3942 126.2851 0.0000 0.0000 0.0000
# 4 0.0000 0.0000 0.0000 22.7387 0.0000 0.0000
# 5 0.0000 0.0000 0.0000 0.0000 22.7387 0.0000
# 6 -5.4400 5.4400 0.0000 0.0000 0.0000 16.0693
#
#
#
# Elastic Compliance Matrix: (Units=1/GPa)
#
#
# Indices 1 2 3 4 5 6 
#
# 1 0.018569 -0.003143 -0.004323 0.000000 0.000000 0.007350
# 2 -0.003143 0.018569 -0.004323 0.000000 0.000000 -0.007350
# 3 -0.004323 -0.004323 0.010342 0.000000 0.000000 0.000000
# 4 0.000000 0.000000 0.000000 0.043978 0.000000 0.000000
# 5 0.000000 0.000000 0.000000 0.000000 0.043978 0.000000
# 6 0.007350 -0.007350 0.000000 0.000000 0.000000 0.067207
#
#
# Mechanical properties :
#
#
# Convention : Reuss Voigt Hill
#
# Bulk Modulus (GPa) = 41.84158 48.57747 45.20953
# Shear Modulus (GPa) = 21.35023 23.80539 22.57781
#
# Velocity S-wave (km/s) = 3.50504 3.70109 3.60440
# Velocity P-wave (km/s) = 6.36057 6.79827 6.58305
#
# Compressibility (1/GPa) = 0.02389967
#
# Stress axis : x y z
#
# Youngs Moduli (GPa) = 53.85335 53.85335 96.69301
#
# Poissons Ratio (x) = 0.16928 0.41804
# Poissons Ratio (y) = 0.16928 0.41804
# Poissons Ratio (z) = 0.23283 0.23283
#
# Static dielectric constant tensor:
#      x y z
#    x 3.151040 0.000000 0.000000 
#    y 0.000000 3.151040 0.000000 
#    z 0.000000 0.000000 3.160540 
# 
# 
# High freq. dielectric constant tensor:
#      x y z
#    x 1.661440 0.000000 0.000000 
#    y 0.000000 1.661440 0.000000 
#    z 0.000000 0.000000 1.656910 
# 
# From -- ./inp_files/2641.got.cif
#   From: 2010.03.12/outbox.cif.g09.slc.cpg/sg83_2_cif.got.tgz:2641.got - 2010.04.08 20:05:18.
