data_PCOD8302641
_publ_section_title
;
Structure prediction by ZEFSAII (Michael W. Deem and Ramdas Pophale) SiO2 
 PCOD8302641
Probable space group: P 4/M
;
_chemical_formula_sum "Si O2"
_cell_formula_units_Z 52
_cell_length_a 18.316422
_cell_length_b 18.316422
_cell_length_c 8.397923
_cell_angle_alpha 90.000000
_cell_angle_beta 90.000000
_cell_angle_gamma 90.000000
_cell_volume 2817.430230
_symmetry_space_group_name_H-M "P 4/M"
_symmetry_group_IT_number 83
_symmetry_cell_setting 'tetragonal'
loop_
_space_group_symop_operation_xyz
x,y,z
-y,x,z
-x,-y,z
y,-x,z
-x,-y,-z
y,-x,-z
x,y,-z
-y,x,-z
loop_
_atom_site_type_symbol
_atom_site_label
_atom_site_fract_x
_atom_site_fract_y
_atom_site_fract_z
Si Si1 0.354410 0.862286 0.684496
Si Si2 0.568491 0.597468 0.500000
Si Si3 0.830766 0.375401 0.314696
Si Si4 0.581646 0.989876 0.310580
Si Si5 0.768910 0.518297 0.819589
Si Si6 0.249637 0.253827 0.825776
Si Si7 0.385046 0.640707 0.174840
O O1 0.338155 0.864192 0.500000
O O2 0.367094 0.944159 0.752275
O O3 0.429309 0.817415 0.709239
O O4 0.280570 0.828501 0.759834
O O5 0.482770 0.600696 0.500000
O O6 0.593751 0.634010 0.332925
O O7 0.825575 0.392286 0.500000
O O8 0.778049 0.433239 0.226674
O O9 0.805308 0.292339 0.281439
O O10 0.913286 0.385030 0.250958
O O11 0.578487 0.992511 0.500000
O O12 0.500000 0.000000 0.241152
O O13 0.682667 0.537410 0.802365
O O14 0.795347 0.529811 0.000000
O O15 0.295940 0.326761 0.836684
O O16 0.238166 0.219043 0.000000
O O17 0.385494 0.598475 0.000000
#
# Coordination Sequence:
#
# PCOD8302641 Si02
#       7
#     8   4   8   8   8   8   8
#     4  10  18  33  55  73 101 143 180 209 256 319
#     4  11  26  40  52  70  88 115 171 223 269 333
#     4  11  21  32  54  80 103 136 177 217 258 312
#     4   9  17  32  51  80 112 137 171 219 262 309
#     4  10  20  32  47  74 104 131 167 214 261 310
#     4  10  22  37  50  74 106 132 170 220 261 307
#     4   9  22  38  54  71  96 128 164 216 274 319
#
# _framework density 18.456536
#
# number of rings (size 3 to 8) (size 9 to 14) (size 15 to 20)
#    0.000    2.077    1.538    2.769    8.615    0.615 
#    0.000    4.615    0.000    0.000    0.000    0.000 
#    0.000    0.615    0.000    7.077    0.000    2.769 
#
# Total GULP energy -644401.102742 kJ/mol
# GULP energy per Si atom -12392.328899 kJ/mol
# Density = 1.841453 g / cm^3
# Si number density = 18.456536 Si / 1000 Ang^3
#
#
#
# Elastic Constant Matrix: (Units=GPa)
#
#
# Indices 1 2 3 4 5 6 
#
# 1 79.5353 17.3801 13.5844 0.0000 0.0000 -1.3699
# 2 17.3801 79.5353 13.5844 0.0000 0.0000 1.3699
# 3 13.5844 13.5844 82.8255 0.0000 0.0000 0.0000
# 4 0.0000 0.0000 0.0000 11.8920 0.0000 0.0000
# 5 0.0000 0.0000 0.0000 0.0000 11.8920 0.0000
# 6 -1.3699 1.3699 0.0000 0.0000 0.0000 25.8383
#
#
#
# Elastic Compliance Matrix: (Units=1/GPa)
#
#
# Indices 1 2 3 4 5 6 
#
# 1 0.013471 -0.002655 -0.001774 0.000000 0.000000 0.000855
# 2 -0.002655 0.013471 -0.001774 0.000000 0.000000 -0.000855
# 3 -0.001774 -0.001774 0.012655 0.000000 0.000000 0.000000
# 4 0.000000 0.000000 0.000000 0.084090 0.000000 0.000000
# 5 0.000000 0.000000 0.000000 0.000000 0.084090 0.000000
# 6 0.000855 -0.000855 0.000000 0.000000 0.000000 0.038793
#
#
# Mechanical properties :
#
#
# Convention : Reuss Voigt Hill
#
# Bulk Modulus (GPa) = 36.77683 36.77710 36.77697
# Shear Modulus (GPa) = 18.65388 23.08093 20.86740
#
# Velocity S-wave (km/s) = 3.18259 3.54016 3.36612
# Velocity P-wave (km/s) = 5.78572 6.05639 5.92260
#
# Compressibility (1/GPa) = 0.02719103
#
# Stress axis : x y z
#
# Youngs Moduli (GPa) = 74.23355 74.23355 79.01732
#
# Poissons Ratio (x) = 0.19712 0.14017
# Poissons Ratio (y) = 0.19712 0.14017
# Poissons Ratio (z) = 0.13168 0.13168
#
# Static dielectric constant tensor:
#      x y z
#    x 3.343370 0.000000 0.000000 
#    y 0.000000 3.343370 0.000000 
#    z 0.000000 0.000000 3.619890 
# 
# 
# High freq. dielectric constant tensor:
#      x y z
#    x 1.685690 0.000000 0.000000 
#    y 0.000000 1.685690 0.000000 
#    z 0.000000 0.000000 1.723740 
# 
# From -- ./inp_files/1040.got.cif
#   From: 2010.03.12/outbox.cif.g09.slc.cpg/sg83_1_cif.got.tgz:1040.got - 2010.04.08 20:05:18.
