data_PCOD8302768
_publ_section_title
;
Structure prediction by ZEFSAII (Michael W. Deem and Ramdas Pophale) SiO2 
 PCOD8302768
Probable space group: P 4/M
;
_chemical_formula_sum "Si O2"
_cell_formula_units_Z 56
_cell_length_a 15.279390
_cell_length_b 15.279390
_cell_length_c 12.808765
_cell_angle_alpha 90.000000
_cell_angle_beta 90.000000
_cell_angle_gamma 90.000000
_cell_volume 2990.331187
_symmetry_space_group_name_H-M "P 4/M"
_symmetry_group_IT_number 83
_symmetry_cell_setting 'tetragonal'
loop_
_space_group_symop_operation_xyz
x,y,z
-y,x,z
-x,-y,z
y,-x,z
-x,-y,-z
y,-x,-z
x,y,-z
-y,x,-z
loop_
_atom_site_type_symbol
_atom_site_label
_atom_site_fract_x
_atom_site_fract_y
_atom_site_fract_z
Si Si1 0.788483 0.501623 0.764509
Si Si2 0.287285 0.975397 0.775297
Si Si3 0.470155 0.359531 0.615425
Si Si4 0.207516 0.319997 0.122243
Si Si5 0.572935 0.068984 0.613126
Si Si6 0.328170 0.158215 0.875955
Si Si7 0.140580 0.971145 0.386212
O O1 0.706751 0.454547 0.709933
O O2 0.760813 0.587241 0.830614
O O3 0.847693 0.533860 0.670145
O O4 0.834164 0.428239 0.836226
O O5 0.304022 0.894669 0.853102
O O6 0.358454 0.980888 0.684920
O O7 0.286318 0.067051 0.836830
O O8 0.197932 0.956484 0.715682
O O9 0.566697 0.397794 0.627607
O O10 0.460873 0.316108 0.500000
O O11 0.267984 0.239540 0.163639
O O12 0.219175 0.327892 0.000000
O O13 0.612530 0.098250 0.500000
O O14 0.500000 0.000000 0.588857
O O15 0.330984 0.155519 0.000000
O O16 0.188643 0.961645 0.500000
O O17 0.101933 0.067312 0.379540
#
# Coordination Sequence:
#
# PCOD8302768 Si02
#       7
#     8   8   8   8   8   8   8
#     4  11  20  36  57  78 106 146 177 217 267 321
#     4  11  20  36  57  78 106 146 177 217 267 321
#     4   9  18  33  54  81 111 141 175 216 262 317
#     4  10  23  38  55  80 108 138 182 232 271 314
#     4  10  20  34  50  77 109 136 169 209 253 308
#     4  11  23  38  56  80 105 138 184 229 270 317
#     4   9  18  33  54  81 111 141 175 216 262 317
#
# _framework density 18.727022000000002
#
# number of rings (size 3 to 8) (size 9 to 14) (size 15 to 20)
#    0.000    1.857    1.429    4.286    0.000    0.000 
#    0.000    2.143    0.000    6.857    0.000   12.000 
#    0.000    0.000    0.000    0.000    0.000    0.000 
#
# Total GULP energy -694101.304909 kJ/mol
# GULP energy per Si atom -12394.666159 kJ/mol
# Density = 1.868440 g / cm^3
# Si number density = 18.727022 Si / 1000 Ang^3
#
#
#
# Elastic Constant Matrix: (Units=GPa)
#
#
# Indices 1 2 3 4 5 6 
#
# 1 53.0073 -5.7492 14.1353 0.0000 0.0000 2.3857
# 2 -5.7492 53.0073 14.1353 0.0000 0.0000 -2.3857
# 3 14.1353 14.1353 84.4561 0.0000 0.0000 0.0000
# 4 0.0000 0.0000 0.0000 13.5658 0.0000 0.0000
# 5 0.0000 0.0000 0.0000 0.0000 13.5658 0.0000
# 6 2.3857 -2.3857 0.0000 0.0000 0.0000 26.8223
#
#
#
# Elastic Compliance Matrix: (Units=1/GPa)
#
#
# Indices 1 2 3 4 5 6 
#
# 1 0.020329 0.003186 -0.003936 0.000000 0.000000 -0.001525
# 2 0.003186 0.020329 -0.003936 0.000000 0.000000 0.001525
# 3 -0.003936 -0.003936 0.013158 0.000000 0.000000 0.000000
# 4 0.000000 0.000000 0.000000 0.073715 0.000000 0.000000
# 5 0.000000 0.000000 0.000000 0.000000 0.073715 0.000000
# 6 -0.001525 0.001525 0.000000 0.000000 0.000000 0.037554
#
#
# Mechanical properties :
#
#
# Convention : Reuss Voigt Hill
#
# Bulk Modulus (GPa) = 22.49980 26.16819 24.33400
# Shear Modulus (GPa) = 19.01248 21.98739 20.49994
#
# Velocity S-wave (km/s) = 3.18974 3.43023 3.31217
# Velocity P-wave (km/s) = 5.06030 5.44908 5.25829
#
# Compressibility (1/GPa) = 0.04444483
#
# Stress axis : x y z
#
# Youngs Moduli (GPa) = 49.19082 49.19082 76.00004
#
# Poissons Ratio (x) = -0.15671 0.29911
# Poissons Ratio (y) = -0.15671 0.29911
# Poissons Ratio (z) = 0.19360 0.19360
#
# Static dielectric constant tensor:
#      x y z
#    x 3.394300 0.000000 0.000000 
#    y 0.000000 3.394300 0.000000 
#    z 0.000000 0.000000 3.527270 
# 
# 
# High freq. dielectric constant tensor:
#      x y z
#    x 1.724460 0.000000 0.000000 
#    y 0.000000 1.724460 0.000000 
#    z 0.000000 0.000000 1.739480 
# 
# From -- ./inp_files/1929.got.cif
#   From: 2010.03.12/outbox.cif.g09.slc.cpg/sg83_1_cif.got.tgz:1929.got - 2010.04.08 20:05:18.
