data_PCOD8302937
_publ_section_title
;
Structure prediction by ZEFSAII (Michael W. Deem and Ramdas Pophale) SiO2 
 PCOD8302937
Probable space group: P 4/M
;
_chemical_formula_sum "Si O2"
_cell_formula_units_Z 48
_cell_length_a 8.605441
_cell_length_b 8.605441
_cell_length_c 31.175755
_cell_angle_alpha 90.000000
_cell_angle_beta 90.000000
_cell_angle_gamma 90.000000
_cell_volume 2308.677352
_symmetry_space_group_name_H-M "P 4/M"
_symmetry_group_IT_number 83
_symmetry_cell_setting 'tetragonal'
loop_
_space_group_symop_operation_xyz
x,y,z
-y,x,z
-x,-y,z
y,-x,z
-x,-y,-z
y,-x,-z
x,y,-z
-y,x,-z
loop_
_atom_site_type_symbol
_atom_site_label
_atom_site_fract_x
_atom_site_fract_y
_atom_site_fract_z
Si Si1 0.902172 0.764605 0.787379
Si Si2 0.107196 0.233146 0.545191
Si Si3 0.235346 0.892561 0.361862
Si Si4 0.597871 0.262145 0.285824
Si Si5 0.086310 0.238758 0.884591
Si Si6 0.741595 0.580410 0.048146
O O1 0.840320 0.630352 0.756380
O O2 0.884766 0.703930 0.836040
O O3 0.081653 0.801310 0.778342
O O4 0.148738 0.324648 0.500000
O O5 0.143686 0.313956 0.591045
O O6 0.925504 0.201146 0.544737
O O7 0.361292 0.839608 0.327373
O O8 0.075105 0.798278 0.356047
O O9 0.700713 0.416905 0.285984
O O10 0.127088 0.376096 0.917474
O O11 0.909035 0.195097 0.892981
O O12 0.595818 0.692824 0.055557
O O13 0.807381 0.603417 0.000000
#
# Coordination Sequence:
#
# PCOD8302937 Si02
#       6
#     8   8   8   8   8   8
#     4   9  19  37  58  77  98 125 159 200 247 299
#     4   7  10  19  39  69 100 123 147 188 240 287
#     4   9  17  30  51  77 100 125 160 200 243 291
#     4  11  24  37  48  68  99 132 166 203 242 287
#     4   9  19  35  54  78 105 129 157 199 249 297
#     4   9  19  35  52  72 102 139 175 208 241 280
#
# _framework density 20.791125000000001
#
# number of rings (size 3 to 8) (size 9 to 14) (size 15 to 20)
#    0.000    3.000    0.000    4.000    0.000    6.667 
#    0.000    7.500    0.000    1.000    0.000    5.833 
#    0.000    0.000    0.000    0.000    0.000    0.000 
#
# Total GULP energy -594789.779635 kJ/mol
# GULP energy per Si atom -12391.453742 kJ/mol
# Density = 2.074380 g / cm^3
# Si number density = 20.791125 Si / 1000 Ang^3
#
#
#
# Elastic Constant Matrix: (Units=GPa)
#
#
# Indices 1 2 3 4 5 6 
#
# 1 13.2506 -5.0411 11.1088 0.0000 0.0000 -1.3396
# 2 -5.0411 13.2506 11.1088 0.0000 0.0000 1.3396
# 3 11.1088 11.1088 131.0189 0.0000 0.0000 0.0000
# 4 0.0000 0.0000 0.0000 -2.0029 0.0000 0.0000
# 5 0.0000 0.0000 0.0000 0.0000 -2.0029 0.0000
# 6 -1.3396 1.3396 0.0000 0.0000 0.0000 35.6048
#
#
#
# Elastic Compliance Matrix: (Units=1/GPa)
#
#
# Indices 1 2 3 4 5 6 
#
# 1 0.106529 0.051556 -0.013404 0.000000 0.000000 0.002068
# 2 0.051556 0.106529 -0.013404 0.000000 0.000000 -0.002068
# 3 -0.013404 -0.013404 0.009905 0.000000 0.000000 0.000000
# 4 0.000000 0.000000 0.000000 -0.499273 0.000000 0.000000
# 5 0.000000 0.000000 0.000000 0.000000 -0.499273 0.000000
# 6 0.002068 -0.002068 0.000000 0.000000 0.000000 0.028242
#
#
# Mechanical properties :
#
#
# Convention : Reuss Voigt Hill
#
# Bulk Modulus (GPa) = 3.67026 21.31923 12.49474
# Shear Modulus (GPa) = -7.08196 15.67604 4.29704
#
# Velocity S-wave (km/s) = -1.84760 2.74884 1.43919
# Velocity P-wave (km/s) = 1.66805 4.51122 2.96384
#
# Compressibility (1/GPa) = 0.27246044
#
# Stress axis : x y z
#
# Youngs Moduli (GPa) = 9.38715 9.38715 100.95481
#
# Poissons Ratio (x) = -0.48397 1.35316
# Poissons Ratio (y) = -0.48397 1.35316
# Poissons Ratio (z) = 0.12582 0.12582
#
# Static dielectric constant tensor:
#      x y z
#    x 3.387960 0.000000 0.000000 
#    y 0.000000 3.387960 0.000000 
#    z 0.000000 0.000000 4.161860 
# 
# 
# High freq. dielectric constant tensor:
#      x y z
#    x 1.784700 0.000000 0.000000 
#    y 0.000000 1.784700 0.000000 
#    z 0.000000 0.000000 1.836240 
# 
# From -- ./inp_files/3412.got.cif
#   From: 2010.03.12/outbox.cif.g09.slc.cpg/sg83_2_cif.got.tgz:3412.got - 2010.04.08 20:05:18.
