data_PCOD8302694
_publ_section_title
;
Structure prediction by ZEFSAII (Michael W. Deem and Ramdas Pophale) SiO2 
 PCOD8302694
Probable space group: P 4/M
;
_chemical_formula_sum "Si O2"
_cell_formula_units_Z 64
_cell_length_a 20.153865
_cell_length_b 20.153865
_cell_length_c 9.110911
_cell_angle_alpha 90.000000
_cell_angle_beta 90.000000
_cell_angle_gamma 90.000000
_cell_volume 3700.654109
_symmetry_space_group_name_H-M "P 4/M"
_symmetry_group_IT_number 83
_symmetry_cell_setting 'tetragonal'
loop_
_space_group_symop_operation_xyz
x,y,z
-y,x,z
-x,-y,z
y,-x,z
-x,-y,-z
y,-x,-z
x,y,-z
-y,x,-z
loop_
_atom_site_type_symbol
_atom_site_label
_atom_site_fract_x
_atom_site_fract_y
_atom_site_fract_z
Si Si1 0.808288 0.606089 0.827960
Si Si2 0.324973 0.407963 0.327680
Si Si3 0.057541 0.635103 0.826032
Si Si4 0.931369 0.655549 0.333610
Si Si5 0.687819 0.441526 0.328566
Si Si6 0.033568 0.759691 0.334374
Si Si7 0.105610 0.022494 0.168582
Si Si8 0.819797 0.453383 0.170422
O O1 0.736784 0.622817 0.760135
O O2 0.862177 0.653324 0.752030
O O3 0.828307 0.530615 0.791451
O O4 0.806612 0.620939 0.000000
O O5 0.310796 0.400236 0.500000
O O6 0.335669 0.484730 0.283636
O O7 0.390793 0.369157 0.277937
O O8 0.077276 0.708439 0.764263
O O9 0.114012 0.583690 0.777137
O O10 0.987892 0.611852 0.751173
O O11 0.048106 0.637568 0.000000
O O12 0.922672 0.629092 0.500000
O O13 0.957353 0.732116 0.333379
O O14 0.700552 0.436396 0.500000
O O15 0.756714 0.422360 0.252102
O O16 0.061727 0.760400 0.500000
O O17 0.037575 0.832913 0.271734
O O18 0.050174 0.077269 0.203276
O O19 0.128198 0.026610 0.000000
O O20 0.807032 0.442066 0.000000
#
# Coordination Sequence:
#
# PCOD8302694 Si02
#       8
#     8   8   8   8   8   8   8   8
#     4  10  19  32  51  74 100 134 170 207 251 299
#     4   9  18  33  51  74 101 131 168 211 259 310
#     4   9  17  32  52  71  98 133 165 203 245 290
#     4   9  19  33  49  73 103 131 163 204 243 289
#     4   9  18  32  52  74 100 133 167 209 260 309
#     4   9  19  33  49  72 101 130 162 202 245 289
#     4   9  18  33  54  78 100 124 158 200 245 295
#     4   9  19  33  50  74 102 131 169 211 250 297
#
# _framework density 17.294239999999999
#
# number of rings (size 3 to 8) (size 9 to 14) (size 15 to 20)
#    0.750    2.125    0.000    1.500    0.000    3.250 
#    0.000    5.625    0.000    0.000    0.000    3.500 
#    0.000    0.000    0.000    0.000    0.000    0.000 
#
# Total GULP energy -793299.539926 kJ/mol
# GULP energy per Si atom -12395.305311 kJ/mol
# Density = 1.725488 g / cm^3
# Si number density = 17.294240 Si / 1000 Ang^3
#
#
#
# Elastic Constant Matrix: (Units=GPa)
#
#
# Indices 1 2 3 4 5 6 
#
# 1 33.3545 -4.8986 9.7163 0.0000 0.0000 0.6579
# 2 -4.8986 33.3545 9.7163 0.0000 0.0000 -0.6579
# 3 9.7163 9.7163 61.8422 0.0000 0.0000 0.0000
# 4 0.0000 0.0000 0.0000 26.4646 0.0000 0.0000
# 5 0.0000 0.0000 0.0000 0.0000 26.4646 0.0000
# 6 0.6579 -0.6579 0.0000 0.0000 0.0000 15.3114
#
#
#
# Elastic Compliance Matrix: (Units=1/GPa)
#
#
# Indices 1 2 3 4 5 6 
#
# 1 0.032773 0.006593 -0.006185 0.000000 0.000000 -0.001125
# 2 0.006593 0.032773 -0.006185 0.000000 0.000000 0.001125
# 3 -0.006185 -0.006185 0.018114 0.000000 0.000000 0.000000
# 4 0.000000 0.000000 0.000000 0.037786 0.000000 0.000000
# 5 0.000000 0.000000 0.000000 0.000000 0.037786 0.000000
# 6 -0.001125 0.001125 0.000000 0.000000 0.000000 0.065407
#
#
# Mechanical properties :
#
#
# Convention : Reuss Voigt Hill
#
# Bulk Modulus (GPa) = 13.86859 17.51327 15.69093
# Shear Modulus (GPa) = 19.21382 21.24928 20.23155
#
# Velocity S-wave (km/s) = 3.33678 3.50907 3.42401
# Velocity P-wave (km/s) = 4.78352 5.15429 4.97236
#
# Compressibility (1/GPa) = 0.07210537
#
# Stress axis : x y z
#
# Youngs Moduli (GPa) = 30.51289 30.51289 55.20687
#
# Poissons Ratio (x) = -0.20116 0.34145
# Poissons Ratio (y) = -0.20116 0.34145
# Poissons Ratio (z) = 0.18872 0.18872
#
# Static dielectric constant tensor:
#      x y z
#    x 3.101720 0.000000 0.000000 
#    y 0.000000 3.101720 0.000000 
#    z 0.000000 0.000000 3.213580 
# 
# 
# High freq. dielectric constant tensor:
#      x y z
#    x 1.653430 0.000000 0.000000 
#    y 0.000000 1.653430 0.000000 
#    z 0.000000 0.000000 1.675500 
# 
# From -- ./inp_files/1260.got.cif
#   From: 2010.03.12/outbox.cif.g09.slc.cpg/sg83_1_cif.got.tgz:1260.got - 2010.04.08 20:05:18.
