data_PCOD8302492
_publ_section_title
;
Structure prediction by ZEFSAII (Michael W. Deem and Ramdas Pophale) SiO2 
 PCOD8302492
Probable space group: I -4 
;
_chemical_formula_sum "Si O2"
_cell_formula_units_Z 60
_cell_length_a 11.954843
_cell_length_b 11.954843
_cell_length_c 19.418143
_cell_angle_alpha 90.000000
_cell_angle_beta 90.000000
_cell_angle_gamma 90.000000
_cell_volume 2775.207427
_symmetry_space_group_name_H-M "I -4 "
_symmetry_group_IT_number 82
_symmetry_cell_setting 'tetragonal'
loop_
_space_group_symop_operation_xyz
x,y,z
y,-x,-z
-x,-y,z
-y,x,-z
1/2+x,1/2+y,1/2+z
1/2+y,1/2-x,1/2-z
1/2-x,1/2-y,1/2+z
1/2-y,1/2+x,1/2-z
loop_
_atom_site_type_symbol
_atom_site_label
_atom_site_fract_x
_atom_site_fract_y
_atom_site_fract_z
Si Si1 0.528774 0.174707 0.006856
Si Si2 0.222994 0.326234 0.747797
Si Si3 0.880964 0.293680 0.170865
Si Si4 0.793644 0.742511 0.467643
Si Si5 0.500000 0.000000 0.895684
Si Si6 0.125417 0.096565 0.031419
Si Si7 0.556196 0.611831 0.681771
Si Si8 0.873231 0.490582 0.838779
O O1 0.630848 0.255324 0.023833
O O2 0.483396 0.124544 0.078517
O O3 0.427435 0.244780 0.973190
O O4 0.565345 0.082627 0.949259
O O5 0.283502 0.209871 0.768143
O O6 0.318682 0.393895 0.709268
O O7 0.189372 0.396387 0.815441
O O8 0.117621 0.313265 0.695837
O O9 0.816323 0.251334 0.102664
O O10 0.932427 0.416311 0.154551
O O11 0.981174 0.218475 0.200572
O O12 0.740498 0.665498 0.527753
O O13 0.060461 0.117582 0.100705
O O14 0.036626 0.145234 0.975322
O O15 0.500000 0.500000 0.710864
O O16 0.000000 0.500000 0.812057
#
# Coordination Sequence:
#
# PCOD8302492 Si02
#       8
#     8   8   8   8   4   8   8   8
#     4  11  24  41  69 103 135 180 226 294 356 417
#     4  12  25  43  67  98 142 186 228 276 343 420
#     4  11  24  45  67  94 137 179 236 285 335 415
#     4  11  23  41  67  98 137 173 223 283 353 414
#     4  10  24  44  73 105 128 184 240 288 356 414
#     4  11  20  37  65 101 136 161 207 290 359 395
#     4  12  24  40  65 100 134 176 222 281 345 410
#     4  12  23  42  69 103 139 186 232 283 351 429
#
# _framework density 21.620006
#
# number of rings (size 3 to 8) (size 9 to 14) (size 15 to 20)
#    0.000    0.667    6.000    2.400    1.867    2.400 
#    0.000    4.000    0.000    0.000    0.000    0.000 
#    0.000    0.000    0.000    0.000    0.000    0.000 
#
# Total GULP energy -371839.768742 kJ/mol
# GULP energy per Si atom -12394.658958 kJ/mol
# Density = 2.157080 g / cm^3
# Si number density = 21.620006 Si / 1000 Ang^3
#
#
#
# Elastic Constant Matrix: (Units=GPa)
#
#
# Indices 1 2 3 4 5 6 
#
# 1 108.8114 49.2366 21.4236 0.0000 0.0000 4.6933
# 2 49.2366 108.8114 21.4236 0.0000 0.0000 -4.6933
# 3 21.4236 21.4236 55.3478 0.0000 0.0000 0.0000
# 4 0.0000 0.0000 0.0000 23.1843 0.0000 0.0000
# 5 0.0000 0.0000 0.0000 0.0000 23.1843 0.0000
# 6 4.6933 -4.6933 0.0000 0.0000 0.0000 40.7712
#
#
#
# Elastic Compliance Matrix: (Units=1/GPa)
#
#
# Indices 1 2 3 4 5 6 
#
# 1 0.012082 -0.005013 -0.002736 0.000000 0.000000 -0.001968
# 2 -0.005013 0.012082 -0.002736 0.000000 0.000000 0.001968
# 3 -0.002736 -0.002736 0.020186 0.000000 0.000000 0.000000
# 4 0.000000 0.000000 0.000000 0.043133 0.000000 0.000000
# 5 0.000000 0.000000 0.000000 0.000000 0.043133 0.000000
# 6 -0.001968 0.001968 0.000000 0.000000 0.000000 0.024980
#
#
# Mechanical properties :
#
#
# Convention : Reuss Voigt Hill
#
# Bulk Modulus (GPa) = 42.77358 50.79315 46.78337
# Shear Modulus (GPa) = 27.12078 29.48707 28.30393
#
# Velocity S-wave (km/s) = 3.54564 3.69708 3.62215
# Velocity P-wave (km/s) = 6.04891 6.46290 6.25933
#
# Compressibility (1/GPa) = 0.02337892
#
# Stress axis : x y z
#
# Youngs Moduli (GPa) = 82.76541 82.76541 49.53980
#
# Poissons Ratio (x) = 0.41493 0.13555
# Poissons Ratio (y) = 0.41493 0.13555
# Poissons Ratio (z) = 0.22646 0.22646
#
# Static dielectric constant tensor:
#      x y z
#    x 3.880530 0.000000 0.000000 
#    y 0.000000 3.880530 0.000000 
#    z 0.000000 0.000000 3.804830 
# 
# 
# High freq. dielectric constant tensor:
#      x y z
#    x 1.848520 0.000000 0.000000 
#    y 0.000000 1.848520 0.000000 
#    z 0.000000 0.000000 1.841820 
# 
# From -- ./inp_files/3181.got.cif
#   From: 2010.03.12/outbox.cif.g09.slc.cpg/sg82_2_cif.got.tgz:3181.got - 2010.04.08 20:02:50.
