data_PCOD8302299
_publ_section_title
;
Structure prediction by ZEFSAII (Michael W. Deem and Ramdas Pophale) SiO2 
 PCOD8302299
Probable space group: P -4
;
_chemical_formula_sum "Si O2"
_cell_formula_units_Z 16
_cell_length_a 9.748663
_cell_length_b 9.748663
_cell_length_c 6.964602
_cell_angle_alpha 90.000000
_cell_angle_beta 90.000000
_cell_angle_gamma 90.000000
_cell_volume 661.890912
_symmetry_space_group_name_H-M "P -4"
_symmetry_group_IT_number 81
_symmetry_cell_setting 'tetragonal'
loop_
_space_group_symop_operation_xyz
x,y,z
y,-x,-z
-x,-y,z
-y,x,-z
loop_
_atom_site_type_symbol
_atom_site_label
_atom_site_fract_x
_atom_site_fract_y
_atom_site_fract_z
Si Si1 0.759614 0.338088 0.412297
Si Si2 0.858004 0.811086 0.259014
Si Si3 0.728910 0.099823 0.151202
Si Si4 0.000000 0.000000 0.500000
Si Si5 0.500000 0.500000 0.500000
Si Si6 0.000000 0.500000 0.588649
O O1 0.732035 0.250351 0.607954
O O2 0.792603 0.242724 0.228178
O O3 0.623571 0.431242 0.375084
O O4 0.897911 0.424004 0.444507
O O5 0.992369 0.853629 0.385013
O O6 0.815499 0.964032 0.192011
O O7 0.888797 0.713470 0.078993
O O8 0.587247 0.092039 0.265437
#
# Coordination Sequence:
#
# PCOD8302299 Si02
#       6
#     4   4   4   1   1   2
#     4  11  24  48  73 106 148 198 255 310 378 458
#     4  11  24  41  69 109 148 190 245 313 384 454
#     4  11  23  45  69 110 149 194 249 312 384 460
#     4  12  20  42  72 108 162 192 236 322 408 452
#     4  12  24  52  78  96 148 210 248 308 382 460
#     4  10  24  46  74 110 156 194 258 312 380 462
#
# _framework density 24.173166999999999
#
# number of rings (size 3 to 8) (size 9 to 14) (size 15 to 20)
#    0.000    1.000    5.000    1.500    0.000    0.000 
#    9.000    3.750    0.000    0.000    0.000    0.000 
#    0.000    0.000    0.000    0.000    0.000    0.000 
#
# Total GULP energy -198251.234626 kJ/mol
# GULP energy per Si atom -12390.702164 kJ/mol
# Density = 2.411815 g / cm^3
# Si number density = 24.173167 Si / 1000 Ang^3
#
#
#
# Elastic Constant Matrix: (Units=GPa)
#
#
# Indices 1 2 3 4 5 6 
#
# 1 85.3446 23.0902 39.7714 0.0000 0.0000 -5.0257
# 2 23.0902 85.3446 39.7714 0.0000 0.0000 5.0257
# 3 39.7714 39.7714 137.8628 0.0000 0.0000 0.0000
# 4 0.0000 0.0000 0.0000 26.6144 0.0000 0.0000
# 5 0.0000 0.0000 0.0000 0.0000 26.6144 0.0000
# 6 -5.0257 5.0257 0.0000 0.0000 0.0000 35.4279
#
#
#
# Elastic Compliance Matrix: (Units=1/GPa)
#
#
# Indices 1 2 3 4 5 6 
#
# 1 0.014069 -0.002371 -0.003375 0.000000 0.000000 0.002332
# 2 -0.002371 0.014069 -0.003375 0.000000 0.000000 -0.002332
# 3 -0.003375 -0.003375 0.009201 0.000000 0.000000 0.000000
# 4 0.000000 0.000000 0.000000 0.037574 0.000000 0.000000
# 5 0.000000 0.000000 0.000000 0.000000 0.037574 0.000000
# 6 0.002332 -0.002332 0.000000 0.000000 0.000000 0.028888
#
#
# Mechanical properties :
#
#
# Convention : Reuss Voigt Hill
#
# Bulk Modulus (GPa) = 52.36305 57.09092 54.72698
# Shear Modulus (GPa) = 30.12424 31.45928 30.79176
#
# Velocity S-wave (km/s) = 3.53396 3.61142 3.57290
# Velocity P-wave (km/s) = 6.19359 6.40770 6.30155
#
# Compressibility (1/GPa) = 0.01909744
#
# Stress axis : x y z
#
# Youngs Moduli (GPa) = 71.08026 71.08026 108.68828
#
# Poissons Ratio (x) = 0.16853 0.36678
# Poissons Ratio (y) = 0.16853 0.36678
# Poissons Ratio (z) = 0.23987 0.23987
#
# Static dielectric constant tensor:
#      x y z
#    x 4.536400 0.000000 0.000000 
#    y 0.000000 4.536400 0.000000 
#    z 0.000000 0.000000 4.439290 
# 
# 
# High freq. dielectric constant tensor:
#      x y z
#    x 1.964350 0.000000 0.000000 
#    y 0.000000 1.964350 0.000000 
#    z 0.000000 0.000000 1.939580 
# 
# From -- ./inp_files/136.got.cif
#   From: 2010.03.12/outbox.cif.g09.slc.cpg/sg81_cif.got.tgz:136.got - 2010.04.08 20:01:38.
