data_PCOD8302632
_publ_section_title
;
Structure prediction by ZEFSAII (Michael W. Deem and Ramdas Pophale) SiO2 
 PCOD8302632
Probable space group: P 4/M
;
_chemical_formula_sum "Si O2"
_cell_formula_units_Z 52
_cell_length_a 18.437877
_cell_length_b 18.437877
_cell_length_c 7.690779
_cell_angle_alpha 90.000000
_cell_angle_beta 90.000000
_cell_angle_gamma 90.000000
_cell_volume 2614.521146
_symmetry_space_group_name_H-M "P 4/M"
_symmetry_group_IT_number 83
_symmetry_cell_setting 'tetragonal'
loop_
_space_group_symop_operation_xyz
x,y,z
-y,x,z
-x,-y,z
y,-x,z
-x,-y,-z
y,-x,-z
x,y,-z
-y,x,-z
loop_
_atom_site_type_symbol
_atom_site_label
_atom_site_fract_x
_atom_site_fract_y
_atom_site_fract_z
Si Si1 0.143060 0.184567 0.296026
Si Si2 0.069836 0.332939 0.297661
Si Si3 0.733179 0.287369 0.706840
Si Si4 0.048166 0.566152 0.196559
Si Si5 0.085513 0.084918 0.000000
Si Si6 0.793479 0.434225 0.695754
Si Si7 0.408234 0.786225 0.707676
O O1 0.142430 0.161479 0.500000
O O2 0.084854 0.248464 0.261338
O O3 0.222365 0.213227 0.236914
O O4 0.121487 0.117289 0.175060
O O5 0.060413 0.347172 0.500000
O O6 0.135626 0.381856 0.223637
O O7 0.996349 0.358426 0.204170
O O8 0.735177 0.290023 0.500000
O O9 0.758754 0.363904 0.791110
O O10 0.650647 0.273023 0.771599
O O11 0.119946 0.573338 0.310420
O O12 0.000000 0.500000 0.271700
O O13 0.072027 0.549936 0.000000
O O14 0.000233 0.101465 0.000000
O O15 0.764172 0.434475 0.500000
O O16 0.769888 0.511117 0.783826
O O17 0.410512 0.788356 0.500000
#
# Coordination Sequence:
#
# PCOD8302632 Si02
#       7
#     8   8   8   8   4   8   8
#     4   9  20  40  62  82 110 146 185 235 281 328
#     4   9  17  32  54  75  99 141 182 209 258 330
#     4   8  16  32  53  80 106 135 184 225 261 323
#     4  11  22  31  42  71 113 141 164 214 272 328
#     4  11  26  44  62  86 109 139 187 234 286 346
#     4  10  18  30  52  74  99 140 180 217 260 319
#     4   8  14  27  49  73  99 133 174 217 256 308
#
# _framework density 19.888919999999999
#
# number of rings (size 3 to 8) (size 9 to 14) (size 15 to 20)
#    0.000    2.692    1.538    2.308    1.077    2.462 
#    1.385    3.846    0.000    0.462    0.000    3.231 
#    0.000    0.000    0.000    1.385    0.000    1.538 
#
# Total GULP energy -644436.359485 kJ/mol
# GULP energy per Si atom -12393.006913 kJ/mol
# Density = 1.984365 g / cm^3
# Si number density = 19.888920 Si / 1000 Ang^3
#
#
#
# Elastic Constant Matrix: (Units=GPa)
#
#
# Indices 1 2 3 4 5 6 
#
# 1 125.9557 66.9880 18.1821 0.0000 0.0000 -7.0748
# 2 66.9880 125.9557 18.1821 0.0000 0.0000 7.0748
# 3 18.1821 18.1821 46.6982 0.0000 0.0000 0.0000
# 4 0.0000 0.0000 0.0000 10.8269 0.0000 0.0000
# 5 0.0000 0.0000 0.0000 0.0000 10.8269 0.0000
# 6 -7.0748 7.0748 0.0000 0.0000 0.0000 35.6763
#
#
#
# Elastic Compliance Matrix: (Units=1/GPa)
#
#
# Indices 1 2 3 4 5 6 
#
# 1 0.011700 -0.006106 -0.002178 0.000000 0.000000 0.003531
# 2 -0.006106 0.011700 -0.002178 0.000000 0.000000 -0.003531
# 3 -0.002178 -0.002178 0.023110 0.000000 0.000000 0.000000
# 4 0.000000 0.000000 0.000000 0.092363 0.000000 0.000000
# 5 0.000000 0.000000 0.000000 0.000000 0.092363 0.000000
# 6 0.003531 -0.003531 0.000000 0.000000 0.000000 0.029430
#
#
# Mechanical properties :
#
#
# Convention : Reuss Voigt Hill
#
# Bulk Modulus (GPa) = 39.08469 56.14599 47.61534
# Shear Modulus (GPa) = 17.23444 24.48317 20.85880
#
# Velocity S-wave (km/s) = 2.94689 3.51236 3.24198
# Velocity P-wave (km/s) = 5.59223 6.68879 6.16494
#
# Compressibility (1/GPa) = 0.02558547
#
# Stress axis : x y z
#
# Youngs Moduli (GPa) = 85.47372 85.47372 43.27143
#
# Poissons Ratio (x) = 0.52192 0.09424
# Poissons Ratio (y) = 0.52192 0.09424
# Poissons Ratio (z) = 0.18614 0.18614
#
# Static dielectric constant tensor:
#      x y z
#    x 3.785370 0.000000 0.000000 
#    y 0.000000 3.785370 0.000000 
#    z 0.000000 0.000000 3.226480 
# 
# 
# High freq. dielectric constant tensor:
#      x y z
#    x 1.763330 0.000000 0.000000 
#    y 0.000000 1.763330 0.000000 
#    z 0.000000 0.000000 1.752330 
# 
# From -- ./inp_files/1001.got.cif
#   From: 2010.03.12/outbox.cif.g09.slc.cpg/sg83_1_cif.got.tgz:1001.got - 2010.04.08 20:05:18.
