data_PCOD8302023
_publ_section_title
;
Structure prediction by ZEFSAII (Michael W. Deem and Ramdas Pophale) SiO2 
 PCOD8302023
Probable space group: P 43
;
_chemical_formula_sum "Si O2"
_cell_formula_units_Z 20
_cell_length_a 11.727697
_cell_length_b 11.727697
_cell_length_c 6.832399
_cell_angle_alpha 90.000000
_cell_angle_beta 90.000000
_cell_angle_gamma 90.000000
_cell_volume 939.720485
_symmetry_space_group_name_H-M "P 43"
_symmetry_group_IT_number 78
_symmetry_cell_setting 'tetragonal'
loop_
_space_group_symop_operation_xyz
x,y,z
-y,x,3/4+z
-x,-y,1/2+z
y,-x,1/4+z
loop_
_atom_site_type_symbol
_atom_site_label
_atom_site_fract_x
_atom_site_fract_y
_atom_site_fract_z
Si Si1 0.248737 0.328128 0.675700
Si Si2 0.526539 0.779237 0.198520
Si Si3 0.150564 0.487776 0.347113
Si Si4 0.634356 0.951657 0.923270
Si Si5 0.903980 0.130659 0.342541
O O1 0.245383 0.398596 0.877193
O O2 0.379494 0.308052 0.613573
O O3 0.204668 0.404550 0.501061
O O4 0.173284 0.212443 0.699431
O O5 0.540899 0.765494 0.434374
O O6 0.570144 0.899642 0.112972
O O7 0.093419 0.593405 0.461628
O O8 0.080042 0.407953 0.195572
O O9 0.771658 0.937754 0.934005
O O10 0.008078 0.118335 0.494678
#
# Coordination Sequence:
#
# PCOD8302023 Si02
#       5
#     4   4   4   4   4
#     4  10  24  44  67  99 134 172 228 274 340 404
#     4  10  23  41  67 100 126 175 222 279 335 393
#     4  11  20  41  70  92 132 175 227 281 325 397
#     4  10  21  39  66  97 128 175 230 271 323 398
#     4  11  24  45  64 100 142 179 221 277 343 404
#
# _framework density 21.282924999999999
#
# number of rings (size 3 to 8) (size 9 to 14) (size 15 to 20)
#    0.000    1.600    4.000    0.000    0.000    6.400 
#   10.800    0.000    0.000    0.000    0.000    0.000 
#    0.000    0.000    0.000    0.000    0.000    0.000 
#
# Total GULP energy -247773.391064 kJ/mol
# GULP energy per Si atom -12388.669553 kJ/mol
# Density = 2.123448 g / cm^3
# Si number density = 21.282925 Si / 1000 Ang^3
#
#
#
# Elastic Constant Matrix: (Units=GPa)
#
#
# Indices 1 2 3 4 5 6 
#
# 1 91.8626 66.6683 39.7340 0.0000 0.0000 -3.4400
# 2 66.6683 91.8626 39.7340 0.0000 0.0000 3.4400
# 3 39.7340 39.7340 122.4718 0.0000 0.0000 0.0000
# 4 0.0000 0.0000 0.0000 22.5696 0.0000 0.0000
# 5 0.0000 0.0000 0.0000 0.0000 22.5696 0.0000
# 6 -3.4400 3.4400 0.0000 0.0000 0.0000 18.2639
#
#
#
# Elastic Compliance Matrix: (Units=1/GPa)
#
#
# Indices 1 2 3 4 5 6 
#
# 1 0.024688 -0.017155 -0.002444 0.000000 0.000000 0.007881
# 2 -0.017155 0.024688 -0.002444 0.000000 0.000000 -0.007881
# 3 -0.002444 -0.002444 0.009751 0.000000 0.000000 0.000000
# 4 0.000000 0.000000 0.000000 0.044307 0.000000 0.000000
# 5 0.000000 0.000000 0.000000 0.000000 0.044307 0.000000
# 6 0.007881 -0.007881 0.000000 0.000000 0.000000 0.057722
#
#
# Mechanical properties :
#
#
# Convention : Reuss Voigt Hill
#
# Bulk Modulus (GPa) = 66.48437 66.49664 66.49051
# Shear Modulus (GPa) = 19.64141 23.35135 21.49638
#
# Velocity S-wave (km/s) = 3.04118 3.31597 3.18154
# Velocity P-wave (km/s) = 6.60589 6.78033 6.69368
#
# Compressibility (1/GPa) = 0.01504113
#
# Stress axis : x y z
#
# Youngs Moduli (GPa) = 40.50490 40.50490 102.55404
#
# Poissons Ratio (x) = 0.69488 0.25064
# Poissons Ratio (y) = 0.69488 0.25064
# Poissons Ratio (z) = 0.09899 0.09899
#
# Static dielectric constant tensor:
#      x y z
#    x 3.999020 0.000000 0.000000 
#    y 0.000000 3.999020 0.000000 
#    z 0.000000 0.000000 4.625990 
# 
# 
# High freq. dielectric constant tensor:
#      x y z
#    x 1.836100 0.000000 0.000000 
#    y 0.000000 1.836100 0.000000 
#    z 0.000000 0.000000 1.828020 
# 
# From -- ./inp_files/109.got.cif
#   From: 2010.03.12/outbox.cif.g09.slc.cpg/sg78_cif.got.tgz:109.got - 2010.04.16 16:37:20.
