data_PCOD8302619
_publ_section_title
;
Structure prediction by ZEFSAII (Michael W. Deem and Ramdas Pophale) SiO2 
 PCOD8302619
Probable space group: P 4/M
;
_chemical_formula_sum "Si O2"
_cell_formula_units_Z 56
_cell_length_a 20.187539
_cell_length_b 20.187539
_cell_length_c 9.160471
_cell_angle_alpha 90.000000
_cell_angle_beta 90.000000
_cell_angle_gamma 90.000000
_cell_volume 3733.228405
_symmetry_space_group_name_H-M "P 4/M"
_symmetry_group_IT_number 83
_symmetry_cell_setting 'tetragonal'
loop_
_space_group_symop_operation_xyz
x,y,z
-y,x,z
-x,-y,z
y,-x,z
-x,-y,-z
y,-x,-z
x,y,-z
-y,x,-z
loop_
_atom_site_type_symbol
_atom_site_label
_atom_site_fract_x
_atom_site_fract_y
_atom_site_fract_z
Si Si1 0.857267 0.063168 0.839220
Si Si2 0.078207 0.500363 0.663781
Si Si3 0.632504 0.922296 0.826915
Si Si4 0.368909 0.924405 0.827238
Si Si5 0.171695 0.252598 0.838516
Si Si6 0.944630 0.148385 0.339003
Si Si7 0.740178 0.836320 0.663087
O O1 0.810979 0.126042 0.854036
O O2 0.922381 0.082337 0.747046
O O3 0.819281 0.004633 0.753062
O O4 0.877358 0.037916 0.000000
O O5 0.108617 0.503321 0.500000
O O6 0.101211 0.563121 0.758138
O O7 0.101718 0.434157 0.745592
O O8 0.000000 0.500000 0.653765
O O9 0.686200 0.871947 0.763230
O O10 0.648473 0.999116 0.785162
O O11 0.629520 0.913455 0.000000
O O12 0.311625 0.873966 0.774410
O O13 0.380349 0.920292 0.000000
O O14 0.234035 0.232972 0.735301
O O15 0.198607 0.271806 0.000000
O O16 0.969785 0.129049 0.500000
O O17 0.884841 0.198557 0.351364
O O18 0.712257 0.821167 0.500000
#
# Coordination Sequence:
#
# PCOD8302619 Si02
#       7
#     8   8   8   8   8   8   8
#     4  10  19  31  45  58  71  91 123 160 197 241
#     4   9  17  28  42  63  88 110 134 166 205 248
#     4  10  18  29  46  64  84 110 139 172 209 247
#     4   9  17  29  45  64  84 108 138 171 208 249
#     4   9  18  31  45  60  79 103 133 167 201 241
#     4  10  20  32  43  56  74  94 118 155 203 248
#     4  10  20  31  43  60  81 104 132 165 202 245
#
# _framework density 15.000422
#
# number of rings (size 3 to 8) (size 9 to 14) (size 15 to 20)
#    0.000    2.429    0.000    3.000    0.000    6.571 
#    0.000    1.429    0.000    0.000    0.000    0.000 
#    0.000    0.000    0.000    0.000    0.000    0.714 
#
# Total GULP energy -694033.805754 kJ/mol
# GULP energy per Si atom -12393.460817 kJ/mol
# Density = 1.496628 g / cm^3
# Si number density = 15.000422 Si / 1000 Ang^3
#
#
#
# Elastic Constant Matrix: (Units=GPa)
#
#
# Indices 1 2 3 4 5 6 
#
# 1 66.8337 25.8236 39.7586 0.0000 0.0000 1.2036
# 2 25.8236 66.8337 39.7586 0.0000 0.0000 -1.2036
# 3 39.7586 39.7586 111.4725 0.0000 0.0000 0.0000
# 4 0.0000 0.0000 0.0000 20.0091 0.0000 0.0000
# 5 0.0000 0.0000 0.0000 0.0000 20.0091 0.0000
# 6 1.2036 -1.2036 0.0000 0.0000 0.0000 9.8728
#
#
#
# Elastic Compliance Matrix: (Units=1/GPa)
#
#
# Indices 1 2 3 4 5 6 
#
# 1 0.020057 -0.004503 -0.005547 0.000000 0.000000 -0.002994
# 2 -0.004503 0.020057 -0.005547 0.000000 0.000000 0.002994
# 3 -0.005547 -0.005547 0.012928 0.000000 0.000000 0.000000
# 4 0.000000 0.000000 0.000000 0.049977 0.000000 0.000000
# 5 0.000000 0.000000 0.000000 0.000000 0.049977 0.000000
# 6 -0.002994 0.002994 0.000000 0.000000 0.000000 0.102018
#
#
# Mechanical properties :
#
#
# Convention : Reuss Voigt Hill
#
# Bulk Modulus (GPa) = 45.77725 50.64682 48.21203
# Shear Modulus (GPa) = 17.03628 19.29815 18.16722
#
# Velocity S-wave (km/s) = 3.37370 3.59068 3.48388
# Velocity P-wave (km/s) = 6.76457 7.14336 6.95654
#
# Compressibility (1/GPa) = 0.02184491
#
# Stress axis : x y z
#
# Youngs Moduli (GPa) = 49.85913 49.85913 77.35224
#
# Poissons Ratio (x) = 0.22454 0.42909
# Poissons Ratio (y) = 0.22454 0.42909
# Poissons Ratio (z) = 0.27658 0.27658
#
# Static dielectric constant tensor:
#      x y z
#    x 2.706760 0.000000 0.000000 
#    y 0.000000 2.706760 0.000000 
#    z 0.000000 0.000000 3.334630 
# 
# 
# High freq. dielectric constant tensor:
#      x y z
#    x 1.537360 0.000000 0.000000 
#    y 0.000000 1.537360 0.000000 
#    z 0.000000 0.000000 1.596130 
# 
# From -- ./inp_files/1194.got.cif
#   From: 2010.03.12/outbox.cif.g09.slc.cpg/sg83_1_cif.got.tgz:1194.got - 2010.04.08 20:05:18.
