data_PCOD8302886
_publ_section_title
;
Structure prediction by ZEFSAII (Michael W. Deem and Ramdas Pophale) SiO2 
 PCOD8302886
Probable space group: P 4/M
;
_chemical_formula_sum "Si O2"
_cell_formula_units_Z 32
_cell_length_a 11.410380
_cell_length_b 11.410380
_cell_length_c 12.244236
_cell_angle_alpha 90.000000
_cell_angle_beta 90.000000
_cell_angle_gamma 90.000000
_cell_volume 1594.160000
_symmetry_space_group_name_H-M "P 4/M"
_symmetry_group_IT_number 83
_symmetry_cell_setting 'tetragonal'
loop_
_space_group_symop_operation_xyz
x,y,z
-y,x,z
-x,-y,z
y,-x,z
-x,-y,-z
y,-x,-z
x,y,-z
-y,x,-z
loop_
_atom_site_type_symbol
_atom_site_label
_atom_site_fract_x
_atom_site_fract_y
_atom_site_fract_z
Si Si1 0.691827 0.466576 0.500000
Si Si2 0.096601 0.673258 0.124494
Si Si3 0.833571 0.702119 0.172281
Si Si4 0.128032 0.494983 0.683061
Si Si5 0.673468 0.585428 0.000000
O O1 0.633766 0.594688 0.500000
O O2 0.772623 0.450175 0.606461
O O3 0.166593 0.782846 0.176807
O O4 0.119928 0.560709 0.200054
O O5 0.961108 0.708086 0.118163
O O6 0.139520 0.647016 0.000000
O O7 0.842374 0.641596 0.291860
O O8 0.744279 0.620618 0.106804
O O9 0.000000 0.500000 0.625263
O O10 0.552209 0.654765 0.000000
#
# Coordination Sequence:
#
# PCOD8302886 Si02
#       5
#     4   8   8   8   4
#     4  11  23  42  62  84 115 147 184 238 296 347
#     4  11  21  36  58  85 118 157 191 237 286 333
#     4  11  22  36  55  85 117 154 196 234 284 339
#     4  10  23  38  62  84 112 150 195 236 284 342
#     4  11  22  34  52  77 112 150 189 235 275 326
#
# _framework density 20.073267000000001
#
# number of rings (size 3 to 8) (size 9 to 14) (size 15 to 20)
#    0.000    1.250    2.500    3.375    1.750    2.000 
#    0.000    3.750    0.000    0.000    0.000    0.000 
#    0.000   18.000    0.000    0.000    0.000    0.000 
#
# Total GULP energy -396732.391794 kJ/mol
# GULP energy per Si atom -12397.887244 kJ/mol
# Density = 2.002758 g / cm^3
# Si number density = 20.073267 Si / 1000 Ang^3
#
#
#
# Elastic Constant Matrix: (Units=GPa)
#
#
# Indices 1 2 3 4 5 6 
#
# 1 131.7510 56.6963 31.8438 0.0000 0.0000 5.8369
# 2 56.6963 131.7510 31.8438 0.0000 0.0000 -5.8369
# 3 31.8438 31.8438 63.4069 0.0000 0.0000 0.0000
# 4 0.0000 0.0000 0.0000 23.8628 0.0000 0.0000
# 5 0.0000 0.0000 0.0000 0.0000 23.8628 0.0000
# 6 5.8369 -5.8369 0.0000 0.0000 0.0000 37.2803
#
#
#
# Elastic Compliance Matrix: (Units=1/GPa)
#
#
# Indices 1 2 3 4 5 6 
#
# 1 0.010024 -0.003632 -0.003210 0.000000 0.000000 -0.002138
# 2 -0.003632 0.010024 -0.003210 0.000000 0.000000 0.002138
# 3 -0.003210 -0.003210 0.018995 0.000000 0.000000 0.000000
# 4 0.000000 0.000000 0.000000 0.041906 0.000000 0.000000
# 5 0.000000 0.000000 0.000000 0.000000 0.041906 0.000000
# 6 -0.002138 0.002138 0.000000 0.000000 0.000000 0.027493
#
#
# Mechanical properties :
#
#
# Convention : Reuss Voigt Hill
#
# Bulk Modulus (GPa) = 52.80227 63.07518 57.93873
# Shear Modulus (GPa) = 28.28609 30.76952 29.52781
#
# Velocity S-wave (km/s) = 3.75793 3.91942 3.83952
# Velocity P-wave (km/s) = 6.72244 7.20924 6.97009
#
# Compressibility (1/GPa) = 0.01893858
#
# Stress axis : x y z
#
# Youngs Moduli (GPa) = 99.76313 99.76313 52.64498
#
# Poissons Ratio (x) = 0.36238 0.16898
# Poissons Ratio (y) = 0.36238 0.16898
# Poissons Ratio (z) = 0.32022 0.32022
#
# Static dielectric constant tensor:
#      x y z
#    x 3.816450 0.000000 0.000000 
#    y 0.000000 3.816450 0.000000 
#    z 0.000000 0.000000 3.352660 
# 
# 
# High freq. dielectric constant tensor:
#      x y z
#    x 1.793770 0.000000 0.000000 
#    y 0.000000 1.793770 0.000000 
#    z 0.000000 0.000000 1.758290 
# 
# From -- ./inp_files/1574.got.cif
#   From: 2010.03.12/outbox.cif.g09.slc.cpg/sg83_1_cif.got.tgz:1574.got - 2010.04.08 20:05:18.
