data_PCOD8302542
_publ_section_title
;
Structure prediction by ZEFSAII (Michael W. Deem and Ramdas Pophale) SiO2 
 PCOD8302542
Probable space group: I -4 
;
_chemical_formula_sum "Si O2"
_cell_formula_units_Z 34
_cell_length_a 10.982528
_cell_length_b 10.982528
_cell_length_c 12.417435
_cell_angle_alpha 90.000000
_cell_angle_beta 90.000000
_cell_angle_gamma 90.000000
_cell_volume 1497.740362
_symmetry_space_group_name_H-M "I -4 "
_symmetry_group_IT_number 82
_symmetry_cell_setting 'tetragonal'
loop_
_space_group_symop_operation_xyz
x,y,z
y,-x,-z
-x,-y,z
-y,x,-z
1/2+x,1/2+y,1/2+z
1/2+y,1/2-x,1/2-z
1/2-x,1/2-y,1/2+z
1/2-y,1/2+x,1/2-z
loop_
_atom_site_type_symbol
_atom_site_label
_atom_site_fract_x
_atom_site_fract_y
_atom_site_fract_z
Si Si1 0.811924 0.730093 0.802564
Si Si2 0.500000 0.500000 0.500000
Si Si3 0.561530 0.245595 0.386427
Si Si4 0.872037 0.935485 0.659556
Si Si5 0.375840 0.246364 0.975534
O O1 0.740830 0.661581 0.707495
O O2 0.821274 0.872856 0.767985
O O3 0.745885 0.711718 0.915547
O O4 0.946880 0.681438 0.829064
O O5 0.531961 0.380893 0.429222
O O6 0.610743 0.152663 0.479039
O O7 0.909127 0.832668 0.574160
O O8 0.761056 0.016902 0.612513
O O9 0.000000 0.000000 0.685811
#
# Coordination Sequence:
#
# PCOD8302542 Si02
#       5
#     8   2   8   8   8
#     4  11  26  42  68 107 135 180 230 283 339 409
#     4  12  24  52  72  96 138 196 236 280 340 444
#     4  11  26  43  69 102 140 179 231 286 346 404
#     4  11  22  43  75  96 132 185 232 269 333 415
#     4  11  22  43  70 103 133 179 232 282 328 411
#
# _framework density 22.700861
#
# number of rings (size 3 to 8) (size 9 to 14) (size 15 to 20)
#    0.000    0.941    4.706    1.412    8.235    0.471 
#    0.000    0.000    0.000    0.000    0.000    0.000 
#    0.000    0.000    0.000    0.000    0.000    0.000 
#
# Total GULP energy -210668.188662 kJ/mol
# GULP energy per Si atom -12392.246392 kJ/mol
# Density = 2.264919 g / cm^3
# Si number density = 22.700861 Si / 1000 Ang^3
#
#
#
# Elastic Constant Matrix: (Units=GPa)
#
#
# Indices 1 2 3 4 5 6 
#
# 1 87.1132 41.1759 23.5945 0.0000 0.0000 -2.0420
# 2 41.1759 87.1132 23.5945 0.0000 0.0000 2.0420
# 3 23.5945 23.5945 62.2921 0.0000 0.0000 0.0000
# 4 0.0000 0.0000 0.0000 39.0259 0.0000 0.0000
# 5 0.0000 0.0000 0.0000 0.0000 39.0259 0.0000
# 6 -2.0420 2.0420 0.0000 0.0000 0.0000 42.4788
#
#
#
# Elastic Compliance Matrix: (Units=1/GPa)
#
#
# Indices 1 2 3 4 5 6 
#
# 1 0.015459 -0.006403 -0.003430 0.000000 0.000000 0.001051
# 2 -0.006403 0.015459 -0.003430 0.000000 0.000000 -0.001051
# 3 -0.003430 -0.003430 0.018652 0.000000 0.000000 0.000000
# 4 0.000000 0.000000 0.000000 0.025624 0.000000 0.000000
# 5 0.000000 0.000000 0.000000 0.000000 0.025624 0.000000
# 6 0.001051 -0.001051 0.000000 0.000000 0.000000 0.023642
#
#
# Mechanical properties :
#
#
# Convention : Reuss Voigt Hill
#
# Bulk Modulus (GPa) = 43.39557 45.91646 44.65602
# Shear Modulus (GPa) = 31.51200 33.98303 32.74751
#
# Velocity S-wave (km/s) = 3.72982 3.87330 3.80223
# Velocity P-wave (km/s) = 6.14056 6.34617 6.24421
#
# Compressibility (1/GPa) = 0.02304383
#
# Stress axis : x y z
#
# Youngs Moduli (GPa) = 64.68533 64.68533 53.61327
#
# Poissons Ratio (x) = 0.41416 0.18392
# Poissons Ratio (y) = 0.41416 0.18392
# Poissons Ratio (z) = 0.22190 0.22190
#
# Static dielectric constant tensor:
#      x y z
#    x 4.185210 0.000000 0.000000 
#    y 0.000000 4.185210 0.000000 
#    z 0.000000 0.000000 4.367550 
# 
# 
# High freq. dielectric constant tensor:
#      x y z
#    x 1.884790 0.000000 0.000000 
#    y 0.000000 1.884790 0.000000 
#    z 0.000000 0.000000 1.911620 
# 
# From -- ./inp_files/1562.got.cif
#   From: 2010.03.12/outbox.cif.g09.slc.cpg/sg82_1_cif.got.tgz:1562.got - 2010.04.08 20:02:50.
