data_PCOD8302829
_publ_section_title
;
Structure prediction by ZEFSAII (Michael W. Deem and Ramdas Pophale) SiO2 
 PCOD8302829
Probable space group: P 4/M
;
_chemical_formula_sum "Si O2"
_cell_formula_units_Z 36
_cell_length_a 14.680320
_cell_length_b 14.680320
_cell_length_c 7.793994
_cell_angle_alpha 90.000000
_cell_angle_beta 90.000000
_cell_angle_gamma 90.000000
_cell_volume 1679.697640
_symmetry_space_group_name_H-M "P 4/M"
_symmetry_group_IT_number 83
_symmetry_cell_setting 'tetragonal'
loop_
_space_group_symop_operation_xyz
x,y,z
-y,x,z
-x,-y,z
y,-x,z
-x,-y,-z
y,-x,-z
x,y,-z
-y,x,-z
loop_
_atom_site_type_symbol
_atom_site_label
_atom_site_fract_x
_atom_site_fract_y
_atom_site_fract_z
Si Si1 0.484356 0.901869 0.803467
Si Si2 0.641944 0.460931 0.500000
Si Si3 0.746175 0.382591 0.196407
Si Si4 0.870731 0.063380 0.795973
Si Si5 0.820958 0.703216 0.203896
O O1 0.580897 0.849663 0.789904
O O2 0.396974 0.848044 0.722231
O O3 0.500000 0.000000 0.713062
O O4 0.456797 0.918266 0.000000
O O5 0.611749 0.563258 0.500000
O O6 0.694507 0.450168 0.322292
O O7 0.734182 0.279795 0.264526
O O8 0.710596 0.393627 0.000000
O O9 0.778372 0.108400 0.722334
O O10 0.958970 0.120773 0.731700
O O11 0.868798 0.065862 0.000000
O O12 0.820990 0.703607 0.000000
#
# Coordination Sequence:
#
# PCOD8302829 Si02
#       5
#     8   4   8   8   8
#     4   9  18  31  50  79 114 150 192 240 290 344
#     4  11  24  40  61  86 112 147 193 244 296 346
#     4  10  21  38  59  84 117 153 192 238 289 351
#     4   8  14  23  38  67 107 144 184 235 283 337
#     4   9  17  28  48  75 107 150 191 233 290 342
#
# _framework density 21.432428999999999
#
# number of rings (size 3 to 8) (size 9 to 14) (size 15 to 20)
#    0.000    2.778    0.000    2.000    3.111    2.667 
#    0.000    1.667    0.000    0.000    0.000    0.000 
#    0.000    1.778    0.000    0.222    0.000    0.000 
#
# Total GULP energy -446062.742816 kJ/mol
# GULP energy per Si atom -12390.631745 kJ/mol
# Density = 2.138365 g / cm^3
# Si number density = 21.432429 Si / 1000 Ang^3
#
#
#
# Elastic Constant Matrix: (Units=GPa)
#
#
# Indices 1 2 3 4 5 6 
#
# 1 136.3424 54.3133 7.6866 0.0000 0.0000 -2.8739
# 2 54.3133 136.3424 7.6866 0.0000 0.0000 2.8739
# 3 7.6866 7.6866 49.0479 0.0000 0.0000 0.0000
# 4 0.0000 0.0000 0.0000 11.0384 0.0000 0.0000
# 5 0.0000 0.0000 0.0000 0.0000 11.0384 0.0000
# 6 -2.8739 2.8739 0.0000 0.0000 0.0000 48.3325
#
#
#
# Elastic Compliance Matrix: (Units=1/GPa)
#
#
# Indices 1 2 3 4 5 6 
#
# 1 0.008777 -0.003465 -0.000833 0.000000 0.000000 0.000728
# 2 -0.003465 0.008777 -0.000833 0.000000 0.000000 -0.000728
# 3 -0.000833 -0.000833 0.020649 0.000000 0.000000 0.000000
# 4 0.000000 0.000000 0.000000 0.090593 0.000000 0.000000
# 5 0.000000 0.000000 0.000000 0.000000 0.090593 0.000000
# 6 0.000728 -0.000728 0.000000 0.000000 0.000000 0.020777
#
#
# Mechanical properties :
#
#
# Convention : Reuss Voigt Hill
#
# Bulk Modulus (GPa) = 35.78648 51.23397 43.51022
# Shear Modulus (GPa) = 19.24999 30.88491 25.06745
#
# Velocity S-wave (km/s) = 3.00020 3.80022 3.42366
# Velocity P-wave (km/s) = 5.36052 6.57361 5.99781
#
# Compressibility (1/GPa) = 0.02794352
#
# Stress axis : x y z
#
# Youngs Moduli (GPa) = 113.93422 113.93422 48.42806
#
# Poissons Ratio (x) = 0.39476 0.04032
# Poissons Ratio (y) = 0.39476 0.04032
# Poissons Ratio (z) = 0.09485 0.09485
#
# Static dielectric constant tensor:
#      x y z
#    x 4.090120 0.000000 0.000000 
#    y 0.000000 4.090120 0.000000 
#    z 0.000000 0.000000 3.846250 
# 
# 
# High freq. dielectric constant tensor:
#      x y z
#    x 1.845450 0.000000 0.000000 
#    y 0.000000 1.845450 0.000000 
#    z 0.000000 0.000000 1.791250 
# 
# From -- ./inp_files/505.got.cif
#   From: 2010.03.12/outbox.cif.g09.slc.cpg/sg83_1_cif.got.tgz:505.got - 2010.04.08 20:05:18.
