data_PCOD8302133
_publ_section_title
;
Structure prediction by ZEFSAII (Michael W. Deem and Ramdas Pophale) SiO2 
 PCOD8302133
Probable space group: I 4
;
_chemical_formula_sum "Si O2"
_cell_formula_units_Z 56
_cell_length_a 13.695655
_cell_length_b 13.695655
_cell_length_c 12.525414
_cell_angle_alpha 90.000000
_cell_angle_beta 90.000000
_cell_angle_gamma 90.000000
_cell_volume 2349.404002
_symmetry_space_group_name_H-M "I 4"
_symmetry_group_IT_number 79
_symmetry_cell_setting 'tetragonal'
loop_
_space_group_symop_operation_xyz
x,y,z
-y,x,z
-x,-y,z
y,-x,z
1/2+x,1/2+y,1/2+z
1/2-y,1/2+x,1/2+z
1/2-x,1/2-y,1/2+z
1/2+y,1/2-x,1/2+z
loop_
_atom_site_type_symbol
_atom_site_label
_atom_site_fract_x
_atom_site_fract_y
_atom_site_fract_z
Si Si1 0.352935 0.460230 0.496540
Si Si2 0.964045 0.652595 0.539218
Si Si3 0.142224 0.388988 0.744311
Si Si4 0.888977 0.642224 0.178645
Si Si5 0.358866 0.358868 0.711478
Si Si6 0.347402 0.035953 0.883733
Si Si7 0.352935 0.539774 0.926417
O O1 0.432249 0.382463 0.455119
O O2 0.358209 0.448723 0.626513
O O3 0.245893 0.441483 0.456402
O O4 0.894411 0.670563 0.641155
O O5 0.936806 0.563199 0.461470
O O6 0.941475 0.745897 0.466563
O O7 0.076320 0.637885 0.575622
O O8 0.122980 0.500008 0.711488
O O9 0.254444 0.364869 0.773641
O O10 0.076321 0.362113 0.847330
O O11 0.864862 0.754445 0.149314
O O12 0.829417 0.605584 0.281793
O O13 0.448721 0.358205 0.796444
O O14 0.382462 0.432252 0.967837
#
# Coordination Sequence:
#
# PCOD8302133 Si02
#       7
#     8   8   8   8   8   8   8
#     4  11  25  45  71 103 145 197 252 310 379 454
#     4  11  24  46  72 108 148 194 251 308 386 460
#     4  11  26  47  72 109 156 195 246 321 384 453
#     4  11  26  47  72 109 156 195 246 321 384 453
#     4  12  24  47  72 108 147 196 250 316 378 450
#     4  11  24  46  72 108 148 194 251 308 386 460
#     4  11  25  45  71 103 145 197 252 310 379 454
#
# _framework density 23.835833000000001
#
# number of rings (size 3 to 8) (size 9 to 14) (size 15 to 20)
#    0.000    0.857    2.857    4.286    4.000    3.429 
#    0.000    0.000    0.000    6.857    0.000    0.000 
#    0.000    0.000    0.000    0.000    0.000    0.000 
#
# Total GULP energy -347110.757969 kJ/mol
# GULP energy per Si atom -12396.812785 kJ/mol
# Density = 2.378158 g / cm^3
# Si number density = 23.835833 Si / 1000 Ang^3
#
#
#
# Elastic Constant Matrix: (Units=GPa)
#
#
# Indices 1 2 3 4 5 6 
#
# 1 99.1718 49.5816 32.5974 0.0000 0.0000 -0.0004
# 2 49.5816 99.1718 32.5974 0.0000 0.0000 0.0004
# 3 32.5974 32.5974 105.2579 0.0000 0.0000 0.0000
# 4 0.0000 0.0000 0.0000 36.8155 0.0000 0.0000
# 5 0.0000 0.0000 0.0000 0.0000 36.8155 0.0000
# 6 -0.0004 0.0004 0.0000 0.0000 0.0000 26.0725
#
#
#
# Elastic Compliance Matrix: (Units=1/GPa)
#
#
# Indices 1 2 3 4 5 6 
#
# 1 0.013972 -0.006194 -0.002409 0.000000 0.000000 0.000000
# 2 -0.006194 0.013972 -0.002409 0.000000 0.000000 0.000000
# 3 -0.002409 -0.002409 0.010992 0.000000 0.000000 0.000000
# 4 0.000000 0.000000 0.000000 0.027162 0.000000 0.000000
# 5 0.000000 0.000000 0.000000 0.000000 0.027162 0.000000
# 6 0.000000 0.000000 0.000000 0.000000 0.000000 0.038355
#
#
# Mechanical properties :
#
#
# Convention : Reuss Voigt Hill
#
# Bulk Modulus (GPa) = 59.12404 59.23936 59.18170
# Shear Modulus (GPa) = 31.39207 32.52904 31.96056
#
# Velocity S-wave (km/s) = 3.63300 3.69821 3.66575
# Velocity P-wave (km/s) = 6.51589 6.56831 6.54215
#
# Compressibility (1/GPa) = 0.01691359
#
# Stress axis : x y z
#
# Youngs Moduli (GPa) = 71.57284 71.57284 90.97134
#
# Poissons Ratio (x) = 0.44329 0.21914
# Poissons Ratio (y) = 0.44329 0.21914
# Poissons Ratio (z) = 0.17241 0.17241
#
# Static dielectric constant tensor:
#      x y z
#    x 4.313880 0.000000 0.000000 
#    y 0.000000 4.313880 0.000000 
#    z 0.000000 0.000000 4.397120 
# 
# 
# High freq. dielectric constant tensor:
#      x y z
#    x 1.951280 0.000000 0.000000 
#    y 0.000000 1.951280 0.000000 
#    z 0.000000 0.000000 1.934970 
# 
# From -- ./inp_files/1149.got.cif
#   From: 2010.03.12/outbox.cif.g09.slc.cpg/sg79_cif.got.tgz:1149.got - 2010.04.16 16:38:49.
