data_PCOD8302196
_publ_section_title
;
Structure prediction by ZEFSAII (Michael W. Deem and Ramdas Pophale) SiO2 
 PCOD8302196
Probable space group: I 41
;
_chemical_formula_sum "Si O2"
_cell_formula_units_Z 52
_cell_length_a 16.462703
_cell_length_b 16.462703
_cell_length_c 8.984785
_cell_angle_alpha 90.000000
_cell_angle_beta 90.000000
_cell_angle_gamma 90.000000
_cell_volume 2435.061732
_symmetry_space_group_name_H-M "I 41"
_symmetry_group_IT_number 80
_symmetry_cell_setting 'tetragonal'
loop_
_space_group_symop_operation_xyz
x,y,z
-y,1/2+x,1/4+z
-x,-y,z
y,1/2-x,1/4+z
1/2+x,1/2+y,1/2+z
1/2-y,x,3/4+z
1/2-x,1/2-y,1/2+z
1/2+y,-x,3/4+z
loop_
_atom_site_type_symbol
_atom_site_label
_atom_site_fract_x
_atom_site_fract_y
_atom_site_fract_z
Si Si1 0.184842 0.504296 0.902350
Si Si2 0.166576 0.724752 0.598692
Si Si3 0.075245 0.770689 0.171344
Si Si4 0.112644 0.586327 0.173328
Si Si5 0.500000 0.500000 0.639922
Si Si6 0.353802 0.056021 0.089271
Si Si7 0.766447 0.836401 0.442761
O O1 0.251945 0.572619 0.865109
O O2 0.134963 0.479185 0.755463
O O3 0.233372 0.427287 0.967361
O O4 0.116956 0.537435 0.017885
O O5 0.205194 0.715646 0.761555
O O6 0.172781 0.640774 0.507560
O O7 0.107593 0.681416 0.146174
O O8 0.990389 0.777778 0.261273
O O9 0.063434 0.804160 0.005908
O O10 0.037163 0.565885 0.278425
O O11 0.457104 0.434496 0.744015
O O12 0.335692 0.151475 0.094577
O O13 0.781797 0.798990 0.605067
#
# Coordination Sequence:
#
# PCOD8302196 Si02
#       7
#     8   8   8   8   4   8   8
#     4  11  25  42  63 107 134 176 227 289 341 418
#     4  12  23  37  65  98 147 185 226 267 334 420
#     4  11  22  40  64 100 136 187 223 268 335 422
#     4  11  25  42  63 100 140 175 226 274 346 407
#     4  10  26  44  66  94 136 180 222 286 342 406
#     4  10  23  43  71  96 130 180 234 284 349 407
#     4  10  25  47  73  97 126 175 239 291 354 405
#
# _framework density 21.354696000000001
#
# number of rings (size 3 to 8) (size 9 to 14) (size 15 to 20)
#    0.000    1.231    3.077    0.923   10.769    3.077 
#    5.538    0.000    0.000    0.000    0.000    0.000 
#    0.000    0.000    0.000    0.000    0.000    0.000 
#
# Total GULP energy -322439.112678 kJ/mol
# GULP energy per Si atom -12401.504334 kJ/mol
# Density = 2.130609 g / cm^3
# Si number density = 21.354696 Si / 1000 Ang^3
#
#
#
# Elastic Constant Matrix: (Units=GPa)
#
#
# Indices 1 2 3 4 5 6 
#
# 1 102.1005 38.4244 45.8418 0.0000 0.0000 7.4965
# 2 38.4244 102.1005 45.8418 0.0000 0.0000 -7.4965
# 3 45.8418 45.8418 113.8608 0.0000 0.0000 0.0000
# 4 0.0000 0.0000 0.0000 27.5229 0.0000 0.0000
# 5 0.0000 0.0000 0.0000 0.0000 27.5229 0.0000
# 6 7.4965 -7.4965 0.0000 0.0000 0.0000 11.9396
#
#
#
# Elastic Compliance Matrix: (Units=1/GPa)
#
#
# Indices 1 2 3 4 5 6 
#
# 1 0.014040 -0.004389 -0.003886 0.000000 0.000000 -0.011571
# 2 -0.004389 0.014040 -0.003886 0.000000 0.000000 0.011571
# 3 -0.003886 -0.003886 0.011912 0.000000 0.000000 0.000000
# 4 0.000000 0.000000 0.000000 0.036333 0.000000 0.000000
# 5 0.000000 0.000000 0.000000 0.000000 0.036333 0.000000
# 6 -0.011571 0.011571 0.000000 0.000000 0.000000 0.098285
#
#
# Mechanical properties :
#
#
# Convention : Reuss Voigt Hill
#
# Bulk Modulus (GPa) = 63.81100 64.25307 64.03204
# Shear Modulus (GPa) = 20.79107 25.92733 23.35920
#
# Velocity S-wave (km/s) = 3.12365 3.48821 3.31095
# Velocity P-wave (km/s) = 6.55408 6.81009 6.68331
#
# Compressibility (1/GPa) = 0.01567128
#
# Stress axis : x y z
#
# Youngs Moduli (GPa) = 71.22423 71.22423 83.95201
#
# Poissons Ratio (x) = 0.31259 0.32622
# Poissons Ratio (y) = 0.31259 0.32622
# Poissons Ratio (z) = 0.27676 0.27676
#
# Static dielectric constant tensor:
#      x y z
#    x 3.852360 0.000000 0.000000 
#    y 0.000000 3.852360 0.000000 
#    z 0.000000 0.000000 4.016150 
# 
# 
# High freq. dielectric constant tensor:
#      x y z
#    x 1.833800 0.000000 0.000000 
#    y 0.000000 1.833800 0.000000 
#    z 0.000000 0.000000 1.849420 
# 
# From -- ./inp_files/707.got.cif
#   From: 2010.03.12/outbox.cif.g09.slc.cpg/sg80_cif.got.tgz:707.got - 2010.04.08 20:00:04.
