data_PCOD8302833
_publ_section_title
;
Structure prediction by ZEFSAII (Michael W. Deem and Ramdas Pophale) SiO2 
 PCOD8302833
Probable space group: P 4/M
;
_chemical_formula_sum "Si O2"
_cell_formula_units_Z 60
_cell_length_a 14.824542
_cell_length_b 14.824542
_cell_length_c 14.908835
_cell_angle_alpha 90.000000
_cell_angle_beta 90.000000
_cell_angle_gamma 90.000000
_cell_volume 3276.470620
_symmetry_space_group_name_H-M "P 4/M"
_symmetry_group_IT_number 83
_symmetry_cell_setting 'tetragonal'
loop_
_space_group_symop_operation_xyz
x,y,z
-y,x,z
-x,-y,z
y,-x,z
-x,-y,-z
y,-x,-z
x,y,-z
-y,x,-z
loop_
_atom_site_type_symbol
_atom_site_label
_atom_site_fract_x
_atom_site_fract_y
_atom_site_fract_z
Si Si1 0.354985 0.530043 0.000000
Si Si2 0.920723 0.563874 0.101584
Si Si3 0.738368 0.508780 0.827416
Si Si4 0.232571 0.982133 0.895404
Si Si5 0.327239 0.310648 0.758897
Si Si6 0.157682 0.816160 0.788480
Si Si7 0.404483 0.611918 0.398518
Si Si8 0.907332 0.116549 0.399185
O O1 0.394411 0.430165 0.000000
O O2 0.290371 0.544134 0.916291
O O3 0.838888 0.547570 0.168916
O O4 0.951345 0.665583 0.107586
O O5 0.000000 0.500000 0.135408
O O6 0.891836 0.539396 0.000000
O O7 0.734249 0.426656 0.757268
O O8 0.672723 0.594266 0.812973
O O9 0.173900 0.910729 0.838976
O O10 0.228641 0.077104 0.844334
O O11 0.199701 0.989138 0.000000
O O12 0.249488 0.244116 0.793732
O O13 0.315675 0.344039 0.656190
O O14 0.136500 0.827306 0.682481
O O15 0.375860 0.509628 0.375612
O O16 0.384562 0.635810 0.500000
O O17 0.879696 0.151575 0.500000
O O18 0.014224 0.124608 0.388834
#
# Coordination Sequence:
#
# PCOD8302833 Si02
#       8
#     4   8   8   8   8   8   8   8
#     4  11  22  34  51  78 112 148 186 241 299 340
#     4  10  21  39  58  76 111 160 201 237 286 344
#     4  12  22  37  54  83 115 149 194 245 290 338
#     4  11  24  41  59  86 120 157 201 245 290 349
#     4  12  24  35  60  86 116 151 201 243 293 350
#     4  12  23  40  61  89 115 157 198 246 296 353
#     4   9  18  35  59  84 115 153 190 236 298 360
#     4   9  18  36  64  90 113 142 182 239 306 362
#
# _framework density 18.312387000000001
#
# number of rings (size 3 to 8) (size 9 to 14) (size 15 to 20)
#    0.000    1.267    6.000    2.000    0.000    1.067 
#    3.600    0.667    0.000    0.000    0.000    0.000 
#    0.000    8.533    0.000    0.000    0.000    0.000 
#
# Total GULP energy -743569.872876 kJ/mol
# GULP energy per Si atom -12392.831215 kJ/mol
# Density = 1.827071 g / cm^3
# Si number density = 18.312387 Si / 1000 Ang^3
#
#
#
# Elastic Constant Matrix: (Units=GPa)
#
#
# Indices 1 2 3 4 5 6 
#
# 1 64.8456 15.7761 23.9467 0.0000 0.0000 -2.8150
# 2 15.7761 64.8456 23.9467 0.0000 0.0000 2.8150
# 3 23.9467 23.9467 105.5667 0.0000 0.0000 0.0000
# 4 0.0000 0.0000 0.0000 30.3808 0.0000 0.0000
# 5 0.0000 0.0000 0.0000 0.0000 30.3808 0.0000
# 6 -2.8150 2.8150 0.0000 0.0000 0.0000 9.4976
#
#
#
# Elastic Compliance Matrix: (Units=1/GPa)
#
#
# Indices 1 2 3 4 5 6 
#
# 1 0.017716 -0.003381 -0.003252 0.000000 0.000000 0.006253
# 2 -0.003381 0.017716 -0.003252 0.000000 0.000000 -0.006253
# 3 -0.003252 -0.003252 0.010948 0.000000 0.000000 0.000000
# 4 0.000000 0.000000 0.000000 0.032916 0.000000 0.000000
# 5 0.000000 0.000000 0.000000 0.000000 0.032916 0.000000
# 6 0.006253 -0.006253 0.000000 0.000000 0.000000 0.108996
#
#
# Mechanical properties :
#
#
# Convention : Reuss Voigt Hill
#
# Bulk Modulus (GPa) = 37.57789 40.28854 38.93322
# Shear Modulus (GPa) = 20.01227 25.49104 22.75165
#
# Velocity S-wave (km/s) = 3.30938 3.73501 3.52862
# Velocity P-wave (km/s) = 5.93023 6.37565 6.15697
#
# Compressibility (1/GPa) = 0.02661139
#
# Stress axis : x y z
#
# Youngs Moduli (GPa) = 56.44600 56.44600 91.34105
#
# Poissons Ratio (x) = 0.19083 0.29703
# Poissons Ratio (y) = 0.19083 0.29703
# Poissons Ratio (z) = 0.18355 0.18355
#
# Static dielectric constant tensor:
#      x y z
#    x 3.126670 0.000000 0.000000 
#    y 0.000000 3.126670 0.000000 
#    z 0.000000 0.000000 3.492560 
# 
# 
# High freq. dielectric constant tensor:
#      x y z
#    x 1.701820 0.000000 0.000000 
#    y 0.000000 1.701820 0.000000 
#    z 0.000000 0.000000 1.712680 
# 
# From -- ./inp_files/2455.got.cif
#   From: 2010.03.12/outbox.cif.g09.slc.cpg/sg83_2_cif.got.tgz:2455.got - 2010.04.08 20:05:18.
