data_PCOD8302618
_publ_section_title
;
Structure prediction by ZEFSAII (Michael W. Deem and Ramdas Pophale) SiO2 
 PCOD8302618
Probable space group: P 4/M
;
_chemical_formula_sum "Si O2"
_cell_formula_units_Z 64
_cell_length_a 21.610469
_cell_length_b 21.610469
_cell_length_c 9.186024
_cell_angle_alpha 90.000000
_cell_angle_beta 90.000000
_cell_angle_gamma 90.000000
_cell_volume 4289.986843
_symmetry_space_group_name_H-M "P 4/M"
_symmetry_group_IT_number 83
_symmetry_cell_setting 'tetragonal'
loop_
_space_group_symop_operation_xyz
x,y,z
-y,x,z
-x,-y,z
y,-x,z
-x,-y,-z
y,-x,-z
x,y,-z
-y,x,-z
loop_
_atom_site_type_symbol
_atom_site_label
_atom_site_fract_x
_atom_site_fract_y
_atom_site_fract_z
Si Si1 0.235654 0.158687 0.337510
Si Si2 0.844192 0.757735 0.837258
Si Si3 0.262780 0.342752 0.840764
Si Si4 0.066610 0.665408 0.328164
Si Si5 0.261036 0.659048 0.659430
Si Si6 0.335904 0.924744 0.326077
Si Si7 0.563109 0.838374 0.326772
Si Si8 0.432900 0.839185 0.825491
O O1 0.210082 0.144670 0.500000
O O2 0.178196 0.177622 0.234497
O O3 0.271778 0.099493 0.268530
O O4 0.283722 0.214682 0.346967
O O5 0.786635 0.712020 0.846973
O O6 0.896904 0.727845 0.735765
O O7 0.870030 0.770518 0.000000
O O8 0.322943 0.322180 0.750152
O O9 0.226976 0.403004 0.778430
O O10 0.288522 0.357915 0.000000
O O11 0.073775 0.669254 0.500000
O O12 0.102499 0.603755 0.276987
O O13 0.996139 0.662222 0.278013
O O14 0.286153 0.643417 0.500000
O O15 0.224398 0.599183 0.719535
O O16 0.338513 0.915864 0.500000
O O17 0.395329 0.894030 0.251718
O O18 0.549273 0.839625 0.500000
O O19 0.501914 0.841266 0.231958
O O20 0.429442 0.847928 0.000000
#
# Coordination Sequence:
#
# PCOD8302618 Si02
#       8
#     8   8   8   8   8   8   8   8
#     4   8  13  25  43  60  77 100 130 167 208 248
#     4   9  16  26  39  59  83 103 128 167 208 249
#     4   8  15  26  39  54  76 102 128 161 203 241
#     4   8  16  29  44  61  81 106 143 181 206 236
#     4   8  14  24  41  61  77  94 125 166 206 244
#     4  10  18  29  44  59  78 111 146 175 207 240
#     4   9  17  30  44  59  80 108 139 172 205 240
#     4  10  20  31  40  57  84 112 142 175 203 238
#
# _framework density 14.918461000000001
#
# number of rings (size 3 to 8) (size 9 to 14) (size 15 to 20)
#    0.000    3.250    0.000    3.375    0.000    4.500 
#    0.000    6.875    0.000    0.000    0.000    0.000 
#    0.000    1.000    0.000   11.250    0.000    7.000 
#
# Total GULP energy -793003.231200 kJ/mol
# GULP energy per Si atom -12390.675487 kJ/mol
# Density = 1.488451 g / cm^3
# Si number density = 14.918461 Si / 1000 Ang^3
#
#
#
# Elastic Constant Matrix: (Units=GPa)
#
#
# Indices 1 2 3 4 5 6 
#
# 1 73.2292 74.4390 44.4977 0.0000 0.0000 0.3643
# 2 74.4390 73.2292 44.4977 0.0000 0.0000 -0.3643
# 3 44.4977 44.4977 73.6083 0.0000 0.0000 0.0000
# 4 0.0000 0.0000 0.0000 15.1374 0.0000 0.0000
# 5 0.0000 0.0000 0.0000 0.0000 15.1374 0.0000
# 6 0.3643 -0.3643 0.0000 0.0000 0.0000 15.9514
#
#
#
# Elastic Compliance Matrix: (Units=1/GPa)
#
#
# Indices 1 2 3 4 5 6 
#
# 1 -0.402357 0.413010 -0.006440 0.000000 0.000000 0.018624
# 2 0.413010 -0.402357 -0.006440 0.000000 0.000000 -0.018624
# 3 -0.006440 -0.006440 0.021372 0.000000 0.000000 0.000000
# 4 0.000000 0.000000 0.000000 0.066062 0.000000 0.000000
# 5 0.000000 0.000000 0.000000 0.000000 0.066062 0.000000
# 6 0.018624 -0.018624 0.000000 0.000000 0.000000 0.061840
#
#
# Mechanical properties :
#
#
# Convention : Reuss Voigt Hill
#
# Bulk Modulus (GPa) = 59.10922 60.77059 59.93991
# Shear Modulus (GPa) = -3.61272 13.02073 4.70401
#
# Velocity S-wave (km/s) = -1.55785 2.95751 1.77764
# Velocity P-wave (km/s) = 6.03918 7.24473 6.66925
#
# Compressibility (1/GPa) = 0.01691783
#
# Stress axis : x y z
#
# Youngs Moduli (GPa) = -2.48536 -2.48536 46.79087
#
# Poissons Ratio (x) = 1.02648 0.30134
# Poissons Ratio (y) = 1.02648 0.30134
# Poissons Ratio (z) = -0.01601 -0.01601
#
# Static dielectric constant tensor:
#      x y z
#    x 2.840110 0.000000 0.000000 
#    y 0.000000 2.840110 0.000000 
#    z 0.000000 0.000000 3.007410 
# 
# 
# High freq. dielectric constant tensor:
#      x y z
#    x 1.544850 0.000000 0.000000 
#    y 0.000000 1.544850 0.000000 
#    z 0.000000 0.000000 1.570260 
# 
# From -- ./inp_files/1324.got.cif
#   From: 2010.03.12/outbox.cif.g09.slc.cpg/sg83_1_cif.got.tgz:1324.got - 2010.04.08 20:05:18.
