data_PCOD8302584
_publ_section_title
;
Structure prediction by ZEFSAII (Michael W. Deem and Ramdas Pophale) SiO2 
 PCOD8302584
Probable space group: I -4 
;
_chemical_formula_sum "Si O2"
_cell_formula_units_Z 20
_cell_length_a 6.732274
_cell_length_b 6.732274
_cell_length_c 18.872234
_cell_angle_alpha 90.000000
_cell_angle_beta 90.000000
_cell_angle_gamma 90.000000
_cell_volume 855.355947
_symmetry_space_group_name_H-M "I -4 "
_symmetry_group_IT_number 82
_symmetry_cell_setting 'tetragonal'
loop_
_space_group_symop_operation_xyz
x,y,z
y,-x,-z
-x,-y,z
-y,x,-z
1/2+x,1/2+y,1/2+z
1/2+y,1/2-x,1/2-z
1/2-x,1/2-y,1/2+z
1/2-y,1/2+x,1/2-z
loop_
_atom_site_type_symbol
_atom_site_label
_atom_site_fract_x
_atom_site_fract_y
_atom_site_fract_z
Si Si1 0.000000 0.500000 0.250000
Si Si2 0.781281 0.448095 0.475239
Si Si3 0.000000 0.500000 0.750000
Si Si4 0.831281 0.853757 0.655373
O O1 0.004451 0.699413 0.295602
O O2 0.660123 0.331131 0.537413
O O3 0.772524 0.312091 0.406014
O O4 0.000000 0.500000 0.502745
O O5 0.079538 0.327417 0.699214
O O6 0.000000 0.000000 0.623664
#
# Coordination Sequence:
#
# PCOD8302584 Si02
#       4
#     2   8   2   8
#     4  12  24  48  74 116 152 188 256 318 376 468
#     4  11  29  48  74 109 154 203 260 308 365 449
#     4  12  28  48  86 112 148 200 248 306 404 448
#     4  12  27  47  78 116 152 197 252 316 382 451
#
# _framework density 23.382079999999998
#
# number of rings (size 3 to 8) (size 9 to 14) (size 15 to 20)
#    0.000    0.400    6.000    0.000    8.400    9.600 
#    0.000    0.000    0.000    0.000    0.000    0.000 
#    0.000    0.000    0.000    0.000    0.000    0.000 
#
# Total GULP energy -123960.435820 kJ/mol
# GULP energy per Si atom -12396.043582 kJ/mol
# Density = 2.332886 g / cm^3
# Si number density = 23.382080 Si / 1000 Ang^3
#
#
#
# Elastic Constant Matrix: (Units=GPa)
#
#
# Indices 1 2 3 4 5 6 
#
# 1 182.3680 99.6457 66.6317 0.0000 0.0000 19.3598
# 2 99.6457 182.3680 66.6317 -0.0001 0.0000 -19.3598
# 3 66.6317 66.6317 104.6328 0.0000 0.0000 0.0000
# 4 0.0000 -0.0001 0.0000 -3.6043 0.0000 0.0000
# 5 0.0000 0.0000 0.0000 0.0000 -3.6044 0.0000
# 6 19.3598 -19.3598 0.0000 0.0000 0.0000 68.2177
#
#
#
# Elastic Compliance Matrix: (Units=1/GPa)
#
#
# Indices 1 2 3 4 5 6 
#
# 1 0.009506 -0.004434 -0.003230 0.000000 0.000000 -0.003956
# 2 -0.004434 0.009506 -0.003230 0.000000 0.000000 0.003956
# 3 -0.003230 -0.003230 0.013671 0.000000 0.000000 0.000000
# 4 0.000000 0.000000 0.000000 -0.277445 0.000000 0.000000
# 5 0.000000 0.000000 0.000000 0.000000 -0.277436 0.000000
# 6 -0.003956 0.003956 0.000000 0.000000 0.000000 0.016904
#
#
# Mechanical properties :
#
#
# Convention : Reuss Voigt Hill
#
# Bulk Modulus (GPa) = 91.78234 103.90966 97.84600
# Shear Modulus (GPa) = -10.41944 27.96577 8.77316
#
# Velocity S-wave (km/s) = -2.11325 3.46212 1.93913
# Velocity P-wave (km/s) = 5.77789 7.77934 6.85208
#
# Compressibility (1/GPa) = 0.01089534
#
# Stress axis : x y z
#
# Youngs Moduli (GPa) = 105.19277 105.19278 73.14650
#
# Poissons Ratio (x) = 0.46643 0.23627
# Poissons Ratio (y) = 0.46643 0.23627
# Poissons Ratio (z) = 0.33978 0.33978
#
# Static dielectric constant tensor:
#      x y z
#    x 4.581070 0.000000 0.000000 
#    y 0.000000 4.581070 0.000000 
#    z 0.000000 0.000000 3.913610 
# 
# 
# High freq. dielectric constant tensor:
#      x y z
#    x 1.952730 0.000000 0.000000 
#    y 0.000000 1.952730 0.000000 
#    z 0.000000 0.000000 1.898310 
# 
# From -- ./inp_files/3590.got.cif
#   From: 2010.03.12/outbox.cif.g09.slc.cpg/sg82_2_cif.got.tgz:3590.got - 2010.04.08 20:02:50.
