data_PCOD8302296
_publ_section_title
;
Structure prediction by ZEFSAII (Michael W. Deem and Ramdas Pophale) SiO2 
 PCOD8302296
Probable space group: P -4
;
_chemical_formula_sum "Si O2"
_cell_formula_units_Z 22
_cell_length_a 8.690994
_cell_length_b 8.690994
_cell_length_c 13.684447
_cell_angle_alpha 90.000000
_cell_angle_beta 90.000000
_cell_angle_gamma 90.000000
_cell_volume 1033.632490
_symmetry_space_group_name_H-M "P -4"
_symmetry_group_IT_number 81
_symmetry_cell_setting 'tetragonal'
loop_
_space_group_symop_operation_xyz
x,y,z
y,-x,-z
-x,-y,z
-y,x,-z
loop_
_atom_site_type_symbol
_atom_site_label
_atom_site_fract_x
_atom_site_fract_y
_atom_site_fract_z
Si Si1 0.606376 0.354077 0.619368
Si Si2 0.812647 0.334945 0.282867
Si Si3 0.494380 0.824911 0.228412
Si Si4 0.742484 0.511353 0.985444
Si Si5 0.500000 0.000000 0.867009
Si Si6 0.838506 0.180399 0.478986
O O1 0.500000 0.500000 0.586848
O O2 0.500737 0.228418 0.671182
O O3 0.731569 0.396114 0.699918
O O4 0.698084 0.280872 0.526152
O O5 0.673973 0.246112 0.232677
O O6 0.941747 0.359587 0.200464
O O7 0.876944 0.231806 0.369619
O O8 0.549394 0.813961 0.116153
O O9 0.500000 0.000000 0.263920
O O10 0.652300 0.371310 0.036422
O O11 0.868230 0.568021 0.063055
O O12 0.000877 0.206140 0.533197
#
# Coordination Sequence:
#
# PCOD8302296 Si02
#       6
#     4   4   4   4   2   4
#     4  10  24  41  65  98 133 173 229 280 327 398
#     4  11  24  40  67  99 131 175 226 278 334 394
#     4  11  22  40  65  98 131 173 223 280 335 400
#     4  11  23  40  67  93 131 173 223 276 334 394
#     4  12  22  42  66 100 134 168 224 282 336 398
#     4  11  25  45  67  96 138 183 218 273 344 409
#
# _framework density 21.284161999999998
#
# number of rings (size 3 to 8) (size 9 to 14) (size 15 to 20)
#    0.000    1.091    2.727    3.273   10.182    0.000 
#    1.636    0.000    0.000    4.909    0.000    0.000 
#    0.000    0.000    0.000    0.000    0.000    0.000 
#
# Total GULP energy -272783.652733 kJ/mol
# GULP energy per Si atom -12399.256942 kJ/mol
# Density = 2.123572 g / cm^3
# Si number density = 21.284162 Si / 1000 Ang^3
#
#
#
# Elastic Constant Matrix: (Units=GPa)
#
#
# Indices 1 2 3 4 5 6 
#
# 1 100.7258 24.9477 34.2721 0.0000 0.0000 -1.1126
# 2 24.9477 100.7258 34.2721 0.0000 0.0000 1.1126
# 3 34.2721 34.2721 117.6686 0.0000 0.0000 0.0000
# 4 0.0000 0.0000 0.0000 1.7920 0.0000 0.0000
# 5 0.0000 0.0000 0.0000 0.0000 1.7920 0.0000
# 6 -1.1126 1.1126 0.0000 0.0000 0.0000 23.3104
#
#
#
# Elastic Compliance Matrix: (Units=1/GPa)
#
#
# Indices 1 2 3 4 5 6 
#
# 1 0.011337 -0.001878 -0.002755 0.000000 0.000000 0.000631
# 2 -0.001878 0.011337 -0.002755 0.000000 0.000000 -0.000631
# 3 -0.002755 -0.002755 0.010103 0.000000 0.000000 0.000000
# 4 0.000000 0.000000 0.000000 0.558031 0.000000 0.000000
# 5 0.000000 0.000000 0.000000 0.000000 0.558031 0.000000
# 6 0.000631 -0.000631 0.000000 0.000000 0.000000 0.042960
#
#
# Mechanical properties :
#
#
# Convention : Reuss Voigt Hill
#
# Bulk Modulus (GPa) = 55.54900 56.23373 55.89137
# Shear Modulus (GPa) = 4.12345 20.42077 12.27211
#
# Velocity S-wave (km/s) = 1.39339 3.10084 2.40382
# Velocity P-wave (km/s) = 5.36136 6.26882 5.83276
#
# Compressibility (1/GPa) = 0.01800212
#
# Stress axis : x y z
#
# Youngs Moduli (GPa) = 88.20345 88.20345 98.97609
#
# Poissons Ratio (x) = 0.16560 0.27271
# Poissons Ratio (y) = 0.16560 0.27271
# Poissons Ratio (z) = 0.24303 0.24303
#
# Static dielectric constant tensor:
#      x y z
#    x 3.880080 0.000000 0.000000 
#    y 0.000000 3.880080 0.000000 
#    z 0.000000 0.000000 3.893130 
# 
# 
# High freq. dielectric constant tensor:
#      x y z
#    x 1.829440 0.000000 0.000000 
#    y 0.000000 1.829440 0.000000 
#    z 0.000000 0.000000 1.852520 
# 
# From -- ./inp_files/1598.got.cif
#   From: 2010.03.12/outbox.cif.g09.slc.cpg/sg81_cif.got.tgz:1598.got - 2010.04.08 20:01:38.
