data_PCOD8302993
_publ_section_title
;
Structure prediction by ZEFSAII (Michael W. Deem and Ramdas Pophale) SiO2 
 PCOD8302993
Probable space group: P 4/M
;
_chemical_formula_sum "Si O2"
_cell_formula_units_Z 48
_cell_length_a 8.992070
_cell_length_b 8.992070
_cell_length_c 30.306843
_cell_angle_alpha 90.000000
_cell_angle_beta 90.000000
_cell_angle_gamma 90.000000
_cell_volume 2450.530190
_symmetry_space_group_name_H-M "P 4/M"
_symmetry_group_IT_number 83
_symmetry_cell_setting 'tetragonal'
loop_
_space_group_symop_operation_xyz
x,y,z
-y,x,z
-x,-y,z
y,-x,z
-x,-y,-z
y,-x,-z
x,y,-z
-y,x,-z
loop_
_atom_site_type_symbol
_atom_site_label
_atom_site_fract_x
_atom_site_fract_y
_atom_site_fract_z
Si Si1 0.674142 0.326702 0.417734
Si Si2 0.328793 0.328135 0.260017
Si Si3 0.670822 0.671551 0.841652
Si Si4 0.827182 0.173571 0.336943
Si Si5 0.326526 0.672488 0.000000
Si Si6 0.826709 0.174183 0.500000
Si Si7 0.172138 0.826946 0.081228
O O1 0.707672 0.500505 0.421479
O O2 0.732742 0.268455 0.371299
O O3 0.757419 0.243953 0.456663
O O4 0.500395 0.293460 0.270958
O O5 0.294300 0.293458 0.209169
O O6 0.222870 0.221832 0.288227
O O7 0.499560 0.706345 0.852497
O O8 0.774763 0.775998 0.870693
O O9 0.000450 0.207408 0.343700
O O10 0.291878 0.499406 0.000000
O O11 0.258504 0.739982 0.043826
O O12 0.000535 0.207878 0.500000
O O13 0.999450 0.792435 0.075844
#
# Coordination Sequence:
#
# PCOD8302993 Si02
#       7
#     8   8   8   8   4   4   8
#     4  11  24  41  62  88 116 149 193 239 282 335
#     4   9  19  37  60  85 113 147 190 238 284 334
#     4   9  19  37  60  85 113 147 190 236 280 332
#     4  11  24  39  56  83 118 153 191 236 286 340
#     4  11  24  41  62  86 110 141 186 235 280 332
#     4  11  24  41  62  90 122 153 188 231 280 336
#     4  11  24  39  56  83 118 151 185 228 278 333
#
# _framework density 19.587599000000001
#
# number of rings (size 3 to 8) (size 9 to 14) (size 15 to 20)
#    0.000    1.667    0.000    5.000    0.000   15.333 
#    0.000    5.000    0.000    0.000    0.000    0.000 
#    0.000    0.000    0.000    0.000    0.000    0.000 
#
# Total GULP energy -595473.728632 kJ/mol
# GULP energy per Si atom -12405.702680 kJ/mol
# Density = 1.954302 g / cm^3
# Si number density = 19.587599 Si / 1000 Ang^3
#
#
#
# Elastic Constant Matrix: (Units=GPa)
#
#
# Indices 1 2 3 4 5 6 
#
# 1 137.2454 72.1341 67.5308 0.0000 0.0000 -0.1494
# 2 72.1341 137.2454 67.5308 0.0000 0.0000 0.1494
# 3 67.5308 67.5308 123.5918 0.0000 0.0000 0.0000
# 4 0.0000 0.0000 0.0000 62.4847 0.0000 0.0000
# 5 0.0000 0.0000 0.0000 0.0000 62.4847 0.0000
# 6 -0.1494 0.1494 0.0000 0.0000 0.0000 36.1556
#
#
#
# Elastic Compliance Matrix: (Units=1/GPa)
#
#
# Indices 1 2 3 4 5 6 
#
# 1 0.011367 -0.003991 -0.004030 0.000000 0.000000 0.000063
# 2 -0.003991 0.011367 -0.004030 0.000000 0.000000 -0.000063
# 3 -0.004030 -0.004030 0.012495 0.000000 0.000000 0.000000
# 4 0.000000 0.000000 0.000000 0.016004 0.000000 0.000000
# 5 0.000000 0.000000 0.000000 0.000000 0.016004 0.000000
# 6 0.000063 -0.000063 0.000000 0.000000 0.000000 0.027659
#
#
# Mechanical properties :
#
#
# Convention : Reuss Voigt Hill
#
# Bulk Modulus (GPa) = 89.87762 90.27491 90.07626
# Shear Modulus (GPa) = 40.74713 44.95081 42.84897
#
# Velocity S-wave (km/s) = 4.56593 4.79567 4.68221
# Velocity P-wave (km/s) = 8.58961 8.76655 8.67853
#
# Compressibility (1/GPa) = 0.01112624
#
# Stress axis : x y z
#
# Youngs Moduli (GPa) = 87.97304 87.97304 80.03059
#
# Poissons Ratio (x) = 0.35114 0.32253
# Poissons Ratio (y) = 0.35114 0.32253
# Poissons Ratio (z) = 0.35454 0.35454
#
# Static dielectric constant tensor:
#      x y z
#    x 3.624580 0.000000 0.000000 
#    y 0.000000 3.624580 0.000000 
#    z 0.000000 0.000000 3.709820 
# 
# 
# High freq. dielectric constant tensor:
#      x y z
#    x 1.769970 0.000000 0.000000 
#    y 0.000000 1.769970 0.000000 
#    z 0.000000 0.000000 1.779830 
# 
# From -- ./inp_files/3447.got.cif
#   From: 2010.03.12/outbox.cif.g09.slc.cpg/sg83_2_cif.got.tgz:3447.got - 2010.04.08 20:05:18.
