data_PCOD8302117
_publ_section_title
;
Structure prediction by ZEFSAII (Michael W. Deem and Ramdas Pophale) SiO2 
 PCOD8302117
Probable space group: I 4
;
_chemical_formula_sum "Si O2"
_cell_formula_units_Z 56
_cell_length_a 11.015629
_cell_length_b 11.015629
_cell_length_c 25.498141
_cell_angle_alpha 90.000000
_cell_angle_beta 90.000000
_cell_angle_gamma 90.000000
_cell_volume 3094.048519
_symmetry_space_group_name_H-M "I 4"
_symmetry_group_IT_number 79
_symmetry_cell_setting 'tetragonal'
loop_
_space_group_symop_operation_xyz
x,y,z
-y,x,z
-x,-y,z
y,-x,z
1/2+x,1/2+y,1/2+z
1/2-y,1/2+x,1/2+z
1/2-x,1/2-y,1/2+z
1/2+y,1/2-x,1/2+z
loop_
_atom_site_type_symbol
_atom_site_label
_atom_site_fract_x
_atom_site_fract_y
_atom_site_fract_z
Si Si1 0.997010 0.638598 0.990080
Si Si2 0.608082 0.664383 0.914714
Si Si3 0.140614 0.140530 0.612451
Si Si4 0.743590 0.762351 0.012637
Si Si5 0.258650 0.278206 0.332737
Si Si6 0.359421 0.356443 0.229768
Si Si7 0.860697 0.491289 0.369255
O O1 0.029500 0.627894 0.929223
O O2 0.000000 0.500000 0.013652
O O3 0.092588 0.729075 0.018367
O O4 0.872145 0.709712 0.996647
O O5 0.465540 0.667702 0.918042
O O6 0.636048 0.721870 0.857341
O O7 0.648373 0.734113 0.966674
O O8 0.215982 0.211325 0.569766
O O9 0.179876 0.181323 0.671060
O O10 0.000104 0.168277 0.604292
O O11 0.282788 0.271408 0.270087
O O12 0.241293 0.421141 0.343682
O O13 0.360990 0.203169 0.363833
O O14 0.501714 0.331685 0.238791
O O15 0.000000 0.500000 0.345287
#
# Coordination Sequence:
#
# PCOD8302117 Si02
#       7
#     8   8   8   8   8   8   8
#     4  11  22  37  57  85 119 154 184 231 282 335
#     4  11  22  35  55  82 110 148 192 234 281 334
#     4   9  18  34  58  82 107 140 186 243 288 324
#     4  12  22  36  58  83 116 149 187 230 284 343
#     4  12  20  34  57  80 114 149 184 228 280 344
#     4   9  18  33  54  82 109 140 183 232 287 329
#     4  11  22  35  53  83 119 152 184 225 284 335
#
# _framework density 18.099263000000001
#
# number of rings (size 3 to 8) (size 9 to 14) (size 15 to 20)
#    0.000    1.286    4.286    4.286    0.000    1.714 
#    0.000    1.429    6.286    0.000    0.000    0.000 
#    0.000    0.000    0.000    0.000    0.000    0.000 
#
# Total GULP energy -346891.218225 kJ/mol
# GULP energy per Si atom -12388.972079 kJ/mol
# Density = 1.805807 g / cm^3
# Si number density = 18.099263 Si / 1000 Ang^3
#
#
#
# Elastic Constant Matrix: (Units=GPa)
#
#
# Indices 1 2 3 4 5 6 
#
# 1 74.9327 -11.3779 21.3081 0.0000 0.0000 5.9992
# 2 -11.3779 74.9327 21.3081 0.0000 0.0000 -5.9992
# 3 21.3081 21.3081 117.9596 0.0000 0.0000 0.0000
# 4 0.0000 0.0000 0.0000 22.1143 0.0000 0.0000
# 5 0.0000 0.0000 0.0000 0.0000 22.1143 0.0000
# 6 5.9992 -5.9992 0.0000 0.0000 0.0000 33.9802
#
#
#
# Elastic Compliance Matrix: (Units=1/GPa)
#
#
# Indices 1 2 3 4 5 6 
#
# 1 0.014890 0.003013 -0.003234 0.000000 0.000000 -0.002097
# 2 0.003013 0.014890 -0.003234 0.000000 0.000000 0.002097
# 3 -0.003234 -0.003234 0.009646 0.000000 0.000000 0.000000
# 4 0.000000 0.000000 0.000000 0.045220 0.000000 0.000000
# 5 0.000000 0.000000 0.000000 0.000000 0.045220 0.000000
# 6 -0.002097 0.002097 0.000000 0.000000 0.000000 0.030169
#
#
# Mechanical properties :
#
#
# Convention : Reuss Voigt Hill
#
# Bulk Modulus (GPa) = 30.75422 36.70018 33.72720
# Shear Modulus (GPa) = 28.12400 31.41421 29.76911
#
# Velocity S-wave (km/s) = 3.94620 4.17065 4.05997
# Velocity P-wave (km/s) = 6.14753 6.59648 6.37596
#
# Compressibility (1/GPa) = 0.03251586
#
# Stress axis : x y z
#
# Youngs Moduli (GPa) = 67.15800 67.15800 103.67172
#
# Poissons Ratio (x) = -0.20233 0.33527
# Poissons Ratio (y) = -0.20233 0.33527
# Poissons Ratio (z) = 0.21719 0.21719
#
# Static dielectric constant tensor:
#      x y z
#    x 3.383220 0.000000 0.000000 
#    y 0.000000 3.383220 0.000000 
#    z 0.000000 0.000000 3.340750 
# 
# 
# High freq. dielectric constant tensor:
#      x y z
#    x 1.696760 0.000000 0.000000 
#    y 0.000000 1.696760 0.000000 
#    z 0.000000 0.000000 1.688310 
# 
# From -- ./inp_files/1968.got.cif
#   From: 2010.03.12/outbox.cif.g09.slc.cpg/sg79_cif.got.tgz:1968.got - 2010.04.16 16:38:49.
