data_PCOD8302324
_publ_section_title
;
Structure prediction by ZEFSAII (Michael W. Deem and Ramdas Pophale) SiO2 
 PCOD8302324
Probable space group: P -4
;
_chemical_formula_sum "Si O2"
_cell_formula_units_Z 25
_cell_length_a 11.410255
_cell_length_b 11.410255
_cell_length_c 8.012961
_cell_angle_alpha 90.000000
_cell_angle_beta 90.000000
_cell_angle_gamma 90.000000
_cell_volume 1043.238797
_symmetry_space_group_name_H-M "P -4"
_symmetry_group_IT_number 81
_symmetry_cell_setting 'tetragonal'
loop_
_space_group_symop_operation_xyz
x,y,z
y,-x,-z
-x,-y,z
-y,x,-z
loop_
_atom_site_type_symbol
_atom_site_label
_atom_site_fract_x
_atom_site_fract_y
_atom_site_fract_z
Si Si1 0.500000 0.500000 0.000000
Si Si2 0.621358 0.927388 0.069761
Si Si3 0.991611 0.867960 0.774878
Si Si4 0.602448 0.261052 0.557187
Si Si5 0.298514 0.533747 0.751958
Si Si6 0.418692 0.105322 0.689044
Si Si7 0.156151 0.810477 0.484548
O O1 0.483399 0.617733 0.105900
O O2 0.750778 0.981482 0.114252
O O3 0.610153 0.805485 0.167149
O O4 0.500000 0.000000 0.108034
O O5 0.632794 0.908706 0.872784
O O6 0.074109 0.876346 0.613738
O O7 0.862588 0.848239 0.702010
O O8 0.000000 0.000000 0.861699
O O9 0.629169 0.391143 0.617984
O O10 0.573480 0.252673 0.359618
O O11 0.501230 0.219305 0.682823
O O12 0.716695 0.178932 0.570268
O O13 0.323878 0.118241 0.542171
O O14 0.500000 0.000000 0.630032
#
# Coordination Sequence:
#
# PCOD8302324 Si02
#       7
#     1   4   4   4   4   4   4
#     4  12  28  42  72 116 148 190 240 320 400 450
#     4  11  26  51  72 106 151 209 254 317 394 479
#     4  12  24  47  75 113 152 198 258 321 395 460
#     4  12  23  44  73 105 138 195 256 306 375 462
#     4  12  25  44  72 102 151 187 248 314 383 456
#     4  11  26  47  74 105 147 200 257 313 383 478
#     4  12  23  45  76 108 148 198 253 323 384 467
#
# _framework density 23.963830999999999
#
# number of rings (size 3 to 8) (size 9 to 14) (size 15 to 20)
#    0.000    0.320    4.800    3.840    2.240    1.280 
#    8.640    0.800    0.000    0.000    0.000    0.000 
#    0.000    0.000    0.000    0.000    0.000    0.000 
#
# Total GULP energy -309829.266620 kJ/mol
# GULP energy per Si atom -12393.170665 kJ/mol
# Density = 2.390929 g / cm^3
# Si number density = 23.963831 Si / 1000 Ang^3
#
#
#
# Elastic Constant Matrix: (Units=GPa)
#
#
# Indices 1 2 3 4 5 6 
#
# 1 125.4470 36.8313 38.9432 0.0000 0.0000 3.2067
# 2 36.8313 125.4470 38.9432 0.0000 0.0000 -3.2067
# 3 38.9432 38.9432 90.3591 0.0000 0.0000 0.0000
# 4 0.0000 0.0000 0.0000 20.9911 0.0000 0.0000
# 5 0.0000 0.0000 0.0000 0.0000 20.9911 0.0000
# 6 3.2067 -3.2067 0.0000 0.0000 0.0000 33.7774
#
#
#
# Elastic Compliance Matrix: (Units=1/GPa)
#
#
# Indices 1 2 3 4 5 6 
#
# 1 0.009566 -0.001797 -0.003348 0.000000 0.000000 -0.001079
# 2 -0.001797 0.009566 -0.003348 0.000000 0.000000 0.001079
# 3 -0.003348 -0.003348 0.013953 0.000000 0.000000 0.000000
# 4 0.000000 0.000000 0.000000 0.047639 0.000000 0.000000
# 5 0.000000 0.000000 0.000000 0.000000 0.047639 0.000000
# 6 -0.001079 0.001079 0.000000 0.000000 0.000000 0.029810
#
#
# Mechanical properties :
#
#
# Convention : Reuss Voigt Hill
#
# Bulk Modulus (GPa) = 62.11915 63.40984 62.76449
# Shear Modulus (GPa) = 27.69665 30.25430 28.97548
#
# Velocity S-wave (km/s) = 3.40335 3.55702 3.48103
# Velocity P-wave (km/s) = 6.43599 6.58695 6.51191
#
# Compressibility (1/GPa) = 0.01609810
#
# Stress axis : x y z
#
# Youngs Moduli (GPa) = 104.53624 104.53624 71.66814
#
# Poissons Ratio (x) = 0.18782 0.23998
# Poissons Ratio (y) = 0.18782 0.23998
# Poissons Ratio (z) = 0.35004 0.35004
#
# Static dielectric constant tensor:
#      x y z
#    x 4.549960 0.000000 0.000000 
#    y 0.000000 4.549960 0.000000 
#    z 0.000000 0.000000 4.107320 
# 
# 
# High freq. dielectric constant tensor:
#      x y z
#    x 1.961640 0.000000 0.000000 
#    y 0.000000 1.961640 0.000000 
#    z 0.000000 0.000000 1.948160 
# 
# From -- ./inp_files/870.got.cif
#   From: 2010.03.12/outbox.cif.g09.slc.cpg/sg81_cif.got.tgz:870.got - 2010.04.08 20:01:38.
