data_PCOD8302838
_publ_section_title
;
Structure prediction by ZEFSAII (Michael W. Deem and Ramdas Pophale) SiO2 
 PCOD8302838
Probable space group: P 4/M
;
_chemical_formula_sum "Si O2"
_cell_formula_units_Z 40
_cell_length_a 15.069260
_cell_length_b 15.069260
_cell_length_c 8.465476
_cell_angle_alpha 90.000000
_cell_angle_beta 90.000000
_cell_angle_gamma 90.000000
_cell_volume 1922.362274
_symmetry_space_group_name_H-M "P 4/M"
_symmetry_group_IT_number 83
_symmetry_cell_setting 'tetragonal'
loop_
_space_group_symop_operation_xyz
x,y,z
-y,x,z
-x,-y,z
y,-x,z
-x,-y,-z
y,-x,-z
x,y,-z
-y,x,-z
loop_
_atom_site_type_symbol
_atom_site_label
_atom_site_fract_x
_atom_site_fract_y
_atom_site_fract_z
Si Si1 0.936315 0.422681 0.179882
Si Si2 0.514907 0.736811 0.180173
Si Si3 0.810625 0.167462 0.816589
Si Si4 0.759064 0.983366 0.681059
Si Si5 0.329270 0.692376 0.315783
O O1 0.837342 0.455791 0.194286
O O2 0.948327 0.340040 0.294539
O O3 0.000000 0.500000 0.240956
O O4 0.959878 0.395441 0.000000
O O5 0.428582 0.725753 0.287406
O O6 0.594245 0.675784 0.243064
O O7 0.492500 0.710808 0.000000
O O8 0.904385 0.174333 0.727047
O O9 0.740621 0.241246 0.763063
O O10 0.773264 0.069607 0.787970
O O11 0.828427 0.183226 0.000000
O O12 0.774178 0.009911 0.500000
O O13 0.308098 0.689257 0.500000
#
# Coordination Sequence:
#
# PCOD8302838 Si02
#       5
#     8   8   8   8   8
#     4  10  21  39  65  97 131 171 222 272 328 398
#     4  11  23  41  67  96 133 179 225 271 334 408
#     4  12  25  45  69  96 134 180 227 272 333 406
#     4  12  25  42  67  99 134 172 221 279 338 392
#     4  12  25  43  67  99 137 174 223 283 338 391
#
# _framework density 20.807732999999999
#
# number of rings (size 3 to 8) (size 9 to 14) (size 15 to 20)
#    0.000    0.600    2.000    7.200    0.000    3.600 
#    0.000    4.000    0.000    0.000    0.000    0.000 
#    0.000    0.000    0.000    0.000    0.000    0.000 
#
# Total GULP energy -496320.306634 kJ/mol
# GULP energy per Si atom -12408.007666 kJ/mol
# Density = 2.076037 g / cm^3
# Si number density = 20.807733 Si / 1000 Ang^3
#
#
#
# Elastic Constant Matrix: (Units=GPa)
#
#
# Indices 1 2 3 4 5 6 
#
# 1 84.9454 21.6739 28.3753 0.0000 0.0000 3.8435
# 2 21.6739 84.9454 28.3753 0.0000 0.0000 -3.8435
# 3 28.3753 28.3753 84.0643 0.0000 0.0000 0.0000
# 4 0.0000 0.0000 0.0000 36.5664 0.0000 0.0000
# 5 0.0000 0.0000 0.0000 0.0000 36.5664 0.0000
# 6 3.8435 -3.8435 0.0000 0.0000 0.0000 34.9427
#
#
#
# Elastic Compliance Matrix: (Units=1/GPa)
#
#
# Indices 1 2 3 4 5 6 
#
# 1 0.013726 -0.002293 -0.003859 0.000000 0.000000 -0.001762
# 2 -0.002293 0.013726 -0.003859 0.000000 0.000000 0.001762
# 3 -0.003859 -0.003859 0.014501 0.000000 0.000000 0.000000
# 4 0.000000 0.000000 0.000000 0.027348 0.000000 0.000000
# 5 0.000000 0.000000 0.000000 0.000000 0.027348 0.000000
# 6 -0.001762 0.001762 0.000000 0.000000 0.000000 0.029006
#
#
# Mechanical properties :
#
#
# Convention : Reuss Voigt Hill
#
# Bulk Modulus (GPa) = 45.59822 45.64491 45.62157
# Shear Modulus (GPa) = 32.68248 33.31712 32.99980
#
# Velocity S-wave (km/s) = 3.96749 4.00583 3.98671
# Velocity P-wave (km/s) = 6.55360 6.58632 6.56998
#
# Compressibility (1/GPa) = 0.02193068
#
# Stress axis : x y z
#
# Youngs Moduli (GPa) = 72.85355 72.85355 68.96079
#
# Poissons Ratio (x) = 0.16704 0.26614
# Poissons Ratio (y) = 0.16704 0.26614
# Poissons Ratio (z) = 0.28116 0.28116
#
# Static dielectric constant tensor:
#      x y z
#    x 3.816880 0.000000 0.000000 
#    y 0.000000 3.816880 0.000000 
#    z 0.000000 0.000000 3.840210 
# 
# 
# High freq. dielectric constant tensor:
#      x y z
#    x 1.824610 0.000000 0.000000 
#    y 0.000000 1.824610 0.000000 
#    z 0.000000 0.000000 1.822780 
# 
# From -- ./inp_files/681.got.cif
#   From: 2010.03.12/outbox.cif.g09.slc.cpg/sg83_1_cif.got.tgz:681.got - 2010.04.08 20:05:18.
