data_PCOD8302653
_publ_section_title
;
Structure prediction by ZEFSAII (Michael W. Deem and Ramdas Pophale) SiO2 
 PCOD8302653
Probable space group: P 4/M
;
_chemical_formula_sum "Si O2"
_cell_formula_units_Z 52
_cell_length_a 14.972686
_cell_length_b 14.972686
_cell_length_c 16.526425
_cell_angle_alpha 90.000000
_cell_angle_beta 90.000000
_cell_angle_gamma 90.000000
_cell_volume 3704.915871
_symmetry_space_group_name_H-M "P 4/M"
_symmetry_group_IT_number 83
_symmetry_cell_setting 'tetragonal'
loop_
_space_group_symop_operation_xyz
x,y,z
-y,x,z
-x,-y,z
y,-x,z
-x,-y,-z
y,-x,-z
x,y,-z
-y,x,-z
loop_
_atom_site_type_symbol
_atom_site_label
_atom_site_fract_x
_atom_site_fract_y
_atom_site_fract_z
Si Si1 0.085201 0.757087 0.404979
Si Si2 0.619660 0.570526 0.596216
Si Si3 0.388922 0.809822 0.406330
Si Si4 0.776675 0.102534 0.663697
Si Si5 0.137450 0.942931 0.825241
Si Si6 0.081007 0.556409 0.593339
Si Si7 0.864383 0.056237 0.000000
O O1 0.101948 0.758675 0.500000
O O2 0.160691 0.817638 0.365242
O O3 0.094083 0.655536 0.369044
O O4 0.988412 0.798436 0.384556
O O5 0.531818 0.620514 0.628871
O O6 0.620148 0.565843 0.500000
O O7 0.708130 0.622536 0.624743
O O8 0.359951 0.822180 0.500000
O O9 0.326509 0.872312 0.351833
O O10 0.494231 0.832022 0.396119
O O11 0.790416 0.086441 0.758980
O O12 0.183824 0.923751 0.913782
O O13 0.047275 0.885581 0.814840
O O14 0.056219 0.573298 0.500000
O O15 0.000000 0.500000 0.633789
O O16 0.952918 0.113798 0.000000
#
# Coordination Sequence:
#
# PCOD8302653 Si02
#       7
#     8   8   8   8   8   8   4
#     4  11  22  32  41  56  81 120 154 181 207 241
#     4   8  15  27  41  57  75  96 130 180 234 270
#     4  10  19  29  42  58  77 109 148 185 214 247
#     4  12  21  30  41  60  87 113 148 178 208 250
#     4   9  16  29  43  61  83 109 136 172 216 248
#     4   9  17  31  44  51  68 102 149 188 210 231
#     4   7  12  24  46  62  76 101 135 168 211 264
#
# _framework density 14.035406
#
# number of rings (size 3 to 8) (size 9 to 14) (size 15 to 20)
#    0.000    2.385    3.077    2.769    2.154    0.308 
#    0.000    0.769    0.000    0.000    0.000    0.000 
#    0.000    3.692    0.000    0.000    0.000    2.308 
#
# Total GULP energy -644237.712399 kJ/mol
# GULP energy per Si atom -12389.186777 kJ/mol
# Density = 1.400346 g / cm^3
# Si number density = 14.035406 Si / 1000 Ang^3
#
#
#
# Elastic Constant Matrix: (Units=GPa)
#
#
# Indices 1 2 3 4 5 6 
#
# 1 56.9874 19.6588 20.3605 0.0000 0.0000 1.9232
# 2 19.6588 56.9874 20.3605 0.0000 0.0000 -1.9232
# 3 20.3605 20.3605 67.0589 0.0000 0.0000 0.0000
# 4 0.0000 0.0000 0.0000 7.6819 0.0000 0.0000
# 5 0.0000 0.0000 0.0000 0.0000 7.6819 0.0000
# 6 1.9232 -1.9232 0.0000 0.0000 0.0000 19.2539
#
#
#
# Elastic Compliance Matrix: (Units=1/GPa)
#
#
# Indices 1 2 3 4 5 6 
#
# 1 0.021312 -0.005756 -0.004723 0.000000 0.000000 -0.002704
# 2 -0.005756 0.021312 -0.004723 0.000000 0.000000 0.002704
# 3 -0.004723 -0.004723 0.017780 0.000000 0.000000 0.000000
# 4 0.000000 0.000000 0.000000 0.130176 0.000000 0.000000
# 5 0.000000 0.000000 0.000000 0.000000 0.130176 0.000000
# 6 -0.002704 0.002704 0.000000 0.000000 0.000000 0.052478
#
#
# Mechanical properties :
#
#
# Convention : Reuss Voigt Hill
#
# Bulk Modulus (GPa) = 33.33314 33.53258 33.43286
# Shear Modulus (GPa) = 12.08787 14.96715 13.52751
#
# Velocity S-wave (km/s) = 2.93787 3.26910 3.10790
# Velocity P-wave (km/s) = 5.94214 6.18002 6.06225
#
# Compressibility (1/GPa) = 0.03000017
#
# Stress axis : x y z
#
# Youngs Moduli (GPa) = 46.92191 46.92191 56.24170
#
# Poissons Ratio (x) = 0.27007 0.26564
# Poissons Ratio (y) = 0.27007 0.26564
# Poissons Ratio (z) = 0.22162 0.22162
#
# Static dielectric constant tensor:
#      x y z
#    x 2.840490 0.000000 0.000000 
#    y 0.000000 2.840490 0.000000 
#    z 0.000000 0.000000 2.588400 
# 
# 
# High freq. dielectric constant tensor:
#      x y z
#    x 1.533500 0.000000 0.000000 
#    y 0.000000 1.533500 0.000000 
#    z 0.000000 0.000000 1.477420 
# 
# From -- ./inp_files/2428.got.cif
#   From: 2010.03.12/outbox.cif.g09.slc.cpg/sg83_2_cif.got.tgz:2428.got - 2010.04.08 20:05:18.
