data_PCOD8302553
_publ_section_title
;
Structure prediction by ZEFSAII (Michael W. Deem and Ramdas Pophale) SiO2 
 PCOD8302553
Probable space group: I -4 
;
_chemical_formula_sum "Si O2"
_cell_formula_units_Z 40
_cell_length_a 9.281278
_cell_length_b 9.281278
_cell_length_c 21.654990
_cell_angle_alpha 90.000000
_cell_angle_beta 90.000000
_cell_angle_gamma 90.000000
_cell_volume 1865.406776
_symmetry_space_group_name_H-M "I -4 "
_symmetry_group_IT_number 82
_symmetry_cell_setting 'tetragonal'
loop_
_space_group_symop_operation_xyz
x,y,z
y,-x,-z
-x,-y,z
-y,x,-z
1/2+x,1/2+y,1/2+z
1/2+y,1/2-x,1/2-z
1/2-x,1/2-y,1/2+z
1/2-y,1/2+x,1/2-z
loop_
_atom_site_type_symbol
_atom_site_label
_atom_site_fract_x
_atom_site_fract_y
_atom_site_fract_z
Si Si1 0.396925 0.369428 0.143936
Si Si2 0.350702 0.421979 0.393631
Si Si3 0.414359 0.858303 0.077593
Si Si4 0.423141 0.779100 0.740113
Si Si5 0.386320 0.115808 0.561003
O O1 0.500000 0.500000 0.128761
O O2 0.503274 0.243219 0.124859
O O3 0.348290 0.362312 0.215619
O O4 0.249073 0.371384 0.105690
O O5 0.500000 0.500000 0.387724
O O6 0.367491 0.255755 0.411180
O O7 0.273239 0.431461 0.328875
O O8 0.261628 0.517852 0.443473
O O9 0.500000 0.000000 0.092600
O O10 0.432268 0.821600 0.005070
O O11 0.584143 0.818172 0.760863
O O12 0.500000 0.000000 0.587734
#
# Coordination Sequence:
#
# PCOD8302553 Si02
#       5
#     8   8   8   8   8
#     4  12  25  44  71 106 143 190 243 310 369 433
#     4  12  26  45  74 106 140 194 242 303 368 446
#     4  11  28  45  68 108 148 184 239 309 380 442
#     4  11  23  45  74 105 140 190 252 301 364 454
#     4  11  25  45  72 102 143 193 244 295 366 457
#
# _framework density 21.443044
#
# number of rings (size 3 to 8) (size 9 to 14) (size 15 to 20)
#    0.000    0.600    2.000    5.400   11.200    0.000 
#    0.000    0.000    0.000    0.000    0.000    0.000 
#    0.000    0.000    0.000    0.000    0.000    0.000 
#
# Total GULP energy -247901.092313 kJ/mol
# GULP energy per Si atom -12395.054616 kJ/mol
# Density = 2.139424 g / cm^3
# Si number density = 21.443044 Si / 1000 Ang^3
#
#
#
# Elastic Constant Matrix: (Units=GPa)
#
#
# Indices 1 2 3 4 5 6 
#
# 1 133.2688 59.6483 10.6794 0.0000 0.0000 7.9639
# 2 59.6483 133.2687 10.6794 0.0000 0.0000 -7.9639
# 3 10.6794 10.6794 76.7581 0.0000 0.0000 0.0000
# 4 0.0000 0.0000 0.0000 80.9193 0.0000 0.0000
# 5 0.0000 0.0000 0.0000 0.0000 80.9194 0.0000
# 6 7.9639 -7.9639 0.0000 0.0000 0.0000 49.5332
#
#
#
# Elastic Compliance Matrix: (Units=1/GPa)
#
#
# Indices 1 2 3 4 5 6 
#
# 1 0.009669 -0.004404 -0.000732 0.000000 0.000000 -0.002263
# 2 -0.004404 0.009669 -0.000732 0.000000 0.000000 0.002263
# 3 -0.000732 -0.000732 0.013232 0.000000 0.000000 0.000000
# 4 0.000000 0.000000 0.000000 0.012358 0.000000 0.000000
# 5 0.000000 0.000000 0.000000 0.000000 0.012358 0.000000
# 6 -0.002263 0.002263 0.000000 0.000000 0.000000 0.020916
#
#
# Mechanical properties :
#
#
# Convention : Reuss Voigt Hill
#
# Bulk Modulus (GPa) = 48.00495 56.14555 52.07525
# Shear Modulus (GPa) = 51.60877 59.76028 55.68453
#
# Velocity S-wave (km/s) = 4.91122 5.28487 5.10147
# Velocity P-wave (km/s) = 7.38890 7.96744 7.68362
#
# Compressibility (1/GPa) = 0.02083118
#
# Stress axis : x y z
#
# Youngs Moduli (GPa) = 103.42674 103.42673 75.57576
#
# Poissons Ratio (x) = 0.45549 0.05536
# Poissons Ratio (y) = 0.45549 0.05536
# Poissons Ratio (z) = 0.07576 0.07576
#
# Static dielectric constant tensor:
#      x y z
#    x 3.752270 0.000000 0.000000 
#    y 0.000000 3.752270 0.000000 
#    z 0.000000 0.000000 4.048810 
# 
# 
# High freq. dielectric constant tensor:
#      x y z
#    x 1.856070 0.000000 0.000000 
#    y 0.000000 1.856070 0.000000 
#    z 0.000000 0.000000 1.848020 
# 
# From -- ./inp_files/3319.got.cif
#   From: 2010.03.12/outbox.cif.g09.slc.cpg/sg82_2_cif.got.tgz:3319.got - 2010.04.08 20:02:50.
