data_PCOD8302969
_publ_section_title
;
Structure prediction by ZEFSAII (Michael W. Deem and Ramdas Pophale) SiO2 
 PCOD8302969
Probable space group: P 4/M
;
_chemical_formula_sum "Si O2"
_cell_formula_units_Z 32
_cell_length_a 8.240314
_cell_length_b 8.240314
_cell_length_c 22.064549
_cell_angle_alpha 90.000000
_cell_angle_beta 90.000000
_cell_angle_gamma 90.000000
_cell_volume 1498.244102
_symmetry_space_group_name_H-M "P 4/M"
_symmetry_group_IT_number 83
_symmetry_cell_setting 'tetragonal'
loop_
_space_group_symop_operation_xyz
x,y,z
-y,x,z
-x,-y,z
y,-x,z
-x,-y,-z
y,-x,-z
x,y,-z
-y,x,-z
loop_
_atom_site_type_symbol
_atom_site_label
_atom_site_fract_x
_atom_site_fract_y
_atom_site_fract_z
Si Si1 0.597750 0.247826 0.130947
Si Si2 0.000000 0.500000 0.338295
Si Si3 0.256603 0.920734 0.241479
Si Si4 0.597769 0.252262 0.000000
Si Si5 0.577745 0.754678 0.432463
O O1 0.705748 0.409484 0.139051
O O2 0.647222 0.112079 0.179343
O O3 0.631715 0.163479 0.064433
O O4 0.109230 0.380540 0.296905
O O5 0.111490 0.612910 0.381407
O O6 0.106777 0.798509 0.245095
O O7 0.705267 0.410786 0.000000
O O8 0.392913 0.699223 0.423475
O O9 0.600427 0.828276 0.500000
#
# Coordination Sequence:
#
# PCOD8302969 Si02
#       5
#     8   4   8   4   8
#     4   9  17  33  58  84 108 139 180 223 269 324
#     4  12  21  36  58  79 104 146 188 214 256 323
#     4  11  24  38  51  74 111 148 183 227 272 314
#     4   7  12  26  52  83 108 131 170 224 272 317
#     4   9  19  36  58  85 112 135 168 219 270 313
#
# _framework density 21.358333999999999
#
# number of rings (size 3 to 8) (size 9 to 14) (size 15 to 20)
#    0.000    2.375    0.000    5.625    0.000    0.000 
#    0.000    3.750    0.000    6.750    0.000   10.500 
#    0.000    0.000    0.000    0.000    0.000    0.000 
#
# Total GULP energy -396553.907641 kJ/mol
# GULP energy per Si atom -12392.309614 kJ/mol
# Density = 2.130972 g / cm^3
# Si number density = 21.358334 Si / 1000 Ang^3
#
#
#
# Elastic Constant Matrix: (Units=GPa)
#
#
# Indices 1 2 3 4 5 6 
#
# 1 58.9361 10.2538 43.2416 0.0000 0.0000 6.3670
# 2 10.2538 58.9361 43.2416 0.0000 0.0000 -6.3670
# 3 43.2416 43.2416 191.5850 0.0000 0.0000 0.0000
# 4 0.0000 0.0000 0.0000 31.4513 0.0000 0.0000
# 5 0.0000 0.0000 0.0000 0.0000 31.4513 0.0000
# 6 6.3670 -6.3670 0.0000 0.0000 0.0000 27.2186
#
#
#
# Elastic Compliance Matrix: (Units=1/GPa)
#
#
# Indices 1 2 3 4 5 6 
#
# 1 0.021006 -0.000874 -0.004544 0.000000 0.000000 -0.005118
# 2 -0.000874 0.021006 -0.004544 0.000000 0.000000 0.005118
# 3 -0.004544 -0.004544 0.007271 0.000000 0.000000 0.000000
# 4 0.000000 0.000000 0.000000 0.031795 0.000000 0.000000
# 5 0.000000 0.000000 0.000000 0.000000 0.031795 0.000000
# 6 -0.005118 0.005118 0.000000 0.000000 0.000000 0.039134
#
#
# Mechanical properties :
#
#
# Convention : Reuss Voigt Hill
#
# Bulk Modulus (GPa) = 34.05981 55.88125 44.97053
# Shear Modulus (GPa) = 27.51510 32.20561 29.86035
#
# Velocity S-wave (km/s) = 3.59313 3.88734 3.74313
# Velocity P-wave (km/s) = 5.76156 6.80948 6.30732
#
# Compressibility (1/GPa) = 0.02936012
#
# Stress axis : x y z
#
# Youngs Moduli (GPa) = 47.60446 47.60446 137.53572
#
# Poissons Ratio (x) = 0.04159 0.62497
# Poissons Ratio (y) = 0.04159 0.62497
# Poissons Ratio (z) = 0.21632 0.21632
#
# Static dielectric constant tensor:
#      x y z
#    x 3.536020 0.000000 0.000000 
#    y 0.000000 3.536020 0.000000 
#    z 0.000000 0.000000 4.277440 
# 
# 
# High freq. dielectric constant tensor:
#      x y z
#    x 1.813340 0.000000 0.000000 
#    y 0.000000 1.813340 0.000000 
#    z 0.000000 0.000000 1.863080 
# 
# From -- ./inp_files/3076.got.cif
#   From: 2010.03.12/outbox.cif.g09.slc.cpg/sg83_2_cif.got.tgz:3076.got - 2010.04.08 20:05:18.
