data_PCOD8302297
_publ_section_title
;
Structure prediction by ZEFSAII (Michael W. Deem and Ramdas Pophale) SiO2 
 PCOD8302297
Probable space group: P -4
;
_chemical_formula_sum "Si O2"
_cell_formula_units_Z 14
_cell_length_a 7.292495
_cell_length_b 7.292495
_cell_length_c 14.552961
_cell_angle_alpha 90.000000
_cell_angle_beta 90.000000
_cell_angle_gamma 90.000000
_cell_volume 773.933500
_symmetry_space_group_name_H-M "P -4"
_symmetry_group_IT_number 81
_symmetry_cell_setting 'tetragonal'
loop_
_space_group_symop_operation_xyz
x,y,z
y,-x,-z
-x,-y,z
-y,x,-z
loop_
_atom_site_type_symbol
_atom_site_label
_atom_site_fract_x
_atom_site_fract_y
_atom_site_fract_z
Si Si1 0.993139 0.794141 0.853843
Si Si2 0.793589 0.507490 0.527432
Si Si3 0.280508 0.694437 0.009311
Si Si4 0.500000 0.000000 0.297399
O O1 0.136474 0.764437 0.935387
O O2 0.038224 0.674398 0.765638
O O3 0.000000 0.000000 0.818334
O O4 0.792402 0.747167 0.892929
O O5 0.683838 0.319484 0.507268
O O6 0.820285 0.526489 0.637962
O O7 0.000000 0.500000 0.482095
O O8 0.480399 0.742848 0.970104
#
# Coordination Sequence:
#
# PCOD8302297 Si02
#       4
#     4   4   4   2
#     4  12  22  38  60  90 127 166 213 254 302 364
#     4   9  21  44  71  93 127 167 204 276 348 395
#     4  11  21  36  60  82 125 177 206 246 304 347
#     4  10  24  42  66  92 128 154 220 270 300 408
#
# _framework density 18.089410000000001
#
# number of rings (size 3 to 8) (size 9 to 14) (size 15 to 20)
#    0.857    0.571    5.714    0.000    0.000    2.857 
#   10.286    0.000    0.000    0.000    0.000    0.000 
#    0.000    0.000    0.000    0.000    0.000    0.000 
#
# Total GULP energy -173551.442890 kJ/mol
# GULP energy per Si atom -12396.531635 kJ/mol
# Density = 1.804824 g / cm^3
# Si number density = 18.089410 Si / 1000 Ang^3
#
#
#
# Elastic Constant Matrix: (Units=GPa)
#
#
# Indices 1 2 3 4 5 6 
#
# 1 115.4876 33.8988 16.5325 0.0000 0.0000 -1.1440
# 2 33.8988 115.4876 16.5325 0.0000 0.0000 1.1440
# 3 16.5325 16.5325 71.7523 0.0000 0.0000 0.0000
# 4 0.0000 0.0000 0.0000 70.9693 0.0000 0.0000
# 5 0.0000 0.0000 0.0000 0.0000 70.9693 0.0000
# 6 -1.1440 1.1440 0.0000 0.0000 0.0000 27.4772
#
#
#
# Elastic Compliance Matrix: (Units=1/GPa)
#
#
# Indices 1 2 3 4 5 6 
#
# 1 0.009662 -0.002609 -0.001625 0.000000 0.000000 0.000511
# 2 -0.002609 0.009662 -0.001625 0.000000 0.000000 -0.000511
# 3 -0.001625 -0.001625 0.014686 0.000000 0.000000 0.000000
# 4 0.000000 0.000000 0.000000 0.014091 0.000000 0.000000
# 5 0.000000 0.000000 0.000000 0.000000 0.014091 0.000000
# 6 0.000511 -0.000511 0.000000 0.000000 0.000000 0.036436
#
#
# Mechanical properties :
#
#
# Convention : Reuss Voigt Hill
#
# Bulk Modulus (GPa) = 44.85855 48.51723 46.68789
# Shear Modulus (GPa) = 42.45309 49.60073 46.02691
#
# Velocity S-wave (km/s) = 4.84968 5.24207 5.04969
# Velocity P-wave (km/s) = 7.49742 7.96982 7.73723
#
# Compressibility (1/GPa) = 0.02229230
#
# Stress axis : x y z
#
# Youngs Moduli (GPa) = 103.49456 103.49456 68.09305
#
# Poissons Ratio (x) = 0.26997 0.11067
# Poissons Ratio (y) = 0.26997 0.11067
# Poissons Ratio (z) = 0.16821 0.16821
#
# Static dielectric constant tensor:
#      x y z
#    x 3.242780 0.000000 0.000000 
#    y 0.000000 3.242780 0.000000 
#    z 0.000000 0.000000 3.133620 
# 
# 
# High freq. dielectric constant tensor:
#      x y z
#    x 1.713020 0.000000 0.000000 
#    y 0.000000 1.713020 0.000000 
#    z 0.000000 0.000000 1.676410 
# 
# From -- ./inp_files/1003.got.cif
#   From: 2010.03.12/outbox.cif.g09.slc.cpg/sg81_cif.got.tgz:1003.got - 2010.04.08 20:01:38.
