data_PCOD8302460
_publ_section_title
;
Structure prediction by ZEFSAII (Michael W. Deem and Ramdas Pophale) SiO2 
 PCOD8302460
Probable space group: I -4 
;
_chemical_formula_sum "Si O2"
_cell_formula_units_Z 56
_cell_length_a 14.880392
_cell_length_b 14.880392
_cell_length_c 12.338710
_cell_angle_alpha 90.000000
_cell_angle_beta 90.000000
_cell_angle_gamma 90.000000
_cell_volume 2732.112016
_symmetry_space_group_name_H-M "I -4 "
_symmetry_group_IT_number 82
_symmetry_cell_setting 'tetragonal'
loop_
_space_group_symop_operation_xyz
x,y,z
y,-x,-z
-x,-y,z
-y,x,-z
1/2+x,1/2+y,1/2+z
1/2+y,1/2-x,1/2-z
1/2-x,1/2-y,1/2+z
1/2-y,1/2+x,1/2-z
loop_
_atom_site_type_symbol
_atom_site_label
_atom_site_fract_x
_atom_site_fract_y
_atom_site_fract_z
Si Si1 0.212353 0.891867 0.065114
Si Si2 0.175802 0.726755 0.427411
Si Si3 0.453106 0.631686 0.027156
Si Si4 0.331009 0.152988 0.141824
Si Si5 0.244724 0.501545 0.780976
Si Si6 0.563306 0.252965 0.558993
Si Si7 0.624649 0.931432 0.742894
O O1 0.224292 0.937831 0.180483
O O2 0.115157 0.847047 0.060432
O O3 0.286638 0.814759 0.040181
O O4 0.220020 0.961520 0.966358
O O5 0.099558 0.797719 0.454698
O O6 0.255399 0.772653 0.357408
O O7 0.129682 0.647497 0.359906
O O8 0.476671 0.669218 0.146171
O O9 0.543046 0.608051 0.959620
O O10 0.437270 0.174955 0.150672
O O11 0.301873 0.090467 0.242674
O O12 0.316538 0.099850 0.030620
O O13 0.573021 0.206530 0.674196
O O14 0.533738 0.891807 0.795966
#
# Coordination Sequence:
#
# PCOD8302460 Si02
#       7
#     8   8   8   8   8   8   8
#     4  10  22  42  67  96 133 178 224 281 327 410
#     4  11  22  43  68  95 134 175 227 273 344 410
#     4  11  25  43  65 101 136 171 223 285 344 410
#     4  10  23  40  66  96 130 179 222 283 335 405
#     4  11  22  44  65 100 135 177 230 274 351 402
#     4  10  22  42  64  97 137 168 231 271 337 403
#     4  11  24  40  65  97 130 173 217 277 342 399
#
# _framework density 20.496964999999999
#
# number of rings (size 3 to 8) (size 9 to 14) (size 15 to 20)
#    0.000    1.429    2.857    1.714    2.000    2.857 
#    2.571    0.000    0.000    0.000    0.000    0.000 
#    0.000    0.000    0.000    0.000    0.000    0.000 
#
# Total GULP energy -347261.138063 kJ/mol
# GULP energy per Si atom -12402.183502 kJ/mol
# Density = 2.045031 g / cm^3
# Si number density = 20.496965 Si / 1000 Ang^3
#
#
#
# Elastic Constant Matrix: (Units=GPa)
#
#
# Indices 1 2 3 4 5 6 
#
# 1 116.8613 59.6808 42.8375 0.0000 0.0000 -1.5047
# 2 59.6808 116.8613 42.8375 0.0000 0.0000 1.5047
# 3 42.8375 42.8375 77.8260 0.0000 0.0000 0.0000
# 4 0.0000 0.0000 0.0000 32.7167 0.0000 0.0000
# 5 0.0000 0.0000 0.0000 0.0000 32.7167 0.0000
# 6 -1.5047 1.5047 0.0000 0.0000 0.0000 40.0439
#
#
#
# Elastic Compliance Matrix: (Units=1/GPa)
#
#
# Indices 1 2 3 4 5 6 
#
# 1 0.012626 -0.004897 -0.004254 0.000000 0.000000 0.000658
# 2 -0.004897 0.012626 -0.004254 0.000000 0.000000 -0.000658
# 3 -0.004254 -0.004254 0.017532 0.000000 0.000000 0.000000
# 4 0.000000 0.000000 0.000000 0.030565 0.000000 0.000000
# 5 0.000000 0.000000 0.000000 0.000000 0.030565 0.000000
# 6 0.000658 -0.000658 0.000000 0.000000 0.000000 0.025022
#
#
# Mechanical properties :
#
#
# Convention : Reuss Voigt Hill
#
# Bulk Modulus (GPa) = 62.60387 66.91781 64.76084
# Shear Modulus (GPa) = 31.04185 32.17500 31.60843
#
# Velocity S-wave (km/s) = 3.89583 3.96630 3.93122
# Velocity P-wave (km/s) = 7.13063 7.32761 7.22979
#
# Compressibility (1/GPa) = 0.01597345
#
# Stress axis : x y z
#
# Youngs Moduli (GPa) = 79.20145 79.20145 57.03717
#
# Poissons Ratio (x) = 0.38786 0.24265
# Poissons Ratio (y) = 0.38786 0.24265
# Poissons Ratio (z) = 0.33694 0.33694
#
# Static dielectric constant tensor:
#      x y z
#    x 3.866040 0.000000 0.000000 
#    y 0.000000 3.866040 0.000000 
#    z 0.000000 0.000000 3.546690 
# 
# 
# High freq. dielectric constant tensor:
#      x y z
#    x 1.811030 0.000000 0.000000 
#    y 0.000000 1.811030 0.000000 
#    z 0.000000 0.000000 1.793140 
# 
# From -- ./inp_files/1830.got.cif
#   From: 2010.03.12/outbox.cif.g09.slc.cpg/sg82_1_cif.got.tgz:1830.got - 2010.04.08 20:02:50.
