data_PCOD8302150
_publ_section_title
;
Structure prediction by ZEFSAII (Michael W. Deem and Ramdas Pophale) SiO2 
 PCOD8302150
Probable space group: I 41
;
_chemical_formula_sum "Si O2"
_cell_formula_units_Z 64
_cell_length_a 11.629371
_cell_length_b 11.629371
_cell_length_c 26.311840
_cell_angle_alpha 90.000000
_cell_angle_beta 90.000000
_cell_angle_gamma 90.000000
_cell_volume 3558.472966
_symmetry_space_group_name_H-M "I 41"
_symmetry_group_IT_number 80
_symmetry_cell_setting 'tetragonal'
loop_
_space_group_symop_operation_xyz
x,y,z
-y,1/2+x,1/4+z
-x,-y,z
y,1/2-x,1/4+z
1/2+x,1/2+y,1/2+z
1/2-y,x,3/4+z
1/2-x,1/2-y,1/2+z
1/2+y,-x,3/4+z
loop_
_atom_site_type_symbol
_atom_site_label
_atom_site_fract_x
_atom_site_fract_y
_atom_site_fract_z
Si Si1 0.750000 0.179922 0.941300
Si Si2 0.950870 0.220742 0.089412
Si Si3 0.334511 0.103741 0.485300
Si Si4 0.334511 0.396259 0.897300
Si Si5 0.909153 0.144126 0.392136
Si Si6 0.855874 0.090847 0.740464
Si Si7 0.795947 0.795947 0.066300
Si Si8 0.220742 0.950870 0.043188
O O1 0.767914 0.101402 0.891925
O O2 0.641169 0.260733 0.930152
O O3 0.858831 0.260733 0.952448
O O4 0.732086 0.101402 0.990674
O O5 0.896112 0.103888 0.066300
O O6 0.086634 0.202232 0.099415
O O7 0.924229 0.318550 0.048547
O O8 0.250000 0.142888 0.441300
O O9 0.465064 0.123406 0.467392
O O10 0.296979 0.180391 0.533187
O O11 0.325632 0.966750 0.494993
O O12 0.325632 0.533250 0.887607
O O13 0.465064 0.376594 0.915207
O O14 0.296979 0.319609 0.849413
O O15 0.924229 0.181450 0.334052
O O16 0.797768 0.913366 0.033185
#
# Coordination Sequence:
#
# PCOD8302150 Si02
#       8
#     8   8   8   8   8   8   8   8
#     4  10  18  34  60  80 104 148 188 216 268 328
#     4   9  19  34  56  80 110 142 182 227 265 319
#     4  10  20  35  56  75 112 146 177 222 278 321
#     4  10  20  35  56  75 112 146 177 222 278 321
#     4   9  19  36  54  80 109 143 181 228 263 318
#     4   9  19  36  54  80 109 143 181 228 263 318
#     4  10  21  34  52  81 116 140 176 230 278 319
#     4   9  19  34  56  80 110 142 182 227 265 319
#
# _framework density 17.985242
#
# number of rings (size 3 to 8) (size 9 to 14) (size 15 to 20)
#    0.000    2.500    1.250    0.375    1.750    2.000 
#    0.000    0.000   11.000    0.000    0.000    0.000 
#    0.000    0.000    0.000    0.000    0.000    0.000 
#
# Total GULP energy -396553.332256 kJ/mol
# GULP energy per Si atom -12392.291633 kJ/mol
# Density = 1.794431 g / cm^3
# Si number density = 17.985242 Si / 1000 Ang^3
#
#
#
# Elastic Constant Matrix: (Units=GPa)
#
#
# Indices 1 2 3 4 5 6 
#
# 1 103.1094 39.4297 52.2592 0.0000 0.0000 0.0000
# 2 39.4297 103.1094 52.2592 0.0000 0.0000 0.0000
# 3 52.2592 52.2592 102.8453 0.0000 0.0000 0.0000
# 4 0.0000 0.0000 0.0000 29.0006 0.0000 0.0000
# 5 0.0000 0.0000 0.0000 0.0000 29.0006 0.0000
# 6 0.0000 0.0000 0.0000 0.0000 0.0000 24.8951
#
#
#
# Elastic Compliance Matrix: (Units=1/GPa)
#
#
# Indices 1 2 3 4 5 6 
#
# 1 0.013443 -0.002261 -0.005682 0.000000 0.000000 0.000000
# 2 -0.002261 0.013443 -0.005682 0.000000 0.000000 0.000000
# 3 -0.005682 -0.005682 0.015498 0.000000 0.000000 0.000000
# 4 0.000000 0.000000 0.000000 0.034482 0.000000 0.000000
# 5 0.000000 0.000000 0.000000 0.000000 0.034482 0.000000
# 6 0.000000 0.000000 0.000000 0.000000 0.000000 0.040169
#
#
# Mechanical properties :
#
#
# Convention : Reuss Voigt Hill
#
# Bulk Modulus (GPa) = 66.07688 66.32895 66.20291
# Shear Modulus (GPa) = 27.20200 27.58698 27.39449
#
# Velocity S-wave (km/s) = 3.89326 3.92071 3.90701
# Velocity P-wave (km/s) = 7.55177 7.57995 7.56587
#
# Compressibility (1/GPa) = 0.01513389
#
# Stress axis : x y z
#
# Youngs Moduli (GPa) = 74.38941 74.38941 64.52564
#
# Poissons Ratio (x) = 0.16818 0.36663
# Poissons Ratio (y) = 0.16818 0.36663
# Poissons Ratio (z) = 0.42268 0.42268
#
# Static dielectric constant tensor:
#      x y z
#    x 3.484770 0.000000 0.000000 
#    y 0.000000 3.484770 0.000000 
#    z 0.000000 0.000000 3.113660 
# 
# 
# High freq. dielectric constant tensor:
#      x y z
#    x 1.704000 0.000000 0.000000 
#    y 0.000000 1.704000 0.000000 
#    z 0.000000 0.000000 1.678140 
# 
# From -- ./inp_files/2368.got.cif
#   From: 2010.03.12/outbox.cif.g09.slc.cpg/sg80_cif.got.tgz:2368.got - 2010.04.08 20:00:04.
