data_PCOD8302044
_publ_section_title
;
Structure prediction by ZEFSAII (Michael W. Deem and Ramdas Pophale) SiO2 
 PCOD8302044
Probable space group: P 43
;
_chemical_formula_sum "Si O2"
_cell_formula_units_Z 28
_cell_length_a 14.021191
_cell_length_b 14.021191
_cell_length_c 6.497462
_cell_angle_alpha 90.000000
_cell_angle_beta 90.000000
_cell_angle_gamma 90.000000
_cell_volume 1277.360726
_symmetry_space_group_name_H-M "P 43"
_symmetry_group_IT_number 78
_symmetry_cell_setting 'tetragonal'
loop_
_space_group_symop_operation_xyz
x,y,z
-y,x,3/4+z
-x,-y,1/2+z
y,-x,1/4+z
loop_
_atom_site_type_symbol
_atom_site_label
_atom_site_fract_x
_atom_site_fract_y
_atom_site_fract_z
Si Si1 0.741641 0.089051 0.225020
Si Si2 0.095376 0.586581 0.484421
Si Si3 0.117226 0.746606 0.807444
Si Si4 0.895815 0.577399 0.292399
Si Si5 0.645174 0.217174 0.904329
Si Si6 0.370366 0.489174 0.246863
Si Si7 0.764076 0.356627 0.649530
O O1 0.837171 0.151257 0.252195
O O2 0.679444 0.094700 0.431336
O O3 0.768135 0.979160 0.183675
O O4 0.681530 0.126849 0.031117
O O5 0.094872 0.688923 0.598736
O O6 0.134091 0.506215 0.638625
O O7 0.157549 0.584499 0.277652
O O8 0.991725 0.553173 0.413734
O O9 0.192308 0.685322 0.940982
O O10 0.813392 0.579552 0.462739
O O11 0.733807 0.273206 0.806369
O O12 0.582843 0.284477 0.057229
O O13 0.454078 0.419582 0.177095
O O14 0.324895 0.571723 0.096639
#
# Coordination Sequence:
#
# PCOD8302044 Si02
#       7
#     4   4   4   4   4   4   4
#     4  12  25  45  71 102 142 190 243 297 367 429
#     4  12  25  41  70 102 138 177 231 295 354 430
#     4  12  25  45  71 102 142 190 243 297 367 429
#     4  12  25  41  70 102 138 177 231 295 354 430
#     4  11  23  45  68  99 134 181 235 290 353 428
#     4  10  24  44  64  92 136 176 226 280 348 428
#     4  11  23  45  68  99 134 181 235 290 353 428
#
# _framework density 21.920200000000001
#
# number of rings (size 3 to 8) (size 9 to 14) (size 15 to 20)
#    0.000    0.571    5.714    2.571    2.000    1.143 
#   10.286    2.857    0.000    0.000    0.000    0.000 
#    0.000    0.000    0.000    0.000    0.000    0.000 
#
# Total GULP energy -347118.532282 kJ/mol
# GULP energy per Si atom -12397.090439 kJ/mol
# Density = 2.187031 g / cm^3
# Si number density = 21.920200 Si / 1000 Ang^3
#
#
#
# Elastic Constant Matrix: (Units=GPa)
#
#
# Indices 1 2 3 4 5 6 
#
# 1 81.3855 19.0240 10.4271 0.0000 0.0000 -0.7751
# 2 19.0240 81.3855 10.4271 0.0000 0.0000 0.7751
# 3 10.4271 10.4271 52.2881 0.0000 0.0000 0.0000
# 4 0.0000 0.0000 0.0000 37.8076 0.0000 0.0000
# 5 0.0000 0.0000 0.0000 0.0000 37.8076 0.0000
# 6 -0.7751 0.7751 0.0000 0.0000 0.0000 36.2666
#
#
#
# Elastic Compliance Matrix: (Units=1/GPa)
#
#
# Indices 1 2 3 4 5 6 
#
# 1 0.013217 -0.002827 -0.002072 0.000000 0.000000 0.000343
# 2 -0.002827 0.013217 -0.002072 0.000000 0.000000 -0.000343
# 3 -0.002072 -0.002072 0.019951 0.000000 0.000000 0.000000
# 4 0.000000 0.000000 0.000000 0.026450 0.000000 0.000000
# 5 0.000000 0.000000 0.000000 0.000000 0.026450 0.000000
# 6 0.000343 -0.000343 0.000000 0.000000 0.000000 0.027588
#
#
# Mechanical properties :
#
#
# Convention : Reuss Voigt Hill
#
# Bulk Modulus (GPa) = 30.82346 32.75727 31.79037
# Shear Modulus (GPa) = 32.97533 34.05509 33.51521
#
# Velocity S-wave (km/s) = 3.88278 3.94584 3.91444
# Velocity P-wave (km/s) = 5.84752 5.97795 5.91310
#
# Compressibility (1/GPa) = 0.03244282
#
# Stress axis : x y z
#
# Youngs Moduli (GPa) = 75.66134 75.66134 50.12250
#
# Poissons Ratio (x) = 0.21391 0.10385
# Poissons Ratio (y) = 0.21391 0.10385
# Poissons Ratio (z) = 0.15676 0.15676
#
# Static dielectric constant tensor:
#      x y z
#    x 4.143670 0.000000 0.000000 
#    y 0.000000 4.143670 0.000000 
#    z 0.000000 0.000000 3.819940 
# 
# 
# High freq. dielectric constant tensor:
#      x y z
#    x 1.869380 0.000000 0.000000 
#    y 0.000000 1.869380 0.000000 
#    z 0.000000 0.000000 1.849380 
# 
# From -- ./inp_files/253.got.cif
#   From: 2010.03.12/outbox.cif.g09.slc.cpg/sg78_cif.got.tgz:253.got - 2010.04.16 16:37:20.
