data_PCOD8302477
_publ_section_title
;
Structure prediction by ZEFSAII (Michael W. Deem and Ramdas Pophale) SiO2 
 PCOD8302477
Probable space group: I -4 
;
_chemical_formula_sum "Si O2"
_cell_formula_units_Z 26
_cell_length_a 9.838582
_cell_length_b 9.838582
_cell_length_c 12.469724
_cell_angle_alpha 90.000000
_cell_angle_beta 90.000000
_cell_angle_gamma 90.000000
_cell_volume 1207.040550
_symmetry_space_group_name_H-M "I -4 "
_symmetry_group_IT_number 82
_symmetry_cell_setting 'tetragonal'
loop_
_space_group_symop_operation_xyz
x,y,z
y,-x,-z
-x,-y,z
-y,x,-z
1/2+x,1/2+y,1/2+z
1/2+y,1/2-x,1/2-z
1/2-x,1/2-y,1/2+z
1/2-y,1/2+x,1/2-z
loop_
_atom_site_type_symbol
_atom_site_label
_atom_site_fract_x
_atom_site_fract_y
_atom_site_fract_z
Si Si1 0.000000 0.500000 0.250000
Si Si2 0.346544 0.769377 0.386536
Si Si3 0.855192 0.062557 0.253897
Si Si4 0.762146 0.516126 0.404906
O O1 0.127687 0.536748 0.321480
O O2 0.216197 0.858817 0.352969
O O3 0.444841 0.749486 0.283711
O O4 0.316896 0.620427 0.435562
O O5 0.419733 0.836119 0.490322
O O6 0.876944 0.163053 0.153855
O O7 0.000000 0.000000 0.293475
#
# Coordination Sequence:
#
# PCOD8302477 Si02
#       4
#     2   8   8   8
#     4  12  24  40  68  98 136 172 220 280 332 394
#     4  11  22  43  71  96 134 179 225 271 334 399
#     4  10  23  40  69 102 136 169 223 285 325 391
#     4  11  22  41  70  97 128 181 224 267 333 401
#
# _framework density 21.540289000000001
#
# number of rings (size 3 to 8) (size 9 to 14) (size 15 to 20)
#    0.000    1.231    6.154    0.000    0.000    3.077 
#    0.000    0.000    6.769    0.000    0.000    0.000 
#    0.000    0.000    0.000    0.000    0.000    0.000 
#
# Total GULP energy -161180.413962 kJ/mol
# GULP energy per Si atom -12398.493382 kJ/mol
# Density = 2.149126 g / cm^3
# Si number density = 21.540289 Si / 1000 Ang^3
#
#
#
# Elastic Constant Matrix: (Units=GPa)
#
#
# Indices 1 2 3 4 5 6 
#
# 1 71.8473 22.5820 40.6068 0.0000 0.0000 -4.5360
# 2 22.5820 71.8473 40.6068 0.0000 0.0000 4.5360
# 3 40.6068 40.6068 112.8222 0.0000 0.0000 0.0000
# 4 0.0000 0.0000 0.0000 23.1120 0.0000 0.0000
# 5 0.0000 0.0000 0.0000 0.0000 23.1120 0.0000
# 6 -4.5360 4.5360 0.0000 0.0000 0.0000 45.1999
#
#
#
# Elastic Compliance Matrix: (Units=1/GPa)
#
#
# Indices 1 2 3 4 5 6 
#
# 1 0.018009 -0.002671 -0.005520 0.000000 0.000000 0.002075
# 2 -0.002671 0.018009 -0.005520 0.000000 0.000000 -0.002075
# 3 -0.005520 -0.005520 0.012837 0.000000 0.000000 0.000000
# 4 0.000000 0.000000 0.000000 0.043268 0.000000 0.000000
# 5 0.000000 0.000000 0.000000 0.000000 0.043268 0.000000
# 6 0.002075 -0.002075 0.000000 0.000000 0.000000 0.022540
#
#
# Mechanical properties :
#
#
# Convention : Reuss Voigt Hill
#
# Bulk Modulus (GPa) = 46.66068 51.56754 49.11411
# Shear Modulus (GPa) = 25.97421 28.46620 27.22021
#
# Velocity S-wave (km/s) = 3.47629 3.63923 3.55870
# Velocity P-wave (km/s) = 6.14995 6.45374 6.30367
#
# Compressibility (1/GPa) = 0.02143132
#
# Stress axis : x y z
#
# Youngs Moduli (GPa) = 55.52764 55.52764 77.89844
#
# Poissons Ratio (x) = 0.14834 0.43002
# Poissons Ratio (y) = 0.14834 0.43002
# Poissons Ratio (z) = 0.30653 0.30653
#
# Static dielectric constant tensor:
#      x y z
#    x 3.903380 0.000000 0.000000 
#    y 0.000000 3.903380 0.000000 
#    z 0.000000 0.000000 3.595870 
# 
# 
# High freq. dielectric constant tensor:
#      x y z
#    x 1.841230 0.000000 0.000000 
#    y 0.000000 1.841230 0.000000 
#    z 0.000000 0.000000 1.835980 
# 
# From -- ./inp_files/605.got.cif
#   From: 2010.03.12/outbox.cif.g09.slc.cpg/sg82_1_cif.got.tgz:605.got - 2010.04.08 20:02:50.
