data_PCOD8302283
_publ_section_title
;
Structure prediction by ZEFSAII (Michael W. Deem and Ramdas Pophale) SiO2 
 PCOD8302283
Probable space group: P -4
;
_chemical_formula_sum "Si O2"
_cell_formula_units_Z 18
_cell_length_a 5.412958
_cell_length_b 5.412958
_cell_length_c 23.781868
_cell_angle_alpha 90.000000
_cell_angle_beta 90.000000
_cell_angle_gamma 90.000000
_cell_volume 696.811451
_symmetry_space_group_name_H-M "P -4"
_symmetry_group_IT_number 81
_symmetry_cell_setting 'tetragonal'
loop_
_space_group_symop_operation_xyz
x,y,z
y,-x,-z
-x,-y,z
-y,x,-z
loop_
_atom_site_type_symbol
_atom_site_label
_atom_site_fract_x
_atom_site_fract_y
_atom_site_fract_z
Si Si1 0.500000 0.500000 0.000000
Si Si2 0.850413 0.247199 0.794672
Si Si3 0.500000 0.500000 0.500000
Si Si4 0.748979 0.631381 0.322086
Si Si5 0.750147 0.871395 0.430442
Si Si6 0.844679 0.247695 0.920201
O O1 0.277751 0.386625 0.037726
O O2 0.652667 0.261430 0.745482
O O3 0.733591 0.221671 0.857101
O O4 0.000000 0.500000 0.791615
O O5 0.000000 0.000000 0.781436
O O6 0.722291 0.601579 0.459454
O O7 0.500000 0.500000 0.341717
O O8 0.756067 0.872657 0.361547
O O9 0.000000 0.500000 0.339632
O O10 0.500000 0.000000 0.450694
O O11 0.000000 0.000000 0.452824
O O12 0.000000 0.500000 0.924831
O O13 0.000000 0.000000 0.935953
#
# Coordination Sequence:
#
# PCOD8302283 Si02
#       6
#     1   4   1   4   4   4
#     4  12  28  44  78 104 152 212 256 334 392 484
#     4  10  21  44  70 103 145 193 251 319 398 479
#     4  12  32  52  74 120 152 204 276 326 396 484
#     4  12  24  43  73 111 152 193 256 325 398 486
#     4  12  29  51  81 111 157 209 263 330 405 477
#     4  10  26  47  73 110 151 201 265 326 401 481
#
# _framework density 25.831948000000001
#
# number of rings (size 3 to 8) (size 9 to 14) (size 15 to 20)
#    0.000    0.889    1.111    4.000    7.778    0.000 
#    0.000    0.000    0.000    0.000    0.000    0.000 
#    0.000    0.000    0.000    0.000    0.000    0.000 
#
# Total GULP energy -223015.621124 kJ/mol
# GULP energy per Si atom -12389.756729 kJ/mol
# Density = 2.577315 g / cm^3
# Si number density = 25.831948 Si / 1000 Ang^3
#
#
#
# Elastic Constant Matrix: (Units=GPa)
#
#
# Indices 1 2 3 4 5 6 
#
# 1 162.4037 56.3190 45.0907 0.0000 0.0000 3.4620
# 2 56.3190 162.4037 45.0907 0.0000 0.0000 -3.4620
# 3 45.0907 45.0907 167.1966 0.0000 0.0000 0.0000
# 4 0.0000 0.0000 0.0000 16.7420 0.0000 0.0000
# 5 0.0000 0.0000 0.0000 0.0000 16.7420 0.0000
# 6 3.4620 -3.4620 0.0000 0.0000 0.0000 46.0484
#
#
#
# Elastic Compliance Matrix: (Units=1/GPa)
#
#
# Indices 1 2 3 4 5 6 
#
# 1 0.007308 -0.002164 -0.001387 0.000000 0.000000 -0.000712
# 2 -0.002164 0.007308 -0.001387 0.000000 0.000000 0.000712
# 3 -0.001387 -0.001387 0.006729 0.000000 0.000000 0.000000
# 4 0.000000 0.000000 0.000000 0.059730 0.000000 0.000000
# 5 0.000000 0.000000 0.000000 0.000000 0.059730 0.000000
# 6 -0.000712 0.000712 0.000000 0.000000 0.000000 0.021823
#
#
# Mechanical properties :
#
#
# Convention : Reuss Voigt Hill
#
# Bulk Modulus (GPa) = 87.19808 87.22277 87.21043
# Shear Modulus (GPa) = 28.35583 38.94002 33.64792
#
# Velocity S-wave (km/s) = 3.31676 3.88678 3.61303
# Velocity P-wave (km/s) = 6.96398 7.34721 7.15816
#
# Compressibility (1/GPa) = 0.01146814
#
# Stress axis : x y z
#
# Youngs Moduli (GPa) = 136.82797 136.82797 148.60521
#
# Poissons Ratio (x) = 0.29616 0.20615
# Poissons Ratio (y) = 0.29616 0.20615
# Poissons Ratio (z) = 0.18982 0.18982
#
# Static dielectric constant tensor:
#      x y z
#    x 4.603080 0.000000 0.000000 
#    y 0.000000 4.603080 0.000000 
#    z 0.000000 0.000000 5.054550 
# 
# 
# High freq. dielectric constant tensor:
#      x y z
#    x 2.025180 0.000000 0.000000 
#    y 0.000000 2.025180 0.000000 
#    z 0.000000 0.000000 2.067370 
# 
# From -- ./inp_files/1887.got.cif
#   From: 2010.03.12/outbox.cif.g09.slc.cpg/sg81_cif.got.tgz:1887.got - 2010.04.08 20:01:38.
