data_PCOD8302748
_publ_section_title
;
Structure prediction by ZEFSAII (Michael W. Deem and Ramdas Pophale) SiO2 
 PCOD8302748
Probable space group: P 4/M
;
_chemical_formula_sum "Si O2"
_cell_formula_units_Z 52
_cell_length_a 17.916017
_cell_length_b 17.916017
_cell_length_c 9.319178
_cell_angle_alpha 90.000000
_cell_angle_beta 90.000000
_cell_angle_gamma 90.000000
_cell_volume 2991.303911
_symmetry_space_group_name_H-M "P 4/M"
_symmetry_group_IT_number 83
_symmetry_cell_setting 'tetragonal'
loop_
_space_group_symop_operation_xyz
x,y,z
-y,x,z
-x,-y,z
y,-x,z
-x,-y,-z
y,-x,-z
x,y,-z
-y,x,-z
loop_
_atom_site_type_symbol
_atom_site_label
_atom_site_fract_x
_atom_site_fract_y
_atom_site_fract_z
Si Si1 0.506785 0.382796 0.329390
Si Si2 0.513355 0.216135 0.670301
Si Si3 0.888059 0.612725 0.842230
Si Si4 0.615257 0.891056 0.659063
Si Si5 0.006726 0.877964 0.335342
Si Si6 0.000000 0.500000 0.247405
Si Si7 0.274798 0.013861 0.829810
O O1 0.577833 0.430631 0.275362
O O2 0.506153 0.379791 0.500000
O O3 0.511832 0.299677 0.266898
O O4 0.521950 0.212374 0.500000
O O5 0.588020 0.177176 0.733632
O O6 0.433999 0.179087 0.716496
O O7 0.943851 0.542879 0.857432
O O8 0.935835 0.684281 0.787173
O O9 0.854283 0.629101 0.000000
O O10 0.647830 0.874910 0.500000
O O11 0.557822 0.959582 0.647144
O O12 0.682864 0.913380 0.764801
O O13 0.008124 0.850465 0.500000
O O14 0.010802 0.808370 0.229644
O O15 0.077311 0.930763 0.304157
O O16 0.273533 0.024265 0.000000
#
# Coordination Sequence:
#
# PCOD8302748 Si02
#       7
#     8   8   8   8   8   4   8
#     4   8  14  27  48  70  90 115 152 199 243 281
#     4   9  17  28  45  71  97 123 160 201 242 287
#     4   9  17  28  43  65  96 130 159 189 229 277
#     4   9  16  26  42  65  96 129 159 196 237 278
#     4   9  19  37  59  78  94 117 154 199 243 284
#     4   8  14  24  42  64  86 120 168 202 226 270
#     4  10  20  32  48  72 100 130 162 192 227 278
#
# _framework density 17.383724000000001
#
# number of rings (size 3 to 8) (size 9 to 14) (size 15 to 20)
#    0.000    3.077    0.000    1.846    0.000    8.615 
#    0.000    2.308    0.000    4.615    0.000    1.077 
#    0.000    0.000    0.000    0.000    0.000    0.000 
#
# Total GULP energy -644312.821090 kJ/mol
# GULP energy per Si atom -12390.631175 kJ/mol
# Density = 1.734416 g / cm^3
# Si number density = 17.383724 Si / 1000 Ang^3
#
#
#
# Elastic Constant Matrix: (Units=GPa)
#
#
# Indices 1 2 3 4 5 6 
#
# 1 62.4965 -5.6920 14.7530 0.0000 0.0000 0.4198
# 2 -5.6920 62.4965 14.7530 0.0000 0.0000 -0.4198
# 3 14.7530 14.7530 52.0816 0.0000 0.0000 0.0000
# 4 0.0000 0.0000 0.0000 15.4277 0.0000 0.0000
# 5 0.0000 0.0000 0.0000 0.0000 15.4277 0.0000
# 6 0.4198 -0.4198 0.0000 0.0000 0.0000 15.5048
#
#
#
# Elastic Compliance Matrix: (Units=1/GPa)
#
#
# Indices 1 2 3 4 5 6 
#
# 1 0.017656 0.002986 -0.005847 0.000000 0.000000 -0.000397
# 2 0.002986 0.017656 -0.005847 0.000000 0.000000 0.000397
# 3 -0.005847 -0.005847 0.022513 0.000000 0.000000 0.000000
# 4 0.000000 0.000000 0.000000 0.064819 0.000000 0.000000
# 5 0.000000 0.000000 0.000000 0.000000 0.064819 0.000000
# 6 -0.000397 0.000397 0.000000 0.000000 0.000000 0.064518
#
#
# Mechanical properties :
#
#
# Convention : Reuss Voigt Hill
#
# Bulk Modulus (GPa) = 24.74771 24.96698 24.85734
# Shear Modulus (GPa) = 17.67623 19.48939 18.58281
#
# Velocity S-wave (km/s) = 3.19223 3.35196 3.27307
# Velocity P-wave (km/s) = 5.27770 5.41981 5.34923
#
# Compressibility (1/GPa) = 0.04040779
#
# Stress axis : x y z
#
# Youngs Moduli (GPa) = 56.63875 56.63875 44.41844
#
# Poissons Ratio (x) = -0.16910 0.25972
# Poissons Ratio (y) = -0.16910 0.25972
# Poissons Ratio (z) = 0.33117 0.33117
#
# Static dielectric constant tensor:
#      x y z
#    x 3.264630 0.000000 0.000000 
#    y 0.000000 3.264630 0.000000 
#    z 0.000000 0.000000 2.958220 
# 
# 
# High freq. dielectric constant tensor:
#      x y z
#    x 1.658820 0.000000 0.000000 
#    y 0.000000 1.658820 0.000000 
#    z 0.000000 0.000000 1.651270 
# 
# From -- ./inp_files/982.got.cif
#   From: 2010.03.12/outbox.cif.g09.slc.cpg/sg83_1_cif.got.tgz:982.got - 2010.04.08 20:05:18.
