data_PCOD8302008
_publ_section_title
;
Structure prediction by ZEFSAII (Michael W. Deem and Ramdas Pophale) SiO2 
 PCOD8302008
Probable space group: P 43
;
_chemical_formula_sum "Si O2"
_cell_formula_units_Z 32
_cell_length_a 15.105124
_cell_length_b 15.105124
_cell_length_c 7.937309
_cell_angle_alpha 90.000000
_cell_angle_beta 90.000000
_cell_angle_gamma 90.000000
_cell_volume 1811.014291
_symmetry_space_group_name_H-M "P 43"
_symmetry_group_IT_number 78
_symmetry_cell_setting 'tetragonal'
loop_
_space_group_symop_operation_xyz
x,y,z
-y,x,3/4+z
-x,-y,1/2+z
y,-x,1/4+z
loop_
_atom_site_type_symbol
_atom_site_label
_atom_site_fract_x
_atom_site_fract_y
_atom_site_fract_z
Si Si1 0.417993 0.730060 0.757670
Si Si2 0.733743 0.735253 0.763711
Si Si3 0.257740 0.582867 0.256593
Si Si4 0.462311 0.910911 0.743325
Si Si5 0.358363 0.101829 0.405781
Si Si6 0.633301 0.095651 0.903730
Si Si7 0.106758 0.543876 0.012173
Si Si8 0.420690 0.580145 0.017891
O O1 0.334483 0.697531 0.649920
O O2 0.503197 0.730945 0.636981
O O3 0.404065 0.831195 0.824684
O O4 0.431265 0.671641 0.920249
O O5 0.676011 0.728625 0.596917
O O6 0.833246 0.709941 0.699983
O O7 0.722156 0.831173 0.856153
O O8 0.165903 0.586289 0.156922
O O9 0.329335 0.572437 0.112061
O O10 0.442119 0.911250 0.545915
O O11 0.438305 0.005370 0.822828
O O12 0.566285 0.886918 0.763763
O O13 0.405683 0.124395 0.584818
O O14 0.320293 0.001142 0.392770
O O15 0.565381 0.120001 0.747851
O O16 0.500659 0.571723 0.141955
#
# Coordination Sequence:
#
# PCOD8302008 Si02
#       8
#     4   4   4   4   4   4   4   4
#     4  11  21  37  55  76 102 140 181 222 263 317
#     4  11  20  36  54  79 110 142 175 222 272 322
#     4  12  22  36  53  75 106 143 177 222 265 318
#     4   9  18  34  55  76 104 134 172 223 278 314
#     4  10  19  32  57  82 104 141 180 222 274 326
#     4   9  19  35  54  80 108 140 177 227 270 325
#     4  10  19  33  54  80 106 133 175 222 275 319
#     4  12  26  39  50  68 100 149 193 220 247 303
#
# _framework density 17.669657999999998
#
# number of rings (size 3 to 8) (size 9 to 14) (size 15 to 20)
#    0.000    1.500    3.750    3.000    1.750    0.000 
#    0.000    0.000    0.000    0.000    0.000    5.250 
#    0.000    0.000    0.000    0.000    0.000    0.000 
#
# Total GULP energy -396442.284071 kJ/mol
# GULP energy per Si atom -12388.821377 kJ/mol
# Density = 1.762944 g / cm^3
# Si number density = 17.669658 Si / 1000 Ang^3
#
#
#
# Elastic Constant Matrix: (Units=GPa)
#
#
# Indices 1 2 3 4 5 6 
#
# 1 120.1962 53.7923 50.7286 0.0000 0.0000 1.3440
# 2 53.7923 120.1962 50.7286 0.0000 0.0000 -1.3440
# 3 50.7286 50.7286 76.7170 0.0000 0.0000 0.0000
# 4 0.0000 0.0000 0.0000 29.5972 0.0000 0.0000
# 5 0.0000 0.0000 0.0000 0.0000 29.5972 0.0000
# 6 1.3440 -1.3440 0.0000 0.0000 0.0000 27.3436
#
#
#
# Elastic Compliance Matrix: (Units=1/GPa)
#
#
# Indices 1 2 3 4 5 6 
#
# 1 0.012222 -0.002867 -0.006186 0.000000 0.000000 -0.000742
# 2 -0.002867 0.012222 -0.006186 0.000000 0.000000 0.000742
# 3 -0.006186 -0.006186 0.021215 0.000000 0.000000 0.000000
# 4 0.000000 0.000000 0.000000 0.033787 0.000000 0.000000
# 5 0.000000 0.000000 0.000000 0.000000 0.033787 0.000000
# 6 -0.000742 0.000742 0.000000 0.000000 0.000000 0.036645
#
#
# Mechanical properties :
#
#
# Convention : Reuss Voigt Hill
#
# Bulk Modulus (GPa) = 65.86797 69.73427 67.80112
# Shear Modulus (GPa) = 26.96643 28.09823 27.53233
#
# Velocity S-wave (km/s) = 3.91083 3.99205 3.95165
# Velocity P-wave (km/s) = 7.59942 7.79743 7.69906
#
# Compressibility (1/GPa) = 0.01518188
#
# Stress axis : x y z
#
# Youngs Moduli (GPa) = 81.82010 81.82010 47.13585
#
# Poissons Ratio (x) = 0.23461 0.29156
# Poissons Ratio (y) = 0.23461 0.29156
# Poissons Ratio (z) = 0.50611 0.50611
#
# Static dielectric constant tensor:
#      x y z
#    x 3.444870 0.000000 0.000000 
#    y 0.000000 3.444870 0.000000 
#    z 0.000000 0.000000 3.409980 
# 
# 
# High freq. dielectric constant tensor:
#      x y z
#    x 1.671250 0.000000 0.000000 
#    y 0.000000 1.671250 0.000000 
#    z 0.000000 0.000000 1.692320 
# 
# From -- ./inp_files/706.got.cif
#   From: 2010.03.12/outbox.cif.g09.slc.cpg/sg78_cif.got.tgz:706.got - 2010.04.16 16:37:20.
