data_PCOD8302354
_publ_section_title
;
Structure prediction by ZEFSAII (Michael W. Deem and Ramdas Pophale) SiO2 
 PCOD8302354
Probable space group: I -4 
;
_chemical_formula_sum "Si O2"
_cell_formula_units_Z 60
_cell_length_a 11.504138
_cell_length_b 11.504138
_cell_length_c 22.058690
_cell_angle_alpha 90.000000
_cell_angle_beta 90.000000
_cell_angle_gamma 90.000000
_cell_volume 2919.361544
_symmetry_space_group_name_H-M "I -4 "
_symmetry_group_IT_number 82
_symmetry_cell_setting 'tetragonal'
loop_
_space_group_symop_operation_xyz
x,y,z
y,-x,-z
-x,-y,z
-y,x,-z
1/2+x,1/2+y,1/2+z
1/2+y,1/2-x,1/2-z
1/2-x,1/2-y,1/2+z
1/2-y,1/2+x,1/2-z
loop_
_atom_site_type_symbol
_atom_site_label
_atom_site_fract_x
_atom_site_fract_y
_atom_site_fract_z
Si Si1 0.337324 0.074468 0.269659
Si Si2 0.777480 0.598063 0.294806
Si Si3 0.455875 0.316244 0.489638
Si Si4 0.153525 0.114972 0.494445
Si Si5 0.193911 0.281953 0.888086
Si Si6 0.846976 0.674657 0.085005
Si Si7 0.291049 0.651825 0.292881
Si Si8 0.000000 0.500000 0.148803
O O1 0.436992 0.140605 0.231030
O O2 0.337387 0.118401 0.339164
O O3 0.215115 0.095720 0.234691
O O4 0.735240 0.666074 0.354193
O O5 0.696655 0.486295 0.279184
O O6 0.783719 0.680726 0.237212
O O7 0.904756 0.551557 0.307215
O O8 0.364485 0.414500 0.511712
O O9 0.420044 0.258800 0.425409
O O10 0.448691 0.216399 0.539877
O O11 0.206001 0.167521 0.432286
O O12 0.225328 0.160112 0.551681
O O13 0.024100 0.160089 0.506068
O O14 0.829550 0.773890 0.135788
O O15 0.894101 0.552215 0.109712
#
# Coordination Sequence:
#
# PCOD8302354 Si02
#       8
#     8   8   8   8   8   8   8   4
#     4  10  24  44  63  88 122 169 215 256 316 381
#     4  10  19  34  57  90 118 155 198 252 317 356
#     4  10  21  37  57  87 120 157 199 254 317 367
#     4  10  22  39  59  87 122 165 206 256 311 371
#     4  10  22  41  61  86 128 162 207 263 316 377
#     4  10  21  34  57  86 113 153 201 241 308 367
#     4  10  20  35  61  88 118 154 201 255 306 373
#     4  10  18  33  56  82 120 148 191 250 292 370
#
# _framework density 20.552439
#
# number of rings (size 3 to 8) (size 9 to 14) (size 15 to 20)
#    0.000    2.000    0.000    4.000    3.733    2.667 
#    0.000    7.333    0.000    0.000    0.000    0.000 
#    0.000    0.000    0.000    0.000    0.000    0.000 
#
# Total GULP energy -371948.222283 kJ/mol
# GULP energy per Si atom -12398.274076 kJ/mol
# Density = 2.050566 g / cm^3
# Si number density = 20.552439 Si / 1000 Ang^3
#
#
#
# Elastic Constant Matrix: (Units=GPa)
#
#
# Indices 1 2 3 4 5 6 
#
# 1 53.6362 9.7864 5.4610 0.0000 0.0000 2.6518
# 2 9.7864 53.6362 5.4610 0.0000 0.0000 -2.6518
# 3 5.4610 5.4610 88.3644 0.0000 0.0000 0.0000
# 4 0.0000 0.0000 0.0000 22.2671 0.0000 0.0000
# 5 0.0000 0.0000 0.0000 0.0000 22.2671 0.0000
# 6 2.6518 -2.6518 0.0000 0.0000 0.0000 32.8585
#
#
#
# Elastic Compliance Matrix: (Units=1/GPa)
#
#
# Indices 1 2 3 4 5 6 
#
# 1 0.019483 -0.003547 -0.000985 0.000000 0.000000 -0.001859
# 2 -0.003547 0.019483 -0.000985 0.000000 0.000000 0.001859
# 3 -0.000985 -0.000985 0.011439 0.000000 0.000000 0.000000
# 4 0.000000 0.000000 0.000000 0.044909 0.000000 0.000000
# 5 0.000000 0.000000 0.000000 0.000000 0.044909 0.000000
# 6 -0.001859 0.001859 0.000000 0.000000 0.000000 0.030733
#
#
# Mechanical properties :
#
#
# Convention : Reuss Voigt Hill
#
# Bulk Modulus (GPa) = 25.39838 26.33930 25.86884
# Shear Modulus (GPa) = 25.62597 27.14041 26.38319
#
# Velocity S-wave (km/s) = 3.53492 3.63787 3.58676
# Velocity P-wave (km/s) = 5.38939 5.52168 5.45594
#
# Compressibility (1/GPa) = 0.03937258
#
# Stress axis : x y z
#
# Youngs Moduli (GPa) = 51.32574 51.32574 87.42395
#
# Poissons Ratio (x) = 0.18203 0.08611
# Poissons Ratio (y) = 0.18203 0.08611
# Poissons Ratio (z) = 0.05055 0.05055
#
# Static dielectric constant tensor:
#      x y z
#    x 3.840000 0.000000 0.000000 
#    y 0.000000 3.840000 0.000000 
#    z 0.000000 0.000000 3.801640 
# 
# 
# High freq. dielectric constant tensor:
#      x y z
#    x 1.799920 0.000000 0.000000 
#    y 0.000000 1.799920 0.000000 
#    z 0.000000 0.000000 1.813150 
# 
# From -- ./inp_files/3169.got.cif
#   From: 2010.03.12/outbox.cif.g09.slc.cpg/sg82_2_cif.got.tgz:3169.got - 2010.04.08 20:02:50.
