data_PCOD8302890
_publ_section_title
;
Structure prediction by ZEFSAII (Michael W. Deem and Ramdas Pophale) SiO2 
 PCOD8302890
Probable space group: P 4/M
;
_chemical_formula_sum "Si O2"
_cell_formula_units_Z 48
_cell_length_a 10.652875
_cell_length_b 10.652875
_cell_length_c 18.304760
_cell_angle_alpha 90.000000
_cell_angle_beta 90.000000
_cell_angle_gamma 90.000000
_cell_volume 2077.292730
_symmetry_space_group_name_H-M "P 4/M"
_symmetry_group_IT_number 83
_symmetry_cell_setting 'tetragonal'
loop_
_space_group_symop_operation_xyz
x,y,z
-y,x,z
-x,-y,z
y,-x,z
-x,-y,-z
y,-x,-z
x,y,-z
-y,x,-z
loop_
_atom_site_type_symbol
_atom_site_label
_atom_site_fract_x
_atom_site_fract_y
_atom_site_fract_z
Si Si1 0.868015 0.564981 0.584037
Si Si2 0.910467 0.815364 0.337750
Si Si3 0.648399 0.642833 0.082430
Si Si4 0.325500 0.849881 0.807119
Si Si5 0.508447 0.293544 0.286412
Si Si6 0.793720 0.005892 0.918042
O O1 0.831758 0.546754 0.500000
O O2 0.869426 0.712194 0.603210
O O3 0.758904 0.498942 0.631436
O O4 0.000000 0.500000 0.602986
O O5 0.875221 0.774761 0.256171
O O6 0.057818 0.834371 0.350891
O O7 0.504138 0.674364 0.095354
O O8 0.731847 0.715862 0.141488
O O9 0.687956 0.681293 0.000000
O O10 0.462533 0.822321 0.769533
O O11 0.321673 0.972977 0.860591
O O12 0.630572 0.382116 0.272176
O O13 0.882226 0.126777 0.903926
O O14 0.738995 0.005719 0.000000
#
# Coordination Sequence:
#
# PCOD8302890 Si02
#       6
#     8   8   8   8   8   8
#     4  10  24  43  69 100 130 159 201 258 312 366
#     4  10  23  42  63  91 128 169 212 254 308 379
#     4   9  18  33  53  79 114 159 215 276 332 384
#     4  11  19  31  57  87 115 159 212 267 313 362
#     4  10  23  42  63  91 128 169 212 254 308 379
#     4   9  18  33  53  79 114 159 215 276 332 384
#
# _framework density 23.106998999999998
#
# number of rings (size 3 to 8) (size 9 to 14) (size 15 to 20)
#    0.000    2.167    0.000    3.500    4.667    4.000 
#    0.000    1.667    0.000    0.000    0.000    9.333 
#    0.000    0.000    0.000    0.000    0.000    0.000 
#
# Total GULP energy -594779.869600 kJ/mol
# GULP energy per Si atom -12391.247283 kJ/mol
# Density = 2.305441 g / cm^3
# Si number density = 23.106999 Si / 1000 Ang^3
#
#
#
# Elastic Constant Matrix: (Units=GPa)
#
#
# Indices 1 2 3 4 5 6 
#
# 1 55.9510 8.2150 17.8949 0.0000 0.0000 -0.9253
# 2 8.2150 55.9510 17.8949 0.0000 0.0000 0.9253
# 3 17.8949 17.8949 101.6114 0.0000 0.0000 0.0000
# 4 0.0000 0.0000 0.0000 28.5723 0.0000 0.0000
# 5 0.0000 0.0000 0.0000 0.0000 28.5723 0.0000
# 6 -0.9253 0.9253 0.0000 0.0000 0.0000 37.8142
#
#
#
# Elastic Compliance Matrix: (Units=1/GPa)
#
#
# Indices 1 2 3 4 5 6 
#
# 1 0.019125 -0.001843 -0.003044 0.000000 0.000000 0.000513
# 2 -0.001843 0.019125 -0.003044 0.000000 0.000000 -0.000513
# 3 -0.003044 -0.003044 0.010913 0.000000 0.000000 0.000000
# 4 0.000000 0.000000 0.000000 0.034999 0.000000 0.000000
# 5 0.000000 0.000000 0.000000 0.000000 0.034999 0.000000
# 6 0.000513 -0.000513 0.000000 0.000000 0.000000 0.026470
#
#
# Mechanical properties :
#
#
# Convention : Reuss Voigt Hill
#
# Bulk Modulus (GPa) = 30.02692 33.50257 31.76475
# Shear Modulus (GPa) = 28.96974 30.29234 29.63104
#
# Velocity S-wave (km/s) = 3.54463 3.62465 3.58486
# Velocity P-wave (km/s) = 5.45669 5.66107 5.55982
#
# Compressibility (1/GPa) = 0.03330345
#
# Stress axis : x y z
#
# Youngs Moduli (GPa) = 52.28672 52.28672 91.63014
#
# Poissons Ratio (x) = 0.09637 0.27888
# Poissons Ratio (y) = 0.09637 0.27888
# Poissons Ratio (z) = 0.15914 0.15914
#
# Static dielectric constant tensor:
#      x y z
#    x 4.066270 0.000000 0.000000 
#    y 0.000000 4.066270 0.000000 
#    z 0.000000 0.000000 4.305210 
# 
# 
# High freq. dielectric constant tensor:
#      x y z
#    x 1.899860 0.000000 0.000000 
#    y 0.000000 1.899860 0.000000 
#    z 0.000000 0.000000 1.924100 
# 
# From -- ./inp_files/2642.got.cif
#   From: 2010.03.12/outbox.cif.g09.slc.cpg/sg83_2_cif.got.tgz:2642.got - 2010.04.08 20:05:18.
