data_PCOD8302832
_publ_section_title
;
Structure prediction by ZEFSAII (Michael W. Deem and Ramdas Pophale) SiO2 
 PCOD8302832
Probable space group: P 4/M
;
_chemical_formula_sum "Si O2"
_cell_formula_units_Z 48
_cell_length_a 13.395907
_cell_length_b 13.395907
_cell_length_c 12.778719
_cell_angle_alpha 90.000000
_cell_angle_beta 90.000000
_cell_angle_gamma 90.000000
_cell_volume 2293.145269
_symmetry_space_group_name_H-M "P 4/M"
_symmetry_group_IT_number 83
_symmetry_cell_setting 'tetragonal'
loop_
_space_group_symop_operation_xyz
x,y,z
-y,x,z
-x,-y,z
y,-x,z
-x,-y,-z
y,-x,-z
x,y,-z
-y,x,-z
loop_
_atom_site_type_symbol
_atom_site_label
_atom_site_fract_x
_atom_site_fract_y
_atom_site_fract_z
Si Si1 0.627994 0.403095 0.121830
Si Si2 0.539779 0.103035 0.305894
Si Si3 0.989385 0.646188 0.880936
Si Si4 0.154357 0.247187 0.379580
Si Si5 0.190990 0.655995 0.750043
Si Si6 0.043043 0.156508 0.202996
O O1 0.637798 0.519272 0.152540
O O2 0.708456 0.338026 0.182770
O O3 0.647331 0.388879 0.000000
O O4 0.632785 0.149603 0.367827
O O5 0.450417 0.183575 0.309433
O O6 0.500000 0.000000 0.359220
O O7 0.567242 0.077416 0.183856
O O8 0.095102 0.665730 0.824645
O O9 0.933695 0.753981 0.878222
O O10 0.000558 0.608409 0.000000
O O11 0.148163 0.217293 0.500000
O O12 0.254983 0.198753 0.333047
O O13 0.058503 0.199560 0.320698
O O14 0.931039 0.120913 0.183839
#
# Coordination Sequence:
#
# PCOD8302832 Si02
#       6
#     8   8   8   8   8   8
#     4   9  18  32  53  83 116 152 192 235 293 360
#     4   9  22  41  61  88 127 164 203 260 315 377
#     4  10  21  38  62  91 123 162 202 242 300 375
#     4  11  24  41  63  91 118 157 214 265 314 374
#     4  11  20  38  59  86 122 157 201 255 306 362
#     4  10  21  42  61  85 124 156 202 253 307 370
#
# _framework density 20.931948999999999
#
# number of rings (size 3 to 8) (size 9 to 14) (size 15 to 20)
#    0.000    2.000    1.667    2.000    0.000    6.000 
#    0.000    4.167    0.000    0.000    0.000    3.500 
#    0.000    0.000    0.000    0.000    0.000    0.000 
#
# Total GULP energy -595047.287974 kJ/mol
# GULP energy per Si atom -12396.818499 kJ/mol
# Density = 2.088431 g / cm^3
# Si number density = 20.931949 Si / 1000 Ang^3
#
#
#
# Elastic Constant Matrix: (Units=GPa)
#
#
# Indices 1 2 3 4 5 6 
#
# 1 70.5026 8.4499 2.6096 0.0000 0.0000 -1.1786
# 2 8.4499 70.5026 2.6096 0.0000 0.0000 1.1786
# 3 2.6096 2.6096 66.4916 0.0000 0.0000 0.0000
# 4 0.0000 0.0000 0.0000 17.6739 0.0000 0.0000
# 5 0.0000 0.0000 0.0000 0.0000 17.6739 0.0000
# 6 -1.1786 1.1786 0.0000 0.0000 0.0000 30.5542
#
#
#
# Elastic Compliance Matrix: (Units=1/GPa)
#
#
# Indices 1 2 3 4 5 6 
#
# 1 0.014419 -0.001720 -0.000498 0.000000 0.000000 0.000623
# 2 -0.001720 0.014419 -0.000498 0.000000 0.000000 -0.000623
# 3 -0.000498 -0.000498 0.015079 0.000000 0.000000 0.000000
# 4 0.000000 0.000000 0.000000 0.056580 0.000000 0.000000
# 5 0.000000 0.000000 0.000000 0.000000 0.056580 0.000000
# 6 0.000623 -0.000623 0.000000 0.000000 0.000000 0.032777
#
#
# Mechanical properties :
#
#
# Convention : Reuss Voigt Hill
#
# Bulk Modulus (GPa) = 25.98575 26.09278 26.03926
# Shear Modulus (GPa) = 24.02513 26.10225 25.06369
#
# Velocity S-wave (km/s) = 3.39156 3.53513 3.46409
# Velocity P-wave (km/s) = 5.27050 5.39958 5.33543
#
# Compressibility (1/GPa) = 0.03848263
#
# Stress axis : x y z
#
# Youngs Moduli (GPa) = 69.35345 69.35345 66.31906
#
# Poissons Ratio (x) = 0.11929 0.03305
# Poissons Ratio (y) = 0.11929 0.03305
# Poissons Ratio (z) = 0.03457 0.03457
#
# Static dielectric constant tensor:
#      x y z
#    x 3.915620 0.000000 0.000000 
#    y 0.000000 3.915620 0.000000 
#    z 0.000000 0.000000 3.347380 
# 
# 
# High freq. dielectric constant tensor:
#      x y z
#    x 1.831160 0.000000 0.000000 
#    y 0.000000 1.831160 0.000000 
#    z 0.000000 0.000000 1.780010 
# 
# From -- ./inp_files/1824.got.cif
#   From: 2010.03.12/outbox.cif.g09.slc.cpg/sg83_1_cif.got.tgz:1824.got - 2010.04.08 20:05:18.
