data_PCOD8302637
_publ_section_title
;
Structure prediction by ZEFSAII (Michael W. Deem and Ramdas Pophale) SiO2 
 PCOD8302637
Probable space group: P 4/M
;
_chemical_formula_sum "Si O2"
_cell_formula_units_Z 52
_cell_length_a 18.290654
_cell_length_b 18.290654
_cell_length_c 8.146512
_cell_angle_alpha 90.000000
_cell_angle_beta 90.000000
_cell_angle_gamma 90.000000
_cell_volume 2725.399490
_symmetry_space_group_name_H-M "P 4/M"
_symmetry_group_IT_number 83
_symmetry_cell_setting 'tetragonal'
loop_
_space_group_symop_operation_xyz
x,y,z
-y,x,z
-x,-y,z
y,-x,z
-x,-y,-z
y,-x,-z
x,y,-z
-y,x,-z
loop_
_atom_site_type_symbol
_atom_site_label
_atom_site_fract_x
_atom_site_fract_y
_atom_site_fract_z
Si Si1 0.632538 0.855271 0.808068
Si Si2 0.625524 0.162986 0.310966
Si Si3 0.251943 0.251139 0.820374
Si Si4 0.994548 0.584202 0.693798
Si Si5 0.395478 0.442758 0.500000
Si Si6 0.489141 0.249038 0.691783
Si Si7 0.637959 0.383070 0.821208
O O1 0.713912 0.825345 0.753115
O O2 0.630979 0.941650 0.778478
O O3 0.569060 0.817318 0.700431
O O4 0.620539 0.836774 0.000000
O O5 0.604128 0.157751 0.500000
O O6 0.709053 0.190926 0.290550
O O7 0.565782 0.218666 0.230585
O O8 0.616903 0.081742 0.237042
O O9 0.322769 0.300936 0.831532
O O10 0.216343 0.240593 0.000000
O O11 0.002008 0.593260 0.500000
O O12 0.000000 0.500000 0.747773
O O13 0.471947 0.402542 0.500000
O O14 0.358189 0.416590 0.672352
O O15 0.500880 0.272814 0.500000
O O16 0.459982 0.320477 0.786949
O O17 0.597944 0.390223 0.000000
#
# Coordination Sequence:
#
# PCOD8302637 Si02
#       7
#     8   8   8   8   4   8   8
#     4  10  20  34  50  73 105 144 182 214 264 326
#     4  10  21  32  52  80 104 134 178 220 263 322
#     4   9  21  36  50  74 105 134 172 220 263 312
#     4  10  19  35  52  75 109 141 174 218 270 324
#     4  11  26  42  54  70  92 125 173 225 283 339
#     4  10  18  32  52  75 103 137 172 217 267 321
#     4  10  22  38  56  76  97 129 174 222 274 333
#
# _framework density 19.079771999999998
#
# number of rings (size 3 to 8) (size 9 to 14) (size 15 to 20)
#    0.000    2.077    2.308    1.846    3.231    4.000 
#    0.000    0.769    0.000    0.000    0.000    0.000 
#    0.000    0.615    0.000    6.769    0.000    4.923 
#
# Total GULP energy -644433.713803 kJ/mol
# GULP energy per Si atom -12392.956035 kJ/mol
# Density = 1.903635 g / cm^3
# Si number density = 19.079772 Si / 1000 Ang^3
#
#
#
# Elastic Constant Matrix: (Units=GPa)
#
#
# Indices 1 2 3 4 5 6 
#
# 1 88.9008 20.0821 13.6919 0.0000 0.0000 1.3483
# 2 20.0821 88.9008 13.6919 0.0000 0.0000 -1.3483
# 3 13.6919 13.6919 77.4757 0.0000 0.0000 0.0000
# 4 0.0000 0.0000 0.0000 22.8636 0.0000 0.0000
# 5 0.0000 0.0000 0.0000 0.0000 22.8636 0.0000
# 6 1.3483 -1.3483 0.0000 0.0000 0.0000 28.4409
#
#
#
# Elastic Compliance Matrix: (Units=1/GPa)
#
#
# Indices 1 2 3 4 5 6 
#
# 1 0.012080 -0.002478 -0.001697 0.000000 0.000000 -0.000690
# 2 -0.002478 0.012080 -0.001697 0.000000 0.000000 0.000690
# 3 -0.001697 -0.001697 0.013507 0.000000 0.000000 0.000000
# 4 0.000000 0.000000 0.000000 0.043738 0.000000 0.000000
# 5 0.000000 0.000000 0.000000 0.000000 0.043738 0.000000
# 6 -0.000690 0.000690 0.000000 0.000000 0.000000 0.035226
#
#
# Mechanical properties :
#
#
# Convention : Reuss Voigt Hill
#
# Bulk Modulus (GPa) = 38.57493 38.91212 38.74353
# Shear Modulus (GPa) = 27.66203 28.68773 28.17488
#
# Velocity S-wave (km/s) = 3.81177 3.88179 3.84694
# Velocity P-wave (km/s) = 6.29558 6.36630 6.33104
#
# Compressibility (1/GPa) = 0.02592357
#
# Stress axis : x y z
#
# Youngs Moduli (GPa) = 82.78114 82.78114 74.03539
#
# Poissons Ratio (x) = 0.20512 0.12563
# Poissons Ratio (y) = 0.20512 0.12563
# Poissons Ratio (z) = 0.14047 0.14047
#
# Static dielectric constant tensor:
#      x y z
#    x 3.509420 0.000000 0.000000 
#    y 0.000000 3.509420 0.000000 
#    z 0.000000 0.000000 3.707280 
# 
# 
# High freq. dielectric constant tensor:
#      x y z
#    x 1.718770 0.000000 0.000000 
#    y 0.000000 1.718770 0.000000 
#    z 0.000000 0.000000 1.739340 
# 
# From -- ./inp_files/986.got.cif
#   From: 2010.03.12/outbox.cif.g09.slc.cpg/sg83_1_cif.got.tgz:986.got - 2010.04.08 20:05:18.
