data_PCOD8302136
_publ_section_title
;
Structure prediction by ZEFSAII (Michael W. Deem and Ramdas Pophale) SiO2 
 PCOD8302136
Probable space group: I 4
;
_chemical_formula_sum "Si O2"
_cell_formula_units_Z 48
_cell_length_a 11.615425
_cell_length_b 11.615425
_cell_length_c 15.624187
_cell_angle_alpha 90.000000
_cell_angle_beta 90.000000
_cell_angle_gamma 90.000000
_cell_volume 2107.985592
_symmetry_space_group_name_H-M "I 4"
_symmetry_group_IT_number 79
_symmetry_cell_setting 'tetragonal'
loop_
_space_group_symop_operation_xyz
x,y,z
-y,x,z
-x,-y,z
y,-x,z
1/2+x,1/2+y,1/2+z
1/2-y,1/2+x,1/2+z
1/2-x,1/2-y,1/2+z
1/2+y,1/2-x,1/2+z
loop_
_atom_site_type_symbol
_atom_site_label
_atom_site_fract_x
_atom_site_fract_y
_atom_site_fract_z
Si Si1 0.067960 0.177342 0.540720
Si Si2 0.434166 0.325738 0.843881
Si Si3 0.322658 0.432040 0.224194
Si Si4 0.325738 0.434166 0.421033
Si Si5 0.379499 0.212285 0.676099
Si Si6 0.379499 0.787715 0.588814
O O1 0.081702 0.211790 0.441773
O O2 0.109578 0.286572 0.596703
O O3 0.935031 0.147263 0.562623
O O4 0.565785 0.354072 0.825390
O O5 0.397744 0.227821 0.777770
O O6 0.435031 0.352737 0.202291
O O7 0.288210 0.418298 0.323141
O O8 0.213428 0.390422 0.168210
O O9 0.434215 0.354072 0.439524
O O10 0.227821 0.397744 0.487144
O O11 0.328665 0.328665 0.632457
O O12 0.500000 0.176989 0.632457
#
# Coordination Sequence:
#
# PCOD8302136 Si02
#       6
#     8   8   8   8   8   8
#     4   9  21  43  68  92 122 182 242 280 323 406
#     4   9  17  35  65  94 129 176 232 274 329 406
#     4   9  21  43  68  92 122 182 242 280 323 406
#     4   9  17  35  65  94 129 176 232 274 329 406
#     4  12  23  36  62  98 141 176 210 284 354 408
#     4  12  23  36  62  98 141 176 210 284 354 408
#
# _framework density 22.770555000000002
#
# number of rings (size 3 to 8) (size 9 to 14) (size 15 to 20)
#    0.000    2.000    3.333    3.000    0.000    1.667 
#    0.000    5.000    0.000    0.000    0.000    0.000 
#    0.000    0.000    0.000    0.000    0.000    0.000 
#
# Total GULP energy -297518.764172 kJ/mol
# GULP energy per Si atom -12396.615174 kJ/mol
# Density = 2.271873 g / cm^3
# Si number density = 22.770555 Si / 1000 Ang^3
#
#
#
# Elastic Constant Matrix: (Units=GPa)
#
#
# Indices 1 2 3 4 5 6 
#
# 1 124.9687 69.7733 76.3661 0.0000 0.0000 0.0000
# 2 69.7733 124.9687 76.3661 0.0000 0.0000 0.0000
# 3 76.3661 76.3661 127.7985 0.0000 0.0000 0.0000
# 4 0.0000 0.0000 0.0000 35.4300 0.0000 0.0000
# 5 0.0000 0.0000 0.0000 0.0000 35.4301 0.0000
# 6 0.0000 0.0000 0.0000 0.0000 0.0000 34.8191
#
#
#
# Elastic Compliance Matrix: (Units=1/GPa)
#
#
# Indices 1 2 3 4 5 6 
#
# 1 0.013891 -0.004227 -0.005775 0.000000 0.000000 0.000000
# 2 -0.004227 0.013891 -0.005775 0.000000 0.000000 0.000000
# 3 -0.005775 -0.005775 0.014726 0.000000 0.000000 0.000000
# 4 0.000000 0.000000 0.000000 0.028225 0.000000 0.000000
# 5 0.000000 0.000000 0.000000 0.000000 0.028225 0.000000
# 6 0.000000 0.000000 0.000000 0.000000 0.000000 0.028720
#
#
# Mechanical properties :
#
#
# Convention : Reuss Voigt Hill
#
# Bulk Modulus (GPa) = 91.28014 91.41632 91.34823
# Shear Modulus (GPa) = 30.69726 31.48452 31.09089
#
# Velocity S-wave (km/s) = 3.67565 3.72248 3.69914
# Velocity P-wave (km/s) = 7.62809 7.66223 7.64518
#
# Compressibility (1/GPa) = 0.01095529
#
# Stress axis : x y z
#
# Youngs Moduli (GPa) = 71.99048 71.99048 67.90614
#
# Poissons Ratio (x) = 0.30428 0.39214
# Poissons Ratio (y) = 0.30428 0.39214
# Poissons Ratio (z) = 0.41573 0.41573
#
# Static dielectric constant tensor:
#      x y z
#    x 3.818380 0.000000 0.000000 
#    y 0.000000 3.818380 0.000000 
#    z 0.000000 0.000000 4.485610 
# 
# 
# High freq. dielectric constant tensor:
#      x y z
#    x 1.881740 0.000000 0.000000 
#    y 0.000000 1.881740 0.000000 
#    z 0.000000 0.000000 1.938580 
# 
# From -- ./inp_files/1567.got.cif
#   From: 2010.03.12/outbox.cif.g09.slc.cpg/sg79_cif.got.tgz:1567.got - 2010.04.16 16:38:49.
