data_PCOD8302065
_publ_section_title
;
Structure prediction by ZEFSAII (Michael W. Deem and Ramdas Pophale) SiO2 
 PCOD8302065
Probable space group: P 43
;
_chemical_formula_sum "Si O2"
_cell_formula_units_Z 32
_cell_length_a 8.455065
_cell_length_b 8.455065
_cell_length_c 18.718208
_cell_angle_alpha 90.000000
_cell_angle_beta 90.000000
_cell_angle_gamma 90.000000
_cell_volume 1338.129577
_symmetry_space_group_name_H-M "P 43"
_symmetry_group_IT_number 78
_symmetry_cell_setting 'tetragonal'
loop_
_space_group_symop_operation_xyz
x,y,z
-y,x,3/4+z
-x,-y,1/2+z
y,-x,1/4+z
loop_
_atom_site_type_symbol
_atom_site_label
_atom_site_fract_x
_atom_site_fract_y
_atom_site_fract_z
Si Si1 0.838167 0.598531 0.947830
Si Si2 0.013722 0.965913 0.470512
Si Si3 0.494787 0.549523 0.006400
Si Si4 0.857311 0.709581 0.227669
Si Si5 0.038035 0.335318 0.879847
Si Si6 0.389082 0.353095 0.889894
Si Si7 0.104266 0.791206 0.609882
Si Si8 0.559159 0.002903 0.339464
O O1 0.667867 0.602813 0.984985
O O2 0.827713 0.714284 0.879748
O O3 0.892744 0.431952 0.913799
O O4 0.958233 0.643754 0.013400
O O5 0.898721 0.120486 0.466664
O O6 0.940044 0.829811 0.421001
O O7 0.047394 0.917530 0.551428
O O8 0.181089 0.010183 0.433989
O O9 0.457776 0.381894 0.968575
O O10 0.354515 0.681539 0.994531
O O11 0.483071 0.517370 0.091031
O O12 0.900486 0.626435 0.154710
O O13 0.980502 0.676889 0.293584
O O14 0.208597 0.413626 0.892206
O O15 0.421375 0.180326 0.858471
O O16 0.062449 0.620399 0.579157
#
# Coordination Sequence:
#
# PCOD8302065 Si02
#       8
#     4   4   4   4   4   4   4   4
#     4  12  28  48  76 111 160 199 256 337 373 483
#     4  12  26  48  73 109 153 194 262 309 393 461
#     4  11  26  46  73 108 147 198 256 306 397 441
#     4  11  25  48  73 106 150 198 254 317 380 476
#     4  11  25  47  71 109 149 197 245 313 391 457
#     4  11  26  44  77 106 147 204 245 317 381 473
#     4  12  30  46  77 114 147 211 254 323 391 462
#     4  12  26  49  74 109 157 197 264 312 394 459
#
# _framework density 23.913978
#
# number of rings (size 3 to 8) (size 9 to 14) (size 15 to 20)
#    0.000    0.500    5.000    1.500   10.500    1.000 
#    0.000    0.000    0.000    0.000    0.000    0.000 
#    0.000    0.000    0.000    0.000    0.000    0.000 
#
# Total GULP energy -396457.152235 kJ/mol
# GULP energy per Si atom -12389.286007 kJ/mol
# Density = 2.385955 g / cm^3
# Si number density = 23.913978 Si / 1000 Ang^3
#
#
#
# Elastic Constant Matrix: (Units=GPa)
#
#
# Indices 1 2 3 4 5 6 
#
# 1 74.2088 32.6594 7.3396 0.0000 0.0000 -3.5548
# 2 32.6594 74.2088 7.3396 0.0000 0.0000 3.5548
# 3 7.3396 7.3396 47.4122 0.0000 0.0000 0.0000
# 4 0.0000 0.0000 0.0000 34.7577 0.0000 0.0000
# 5 0.0000 0.0000 0.0000 0.0000 34.7577 0.0000
# 6 -3.5548 3.5548 0.0000 0.0000 0.0000 36.6429
#
#
#
# Elastic Compliance Matrix: (Units=1/GPa)
#
#
# Indices 1 2 3 4 5 6 
#
# 1 0.017017 -0.007457 -0.001480 0.000000 0.000000 0.002374
# 2 -0.007457 0.017017 -0.001480 0.000000 0.000000 -0.002374
# 3 -0.001480 -0.001480 0.021550 0.000000 0.000000 0.000000
# 4 0.000000 0.000000 0.000000 0.028771 0.000000 0.000000
# 5 0.000000 0.000000 0.000000 0.000000 0.028771 0.000000
# 6 0.002374 -0.002374 0.000000 0.000000 0.000000 0.027751
#
#
# Mechanical properties :
#
#
# Convention : Reuss Voigt Hill
#
# Bulk Modulus (GPa) = 28.77615 32.27854 30.52734
# Shear Modulus (GPa) = 28.85272 31.13107 29.99190
#
# Velocity S-wave (km/s) = 3.47727 3.61195 3.54525
# Velocity P-wave (km/s) = 5.30860 5.56076 5.43614
#
# Compressibility (1/GPa) = 0.03475101
#
# Stress axis : x y z
#
# Youngs Moduli (GPa) = 58.76371 58.76371 46.40400
#
# Poissons Ratio (x) = 0.43818 0.06868
# Poissons Ratio (y) = 0.43818 0.06868
# Poissons Ratio (z) = 0.08697 0.08697
#
# Static dielectric constant tensor:
#      x y z
#    x 4.267790 0.000000 0.000000 
#    y 0.000000 4.267790 0.000000 
#    z 0.000000 0.000000 4.775440 
# 
# 
# High freq. dielectric constant tensor:
#      x y z
#    x 1.940850 0.000000 0.000000 
#    y 0.000000 1.940850 0.000000 
#    z 0.000000 0.000000 1.976020 
# 
# From -- ./inp_files/1532.got.cif
#   From: 2010.03.12/outbox.cif.g09.slc.cpg/sg78_cif.got.tgz:1532.got - 2010.04.16 16:37:20.
