data_PCOD8302346
_publ_section_title
;
Structure prediction by ZEFSAII (Michael W. Deem and Ramdas Pophale) SiO2 
 PCOD8302346
Probable space group: I -4 
;
_chemical_formula_sum "Si O2"
_cell_formula_units_Z 32
_cell_length_a 8.957946
_cell_length_b 8.957946
_cell_length_c 20.897809
_cell_angle_alpha 90.000000
_cell_angle_beta 90.000000
_cell_angle_gamma 90.000000
_cell_volume 1676.940431
_symmetry_space_group_name_H-M "I -4 "
_symmetry_group_IT_number 82
_symmetry_cell_setting 'tetragonal'
loop_
_space_group_symop_operation_xyz
x,y,z
y,-x,-z
-x,-y,z
-y,x,-z
1/2+x,1/2+y,1/2+z
1/2+y,1/2-x,1/2-z
1/2-x,1/2-y,1/2+z
1/2-y,1/2+x,1/2-z
loop_
_atom_site_type_symbol
_atom_site_label
_atom_site_fract_x
_atom_site_fract_y
_atom_site_fract_z
Si Si1 0.476340 0.299718 0.962185
Si Si2 0.442898 0.770928 0.245970
Si Si3 0.000000 0.500000 0.094143
Si Si4 0.180243 0.594732 0.289397
Si Si5 0.500000 0.500000 0.153297
O O1 0.445097 0.125838 0.955237
O O2 0.515354 0.354171 0.890651
O O3 0.331565 0.384411 0.990259
O O4 0.589906 0.840570 0.280245
O O5 0.338100 0.679259 0.295201
O O6 0.490455 0.655766 0.191230
O O7 0.951763 0.638238 0.138768
O O8 0.197980 0.448944 0.243174
#
# Coordination Sequence:
#
# PCOD8302346 Si02
#       5
#     8   8   4   8   4
#     4   9  20  36  56  74  92 135 181 215 258 304
#     4  11  21  31  49  81 114 139 168 209 252 302
#     4  10  17  34  58  76 100 132 175 218 254 306
#     4   9  18  32  55  80 103 140 173 199 254 325
#     4  10  19  38  54  70 110 146 171 202 250 318
#
# _framework density 19.082371999999999
#
# number of rings (size 3 to 8) (size 9 to 14) (size 15 to 20)
#    0.000    2.750    0.000    6.000    0.000    0.000 
#    0.000   15.000    0.000    6.750    0.000    0.000 
#    0.000    0.000    0.000    0.000    0.000    0.000 
#
# Total GULP energy -198226.418146 kJ/mol
# GULP energy per Si atom -12389.151134 kJ/mol
# Density = 1.903894 g / cm^3
# Si number density = 19.082372 Si / 1000 Ang^3
#
#
#
# Elastic Constant Matrix: (Units=GPa)
#
#
# Indices 1 2 3 4 5 6 
#
# 1 119.1665 47.5049 46.9941 0.0000 0.0000 10.0646
# 2 47.5049 119.1665 46.9941 0.0000 0.0000 -10.0646
# 3 46.9941 46.9941 75.1962 0.0000 0.0000 0.0000
# 4 0.0000 0.0000 0.0000 13.1169 0.0000 0.0000
# 5 0.0000 0.0000 0.0000 0.0000 13.1169 0.0000
# 6 10.0646 -10.0646 0.0000 0.0000 0.0000 30.9472
#
#
#
# Elastic Compliance Matrix: (Units=1/GPa)
#
#
# Indices 1 2 3 4 5 6 
#
# 1 0.012311 -0.003046 -0.005790 0.000000 0.000000 -0.004995
# 2 -0.003046 0.012311 -0.005790 0.000000 0.000000 0.004995
# 3 -0.005790 -0.005790 0.020536 0.000000 0.000000 0.000000
# 4 0.000000 0.000000 0.000000 0.076238 0.000000 0.000000
# 5 0.000000 0.000000 0.000000 0.000000 0.076238 0.000000
# 6 -0.004995 0.004995 0.000000 0.000000 0.000000 0.035562
#
#
# Mechanical properties :
#
#
# Convention : Reuss Voigt Hill
#
# Bulk Modulus (GPa) = 62.87340 66.27949 64.57645
# Shear Modulus (GPa) = 18.67415 22.90526 20.78970
#
# Velocity S-wave (km/s) = 3.13166 3.46835 3.30430
# Velocity P-wave (km/s) = 6.78943 7.13078 6.96220
#
# Compressibility (1/GPa) = 0.01590498
#
# Stress axis : x y z
#
# Youngs Moduli (GPa) = 81.22691 81.22690 48.69562
#
# Poissons Ratio (x) = 0.24743 0.28196
# Poissons Ratio (y) = 0.24743 0.28196
# Poissons Ratio (z) = 0.47032 0.47032
#
# Static dielectric constant tensor:
#      x y z
#    x 3.626690 0.000000 0.000000 
#    y 0.000000 3.626690 0.000000 
#    z 0.000000 0.000000 3.234290 
# 
# 
# High freq. dielectric constant tensor:
#      x y z
#    x 1.743910 0.000000 0.000000 
#    y 0.000000 1.743910 0.000000 
#    z 0.000000 0.000000 1.706040 
# 
# From -- ./inp_files/2949.got.cif
#   From: 2010.03.12/outbox.cif.g09.slc.cpg/sg82_2_cif.got.tgz:2949.got - 2010.04.08 20:02:50.
