data_PCOD8302073
_publ_section_title
;
Structure prediction by ZEFSAII (Michael W. Deem and Ramdas Pophale) SiO2 
 PCOD8302073
Probable space group: I 4
;
_chemical_formula_sum "Si O2"
_cell_formula_units_Z 64
_cell_length_a 16.952008
_cell_length_b 16.952008
_cell_length_c 11.816826
_cell_angle_alpha 90.000000
_cell_angle_beta 90.000000
_cell_angle_gamma 90.000000
_cell_volume 3395.808085
_symmetry_space_group_name_H-M "I 4"
_symmetry_group_IT_number 79
_symmetry_cell_setting 'tetragonal'
loop_
_space_group_symop_operation_xyz
x,y,z
-y,x,z
-x,-y,z
y,-x,z
1/2+x,1/2+y,1/2+z
1/2-y,1/2+x,1/2+z
1/2-x,1/2-y,1/2+z
1/2+y,1/2-x,1/2+z
loop_
_atom_site_type_symbol
_atom_site_label
_atom_site_fract_x
_atom_site_fract_y
_atom_site_fract_z
Si Si1 0.496305 0.624334 0.337040
Si Si2 0.673784 0.394804 0.713289
Si Si3 0.097406 0.265729 0.597273
Si Si4 0.040494 0.818024 0.076138
Si Si5 0.952528 0.282732 0.728311
Si Si6 0.196267 0.365389 0.435940
Si Si7 0.553541 0.619418 0.955833
Si Si8 0.714558 0.253076 0.228968
O O1 0.419660 0.575338 0.299089
O O2 0.494403 0.633326 0.471822
O O3 0.496845 0.705560 0.273139
O O4 0.589387 0.376165 0.657371
O O5 0.715588 0.466624 0.646893
O O6 0.662520 0.422631 0.840885
O O7 0.729054 0.319397 0.701749
O O8 0.124523 0.317804 0.490116
O O9 0.073550 0.178447 0.557883
O O10 0.167103 0.257399 0.689823
O O11 0.021475 0.315508 0.646463
O O12 0.093717 0.745010 0.035457
O O13 0.929512 0.334932 0.840929
O O14 0.870013 0.261496 0.663866
O O15 0.254501 0.305740 0.364583
O O16 0.460652 0.603095 0.965101
#
# Coordination Sequence:
#
# PCOD8302073 Si02
#       8
#     8   8   8   8   8   8   8   8
#     4  10  18  29  50  84 124 156 187 232 296 373
#     4  12  21  35  59  87 124 159 202 252 301 368
#     4  12  20  39  65  81 125 169 200 258 314 350
#     4  11  21  33  57  88 119 163 192 247 308 349
#     4   9  21  36  56  86 117 157 204 252 298 362
#     4   9  22  38  56  92 118 152 211 250 295 369
#     4  11  23  35  52  86 128 165 207 241 298 385
#     4  10  22  39  59  92 120 155 211 255 298 369
#
# _framework density 18.846768000000001
#
# number of rings (size 3 to 8) (size 9 to 14) (size 15 to 20)
#    0.750    0.750    5.000    1.500    0.000    0.250 
#    0.000    1.250    0.000    0.750    3.250    0.000 
#    0.000    0.000    0.000    0.000    0.000    0.000 
#
# Total GULP energy -396486.603019 kJ/mol
# GULP energy per Si atom -12390.206344 kJ/mol
# Density = 1.880387 g / cm^3
# Si number density = 18.846768 Si / 1000 Ang^3
#
#
#
# Elastic Constant Matrix: (Units=GPa)
#
#
# Indices 1 2 3 4 5 6 
#
# 1 75.2763 39.3258 31.6611 0.0000 0.0000 5.2743
# 2 39.3258 75.2763 31.6611 0.0000 0.0000 -5.2743
# 3 31.6611 31.6611 72.5302 0.0000 0.0000 0.0000
# 4 0.0000 0.0000 0.0000 30.4395 0.0000 0.0000
# 5 0.0000 0.0000 0.0000 0.0000 30.4395 0.0000
# 6 5.2743 -5.2743 0.0000 0.0000 0.0000 11.4585
#
#
#
# Elastic Compliance Matrix: (Units=1/GPa)
#
#
# Indices 1 2 3 4 5 6 
#
# 1 0.021829 -0.010330 -0.005020 0.000000 0.000000 -0.014803
# 2 -0.010330 0.021829 -0.005020 0.000000 0.000000 0.014803
# 3 -0.005020 -0.005020 0.018170 0.000000 0.000000 0.000000
# 4 0.000000 0.000000 0.000000 0.032852 0.000000 0.000000
# 5 0.000000 0.000000 0.000000 0.000000 0.032852 0.000000
# 6 -0.014803 0.014803 0.000000 0.000000 0.000000 0.100899
#
#
# Mechanical properties :
#
#
# Convention : Reuss Voigt Hill
#
# Bulk Modulus (GPa) = 47.41656 47.59763 47.50710
# Shear Modulus (GPa) = 18.10277 22.49652 20.29965
#
# Velocity S-wave (km/s) = 3.10259 3.45868 3.28546
# Velocity P-wave (km/s) = 6.16834 6.42338 6.29715
#
# Compressibility (1/GPa) = 0.02108968
#
# Stress axis : x y z
#
# Youngs Moduli (GPa) = 45.80961 45.80961 55.03625
#
# Poissons Ratio (x) = 0.47321 0.27627
# Poissons Ratio (y) = 0.47321 0.27627
# Poissons Ratio (z) = 0.22995 0.22995
#
# Static dielectric constant tensor:
#      x y z
#    x 3.341360 0.000000 0.000000 
#    y 0.000000 3.341360 0.000000 
#    z 0.000000 0.000000 3.537080 
# 
# 
# High freq. dielectric constant tensor:
#      x y z
#    x 1.714490 0.000000 0.000000 
#    y 0.000000 1.714490 0.000000 
#    z 0.000000 0.000000 1.737910 
# 
# From -- ./inp_files/1199.got.cif
#   From: 2010.03.12/outbox.cif.g09.slc.cpg/sg79_cif.got.tgz:1199.got - 2010.04.16 16:38:49.
