data_PCOD8302389
_publ_section_title
;
Structure prediction by ZEFSAII (Michael W. Deem and Ramdas Pophale) SiO2 
 PCOD8302389
Probable space group: I -4 
;
_chemical_formula_sum "Si O2"
_cell_formula_units_Z 46
_cell_length_a 9.075036
_cell_length_b 9.075036
_cell_length_c 29.916009
_cell_angle_alpha 90.000000
_cell_angle_beta 90.000000
_cell_angle_gamma 90.000000
_cell_volume 2463.771166
_symmetry_space_group_name_H-M "I -4 "
_symmetry_group_IT_number 82
_symmetry_cell_setting 'tetragonal'
loop_
_space_group_symop_operation_xyz
x,y,z
y,-x,-z
-x,-y,z
-y,x,-z
1/2+x,1/2+y,1/2+z
1/2+y,1/2-x,1/2-z
1/2-x,1/2-y,1/2+z
1/2-y,1/2+x,1/2-z
loop_
_atom_site_type_symbol
_atom_site_label
_atom_site_fract_x
_atom_site_fract_y
_atom_site_fract_z
Si Si1 0.689926 0.576442 0.520394
Si Si2 0.163029 0.858100 0.513405
Si Si3 0.780302 0.341803 0.682170
Si Si4 0.424018 0.215358 0.760577
Si Si5 0.500000 0.500000 0.292862
Si Si6 0.000000 0.500000 0.750000
Si Si7 0.136007 0.606982 0.583291
O O1 0.671293 0.461105 0.478329
O O2 0.825216 0.681387 0.509352
O O3 0.721230 0.484645 0.565752
O O4 0.126564 0.761431 0.556976
O O5 0.033272 0.831631 0.476274
O O6 0.737371 0.172604 0.694407
O O7 0.630675 0.435515 0.677026
O O8 0.886580 0.407938 0.719953
O O9 0.859695 0.348306 0.634816
O O10 0.591023 0.158547 0.770420
O O11 0.428381 0.372092 0.736861
O O12 0.000000 0.500000 0.573982
#
# Coordination Sequence:
#
# PCOD8302389 Si02
#       7
#     8   8   8   8   4   2   8
#     4   9  19  35  59  83 111 149 191 232 295 355
#     4  10  20  36  59  80 113 152 193 231 299 359
#     4  11  22  36  60  86 122 154 203 247 295 354
#     4   9  19  37  59  82 113 158 200 236 296 353
#     4  10  20  36  60  84 111 158 195 244 290 354
#     4  12  20  36  56  88 120 164 200 236 304 360
#     4  11  21  37  58  90 118 153 196 253 287 349
#
# _framework density 18.670566000000001
#
# number of rings (size 3 to 8) (size 9 to 14) (size 15 to 20)
#    0.000    1.913    4.348    0.000    0.000    2.783 
#    0.000    3.478    0.000   25.043    0.000    0.000 
#    0.000    0.000    0.000    0.000    0.000    0.000 
#
# Total GULP energy -284935.900744 kJ/mol
# GULP energy per Si atom -12388.517424 kJ/mol
# Density = 1.862807 g / cm^3
# Si number density = 18.670566 Si / 1000 Ang^3
#
#
#
# Elastic Constant Matrix: (Units=GPa)
#
#
# Indices 1 2 3 4 5 6 
#
# 1 95.6755 28.8225 37.5429 0.0000 0.0000 -9.9516
# 2 28.8225 95.6755 37.5429 0.0000 0.0000 9.9516
# 3 37.5429 37.5429 98.6514 0.0000 0.0000 0.0000
# 4 0.0000 0.0000 0.0000 22.7085 0.0000 0.0000
# 5 0.0000 0.0000 0.0000 0.0000 22.7085 0.0000
# 6 -9.9516 9.9516 0.0000 0.0000 0.0000 33.8676
#
#
#
# Elastic Compliance Matrix: (Units=1/GPa)
#
#
# Indices 1 2 3 4 5 6 
#
# 1 0.013409 -0.002984 -0.003967 0.000000 0.000000 0.004817
# 2 -0.002984 0.013409 -0.003967 0.000000 0.000000 -0.004817
# 3 -0.003967 -0.003967 0.013156 0.000000 0.000000 0.000000
# 4 0.000000 0.000000 0.000000 0.044036 0.000000 0.000000
# 5 0.000000 0.000000 0.000000 0.000000 0.044036 0.000000
# 6 0.004817 -0.004817 0.000000 0.000000 0.000000 0.032357
#
#
# Mechanical properties :
#
#
# Convention : Reuss Voigt Hill
#
# Bulk Modulus (GPa) = 55.13610 55.31323 55.22467
# Shear Modulus (GPa) = 26.55534 28.26317 27.40925
#
# Velocity S-wave (km/s) = 3.77544 3.89496 3.83567
# Velocity P-wave (km/s) = 6.97140 7.06525 7.01848
#
# Compressibility (1/GPa) = 0.01813694
#
# Stress axis : x y z
#
# Youngs Moduli (GPa) = 74.57904 74.57905 76.00887
#
# Poissons Ratio (x) = 0.22251 0.30155
# Poissons Ratio (y) = 0.22251 0.30155
# Poissons Ratio (z) = 0.29588 0.29588
#
# Static dielectric constant tensor:
#      x y z
#    x 3.735890 0.000000 0.000000 
#    y 0.000000 3.735890 0.000000 
#    z 0.000000 0.000000 2.969090 
# 
# 
# High freq. dielectric constant tensor:
#      x y z
#    x 1.746520 0.000000 0.000000 
#    y 0.000000 1.746520 0.000000 
#    z 0.000000 0.000000 1.669630 
# 
# From -- ./inp_files/3980.got.cif
#   From: 2010.03.12/outbox.cif.g09.slc.cpg/sg82_2_cif.got.tgz:3980.got - 2010.04.08 20:02:50.
