data_PCOD8302809
_publ_section_title
;
Structure prediction by ZEFSAII (Michael W. Deem and Ramdas Pophale) SiO2 
 PCOD8302809
Probable space group: P 4/M
;
_chemical_formula_sum "Si O2"
_cell_formula_units_Z 48
_cell_length_a 13.761869
_cell_length_b 13.761869
_cell_length_c 12.962481
_cell_angle_alpha 90.000000
_cell_angle_beta 90.000000
_cell_angle_gamma 90.000000
_cell_volume 2454.951812
_symmetry_space_group_name_H-M "P 4/M"
_symmetry_group_IT_number 83
_symmetry_cell_setting 'tetragonal'
loop_
_space_group_symop_operation_xyz
x,y,z
-y,x,z
-x,-y,z
y,-x,z
-x,-y,-z
y,-x,-z
x,y,-z
-y,x,-z
loop_
_atom_site_type_symbol
_atom_site_label
_atom_site_fract_x
_atom_site_fract_y
_atom_site_fract_z
Si Si1 0.483672 0.660312 0.000000
Si Si2 0.582283 0.360889 0.500000
Si Si3 0.531925 0.785644 0.812627
Si Si4 0.680026 0.722544 0.330743
Si Si5 0.344422 0.872771 0.277931
Si Si6 0.025771 0.613097 0.884497
Si Si7 0.392522 0.917153 0.500000
Si Si8 0.856098 0.403836 0.500000
O O1 0.394389 0.586508 0.000000
O O2 0.474075 0.730756 0.902309
O O3 0.634497 0.467240 0.500000
O O4 0.624497 0.308563 0.398722
O O5 0.591886 0.705663 0.748464
O O6 0.455456 0.840321 0.740359
O O7 0.615043 0.860916 0.852751
O O8 0.781847 0.730727 0.267356
O O9 0.654192 0.817012 0.399994
O O10 0.329784 0.906414 0.396002
O O11 0.323897 0.959188 0.195102
O O12 0.000000 0.500000 0.883322
O O13 0.011022 0.655901 0.000000
O O14 0.479356 0.833433 0.500000
O O15 0.419551 0.029709 0.500000
#
# Coordination Sequence:
#
# PCOD8302809 Si02
#       8
#     4   4   8   8   8   8   4   4
#     4  11  24  38  51  74 112 160 209 244 274 332
#     4  10  21  33  47  66 103 159 204 235 263 318
#     4  11  20  37  54  77 106 153 195 241 290 339
#     4  11  21  33  50  79 110 142 188 240 287 333
#     4  11  22  33  57  80 110 145 190 241 290 340
#     4   9  19  36  56  78 103 140 191 236 297 351
#     4  11  20  36  53  81 102 147 191 224 284 350
#     4  10  21  33  54  73 110 143 179 230 281 346
#
# _framework density 19.552318
#
# number of rings (size 3 to 8) (size 9 to 14) (size 15 to 20)
#    0.000    1.500    2.500    4.000    8.167    0.000 
#    1.500    1.667    0.000    0.000    0.000    0.000 
#    0.000   27.333    0.000    6.000    0.000    0.000 
#
# Total GULP energy -594785.053491 kJ/mol
# GULP energy per Si atom -12391.355281 kJ/mol
# Density = 1.950782 g / cm^3
# Si number density = 19.552318 Si / 1000 Ang^3
#
#
#
# Elastic Constant Matrix: (Units=GPa)
#
#
# Indices 1 2 3 4 5 6 
#
# 1 56.7068 5.7220 16.0605 0.0000 0.0000 -6.4306
# 2 5.7220 56.7068 16.0605 0.0000 0.0000 6.4306
# 3 16.0605 16.0605 117.7859 0.0000 0.0000 0.0000
# 4 0.0000 0.0000 0.0000 -18.0001 0.0000 0.0000
# 5 0.0000 0.0000 0.0000 0.0000 -18.0001 0.0000
# 6 -6.4306 6.4306 0.0000 0.0000 0.0000 21.3761
#
#
#
# Elastic Compliance Matrix: (Units=1/GPa)
#
#
# Indices 1 2 3 4 5 6 
#
# 1 0.019226 -0.001999 -0.002349 0.000000 0.000000 0.006385
# 2 -0.001999 0.019226 -0.002349 0.000000 0.000000 -0.006385
# 3 -0.002349 -0.002349 0.009131 0.000000 0.000000 0.000000
# 4 0.000000 0.000000 0.000000 -0.055555 0.000000 0.000000
# 5 0.000000 0.000000 0.000000 0.000000 -0.055555 0.000000
# 6 0.006385 -0.006385 0.000000 0.000000 0.000000 0.050623
#
#
# Mechanical properties :
#
#
# Convention : Reuss Voigt Hill
#
# Bulk Modulus (GPa) = 29.24963 34.09838 31.67401
# Shear Modulus (GPa) = 420.74609 9.96560 215.35584
#
# Velocity S-wave (km/s) = 14.68527 2.26008 10.50631
# Velocity P-wave (km/s) = 17.39353 4.92829 12.78325
#
# Compressibility (1/GPa) = 0.03418846
#
# Stress axis : x y z
#
# Youngs Moduli (GPa) = 52.01403 52.01403 109.52239
#
# Poissons Ratio (x) = 0.10396 0.25726
# Poissons Ratio (y) = 0.10396 0.25726
# Poissons Ratio (z) = 0.12218 0.12218
#
# Static dielectric constant tensor:
#      x y z
#    x 3.403630 0.000000 0.000000 
#    y 0.000000 3.403630 0.000000 
#    z 0.000000 0.000000 3.863170 
# 
# 
# High freq. dielectric constant tensor:
#      x y z
#    x 1.730530 0.000000 0.000000 
#    y 0.000000 1.730530 0.000000 
#    z 0.000000 0.000000 1.780420 
# 
# From -- ./inp_files/2381.got.cif
#   From: 2010.03.12/outbox.cif.g09.slc.cpg/sg83_2_cif.got.tgz:2381.got - 2010.04.08 20:05:18.
