data_PCOD8302996
_publ_section_title
;
Structure prediction by ZEFSAII (Michael W. Deem and Ramdas Pophale) SiO2 
 PCOD8302996
Probable space group: P 4/M
;
_chemical_formula_sum "Si O2"
_cell_formula_units_Z 48
_cell_length_a 8.329556
_cell_length_b 8.329556
_cell_length_c 31.940196
_cell_angle_alpha 90.000000
_cell_angle_beta 90.000000
_cell_angle_gamma 90.000000
_cell_volume 2216.058810
_symmetry_space_group_name_H-M "P 4/M"
_symmetry_group_IT_number 83
_symmetry_cell_setting 'tetragonal'
loop_
_space_group_symop_operation_xyz
x,y,z
-y,x,z
-x,-y,z
y,-x,z
-x,-y,-z
y,-x,-z
x,y,-z
-y,x,-z
loop_
_atom_site_type_symbol
_atom_site_label
_atom_site_fract_x
_atom_site_fract_y
_atom_site_fract_z
Si Si1 0.902366 0.244693 0.232878
Si Si2 0.916196 0.249243 0.672644
Si Si3 0.245638 0.103124 0.079568
Si Si4 0.597926 0.746458 0.842253
Si Si5 0.744975 0.394750 0.000000
Si Si6 0.000000 0.500000 0.610462
Si Si7 0.576789 0.248124 0.452964
O O1 0.885940 0.311015 0.280144
O O2 0.838478 0.380688 0.201753
O O3 0.087155 0.203856 0.224592
O O4 0.100556 0.200113 0.664996
O O5 0.883705 0.391763 0.639812
O O6 0.348310 0.134672 0.121105
O O7 0.355167 0.149062 0.040354
O O8 0.084358 0.207295 0.078400
O O9 0.412003 0.705581 0.845945
O O10 0.707943 0.582681 0.000000
O O11 0.109261 0.386993 0.580680
O O12 0.697235 0.393869 0.445859
O O13 0.597954 0.180086 0.500000
#
# Coordination Sequence:
#
# PCOD8302996 Si02
#       7
#     8   8   8   8   4   4   8
#     4   9  19  37  58  78 104 142 185 224 270 334
#     4   9  20  36  52  76 110 142 176 224 279 334
#     4  11  24  41  62  89 118 152 196 238 280 340
#     4  11  24  39  57  85 117 146 184 235 285 331
#     4  11  24  41  62  90 124 157 192 237 288 340
#     4  12  19  30  56  84 104 138 188 231 276 332
#     4   9  19  35  52  74 108 146 184 229 279 332
#
# _framework density 21.660073000000001
#
# number of rings (size 3 to 8) (size 9 to 14) (size 15 to 20)
#    0.000    1.917    0.000    5.250    0.000   11.333 
#    0.000    0.000    0.000    2.000    0.000    7.000 
#    0.000    0.000    0.000    0.000    0.000    0.000 
#
# Total GULP energy -595294.727499 kJ/mol
# GULP energy per Si atom -12401.973490 kJ/mol
# Density = 2.161077 g / cm^3
# Si number density = 21.660073 Si / 1000 Ang^3
#
#
#
# Elastic Constant Matrix: (Units=GPa)
#
#
# Indices 1 2 3 4 5 6 
#
# 1 38.2617 -6.5760 22.4162 0.0000 0.0000 -1.7965
# 2 -6.5760 38.2617 22.4162 0.0000 0.0000 1.7965
# 3 22.4162 22.4162 137.0024 0.0000 0.0000 0.0000
# 4 0.0000 0.0000 0.0000 26.9735 0.0000 0.0000
# 5 0.0000 0.0000 0.0000 0.0000 26.9735 0.0000
# 6 -1.7965 1.7965 0.0000 0.0000 0.0000 28.6527
#
#
#
# Elastic Compliance Matrix: (Units=1/GPa)
#
#
# Indices 1 2 3 4 5 6 
#
# 1 0.031741 0.009326 -0.006719 0.000000 0.000000 0.001405
# 2 0.009326 0.031741 -0.006719 0.000000 0.000000 -0.001405
# 3 -0.006719 -0.006719 0.009498 0.000000 0.000000 0.000000
# 4 0.000000 0.000000 0.000000 0.037073 0.000000 0.000000
# 5 0.000000 0.000000 0.000000 0.000000 0.037073 0.000000
# 6 0.001405 -0.001405 0.000000 0.000000 0.000000 0.035077
#
#
# Mechanical properties :
#
#
# Convention : Reuss Voigt Hill
#
# Bulk Modulus (GPa) = 15.44279 32.22652 23.83465
# Shear Modulus (GPa) = 23.58323 28.20455 25.89389
#
# Velocity S-wave (km/s) = 3.30326 3.61244 3.46130
# Velocity P-wave (km/s) = 4.65766 5.68421 5.19635
#
# Compressibility (1/GPa) = 0.06475513
#
# Stress axis : x y z
#
# Youngs Moduli (GPa) = 31.50466 31.50466 105.28532
#
# Poissons Ratio (x) = -0.29381 0.70746
# Poissons Ratio (y) = -0.29381 0.70746
# Poissons Ratio (z) = 0.21169 0.21169
#
# Static dielectric constant tensor:
#      x y z
#    x 3.732650 0.000000 0.000000 
#    y 0.000000 3.732650 0.000000 
#    z 0.000000 0.000000 3.839230 
# 
# 
# High freq. dielectric constant tensor:
#      x y z
#    x 1.842090 0.000000 0.000000 
#    y 0.000000 1.842090 0.000000 
#    z 0.000000 0.000000 1.865910 
# 
# From -- ./inp_files/3480.got.cif
#   From: 2010.03.12/outbox.cif.g09.slc.cpg/sg83_2_cif.got.tgz:3480.got - 2010.04.08 20:05:18.
