data_PCOD8302698
_publ_section_title
;
Structure prediction by ZEFSAII (Michael W. Deem and Ramdas Pophale) SiO2 
 PCOD8302698
Probable space group: P 4/M
;
_chemical_formula_sum "Si O2"
_cell_formula_units_Z 48
_cell_length_a 15.610058
_cell_length_b 15.610058
_cell_length_c 11.100907
_cell_angle_alpha 90.000000
_cell_angle_beta 90.000000
_cell_angle_gamma 90.000000
_cell_volume 2705.001422
_symmetry_space_group_name_H-M "P 4/M"
_symmetry_group_IT_number 83
_symmetry_cell_setting 'tetragonal'
loop_
_space_group_symop_operation_xyz
x,y,z
-y,x,z
-x,-y,z
y,-x,z
-x,-y,-z
y,-x,-z
x,y,-z
-y,x,-z
loop_
_atom_site_type_symbol
_atom_site_label
_atom_site_fract_x
_atom_site_fract_y
_atom_site_fract_z
Si Si1 0.764290 0.979346 0.860443
Si Si2 0.043504 0.416872 0.858823
Si Si3 0.622413 0.573250 0.239354
Si Si4 0.341709 0.781837 0.137958
Si Si5 0.146403 0.178622 0.249461
Si Si6 0.880849 0.080157 0.500000
Si Si7 0.428490 0.620799 0.500000
O O1 0.799742 0.905109 0.777860
O O2 0.668311 0.996410 0.812052
O O3 0.819036 0.065471 0.840551
O O4 0.767556 0.953212 0.000000
O O5 0.144908 0.411731 0.829195
O O6 0.000000 0.500000 0.796172
O O7 0.028461 0.422270 0.000000
O O8 0.529024 0.615300 0.220376
O O9 0.688881 0.614237 0.146425
O O10 0.663084 0.596638 0.371995
O O11 0.260655 0.792282 0.226784
O O12 0.310333 0.794404 0.000000
O O13 0.113830 0.173193 0.386246
O O14 0.977079 0.117144 0.500000
O O15 0.385672 0.529297 0.500000
#
# Coordination Sequence:
#
# PCOD8302698 Si02
#       7
#     8   8   8   8   8   4   4
#     4  10  19  32  52  78 108 138 173 217 268 327
#     4   8  16  32  51  70  98 140 181 215 260 319
#     4   9  18  33  54  80 112 150 187 232 288 335
#     4  10  21  34  50  79 112 141 188 236 272 334
#     4  11  21  36  53  77 106 140 178 224 271 323
#     4  11  22  39  58  82 110 142 182 225 275 340
#     4   7  12  27  50  72  95 129 178 220 254 317
#
# _framework density 17.744906
#
# number of rings (size 3 to 8) (size 9 to 14) (size 15 to 20)
#    0.000    2.500    1.667    3.500    0.000    3.000 
#    0.000    3.333    0.000    0.000    0.000   15.167 
#    0.000    0.000    0.000    0.000    0.000    0.000 
#
# Total GULP energy -594819.528582 kJ/mol
# GULP energy per Si atom -12392.073512 kJ/mol
# Density = 1.770452 g / cm^3
# Si number density = 17.744906 Si / 1000 Ang^3
#
#
#
# Elastic Constant Matrix: (Units=GPa)
#
#
# Indices 1 2 3 4 5 6 
#
# 1 94.9928 58.7168 23.4971 0.0000 0.0000 7.7830
# 2 58.7168 94.9928 23.4971 0.0000 0.0000 -7.7830
# 3 23.4971 23.4971 61.2695 0.0000 0.0000 0.0000
# 4 0.0000 0.0000 0.0000 23.1746 0.0000 0.0000
# 5 0.0000 0.0000 0.0000 0.0000 23.1746 0.0000
# 6 7.7830 -7.7830 0.0000 0.0000 0.0000 29.2584
#
#
#
# Elastic Compliance Matrix: (Units=1/GPa)
#
#
# Indices 1 2 3 4 5 6 
#
# 1 0.019244 -0.011874 -0.002826 0.000000 0.000000 -0.008278
# 2 -0.011874 0.019244 -0.002826 0.000000 0.000000 0.008278
# 3 -0.002826 -0.002826 0.018489 0.000000 0.000000 0.000000
# 4 0.000000 0.000000 0.000000 0.043151 0.000000 0.000000
# 5 0.000000 0.000000 0.000000 0.000000 0.043151 0.000000
# 6 -0.008278 0.008278 0.000000 0.000000 0.000000 0.038582
#
#
# Mechanical properties :
#
#
# Convention : Reuss Voigt Hill
#
# Bulk Modulus (GPa) = 45.61325 51.40855 48.51090
# Shear Modulus (GPa) = 22.29922 24.82444 23.56183
#
# Velocity S-wave (km/s) = 3.54878 3.74433 3.64786
# Velocity P-wave (km/s) = 6.52323 6.90848 6.71862
#
# Compressibility (1/GPa) = 0.02192345
#
# Stress axis : x y z
#
# Youngs Moduli (GPa) = 51.96384 51.96384 54.08564
#
# Poissons Ratio (x) = 0.61703 0.15287
# Poissons Ratio (y) = 0.61703 0.15287
# Poissons Ratio (z) = 0.14687 0.14687
#
# Static dielectric constant tensor:
#      x y z
#    x 3.280290 0.000000 0.000000 
#    y 0.000000 3.280290 0.000000 
#    z 0.000000 0.000000 3.252030 
# 
# 
# High freq. dielectric constant tensor:
#      x y z
#    x 1.678580 0.000000 0.000000 
#    y 0.000000 1.678580 0.000000 
#    z 0.000000 0.000000 1.671610 
# 
# From -- ./inp_files/1864.got.cif
#   From: 2010.03.12/outbox.cif.g09.slc.cpg/sg83_1_cif.got.tgz:1864.got - 2010.04.08 20:05:18.
