data_PCOD8302261
_publ_section_title
;
Structure prediction by ZEFSAII (Michael W. Deem and Ramdas Pophale) SiO2 
 PCOD8302261
Probable space group: P -4
;
_chemical_formula_sum "Si O2"
_cell_formula_units_Z 18
_cell_length_a 11.374284
_cell_length_b 11.374284
_cell_length_c 4.959114
_cell_angle_alpha 90.000000
_cell_angle_beta 90.000000
_cell_angle_gamma 90.000000
_cell_volume 641.582083
_symmetry_space_group_name_H-M "P -4"
_symmetry_group_IT_number 81
_symmetry_cell_setting 'tetragonal'
loop_
_space_group_symop_operation_xyz
x,y,z
y,-x,-z
-x,-y,z
-y,x,-z
loop_
_atom_site_type_symbol
_atom_site_label
_atom_site_fract_x
_atom_site_fract_y
_atom_site_fract_z
Si Si1 0.348740 0.674654 0.719491
Si Si2 0.000000 0.000000 0.500000
Si Si3 0.653088 0.807126 0.780780
Si Si4 0.939259 0.645763 0.311030
Si Si5 0.500000 0.500000 0.000000
Si Si6 0.081695 0.205802 0.805752
O O1 0.298405 0.632699 0.432516
O O2 0.406027 0.807116 0.743879
O O3 0.462951 0.603034 0.799500
O O4 0.241905 0.642571 0.919064
O O5 0.988335 0.110016 0.703687
O O6 0.789002 0.845499 0.745682
O O7 0.578110 0.932450 0.740030
O O8 0.939517 0.677629 0.625689
O O9 0.942336 0.760437 0.115128
#
# Coordination Sequence:
#
# PCOD8302261 Si02
#       6
#     4   1   4   4   1   4
#     4  10  25  42  73 104 133 198 235 310 365 424
#     4  12  20  26  44  94 136 210 236 258 348 434
#     4  10  20  39  62 101 140 180 241 291 375 435
#     4  10  20  38  57  95 141 180 232 294 361 440
#     4  12  28  58  80 102 144 186 288 318 368 458
#     4  10  21  27  50  86 142 193 231 269 338 439
#
# _framework density 28.055648999999999
#
# number of rings (size 3 to 8) (size 9 to 14) (size 15 to 20)
#    0.000    1.778    2.222    1.333    6.222    3.556 
#    0.000    1.111    0.000    2.667    0.000    0.000 
#    0.000    0.000    0.000    0.000    0.000    0.000 
#
# Total GULP energy -223002.434322 kJ/mol
# GULP energy per Si atom -12389.024129 kJ/mol
# Density = 2.799179 g / cm^3
# Si number density = 28.055649 Si / 1000 Ang^3
#
#
#
# Elastic Constant Matrix: (Units=GPa)
#
#
# Indices 1 2 3 4 5 6 
#
# 1 -80.0301 207.2301 15.4010 0.0000 0.0000 10.0561
# 2 207.2301 -80.0301 15.4010 0.0000 0.0000 -10.0561
# 3 15.4010 15.4010 95.5601 0.0000 0.0000 0.0000
# 4 0.0000 0.0000 0.0000 35.7465 0.0000 0.0000
# 5 0.0000 0.0000 0.0000 0.0000 35.7465 0.0000
# 6 10.0561 -10.0561 0.0000 0.0000 0.0000 58.1781
#
#
#
# Elastic Compliance Matrix: (Units=1/GPa)
#
#
# Indices 1 2 3 4 5 6 
#
# 1 0.002371 0.005810 -0.001318 0.000000 0.000000 0.000595
# 2 0.005810 0.002371 -0.001318 0.000000 0.000000 -0.000595
# 3 -0.001318 -0.001318 0.010890 0.000000 0.000000 0.000000
# 4 0.000000 0.000000 0.000000 0.027975 0.000000 0.000000
# 5 0.000000 0.000000 0.000000 0.000000 0.027975 0.000000
# 6 0.000595 -0.000595 0.000000 0.000000 0.000000 0.016983
#
#
# Mechanical properties :
#
#
# Convention : Reuss Voigt Hill
#
# Bulk Modulus (GPa) = 45.50109 45.72936 45.61523
# Shear Modulus (GPa) = 55.83922 5.76544 30.80233
#
# Velocity S-wave (km/s) = 4.46612 1.43508 3.31705
# Velocity P-wave (km/s) = 6.54586 4.36816 5.56458
#
# Compressibility (1/GPa) = 0.02197749
#
# Stress axis : x y z
#
# Youngs Moduli (GPa) = 421.81893 421.81893 91.83072
#
# Poissons Ratio (x) = -2.45086 0.12108
# Poissons Ratio (y) = -2.45086 0.12108
# Poissons Ratio (z) = 0.55616 0.55616
#
# Static dielectric constant tensor:
#      x y z
#    x 5.080510 0.000000 0.000000 
#    y 0.000000 5.080510 0.000000 
#    z 0.000000 0.000000 4.871190 
# 
# 
# High freq. dielectric constant tensor:
#      x y z
#    x 2.142660 0.000000 0.000000 
#    y 0.000000 2.142660 0.000000 
#    z 0.000000 0.000000 2.131140 
# 
# From -- ./inp_files/235.got.cif
#   From: 2010.03.12/outbox.cif.g09.slc.cpg/sg81_cif.got.tgz:235.got - 2010.04.08 20:01:38.
