data_PCOD8302392
_publ_section_title
;
Structure prediction by ZEFSAII (Michael W. Deem and Ramdas Pophale) SiO2 
 PCOD8302392
Probable space group: I -4 
;
_chemical_formula_sum "Si O2"
_cell_formula_units_Z 40
_cell_length_a 7.826060
_cell_length_b 7.826060
_cell_length_c 28.888548
_cell_angle_alpha 90.000000
_cell_angle_beta 90.000000
_cell_angle_gamma 90.000000
_cell_volume 1769.343114
_symmetry_space_group_name_H-M "I -4 "
_symmetry_group_IT_number 82
_symmetry_cell_setting 'tetragonal'
loop_
_space_group_symop_operation_xyz
x,y,z
y,-x,-z
-x,-y,z
-y,x,-z
1/2+x,1/2+y,1/2+z
1/2+y,1/2-x,1/2-z
1/2-x,1/2-y,1/2+z
1/2-y,1/2+x,1/2-z
loop_
_atom_site_type_symbol
_atom_site_label
_atom_site_fract_x
_atom_site_fract_y
_atom_site_fract_z
Si Si1 0.000000 0.000000 0.753422
Si Si2 0.879134 0.755442 0.990951
Si Si3 0.500000 0.000000 0.855978
Si Si4 0.748870 0.236617 0.694344
Si Si5 0.885987 0.239502 0.420139
Si Si6 0.762399 0.603791 0.900993
O O1 0.108446 0.858410 0.725316
O O2 0.875269 0.875313 0.782255
O O3 0.892298 0.674045 0.939836
O O4 0.779104 0.629913 0.025530
O O5 0.066571 0.779471 0.011634
O O6 0.581891 0.864833 0.822343
O O7 0.357698 0.908204 0.888637
O O8 0.841872 0.325652 0.650161
O O9 0.077384 0.178088 0.412120
O O10 0.746546 0.101210 0.403671
#
# Coordination Sequence:
#
# PCOD8302392 Si02
#       6
#     4   8   4   8   8   8
#     4  12  26  46  72 100 136 174 226 288 350 410
#     4  11  23  37  55  86 129 173 214 260 318 386
#     4  10  20  41  70  94 126 174 222 261 324 410
#     4  11  24  44  69  98 132 173 222 280 345 405
#     4  10  20  37  63  92 126 166 213 262 314 386
#     4  10  22  39  62  92 125 164 215 269 324 390
#
# _framework density 22.607261000000001
#
# number of rings (size 3 to 8) (size 9 to 14) (size 15 to 20)
#    0.000    1.400    0.000    7.200    0.000    7.600 
#    0.000    2.000    0.000    0.000    0.000    0.000 
#    0.000    0.000    0.000    0.000    0.000    0.000 
#
# Total GULP energy -247896.322053 kJ/mol
# GULP energy per Si atom -12394.816103 kJ/mol
# Density = 2.255581 g / cm^3
# Si number density = 22.607261 Si / 1000 Ang^3
#
#
#
# Elastic Constant Matrix: (Units=GPa)
#
#
# Indices 1 2 3 4 5 6 
#
# 1 88.4451 42.6425 58.3680 0.0000 0.0000 -7.0714
# 2 42.6425 88.4451 58.3680 0.0000 0.0000 7.0714
# 3 58.3680 58.3680 170.1206 0.0000 0.0000 0.0000
# 4 0.0000 0.0000 0.0000 36.2484 0.0000 0.0000
# 5 0.0000 0.0000 0.0000 0.0000 36.2485 0.0000
# 6 -7.0714 7.0714 0.0000 0.0000 0.0000 38.2018
#
#
#
# Elastic Compliance Matrix: (Units=1/GPa)
#
#
# Indices 1 2 3 4 5 6 
#
# 1 0.017071 -0.006086 -0.003769 0.000000 0.000000 0.004286
# 2 -0.006086 0.017071 -0.003769 0.000000 0.000000 -0.004286
# 3 -0.003769 -0.003769 0.008464 0.000000 0.000000 0.000000
# 4 0.000000 0.000000 0.000000 0.027587 0.000000 0.000000
# 5 0.000000 0.000000 0.000000 0.000000 0.027587 0.000000
# 6 0.004286 -0.004286 0.000000 0.000000 0.000000 0.027764
#
#
# Mechanical properties :
#
#
# Convention : Reuss Voigt Hill
#
# Bulk Modulus (GPa) = 65.11085 73.97422 69.54253
# Shear Modulus (GPa) = 31.66354 34.64856 33.15605
#
# Velocity S-wave (km/s) = 3.74651 3.91913 3.83379
# Velocity P-wave (km/s) = 6.89772 7.29876 7.10107
#
# Compressibility (1/GPa) = 0.01535842
#
# Stress axis : x y z
#
# Youngs Moduli (GPa) = 58.58044 58.58044 118.14273
#
# Poissons Ratio (x) = 0.35651 0.44526
# Poissons Ratio (y) = 0.35651 0.44526
# Poissons Ratio (z) = 0.22078 0.22078
#
# Static dielectric constant tensor:
#      x y z
#    x 4.257840 0.000000 0.000000 
#    y 0.000000 4.257840 0.000000 
#    z 0.000000 0.000000 4.510250 
# 
# 
# High freq. dielectric constant tensor:
#      x y z
#    x 1.894470 0.000000 0.000000 
#    y 0.000000 1.894470 0.000000 
#    z 0.000000 0.000000 1.897960 
# 
# From -- ./inp_files/3717.got.cif
#   From: 2010.03.12/outbox.cif.g09.slc.cpg/sg82_2_cif.got.tgz:3717.got - 2010.04.08 20:02:50.
