data_PCOD8302396
_publ_section_title
;
Structure prediction by ZEFSAII (Michael W. Deem and Ramdas Pophale) SiO2 
 PCOD8302396
Probable space group: I -4 
;
_chemical_formula_sum "Si O2"
_cell_formula_units_Z 48
_cell_length_a 11.276042
_cell_length_b 11.276042
_cell_length_c 19.276476
_cell_angle_alpha 90.000000
_cell_angle_beta 90.000000
_cell_angle_gamma 90.000000
_cell_volume 2450.987022
_symmetry_space_group_name_H-M "I -4 "
_symmetry_group_IT_number 82
_symmetry_cell_setting 'tetragonal'
loop_
_space_group_symop_operation_xyz
x,y,z
y,-x,-z
-x,-y,z
-y,x,-z
1/2+x,1/2+y,1/2+z
1/2+y,1/2-x,1/2-z
1/2-x,1/2-y,1/2+z
1/2-y,1/2+x,1/2-z
loop_
_atom_site_type_symbol
_atom_site_label
_atom_site_fract_x
_atom_site_fract_y
_atom_site_fract_z
Si Si1 0.997825 0.367124 0.113540
Si Si2 0.359595 0.742855 0.934428
Si Si3 0.272323 0.350580 0.794319
Si Si4 0.290234 0.614653 0.800584
Si Si5 0.868122 0.006111 0.796166
Si Si6 0.749843 0.371925 0.067384
O O1 0.116256 0.348377 0.070008
O O2 0.973696 0.250828 0.161084
O O3 0.000000 0.500000 0.151791
O O4 0.891802 0.373717 0.057729
O O5 0.284127 0.689364 0.871132
O O6 0.495149 0.697449 0.932784
O O7 0.305916 0.705282 0.007200
O O8 0.252323 0.482796 0.821887
O O9 0.153472 0.298157 0.760778
O O10 0.362657 0.346198 0.730585
O O11 0.312982 0.271606 0.858291
O O12 0.423040 0.622981 0.771267
O O13 0.000000 0.000000 0.834537
#
# Coordination Sequence:
#
# PCOD8302396 Si02
#       6
#     8   8   8   8   8   8
#     4  10  22  42  64  94 122 159 206 252 309 370
#     4  11  23  41  63  89 122 160 203 249 304 361
#     4  11  22  38  62  91 121 156 203 249 304 363
#     4  11  22  38  62  91 121 156 203 249 304 363
#     4  10  20  38  64  94 124 151 200 256 307 370
#     4  11  23  41  63  89 122 160 203 249 304 361
#
# _framework density 19.583947999999999
#
# number of rings (size 3 to 8) (size 9 to 14) (size 15 to 20)
#    0.000    1.333    5.000    1.000    0.000    2.000 
#    9.000    0.000    0.000    0.000    0.000    0.000 
#    0.000    0.000    0.000    0.000    0.000    0.000 
#
# Total GULP energy -297447.743573 kJ/mol
# GULP energy per Si atom -12393.655982 kJ/mol
# Density = 1.953937 g / cm^3
# Si number density = 19.583948 Si / 1000 Ang^3
#
#
#
# Elastic Constant Matrix: (Units=GPa)
#
#
# Indices 1 2 3 4 5 6 
#
# 1 121.2560 21.0897 37.0600 0.0000 0.0000 -2.4211
# 2 21.0897 121.2560 37.0600 0.0000 0.0000 2.4211
# 3 37.0600 37.0600 71.2277 0.0000 0.0000 0.0000
# 4 0.0000 0.0000 0.0000 22.9911 0.0000 0.0000
# 5 0.0000 0.0000 0.0000 0.0000 22.9911 0.0000
# 6 -2.4211 2.4211 0.0000 0.0000 0.0000 24.9429
#
#
#
# Elastic Compliance Matrix: (Units=1/GPa)
#
#
# Indices 1 2 3 4 5 6 
#
# 1 0.009833 -0.000197 -0.005013 0.000000 0.000000 0.000974
# 2 -0.000197 0.009833 -0.005013 0.000000 0.000000 -0.000974
# 3 -0.005013 -0.005013 0.019257 0.000000 0.000000 0.000000
# 4 0.000000 0.000000 0.000000 0.043495 0.000000 0.000000
# 5 0.000000 0.000000 0.000000 0.000000 0.043495 0.000000
# 6 0.000974 -0.000974 0.000000 0.000000 0.000000 0.040281
#
#
# Mechanical properties :
#
#
# Convention : Reuss Voigt Hill
#
# Bulk Modulus (GPa) = 54.13015 56.01769 55.07392
# Shear Modulus (GPa) = 25.93360 28.75369 27.34365
#
# Velocity S-wave (km/s) = 3.64294 3.83590 3.74067
# Velocity P-wave (km/s) = 6.73756 6.94873 6.84396
#
# Compressibility (1/GPa) = 0.01847399
#
# Stress axis : x y z
#
# Youngs Moduli (GPa) = 101.69754 101.69754 51.93041
#
# Poissons Ratio (x) = 0.02007 0.26035
# Poissons Ratio (y) = 0.02007 0.26035
# Poissons Ratio (z) = 0.50986 0.50986
#
# Static dielectric constant tensor:
#      x y z
#    x 3.790900 0.000000 0.000000 
#    y 0.000000 3.790900 0.000000 
#    z 0.000000 0.000000 3.150460 
# 
# 
# High freq. dielectric constant tensor:
#      x y z
#    x 1.774440 0.000000 0.000000 
#    y 0.000000 1.774440 0.000000 
#    z 0.000000 0.000000 1.730510 
# 
# From -- ./inp_files/2629.got.cif
#   From: 2010.03.12/outbox.cif.g09.slc.cpg/sg82_2_cif.got.tgz:2629.got - 2010.04.08 20:02:50.
