data_PCOD8302921
_publ_section_title
;
Structure prediction by ZEFSAII (Michael W. Deem and Ramdas Pophale) SiO2 
 PCOD8302921
Probable space group: P 4/M
;
_chemical_formula_sum "Si O2"
_cell_formula_units_Z 36
_cell_length_a 9.421853
_cell_length_b 9.421853
_cell_length_c 21.177028
_cell_angle_alpha 90.000000
_cell_angle_beta 90.000000
_cell_angle_gamma 90.000000
_cell_volume 1879.912601
_symmetry_space_group_name_H-M "P 4/M"
_symmetry_group_IT_number 83
_symmetry_cell_setting 'tetragonal'
loop_
_space_group_symop_operation_xyz
x,y,z
-y,x,z
-x,-y,z
y,-x,z
-x,-y,-z
y,-x,-z
x,y,-z
-y,x,-z
loop_
_atom_site_type_symbol
_atom_site_label
_atom_site_fract_x
_atom_site_fract_y
_atom_site_fract_z
Si Si1 0.500000 0.000000 0.657135
Si Si2 0.125835 0.658949 0.879561
Si Si3 0.628011 0.163412 0.070770
Si Si4 0.764987 0.968397 0.746783
Si Si5 0.475655 0.729503 0.426942
O O1 0.638792 0.955583 0.696518
O O2 0.454855 0.868314 0.614427
O O3 0.233840 0.781832 0.894107
O O4 0.205138 0.506289 0.884769
O O5 0.047632 0.686571 0.813648
O O6 0.005713 0.650947 0.933619
O O7 0.611456 0.225909 0.000000
O O8 0.879501 0.842001 0.739268
O O9 0.346446 0.624104 0.411005
O O10 0.471265 0.773614 0.500000
#
# Coordination Sequence:
#
# PCOD8302921 Si02
#       5
#     4   8   8   8   8
#     4  12  21  36  64  90 117 160 206 238 286 338
#     4  11  22  40  58  82 115 148 187 238 296 352
#     4  11  22  38  61  87 111 142 187 239 296 359
#     4  11  24  41  58  83 118 156 195 243 291 345
#     4   9  19  37  60  91 128 160 196 242 286 335
#
# _framework density 19.149827999999999
#
# number of rings (size 3 to 8) (size 9 to 14) (size 15 to 20)
#    0.000    1.333    2.222    6.333    0.000    0.889 
#    0.000    2.222    0.000    0.000    0.000    9.333 
#    0.000    0.000    0.000    0.000    0.000    0.000 
#
# Total GULP energy -446295.911705 kJ/mol
# GULP energy per Si atom -12397.108658 kJ/mol
# Density = 1.910624 g / cm^3
# Si number density = 19.149828 Si / 1000 Ang^3
#
#
#
# Elastic Constant Matrix: (Units=GPa)
#
#
# Indices 1 2 3 4 5 6 
#
# 1 100.3633 23.2191 45.8114 0.0000 0.0000 11.6257
# 2 23.2191 100.3633 45.8114 0.0000 0.0000 -11.6257
# 3 45.8114 45.8114 100.2022 0.0000 0.0000 0.0000
# 4 0.0000 0.0000 0.0000 29.9193 0.0000 0.0000
# 5 0.0000 0.0000 0.0000 0.0000 29.9193 0.0000
# 6 11.6257 -11.6257 0.0000 0.0000 0.0000 32.6368
#
#
#
# Elastic Compliance Matrix: (Units=1/GPa)
#
#
# Indices 1 2 3 4 5 6 
#
# 1 0.013381 -0.001140 -0.005596 0.000000 0.000000 -0.005173
# 2 -0.001140 0.013381 -0.005596 0.000000 0.000000 0.005173
# 3 -0.005596 -0.005596 0.015097 0.000000 0.000000 0.000000
# 4 0.000000 0.000000 0.000000 0.033423 0.000000 0.000000
# 5 0.000000 0.000000 0.000000 0.000000 0.033423 0.000000
# 6 -0.005173 0.005173 0.000000 0.000000 0.000000 0.034326
#
#
# Mechanical properties :
#
#
# Convention : Reuss Voigt Hill
#
# Bulk Modulus (GPa) = 58.16252 58.95697 58.55974
# Shear Modulus (GPa) = 28.83012 30.90085 29.86549
#
# Velocity S-wave (km/s) = 3.88429 4.02137 3.95342
# Velocity P-wave (km/s) = 7.11022 7.23988 7.17534
#
# Compressibility (1/GPa) = 0.01719320
#
# Stress axis : x y z
#
# Youngs Moduli (GPa) = 74.73071 74.73071 66.23813
#
# Poissons Ratio (x) = 0.08523 0.37070
# Poissons Ratio (y) = 0.08523 0.37070
# Poissons Ratio (z) = 0.41822 0.41822
#
# Static dielectric constant tensor:
#      x y z
#    x 3.502350 0.000000 0.000000 
#    y 0.000000 3.502350 0.000000 
#    z 0.000000 0.000000 3.384550 
# 
# 
# High freq. dielectric constant tensor:
#      x y z
#    x 1.749320 0.000000 0.000000 
#    y 0.000000 1.749320 0.000000 
#    z 0.000000 0.000000 1.740390 
# 
# From -- ./inp_files/2857.got.cif
#   From: 2010.03.12/outbox.cif.g09.slc.cpg/sg83_2_cif.got.tgz:2857.got - 2010.04.08 20:05:18.
