data_PCOD8302721
_publ_section_title
;
Structure prediction by ZEFSAII (Michael W. Deem and Ramdas Pophale) SiO2 
 PCOD8302721
Probable space group: P 4/M
;
_chemical_formula_sum "Si O2"
_cell_formula_units_Z 64
_cell_length_a 18.750457
_cell_length_b 18.750457
_cell_length_c 10.176073
_cell_angle_alpha 90.000000
_cell_angle_beta 90.000000
_cell_angle_gamma 90.000000
_cell_volume 3577.700059
_symmetry_space_group_name_H-M "P 4/M"
_symmetry_group_IT_number 83
_symmetry_cell_setting 'tetragonal'
loop_
_space_group_symop_operation_xyz
x,y,z
-y,x,z
-x,-y,z
y,-x,z
-x,-y,-z
y,-x,-z
x,y,-z
-y,x,-z
loop_
_atom_site_type_symbol
_atom_site_label
_atom_site_fract_x
_atom_site_fract_y
_atom_site_fract_z
Si Si1 0.308997 0.023688 0.653049
Si Si2 0.272657 0.868473 0.348076
Si Si3 0.290678 0.654565 0.767204
Si Si4 0.582853 0.427269 0.652984
Si Si5 0.829622 0.250552 0.348025
Si Si6 0.569854 0.952768 0.849504
Si Si7 0.199432 0.527074 0.851547
Si Si8 0.631466 0.211326 0.851820
O O1 0.332928 0.033681 0.500000
O O2 0.259757 0.953058 0.665184
O O3 0.266012 0.092033 0.711972
O O4 0.375688 0.010634 0.748489
O O5 0.291645 0.848130 0.500000
O O6 0.201073 0.826339 0.302374
O O7 0.336285 0.843735 0.253015
O O8 0.354805 0.628843 0.676274
O O9 0.226005 0.686742 0.683421
O O10 0.261682 0.585717 0.843768
O O11 0.323649 0.715163 0.860602
O O12 0.599819 0.506567 0.711715
O O13 0.574102 0.434876 0.500000
O O14 0.843180 0.249106 0.500000
O O15 0.553657 0.874505 0.786655
O O16 0.500000 0.000000 0.848314
O O17 0.600326 0.948985 0.000000
O O18 0.225389 0.449535 0.800174
O O19 0.177466 0.514870 0.000000
O O20 0.633413 0.178959 0.000000
#
# Coordination Sequence:
#
# PCOD8302721 Si02
#       8
#     8   8   8   8   8   8   8   8
#     4  10  19  34  54  78 105 134 170 213 256 304
#     4   9  19  35  55  76 104 136 168 208 255 308
#     4  11  18  31  50  71  96 131 172 221 258 309
#     4   9  18  31  46  67  97 134 177 222 266 314
#     4   9  18  32  50  75 103 132 165 207 257 306
#     4  10  20  34  52  73 103 140 172 206 255 314
#     4  10  20  33  47  69  99 131 169 212 261 309
#     4  10  21  35  52  73 101 136 174 215 259 309
#
# _framework density 17.888587999999999
#
# number of rings (size 3 to 8) (size 9 to 14) (size 15 to 20)
#    0.000    2.250    1.250    2.625    0.000    2.250 
#    0.000    1.875    0.000    0.375    0.000    7.875 
#    0.000    0.000    0.000    4.375    0.000    4.375 
#
# Total GULP energy -792903.662106 kJ/mol
# GULP energy per Si atom -12389.119720 kJ/mol
# Density = 1.784787 g / cm^3
# Si number density = 17.888588 Si / 1000 Ang^3
#
#
#
# Elastic Constant Matrix: (Units=GPa)
#
#
# Indices 1 2 3 4 5 6 
#
# 1 100.1024 44.7322 20.3535 0.0000 0.0000 2.0631
# 2 44.7322 100.1024 20.3535 0.0000 0.0000 -2.0631
# 3 20.3535 20.3535 38.5412 0.0000 0.0000 0.0000
# 4 0.0000 0.0000 0.0000 18.9048 0.0000 0.0000
# 5 0.0000 0.0000 0.0000 0.0000 18.9048 0.0000
# 6 2.0631 -2.0631 0.0000 0.0000 0.0000 19.8418
#
#
#
# Elastic Compliance Matrix: (Units=1/GPa)
#
#
# Indices 1 2 3 4 5 6 
#
# 1 0.013155 -0.005047 -0.004282 0.000000 0.000000 -0.001893
# 2 -0.005047 0.013155 -0.004282 0.000000 0.000000 0.001893
# 3 -0.004282 -0.004282 0.030469 0.000000 0.000000 0.000000
# 4 0.000000 0.000000 0.000000 0.052897 0.000000 0.000000
# 5 0.000000 0.000000 0.000000 0.000000 0.052897 0.000000
# 6 -0.001893 0.001893 0.000000 0.000000 0.000000 0.050792
#
#
# Mechanical properties :
#
#
# Convention : Reuss Voigt Hill
#
# Bulk Modulus (GPa) = 33.83253 45.51383 39.67318
# Shear Modulus (GPa) = 19.96516 21.75072 20.85794
#
# Velocity S-wave (km/s) = 3.34441 3.49076 3.41837
# Velocity P-wave (km/s) = 5.81957 6.46106 6.14869
#
# Compressibility (1/GPa) = 0.02955735
#
# Stress axis : x y z
#
# Youngs Moduli (GPa) = 76.01924 76.01924 32.82070
#
# Poissons Ratio (x) = 0.38365 0.14053
# Poissons Ratio (y) = 0.38365 0.14053
# Poissons Ratio (z) = 0.32549 0.32549
#
# Static dielectric constant tensor:
#      x y z
#    x 3.472870 0.000000 0.000000 
#    y 0.000000 3.472870 0.000000 
#    z 0.000000 0.000000 3.111190 
# 
# 
# High freq. dielectric constant tensor:
#      x y z
#    x 1.690490 0.000000 0.000000 
#    y 0.000000 1.690490 0.000000 
#    z 0.000000 0.000000 1.671770 
# 
# From -- ./inp_files/2030.got.cif
#   From: 2010.03.12/outbox.cif.g09.slc.cpg/sg83_2_cif.got.tgz:2030.got - 2010.04.08 20:05:18.
