data_PCOD8302643
_publ_section_title
;
Structure prediction by ZEFSAII (Michael W. Deem and Ramdas Pophale) SiO2 
 PCOD8302643
Probable space group: P 4/M
;
_chemical_formula_sum "Si O2"
_cell_formula_units_Z 36
_cell_length_a 14.854607
_cell_length_b 14.854607
_cell_length_c 7.747971
_cell_angle_alpha 90.000000
_cell_angle_beta 90.000000
_cell_angle_gamma 90.000000
_cell_volume 1709.662238
_symmetry_space_group_name_H-M "P 4/M"
_symmetry_group_IT_number 83
_symmetry_cell_setting 'tetragonal'
loop_
_space_group_symop_operation_xyz
x,y,z
-y,x,z
-x,-y,z
y,-x,z
-x,-y,-z
y,-x,-z
x,y,-z
-y,x,-z
loop_
_atom_site_type_symbol
_atom_site_label
_atom_site_fract_x
_atom_site_fract_y
_atom_site_fract_z
Si Si1 0.592638 0.044846 0.295284
Si Si2 0.094496 0.735810 0.192088
Si Si3 0.867911 0.931539 0.500000
Si Si4 0.629909 0.731784 0.705438
Si Si5 0.571067 0.247035 0.295368
O O1 0.601097 0.036926 0.500000
O O2 0.594579 0.147299 0.228617
O O3 0.500000 0.000000 0.231520
O O4 0.677915 0.995856 0.213119
O O5 0.099666 0.816143 0.329022
O O6 0.178818 0.670360 0.213536
O O7 0.095184 0.777894 0.000000
O O8 0.961708 0.879467 0.500000
O O9 0.635648 0.740219 0.500000
O O10 0.527174 0.722493 0.769838
O O11 0.683443 0.645002 0.776140
O O12 0.572085 0.246740 0.500000
#
# Coordination Sequence:
#
# PCOD8302643 Si02
#       5
#     8   8   4   8   8
#     4  10  18  35  61  91 128 173 218 270 335 387
#     4  12  25  41  69 103 130 167 221 275 326 394
#     4  11  28  52  73  94 132 177 210 261 335 400
#     4  10  19  38  59  91 133 174 226 273 332 391
#     4   9  19  32  61  91 125 180 221 273 332 394
#
# _framework density 21.056789999999999
#
# number of rings (size 3 to 8) (size 9 to 14) (size 15 to 20)
#    0.000    1.667    4.444    0.000    3.111    1.778 
#    0.000    4.444    0.000    0.000    0.000    1.556 
#    0.000    0.000    0.000    0.000    0.000    0.000 
#
# Total GULP energy -446497.114549 kJ/mol
# GULP energy per Si atom -12402.697626 kJ/mol
# Density = 2.100886 g / cm^3
# Si number density = 21.056790 Si / 1000 Ang^3
#
#
#
# Elastic Constant Matrix: (Units=GPa)
#
#
# Indices 1 2 3 4 5 6 
#
# 1 135.7793 77.2344 23.7063 0.0000 0.0000 6.9826
# 2 77.2344 135.7793 23.7063 0.0000 0.0000 -6.9826
# 3 23.7063 23.7063 83.9825 0.0000 0.0000 0.0000
# 4 0.0000 0.0000 0.0000 0.4128 0.0000 0.0000
# 5 0.0000 0.0000 0.0000 0.0000 0.4128 0.0000
# 6 6.9826 -6.9826 0.0000 0.0000 0.0000 40.0632
#
#
#
# Elastic Compliance Matrix: (Units=1/GPa)
#
#
# Indices 1 2 3 4 5 6 
#
# 1 0.011416 -0.006406 -0.001414 0.000000 0.000000 -0.003106
# 2 -0.006406 0.011416 -0.001414 0.000000 0.000000 0.003106
# 3 -0.001414 -0.001414 0.012706 0.000000 0.000000 0.000000
# 4 0.000000 0.000000 0.000000 2.422673 0.000000 0.000000
# 5 0.000000 0.000000 0.000000 0.000000 2.422673 0.000000
# 6 -0.003106 0.003106 0.000000 0.000000 0.000000 0.026043
#
#
# Mechanical properties :
#
#
# Convention : Reuss Voigt Hill
#
# Bulk Modulus (GPa) = 58.58900 67.20391 62.89646
# Shear Modulus (GPa) = 1.01398 23.57069 12.29234
#
# Velocity S-wave (km/s) = 0.69469 3.34935 2.41876
# Velocity P-wave (km/s) = 5.34117 6.85145 6.14290
#
# Compressibility (1/GPa) = 0.01706805
#
# Stress axis : x y z
#
# Youngs Moduli (GPa) = 87.59989 87.59989 78.70593
#
# Poissons Ratio (x) = 0.56119 0.11129
# Poissons Ratio (y) = 0.56119 0.11129
# Poissons Ratio (z) = 0.12387 0.12387
#
# Static dielectric constant tensor:
#      x y z
#    x 3.975410 0.000000 0.000000 
#    y 0.000000 3.975410 0.000000 
#    z 0.000000 0.000000 3.518070 
# 
# 
# High freq. dielectric constant tensor:
#      x y z
#    x 1.829830 0.000000 0.000000 
#    y 0.000000 1.829830 0.000000 
#    z 0.000000 0.000000 1.801630 
# 
# From -- ./inp_files/554.got.cif
#   From: 2010.03.12/outbox.cif.g09.slc.cpg/sg83_1_cif.got.tgz:554.got - 2010.04.08 20:05:18.
