data_PCOD8302451
_publ_section_title
;
Structure prediction by ZEFSAII (Michael W. Deem and Ramdas Pophale) SiO2 
 PCOD8302451
Probable space group: I -4 
;
_chemical_formula_sum "Si O2"
_cell_formula_units_Z 40
_cell_length_a 8.622542
_cell_length_b 8.622542
_cell_length_c 22.487843
_cell_angle_alpha 90.000000
_cell_angle_beta 90.000000
_cell_angle_gamma 90.000000
_cell_volume 1671.931336
_symmetry_space_group_name_H-M "I -4 "
_symmetry_group_IT_number 82
_symmetry_cell_setting 'tetragonal'
loop_
_space_group_symop_operation_xyz
x,y,z
y,-x,-z
-x,-y,z
-y,x,-z
1/2+x,1/2+y,1/2+z
1/2+y,1/2-x,1/2-z
1/2-x,1/2-y,1/2+z
1/2-y,1/2+x,1/2-z
loop_
_atom_site_type_symbol
_atom_site_label
_atom_site_fract_x
_atom_site_fract_y
_atom_site_fract_z
Si Si1 0.557554 0.833469 0.478745
Si Si2 0.207390 0.141677 0.381370
Si Si3 0.788809 0.376839 0.733505
Si Si4 0.633558 0.383899 0.409627
Si Si5 0.197455 0.131768 0.655827
O O1 0.730606 0.832118 0.448759
O O2 0.441484 0.779799 0.427101
O O3 0.540826 0.715071 0.532985
O O4 0.500000 0.000000 0.500956
O O5 0.322158 0.225644 0.334365
O O6 0.039694 0.219455 0.370791
O O7 0.205095 0.958489 0.371203
O O8 0.801173 0.562566 0.733350
O O9 0.638631 0.321510 0.772229
O O10 0.500000 0.500000 0.385190
O O11 0.766818 0.347888 0.361642
#
# Coordination Sequence:
#
# PCOD8302451 Si02
#       5
#     8   8   8   8   8
#     4  12  24  43  68  96 135 180 230 286 341 414
#     4  10  22  39  68  99 137 178 231 290 349 404
#     4   9  18  37  65  94 130 181 232 279 340 421
#     4  12  25  45  65  98 136 183 234 277 346 420
#     4  10  22  41  64 103 136 177 234 289 346 408
#
# _framework density 23.924424999999999
#
# number of rings (size 3 to 8) (size 9 to 14) (size 15 to 20)
#    0.000    1.400    4.000    1.200    5.600    0.000 
#   10.800    2.000    4.400    0.000    0.000    0.000 
#    0.000    0.000    0.000    0.000    0.000    0.000 
#
# Total GULP energy -247927.881082 kJ/mol
# GULP energy per Si atom -12396.394054 kJ/mol
# Density = 2.386997 g / cm^3
# Si number density = 23.924425 Si / 1000 Ang^3
#
#
#
# Elastic Constant Matrix: (Units=GPa)
#
#
# Indices 1 2 3 4 5 6 
#
# 1 97.0806 24.1152 15.6996 0.0000 0.0000 -1.3346
# 2 24.1152 97.0805 15.6995 0.0000 0.0000 1.3346
# 3 15.6996 15.6995 59.5223 0.0000 0.0000 0.0000
# 4 0.0000 0.0000 0.0000 25.4318 0.0000 0.0000
# 5 0.0000 0.0000 0.0000 0.0000 25.4319 0.0000
# 6 -1.3346 1.3346 0.0000 0.0000 0.0000 41.9893
#
#
#
# Elastic Compliance Matrix: (Units=1/GPa)
#
#
# Indices 1 2 3 4 5 6 
#
# 1 0.011289 -0.002432 -0.002336 0.000000 0.000000 0.000436
# 2 -0.002432 0.011289 -0.002336 0.000000 0.000000 -0.000436
# 3 -0.002336 -0.002336 0.018033 0.000000 0.000000 0.000000
# 4 0.000000 0.000000 0.000000 0.039321 0.000000 0.000000
# 5 0.000000 0.000000 0.000000 0.000000 0.039321 0.000000
# 6 0.000436 -0.000436 0.000000 0.000000 0.000000 0.023843
#
#
# Mechanical properties :
#
#
# Convention : Reuss Voigt Hill
#
# Bulk Modulus (GPa) = 37.87656 40.52356 39.20006
# Shear Modulus (GPa) = 30.10163 31.78186 30.94174
#
# Velocity S-wave (km/s) = 3.55095 3.64871 3.60017
# Velocity P-wave (km/s) = 5.71651 5.89286 5.80535
#
# Compressibility (1/GPa) = 0.02640155
#
# Stress axis : x y z
#
# Youngs Moduli (GPa) = 88.58418 88.58416 55.45491
#
# Poissons Ratio (x) = 0.21547 0.12954
# Poissons Ratio (y) = 0.21547 0.12954
# Poissons Ratio (z) = 0.20693 0.20693
#
# Static dielectric constant tensor:
#      x y z
#    x 4.158650 0.000000 0.000000 
#    y 0.000000 4.158650 0.000000 
#    z 0.000000 0.000000 4.025650 
# 
# 
# High freq. dielectric constant tensor:
#      x y z
#    x 1.941820 0.000000 0.000000 
#    y 0.000000 1.941820 0.000000 
#    z 0.000000 0.000000 1.935280 
# 
# From -- ./inp_files/3341.got.cif
#   From: 2010.03.12/outbox.cif.g09.slc.cpg/sg82_2_cif.got.tgz:3341.got - 2010.04.08 20:02:50.
