data_PCOD8302718
_publ_section_title
;
Structure prediction by ZEFSAII (Michael W. Deem and Ramdas Pophale) SiO2 
 PCOD8302718
Probable space group: P 4/M
;
_chemical_formula_sum "Si O2"
_cell_formula_units_Z 52
_cell_length_a 17.630266
_cell_length_b 17.630266
_cell_length_c 7.917605
_cell_angle_alpha 90.000000
_cell_angle_beta 90.000000
_cell_angle_gamma 90.000000
_cell_volume 2460.999703
_symmetry_space_group_name_H-M "P 4/M"
_symmetry_group_IT_number 83
_symmetry_cell_setting 'tetragonal'
loop_
_space_group_symop_operation_xyz
x,y,z
-y,x,z
-x,-y,z
y,-x,z
-x,-y,-z
y,-x,-z
x,y,-z
-y,x,-z
loop_
_atom_site_type_symbol
_atom_site_label
_atom_site_fract_x
_atom_site_fract_y
_atom_site_fract_z
Si Si1 0.706152 0.981787 0.302222
Si Si2 0.544298 0.927605 0.700123
Si Si3 0.381016 0.482050 0.298984
Si Si4 0.153037 0.293926 0.805377
Si Si5 0.786033 0.545971 0.303388
Si Si6 0.928488 0.900103 0.000000
Si Si7 0.862387 0.165601 0.691561
O O1 0.705953 0.000039 0.500000
O O2 0.631539 0.935644 0.247395
O O3 0.773867 0.925120 0.252436
O O4 0.710469 0.061617 0.208009
O O5 0.533106 0.926139 0.500000
O O6 0.510339 0.849425 0.777022
O O7 0.500000 0.000000 0.776108
O O8 0.437009 0.414488 0.236861
O O9 0.377880 0.480121 0.500000
O O10 0.296821 0.469208 0.220733
O O11 0.186391 0.368832 0.722956
O O12 0.194722 0.224409 0.706279
O O13 0.176019 0.290195 0.000000
O O14 0.779238 0.529063 0.500000
O O15 0.903035 0.861198 0.174211
O O16 0.017064 0.894813 0.000000
O O17 0.878252 0.136968 0.500000
#
# Coordination Sequence:
#
# PCOD8302718 Si02
#       7
#     8   8   8   8   8   4   8
#     4  10  21  38  62  87 116 159 206 252 311 380
#     4   9  16  31  55  85 118 151 195 250 301 363
#     4   8  15  29  52  85 120 152 196 257 315 368
#     4  12  24  38  58  83 121 160 202 258 316 370
#     4  10  19  33  58  86 117 158 206 256 312 377
#     4  11  24  42  64  90 121 157 203 256 312 372
#     4  11  24  41  63  91 123 161 208 258 313 375
#
# _framework density 21.129625000000001
#
# number of rings (size 3 to 8) (size 9 to 14) (size 15 to 20)
#    0.000    1.923    2.308    2.769    1.077    3.077 
#    0.000    6.923    0.000    0.923    0.000    1.077 
#    0.000    0.000    0.000    0.000    0.000    0.000 
#
# Total GULP energy -644532.166544 kJ/mol
# GULP energy per Si atom -12394.849357 kJ/mol
# Density = 2.108153 g / cm^3
# Si number density = 21.129625 Si / 1000 Ang^3
#
#
#
# Elastic Constant Matrix: (Units=GPa)
#
#
# Indices 1 2 3 4 5 6 
#
# 1 140.0768 42.8508 1.8283 0.0000 0.0000 5.4151
# 2 42.8508 140.0768 1.8283 0.0000 0.0000 -5.4151
# 3 1.8283 1.8283 47.7107 0.0000 0.0000 0.0000
# 4 0.0000 0.0000 0.0000 10.4313 0.0000 0.0000
# 5 0.0000 0.0000 0.0000 0.0000 10.4313 0.0000
# 6 5.4151 -5.4151 0.0000 0.0000 0.0000 36.6251
#
#
#
# Elastic Compliance Matrix: (Units=1/GPa)
#
#
# Indices 1 2 3 4 5 6 
#
# 1 0.007964 -0.002493 -0.000210 0.000000 0.000000 -0.001546
# 2 -0.002493 0.007964 -0.000210 0.000000 0.000000 0.001546
# 3 -0.000210 -0.000210 0.020976 0.000000 0.000000 0.000000
# 4 0.000000 0.000000 0.000000 0.095865 0.000000 0.000000
# 5 0.000000 0.000000 0.000000 0.000000 0.095865 0.000000
# 6 -0.001546 0.001546 0.000000 0.000000 0.000000 0.027761
#
#
# Mechanical properties :
#
#
# Convention : Reuss Voigt Hill
#
# Bulk Modulus (GPa) = 32.17624 46.76433 39.47028
# Shear Modulus (GPa) = 18.34325 30.25468 24.29896
#
# Velocity S-wave (km/s) = 2.94960 3.78810 3.39484
# Velocity P-wave (km/s) = 5.18279 6.42753 5.83842
#
# Compressibility (1/GPa) = 0.03107884
#
# Stress axis : x y z
#
# Youngs Moduli (GPa) = 125.56204 125.56204 47.67415
#
# Poissons Ratio (x) = 0.31307 0.00999
# Poissons Ratio (y) = 0.31307 0.00999
# Poissons Ratio (z) = 0.02632 0.02632
#
# Static dielectric constant tensor:
#      x y z
#    x 4.034360 0.000000 0.000000 
#    y 0.000000 4.034360 0.000000 
#    z 0.000000 0.000000 3.432870 
# 
# 
# High freq. dielectric constant tensor:
#      x y z
#    x 1.832060 0.000000 0.000000 
#    y 0.000000 1.832060 0.000000 
#    z 0.000000 0.000000 1.798820 
# 
# From -- ./inp_files/1015.got.cif
#   From: 2010.03.12/outbox.cif.g09.slc.cpg/sg83_1_cif.got.tgz:1015.got - 2010.04.08 20:05:18.
