data_PCOD8302963
_publ_section_title
;
Structure prediction by ZEFSAII (Michael W. Deem and Ramdas Pophale) SiO2 
 PCOD8302963
Probable space group: P 4/M
;
_chemical_formula_sum "Si O2"
_cell_formula_units_Z 40
_cell_length_a 8.461654
_cell_length_b 8.461654
_cell_length_c 27.264267
_cell_angle_alpha 90.000000
_cell_angle_beta 90.000000
_cell_angle_gamma 90.000000
_cell_volume 1952.110296
_symmetry_space_group_name_H-M "P 4/M"
_symmetry_group_IT_number 83
_symmetry_cell_setting 'tetragonal'
loop_
_space_group_symop_operation_xyz
x,y,z
-y,x,z
-x,-y,z
y,-x,z
-x,-y,-z
y,-x,-z
x,y,-z
-y,x,-z
loop_
_atom_site_type_symbol
_atom_site_label
_atom_site_fract_x
_atom_site_fract_y
_atom_site_fract_z
Si Si1 0.752700 0.429049 0.342362
Si Si2 0.583904 0.251864 0.000000
Si Si3 0.426568 0.249565 0.551634
Si Si4 0.500000 0.000000 0.266875
Si Si5 0.087752 0.244255 0.083370
Si Si6 0.924120 0.753054 0.805536
O O1 0.691895 0.608622 0.336499
O O2 0.838108 0.402293 0.396021
O O3 0.883447 0.396299 0.300972
O O4 0.698142 0.402927 0.000000
O O5 0.616083 0.144808 0.047877
O O6 0.604552 0.308805 0.551211
O O7 0.397381 0.151577 0.500000
O O8 0.612226 0.108117 0.232544
O O9 0.102413 0.307048 0.138990
O O10 0.907260 0.197743 0.073149
O O11 0.103944 0.805648 0.796245
#
# Coordination Sequence:
#
# PCOD8302963 Si02
#       6
#     8   4   8   4   8   8
#     4   9  18  31  46  69  99 127 161 204 248 299
#     4  11  24  37  52  82 118 139 156 193 246 298
#     4   7  10  20  40  62  86 121 160 196 238 288
#     4  12  20  30  51  75  98 130 164 202 258 300
#     4   9  19  37  59  79  99 130 173 210 239 282
#     4   9  20  37  54  74 100 130 169 210 241 283
#
# _framework density 20.490646999999999
#
# number of rings (size 3 to 8) (size 9 to 14) (size 15 to 20)
#    0.000    2.900    0.000    4.800    0.000    5.600 
#    0.000    0.500    0.000    2.400    0.000    0.000 
#    0.000    0.000    0.000   24.400    0.000    1.600 
#
# Total GULP energy -495522.648032 kJ/mol
# GULP energy per Si atom -12388.066201 kJ/mol
# Density = 2.044401 g / cm^3
# Si number density = 20.490647 Si / 1000 Ang^3
#
#
#
# Elastic Constant Matrix: (Units=GPa)
#
#
# Indices 1 2 3 4 5 6 
#
# 1 37.3711 0.9407 33.6811 0.0000 0.0000 1.4037
# 2 0.9407 37.3711 33.6811 0.0000 0.0000 -1.4037
# 3 33.6811 33.6811 171.7415 0.0000 0.0000 0.0000
# 4 0.0000 0.0000 0.0000 10.6250 0.0000 0.0000
# 5 0.0000 0.0000 0.0000 0.0000 10.6250 0.0000
# 6 1.4037 -1.4037 0.0000 0.0000 0.0000 20.1650
#
#
#
# Elastic Compliance Matrix: (Units=1/GPa)
#
#
# Indices 1 2 3 4 5 6 
#
# 1 0.033718 0.006121 -0.007813 0.000000 0.000000 -0.001921
# 2 0.006121 0.033718 -0.007813 0.000000 0.000000 0.001921
# 3 -0.007813 -0.007813 0.008887 0.000000 0.000000 0.000000
# 4 0.000000 0.000000 0.000000 0.094118 0.000000 0.000000
# 5 0.000000 0.000000 0.000000 0.000000 0.094118 0.000000
# 6 -0.001921 0.001921 0.000000 0.000000 0.000000 0.049858
#
#
# Mechanical properties :
#
#
# Convention : Reuss Voigt Hill
#
# Bulk Modulus (GPa) = 17.44805 42.56549 30.00677
# Shear Modulus (GPa) = 14.18308 20.16171 17.17239
#
# Velocity S-wave (km/s) = 2.63377 3.14020 2.89807
# Velocity P-wave (km/s) = 4.21695 5.82804 5.08668
#
# Compressibility (1/GPa) = 0.05731300
#
# Stress axis : x y z
#
# Youngs Moduli (GPa) = 29.65750 29.65750 112.52132
#
# Poissons Ratio (x) = -0.18152 0.87913
# Poissons Ratio (y) = -0.18152 0.87913
# Poissons Ratio (z) = 0.23171 0.23171
#
# Static dielectric constant tensor:
#      x y z
#    x 3.270320 0.000000 0.000000 
#    y 0.000000 3.270320 0.000000 
#    z 0.000000 0.000000 4.232060 
# 
# 
# High freq. dielectric constant tensor:
#      x y z
#    x 1.764440 0.000000 0.000000 
#    y 0.000000 1.764440 0.000000 
#    z 0.000000 0.000000 1.831170 
# 
# From -- ./inp_files/3286.got.cif
#   From: 2010.03.12/outbox.cif.g09.slc.cpg/sg83_2_cif.got.tgz:3286.got - 2010.04.08 20:05:18.
