data_PCOD8302445
_publ_section_title
;
Structure prediction by ZEFSAII (Michael W. Deem and Ramdas Pophale) SiO2 
 PCOD8302445
Probable space group: I -4 
;
_chemical_formula_sum "Si O2"
_cell_formula_units_Z 48
_cell_length_a 15.016005
_cell_length_b 15.016005
_cell_length_c 10.511815
_cell_angle_alpha 90.000000
_cell_angle_beta 90.000000
_cell_angle_gamma 90.000000
_cell_volume 2370.208316
_symmetry_space_group_name_H-M "I -4 "
_symmetry_group_IT_number 82
_symmetry_cell_setting 'tetragonal'
loop_
_space_group_symop_operation_xyz
x,y,z
y,-x,-z
-x,-y,z
-y,x,-z
1/2+x,1/2+y,1/2+z
1/2+y,1/2-x,1/2-z
1/2-x,1/2-y,1/2+z
1/2-y,1/2+x,1/2-z
loop_
_atom_site_type_symbol
_atom_site_label
_atom_site_fract_x
_atom_site_fract_y
_atom_site_fract_z
Si Si1 0.633405 0.538649 0.466521
Si Si2 0.339243 0.755313 0.375942
Si Si3 0.847114 0.657202 0.120403
Si Si4 0.732184 0.405237 0.004364
Si Si5 0.233850 0.496391 0.264102
Si Si6 0.092350 0.763608 0.594781
O O1 0.605059 0.450315 0.544203
O O2 0.716313 0.583064 0.536809
O O3 0.667197 0.513348 0.324940
O O4 0.256963 0.688898 0.372506
O O5 0.310490 0.850062 0.434548
O O6 0.377716 0.762577 0.234692
O O7 0.803285 0.601219 0.235201
O O8 0.953602 0.666086 0.138811
O O9 0.826168 0.610064 0.986673
O O10 0.763039 0.441860 0.139923
O O11 0.646361 0.343280 0.026524
O O12 0.708891 0.488361 0.911782
#
# Coordination Sequence:
#
# PCOD8302445 Si02
#       6
#     8   8   8   8   8   8
#     4  11  23  37  64 100 128 165 216 278 330 388
#     4  11  22  42  63  92 136 168 217 266 339 397
#     4  10  22  37  62  87 125 173 216 268 322 388
#     4  10  22  40  63  96 127 177 215 271 332 392
#     4  11  21  41  62  93 133 167 230 265 324 405
#     4  10  22  39  63  94 130 168 223 264 333 398
#
# _framework density 20.251384000000002
#
# number of rings (size 3 to 8) (size 9 to 14) (size 15 to 20)
#    0.000    1.500    3.333    1.000    2.333    6.000 
#    0.000    0.000    0.000    2.500    0.000    0.000 
#    0.000    0.000    0.000    0.000    0.000    0.000 
#
# Total GULP energy -297560.430024 kJ/mol
# GULP energy per Si atom -12398.351251 kJ/mol
# Density = 2.020529 g / cm^3
# Si number density = 20.251384 Si / 1000 Ang^3
#
#
#
# Elastic Constant Matrix: (Units=GPa)
#
#
# Indices 1 2 3 4 5 6 
#
# 1 100.1212 44.4324 53.7991 0.0000 0.0000 0.7476
# 2 44.4324 100.1212 53.7991 0.0000 0.0000 -0.7476
# 3 53.7991 53.7991 119.0330 0.0000 0.0000 0.0000
# 4 0.0000 0.0000 0.0000 36.1549 0.0000 0.0000
# 5 0.0000 0.0000 0.0000 0.0000 36.1549 0.0000
# 6 0.7476 -0.7476 0.0000 0.0000 0.0000 34.0666
#
#
#
# Elastic Compliance Matrix: (Units=1/GPa)
#
#
# Indices 1 2 3 4 5 6 
#
# 1 0.014196 -0.003771 -0.004712 0.000000 0.000000 -0.000394
# 2 -0.003771 0.014196 -0.004712 0.000000 0.000000 0.000394
# 3 -0.004712 -0.004712 0.012660 0.000000 0.000000 0.000000
# 4 0.000000 0.000000 0.000000 0.027659 0.000000 0.000000
# 5 0.000000 0.000000 0.000000 0.000000 0.027659 0.000000
# 6 -0.000394 0.000394 0.000000 0.000000 0.000000 0.029372
#
#
# Mechanical properties :
#
#
# Convention : Reuss Voigt Hill
#
# Bulk Modulus (GPa) = 68.19821 69.25963 68.72892
# Shear Modulus (GPa) = 31.84321 32.42491 32.13406
#
# Velocity S-wave (km/s) = 3.96965 4.00574 3.98774
# Velocity P-wave (km/s) = 7.39998 7.46115 7.43063
#
# Compressibility (1/GPa) = 0.01466314
#
# Stress axis : x y z
#
# Youngs Moduli (GPa) = 70.44090 70.44090 78.98772
#
# Poissons Ratio (x) = 0.26565 0.37217
# Poissons Ratio (y) = 0.26565 0.37217
# Poissons Ratio (z) = 0.33190 0.33190
#
# Static dielectric constant tensor:
#      x y z
#    x 3.806740 0.000000 0.000000 
#    y 0.000000 3.806740 0.000000 
#    z 0.000000 0.000000 3.732970 
# 
# 
# High freq. dielectric constant tensor:
#      x y z
#    x 1.789800 0.000000 0.000000 
#    y 0.000000 1.789800 0.000000 
#    z 0.000000 0.000000 1.791910 
# 
# From -- ./inp_files/1787.got.cif
#   From: 2010.03.12/outbox.cif.g09.slc.cpg/sg82_1_cif.got.tgz:1787.got - 2010.04.08 20:02:50.
