data_PCOD8302922
_publ_section_title
;
Structure prediction by ZEFSAII (Michael W. Deem and Ramdas Pophale) SiO2 
 PCOD8302922
Probable space group: P 4/M
;
_chemical_formula_sum "Si O2"
_cell_formula_units_Z 40
_cell_length_a 14.063274
_cell_length_b 14.063274
_cell_length_c 9.712180
_cell_angle_alpha 90.000000
_cell_angle_beta 90.000000
_cell_angle_gamma 90.000000
_cell_volume 1920.832961
_symmetry_space_group_name_H-M "P 4/M"
_symmetry_group_IT_number 83
_symmetry_cell_setting 'tetragonal'
loop_
_space_group_symop_operation_xyz
x,y,z
-y,x,z
-x,-y,z
y,-x,z
-x,-y,-z
y,-x,-z
x,y,-z
-y,x,-z
loop_
_atom_site_type_symbol
_atom_site_label
_atom_site_fract_x
_atom_site_fract_y
_atom_site_fract_z
Si Si1 0.992252 0.609713 0.339048
Si Si2 0.359234 0.451616 0.163465
Si Si3 0.040947 0.849186 0.000000
Si Si4 0.665961 0.184532 0.160222
Si Si5 0.866402 0.242150 0.753437
Si Si6 0.881800 0.897735 0.500000
O O1 0.968342 0.621638 0.500000
O O2 0.909373 0.660845 0.252654
O O3 0.000000 0.500000 0.295806
O O4 0.094788 0.658019 0.306590
O O5 0.442113 0.380304 0.218689
O O6 0.255516 0.417315 0.212503
O O7 0.362664 0.448322 0.000000
O O8 0.054304 0.788087 0.863691
O O9 0.933580 0.883292 0.000000
O O10 0.763190 0.245761 0.176307
O O11 0.654658 0.155555 0.000000
O O12 0.854666 0.164444 0.634994
O O13 0.990013 0.866376 0.500000
#
# Coordination Sequence:
#
# PCOD8302922 Si02
#       6
#     8   8   4   8   8   4
#     4  11  27  48  67  93 132 179 226 273 329 395
#     4   8  16  34  61  92 127 160 203 260 324 395
#     4  11  22  38  61  90 130 161 201 268 328 372
#     4  11  24  40  68  99 131 170 215 271 333 394
#     4  12  24  40  63  90 129 168 218 266 320 393
#     4  11  22  38  63  90 118 165 221 262 310 378
#
# _framework density 20.824297999999999
#
# number of rings (size 3 to 8) (size 9 to 14) (size 15 to 20)
#    0.000    1.400    2.000    4.200    5.600    2.000 
#    0.000    0.000    0.000    0.000    0.000    1.400 
#    0.000    0.000    0.000    0.000    0.000    0.000 
#
# Total GULP energy -495992.711385 kJ/mol
# GULP energy per Si atom -12399.817785 kJ/mol
# Density = 2.077690 g / cm^3
# Si number density = 20.824298 Si / 1000 Ang^3
#
#
#
# Elastic Constant Matrix: (Units=GPa)
#
#
# Indices 1 2 3 4 5 6 
#
# 1 56.2262 49.0624 20.5067 0.0000 0.0000 18.3276
# 2 49.0624 56.2262 20.5067 0.0000 0.0000 -18.3276
# 3 20.5067 20.5067 93.1156 0.0000 0.0000 0.0000
# 4 0.0000 0.0000 0.0000 23.0205 0.0000 0.0000
# 5 0.0000 0.0000 0.0000 0.0000 23.0205 0.0000
# 6 18.3276 -18.3276 0.0000 0.0000 0.0000 23.8118
#
#
#
# Elastic Compliance Matrix: (Units=1/GPa)
#
#
# Indices 1 2 3 4 5 6 
#
# 1 -0.018559 0.028948 -0.002288 0.000000 0.000000 0.036566
# 2 0.028948 -0.018559 -0.002288 0.000000 0.000000 -0.036566
# 3 -0.002288 -0.002288 0.011747 0.000000 0.000000 0.000000
# 4 0.000000 0.000000 0.000000 0.043439 0.000000 0.000000
# 5 0.000000 0.000000 0.000000 0.000000 0.043439 0.000000
# 6 0.036566 -0.036566 0.000000 0.000000 0.000000 -0.014293
#
#
# Mechanical properties :
#
#
# Convention : Reuss Voigt Hill
#
# Bulk Modulus (GPa) = 42.78409 42.85776 42.82093
# Shear Modulus (GPa) = 798.67411 21.67006 410.17208
#
# Velocity S-wave (km/s) = 19.60517 3.22935 14.04976
# Velocity P-wave (km/s) = 23.08838 5.87625 16.84642
#
# Compressibility (1/GPa) = 0.02337317
#
# Stress axis : x y z
#
# Youngs Moduli (GPa) = -53.88087 -53.88087 85.12752
#
# Poissons Ratio (x) = 1.55976 0.19477
# Poissons Ratio (y) = 1.55976 0.19477
# Poissons Ratio (z) = -0.12328 -0.12328
#
# Static dielectric constant tensor:
#      x y z
#    x 3.839330 0.000000 0.000000 
#    y 0.000000 3.839330 0.000000 
#    z 0.000000 0.000000 3.598050 
# 
# 
# High freq. dielectric constant tensor:
#      x y z
#    x 1.817300 0.000000 0.000000 
#    y 0.000000 1.817300 0.000000 
#    z 0.000000 0.000000 1.800240 
# 
# From -- ./inp_files/723.got.cif
#   From: 2010.03.12/outbox.cif.g09.slc.cpg/sg83_1_cif.got.tgz:723.got - 2010.04.08 20:05:18.
