data_PCOD8302036
_publ_section_title
;
Structure prediction by ZEFSAII (Michael W. Deem and Ramdas Pophale) SiO2 
 PCOD8302036
Probable space group: P 43
;
_chemical_formula_sum "Si O2"
_cell_formula_units_Z 20
_cell_length_a 11.787623
_cell_length_b 11.787623
_cell_length_c 7.241610
_cell_angle_alpha 90.000000
_cell_angle_beta 90.000000
_cell_angle_gamma 90.000000
_cell_volume 1006.207632
_symmetry_space_group_name_H-M "P 43"
_symmetry_group_IT_number 78
_symmetry_cell_setting 'tetragonal'
loop_
_space_group_symop_operation_xyz
x,y,z
-y,x,3/4+z
-x,-y,1/2+z
y,-x,1/4+z
loop_
_atom_site_type_symbol
_atom_site_label
_atom_site_fract_x
_atom_site_fract_y
_atom_site_fract_z
Si Si1 0.558180 0.357348 0.286080
Si Si2 0.145823 0.537369 0.332829
Si Si3 0.786239 0.328601 0.482886
Si Si4 0.041276 0.629304 0.690881
Si Si5 0.142637 0.060663 0.612109
O O1 0.598451 0.446599 0.134801
O O2 0.536460 0.241746 0.178900
O O3 0.653558 0.332536 0.438678
O O4 0.199112 0.623877 0.187415
O O5 0.078672 0.612773 0.480711
O O6 0.065087 0.449713 0.229585
O O7 0.855769 0.403566 0.331347
O O8 0.834126 0.199250 0.474847
O O9 0.009244 0.762232 0.721867
O O10 0.034941 0.105958 0.504312
#
# Coordination Sequence:
#
# PCOD8302036 Si02
#       5
#     4   4   4   4   4
#     4  12  24  43  66 102 140 174 221 275 336 403
#     4  12  22  44  71  96 132 178 223 272 330 396
#     4  10  24  42  65  97 129 176 221 269 334 388
#     4  10  22  42  66  98 126 174 223 271 321 401
#     4  10  22  43  62  95 133 170 220 281 329 392
#
# _framework density 19.876612999999999
#
# number of rings (size 3 to 8) (size 9 to 14) (size 15 to 20)
#    1.200    0.000    4.000    2.400    0.000    1.600 
#    0.000    6.000    0.000    0.000    0.000    0.000 
#    0.000    0.000    0.000    0.000    0.000    0.000 
#
# Total GULP energy -247980.942356 kJ/mol
# GULP energy per Si atom -12399.047118 kJ/mol
# Density = 1.983137 g / cm^3
# Si number density = 19.876613 Si / 1000 Ang^3
#
#
#
# Elastic Constant Matrix: (Units=GPa)
#
#
# Indices 1 2 3 4 5 6 
#
# 1 62.0242 52.2480 38.2151 0.0000 0.0000 7.4744
# 2 52.2480 62.0242 38.2151 0.0000 0.0000 -7.4744
# 3 38.2151 38.2151 117.1703 0.0000 0.0000 0.0000
# 4 0.0000 0.0000 0.0000 37.7840 0.0000 0.0000
# 5 0.0000 0.0000 0.0000 0.0000 37.7840 0.0000
# 6 7.4744 -7.4744 0.0000 0.0000 0.0000 7.0842
#
#
#
# Elastic Compliance Matrix: (Units=1/GPa)
#
#
# Indices 1 2 3 4 5 6 
#
# 1 -0.077794 0.088986 -0.003650 0.000000 0.000000 0.175966
# 2 0.088986 -0.077794 -0.003650 0.000000 0.000000 -0.175966
# 3 -0.003650 -0.003650 0.010916 0.000000 0.000000 0.000000
# 4 0.000000 0.000000 0.000000 0.026466 0.000000 0.000000
# 5 0.000000 0.000000 0.000000 0.000000 0.026466 0.000000
# 6 0.175966 -0.175966 0.000000 0.000000 0.000000 -0.230155
#
#
# Mechanical properties :
#
#
# Convention : Reuss Voigt Hill
#
# Bulk Modulus (GPa) = 53.47840 55.39726 54.43783
# Shear Modulus (GPa) = -10.43770 24.03313 6.79771
#
# Velocity S-wave (km/s) = -2.29405 3.48101 1.85132
# Velocity P-wave (km/s) = 4.46618 6.63985 5.65837
#
# Compressibility (1/GPa) = 0.01869914
#
# Stress axis : x y z
#
# Youngs Moduli (GPa) = -12.85449 -12.85449 91.61033
#
# Poissons Ratio (x) = 1.14388 0.33442
# Poissons Ratio (y) = 1.14388 0.33442
# Poissons Ratio (z) = -0.04693 -0.04693
#
# Static dielectric constant tensor:
#      x y z
#    x 3.600440 0.000000 0.000000 
#    y 0.000000 3.600440 0.000000 
#    z 0.000000 0.000000 3.555650 
# 
# 
# High freq. dielectric constant tensor:
#      x y z
#    x 1.777740 0.000000 0.000000 
#    y 0.000000 1.777740 0.000000 
#    z 0.000000 0.000000 1.777570 
# 
# From -- ./inp_files/491.got.cif
#   From: 2010.03.12/outbox.cif.g09.slc.cpg/sg78_cif.got.tgz:491.got - 2010.04.16 16:37:20.
