data_PCOD8302762
_publ_section_title
;
Structure prediction by ZEFSAII (Michael W. Deem and Ramdas Pophale) SiO2 
 PCOD8302762
Probable space group: P 4/M
;
_chemical_formula_sum "Si O2"
_cell_formula_units_Z 52
_cell_length_a 17.647070
_cell_length_b 17.647070
_cell_length_c 8.079878
_cell_angle_alpha 90.000000
_cell_angle_beta 90.000000
_cell_angle_gamma 90.000000
_cell_volume 2516.228170
_symmetry_space_group_name_H-M "P 4/M"
_symmetry_group_IT_number 83
_symmetry_cell_setting 'tetragonal'
loop_
_space_group_symop_operation_xyz
x,y,z
-y,x,z
-x,-y,z
y,-x,z
-x,-y,-z
y,-x,-z
x,y,-z
-y,x,-z
loop_
_atom_site_type_symbol
_atom_site_label
_atom_site_fract_x
_atom_site_fract_y
_atom_site_fract_z
Si Si1 0.575151 0.597151 0.000000
Si Si2 0.802989 0.529301 0.693152
Si Si3 0.979868 0.118330 0.197086
Si Si4 0.039074 0.425926 0.191510
Si Si5 0.335503 0.362812 0.312003
Si Si6 0.951200 0.284266 0.809665
Si Si7 0.355461 0.195631 0.313467
O O1 0.486720 0.605846 0.000000
O O2 0.600210 0.634237 0.172751
O O3 0.819371 0.533603 0.500000
O O4 0.871269 0.570055 0.787593
O O5 0.729935 0.579048 0.738976
O O6 0.793398 0.442207 0.751723
O O7 0.965532 0.202077 0.274726
O O8 0.061297 0.086573 0.258241
O O9 0.977395 0.121119 0.000000
O O10 0.000000 0.500000 0.274972
O O11 0.004760 0.349119 0.273085
O O12 0.016404 0.424317 0.000000
O O13 0.366060 0.380756 0.500000
O O14 0.309611 0.274980 0.306868
O O15 0.863796 0.309639 0.796609
O O16 0.972967 0.275367 0.000000
O O17 0.358147 0.164257 0.500000
#
# Coordination Sequence:
#
# PCOD8302762 Si02
#       7
#     4   8   8   8   8   8   8
#     4  11  24  40  62  92 115 153 205 246 306 372
#     4  10  21  37  59  81 109 156 199 237 295 361
#     4   8  15  30  52  78 109 145 186 235 285 339
#     4  10  20  34  51  81 118 150 186 238 294 347
#     4  10  23  42  60  88 122 156 202 256 306 360
#     4  10  20  33  54  84 114 148 191 240 294 355
#     4  10  21  37  57  80 112 152 193 239 297 355
#
# _framework density 20.665852000000001
#
# number of rings (size 3 to 8) (size 9 to 14) (size 15 to 20)
#    0.000    2.231    1.538    1.385    2.154    4.000 
#    0.000    2.308    0.000    0.923    0.000    1.077 
#    0.000    0.000    0.000    0.000    0.000    0.000 
#
# Total GULP energy -644496.428411 kJ/mol
# GULP energy per Si atom -12394.162085 kJ/mol
# Density = 2.061882 g / cm^3
# Si number density = 20.665852 Si / 1000 Ang^3
#
#
#
# Elastic Constant Matrix: (Units=GPa)
#
#
# Indices 1 2 3 4 5 6 
#
# 1 145.2447 51.5646 12.1563 0.0000 0.0000 5.6328
# 2 51.5646 145.2447 12.1563 0.0000 0.0000 -5.6328
# 3 12.1563 12.1563 39.2356 0.0000 0.0000 0.0000
# 4 0.0000 0.0000 0.0000 14.9025 0.0000 0.0000
# 5 0.0000 0.0000 0.0000 0.0000 14.9025 0.0000
# 6 5.6328 -5.6328 0.0000 0.0000 0.0000 37.4548
#
#
#
# Elastic Compliance Matrix: (Units=1/GPa)
#
#
# Indices 1 2 3 4 5 6 
#
# 1 0.008077 -0.002794 -0.001637 0.000000 0.000000 -0.001635
# 2 -0.002794 0.008077 -0.001637 0.000000 0.000000 0.001635
# 3 -0.001637 -0.001637 0.026501 0.000000 0.000000 0.000000
# 4 0.000000 0.000000 0.000000 0.067103 0.000000 0.000000
# 5 0.000000 0.000000 0.000000 0.000000 0.067103 0.000000
# 6 -0.001635 0.001635 0.000000 0.000000 0.000000 0.027191
#
#
# Mechanical properties :
#
#
# Convention : Reuss Voigt Hill
#
# Bulk Modulus (GPa) = 32.76505 53.49770 43.13138
# Shear Modulus (GPa) = 22.08863 30.37516 26.23190
#
# Velocity S-wave (km/s) = 3.27287 3.83799 3.56664
# Velocity P-wave (km/s) = 5.49284 6.75155 6.15446
#
# Compressibility (1/GPa) = 0.03052032
#
# Stress axis : x y z
#
# Youngs Moduli (GPa) = 123.80442 123.80442 37.73385
#
# Poissons Ratio (x) = 0.34591 0.06177
# Poissons Ratio (y) = 0.34591 0.06177
# Poissons Ratio (z) = 0.20266 0.20266
#
# Static dielectric constant tensor:
#      x y z
#    x 3.857850 0.000000 0.000000 
#    y 0.000000 3.857850 0.000000 
#    z 0.000000 0.000000 3.557760 
# 
# 
# High freq. dielectric constant tensor:
#      x y z
#    x 1.808430 0.000000 0.000000 
#    y 0.000000 1.808430 0.000000 
#    z 0.000000 0.000000 1.782300 
# 
# From -- ./inp_files/989.got.cif
#   From: 2010.03.12/outbox.cif.g09.slc.cpg/sg83_1_cif.got.tgz:989.got - 2010.04.08 20:05:18.
