data_PCOD8302050
_publ_section_title
;
Structure prediction by ZEFSAII (Michael W. Deem and Ramdas Pophale) SiO2 
 PCOD8302050
Probable space group: P 43
;
_chemical_formula_sum "Si O2"
_cell_formula_units_Z 12
_cell_length_a 4.976043
_cell_length_b 4.976043
_cell_length_c 17.684618
_cell_angle_alpha 90.000000
_cell_angle_beta 90.000000
_cell_angle_gamma 90.000000
_cell_volume 437.888896
_symmetry_space_group_name_H-M "P 43"
_symmetry_group_IT_number 78
_symmetry_cell_setting 'tetragonal'
loop_
_space_group_symop_operation_xyz
x,y,z
-y,x,3/4+z
-x,-y,1/2+z
y,-x,1/4+z
loop_
_atom_site_type_symbol
_atom_site_label
_atom_site_fract_x
_atom_site_fract_y
_atom_site_fract_z
Si Si1 0.479142 0.509627 0.281450
Si Si2 0.710163 0.151753 0.908594
Si Si3 0.211279 0.215005 0.653550
O O1 0.259570 0.648170 0.337114
O O2 0.326971 0.270255 0.235587
O O3 0.727133 0.377009 0.326920
O O4 0.596065 0.735360 0.225100
O O5 0.406772 0.045074 0.906500
O O6 0.911938 0.900993 0.905435
#
# Coordination Sequence:
#
# PCOD8302050 Si02
#       3
#     4   4   4
#     4  10  28  50  76 126 156 210 276 334 404 490
#     4  11  28  49  85 114 166 212 272 336 410 482
#     4  11  28  49  85 114 166 212 272 336 410 482
#
# _framework density 27.404214
#
# number of rings (size 3 to 8) (size 9 to 14) (size 15 to 20)
#    0.000    1.333    0.000    0.000   18.667    5.333 
#    0.000   10.000    0.000    0.000    0.000    0.000 
#    0.000    0.000    0.000    0.000    0.000    0.000 
#
# Total GULP energy -148853.575240 kJ/mol
# GULP energy per Si atom -12404.464603 kJ/mol
# Density = 2.734184 g / cm^3
# Si number density = 27.404214 Si / 1000 Ang^3
#
#
#
# Elastic Constant Matrix: (Units=GPa)
#
#
# Indices 1 2 3 4 5 6 
#
# 1 91.1583 24.0095 36.3720 0.0000 0.0000 -9.0910
# 2 24.0095 91.1583 36.3720 0.0000 0.0000 9.0910
# 3 36.3720 36.3720 180.4621 0.0000 0.0000 0.0000
# 4 0.0000 0.0000 0.0000 11.6970 0.0000 0.0000
# 5 0.0000 0.0000 0.0000 0.0000 11.6970 0.0000
# 6 -9.0910 9.0910 0.0000 0.0000 0.0000 77.7500
#
#
#
# Elastic Compliance Matrix: (Units=1/GPa)
#
#
# Indices 1 2 3 4 5 6 
#
# 1 0.012664 -0.002715 -0.002005 0.000000 0.000000 0.001798
# 2 -0.002715 0.012664 -0.002005 0.000000 0.000000 -0.001798
# 3 -0.002005 -0.002005 0.006350 0.000000 0.000000 0.000000
# 4 0.000000 0.000000 0.000000 0.085492 0.000000 0.000000
# 5 0.000000 0.000000 0.000000 0.000000 0.085492 0.000000
# 6 0.001798 -0.001798 0.000000 0.000000 0.000000 0.013282
#
#
# Mechanical properties :
#
#
# Convention : Reuss Voigt Hill
#
# Bulk Modulus (GPa) = 54.86196 61.80954 58.33575
# Shear Modulus (GPa) = 21.23402 37.96383 29.59892
#
# Velocity S-wave (km/s) = 2.78662 3.72604 3.29003
# Velocity P-wave (km/s) = 5.51513 6.41209 5.98045
#
# Compressibility (1/GPa) = 0.01822757
#
# Stress axis : x y z
#
# Youngs Moduli (GPa) = 78.96144 78.96144 157.48819
#
# Poissons Ratio (x) = 0.21436 0.31582
# Poissons Ratio (y) = 0.21436 0.31582
# Poissons Ratio (z) = 0.15834 0.15834
#
# Static dielectric constant tensor:
#      x y z
#    x 4.667790 0.000000 0.000000 
#    y 0.000000 4.667790 0.000000 
#    z 0.000000 0.000000 5.352000 
# 
# 
# High freq. dielectric constant tensor:
#      x y z
#    x 2.101610 0.000000 0.000000 
#    y 0.000000 2.101610 0.000000 
#    z 0.000000 0.000000 2.123070 
# 
# From -- ./inp_files/1170.got.cif
#   From: 2010.03.12/outbox.cif.g09.slc.cpg/sg78_cif.got.tgz:1170.got - 2010.04.16 16:37:20.
