data_PCOD8302588
_publ_section_title
;
Structure prediction by ZEFSAII (Michael W. Deem and Ramdas Pophale) SiO2 
 PCOD8302588
Probable space group: I -4 
;
_chemical_formula_sum "Si O2"
_cell_formula_units_Z 36
_cell_length_a 14.174762
_cell_length_b 14.174762
_cell_length_c 8.415411
_cell_angle_alpha 90.000000
_cell_angle_beta 90.000000
_cell_angle_gamma 90.000000
_cell_volume 1690.857011
_symmetry_space_group_name_H-M "I -4 "
_symmetry_group_IT_number 82
_symmetry_cell_setting 'tetragonal'
loop_
_space_group_symop_operation_xyz
x,y,z
y,-x,-z
-x,-y,z
-y,x,-z
1/2+x,1/2+y,1/2+z
1/2+y,1/2-x,1/2-z
1/2-x,1/2-y,1/2+z
1/2-y,1/2+x,1/2-z
loop_
_atom_site_type_symbol
_atom_site_label
_atom_site_fract_x
_atom_site_fract_y
_atom_site_fract_z
Si Si1 0.500000 0.000000 0.750000
Si Si2 0.798755 0.807102 0.836548
Si Si3 0.321767 0.519931 0.846682
Si Si4 0.000000 0.000000 0.500000
Si Si5 0.787511 0.513792 0.164006
Si Si6 0.323593 0.656954 0.299884
O O1 0.504406 0.098342 0.848725
O O2 0.738306 0.712829 0.817328
O O3 0.902025 0.781336 0.770976
O O4 0.742454 0.886674 0.738670
O O5 0.806669 0.828759 0.020963
O O6 0.360213 0.430290 0.750821
O O7 0.421245 0.563068 0.910373
O O8 0.246395 0.498280 0.983094
O O9 0.740585 0.435715 0.279289
#
# Coordination Sequence:
#
# PCOD8302588 Si02
#       6
#     2   8   8   2   8   8
#     4  12  28  40  72  98 140 184 222 264 340 400
#     4  12  25  43  69 101 136 180 230 283 340 404
#     4  12  23  44  70 103 136 174 228 287 343 400
#     4  12  20  36  74 100 128 176 210 292 348 388
#     4  12  23  45  70  98 137 180 226 279 343 403
#     4  12  25  43  69 101 136 180 230 283 340 404
#
# _framework density 21.290976000000001
#
# number of rings (size 3 to 8) (size 9 to 14) (size 15 to 20)
#    0.000    0.000    6.667    4.000    0.000    0.000 
#    0.000    2.222    0.000    2.667    0.000    0.000 
#    0.000    0.000    0.000    0.000    0.000    0.000 
#
# Total GULP energy -223146.047149 kJ/mol
# GULP energy per Si atom -12397.002619 kJ/mol
# Density = 2.124252 g / cm^3
# Si number density = 21.290976 Si / 1000 Ang^3
#
#
#
# Elastic Constant Matrix: (Units=GPa)
#
#
# Indices 1 2 3 4 5 6 
#
# 1 115.2727 7.9296 15.2868 0.0000 0.0000 -0.2731
# 2 7.9296 115.2727 15.2868 0.0000 0.0000 0.2731
# 3 15.2868 15.2868 105.9048 0.0000 0.0000 0.0000
# 4 0.0000 0.0000 0.0000 24.4480 0.0000 0.0000
# 5 0.0000 0.0000 0.0000 0.0000 24.4480 0.0000
# 6 -0.2731 0.2731 0.0000 0.0000 0.0000 22.3166
#
#
#
# Elastic Compliance Matrix: (Units=1/GPa)
#
#
# Indices 1 2 3 4 5 6 
#
# 1 0.008867 -0.000449 -0.001215 0.000000 0.000000 0.000114
# 2 -0.000449 0.008867 -0.001215 0.000000 0.000000 -0.000114
# 3 -0.001215 -0.001215 0.009793 0.000000 0.000000 0.000000
# 4 0.000000 0.000000 0.000000 0.040903 0.000000 0.000000
# 5 0.000000 0.000000 0.000000 0.000000 0.040903 0.000000
# 6 0.000114 -0.000114 0.000000 0.000000 0.000000 0.044812
#
#
# Mechanical properties :
#
#
# Convention : Reuss Voigt Hill
#
# Bulk Modulus (GPa) = 45.93635 45.93963 45.93799
# Shear Modulus (GPa) = 29.91111 34.10566 32.00838
#
# Velocity S-wave (km/s) = 3.75223 4.00670 3.88155
# Velocity P-wave (km/s) = 6.35568 6.55963 6.45846
#
# Compressibility (1/GPa) = 0.02176925
#
# Stress axis : x y z
#
# Youngs Moduli (GPa) = 112.77279 112.77279 102.11126
#
# Poissons Ratio (x) = 0.05065 0.12408
# Poissons Ratio (y) = 0.05065 0.12408
# Poissons Ratio (z) = 0.13703 0.13703
#
# Static dielectric constant tensor:
#      x y z
#    x 4.062470 0.000000 0.000000 
#    y 0.000000 4.062470 0.000000 
#    z 0.000000 0.000000 3.686440 
# 
# 
# High freq. dielectric constant tensor:
#      x y z
#    x 1.849670 0.000000 0.000000 
#    y 0.000000 1.849670 0.000000 
#    z 0.000000 0.000000 1.826200 
# 
# From -- ./inp_files/863.got.cif
#   From: 2010.03.12/outbox.cif.g09.slc.cpg/sg82_1_cif.got.tgz:863.got - 2010.04.08 20:02:50.
