data_PCOD8302410
_publ_section_title
;
Structure prediction by ZEFSAII (Michael W. Deem and Ramdas Pophale) SiO2 
 PCOD8302410
Probable space group: I -4 
;
_chemical_formula_sum "Si O2"
_cell_formula_units_Z 28
_cell_length_a 12.622303
_cell_length_b 12.622303
_cell_length_c 8.386830
_cell_angle_alpha 90.000000
_cell_angle_beta 90.000000
_cell_angle_gamma 90.000000
_cell_volume 1336.211000
_symmetry_space_group_name_H-M "I -4 "
_symmetry_group_IT_number 82
_symmetry_cell_setting 'tetragonal'
loop_
_space_group_symop_operation_xyz
x,y,z
y,-x,-z
-x,-y,z
-y,x,-z
1/2+x,1/2+y,1/2+z
1/2+y,1/2-x,1/2-z
1/2-x,1/2-y,1/2+z
1/2-y,1/2+x,1/2-z
loop_
_atom_site_type_symbol
_atom_site_label
_atom_site_fract_x
_atom_site_fract_y
_atom_site_fract_z
Si Si1 0.500000 0.500000 0.500000
Si Si2 0.651008 0.030441 0.822080
Si Si3 0.944566 0.354293 0.818979
Si Si4 0.000000 0.000000 0.500000
Si Si5 0.872633 0.878066 0.244174
O O1 0.403691 0.454788 0.600643
O O2 0.562367 0.122414 0.804764
O O3 0.762030 0.080775 0.776018
O O4 0.653556 0.982813 0.999151
O O5 0.867264 0.454876 0.798657
O O6 0.876060 0.254439 0.759021
O O7 0.082184 0.071537 0.403942
#
# Coordination Sequence:
#
# PCOD8302410 Si02
#       5
#     2   8   8   2   8
#     4  10  20  46  60 102 136 178 212 290 332 414
#     4  11  25  45  72 101 140 179 231 279 339 412
#     4  11  25  45  72 101 140 179 231 279 339 412
#     4  10  28  38  68 106 148 166 240 286 336 418
#     4  11  24  44  70  98 141 181 223 284 347 395
#
# _framework density 20.954775000000001
#
# number of rings (size 3 to 8) (size 9 to 14) (size 15 to 20)
#    0.000    1.143    2.857    3.429    8.000    6.857 
#    0.000    0.000    0.000    0.000    0.000    0.000 
#    0.000    0.000    0.000    0.000    0.000    0.000 
#
# Total GULP energy -173603.491177 kJ/mol
# GULP energy per Si atom -12400.249370 kJ/mol
# Density = 2.090708 g / cm^3
# Si number density = 20.954775 Si / 1000 Ang^3
#
#
#
# Elastic Constant Matrix: (Units=GPa)
#
#
# Indices 1 2 3 4 5 6 
#
# 1 99.8873 25.2398 56.4051 0.0000 0.0000 4.5858
# 2 25.2398 99.8873 56.4051 0.0000 0.0000 -4.5858
# 3 56.4051 56.4051 114.4630 0.0000 0.0000 0.0000
# 4 0.0000 0.0000 0.0000 72.1454 0.0000 0.0000
# 5 0.0000 0.0000 0.0000 0.0000 72.1454 0.0000
# 6 4.5858 -4.5858 0.0000 0.0000 0.0000 43.1452
#
#
#
# Elastic Compliance Matrix: (Units=1/GPa)
#
#
# Indices 1 2 3 4 5 6 
#
# 1 0.013977 0.000404 -0.007087 0.000000 0.000000 -0.001443
# 2 0.000404 0.013977 -0.007087 0.000000 0.000000 0.001443
# 3 -0.007087 -0.007087 0.015721 0.000000 0.000000 0.000000
# 4 0.000000 0.000000 0.000000 0.013861 0.000000 0.000000
# 5 0.000000 0.000000 0.000000 0.000000 0.013861 0.000000
# 6 -0.001443 0.001443 0.000000 0.000000 0.000000 0.023484
#
#
# Mechanical properties :
#
#
# Convention : Reuss Voigt Hill
#
# Bulk Modulus (GPa) = 61.97294 65.59306 63.78300
# Shear Modulus (GPa) = 39.12391 49.23306 44.17848
#
# Velocity S-wave (km/s) = 4.32564 4.85241 4.59658
# Velocity P-wave (km/s) = 7.38830 7.92242 7.66002
#
# Compressibility (1/GPa) = 0.01613607
#
# Stress axis : x y z
#
# Youngs Moduli (GPa) = 71.54487 71.54487 63.61018
#
# Poissons Ratio (x) = -0.02888 0.45078
# Poissons Ratio (y) = -0.02888 0.45078
# Poissons Ratio (z) = 0.50701 0.50701
#
# Static dielectric constant tensor:
#      x y z
#    x 3.664360 0.000000 0.000000 
#    y 0.000000 3.664360 0.000000 
#    z 0.000000 0.000000 3.930960 
# 
# 
# High freq. dielectric constant tensor:
#      x y z
#    x 1.825700 0.000000 0.000000 
#    y 0.000000 1.825700 0.000000 
#    z 0.000000 0.000000 1.830420 
# 
# From -- ./inp_files/723.got.cif
#   From: 2010.03.12/outbox.cif.g09.slc.cpg/sg82_1_cif.got.tgz:723.got - 2010.04.08 20:02:50.
