data_PCOD8302986
_publ_section_title
;
Structure prediction by ZEFSAII (Michael W. Deem and Ramdas Pophale) SiO2 
 PCOD8302986
Probable space group: P 4/M
;
_chemical_formula_sum "Si O2"
_cell_formula_units_Z 48
_cell_length_a 8.234425
_cell_length_b 8.234425
_cell_length_c 31.868921
_cell_angle_alpha 90.000000
_cell_angle_beta 90.000000
_cell_angle_gamma 90.000000
_cell_volume 2160.896252
_symmetry_space_group_name_H-M "P 4/M"
_symmetry_group_IT_number 83
_symmetry_cell_setting 'tetragonal'
loop_
_space_group_symop_operation_xyz
x,y,z
-y,x,z
-x,-y,z
y,-x,z
-x,-y,-z
y,-x,-z
x,y,-z
-y,x,-z
loop_
_atom_site_type_symbol
_atom_site_label
_atom_site_fract_x
_atom_site_fract_y
_atom_site_fract_z
Si Si1 0.746413 0.398719 0.748047
Si Si2 0.090930 0.748533 0.576805
Si Si3 0.588155 0.753822 0.500000
Si Si4 0.500000 0.000000 0.889405
Si Si5 0.084163 0.252973 0.047394
Si Si6 0.396617 0.254798 0.347047
Si Si7 0.255727 0.080357 0.176745
O O1 0.707686 0.586414 0.756572
O O2 0.807193 0.372493 0.700486
O O3 0.890700 0.341087 0.778418
O O4 0.138188 0.620935 0.540971
O O5 0.114381 0.664421 0.622038
O O6 0.904672 0.794948 0.571994
O O7 0.401778 0.704118 0.500000
O O8 0.395746 0.879296 0.919459
O O9 0.614878 0.887255 0.860243
O O10 0.897972 0.201001 0.055460
O O11 0.105943 0.317913 0.000000
O O12 0.584288 0.292084 0.355634
O O13 0.105494 0.201376 0.172224
#
# Coordination Sequence:
#
# PCOD8302986 Si02
#       7
#     8   8   4   4   8   8   8
#     4   9  19  38  62  87 117 153 194 243 298 355
#     4  11  24  39  56  84 120 154 191 237 287 342
#     4  11  24  41  62  86 112 145 190 241 294 356
#     4  12  21  34  58  86 116 154 198 243 294 352
#     4   9  19  37  61  89 120 154 195 244 297 354
#     4   9  19  37  61  87 115 150 193 236 282 344
#     4  11  24  39  56  82 116 154 199 249 300 357
#
# _framework density 22.213004999999999
#
# number of rings (size 3 to 8) (size 9 to 14) (size 15 to 20)
#    0.000    1.917    0.000    5.250    0.000    8.000 
#    0.000    5.000    0.000    4.500    0.000    9.333 
#    0.000    0.000    0.000    0.000    0.000    0.000 
#
# Total GULP energy -595303.307789 kJ/mol
# GULP energy per Si atom -12402.152246 kJ/mol
# Density = 2.216245 g / cm^3
# Si number density = 22.213005 Si / 1000 Ang^3
#
#
#
# Elastic Constant Matrix: (Units=GPa)
#
#
# Indices 1 2 3 4 5 6 
#
# 1 63.7572 8.2449 42.0502 0.0000 0.0000 -3.9491
# 2 8.2449 63.7572 42.0502 0.0000 0.0000 3.9491
# 3 42.0502 42.0502 158.3840 0.0000 0.0000 0.0000
# 4 0.0000 0.0000 0.0000 30.6057 0.0000 0.0000
# 5 0.0000 0.0000 0.0000 0.0000 30.6057 0.0000
# 6 -3.9491 3.9491 0.0000 0.0000 0.0000 30.4549
#
#
#
# Elastic Compliance Matrix: (Units=1/GPa)
#
#
# Indices 1 2 3 4 5 6 
#
# 1 0.019242 0.000889 -0.005345 0.000000 0.000000 0.002380
# 2 0.000889 0.019242 -0.005345 0.000000 0.000000 -0.002380
# 3 -0.005345 -0.005345 0.009152 0.000000 0.000000 0.000000
# 4 0.000000 0.000000 0.000000 0.032674 0.000000 0.000000
# 5 0.000000 0.000000 0.000000 0.000000 0.032674 0.000000
# 6 0.002380 -0.002380 0.000000 0.000000 0.000000 0.033453
#
#
# Mechanical properties :
#
#
# Convention : Reuss Voigt Hill
#
# Bulk Modulus (GPa) = 35.66925 52.28768 43.97846
# Shear Modulus (GPa) = 28.50932 31.23678 29.87305
#
# Velocity S-wave (km/s) = 3.58642 3.75405 3.67119
# Velocity P-wave (km/s) = 5.76563 6.51006 6.14912
#
# Compressibility (1/GPa) = 0.02803535
#
# Stress axis : x y z
#
# Youngs Moduli (GPa) = 51.96971 51.96971 109.26810
#
# Poissons Ratio (x) = -0.04622 0.58401
# Poissons Ratio (y) = -0.04622 0.58401
# Poissons Ratio (z) = 0.27777 0.27777
#
# Static dielectric constant tensor:
#      x y z
#    x 3.853930 0.000000 0.000000 
#    y 0.000000 3.853930 0.000000 
#    z 0.000000 0.000000 4.133840 
# 
# 
# High freq. dielectric constant tensor:
#      x y z
#    x 1.864070 0.000000 0.000000 
#    y 0.000000 1.864070 0.000000 
#    z 0.000000 0.000000 1.890610 
# 
# From -- ./inp_files/3429.got.cif
#   From: 2010.03.12/outbox.cif.g09.slc.cpg/sg83_2_cif.got.tgz:3429.got - 2010.04.08 20:05:18.
