data_PCOD8302412
_publ_section_title
;
Structure prediction by ZEFSAII (Michael W. Deem and Ramdas Pophale) SiO2 
 PCOD8302412
Probable space group: I -4 
;
_chemical_formula_sum "Si O2"
_cell_formula_units_Z 32
_cell_length_a 9.007582
_cell_length_b 9.007582
_cell_length_c 18.935146
_cell_angle_alpha 90.000000
_cell_angle_beta 90.000000
_cell_angle_gamma 90.000000
_cell_volume 1536.332108
_symmetry_space_group_name_H-M "I -4 "
_symmetry_group_IT_number 82
_symmetry_cell_setting 'tetragonal'
loop_
_space_group_symop_operation_xyz
x,y,z
y,-x,-z
-x,-y,z
-y,x,-z
1/2+x,1/2+y,1/2+z
1/2+y,1/2-x,1/2-z
1/2-x,1/2-y,1/2+z
1/2-y,1/2+x,1/2-z
loop_
_atom_site_type_symbol
_atom_site_label
_atom_site_fract_x
_atom_site_fract_y
_atom_site_fract_z
Si Si1 0.583529 0.153785 0.989091
Si Si2 0.231268 0.581302 0.252129
Si Si3 0.279995 0.662977 0.103373
Si Si4 0.332656 0.526905 0.400092
O O1 0.492498 0.260941 0.937324
O O2 0.748710 0.132858 0.956228
O O3 0.500000 0.000000 0.002494
O O4 0.599068 0.234491 0.064680
O O5 0.182807 0.412921 0.237472
O O6 0.328464 0.633555 0.184333
O O7 0.332730 0.599760 0.321840
O O8 0.122636 0.741996 0.105165
O O9 0.500000 0.500000 0.426370
#
# Coordination Sequence:
#
# PCOD8302412 Si02
#       4
#     8   8   8   8
#     4  10  22  39  59  96 126 157 205 260 314 366
#     4   9  16  36  61  88 122 161 208 249 302 370
#     4  10  21  38  63  86 126 167 199 258 310 370
#     4  10  21  35  62  94 122 159 210 258 302 369
#
# _framework density 20.828828999999999
#
# number of rings (size 3 to 8) (size 9 to 14) (size 15 to 20)
#    0.000    2.250    2.500    0.000    7.000    0.500 
#    4.500    0.000    0.000    0.000    0.000    0.000 
#    0.000    0.000    0.000    0.000    0.000    0.000 
#
# Total GULP energy -198386.267748 kJ/mol
# GULP energy per Si atom -12399.141734 kJ/mol
# Density = 2.078142 g / cm^3
# Si number density = 20.828829 Si / 1000 Ang^3
#
#
#
# Elastic Constant Matrix: (Units=GPa)
#
#
# Indices 1 2 3 4 5 6 
#
# 1 76.5091 14.3556 48.7778 0.0000 0.0000 -2.4100
# 2 14.3556 76.5091 48.7778 0.0000 0.0000 2.4100
# 3 48.7778 48.7778 156.4728 0.0000 0.0000 0.0000
# 4 0.0000 0.0000 0.0000 24.4455 0.0000 0.0000
# 5 0.0000 0.0000 0.0000 0.0000 24.4455 0.0000
# 6 -2.4100 2.4100 0.0000 0.0000 0.0000 21.0314
#
#
#
# Elastic Compliance Matrix: (Units=1/GPa)
#
#
# Indices 1 2 3 4 5 6 
#
# 1 0.016388 0.000154 -0.005157 0.000000 0.000000 0.001860
# 2 0.000154 0.016388 -0.005157 0.000000 0.000000 -0.001860
# 3 -0.005157 -0.005157 0.009606 0.000000 0.000000 0.000000
# 4 0.000000 0.000000 0.000000 0.040907 0.000000 0.000000
# 5 0.000000 0.000000 0.000000 0.000000 0.040907 0.000000
# 6 0.001860 -0.001860 0.000000 0.000000 0.000000 0.047974
#
#
# Mechanical properties :
#
#
# Convention : Reuss Voigt Hill
#
# Bulk Modulus (GPa) = 45.32511 59.25707 52.29109
# Shear Modulus (GPa) = 25.01972 27.15647 26.08810
#
# Velocity S-wave (km/s) = 3.46960 3.61472 3.54291
# Velocity P-wave (km/s) = 6.15296 6.77738 6.47270
#
# Compressibility (1/GPa) = 0.02206282
#
# Stress axis : x y z
#
# Youngs Moduli (GPa) = 61.02189 61.02189 104.10320
#
# Poissons Ratio (x) = -0.00940 0.53682
# Poissons Ratio (y) = -0.00940 0.53682
# Poissons Ratio (z) = 0.31467 0.31467
#
# Static dielectric constant tensor:
#      x y z
#    x 3.721050 0.000000 0.000000 
#    y 0.000000 3.721050 0.000000 
#    z 0.000000 0.000000 4.178400 
# 
# 
# High freq. dielectric constant tensor:
#      x y z
#    x 1.791670 0.000000 0.000000 
#    y 0.000000 1.791670 0.000000 
#    z 0.000000 0.000000 1.831760 
# 
# From -- ./inp_files/2860.got.cif
#   From: 2010.03.12/outbox.cif.g09.slc.cpg/sg82_2_cif.got.tgz:2860.got - 2010.04.08 20:02:50.
