data_PCOD8302459
_publ_section_title
;
Structure prediction by ZEFSAII (Michael W. Deem and Ramdas Pophale) SiO2 
 PCOD8302459
Probable space group: I -4 
;
_chemical_formula_sum "Si O2"
_cell_formula_units_Z 60
_cell_length_a 11.659822
_cell_length_b 11.659822
_cell_length_c 19.870744
_cell_angle_alpha 90.000000
_cell_angle_beta 90.000000
_cell_angle_gamma 90.000000
_cell_volume 2701.456441
_symmetry_space_group_name_H-M "I -4 "
_symmetry_group_IT_number 82
_symmetry_cell_setting 'tetragonal'
loop_
_space_group_symop_operation_xyz
x,y,z
y,-x,-z
-x,-y,z
-y,x,-z
1/2+x,1/2+y,1/2+z
1/2+y,1/2-x,1/2-z
1/2-x,1/2-y,1/2+z
1/2-y,1/2+x,1/2-z
loop_
_atom_site_type_symbol
_atom_site_label
_atom_site_fract_x
_atom_site_fract_y
_atom_site_fract_z
Si Si1 0.730090 0.900401 0.364697
Si Si2 0.723554 0.221242 0.999483
Si Si3 0.631781 0.493439 0.653079
Si Si4 0.583172 0.600880 0.089048
Si Si5 0.794112 0.159168 0.765818
Si Si6 0.213337 0.478591 0.532511
Si Si7 0.180397 0.089347 0.730728
Si Si8 0.500000 0.000000 0.113394
O O1 0.734357 0.805157 0.422195
O O2 0.795454 0.849061 0.302261
O O3 0.785229 0.014074 0.395192
O O4 0.600172 0.938229 0.343094
O O5 0.640298 0.309143 0.958017
O O6 0.860478 0.239494 0.996890
O O7 0.699393 0.086016 0.979272
O O8 0.500000 0.500000 0.632129
O O9 0.681411 0.617376 0.674079
O O10 0.703485 0.460854 0.587850
O O11 0.647708 0.408550 0.716920
O O12 0.500000 0.500000 0.057604
O O13 0.624704 0.550852 0.160492
O O14 0.677302 0.219541 0.785651
O O15 0.766674 0.024597 0.762461
O O16 0.093033 0.442636 0.564557
#
# Coordination Sequence:
#
# PCOD8302459 Si02
#       8
#     8   8   8   8   8   8   8   4
#     4  11  23  43  65  97 136 180 234 291 351 417
#     4  11  27  41  69 103 138 192 232 290 352 436
#     4  10  22  42  70  98 129 178 228 288 342 419
#     4  12  23  43  72 100 135 186 243 283 352 432
#     4  11  23  42  69  97 138 176 229 290 352 420
#     4  11  24  45  66  97 143 179 233 285 351 424
#     4  11  22  43  67 100 134 176 234 288 347 425
#     4  10  22  42  61  90 136 168 221 298 330 396
#
# _framework density 22.210239999999999
#
# number of rings (size 3 to 8) (size 9 to 14) (size 15 to 20)
#    0.000    1.067    4.000    2.800    3.733    0.267 
#    2.400    0.667    0.000    0.000    0.000    0.000 
#    0.000    0.000    0.000    0.000    0.000    0.000 
#
# Total GULP energy -371764.267941 kJ/mol
# GULP energy per Si atom -12392.142265 kJ/mol
# Density = 2.215969 g / cm^3
# Si number density = 22.210240 Si / 1000 Ang^3
#
#
#
# Elastic Constant Matrix: (Units=GPa)
#
#
# Indices 1 2 3 4 5 6 
#
# 1 109.7594 40.4985 23.1979 0.0000 0.0000 -7.9768
# 2 40.4985 109.7594 23.1979 0.0000 0.0000 7.9768
# 3 23.1979 23.1979 64.1066 0.0000 0.0000 0.0000
# 4 0.0000 0.0000 0.0000 16.3847 0.0000 0.0000
# 5 0.0000 0.0000 0.0000 0.0000 16.3847 0.0000
# 6 -7.9768 7.9768 0.0000 0.0000 0.0000 45.2148
#
#
#
# Elastic Compliance Matrix: (Units=1/GPa)
#
#
# Indices 1 2 3 4 5 6 
#
# 1 0.011271 -0.003779 -0.002711 0.000000 0.000000 0.002655
# 2 -0.003779 0.011271 -0.002711 0.000000 0.000000 -0.002655
# 3 -0.002711 -0.002711 0.017561 0.000000 0.000000 0.000000
# 4 0.000000 0.000000 0.000000 0.061033 0.000000 0.000000
# 5 0.000000 0.000000 0.000000 0.000000 0.061033 0.000000
# 6 0.002655 -0.002655 0.000000 0.000000 0.000000 0.023053
#
#
# Mechanical properties :
#
#
# Convention : Reuss Voigt Hill
#
# Bulk Modulus (GPa) = 46.08067 50.82377 48.45222
# Shear Modulus (GPa) = 23.71266 28.71225 26.21245
#
# Velocity S-wave (km/s) = 3.27103 3.59938 3.43913
# Velocity P-wave (km/s) = 5.92104 6.34088 6.13455
#
# Compressibility (1/GPa) = 0.02170108
#
# Stress axis : x y z
#
# Youngs Moduli (GPa) = 88.72284 88.72284 56.94364
#
# Poissons Ratio (x) = 0.33525 0.15439
# Poissons Ratio (y) = 0.33525 0.15439
# Poissons Ratio (z) = 0.24055 0.24055
#
# Static dielectric constant tensor:
#      x y z
#    x 4.189780 0.000000 0.000000 
#    y 0.000000 4.189780 0.000000 
#    z 0.000000 0.000000 3.794720 
# 
# 
# High freq. dielectric constant tensor:
#      x y z
#    x 1.886690 0.000000 0.000000 
#    y 0.000000 1.886690 0.000000 
#    z 0.000000 0.000000 1.855760 
# 
# From -- ./inp_files/3184.got.cif
#   From: 2010.03.12/outbox.cif.g09.slc.cpg/sg82_2_cif.got.tgz:3184.got - 2010.04.08 20:02:50.
