data_PCOD8302754
_publ_section_title
;
Structure prediction by ZEFSAII (Michael W. Deem and Ramdas Pophale) SiO2 
 PCOD8302754
Probable space group: P 4/M
;
_chemical_formula_sum "Si O2"
_cell_formula_units_Z 64
_cell_length_a 20.563702
_cell_length_b 20.563702
_cell_length_c 8.915084
_cell_angle_alpha 90.000000
_cell_angle_beta 90.000000
_cell_angle_gamma 90.000000
_cell_volume 3769.884484
_symmetry_space_group_name_H-M "P 4/M"
_symmetry_group_IT_number 83
_symmetry_cell_setting 'tetragonal'
loop_
_space_group_symop_operation_xyz
x,y,z
-y,x,z
-x,-y,z
y,-x,z
-x,-y,-z
y,-x,-z
x,y,-z
-y,x,-z
loop_
_atom_site_type_symbol
_atom_site_label
_atom_site_fract_x
_atom_site_fract_y
_atom_site_fract_z
Si Si1 0.189543 0.263341 0.666519
Si Si2 0.499594 0.761598 0.172476
Si Si3 0.811498 0.294499 0.176619
Si Si4 0.369647 0.057849 0.823225
Si Si5 0.389031 0.290818 0.327945
Si Si6 0.616605 0.283192 0.338090
Si Si7 0.354742 0.926298 0.678947
Si Si8 0.105513 0.502462 0.676802
O O1 0.173536 0.236282 0.500000
O O2 0.220432 0.203751 0.763925
O O3 0.245022 0.316672 0.655679
O O4 0.126116 0.300353 0.734813
O O5 0.544548 0.703294 0.232883
O O6 0.425480 0.741153 0.199152
O O7 0.520483 0.822354 0.272810
O O8 0.511243 0.778190 0.000000
O O9 0.883786 0.320004 0.217658
O O10 0.763702 0.345357 0.251209
O O11 0.800205 0.294307 0.000000
O O12 0.442258 0.060546 0.751415
O O13 0.335271 0.993847 0.756260
O O14 0.379094 0.051936 0.000000
O O15 0.401599 0.271320 0.500000
O O16 0.357937 0.362736 0.315850
O O17 0.580446 0.273357 0.500000
O O18 0.352537 0.931115 0.500000
O O19 0.428372 0.907880 0.730991
O O20 0.096363 0.508467 0.500000
#
# Coordination Sequence:
#
# PCOD8302754 Si02
#       8
#     8   8   8   8   8   8   8   8
#     4   9  18  34  53  73  96 127 170 211 245 291
#     4  12  22  31  49  75 101 126 158 204 255 302
#     4  10  20  33  49  73 102 129 163 208 252 295
#     4  11  23  35  48  73 106 137 171 210 251 299
#     4  10  20  34  53  71  92 126 164 205 249 298
#     4   9  18  34  52  71  93 122 161 202 248 300
#     4  10  21  36  52  72  99 136 178 211 244 295
#     4  11  21  35  51  68  97 139 177 209 243 289
#
# _framework density 16.976648999999998
#
# number of rings (size 3 to 8) (size 9 to 14) (size 15 to 20)
#    0.000    1.750    2.500    3.750    0.000    7.000 
#    0.000    0.000    0.000    0.375    0.000    2.625 
#    0.000    0.500    0.000    5.500    0.000    4.000 
#
# Total GULP energy -793119.882182 kJ/mol
# GULP energy per Si atom -12392.498159 kJ/mol
# Density = 1.693801 g / cm^3
# Si number density = 16.976649 Si / 1000 Ang^3
#
#
#
# Elastic Constant Matrix: (Units=GPa)
#
#
# Indices 1 2 3 4 5 6 
#
# 1 61.8725 36.0920 34.3993 0.0000 0.0000 0.6362
# 2 36.0920 61.8725 34.3993 0.0000 0.0000 -0.6362
# 3 34.3993 34.3993 65.8675 0.0000 0.0000 0.0000
# 4 0.0000 0.0000 0.0000 23.3042 0.0000 0.0000
# 5 0.0000 0.0000 0.0000 0.0000 23.3042 0.0000
# 6 0.6362 -0.6362 0.0000 0.0000 0.0000 20.0985
#
#
#
# Elastic Compliance Matrix: (Units=1/GPa)
#
#
# Indices 1 2 3 4 5 6 
#
# 1 0.027485 -0.011365 -0.008419 0.000000 0.000000 -0.001230
# 2 -0.011365 0.027485 -0.008419 0.000000 0.000000 0.001230
# 3 -0.008419 -0.008419 0.023975 0.000000 0.000000 0.000000
# 4 0.000000 0.000000 0.000000 0.042911 0.000000 0.000000
# 5 0.000000 0.000000 0.000000 0.000000 0.042911 0.000000
# 6 -0.001230 0.001230 0.000000 0.000000 0.000000 0.049833
#
#
# Mechanical properties :
#
#
# Convention : Reuss Voigt Hill
#
# Bulk Modulus (GPa) = 44.36426 44.37705 44.37066
# Shear Modulus (GPa) = 17.95222 18.98952 18.47087
#
# Velocity S-wave (km/s) = 3.25540 3.34813 3.30209
# Velocity P-wave (km/s) = 6.34976 6.41431 6.38212
#
# Compressibility (1/GPa) = 0.02254066
#
# Stress axis : x y z
#
# Youngs Moduli (GPa) = 36.38363 36.38363 41.70962
#
# Poissons Ratio (x) = 0.41349 0.35114
# Poissons Ratio (y) = 0.41349 0.35114
# Poissons Ratio (z) = 0.30630 0.30630
#
# Static dielectric constant tensor:
#      x y z
#    x 3.252790 0.000000 0.000000 
#    y 0.000000 3.252790 0.000000 
#    z 0.000000 0.000000 3.247240 
# 
# 
# High freq. dielectric constant tensor:
#      x y z
#    x 1.633320 0.000000 0.000000 
#    y 0.000000 1.633320 0.000000 
#    z 0.000000 0.000000 1.661280 
# 
# From -- ./inp_files/1313.got.cif
#   From: 2010.03.12/outbox.cif.g09.slc.cpg/sg83_1_cif.got.tgz:1313.got - 2010.04.08 20:05:18.
