data_PCOD8302732
_publ_section_title
;
Structure prediction by ZEFSAII (Michael W. Deem and Ramdas Pophale) SiO2 
 PCOD8302732
Probable space group: P 4/M
;
_chemical_formula_sum "Si O2"
_cell_formula_units_Z 52
_cell_length_a 17.620194
_cell_length_b 17.620194
_cell_length_c 8.142371
_cell_angle_alpha 90.000000
_cell_angle_beta 90.000000
_cell_angle_gamma 90.000000
_cell_volume 2527.971993
_symmetry_space_group_name_H-M "P 4/M"
_symmetry_group_IT_number 83
_symmetry_cell_setting 'tetragonal'
loop_
_space_group_symop_operation_xyz
x,y,z
-y,x,z
-x,-y,z
y,-x,z
-x,-y,-z
y,-x,-z
x,y,-z
-y,x,-z
loop_
_atom_site_type_symbol
_atom_site_label
_atom_site_fract_x
_atom_site_fract_y
_atom_site_fract_z
Si Si1 0.927734 0.448348 0.308783
Si Si2 0.030719 0.710038 0.184871
Si Si3 0.213281 0.450932 0.694867
Si Si4 0.863929 0.165646 0.318250
Si Si5 0.080603 0.092889 0.000000
Si Si6 0.516223 0.380536 0.304632
Si Si7 0.862910 0.699252 0.314449
O O1 0.925320 0.426957 0.500000
O O2 0.936022 0.373603 0.201667
O O3 0.849857 0.488106 0.251512
O O4 0.000000 0.500000 0.269598
O O5 0.079780 0.763708 0.303032
O O6 0.941564 0.712566 0.220589
O O7 0.044100 0.738968 0.000000
O O8 0.219950 0.447131 0.500000
O O9 0.295855 0.472333 0.769729
O O10 0.186248 0.368947 0.764133
O O11 0.879209 0.128896 0.500000
O O12 0.774943 0.189225 0.310125
O O13 0.871208 0.106526 0.170840
O O14 0.992500 0.106913 0.000000
O O15 0.584665 0.435663 0.244486
O O16 0.516580 0.377081 0.500000
O O17 0.885586 0.676310 0.500000
#
# Coordination Sequence:
#
# PCOD8302732 Si02
#       7
#     8   8   8   8   4   8   8
#     4  10  19  35  57  82 115 154 202 252 304 369
#     4  12  24  38  60  85 121 162 203 255 313 380
#     4   9  17  31  53  81 114 155 203 256 307 370
#     4  11  24  41  63  91 123 161 207 259 314 374
#     4  11  24  42  64  90 121 157 203 256 310 374
#     4   8  14  25  44  74 113 153 193 243 304 363
#     4  10  21  38  60  85 115 155 204 254 312 376
#
# _framework density 20.569848
#
# number of rings (size 3 to 8) (size 9 to 14) (size 15 to 20)
#    0.000    1.923    2.308    2.769    1.077    3.385 
#    0.000    5.385    0.000    0.000    0.000    0.000 
#    0.000    0.000    0.000    8.154    0.000    7.692 
#
# Total GULP energy -644558.004300 kJ/mol
# GULP energy per Si atom -12395.346237 kJ/mol
# Density = 2.052303 g / cm^3
# Si number density = 20.569848 Si / 1000 Ang^3
#
#
#
# Elastic Constant Matrix: (Units=GPa)
#
#
# Indices 1 2 3 4 5 6 
#
# 1 143.9063 56.5038 19.4913 0.0000 0.0000 4.6364
# 2 56.5038 143.9063 19.4913 0.0000 0.0000 -4.6364
# 3 19.4913 19.4913 82.5615 0.0000 0.0000 0.0000
# 4 0.0000 0.0000 0.0000 24.0130 0.0000 0.0000
# 5 0.0000 0.0000 0.0000 0.0000 24.0130 0.0000
# 6 4.6364 -4.6364 0.0000 0.0000 0.0000 35.1296
#
#
#
# Elastic Compliance Matrix: (Units=1/GPa)
#
#
# Indices 1 2 3 4 5 6 
#
# 1 0.008417 -0.003187 -0.001235 0.000000 0.000000 -0.001531
# 2 -0.003187 0.008417 -0.001235 0.000000 0.000000 0.001531
# 3 -0.001235 -0.001235 0.012695 0.000000 0.000000 0.000000
# 4 0.000000 0.000000 0.000000 0.041644 0.000000 0.000000
# 5 0.000000 0.000000 0.000000 0.000000 0.041644 0.000000
# 6 -0.001531 0.001531 0.000000 0.000000 0.000000 0.028870
#
#
# Mechanical properties :
#
#
# Convention : Reuss Voigt Hill
#
# Bulk Modulus (GPa) = 54.89607 62.37191 58.63399
# Shear Modulus (GPa) = 31.43228 34.95697 33.19462
#
# Velocity S-wave (km/s) = 3.91330 4.12688 4.02151
# Velocity P-wave (km/s) = 6.86762 7.28670 7.08026
#
# Compressibility (1/GPa) = 0.01821624
#
# Stress axis : x y z
#
# Youngs Moduli (GPa) = 118.80905 118.80905 78.77020
#
# Poissons Ratio (x) = 0.37864 0.09726
# Poissons Ratio (y) = 0.37864 0.09726
# Poissons Ratio (z) = 0.14669 0.14669
#
# Static dielectric constant tensor:
#      x y z
#    x 3.907200 0.000000 0.000000 
#    y 0.000000 3.907200 0.000000 
#    z 0.000000 0.000000 3.909670 
# 
# 
# High freq. dielectric constant tensor:
#      x y z
#    x 1.807630 0.000000 0.000000 
#    y 0.000000 1.807630 0.000000 
#    z 0.000000 0.000000 1.776530 
# 
# From -- ./inp_files/973.got.cif
#   From: 2010.03.12/outbox.cif.g09.slc.cpg/sg83_1_cif.got.tgz:973.got - 2010.04.08 20:05:18.
