data_PCOD8302335
_publ_section_title
;
Structure prediction by ZEFSAII (Michael W. Deem and Ramdas Pophale) SiO2 
 PCOD8302335
Probable space group: P -4
;
_chemical_formula_sum "Si O2"
_cell_formula_units_Z 16
_cell_length_a 10.190797
_cell_length_b 10.190797
_cell_length_c 6.505546
_cell_angle_alpha 90.000000
_cell_angle_beta 90.000000
_cell_angle_gamma 90.000000
_cell_volume 675.616198
_symmetry_space_group_name_H-M "P -4"
_symmetry_group_IT_number 81
_symmetry_cell_setting 'tetragonal'
loop_
_space_group_symop_operation_xyz
x,y,z
y,-x,-z
-x,-y,z
-y,x,-z
loop_
_atom_site_type_symbol
_atom_site_label
_atom_site_fract_x
_atom_site_fract_y
_atom_site_fract_z
Si Si1 0.292619 0.643656 0.260117
Si Si2 0.500000 0.000000 0.180351
Si Si3 0.500000 0.500000 0.000000
Si Si4 0.974291 0.277453 0.148049
Si Si5 0.000000 0.000000 0.000000
Si Si6 0.588838 0.162431 0.540616
O O1 0.424255 0.610550 0.133126
O O2 0.213772 0.508856 0.287157
O O3 0.322891 0.712629 0.478192
O O4 0.184784 0.735655 0.150108
O O5 0.512274 0.124715 0.331255
O O6 0.631894 0.007035 0.046776
O O7 0.038952 0.334664 0.358652
O O8 0.030394 0.130065 0.132721
#
# Coordination Sequence:
#
# PCOD8302335 Si02
#       6
#     4   2   1   4   1   4
#     4  12  25  47  74 112 155 201 262 328 387 469
#     4  12  22  50  76 100 148 208 260 312 392 476
#     4  12  28  46  80 124 150 212 272 330 392 468
#     4  12  27  51  74 115 154 210 260 318 407 471
#     4  12  32  44  82 120 160 210 252 340 398 488
#     4  12  26  46  76 109 147 206 261 322 394 469
#
# _framework density 23.682088
#
# number of rings (size 3 to 8) (size 9 to 14) (size 15 to 20)
#    0.000    0.000    5.000    4.500    7.000    2.000 
#    0.000    1.250    0.000    0.000    0.000    0.000 
#    0.000    0.000    0.000    0.000    0.000    0.000 
#
# Total GULP energy -198328.538556 kJ/mol
# GULP energy per Si atom -12395.533660 kJ/mol
# Density = 2.362819 g / cm^3
# Si number density = 23.682088 Si / 1000 Ang^3
#
#
#
# Elastic Constant Matrix: (Units=GPa)
#
#
# Indices 1 2 3 4 5 6 
#
# 1 123.5760 24.3828 41.4695 0.0000 0.0000 -1.0234
# 2 24.3828 123.5760 41.4695 0.0000 0.0000 1.0234
# 3 41.4695 41.4695 104.1183 0.0000 0.0000 0.0000
# 4 0.0000 0.0000 0.0000 37.6162 0.0000 0.0000
# 5 0.0000 0.0000 0.0000 0.0000 37.6162 0.0000
# 6 -1.0234 1.0234 0.0000 0.0000 0.0000 36.8008
#
#
#
# Elastic Compliance Matrix: (Units=1/GPa)
#
#
# Indices 1 2 3 4 5 6 
#
# 1 0.009394 -0.000693 -0.003466 0.000000 0.000000 0.000281
# 2 -0.000693 0.009394 -0.003466 0.000000 0.000000 -0.000281
# 3 -0.003466 -0.003466 0.012365 0.000000 0.000000 0.000000
# 4 0.000000 0.000000 0.000000 0.026584 0.000000 0.000000
# 5 0.000000 0.000000 0.000000 0.000000 0.026584 0.000000
# 6 0.000281 -0.000281 0.000000 0.000000 0.000000 0.027189
#
#
# Mechanical properties :
#
#
# Convention : Reuss Voigt Hill
#
# Bulk Modulus (GPa) = 62.87277 62.87933 62.87605
# Shear Modulus (GPa) = 37.86122 38.66989 38.26556
#
# Velocity S-wave (km/s) = 4.00275 4.04527 4.02406
# Velocity P-wave (km/s) = 6.92596 6.95902 6.94251
#
# Compressibility (1/GPa) = 0.01590514
#
# Stress axis : x y z
#
# Youngs Moduli (GPa) = 106.44831 106.44831 80.87240
#
# Poissons Ratio (x) = 0.07376 0.28028
# Poissons Ratio (y) = 0.07376 0.28028
# Poissons Ratio (z) = 0.36892 0.36892
#
# Static dielectric constant tensor:
#      x y z
#    x 4.427010 0.000000 0.000000 
#    y 0.000000 4.427010 0.000000 
#    z 0.000000 0.000000 4.020280 
# 
# 
# High freq. dielectric constant tensor:
#      x y z
#    x 1.948540 0.000000 0.000000 
#    y 0.000000 1.948540 0.000000 
#    z 0.000000 0.000000 1.926690 
# 
# From -- ./inp_files/146.got.cif
#   From: 2010.03.12/outbox.cif.g09.slc.cpg/sg81_cif.got.tgz:146.got - 2010.04.08 20:01:38.
