data_PCOD8302254
_publ_section_title
;
Structure prediction by ZEFSAII (Michael W. Deem and Ramdas Pophale) SiO2 
 PCOD8302254
Probable space group: P -4
;
_chemical_formula_sum "Si O2"
_cell_formula_units_Z 20
_cell_length_a 7.738980
_cell_length_b 7.738980
_cell_length_c 16.258987
_cell_angle_alpha 90.000000
_cell_angle_beta 90.000000
_cell_angle_gamma 90.000000
_cell_volume 973.780184
_symmetry_space_group_name_H-M "P -4"
_symmetry_group_IT_number 81
_symmetry_cell_setting 'tetragonal'
loop_
_space_group_symop_operation_xyz
x,y,z
y,-x,-z
-x,-y,z
-y,x,-z
loop_
_atom_site_type_symbol
_atom_site_label
_atom_site_fract_x
_atom_site_fract_y
_atom_site_fract_z
Si Si1 0.000496 0.197056 0.109311
Si Si2 0.308427 0.295235 0.408412
Si Si3 0.293993 0.000012 0.704274
Si Si4 0.308416 0.704771 0.408433
Si Si5 0.306399 0.692147 0.999866
O O1 0.999795 0.211444 0.206572
O O2 0.828563 0.284773 0.073690
O O3 0.173776 0.283250 0.074323
O O4 0.000000 0.000000 0.081074
O O5 0.170295 0.224439 0.342778
O O6 0.318961 0.500004 0.403577
O O7 0.500008 0.217598 0.389793
O O8 0.244387 0.244394 0.499988
O O9 0.500000 0.000000 0.710155
O O10 0.224423 0.170252 0.657178
O O11 0.499086 0.716149 0.036814
#
# Coordination Sequence:
#
# PCOD8302254 Si02
#       5
#     4   4   4   4   4
#     4  12  24  42  62  89 130 162 195 252 306 360
#     4   8  15  31  54  79 112 154 198 245 293 341
#     4  10  20  34  56  84 115 153 199 245 295 350
#     4   8  15  31  54  79 112 154 198 245 293 341
#     4  11  23  42  70  94 117 159 204 246 304 367
#
# _framework density 20.538518
#
# number of rings (size 3 to 8) (size 9 to 14) (size 15 to 20)
#    0.000    2.200    2.000    3.000    0.000    1.600 
#    3.600    4.000    0.000    0.000    0.000    0.000 
#    0.000    0.000    0.000    0.000    0.000    0.000 
#
# Total GULP energy -247950.633275 kJ/mol
# GULP energy per Si atom -12397.531664 kJ/mol
# Density = 2.049177 g / cm^3
# Si number density = 20.538518 Si / 1000 Ang^3
#
#
#
# Elastic Constant Matrix: (Units=GPa)
#
#
# Indices 1 2 3 4 5 6 
#
# 1 120.8342 39.6423 55.5209 0.0000 0.0000 0.0106
# 2 39.6423 120.8342 55.5209 0.0000 0.0000 -0.0106
# 3 55.5209 55.5209 152.2482 0.0000 0.0000 0.0000
# 4 0.0000 0.0000 0.0000 25.4256 0.0000 0.0000
# 5 0.0000 0.0000 0.0000 0.0000 25.4256 0.0000
# 6 0.0106 -0.0106 0.0000 0.0000 0.0000 15.2581
#
#
#
# Elastic Compliance Matrix: (Units=1/GPa)
#
#
# Indices 1 2 3 4 5 6 
#
# 1 0.010326 -0.001991 -0.003039 0.000000 0.000000 -0.000009
# 2 -0.001991 0.010326 -0.003039 0.000000 0.000000 0.000009
# 3 -0.003039 -0.003039 0.008785 0.000000 0.000000 0.000000
# 4 0.000000 0.000000 0.000000 0.039330 0.000000 0.000000
# 5 0.000000 0.000000 0.000000 0.000000 0.039330 0.000000
# 6 -0.000009 0.000009 0.000000 0.000000 0.000000 0.065539
#
#
# Mechanical properties :
#
#
# Convention : Reuss Voigt Hill
#
# Bulk Modulus (GPa) = 75.20761 77.25389 76.23075
# Shear Modulus (GPa) = 25.74564 29.43736 27.59150
#
# Velocity S-wave (km/s) = 3.54436 3.78997 3.66922
# Velocity P-wave (km/s) = 7.31077 7.53974 7.42614
#
# Compressibility (1/GPa) = 0.01329653
#
# Stress axis : x y z
#
# Youngs Moduli (GPa) = 96.84736 96.84736 113.83048
#
# Poissons Ratio (x) = 0.19282 0.34598
# Poissons Ratio (y) = 0.19282 0.34598
# Poissons Ratio (z) = 0.29436 0.29436
#
# Static dielectric constant tensor:
#      x y z
#    x 3.907560 0.000000 0.000000 
#    y 0.000000 3.907560 0.000000 
#    z 0.000000 0.000000 3.586680 
# 
# 
# High freq. dielectric constant tensor:
#      x y z
#    x 1.801050 0.000000 0.000000 
#    y 0.000000 1.801050 0.000000 
#    z 0.000000 0.000000 1.789000 
# 
# From -- ./inp_files/1498.got.cif
#   From: 2010.03.12/outbox.cif.g09.slc.cpg/sg81_cif.got.tgz:1498.got - 2010.04.08 20:01:38.
