data_PCOD8302130
_publ_section_title
;
Structure prediction by ZEFSAII (Michael W. Deem and Ramdas Pophale) SiO2 
 PCOD8302130
Probable space group: I 4
;
_chemical_formula_sum "Si O2"
_cell_formula_units_Z 60
_cell_length_a 11.570805
_cell_length_b 11.570805
_cell_length_c 21.839221
_cell_angle_alpha 90.000000
_cell_angle_beta 90.000000
_cell_angle_gamma 90.000000
_cell_volume 2923.911964
_symmetry_space_group_name_H-M "I 4"
_symmetry_group_IT_number 79
_symmetry_cell_setting 'tetragonal'
loop_
_space_group_symop_operation_xyz
x,y,z
-y,x,z
-x,-y,z
y,-x,z
1/2+x,1/2+y,1/2+z
1/2-y,1/2+x,1/2+z
1/2-x,1/2-y,1/2+z
1/2+y,1/2-x,1/2+z
loop_
_atom_site_type_symbol
_atom_site_label
_atom_site_fract_x
_atom_site_fract_y
_atom_site_fract_z
Si Si1 0.330980 0.866516 0.231970
Si Si2 0.944931 0.819557 0.992342
Si Si3 0.830980 0.633484 0.911567
Si Si4 0.962000 0.813666 0.129442
Si Si5 0.137515 0.862485 0.321769
Si Si6 0.813666 0.962000 0.514095
Si Si7 0.944931 0.180443 0.651196
Si Si8 0.500000 0.000000 0.821769
O O1 0.291340 0.950512 0.176953
O O2 0.212914 0.817900 0.263988
O O3 0.409359 0.768029 0.203310
O O4 0.414502 0.925927 0.280315
O O5 0.909359 0.731971 0.940227
O O6 0.075334 0.857977 0.983063
O O7 0.939503 0.766528 0.060858
O O8 0.712914 0.682100 0.879549
O O9 0.914503 0.574073 0.863223
O O10 0.791340 0.549488 0.966584
O O11 0.088024 0.866109 0.140638
O O12 1.000000 0.838123 0.321769
O O13 0.766528 0.939503 0.582679
O O14 0.911976 0.866109 0.502899
O O15 0.075334 0.142023 0.660474
#
# Coordination Sequence:
#
# PCOD8302130 Si02
#       8
#     8   8   8   8   8   8   8   4
#     4  12  24  42  62  90 133 176 206 273 325 394
#     4   9  21  41  66  94 124 164 217 266 320 396
#     4  12  24  42  62  90 133 176 206 273 325 394
#     4   9  19  39  68  99 123 155 215 278 325 383
#     4  11  24  42  66  93 120 172 234 275 316 374
#     4   9  19  39  68  99 123 155 215 278 325 383
#     4   9  21  41  66  94 124 164 217 266 320 396
#     4  12  32  44  52  94 144 168 216 268 334 380
#
# _framework density 20.520454000000001
#
# number of rings (size 3 to 8) (size 9 to 14) (size 15 to 20)
#    0.000    1.733    1.333    4.000    3.733    2.133 
#    0.000    5.333    0.000    0.000    0.000    0.000 
#    0.000    0.000    0.000    0.000    0.000    0.000 
#
# Total GULP energy -371744.652994 kJ/mol
# GULP energy per Si atom -12391.488433 kJ/mol
# Density = 2.047375 g / cm^3
# Si number density = 20.520454 Si / 1000 Ang^3
#
#
#
# Elastic Constant Matrix: (Units=GPa)
#
#
# Indices 1 2 3 4 5 6 
#
# 1 84.9095 47.0807 79.3616 0.0000 0.0000 -0.0001
# 2 47.0807 84.9095 79.3616 0.0000 0.0000 0.0001
# 3 79.3616 79.3616 168.2598 0.0000 0.0000 0.0000
# 4 0.0000 0.0000 0.0000 48.6679 0.0000 0.0000
# 5 0.0000 0.0000 0.0000 0.0000 48.6679 0.0000
# 6 -0.0001 0.0001 0.0000 0.0000 0.0000 9.9295
#
#
#
# Elastic Compliance Matrix: (Units=1/GPa)
#
#
# Indices 1 2 3 4 5 6 
#
# 1 0.021970 -0.004465 -0.008256 0.000000 0.000000 0.000000
# 2 -0.004465 0.021970 -0.008256 0.000000 0.000000 0.000000
# 3 -0.008256 -0.008256 0.013732 0.000000 0.000000 0.000000
# 4 0.000000 0.000000 0.000000 0.020547 0.000000 0.000000
# 5 0.000000 0.000000 0.000000 0.000000 0.020547 0.000000
# 6 0.000000 0.000000 0.000000 0.000000 0.000000 0.100710
#
#
# Mechanical properties :
#
#
# Convention : Reuss Voigt Hill
#
# Bulk Modulus (GPa) = 63.62967 83.29850 73.46408
# Shear Modulus (GPa) = 20.26991 30.27136 25.27064
#
# Velocity S-wave (km/s) = 3.14632 3.84497 3.51306
# Velocity P-wave (km/s) = 6.65390 7.77128 7.23420
#
# Compressibility (1/GPa) = 0.01571594
#
# Stress axis : x y z
#
# Youngs Moduli (GPa) = 45.51676 45.51676 72.82448
#
# Poissons Ratio (x) = 0.20323 0.60127
# Poissons Ratio (y) = 0.20323 0.60127
# Poissons Ratio (z) = 0.37581 0.37581
#
# Static dielectric constant tensor:
#      x y z
#    x 3.659760 0.000000 0.000000 
#    y 0.000000 3.659760 0.000000 
#    z 0.000000 0.000000 3.959030 
# 
# 
# High freq. dielectric constant tensor:
#      x y z
#    x 1.792670 0.000000 0.000000 
#    y 0.000000 1.792670 0.000000 
#    z 0.000000 0.000000 1.820420 
# 
# From -- ./inp_files/1867.got.cif
#   From: 2010.03.12/outbox.cif.g09.slc.cpg/sg79_cif.got.tgz:1867.got - 2010.04.16 16:38:49.
