data_PCOD8302914
_publ_section_title
;
Structure prediction by ZEFSAII (Michael W. Deem and Ramdas Pophale) SiO2 
 PCOD8302914
Probable space group: P 4/M
;
_chemical_formula_sum "Si O2"
_cell_formula_units_Z 40
_cell_length_a 9.935707
_cell_length_b 9.935707
_cell_length_c 24.198879
_cell_angle_alpha 90.000000
_cell_angle_beta 90.000000
_cell_angle_gamma 90.000000
_cell_volume 2388.871558
_symmetry_space_group_name_H-M "P 4/M"
_symmetry_group_IT_number 83
_symmetry_cell_setting 'tetragonal'
loop_
_space_group_symop_operation_xyz
x,y,z
-y,x,z
-x,-y,z
y,-x,z
-x,-y,-z
y,-x,-z
x,y,-z
-y,x,-z
loop_
_atom_site_type_symbol
_atom_site_label
_atom_site_fract_x
_atom_site_fract_y
_atom_site_fract_z
Si Si1 0.570140 0.290016 0.562149
Si Si2 0.347396 0.136156 0.712166
Si Si3 0.150693 0.363453 0.330268
Si Si4 0.210479 0.071861 0.058283
Si Si5 0.927546 0.211973 0.822198
O O1 0.666809 0.416779 0.572239
O O2 0.588852 0.234326 0.500000
O O3 0.608097 0.172705 0.604774
O O4 0.252085 0.252056 0.690621
O O5 0.502286 0.178537 0.705416
O O6 0.322738 0.109126 0.776843
O O7 0.314506 0.002217 0.676854
O O8 0.283583 0.096946 0.117360
O O9 0.081838 0.166712 0.057851
O O10 0.292432 0.099878 0.000000
O O11 0.082159 0.167556 0.815060
#
# Coordination Sequence:
#
# PCOD8302914 Si02
#       5
#     8   8   8   8   8
#     4   9  17  33  58  81 101 132 170 210 255 304
#     4  11  22  34  52  76 106 139 172 208 257 302
#     4  11  22  36  53  79 105 133 173 210 256 302
#     4   7  10  17  33  61  94 125 164 209 250 295
#     4   9  15  26  45  69  99 138 171 206 258 308
#
# _framework density 16.744308
#
# number of rings (size 3 to 8) (size 9 to 14) (size 15 to 20)
#    0.000    2.600    4.000    2.400    0.000    0.800 
#    0.000    3.000    0.000    0.000    0.000    5.600 
#    0.000    0.000    0.000    1.800    0.000    0.000 
#
# Total GULP energy -495526.491900 kJ/mol
# GULP energy per Si atom -12388.162298 kJ/mol
# Density = 1.670620 g / cm^3
# Si number density = 16.744308 Si / 1000 Ang^3
#
#
#
# Elastic Constant Matrix: (Units=GPa)
#
#
# Indices 1 2 3 4 5 6 
#
# 1 74.1741 38.8098 49.0254 0.0000 0.0000 8.6100
# 2 38.8098 74.1741 49.0254 0.0000 0.0000 -8.6100
# 3 49.0254 49.0254 193.9112 0.0000 0.0000 0.0000
# 4 0.0000 0.0000 0.0000 20.9733 0.0000 0.0000
# 5 0.0000 0.0000 0.0000 0.0000 20.9733 0.0000
# 6 8.6100 -8.6100 0.0000 0.0000 0.0000 22.0948
#
#
#
# Elastic Compliance Matrix: (Units=1/GPa)
#
#
# Indices 1 2 3 4 5 6 
#
# 1 0.023119 -0.011780 -0.002867 0.000000 0.000000 -0.013600
# 2 -0.011780 0.023119 -0.002867 0.000000 0.000000 0.013600
# 3 -0.002867 -0.002867 0.006607 0.000000 0.000000 0.000000
# 4 0.000000 0.000000 0.000000 0.047680 0.000000 0.000000
# 5 0.000000 0.000000 0.000000 0.000000 0.047680 0.000000
# 6 -0.013600 0.013600 0.000000 0.000000 0.000000 0.055859
#
#
# Mechanical properties :
#
#
# Convention : Reuss Voigt Hill
#
# Bulk Modulus (GPa) = 56.12602 68.44228 62.28415
# Shear Modulus (GPa) = 20.40576 26.50154 23.45365
#
# Velocity S-wave (km/s) = 3.49473 3.98266 3.74664
# Velocity P-wave (km/s) = 7.06232 7.88114 7.48294
#
# Compressibility (1/GPa) = 0.01781705
#
# Stress axis : x y z
#
# Youngs Moduli (GPa) = 43.25460 43.25460 151.36554
#
# Poissons Ratio (x) = 0.50955 0.43391
# Poissons Ratio (y) = 0.50955 0.43391
# Poissons Ratio (z) = 0.12400 0.12400
#
# Static dielectric constant tensor:
#      x y z
#    x 2.883920 0.000000 0.000000 
#    y 0.000000 2.883920 0.000000 
#    z 0.000000 0.000000 3.731650 
# 
# 
# High freq. dielectric constant tensor:
#      x y z
#    x 1.610870 0.000000 0.000000 
#    y 0.000000 1.610870 0.000000 
#    z 0.000000 0.000000 1.670410 
# 
# From -- ./inp_files/3099.got.cif
#   From: 2010.03.12/outbox.cif.g09.slc.cpg/sg83_2_cif.got.tgz:3099.got - 2010.04.08 20:05:18.
