data_PCOD8302250
_publ_section_title
;
Structure prediction by ZEFSAII (Michael W. Deem and Ramdas Pophale) SiO2 
 PCOD8302250
Probable space group: P -4
;
_chemical_formula_sum "Si O2"
_cell_formula_units_Z 28
_cell_length_a 11.673105
_cell_length_b 11.673105
_cell_length_c 10.785982
_cell_angle_alpha 90.000000
_cell_angle_beta 90.000000
_cell_angle_gamma 90.000000
_cell_volume 1469.712796
_symmetry_space_group_name_H-M "P -4"
_symmetry_group_IT_number 81
_symmetry_cell_setting 'tetragonal'
loop_
_space_group_symop_operation_xyz
x,y,z
y,-x,-z
-x,-y,z
-y,x,-z
loop_
_atom_site_type_symbol
_atom_site_label
_atom_site_fract_x
_atom_site_fract_y
_atom_site_fract_z
Si Si1 0.130874 0.638755 0.827995
Si Si2 0.804474 0.289419 0.087780
Si Si3 0.875855 0.526794 0.176729
Si Si4 0.388762 0.881582 0.103839
Si Si5 0.971041 0.130798 0.208398
Si Si6 0.257177 0.813469 0.681223
Si Si7 0.105513 0.140240 0.540162
O O1 0.139590 0.502232 0.815611
O O2 0.189455 0.695232 0.707791
O O3 0.997496 0.673182 0.848045
O O4 0.206227 0.681211 0.943784
O O5 0.810152 0.405777 0.168116
O O6 0.690264 0.226214 0.130772
O O7 0.914000 0.203767 0.098511
O O8 0.808660 0.611416 0.270968
O O9 0.000000 0.500000 0.234876
O O10 0.895379 0.582351 0.041440
O O11 0.876538 0.143601 0.318630
O O12 0.087658 0.192315 0.243868
O O13 0.000000 0.000000 0.170651
O O14 0.249507 0.838938 0.532239
O O15 0.968168 0.146116 0.542288
#
# Coordination Sequence:
#
# PCOD8302250 Si02
#       7
#     4   4   4   4   4   4   4
#     4  10  20  34  53  78 109 144 180 224 280 336
#     4  11  21  33  55  77 112 147 180 225 279 336
#     4  11  19  35  50  78 113 149 177 222 276 330
#     4  10  19  35  50  75 115 145 172 227 280 328
#     4  11  19  33  53  82 110 140 177 225 284 339
#     4  11  19  33  57  74 107 148 183 219 275 336
#     4   9  17  32  50  76 109 138 171 222 275 321
#
# _framework density 19.051341000000001
#
# number of rings (size 3 to 8) (size 9 to 14) (size 15 to 20)
#    0.000    1.571    8.571    0.857    0.000    0.000 
#    0.000    0.714    3.143    0.000    0.000    0.000 
#    0.000    0.000    0.000    0.000    0.000    0.000 
#
# Total GULP energy -347070.283704 kJ/mol
# GULP energy per Si atom -12395.367275 kJ/mol
# Density = 1.900798 g / cm^3
# Si number density = 19.051341 Si / 1000 Ang^3
#
#
#
# Elastic Constant Matrix: (Units=GPa)
#
#
# Indices 1 2 3 4 5 6 
#
# 1 98.8015 42.6237 15.7159 0.0000 0.0000 -1.7609
# 2 42.6237 98.8015 15.7159 0.0000 0.0000 1.7609
# 3 15.7159 15.7159 25.8746 0.0000 0.0000 0.0000
# 4 0.0000 0.0000 0.0000 20.5981 0.0000 0.0000
# 5 0.0000 0.0000 0.0000 0.0000 20.5981 0.0000
# 6 -1.7609 1.7609 0.0000 0.0000 0.0000 33.1643
#
#
#
# Elastic Compliance Matrix: (Units=1/GPa)
#
#
# Indices 1 2 3 4 5 6 
#
# 1 0.013017 -0.004843 -0.004965 0.000000 0.000000 0.000948
# 2 -0.004843 0.013017 -0.004965 0.000000 0.000000 -0.000948
# 3 -0.004965 -0.004965 0.044679 0.000000 0.000000 0.000000
# 4 0.000000 0.000000 0.000000 0.048548 0.000000 0.000000
# 5 0.000000 0.000000 0.000000 0.000000 0.048548 0.000000
# 6 0.000948 -0.000948 0.000000 0.000000 0.000000 0.030254
#
#
# Mechanical properties :
#
#
# Convention : Reuss Voigt Hill
#
# Bulk Modulus (GPa) = 24.29071 41.28761 32.78916
# Shear Modulus (GPa) = 20.71833 24.83356 22.77595
#
# Velocity S-wave (km/s) = 3.30130 3.61433 3.46136
# Velocity P-wave (km/s) = 5.22583 6.25593 5.76394
#
# Compressibility (1/GPa) = 0.04116801
#
# Stress axis : x y z
#
# Youngs Moduli (GPa) = 76.82138 76.82138 22.38176
#
# Poissons Ratio (x) = 0.37204 0.11112
# Poissons Ratio (y) = 0.37204 0.11112
# Poissons Ratio (z) = 0.38142 0.38142
#
# Static dielectric constant tensor:
#      x y z
#    x 3.503710 0.000000 0.000000 
#    y 0.000000 3.503710 0.000000 
#    z 0.000000 0.000000 3.238130 
# 
# 
# High freq. dielectric constant tensor:
#      x y z
#    x 1.728460 0.000000 0.000000 
#    y 0.000000 1.728460 0.000000 
#    z 0.000000 0.000000 1.708750 
# 
# From -- ./inp_files/1395.got.cif
#   From: 2010.03.12/outbox.cif.g09.slc.cpg/sg81_cif.got.tgz:1395.got - 2010.04.08 20:01:38.
