data_PCOD8302999
_publ_section_title
;
Structure prediction by ZEFSAII (Michael W. Deem and Ramdas Pophale) SiO2 
 PCOD8302999
Probable space group: P 4/M
;
_chemical_formula_sum "Si O2"
_cell_formula_units_Z 48
_cell_length_a 8.146412
_cell_length_b 8.146412
_cell_length_c 32.261827
_cell_angle_alpha 90.000000
_cell_angle_beta 90.000000
_cell_angle_gamma 90.000000
_cell_volume 2141.024806
_symmetry_space_group_name_H-M "P 4/M"
_symmetry_group_IT_number 83
_symmetry_cell_setting 'tetragonal'
loop_
_space_group_symop_operation_xyz
x,y,z
-y,x,z
-x,-y,z
y,-x,z
-x,-y,-z
y,-x,-z
x,y,-z
-y,x,-z
loop_
_atom_site_type_symbol
_atom_site_label
_atom_site_fract_x
_atom_site_fract_y
_atom_site_fract_z
Si Si1 0.896284 0.752445 0.624931
Si Si2 0.912588 0.258834 0.910636
Si Si3 0.753369 0.594307 0.702257
Si Si4 0.000000 0.500000 0.845720
Si Si5 0.618506 0.257981 0.546608
Si Si6 0.917433 0.740978 0.220942
Si Si7 0.089109 0.745444 0.000000
O O1 0.833665 0.616121 0.657078
O O2 0.877519 0.684227 0.578376
O O3 0.085845 0.788606 0.632396
O O4 0.878544 0.392544 0.875011
O O5 0.880770 0.346456 0.955972
O O6 0.102325 0.203839 0.905445
O O7 0.594570 0.708243 0.707789
O O8 0.887983 0.646413 0.736100
O O9 0.885699 0.616169 0.817005
O O10 0.714817 0.426538 0.554182
O O11 0.649332 0.192736 0.500000
O O12 0.105921 0.796124 0.217834
O O13 0.901778 0.796415 0.000000
#
# Coordination Sequence:
#
# PCOD8302999 Si02
#       7
#     8   8   8   4   8   8   4
#     4  11  24  39  57  86 122 159 199 242 290 349
#     4   9  18  34  56  83 116 155 198 244 297 354
#     4  11  24  42  65  92 119 148 189 243 299 356
#     4  12  22  33  56  86 116 150 193 244 296 350
#     4   9  19  37  60  86 117 154 198 248 301 356
#     4  11  24  42  62  84 114 153 196 242 296 359
#     4   7  12  27  52  80 112 150 194 244 292 345
#
# _framework density 22.419167999999999
#
# number of rings (size 3 to 8) (size 9 to 14) (size 15 to 20)
#    0.000    1.917    0.000    5.500    0.000    9.000 
#    0.000    2.500    0.000    4.500    0.000    0.000 
#    0.000   16.000    0.000    0.000    0.000    0.000 
#
# Total GULP energy -595075.186084 kJ/mol
# GULP energy per Si atom -12397.399710 kJ/mol
# Density = 2.236814 g / cm^3
# Si number density = 22.419168 Si / 1000 Ang^3
#
#
#
# Elastic Constant Matrix: (Units=GPa)
#
#
# Indices 1 2 3 4 5 6 
#
# 1 53.4373 3.9831 38.4383 0.0000 0.0000 1.0451
# 2 3.9831 53.4373 38.4383 0.0000 0.0000 -1.0451
# 3 38.4383 38.4383 177.6932 0.0000 0.0000 0.0000
# 4 0.0000 0.0000 0.0000 28.7431 0.0000 0.0000
# 5 0.0000 0.0000 0.0000 0.0000 28.7431 0.0000
# 6 1.0451 -1.0451 0.0000 0.0000 0.0000 25.4157
#
#
#
# Elastic Compliance Matrix: (Units=1/GPa)
#
#
# Indices 1 2 3 4 5 6 
#
# 1 0.022386 0.002130 -0.005303 0.000000 0.000000 -0.000833
# 2 0.002130 0.022386 -0.005303 0.000000 0.000000 0.000833
# 3 -0.005303 -0.005303 0.007922 0.000000 0.000000 0.000000
# 4 0.000000 0.000000 0.000000 0.034791 0.000000 0.000000
# 5 0.000000 0.000000 0.000000 0.000000 0.034791 0.000000
# 6 -0.000833 0.000833 0.000000 0.000000 0.000000 0.039414
#
#
# Mechanical properties :
#
#
# Convention : Reuss Voigt Hill
#
# Bulk Modulus (GPa) = 27.97955 49.58746 38.78351
# Shear Modulus (GPa) = 26.23898 30.16090 28.19994
#
# Velocity S-wave (km/s) = 3.42480 3.67184 3.55047
# Velocity P-wave (km/s) = 5.30530 6.33584 5.84333
#
# Compressibility (1/GPa) = 0.03574039
#
# Stress axis : x y z
#
# Youngs Moduli (GPa) = 44.67133 44.67133 126.23046
#
# Poissons Ratio (x) = -0.09514 0.66942
# Poissons Ratio (y) = -0.09514 0.66942
# Poissons Ratio (z) = 0.23690 0.23690
#
# Static dielectric constant tensor:
#      x y z
#    x 3.851320 0.000000 0.000000 
#    y 0.000000 3.851320 0.000000 
#    z 0.000000 0.000000 4.386350 
# 
# 
# High freq. dielectric constant tensor:
#      x y z
#    x 1.865320 0.000000 0.000000 
#    y 0.000000 1.865320 0.000000 
#    z 0.000000 0.000000 1.906200 
# 
# From -- ./inp_files/3471.got.cif
#   From: 2010.03.12/outbox.cif.g09.slc.cpg/sg83_2_cif.got.tgz:3471.got - 2010.04.08 20:05:18.
