data_PCOD8302016
_publ_section_title
;
Structure prediction by ZEFSAII (Michael W. Deem and Ramdas Pophale) SiO2 
 PCOD8302016
Probable space group: P 43
;
_chemical_formula_sum "Si O2"
_cell_formula_units_Z 32
_cell_length_a 8.844686
_cell_length_b 8.844686
_cell_length_c 18.249517
_cell_angle_alpha 90.000000
_cell_angle_beta 90.000000
_cell_angle_gamma 90.000000
_cell_volume 1427.631801
_symmetry_space_group_name_H-M "P 43"
_symmetry_group_IT_number 78
_symmetry_cell_setting 'tetragonal'
loop_
_space_group_symop_operation_xyz
x,y,z
-y,x,3/4+z
-x,-y,1/2+z
y,-x,1/4+z
loop_
_atom_site_type_symbol
_atom_site_label
_atom_site_fract_x
_atom_site_fract_y
_atom_site_fract_z
Si Si1 0.498427 0.673719 0.399870
Si Si2 0.081101 0.934639 0.423495
Si Si3 0.245849 0.420238 0.996245
Si Si4 0.422912 0.946811 0.766612
Si Si5 0.743690 0.304546 0.007257
Si Si6 0.072165 0.808708 0.272139
Si Si7 0.741213 0.779988 0.913612
Si Si8 0.543193 0.020656 0.427455
O O1 0.656386 0.594391 0.421936
O O2 0.469533 0.645342 0.314171
O O3 0.371825 0.604470 0.454334
O O4 0.479469 0.851893 0.417283
O O5 0.206079 0.854719 0.473778
O O6 0.025241 0.826998 0.357060
O O7 0.942619 0.992880 0.472369
O O8 0.157001 0.080220 0.386713
O O9 0.185790 0.253441 0.015269
O O10 0.118204 0.551425 0.985663
O O11 0.594218 0.891240 0.765015
O O12 0.311553 0.837053 0.723180
O O13 0.368012 0.944265 0.851240
O O14 0.677717 0.283094 0.090341
O O15 0.987294 0.657063 0.245935
O O16 0.583162 0.850329 0.944696
#
# Coordination Sequence:
#
# PCOD8302016 Si02
#       8
#     4   4   4   4   4   4   4   4
#     4  10  20  37  70  92 131 168 226 266 323 395
#     4  12  21  39  64  97 123 171 222 274 319 395
#     4  10  20  40  64 100 125 176 216 278 325 395
#     4  10  22  40  65  94 135 165 217 279 336 392
#     4  11  21  39  64  93 125 173 226 265 317 405
#     4  11  22  38  68  93 131 167 228 268 329 394
#     4  11  23  40  64  95 135 170 217 277 337 390
#     4   9  21  41  63  94 129 172 216 275 326 392
#
# _framework density 22.414743999999999
#
# number of rings (size 3 to 8) (size 9 to 14) (size 15 to 20)
#    0.000    1.500    5.000    0.750    3.500    0.000 
#    0.000    1.250    2.750    0.000    0.000    0.000 
#    0.000    0.000    0.000    0.000    0.000    0.000 
#
# Total GULP energy -396551.595473 kJ/mol
# GULP energy per Si atom -12392.237359 kJ/mol
# Density = 2.236373 g / cm^3
# Si number density = 22.414744 Si / 1000 Ang^3
#
#
#
# Elastic Constant Matrix: (Units=GPa)
#
#
# Indices 1 2 3 4 5 6 
#
# 1 71.2569 23.9579 35.3023 0.0000 0.0000 -2.3140
# 2 23.9579 71.2569 35.3023 0.0000 0.0000 2.3140
# 3 35.3023 35.3023 112.3891 0.0000 0.0000 0.0000
# 4 0.0000 0.0000 0.0000 33.3007 0.0000 0.0000
# 5 0.0000 0.0000 0.0000 0.0000 33.3007 0.0000
# 6 -2.3140 2.3140 0.0000 0.0000 0.0000 32.2232
#
#
#
# Elastic Compliance Matrix: (Units=1/GPa)
#
#
# Indices 1 2 3 4 5 6 
#
# 1 0.017492 -0.003800 -0.004301 0.000000 0.000000 0.001529
# 2 -0.003800 0.017492 -0.004301 0.000000 0.000000 -0.001529
# 3 -0.004301 -0.004301 0.011599 0.000000 0.000000 0.000000
# 4 0.000000 0.000000 0.000000 0.030029 0.000000 0.000000
# 5 0.000000 0.000000 0.000000 0.000000 0.030029 0.000000
# 6 0.001529 -0.001529 0.000000 0.000000 0.000000 0.031253
#
#
# Mechanical properties :
#
#
# Convention : Reuss Voigt Hill
#
# Bulk Modulus (GPa) = 45.91353 49.33640 47.62497
# Shear Modulus (GPa) = 29.41912 30.45426 29.93669
#
# Velocity S-wave (km/s) = 3.62676 3.69001 3.65852
# Velocity P-wave (km/s) = 6.16976 6.34140 6.25617
#
# Compressibility (1/GPa) = 0.02178007
#
# Stress axis : x y z
#
# Youngs Moduli (GPa) = 57.17005 57.17005 86.21146
#
# Poissons Ratio (x) = 0.21725 0.37076
# Poissons Ratio (y) = 0.21725 0.37076
# Poissons Ratio (z) = 0.24587 0.24587
#
# Static dielectric constant tensor:
#      x y z
#    x 3.825950 0.000000 0.000000 
#    y 0.000000 3.825950 0.000000 
#    z 0.000000 0.000000 4.159130 
# 
# 
# High freq. dielectric constant tensor:
#      x y z
#    x 1.868260 0.000000 0.000000 
#    y 0.000000 1.868260 0.000000 
#    z 0.000000 0.000000 1.884640 
# 
# From -- ./inp_files/1464.got.cif
#   From: 2010.03.12/outbox.cif.g09.slc.cpg/sg78_cif.got.tgz:1464.got - 2010.04.16 16:37:20.
