data_PCOD8302561
_publ_section_title
;
Structure prediction by ZEFSAII (Michael W. Deem and Ramdas Pophale) SiO2 
 PCOD8302561
Probable space group: I -4 
;
_chemical_formula_sum "Si O2"
_cell_formula_units_Z 44
_cell_length_a 8.849658
_cell_length_b 8.849658
_cell_length_c 26.862559
_cell_angle_alpha 90.000000
_cell_angle_beta 90.000000
_cell_angle_gamma 90.000000
_cell_volume 2103.780171
_symmetry_space_group_name_H-M "I -4 "
_symmetry_group_IT_number 82
_symmetry_cell_setting 'tetragonal'
loop_
_space_group_symop_operation_xyz
x,y,z
y,-x,-z
-x,-y,z
-y,x,-z
1/2+x,1/2+y,1/2+z
1/2+y,1/2-x,1/2-z
1/2-x,1/2-y,1/2+z
1/2-y,1/2+x,1/2-z
loop_
_atom_site_type_symbol
_atom_site_label
_atom_site_fract_x
_atom_site_fract_y
_atom_site_fract_z
Si Si1 0.137286 0.706649 0.064082
Si Si2 0.265020 0.014540 0.738353
Si Si3 0.008065 0.331580 0.960143
Si Si4 0.515947 0.323639 0.870186
Si Si5 0.183232 0.846248 0.885030
Si Si6 0.500000 0.500000 0.692519
O O1 0.227279 0.567202 0.087556
O O2 0.018861 0.764541 0.105290
O O3 0.262710 0.826195 0.046646
O O4 0.038426 0.652681 0.017536
O O5 0.379531 0.153854 0.731374
O O6 0.210440 0.951570 0.684852
O O7 0.127242 0.071322 0.771936
O O8 0.893142 0.217248 0.934466
O O9 0.000000 0.500000 0.936394
O O10 0.500000 0.500000 0.883024
O O11 0.689165 0.272210 0.869723
O O12 0.062157 0.860182 0.840442
#
# Coordination Sequence:
#
# PCOD8302561 Si02
#       6
#     8   8   8   8   8   4
#     4  12  25  45  71 100 137 185 238 294 349 437
#     4  11  24  42  69 101 138 183 237 296 357 427
#     4  12  25  44  66 101 140 179 233 293 358 423
#     4  12  26  46  69 103 145 183 233 301 365 429
#     4  12  24  44  71 100 134 186 237 285 357 431
#     4  12  22  42  71 102 134 181 242 298 346 432
#
# _framework density 20.914731
#
# number of rings (size 3 to 8) (size 9 to 14) (size 15 to 20)
#    0.000    0.182    6.364    3.818    2.545    0.000 
#    0.000    0.000    0.000    0.000    0.000    0.000 
#    0.000    0.000    0.000    0.000    0.000    0.000 
#
# Total GULP energy -272888.858675 kJ/mol
# GULP energy per Si atom -12404.039031 kJ/mol
# Density = 2.086713 g / cm^3
# Si number density = 20.914731 Si / 1000 Ang^3
#
#
#
# Elastic Constant Matrix: (Units=GPa)
#
#
# Indices 1 2 3 4 5 6 
#
# 1 116.7691 41.4038 31.6532 0.0000 0.0000 -7.0016
# 2 41.4038 116.7691 31.6532 0.0000 0.0000 7.0016
# 3 31.6532 31.6532 103.6656 0.0000 0.0000 0.0000
# 4 0.0000 0.0000 0.0000 36.6224 0.0000 0.0000
# 5 0.0000 0.0000 0.0000 0.0000 36.6224 0.0000
# 6 -7.0016 7.0016 0.0000 0.0000 0.0000 35.3440
#
#
#
# Elastic Compliance Matrix: (Units=1/GPa)
#
#
# Indices 1 2 3 4 5 6 
#
# 1 0.010489 -0.003287 -0.002199 0.000000 0.000000 0.002729
# 2 -0.003287 0.010489 -0.002199 0.000000 0.000000 -0.002729
# 3 -0.002199 -0.002199 0.010989 0.000000 0.000000 0.000000
# 4 0.000000 0.000000 0.000000 0.027306 0.000000 0.000000
# 5 0.000000 0.000000 0.000000 0.000000 0.027306 0.000000
# 6 0.002729 -0.002729 0.000000 0.000000 0.000000 0.029375
#
#
# Mechanical properties :
#
#
# Convention : Reuss Voigt Hill
#
# Bulk Modulus (GPa) = 60.25016 60.73603 60.49309
# Shear Modulus (GPa) = 36.53476 37.21735 36.87606
#
# Velocity S-wave (km/s) = 4.18406 4.22297 4.20356
# Velocity P-wave (km/s) = 7.22578 7.27192 7.24888
#
# Compressibility (1/GPa) = 0.01659747
#
# Stress axis : x y z
#
# Youngs Moduli (GPa) = 95.33736 95.33736 90.99689
#
# Poissons Ratio (x) = 0.31334 0.20012
# Poissons Ratio (y) = 0.31334 0.20012
# Poissons Ratio (z) = 0.20966 0.20966
#
# Static dielectric constant tensor:
#      x y z
#    x 3.768980 0.000000 0.000000 
#    y 0.000000 3.768980 0.000000 
#    z 0.000000 0.000000 3.787540 
# 
# 
# High freq. dielectric constant tensor:
#      x y z
#    x 1.818130 0.000000 0.000000 
#    y 0.000000 1.818130 0.000000 
#    z 0.000000 0.000000 1.830120 
# 
# From -- ./inp_files/3937.got.cif
#   From: 2010.03.12/outbox.cif.g09.slc.cpg/sg82_2_cif.got.tgz:3937.got - 2010.04.08 20:02:50.
