data_PCOD8302656
_publ_section_title
;
Structure prediction by ZEFSAII (Michael W. Deem and Ramdas Pophale) SiO2 
 PCOD8302656
Probable space group: P 4/M
;
_chemical_formula_sum "Si O2"
_cell_formula_units_Z 56
_cell_length_a 20.354935
_cell_length_b 20.354935
_cell_length_c 8.875099
_cell_angle_alpha 90.000000
_cell_angle_beta 90.000000
_cell_angle_gamma 90.000000
_cell_volume 3677.161005
_symmetry_space_group_name_H-M "P 4/M"
_symmetry_group_IT_number 83
_symmetry_cell_setting 'tetragonal'
loop_
_space_group_symop_operation_xyz
x,y,z
-y,x,z
-x,-y,z
y,-x,z
-x,-y,-z
y,-x,-z
x,y,-z
-y,x,-z
loop_
_atom_site_type_symbol
_atom_site_label
_atom_site_fract_x
_atom_site_fract_y
_atom_site_fract_z
Si Si1 0.742990 0.840426 0.822150
Si Si2 0.062136 0.144225 0.164724
Si Si3 0.369864 0.085293 0.322207
Si Si4 0.738038 0.158404 0.164823
Si Si5 0.933184 0.636261 0.323157
Si Si6 0.496756 0.922875 0.167356
Si Si7 0.062656 0.841633 0.324768
O O1 0.669534 0.857683 0.767480
O O2 0.767831 0.764471 0.787833
O O3 0.783229 0.890407 0.719895
O O4 0.749549 0.855230 0.000000
O O5 0.122759 0.192692 0.147961
O O6 0.089810 0.078046 0.240377
O O7 0.010073 0.178808 0.274303
O O8 0.031732 0.129103 0.000000
O O9 0.360944 0.094906 0.500000
O O10 0.444789 0.100307 0.276260
O O11 0.349462 0.009590 0.275679
O O12 0.693884 0.118506 0.282603
O O13 0.702893 0.160325 0.000000
O O14 0.930989 0.624198 0.500000
O O15 0.903662 0.572358 0.241960
O O16 0.500000 0.000000 0.150630
O O17 0.502339 0.890912 0.000000
O O18 0.066862 0.854050 0.500000
#
# Coordination Sequence:
#
# PCOD8302656 Si02
#       7
#     8   8   8   8   8   8   8
#     4  10  20  33  46  61  82 110 141 170 205 251
#     4  10  20  34  47  58  74  98 127 161 204 254
#     4  10  19  30  45  66  89 111 139 178 219 255
#     4   9  19  32  45  60  79 105 138 171 202 245
#     4  10  19  29  44  65  88 111 137 174 217 256
#     4   9  17  29  45  64  86 112 140 169 206 255
#     4  11  21  32  45  61  77  94 123 165 209 250
#
# _framework density 15.229139
#
# number of rings (size 3 to 8) (size 9 to 14) (size 15 to 20)
#    0.000    2.143    0.000    5.143    0.000    9.429 
#    0.000    1.429    0.000    0.000    0.000    0.000 
#    0.000    0.000    0.000    0.000    0.000    0.714 
#
# Total GULP energy -693795.024255 kJ/mol
# GULP energy per Si atom -12389.196862 kJ/mol
# Density = 1.519448 g / cm^3
# Si number density = 15.229139 Si / 1000 Ang^3
#
#
#
# Elastic Constant Matrix: (Units=GPa)
#
#
# Indices 1 2 3 4 5 6 
#
# 1 55.8111 20.3530 26.4920 0.0000 0.0000 -0.0864
# 2 20.3530 55.8111 26.4920 0.0000 0.0000 0.0864
# 3 26.4920 26.4920 84.5310 0.0000 0.0000 0.0000
# 4 0.0000 0.0000 0.0000 21.5812 0.0000 0.0000
# 5 0.0000 0.0000 0.0000 0.0000 21.5812 0.0000
# 6 -0.0864 0.0864 0.0000 0.0000 0.0000 11.9575
#
#
#
# Elastic Compliance Matrix: (Units=1/GPa)
#
#
# Indices 1 2 3 4 5 6 
#
# 1 0.022497 -0.005707 -0.005262 0.000000 0.000000 0.000204
# 2 -0.005707 0.022497 -0.005262 0.000000 0.000000 -0.000204
# 3 -0.005262 -0.005262 0.015128 0.000000 0.000000 0.000000
# 4 0.000000 0.000000 0.000000 0.046337 0.000000 0.000000
# 5 0.000000 0.000000 0.000000 0.000000 0.046337 0.000000
# 6 0.000204 -0.000204 0.000000 0.000000 0.000000 0.083633
#
#
# Mechanical properties :
#
#
# Convention : Reuss Voigt Hill
#
# Bulk Modulus (GPa) = 36.15282 38.09189 37.12236
# Shear Modulus (GPa) = 17.97858 19.21173 18.59515
#
# Velocity S-wave (km/s) = 3.43962 3.55563 3.49811
# Velocity P-wave (km/s) = 6.29011 6.47483 6.38314
#
# Compressibility (1/GPa) = 0.02766036
#
# Stress axis : x y z
#
# Youngs Moduli (GPa) = 44.45099 44.45099 66.10168
#
# Poissons Ratio (x) = 0.25366 0.34783
# Poissons Ratio (y) = 0.25366 0.34783
# Poissons Ratio (z) = 0.23390 0.23390
#
# Static dielectric constant tensor:
#      x y z
#    x 2.839530 0.000000 0.000000 
#    y 0.000000 2.839530 0.000000 
#    z 0.000000 0.000000 3.055290 
# 
# 
# High freq. dielectric constant tensor:
#      x y z
#    x 1.549400 0.000000 0.000000 
#    y 0.000000 1.549400 0.000000 
#    z 0.000000 0.000000 1.602880 
# 
# From -- ./inp_files/1195.got.cif
#   From: 2010.03.12/outbox.cif.g09.slc.cpg/sg83_1_cif.got.tgz:1195.got - 2010.04.08 20:05:18.
