data_PCOD8302961
_publ_section_title
;
Structure prediction by ZEFSAII (Michael W. Deem and Ramdas Pophale) SiO2 
 PCOD8302961
Probable space group: P 4/M
;
_chemical_formula_sum "Si O2"
_cell_formula_units_Z 32
_cell_length_a 8.524549
_cell_length_b 8.524549
_cell_length_c 21.467534
_cell_angle_alpha 90.000000
_cell_angle_beta 90.000000
_cell_angle_gamma 90.000000
_cell_volume 1560.001379
_symmetry_space_group_name_H-M "P 4/M"
_symmetry_group_IT_number 83
_symmetry_cell_setting 'tetragonal'
loop_
_space_group_symop_operation_xyz
x,y,z
-y,x,z
-x,-y,z
y,-x,z
-x,-y,-z
y,-x,-z
x,y,-z
-y,x,-z
loop_
_atom_site_type_symbol
_atom_site_label
_atom_site_fract_x
_atom_site_fract_y
_atom_site_fract_z
Si Si1 0.741509 0.411044 0.104992
Si Si2 0.000000 0.500000 0.337125
Si Si3 0.575092 0.745111 0.246520
Si Si4 0.931704 0.752235 0.570341
Si Si5 0.245549 0.086249 0.000000
O O1 0.697048 0.590505 0.091496
O O2 0.802153 0.398023 0.175828
O O3 0.880756 0.351835 0.060731
O O4 0.112267 0.606874 0.293651
O O5 0.896455 0.613447 0.381115
O O6 0.396668 0.692835 0.258947
O O7 0.913596 0.688209 0.500000
O O8 0.810117 0.891321 0.581730
O O9 0.094068 0.197775 0.000000
#
# Coordination Sequence:
#
# PCOD8302961 Si02
#       5
#     8   4   8   8   4
#     4   9  19  37  58  77 100 136 179 214 254 316
#     4  12  19  30  56  83 102 134 180 218 262 307
#     4   9  20  36  52  76 109 138 170 216 262 309
#     4   9  19  35  52  74 107 142 176 215 257 307
#     4  11  24  37  52  80 112 135 166 219 270 304
#
# _framework density 20.512803000000002
#
# number of rings (size 3 to 8) (size 9 to 14) (size 15 to 20)
#    0.000    2.375    0.000    4.875    0.000    7.000 
#    0.000    0.000    0.000    3.000    0.000   10.500 
#    0.000    0.000    0.000    0.000    0.000    0.000 
#
# Total GULP energy -396791.356211 kJ/mol
# GULP energy per Si atom -12399.729882 kJ/mol
# Density = 2.046612 g / cm^3
# Si number density = 20.512803 Si / 1000 Ang^3
#
#
#
# Elastic Constant Matrix: (Units=GPa)
#
#
# Indices 1 2 3 4 5 6 
#
# 1 48.6719 3.1816 38.9138 0.0000 0.0000 0.9797
# 2 3.1816 48.6719 38.9138 0.0000 0.0000 -0.9797
# 3 38.9138 38.9138 136.2737 0.0000 0.0000 0.0000
# 4 0.0000 0.0000 0.0000 26.6179 0.0000 0.0000
# 5 0.0000 0.0000 0.0000 0.0000 26.6179 0.0000
# 6 0.9797 -0.9797 0.0000 0.0000 0.0000 24.9522
#
#
#
# Elastic Compliance Matrix: (Units=1/GPa)
#
#
# Indices 1 2 3 4 5 6 
#
# 1 0.027885 0.005865 -0.009638 0.000000 0.000000 -0.000865
# 2 0.005865 0.027885 -0.009638 0.000000 0.000000 0.000865
# 3 -0.009638 -0.009638 0.012842 0.000000 0.000000 0.000000
# 4 0.000000 0.000000 0.000000 0.037569 0.000000 0.000000
# 5 0.000000 0.000000 0.000000 0.000000 0.037569 0.000000
# 6 -0.000865 0.000865 0.000000 0.000000 0.000000 0.040144
#
#
# Mechanical properties :
#
#
# Convention : Reuss Voigt Hill
#
# Bulk Modulus (GPa) = 23.92771 43.95954 33.94363
# Shear Modulus (GPa) = 22.25731 25.81151 24.03441
#
# Velocity S-wave (km/s) = 3.29758 3.55112 3.42669
# Velocity P-wave (km/s) = 5.11750 6.18795 5.67801
#
# Compressibility (1/GPa) = 0.04179255
#
# Stress axis : x y z
#
# Youngs Moduli (GPa) = 35.86141 35.86141 77.86746
#
# Poissons Ratio (x) = -0.21033 0.75046
# Poissons Ratio (y) = -0.21033 0.75046
# Poissons Ratio (z) = 0.34562 0.34562
#
# Static dielectric constant tensor:
#      x y z
#    x 3.436850 0.000000 0.000000 
#    y 0.000000 3.436850 0.000000 
#    z 0.000000 0.000000 3.774560 
# 
# 
# High freq. dielectric constant tensor:
#      x y z
#    x 1.784870 0.000000 0.000000 
#    y 0.000000 1.784870 0.000000 
#    z 0.000000 0.000000 1.815900 
# 
# From -- ./inp_files/2804.got.cif
#   From: 2010.03.12/outbox.cif.g09.slc.cpg/sg83_2_cif.got.tgz:2804.got - 2010.04.08 20:05:18.
