data_PCOD8302175
_publ_section_title
;
Structure prediction by ZEFSAII (Michael W. Deem and Ramdas Pophale) SiO2 
 PCOD8302175
Probable space group: I 41
;
_chemical_formula_sum "Si O2"
_cell_formula_units_Z 64
_cell_length_a 14.076179
_cell_length_b 14.076179
_cell_length_c 17.026630
_cell_angle_alpha 90.000000
_cell_angle_beta 90.000000
_cell_angle_gamma 90.000000
_cell_volume 3373.636296
_symmetry_space_group_name_H-M "I 41"
_symmetry_group_IT_number 80
_symmetry_cell_setting 'tetragonal'
loop_
_space_group_symop_operation_xyz
x,y,z
-y,1/2+x,1/4+z
-x,-y,z
y,1/2-x,1/4+z
1/2+x,1/2+y,1/2+z
1/2-y,x,3/4+z
1/2-x,1/2-y,1/2+z
1/2+y,-x,3/4+z
loop_
_atom_site_type_symbol
_atom_site_label
_atom_site_fract_x
_atom_site_fract_y
_atom_site_fract_z
Si Si1 0.300496 0.306992 0.679410
Si Si2 0.402969 0.465687 0.769289
Si Si3 0.866998 0.565379 0.676754
Si Si4 0.198531 0.034816 0.538382
Si Si5 0.604442 0.270627 0.005085
Si Si6 0.480629 0.887782 0.449059
Si Si7 0.157494 0.307518 0.035471
Si Si8 0.367159 0.727143 0.188217
O O1 0.370904 0.364075 0.736206
O O2 0.227154 0.383406 0.643074
O O3 0.244707 0.221602 0.721008
O O4 0.360374 0.261501 0.608911
O O5 0.500000 0.500000 0.727789
O O6 0.426799 0.448945 0.861395
O O7 0.330273 0.551453 0.752955
O O8 0.893706 0.619172 0.756556
O O9 0.847351 0.458352 0.706555
O O10 0.291592 0.094941 0.561885
O O11 0.154731 0.983060 0.612342
O O12 0.220307 0.960160 0.470054
O O13 0.621522 0.294361 0.096034
O O14 0.707310 0.275119 0.960614
O O15 0.554695 0.832718 0.502902
O O16 0.375341 0.862758 0.481244
O O17 0.500000 0.000000 0.448539
#
# Coordination Sequence:
#
# PCOD8302175 Si02
#       8
#     8   8   8   8   8   8   8   8
#     4  10  21  38  62  91 124 160 204 260 321 378
#     4  11  22  40  64  94 124 166 211 260 322 394
#     4  10  21  34  64  98 126 158 198 262 336 388
#     4  11  22  34  59  92 128 156 198 263 329 381
#     4  11  24  40  62  93 135 167 211 266 331 398
#     4  12  24  38  62  91 127 171 215 262 323 390
#     4  11  21  39  62  88 124 164 210 265 313 377
#     4  12  23  40  58  89 132 174 209 259 328 391
#
# _framework density 18.970627
#
# number of rings (size 3 to 8) (size 9 to 14) (size 15 to 20)
#    0.000    1.000    6.250    1.500    0.000    0.000 
#    2.250    0.000    0.000    2.250    0.000    0.000 
#    0.000    0.000    0.000    0.000    0.000    0.000 
#
# Total GULP energy -396637.334691 kJ/mol
# GULP energy per Si atom -12394.916709 kJ/mol
# Density = 1.892745 g / cm^3
# Si number density = 18.970627 Si / 1000 Ang^3
#
#
#
# Elastic Constant Matrix: (Units=GPa)
#
#
# Indices 1 2 3 4 5 6 
#
# 1 119.4997 61.4341 43.5305 0.0000 0.0000 11.4605
# 2 61.4341 119.4997 43.5305 0.0000 0.0000 -11.4605
# 3 43.5305 43.5305 81.2735 0.0000 0.0000 0.0000
# 4 0.0000 0.0000 0.0000 24.1628 0.0000 0.0000
# 5 0.0000 0.0000 0.0000 0.0000 24.1628 0.0000
# 6 11.4605 -11.4605 0.0000 0.0000 0.0000 13.4097
#
#
#
# Elastic Compliance Matrix: (Units=1/GPa)
#
#
# Indices 1 2 3 4 5 6 
#
# 1 0.016718 -0.009272 -0.003988 0.000000 0.000000 -0.022212
# 2 -0.009272 0.016718 -0.003988 0.000000 0.000000 0.022212
# 3 -0.003988 -0.003988 0.016576 0.000000 0.000000 0.000000
# 4 0.000000 0.000000 0.000000 0.041386 0.000000 0.000000
# 5 0.000000 0.000000 0.000000 0.000000 0.041386 0.000000
# 6 -0.022212 0.022212 0.000000 0.000000 0.000000 0.112540
#
#
# Mechanical properties :
#
#
# Convention : Reuss Voigt Hill
#
# Bulk Modulus (GPa) = 64.45086 68.58482 66.51784
# Shear Modulus (GPa) = 17.54432 23.79889 20.67161
#
# Velocity S-wave (km/s) = 3.04438 3.54575 3.30459
# Velocity P-wave (km/s) = 6.81215 7.27975 7.04983
#
# Compressibility (1/GPa) = 0.01551570
#
# Stress axis : x y z
#
# Youngs Moduli (GPa) = 59.81595 59.81594 60.32767
#
# Poissons Ratio (x) = 0.55462 0.24059
# Poissons Ratio (y) = 0.55462 0.24059
# Poissons Ratio (z) = 0.23855 0.23855
#
# Static dielectric constant tensor:
#      x y z
#    x 3.530090 0.000000 0.000000 
#    y 0.000000 3.530090 0.000000 
#    z 0.000000 0.000000 3.279760 
# 
# 
# High freq. dielectric constant tensor:
#      x y z
#    x 1.736570 0.000000 0.000000 
#    y 0.000000 1.736570 0.000000 
#    z 0.000000 0.000000 1.720540 
# 
# From -- ./inp_files/1588.got.cif
#   From: 2010.03.12/outbox.cif.g09.slc.cpg/sg80_cif.got.tgz:1588.got - 2010.04.08 20:00:04.
