data_PCOD8302433
_publ_section_title
;
Structure prediction by ZEFSAII (Michael W. Deem and Ramdas Pophale) SiO2 
 PCOD8302433
Probable space group: I -4 
;
_chemical_formula_sum "Si O2"
_cell_formula_units_Z 40
_cell_length_a 19.063321
_cell_length_b 19.063321
_cell_length_c 5.049528
_cell_angle_alpha 90.000000
_cell_angle_beta 90.000000
_cell_angle_gamma 90.000000
_cell_volume 1835.050019
_symmetry_space_group_name_H-M "I -4 "
_symmetry_group_IT_number 82
_symmetry_cell_setting 'tetragonal'
loop_
_space_group_symop_operation_xyz
x,y,z
y,-x,-z
-x,-y,z
-y,x,-z
1/2+x,1/2+y,1/2+z
1/2+y,1/2-x,1/2-z
1/2-x,1/2-y,1/2+z
1/2-y,1/2+x,1/2-z
loop_
_atom_site_type_symbol
_atom_site_label
_atom_site_fract_x
_atom_site_fract_y
_atom_site_fract_z
Si Si1 0.103334 0.248812 0.070226
Si Si2 0.452331 0.598616 0.574414
Si Si3 0.132608 0.714056 0.482513
Si Si4 0.836556 0.132812 0.435935
Si Si5 0.550450 0.243394 0.469036
O O1 0.088239 0.206389 0.345884
O O2 0.154799 0.313877 0.108959
O O3 0.135390 0.197264 0.854751
O O4 0.030520 0.278342 0.958936
O O5 0.535952 0.583678 0.598308
O O6 0.415935 0.604176 0.869033
O O7 0.441157 0.672230 0.417372
O O8 0.170394 0.787849 0.539094
O O9 0.091623 0.696690 0.753840
O O10 0.075824 0.722795 0.256675
#
# Coordination Sequence:
#
# PCOD8302433 Si02
#       5
#     8   8   8   8   8
#     4  12  23  43  68  95 128 174 220 287 332 388
#     4  10  21  40  62  94 142 183 218 261 320 402
#     4  11  24  41  66  96 131 165 226 279 335 385
#     4  11  22  40  67  94 129 175 228 266 328 388
#     4  11  24  42  64  97 129 175 221 269 332 406
#
# _framework density 21.797771999999998
#
# number of rings (size 3 to 8) (size 9 to 14) (size 15 to 20)
#    0.000    1.000    2.000    6.000    0.000    0.000 
#    0.000    0.000    0.000    3.600    0.000    0.000 
#    0.000    0.000    0.000    0.000    0.000    0.000 
#
# Total GULP energy -247944.095559 kJ/mol
# GULP energy per Si atom -12397.204778 kJ/mol
# Density = 2.174816 g / cm^3
# Si number density = 21.797772 Si / 1000 Ang^3
#
#
#
# Elastic Constant Matrix: (Units=GPa)
#
#
# Indices 1 2 3 4 5 6 
#
# 1 82.5767 43.4285 29.1522 0.0000 0.0000 3.0159
# 2 43.4285 82.5767 29.1522 0.0000 0.0000 -3.0159
# 3 29.1522 29.1522 101.8842 0.0000 0.0000 0.0000
# 4 0.0000 0.0000 0.0000 28.2555 0.0000 0.0000
# 5 0.0000 0.0000 0.0000 0.0000 28.2555 0.0000
# 6 3.0159 -3.0159 0.0000 0.0000 0.0000 29.9781
#
#
#
# Elastic Compliance Matrix: (Units=1/GPa)
#
#
# Indices 1 2 3 4 5 6 
#
# 1 0.017547 -0.008399 -0.002617 0.000000 0.000000 -0.002610
# 2 -0.008399 0.017547 -0.002617 0.000000 0.000000 0.002610
# 3 -0.002617 -0.002617 0.011313 0.000000 0.000000 0.000000
# 4 0.000000 0.000000 0.000000 0.035391 0.000000 0.000000
# 5 0.000000 0.000000 0.000000 0.000000 0.035391 0.000000
# 6 -0.002610 0.002610 0.000000 0.000000 0.000000 0.033883
#
#
# Mechanical properties :
#
#
# Convention : Reuss Voigt Hill
#
# Bulk Modulus (GPa) = 52.25178 52.27817 52.26497
# Shear Modulus (GPa) = 27.06809 28.31812 27.69310
#
# Velocity S-wave (km/s) = 3.52772 3.60825 3.56821
# Velocity P-wave (km/s) = 6.37309 6.43387 6.40355
#
# Compressibility (1/GPa) = 0.01913810
#
# Stress axis : x y z
#
# Youngs Moduli (GPa) = 56.99077 56.99077 88.39502
#
# Poissons Ratio (x) = 0.47869 0.23136
# Poissons Ratio (y) = 0.47869 0.23136
# Poissons Ratio (z) = 0.14916 0.14916
#
# Static dielectric constant tensor:
#      x y z
#    x 3.917030 0.000000 0.000000 
#    y 0.000000 3.917030 0.000000 
#    z 0.000000 0.000000 3.890010 
# 
# 
# High freq. dielectric constant tensor:
#      x y z
#    x 1.840300 0.000000 0.000000 
#    y 0.000000 1.840300 0.000000 
#    z 0.000000 0.000000 1.865950 
# 
# From -- ./inp_files/221.got.cif
#   From: 2010.03.12/outbox.cif.g09.slc.cpg/sg82_1_cif.got.tgz:221.got - 2010.04.08 20:02:50.
