data_PCOD8302069
_publ_section_title
;
Structure prediction by ZEFSAII (Michael W. Deem and Ramdas Pophale) SiO2 
 PCOD8302069
Probable space group: P 43
;
_chemical_formula_sum "Si O2"
_cell_formula_units_Z 20
_cell_length_a 12.996117
_cell_length_b 12.996117
_cell_length_c 4.863119
_cell_angle_alpha 90.000000
_cell_angle_beta 90.000000
_cell_angle_gamma 90.000000
_cell_volume 821.376214
_symmetry_space_group_name_H-M "P 43"
_symmetry_group_IT_number 78
_symmetry_cell_setting 'tetragonal'
loop_
_space_group_symop_operation_xyz
x,y,z
-y,x,3/4+z
-x,-y,1/2+z
y,-x,1/4+z
loop_
_atom_site_type_symbol
_atom_site_label
_atom_site_fract_x
_atom_site_fract_y
_atom_site_fract_z
Si Si1 0.013597 0.566407 0.901970
Si Si2 0.076628 0.135921 0.999408
Si Si3 0.257137 0.866646 0.751532
Si Si4 0.353523 0.561832 0.299640
Si Si5 0.239269 0.638169 0.780570
O O1 0.969579 0.528151 0.610406
O O2 0.120175 0.626665 0.860885
O O3 0.924446 0.635201 0.042880
O O4 0.061409 0.197692 0.281387
O O5 0.125714 0.028098 0.079532
O O6 0.148624 0.198198 0.790997
O O7 0.264090 0.749637 0.644120
O O8 0.381891 0.449936 0.190203
O O9 0.267774 0.555187 0.542074
O O10 0.311746 0.627238 0.045182
#
# Coordination Sequence:
#
# PCOD8302069 Si02
#       5
#     4   4   4   4   4
#     4  12  28  49  75 112 158 205 259 326 401 469
#     4  12  23  42  72 106 143 190 247 316 375 443
#     4  12  27  47  73 106 154 199 260 310 384 478
#     4  12  27  49  77 114 151 199 266 332 395 463
#     4  12  27  47  81 112 156 211 260 318 401 473
#
# _framework density 24.349377
#
# number of rings (size 3 to 8) (size 9 to 14) (size 15 to 20)
#    0.000    0.000    0.000   10.800    8.400    0.000 
#    0.000    0.000    0.000    0.000    0.000    0.000 
#    0.000    0.000    0.000    0.000    0.000    0.000 
#
# Total GULP energy -248087.798016 kJ/mol
# GULP energy per Si atom -12404.389901 kJ/mol
# Density = 2.429396 g / cm^3
# Si number density = 24.349377 Si / 1000 Ang^3
#
#
#
# Elastic Constant Matrix: (Units=GPa)
#
#
# Indices 1 2 3 4 5 6 
#
# 1 120.6922 38.3054 37.3395 0.0000 0.0000 -3.7174
# 2 38.3054 120.6922 37.3395 0.0000 0.0000 3.7174
# 3 37.3395 37.3395 150.6439 0.0000 0.0000 0.0000
# 4 0.0000 0.0000 0.0000 47.2305 0.0000 0.0000
# 5 0.0000 0.0000 0.0000 0.0000 47.2305 0.0000
# 6 -3.7174 3.7174 0.0000 0.0000 0.0000 28.5725
#
#
#
# Elastic Compliance Matrix: (Units=1/GPa)
#
#
# Indices 1 2 3 4 5 6 
#
# 1 0.009700 -0.002582 -0.001764 0.000000 0.000000 0.001598
# 2 -0.002582 0.009700 -0.001764 0.000000 0.000000 -0.001598
# 3 -0.001764 -0.001764 0.007513 0.000000 0.000000 0.000000
# 4 0.000000 0.000000 0.000000 0.021173 0.000000 0.000000
# 5 0.000000 0.000000 0.000000 0.000000 0.021173 0.000000
# 6 0.001598 -0.001598 0.000000 0.000000 0.000000 0.035414
#
#
# Mechanical properties :
#
#
# Convention : Reuss Voigt Hill
#
# Bulk Modulus (GPa) = 68.06586 68.66634 68.36610
# Shear Modulus (GPa) = 41.05379 43.20963 42.13171
#
# Velocity S-wave (km/s) = 4.11058 4.21713 4.16420
# Velocity P-wave (km/s) = 7.10941 7.20930 7.15953
#
# Compressibility (1/GPa) = 0.01469165
#
# Stress axis : x y z
#
# Youngs Moduli (GPa) = 103.09196 103.09196 133.10605
#
# Poissons Ratio (x) = 0.26618 0.23484
# Poissons Ratio (y) = 0.26618 0.23484
# Poissons Ratio (z) = 0.18189 0.18189
#
# Static dielectric constant tensor:
#      x y z
#    x 4.320230 0.000000 0.000000 
#    y 0.000000 4.320230 0.000000 
#    z 0.000000 0.000000 4.624740 
# 
# 
# High freq. dielectric constant tensor:
#      x y z
#    x 1.968650 0.000000 0.000000 
#    y 0.000000 1.968650 0.000000 
#    z 0.000000 0.000000 1.989400 
# 
# From -- ./inp_files/144.got.cif
#   From: 2010.03.12/outbox.cif.g09.slc.cpg/sg78_cif.got.tgz:144.got - 2010.04.16 16:37:20.
