data_PCOD8302929
_publ_section_title
;
Structure prediction by ZEFSAII (Michael W. Deem and Ramdas Pophale) SiO2 
 PCOD8302929
Probable space group: P 4/M
;
_chemical_formula_sum "Si O2"
_cell_formula_units_Z 48
_cell_length_a 17.363539
_cell_length_b 17.363539
_cell_length_c 8.975167
_cell_angle_alpha 90.000000
_cell_angle_beta 90.000000
_cell_angle_gamma 90.000000
_cell_volume 2705.945417
_symmetry_space_group_name_H-M "P 4/M"
_symmetry_group_IT_number 83
_symmetry_cell_setting 'tetragonal'
loop_
_space_group_symop_operation_xyz
x,y,z
-y,x,z
-x,-y,z
y,-x,z
-x,-y,-z
y,-x,-z
x,y,-z
-y,x,-z
loop_
_atom_site_type_symbol
_atom_site_label
_atom_site_fract_x
_atom_site_fract_y
_atom_site_fract_z
Si Si1 0.536256 0.199735 0.174173
Si Si2 0.056838 0.723162 0.323761
Si Si3 0.881707 0.960217 0.827189
Si Si4 0.198219 0.641583 0.825279
Si Si5 0.357207 0.902742 0.668420
Si Si6 0.671035 0.264132 0.331123
O O1 0.447501 0.209811 0.214427
O O2 0.567000 0.115734 0.231232
O O3 0.584742 0.266810 0.259773
O O4 0.551880 0.207012 0.000000
O O5 0.063430 0.722191 0.500000
O O6 0.122749 0.670086 0.257564
O O7 0.066925 0.810148 0.270008
O O8 0.974981 0.689805 0.267054
O O9 0.904158 0.047670 0.787620
O O10 0.860043 0.953276 0.000000
O O11 0.272720 0.686299 0.769294
O O12 0.188094 0.655451 0.000000
O O13 0.384938 0.920000 0.500000
O O14 0.302502 0.826186 0.671090
O O15 0.669553 0.296166 0.500000
#
# Coordination Sequence:
#
# PCOD8302929 Si02
#       6
#     8   8   8   8   8   8
#     4   9  19  36  58  82 112 148 183 228 278 330
#     4  11  23  36  54  80 112 145 185 234 277 327
#     4   9  20  38  55  73 102 141 185 233 284 334
#     4  11  23  37  56  86 115 145 188 229 276 335
#     4   8  19  37  54  77 108 145 181 219 272 327
#     4   9  19  37  59  81 110 147 185 225 276 331
#
# _framework density 17.738717000000001
#
# number of rings (size 3 to 8) (size 9 to 14) (size 15 to 20)
#    1.000    1.500    0.000    2.000    2.333    5.333 
#    0.000    4.167    0.000    0.500    0.000    3.500 
#    0.000    0.000    0.000    0.000    0.000    0.000 
#
# Total GULP energy -594912.682157 kJ/mol
# GULP energy per Si atom -12394.014212 kJ/mol
# Density = 1.769834 g / cm^3
# Si number density = 17.738717 Si / 1000 Ang^3
#
#
#
# Elastic Constant Matrix: (Units=GPa)
#
#
# Indices 1 2 3 4 5 6 
#
# 1 84.8636 26.5809 31.2374 0.0000 0.0000 1.2677
# 2 26.5809 84.8636 31.2374 0.0000 0.0000 -1.2677
# 3 31.2374 31.2374 62.2127 0.0000 0.0000 0.0000
# 4 0.0000 0.0000 0.0000 27.4339 0.0000 0.0000
# 5 0.0000 0.0000 0.0000 0.0000 27.4339 0.0000
# 6 1.2677 -1.2677 0.0000 0.0000 0.0000 -11.0835
#
#
#
# Elastic Compliance Matrix: (Units=1/GPa)
#
#
# Indices 1 2 3 4 5 6 
#
# 1 0.014781 -0.002292 -0.006270 0.000000 0.000000 0.001953
# 2 -0.002292 0.014781 -0.006270 0.000000 0.000000 -0.001953
# 3 -0.006270 -0.006270 0.022371 0.000000 0.000000 0.000000
# 4 0.000000 0.000000 0.000000 0.036451 0.000000 0.000000
# 5 0.000000 0.000000 0.000000 0.000000 0.036451 0.000000
# 6 0.001953 -0.001953 0.000000 0.000000 0.000000 -0.089777
#
#
# Mechanical properties :
#
#
# Convention : Reuss Voigt Hill
#
# Bulk Modulus (GPa) = 44.91254 45.56125 45.23690
# Shear Modulus (GPa) = 69.30479 18.28248 43.79364
#
# Velocity S-wave (km/s) = 6.25736 3.21386 4.97411
# Velocity P-wave (km/s) = 8.80795 6.28588 7.65155
#
# Compressibility (1/GPa) = 0.02226550
#
# Stress axis : x y z
#
# Youngs Moduli (GPa) = 67.65670 67.65670 44.70129
#
# Poissons Ratio (x) = 0.15509 0.28030
# Poissons Ratio (y) = 0.15509 0.28030
# Poissons Ratio (z) = 0.42424 0.42424
#
# Static dielectric constant tensor:
#      x y z
#    x 3.167560 0.000000 0.000000 
#    y 0.000000 3.167560 0.000000 
#    z 0.000000 0.000000 3.303620 
# 
# 
# High freq. dielectric constant tensor:
#      x y z
#    x 1.673820 0.000000 0.000000 
#    y 0.000000 1.673820 0.000000 
#    z 0.000000 0.000000 1.697060 
# 
# From -- ./inp_files/933.got.cif
#   From: 2010.03.12/outbox.cif.g09.slc.cpg/sg83_1_cif.got.tgz:933.got - 2010.04.08 20:05:18.
