data_PCOD8302965
_publ_section_title
;
Structure prediction by ZEFSAII (Michael W. Deem and Ramdas Pophale) SiO2 
 PCOD8302965
Probable space group: P 4/M
;
_chemical_formula_sum "Si O2"
_cell_formula_units_Z 40
_cell_length_a 8.290176
_cell_length_b 8.290176
_cell_length_c 26.701778
_cell_angle_alpha 90.000000
_cell_angle_beta 90.000000
_cell_angle_gamma 90.000000
_cell_volume 1835.133580
_symmetry_space_group_name_H-M "P 4/M"
_symmetry_group_IT_number 83
_symmetry_cell_setting 'tetragonal'
loop_
_space_group_symop_operation_xyz
x,y,z
-y,x,z
-x,-y,z
y,-x,z
-x,-y,-z
y,-x,-z
x,y,-z
-y,x,-z
loop_
_atom_site_type_symbol
_atom_site_label
_atom_site_fract_x
_atom_site_fract_y
_atom_site_fract_z
Si Si1 0.244677 0.576732 0.355260
Si Si2 0.754988 0.577573 0.000000
Si Si3 0.753865 0.903698 0.557037
Si Si4 0.500000 0.000000 0.275900
Si Si5 0.748679 0.085001 0.086901
Si Si6 0.920906 0.748172 0.800446
O O1 0.300604 0.392567 0.351572
O O2 0.153089 0.607857 0.407631
O O3 0.118859 0.607951 0.310234
O O4 0.605201 0.699182 0.000000
O O5 0.863806 0.607671 0.049108
O O6 0.695838 0.880964 0.500000
O O7 0.910762 0.795266 0.567913
O O8 0.389245 0.886847 0.240446
O O9 0.681128 0.104304 0.143325
O O10 0.901628 0.199947 0.077418
O O11 0.104905 0.801038 0.791996
#
# Coordination Sequence:
#
# PCOD8302965 Si02
#       6
#     8   4   8   4   8   8
#     4  11  24  39  56  85 122 156 192 234 284 342
#     4  11  24  37  52  82 120 151 182 221 272 338
#     4   9  19  38  64  91 117 148 189 235 283 339
#     4  12  22  38  61  83 112 154 194 236 288 336
#     4   9  19  37  60  85 111 141 183 232 278 329
#     4   9  20  38  60  86 112 142 189 241 283 331
#
# _framework density 21.796778
#
# number of rings (size 3 to 8) (size 9 to 14) (size 15 to 20)
#    0.000    2.100    0.000    4.800    0.000    6.400 
#    0.000    5.500    0.000    2.400    0.000    0.000 
#    0.000    0.000    0.000    0.000    0.000    0.000 
#
# Total GULP energy -496053.627014 kJ/mol
# GULP energy per Si atom -12401.340675 kJ/mol
# Density = 2.174717 g / cm^3
# Si number density = 21.796778 Si / 1000 Ang^3
#
#
#
# Elastic Constant Matrix: (Units=GPa)
#
#
# Indices 1 2 3 4 5 6 
#
# 1 69.4782 25.2277 55.9431 0.0000 0.0000 5.5249
# 2 25.2277 69.4782 55.9431 0.0000 0.0000 -5.5249
# 3 55.9431 55.9431 171.6117 0.0000 0.0000 0.0000
# 4 0.0000 0.0000 0.0000 33.0497 0.0000 0.0000
# 5 0.0000 0.0000 0.0000 0.0000 33.0497 0.0000
# 6 5.5249 -5.5249 0.0000 0.0000 0.0000 33.9246
#
#
#
# Elastic Compliance Matrix: (Units=1/GPa)
#
#
# Indices 1 2 3 4 5 6 
#
# 1 0.020365 -0.003192 -0.005598 0.000000 0.000000 -0.003836
# 2 -0.003192 0.020365 -0.005598 0.000000 0.000000 0.003836
# 3 -0.005598 -0.005598 0.009477 0.000000 0.000000 0.000000
# 4 0.000000 0.000000 0.000000 0.030257 0.000000 0.000000
# 5 0.000000 0.000000 0.000000 0.000000 0.030257 0.000000
# 6 -0.003836 0.003836 0.000000 0.000000 0.000000 0.030727
#
#
# Mechanical properties :
#
#
# Convention : Reuss Voigt Hill
#
# Bulk Modulus (GPa) = 46.66380 64.97732 55.82056
# Shear Modulus (GPa) = 28.19013 31.56842 29.87927
#
# Velocity S-wave (km/s) = 3.60017 3.80979 3.70646
# Velocity P-wave (km/s) = 6.22388 7.01626 6.63192
#
# Compressibility (1/GPa) = 0.02142989
#
# Stress axis : x y z
#
# Youngs Moduli (GPa) = 49.10488 49.10488 105.52013
#
# Poissons Ratio (x) = 0.15674 0.59070
# Poissons Ratio (y) = 0.15674 0.59070
# Poissons Ratio (z) = 0.27489 0.27489
#
# Static dielectric constant tensor:
#      x y z
#    x 3.721290 0.000000 0.000000 
#    y 0.000000 3.721290 0.000000 
#    z 0.000000 0.000000 3.993600 
# 
# 
# High freq. dielectric constant tensor:
#      x y z
#    x 1.847850 0.000000 0.000000 
#    y 0.000000 1.847850 0.000000 
#    z 0.000000 0.000000 1.867490 
# 
# From -- ./inp_files/3285.got.cif
#   From: 2010.03.12/outbox.cif.g09.slc.cpg/sg83_2_cif.got.tgz:3285.got - 2010.04.08 20:05:18.
