data_PCOD8302851
_publ_section_title
;
Structure prediction by ZEFSAII (Michael W. Deem and Ramdas Pophale) SiO2 
 PCOD8302851
Probable space group: P 4/M
;
_chemical_formula_sum "Si O2"
_cell_formula_units_Z 48
_cell_length_a 11.483408
_cell_length_b 11.483408
_cell_length_c 17.894697
_cell_angle_alpha 90.000000
_cell_angle_beta 90.000000
_cell_angle_gamma 90.000000
_cell_volume 2359.749702
_symmetry_space_group_name_H-M "P 4/M"
_symmetry_group_IT_number 83
_symmetry_cell_setting 'tetragonal'
loop_
_space_group_symop_operation_xyz
x,y,z
-y,x,z
-x,-y,z
y,-x,z
-x,-y,-z
y,-x,-z
x,y,-z
-y,x,-z
loop_
_atom_site_type_symbol
_atom_site_label
_atom_site_fract_x
_atom_site_fract_y
_atom_site_fract_z
Si Si1 0.406522 0.096604 0.084518
Si Si2 0.495428 0.306301 0.159936
Si Si3 0.818182 0.948821 0.814471
Si Si4 0.502771 0.860512 0.298552
Si Si5 0.893432 0.258967 0.349081
Si Si6 0.312016 0.873318 0.415525
O O1 0.470911 0.222498 0.089175
O O2 0.297067 0.087616 0.140649
O O3 0.500000 0.000000 0.107334
O O4 0.361698 0.078505 0.000000
O O5 0.611460 0.382419 0.160521
O O6 0.517206 0.214965 0.225758
O O7 0.796049 0.949015 0.725643
O O8 0.920141 0.857431 0.835523
O O9 0.627974 0.818751 0.327637
O O10 0.408422 0.821995 0.359853
O O11 0.500000 0.000000 0.281171
O O12 0.815272 0.169422 0.393436
O O13 0.988561 0.305171 0.407477
O O14 0.344708 0.838702 0.500000
#
# Coordination Sequence:
#
# PCOD8302851 Si02
#       6
#     8   8   8   8   8   8
#     4  11  27  45  69 100 134 174 215 267 336 399
#     4  11  24  41  66  97 127 166 218 270 323 390
#     4  11  24  43  71 102 136 173 222 276 332 397
#     4  10  22  37  63  90 120 165 216 266 322 389
#     4  11  21  38  63  89 124 169 214 261 323 394
#     4  11  24  38  58  91 129 167 213 271 331 389
#
# _framework density 20.341138999999998
#
# number of rings (size 3 to 8) (size 9 to 14) (size 15 to 20)
#    0.000    1.167    3.333    2.000    4.667    5.333 
#    0.000    2.500    0.000    0.000    0.000    3.500 
#    0.000    0.000    0.000    0.000    0.000    0.000 
#
# Total GULP energy -594992.587553 kJ/mol
# GULP energy per Si atom -12395.678907 kJ/mol
# Density = 2.029484 g / cm^3
# Si number density = 20.341139 Si / 1000 Ang^3
#
#
#
# Elastic Constant Matrix: (Units=GPa)
#
#
# Indices 1 2 3 4 5 6 
#
# 1 93.8070 40.5723 35.0659 0.0000 0.0000 0.2202
# 2 40.5723 93.8070 35.0659 0.0000 0.0000 -0.2202
# 3 35.0659 35.0659 90.4804 0.0000 0.0000 0.0000
# 4 0.0000 0.0000 0.0000 21.7222 0.0000 0.0000
# 5 0.0000 0.0000 0.0000 0.0000 21.7222 0.0000
# 6 0.2202 -0.2202 0.0000 0.0000 0.0000 28.5695
#
#
#
# Elastic Compliance Matrix: (Units=1/GPa)
#
#
# Indices 1 2 3 4 5 6 
#
# 1 0.014057 -0.004729 -0.003615 0.000000 0.000000 -0.000145
# 2 -0.004729 0.014057 -0.003615 0.000000 0.000000 0.000145
# 3 -0.003615 -0.003615 0.013854 0.000000 0.000000 0.000000
# 4 0.000000 0.000000 0.000000 0.046036 0.000000 0.000000
# 5 0.000000 0.000000 0.000000 0.000000 0.046036 0.000000
# 6 -0.000145 0.000145 0.000000 0.000000 0.000000 0.035005
#
#
# Mechanical properties :
#
#
# Convention : Reuss Voigt Hill
#
# Bulk Modulus (GPa) = 55.40124 55.50027 55.45075
# Shear Modulus (GPa) = 25.12813 25.56213 25.34513
#
# Velocity S-wave (km/s) = 3.51855 3.54880 3.53371
# Velocity P-wave (km/s) = 6.61831 6.64349 6.63091
#
# Compressibility (1/GPa) = 0.01805014
#
# Stress axis : x y z
#
# Youngs Moduli (GPa) = 71.13807 71.13807 72.17973
#
# Poissons Ratio (x) = 0.33640 0.26095
# Poissons Ratio (y) = 0.33640 0.26095
# Poissons Ratio (z) = 0.25718 0.25718
#
# Static dielectric constant tensor:
#      x y z
#    x 3.824390 0.000000 0.000000 
#    y 0.000000 3.824390 0.000000 
#    z 0.000000 0.000000 3.588480 
# 
# 
# High freq. dielectric constant tensor:
#      x y z
#    x 1.800870 0.000000 0.000000 
#    y 0.000000 1.800870 0.000000 
#    z 0.000000 0.000000 1.788300 
# 
# From -- ./inp_files/2626.got.cif
#   From: 2010.03.12/outbox.cif.g09.slc.cpg/sg83_2_cif.got.tgz:2626.got - 2010.04.08 20:05:18.
