data_PCOD8302960
_publ_section_title
;
Structure prediction by ZEFSAII (Michael W. Deem and Ramdas Pophale) SiO2 
 PCOD8302960
Probable space group: P 4/M
;
_chemical_formula_sum "Si O2"
_cell_formula_units_Z 44
_cell_length_a 8.426129
_cell_length_b 8.426129
_cell_length_c 29.111161
_cell_angle_alpha 90.000000
_cell_angle_beta 90.000000
_cell_angle_gamma 90.000000
_cell_volume 2066.882240
_symmetry_space_group_name_H-M "P 4/M"
_symmetry_group_IT_number 83
_symmetry_cell_setting 'tetragonal'
loop_
_space_group_symop_operation_xyz
x,y,z
-y,x,z
-x,-y,z
y,-x,z
-x,-y,-z
y,-x,-z
x,y,-z
-y,x,-z
loop_
_atom_site_type_symbol
_atom_site_label
_atom_site_fract_x
_atom_site_fract_y
_atom_site_fract_z
Si Si1 0.000000 0.500000 0.880490
Si Si2 0.248096 0.077326 0.052340
Si Si3 0.755576 0.087854 0.709362
Si Si4 0.416073 0.748265 0.368634
Si Si5 0.758281 0.095774 0.447781
Si Si6 0.752744 0.080954 0.186110
O O1 0.113125 0.607122 0.913214
O O2 0.884968 0.606532 0.848053
O O3 0.194780 0.896559 0.062248
O O4 0.306225 0.095983 0.000000
O O5 0.615247 0.142334 0.675837
O O6 0.695653 0.104975 0.761625
O O7 0.906893 0.198627 0.699604
O O8 0.300907 0.597501 0.367892
O O9 0.382809 0.849335 0.414553
O O10 0.699983 0.118997 0.500000
O O11 0.913196 0.201549 0.438018
O O12 0.899293 0.196254 0.176190
#
# Coordination Sequence:
#
# PCOD8302960 Si02
#       6
#     4   8   8   8   8   8
#     4  12  19  28  56  88 110 138 179 228 278 326
#     4   9  19  36  56  79 110 148 190 233 271 314
#     4   9  19  37  59  79 101 135 183 231 270 318
#     4  11  24  37  51  78 115 149 179 218 271 330
#     4   9  19  37  60  84 108 137 180 231 275 320
#     4   9  20  37  55  79 109 140 179 227 274 325
#
# _framework density 21.288103
#
# number of rings (size 3 to 8) (size 9 to 14) (size 15 to 20)
#    0.000    2.364    0.000    4.636    0.000    9.455 
#    0.000    2.727    0.000    8.727    0.000   10.182 
#    0.000    0.000    0.000    0.000    0.000    0.000 
#
# Total GULP energy -545604.499559 kJ/mol
# GULP energy per Si atom -12400.102263 kJ/mol
# Density = 2.123965 g / cm^3
# Si number density = 21.288103 Si / 1000 Ang^3
#
#
#
# Elastic Constant Matrix: (Units=GPa)
#
#
# Indices 1 2 3 4 5 6 
#
# 1 58.6507 3.2917 42.8836 0.0000 0.0000 -1.3840
# 2 3.2917 58.6507 42.8836 0.0000 0.0000 1.3840
# 3 42.8836 42.8836 139.6065 0.0000 0.0000 0.0000
# 4 0.0000 0.0000 0.0000 33.0947 0.0000 0.0000
# 5 0.0000 0.0000 0.0000 0.0000 33.0947 0.0000
# 6 -1.3840 1.3840 0.0000 0.0000 0.0000 24.5766
#
#
#
# Elastic Compliance Matrix: (Units=1/GPa)
#
#
# Indices 1 2 3 4 5 6 
#
# 1 0.023104 0.004989 -0.008629 0.000000 0.000000 0.001020
# 2 0.004989 0.023104 -0.008629 0.000000 0.000000 -0.001020
# 3 -0.008629 -0.008629 0.012464 0.000000 0.000000 0.000000
# 4 0.000000 0.000000 0.000000 0.030216 0.000000 0.000000
# 5 0.000000 0.000000 0.000000 0.000000 0.030216 0.000000
# 6 0.001020 -0.001020 0.000000 0.000000 0.000000 0.040804
#
#
# Mechanical properties :
#
#
# Convention : Reuss Voigt Hill
#
# Bulk Modulus (GPa) = 29.29802 48.33621 38.81711
# Shear Modulus (GPa) = 25.53295 29.34311 27.43803
#
# Velocity S-wave (km/s) = 3.46699 3.71668 3.59401
# Velocity P-wave (km/s) = 5.46070 6.41665 5.95788
#
# Compressibility (1/GPa) = 0.03413200
#
# Stress axis : x y z
#
# Youngs Moduli (GPa) = 43.28322 43.28322 80.22856
#
# Poissons Ratio (x) = -0.21593 0.69231
# Poissons Ratio (y) = -0.21593 0.69231
# Poissons Ratio (z) = 0.37350 0.37350
#
# Static dielectric constant tensor:
#      x y z
#    x 3.610830 0.000000 0.000000 
#    y 0.000000 3.610830 0.000000 
#    z 0.000000 0.000000 4.029310 
# 
# 
# High freq. dielectric constant tensor:
#      x y z
#    x 1.812990 0.000000 0.000000 
#    y 0.000000 1.812990 0.000000 
#    z 0.000000 0.000000 1.858060 
# 
# From -- ./inp_files/3366.got.cif
#   From: 2010.03.12/outbox.cif.g09.slc.cpg/sg83_2_cif.got.tgz:3366.got - 2010.04.08 20:05:18.
