data_PCOD8302814
_publ_section_title
;
Structure prediction by ZEFSAII (Michael W. Deem and Ramdas Pophale) SiO2 
 PCOD8302814
Probable space group: P 4/M
;
_chemical_formula_sum "Si O2"
_cell_formula_units_Z 36
_cell_length_a 16.283614
_cell_length_b 16.283614
_cell_length_c 7.603417
_cell_angle_alpha 90.000000
_cell_angle_beta 90.000000
_cell_angle_gamma 90.000000
_cell_volume 2016.092284
_symmetry_space_group_name_H-M "P 4/M"
_symmetry_group_IT_number 83
_symmetry_cell_setting 'tetragonal'
loop_
_space_group_symop_operation_xyz
x,y,z
-y,x,z
-x,-y,z
y,-x,z
-x,-y,-z
y,-x,-z
x,y,-z
-y,x,-z
loop_
_atom_site_type_symbol
_atom_site_label
_atom_site_fract_x
_atom_site_fract_y
_atom_site_fract_z
Si Si1 0.179536 0.680433 0.000000
Si Si2 0.596957 0.274935 0.700667
Si Si3 0.997224 0.133462 0.700100
Si Si4 0.408283 0.272722 0.700685
Si Si5 0.000403 0.737803 0.000000
Si Si6 0.816275 0.687698 0.000000
O O1 0.204496 0.631284 0.174545
O O2 0.222837 0.771012 0.000000
O O3 0.080890 0.681207 0.000000
O O4 0.606995 0.244176 0.500000
O O5 0.502472 0.286970 0.752376
O O6 0.640534 0.362693 0.728889
O O7 0.638117 0.207591 0.825315
O O8 0.996530 0.164298 0.500000
O O9 0.078780 0.082129 0.739900
O O10 0.995258 0.210933 0.822852
O O11 0.398984 0.241773 0.500000
O O12 0.914622 0.690226 0.000000
#
# Coordination Sequence:
#
# PCOD8302814 Si02
#       6
#     4   8   8   8   4   4
#     4  10  21  35  51  74 104 137 173 215 259 298
#     4   9  18  34  56  80 106 134 164 205 259 315
#     4   9  18  32  50  73  98 122 157 216 282 326
#     4   9  18  34  56  80 106 134 164 205 259 315
#     4  12  22  33  51  72  98 140 188 216 240 297
#     4  10  21  35  51  74 104 137 173 215 259 298
#
# _framework density 17.856324999999998
#
# number of rings (size 3 to 8) (size 9 to 14) (size 15 to 20)
#    0.000    2.444    0.000    3.333    0.000    3.111 
#    0.000    8.889    0.000    6.667    0.000    0.000 
#    0.000    0.000    0.000    0.000    0.000    0.000 
#
# Total GULP energy -446380.013390 kJ/mol
# GULP energy per Si atom -12399.444816 kJ/mol
# Density = 1.781568 g / cm^3
# Si number density = 17.856325 Si / 1000 Ang^3
#
#
#
# Elastic Constant Matrix: (Units=GPa)
#
#
# Indices 1 2 3 4 5 6 
#
# 1 82.4089 10.8320 33.0021 0.0000 0.0000 0.1610
# 2 10.8320 82.4089 33.0021 0.0000 0.0000 -0.1610
# 3 33.0021 33.0021 89.7011 0.0000 0.0000 0.0000
# 4 0.0000 0.0000 0.0000 33.7948 0.0000 0.0000
# 5 0.0000 0.0000 0.0000 0.0000 33.7948 0.0000
# 6 0.1610 -0.1610 0.0000 0.0000 0.0000 9.8652
#
#
#
# Elastic Compliance Matrix: (Units=1/GPa)
#
#
# Indices 1 2 3 4 5 6 
#
# 1 0.014237 0.000265 -0.005335 0.000000 0.000000 -0.000228
# 2 0.000265 0.014237 -0.005335 0.000000 0.000000 0.000228
# 3 -0.005335 -0.005335 0.015074 0.000000 0.000000 0.000000
# 4 0.000000 0.000000 0.000000 0.029590 0.000000 0.000000
# 5 0.000000 0.000000 0.000000 0.000000 0.029590 0.000000
# 6 -0.000228 0.000228 0.000000 0.000000 0.000000 0.101374
#
#
# Mechanical properties :
#
#
# Convention : Reuss Voigt Hill
#
# Bulk Modulus (GPa) = 43.98296 45.35457 44.66877
# Shear Modulus (GPa) = 21.50607 27.33647 24.42127
#
# Velocity S-wave (km/s) = 3.47420 3.91693 3.70219
# Velocity P-wave (km/s) = 6.38581 6.77579 6.58369
#
# Compressibility (1/GPa) = 0.02273608
#
# Stress axis : x y z
#
# Youngs Moduli (GPa) = 70.24007 70.24007 66.33932
#
# Poissons Ratio (x) = -0.01860 0.35394
# Poissons Ratio (y) = -0.01860 0.35394
# Poissons Ratio (z) = 0.37476 0.37476
#
# Static dielectric constant tensor:
#      x y z
#    x 3.180000 0.000000 0.000000 
#    y 0.000000 3.180000 0.000000 
#    z 0.000000 0.000000 3.536860 
# 
# 
# High freq. dielectric constant tensor:
#      x y z
#    x 1.674920 0.000000 0.000000 
#    y 0.000000 1.674920 0.000000 
#    z 0.000000 0.000000 1.713810 
# 
# From -- ./inp_files/598.got.cif
#   From: 2010.03.12/outbox.cif.g09.slc.cpg/sg83_1_cif.got.tgz:598.got - 2010.04.08 20:05:18.
