data_PCOD8302357
_publ_section_title
;
Structure prediction by ZEFSAII (Michael W. Deem and Ramdas Pophale) SiO2 
 PCOD8302357
Probable space group: I -4 
;
_chemical_formula_sum "Si O2"
_cell_formula_units_Z 60
_cell_length_a 11.500199
_cell_length_b 11.500199
_cell_length_c 19.882245
_cell_angle_alpha 90.000000
_cell_angle_beta 90.000000
_cell_angle_gamma 90.000000
_cell_volume 2629.517903
_symmetry_space_group_name_H-M "I -4 "
_symmetry_group_IT_number 82
_symmetry_cell_setting 'tetragonal'
loop_
_space_group_symop_operation_xyz
x,y,z
y,-x,-z
-x,-y,z
-y,x,-z
1/2+x,1/2+y,1/2+z
1/2+y,1/2-x,1/2-z
1/2-x,1/2-y,1/2+z
1/2-y,1/2+x,1/2-z
loop_
_atom_site_type_symbol
_atom_site_label
_atom_site_fract_x
_atom_site_fract_y
_atom_site_fract_z
Si Si1 0.021926 0.862712 0.892015
Si Si2 0.264194 0.811007 0.070560
Si Si3 0.052351 0.775559 0.750098
Si Si4 0.000000 0.000000 0.680003
Si Si5 0.635540 0.006757 0.369693
Si Si6 0.745075 0.757275 0.075039
Si Si7 0.303631 0.189793 0.798505
Si Si8 0.048220 0.750228 0.329533
O O1 0.016013 0.773962 0.827756
O O2 0.152326 0.851312 0.919019
O O3 0.934983 0.799025 0.944619
O O4 0.000000 0.000000 0.878907
O O5 0.398460 0.808455 0.092050
O O6 0.184963 0.766546 0.132115
O O7 0.265529 0.730715 0.004444
O O8 0.189501 0.791539 0.741806
O O9 0.983542 0.885738 0.723270
O O10 0.002090 0.663522 0.710288
O O11 0.875633 0.001183 0.642017
O O12 0.693696 0.123650 0.397511
O O13 0.500000 0.000000 0.382516
O O14 0.789103 0.642827 0.115464
O O15 0.251481 0.095890 0.747179
O O16 0.436688 0.165906 0.822534
#
# Coordination Sequence:
#
# PCOD8302357 Si02
#       8
#     8   8   8   4   8   8   8   8
#     4  12  26  44  74 104 143 190 243 298 356 432
#     4  11  28  46  70 103 146 187 240 296 366 436
#     4  10  20  40  69 107 137 178 228 297 360 416
#     4  10  18  36  70 101 139 174 220 300 348 424
#     4  11  24  48  72 106 145 184 239 306 368 428
#     4  12  27  47  73 103 143 194 240 299 361 443
#     4  10  24  43  69 105 141 180 235 295 352 428
#     4  11  23  45  71 107 139 185 243 289 364 427
#
# _framework density 22.817872000000001
#
# number of rings (size 3 to 8) (size 9 to 14) (size 15 to 20)
#    0.000    1.067    4.667    0.800    5.600    0.267 
#    2.400    0.000    0.000    0.000    0.000    0.000 
#    0.000    0.000    0.000    0.000    0.000    0.000 
#
# Total GULP energy -371688.357678 kJ/mol
# GULP energy per Si atom -12389.611923 kJ/mol
# Density = 2.276594 g / cm^3
# Si number density = 22.817872 Si / 1000 Ang^3
#
#
#
# Elastic Constant Matrix: (Units=GPa)
#
#
# Indices 1 2 3 4 5 6 
#
# 1 99.1127 26.6500 32.7905 0.0000 0.0000 -2.0600
# 2 26.6500 99.1127 32.7905 0.0000 0.0000 2.0600
# 3 32.7905 32.7905 114.7793 0.0000 0.0000 0.0000
# 4 0.0000 0.0000 0.0000 29.2796 0.0000 0.0000
# 5 0.0000 0.0000 0.0000 0.0000 29.2796 0.0000
# 6 -2.0600 2.0600 0.0000 0.0000 0.0000 23.9685
#
#
#
# Elastic Compliance Matrix: (Units=1/GPa)
#
#
# Indices 1 2 3 4 5 6 
#
# 1 0.011606 -0.002262 -0.002669 0.000000 0.000000 0.001192
# 2 -0.002262 0.011606 -0.002669 0.000000 0.000000 -0.001192
# 3 -0.002669 -0.002669 0.010237 0.000000 0.000000 0.000000
# 4 0.000000 0.000000 0.000000 0.034154 0.000000 0.000000
# 5 0.000000 0.000000 0.000000 0.000000 0.034154 0.000000
# 6 0.001192 -0.001192 0.000000 0.000000 0.000000 0.041926
#
#
# Mechanical properties :
#
#
# Convention : Reuss Voigt Hill
#
# Bulk Modulus (GPa) = 54.80261 55.27406 55.03834
# Shear Modulus (GPa) = 30.30925 31.22378 30.76651
#
# Velocity S-wave (km/s) = 3.64856 3.70319 3.67597
# Velocity P-wave (km/s) = 6.46675 6.52391 6.49539
#
# Compressibility (1/GPa) = 0.01824730
#
# Stress axis : x y z
#
# Youngs Moduli (GPa) = 86.16464 86.16464 97.68011
#
# Poissons Ratio (x) = 0.19493 0.26073
# Poissons Ratio (y) = 0.19493 0.26073
# Poissons Ratio (z) = 0.23000 0.23000
#
# Static dielectric constant tensor:
#      x y z
#    x 3.935560 0.000000 0.000000 
#    y 0.000000 3.935560 0.000000 
#    z 0.000000 0.000000 3.972260 
# 
# 
# High freq. dielectric constant tensor:
#      x y z
#    x 1.906860 0.000000 0.000000 
#    y 0.000000 1.906860 0.000000 
#    z 0.000000 0.000000 1.879640 
# 
# From -- ./inp_files/3170.got.cif
#   From: 2010.03.12/outbox.cif.g09.slc.cpg/sg82_2_cif.got.tgz:3170.got - 2010.04.08 20:02:50.
