data_PCOD8302221
_publ_section_title
;
Structure prediction by ZEFSAII (Michael W. Deem and Ramdas Pophale) SiO2 
 PCOD8302221
Probable space group: I 41
;
_chemical_formula_sum "Si O2"
_cell_formula_units_Z 60
_cell_length_a 17.580860
_cell_length_b 17.580860
_cell_length_c 8.992586
_cell_angle_alpha 90.000000
_cell_angle_beta 90.000000
_cell_angle_gamma 90.000000
_cell_volume 2779.488177
_symmetry_space_group_name_H-M "I 41"
_symmetry_group_IT_number 80
_symmetry_cell_setting 'tetragonal'
loop_
_space_group_symop_operation_xyz
x,y,z
-y,1/2+x,1/4+z
-x,-y,z
y,1/2-x,1/4+z
1/2+x,1/2+y,1/2+z
1/2-y,x,3/4+z
1/2-x,1/2-y,1/2+z
1/2+y,-x,3/4+z
loop_
_atom_site_type_symbol
_atom_site_label
_atom_site_fract_x
_atom_site_fract_y
_atom_site_fract_z
Si Si1 0.000000 0.500000 0.115391
Si Si2 0.562997 0.816501 0.916749
Si Si3 0.479622 0.768620 0.641544
Si Si4 0.820271 0.798893 0.564015
Si Si5 0.881080 0.060960 0.344709
Si Si6 0.511157 0.596606 0.641420
Si Si7 0.470816 0.134019 0.390736
Si Si8 0.667009 0.272521 0.780275
O O1 0.928598 0.488967 0.224817
O O2 0.979124 0.571159 0.016328
O O3 0.545091 0.806299 0.743010
O O4 0.598209 0.900258 0.937031
O O5 0.619476 0.750924 0.971789
O O6 0.484837 0.812243 0.012594
O O7 0.481276 0.679761 0.655730
O O8 0.494571 0.791078 0.470154
O O9 0.395883 0.785024 0.708149
O O10 0.803606 0.758488 0.721569
O O11 0.853533 0.883555 0.589526
O O12 0.864000 0.150052 0.356088
O O13 0.959139 0.045849 0.252892
O O14 0.890992 0.024468 0.506680
O O15 0.709688 0.227556 0.906005
#
# Coordination Sequence:
#
# PCOD8302221 Si02
#       8
#     4   8   8   8   8   8   8   8
#     4  12  26  44  78 102 140 184 246 304 358 418
#     4  12  22  48  72 104 138 193 236 295 352 438
#     4  11  26  45  74  99 145 191 238 291 365 429
#     4  12  30  47  71 108 151 197 244 293 365 439
#     4  11  24  48  71 101 141 189 245 300 360 430
#     4  11  24  45  77 101 137 192 244 295 358 435
#     4  12  29  47  69 111 147 188 245 307 355 429
#     4  11  26  48  73 106 141 188 240 299 372 432
#
# _framework density 21.586708999999999
#
# number of rings (size 3 to 8) (size 9 to 14) (size 15 to 20)
#    0.000    0.533    5.333    0.800   11.200    1.067 
#    2.400    0.000    0.000    0.000    0.000    0.000 
#    0.000    0.000    0.000    0.000    0.000    0.000 
#
# Total GULP energy -371908.228045 kJ/mol
# GULP energy per Si atom -12396.940935 kJ/mol
# Density = 2.153758 g / cm^3
# Si number density = 21.586709 Si / 1000 Ang^3
#
#
#
# Elastic Constant Matrix: (Units=GPa)
#
#
# Indices 1 2 3 4 5 6 
#
# 1 91.6074 51.9885 52.9348 0.0000 0.0000 -2.2118
# 2 51.9885 91.6074 52.9348 0.0000 0.0000 2.2118
# 3 52.9348 52.9348 153.3341 0.0000 0.0000 0.0000
# 4 0.0000 0.0000 0.0000 38.7520 0.0000 0.0000
# 5 0.0000 0.0000 0.0000 0.0000 38.7520 0.0000
# 6 -2.2118 2.2118 0.0000 0.0000 0.0000 30.4701
#
#
#
# Elastic Compliance Matrix: (Units=1/GPa)
#
#
# Indices 1 2 3 4 5 6 
#
# 1 0.017394 -0.008053 -0.003225 0.000000 0.000000 0.001847
# 2 -0.008053 0.017394 -0.003225 0.000000 0.000000 -0.001847
# 3 -0.003225 -0.003225 0.008748 0.000000 0.000000 0.000000
# 4 0.000000 0.000000 0.000000 0.025805 0.000000 0.000000
# 5 0.000000 0.000000 0.000000 0.000000 0.025805 0.000000
# 6 0.001847 -0.001847 0.000000 0.000000 0.000000 0.033087
#
#
# Mechanical properties :
#
#
# Convention : Reuss Voigt Hill
#
# Bulk Modulus (GPa) = 68.81443 72.47387 70.64415
# Shear Modulus (GPa) = 30.84835 33.50755 32.17795
#
# Velocity S-wave (km/s) = 3.78437 3.94411 3.86507
# Velocity P-wave (km/s) = 7.14441 7.37479 7.26052
#
# Compressibility (1/GPa) = 0.01453184
#
# Stress axis : x y z
#
# Youngs Moduli (GPa) = 57.49037 57.49037 114.30666
#
# Poissons Ratio (x) = 0.46294 0.36864
# Poissons Ratio (y) = 0.46294 0.36864
# Poissons Ratio (z) = 0.18541 0.18541
#
# Static dielectric constant tensor:
#      x y z
#    x 4.119900 0.000000 0.000000 
#    y 0.000000 4.119900 0.000000 
#    z 0.000000 0.000000 3.982310 
# 
# 
# High freq. dielectric constant tensor:
#      x y z
#    x 1.856180 0.000000 0.000000 
#    y 0.000000 1.856180 0.000000 
#    z 0.000000 0.000000 1.855450 
# 
# From -- ./inp_files/753.got.cif
#   From: 2010.03.12/outbox.cif.g09.slc.cpg/sg80_cif.got.tgz:753.got - 2010.04.08 20:00:04.
