data_PCOD8302822
_publ_section_title
;
Structure prediction by ZEFSAII (Michael W. Deem and Ramdas Pophale) SiO2 
 PCOD8302822
Probable space group: P 4/M
;
_chemical_formula_sum "Si O2"
_cell_formula_units_Z 40
_cell_length_a 16.519394
_cell_length_b 16.519394
_cell_length_c 7.655801
_cell_angle_alpha 90.000000
_cell_angle_beta 90.000000
_cell_angle_gamma 90.000000
_cell_volume 2089.194430
_symmetry_space_group_name_H-M "P 4/M"
_symmetry_group_IT_number 83
_symmetry_cell_setting 'tetragonal'
loop_
_space_group_symop_operation_xyz
x,y,z
-y,x,z
-x,-y,z
y,-x,z
-x,-y,-z
y,-x,-z
x,y,-z
-y,x,-z
loop_
_atom_site_type_symbol
_atom_site_label
_atom_site_fract_x
_atom_site_fract_y
_atom_site_fract_z
Si Si1 0.581614 0.152657 0.194908
Si Si2 0.397125 0.155529 0.199241
Si Si3 0.990423 0.872748 0.707445
Si Si4 0.690637 0.006276 0.293597
Si Si5 0.600336 0.722683 0.500000
Si Si6 0.588167 0.271641 0.500000
O O1 0.489196 0.127996 0.238617
O O2 0.612536 0.219940 0.329706
O O3 0.634837 0.072412 0.203037
O O4 0.587801 0.189273 0.000000
O O5 0.338215 0.081707 0.237487
O O6 0.373351 0.228624 0.327024
O O7 0.386575 0.185088 0.000000
O O8 0.992042 0.870893 0.500000
O O9 0.982937 0.781797 0.779398
O O10 0.914230 0.926027 0.774045
O O11 0.685485 0.017193 0.500000
O O12 0.645675 0.637600 0.500000
O O13 0.505368 0.703765 0.500000
#
# Coordination Sequence:
#
# PCOD8302822 Si02
#       6
#     8   8   8   8   4   4
#     4  10  21  37  57  83 117 152 184 225 281 342
#     4  10  21  37  57  83 117 152 184 225 281 342
#     4   8  16  31  48  69 102 143 184 226 270 314
#     4  11  19  30  54  89 112 146 192 233 274 333
#     4  10  22  40  61  85 114 148 188 236 289 344
#     4  10  22  40  61  85 114 148 188 236 289 344
#
# _framework density 19.146135999999998
#
# number of rings (size 3 to 8) (size 9 to 14) (size 15 to 20)
#    0.000    2.200    2.000    1.800    0.000    5.000 
#    0.000    0.000    0.000    3.600    0.000   11.200 
#    0.000    0.000    0.000    0.000    0.000    0.000 
#
# Total GULP energy -496035.409449 kJ/mol
# GULP energy per Si atom -12400.885236 kJ/mol
# Density = 1.910256 g / cm^3
# Si number density = 19.146136 Si / 1000 Ang^3
#
#
#
# Elastic Constant Matrix: (Units=GPa)
#
#
# Indices 1 2 3 4 5 6 
#
# 1 72.3028 29.4559 19.2379 0.0000 0.0000 2.7132
# 2 29.4559 72.3028 19.2379 0.0000 0.0000 -2.7132
# 3 19.2379 19.2379 93.6982 0.0000 0.0000 0.0000
# 4 0.0000 0.0000 0.0000 4.1379 0.0000 0.0000
# 5 0.0000 0.0000 0.0000 0.0000 4.1379 0.0000
# 6 2.7132 -2.7132 0.0000 0.0000 0.0000 26.6282
#
#
#
# Elastic Compliance Matrix: (Units=1/GPa)
#
#
# Indices 1 2 3 4 5 6 
#
# 1 0.017149 -0.006495 -0.002188 0.000000 0.000000 -0.002409
# 2 -0.006495 0.017149 -0.002188 0.000000 0.000000 0.002409
# 3 -0.002188 -0.002188 0.011571 0.000000 0.000000 0.000000
# 4 0.000000 0.000000 0.000000 0.241667 0.000000 0.000000
# 5 0.000000 0.000000 0.000000 0.000000 0.241667 0.000000
# 6 -0.002409 0.002409 0.000000 0.000000 0.000000 0.038045
#
#
# Mechanical properties :
#
#
# Convention : Reuss Voigt Hill
#
# Bulk Modulus (GPa) = 41.44330 41.57413 41.50871
# Shear Modulus (GPa) = 8.37476 18.33895 13.35686
#
# Velocity S-wave (km/s) = 2.09371 3.09826 2.64413
# Velocity P-wave (km/s) = 5.24763 5.87879 5.57215
#
# Compressibility (1/GPa) = 0.02412935
#
# Stress axis : x y z
#
# Youngs Moduli (GPa) = 58.31199 58.31199 86.42421
#
# Poissons Ratio (x) = 0.37873 0.18905
# Poissons Ratio (y) = 0.37873 0.18905
# Poissons Ratio (z) = 0.12756 0.12756
#
# Static dielectric constant tensor:
#      x y z
#    x 3.472930 0.000000 0.000000 
#    y 0.000000 3.472930 0.000000 
#    z 0.000000 0.000000 3.627010 
# 
# 
# High freq. dielectric constant tensor:
#      x y z
#    x 1.735770 0.000000 0.000000 
#    y 0.000000 1.735770 0.000000 
#    z 0.000000 0.000000 1.750040 
# 
# From -- ./inp_files/716.got.cif
#   From: 2010.03.12/outbox.cif.g09.slc.cpg/sg83_1_cif.got.tgz:716.got - 2010.04.08 20:05:18.
