data_PCOD8302959
_publ_section_title
;
Structure prediction by ZEFSAII (Michael W. Deem and Ramdas Pophale) SiO2 
 PCOD8302959
Probable space group: P 4/M
;
_chemical_formula_sum "Si O2"
_cell_formula_units_Z 44
_cell_length_a 8.542466
_cell_length_b 8.542466
_cell_length_c 29.065643
_cell_angle_alpha 90.000000
_cell_angle_beta 90.000000
_cell_angle_gamma 90.000000
_cell_volume 2121.028250
_symmetry_space_group_name_H-M "P 4/M"
_symmetry_group_IT_number 83
_symmetry_cell_setting 'tetragonal'
loop_
_space_group_symop_operation_xyz
x,y,z
-y,x,z
-x,-y,z
y,-x,z
-x,-y,-z
y,-x,-z
x,y,-z
-y,x,-z
loop_
_atom_site_type_symbol
_atom_site_label
_atom_site_fract_x
_atom_site_fract_y
_atom_site_fract_z
Si Si1 0.412772 0.258645 0.208429
Si Si2 0.247412 0.932562 0.551969
Si Si3 0.500000 0.000000 0.379783
Si Si4 0.734731 0.397410 0.947430
Si Si5 0.242960 0.089463 0.868641
Si Si6 0.425967 0.254856 0.312752
O O1 0.591478 0.303892 0.198828
O O2 0.355486 0.121968 0.174789
O O3 0.399174 0.196609 0.260626
O O4 0.311187 0.914726 0.500000
O O5 0.108971 0.810828 0.560414
O O6 0.386063 0.897464 0.587757
O O7 0.605645 0.886999 0.347721
O O8 0.701722 0.578761 0.936994
O O9 0.874882 0.337640 0.915356
O O10 0.788131 0.374241 0.000000
O O11 0.090948 0.198823 0.867007
O O12 0.603843 0.307992 0.321741
#
# Coordination Sequence:
#
# PCOD8302959 Si02
#       6
#     8   8   4   8   8   8
#     4   9  19  37  58  76  98 134 179 219 260 318
#     4   9  19  35  52  74 108 146 183 222 263 314
#     4  12  19  30  56  84 104 136 181 224 270 320
#     4   9  19  37  60  84 108 137 178 223 264 315
#     4  11  24  37  51  78 113 143 174 218 268 314
#     4   9  20  36  52  76 108 137 170 219 273 322
#
# _framework density 20.744655999999999
#
# number of rings (size 3 to 8) (size 9 to 14) (size 15 to 20)
#    0.000    2.364    0.000    4.636    0.000    8.000 
#    0.000    2.727    0.000    2.182    0.000    7.636 
#    0.000    0.000    0.000    0.000    0.000    0.000 
#
# Total GULP energy -545637.778488 kJ/mol
# GULP energy per Si atom -12400.858602 kJ/mol
# Density = 2.069744 g / cm^3
# Si number density = 20.744656 Si / 1000 Ang^3
#
#
#
# Elastic Constant Matrix: (Units=GPa)
#
#
# Indices 1 2 3 4 5 6 
#
# 1 40.4532 0.2433 32.7200 0.0000 0.0000 -0.3759
# 2 0.2433 40.4532 32.7200 0.0000 0.0000 0.3759
# 3 32.7200 32.7200 131.9163 0.0000 0.0000 0.0000
# 4 0.0000 0.0000 0.0000 24.7302 0.0000 0.0000
# 5 0.0000 0.0000 0.0000 0.0000 24.7302 0.0000
# 6 -0.3759 0.3759 0.0000 0.0000 0.0000 27.9192
#
#
#
# Elastic Compliance Matrix: (Units=1/GPa)
#
#
# Indices 1 2 3 4 5 6 
#
# 1 0.032875 0.007999 -0.010138 0.000000 0.000000 0.000335
# 2 0.007999 0.032875 -0.010138 0.000000 0.000000 -0.000335
# 3 -0.010138 -0.010138 0.012610 0.000000 0.000000 0.000000
# 4 0.000000 0.000000 0.000000 0.040436 0.000000 0.000000
# 5 0.000000 0.000000 0.000000 0.000000 0.040436 0.000000
# 6 0.000335 -0.000335 0.000000 0.000000 0.000000 0.035827
#
#
# Mechanical properties :
#
#
# Convention : Reuss Voigt Hill
#
# Bulk Modulus (GPa) = 18.58537 38.24326 28.41432
# Shear Modulus (GPa) = 21.04821 25.28519 23.16670
#
# Velocity S-wave (km/s) = 3.18879 3.49503 3.34541
# Velocity P-wave (km/s) = 4.74725 5.89595 5.35250
#
# Compressibility (1/GPa) = 0.05380575
#
# Stress axis : x y z
#
# Youngs Moduli (GPa) = 30.41804 30.41804 79.30250
#
# Poissons Ratio (x) = -0.24333 0.80400
# Poissons Ratio (y) = -0.24333 0.80400
# Poissons Ratio (z) = 0.30839 0.30839
#
# Static dielectric constant tensor:
#      x y z
#    x 3.498920 0.000000 0.000000 
#    y 0.000000 3.498920 0.000000 
#    z 0.000000 0.000000 3.793300 
# 
# 
# High freq. dielectric constant tensor:
#      x y z
#    x 1.797350 0.000000 0.000000 
#    y 0.000000 1.797350 0.000000 
#    z 0.000000 0.000000 1.824180 
# 
# From -- ./inp_files/3374.got.cif
#   From: 2010.03.12/outbox.cif.g09.slc.cpg/sg83_2_cif.got.tgz:3374.got - 2010.04.08 20:05:18.
