data_PCOD8302371
_publ_section_title
;
Structure prediction by ZEFSAII (Michael W. Deem and Ramdas Pophale) SiO2 
 PCOD8302371
Probable space group: I -4 
;
_chemical_formula_sum "Si O2"
_cell_formula_units_Z 52
_cell_length_a 16.755228
_cell_length_b 16.755228
_cell_length_c 7.768603
_cell_angle_alpha 90.000000
_cell_angle_beta 90.000000
_cell_angle_gamma 90.000000
_cell_volume 2180.939469
_symmetry_space_group_name_H-M "I -4 "
_symmetry_group_IT_number 82
_symmetry_cell_setting 'tetragonal'
loop_
_space_group_symop_operation_xyz
x,y,z
y,-x,-z
-x,-y,z
-y,x,-z
1/2+x,1/2+y,1/2+z
1/2+y,1/2-x,1/2-z
1/2-x,1/2-y,1/2+z
1/2-y,1/2+x,1/2-z
loop_
_atom_site_type_symbol
_atom_site_label
_atom_site_fract_x
_atom_site_fract_y
_atom_site_fract_z
Si Si1 0.807814 0.003097 0.529166
Si Si2 0.500000 0.000000 0.750000
Si Si3 0.078752 0.346458 0.400992
Si Si4 0.900403 0.426903 0.744147
Si Si5 0.500000 0.500000 0.500000
Si Si6 0.325821 0.747442 0.548022
Si Si7 0.403015 0.399011 0.254931
Si Si8 0.733446 0.852676 0.354678
O O1 0.878347 0.981852 0.661824
O O2 0.787098 0.918352 0.444214
O O3 0.738389 0.040627 0.653349
O O4 0.835529 0.064366 0.382788
O O5 0.422105 0.976000 0.642688
O O6 0.072562 0.334714 0.607420
O O7 0.172179 0.356473 0.352013
O O8 0.904935 0.514586 0.660743
O O9 0.875944 0.359698 0.606652
O O10 0.471583 0.423826 0.388675
O O11 0.359433 0.671386 0.646460
O O12 0.230220 0.749878 0.551902
O O13 0.352891 0.748103 0.349287
#
# Coordination Sequence:
#
# PCOD8302371 Si02
#       8
#     8   2   8   8   2   8   8   8
#     4  12  24  46  74 103 140 189 233 297 361 430
#     4  12  24  40  62 100 144 180 228 298 336 416
#     4  11  24  41  64  99 139 182 233 279 353 413
#     4  10  19  37  63  94 128 171 228 279 331 402
#     4  12  28  50  76 112 128 182 244 296 356 426
#     4  11  25  45  67 103 145 188 237 290 359 431
#     4  12  26  48  74 102 143 182 236 301 359 434
#     4  11  23  42  70 101 139 189 237 287 352 422
#
# _framework density 23.842936000000002
#
# number of rings (size 3 to 8) (size 9 to 14) (size 15 to 20)
#    0.000    0.769    1.538    7.385    0.000    1.231 
#    0.000    0.000    0.000    0.000    0.000    0.000 
#    0.000    0.000    0.000    0.000    0.000    0.000 
#
# Total GULP energy -322317.557969 kJ/mol
# GULP energy per Si atom -12396.829153 kJ/mol
# Density = 2.378867 g / cm^3
# Si number density = 23.842936 Si / 1000 Ang^3
#
#
#
# Elastic Constant Matrix: (Units=GPa)
#
#
# Indices 1 2 3 4 5 6 
#
# 1 117.1015 25.3572 13.5280 0.0000 0.0000 -2.7539
# 2 25.3572 117.1015 13.5280 0.0000 0.0000 2.7539
# 3 13.5280 13.5280 41.7735 0.0000 0.0000 0.0000
# 4 0.0000 0.0000 0.0000 35.4903 0.0000 0.0000
# 5 0.0000 0.0000 0.0000 0.0000 35.4903 0.0000
# 6 -2.7539 2.7539 0.0000 0.0000 0.0000 42.9584
#
#
#
# Elastic Compliance Matrix: (Units=1/GPa)
#
#
# Indices 1 2 3 4 5 6 
#
# 1 0.009211 -0.001731 -0.002422 0.000000 0.000000 0.000701
# 2 -0.001731 0.009211 -0.002422 0.000000 0.000000 -0.000701
# 3 -0.002422 -0.002422 0.025507 0.000000 0.000000 0.000000
# 4 0.000000 0.000000 0.000000 0.028177 0.000000 0.000000
# 5 0.000000 0.000000 0.000000 0.000000 0.028177 0.000000
# 6 0.000701 -0.000701 0.000000 0.000000 0.000000 0.023368
#
#
# Mechanical properties :
#
#
# Convention : Reuss Voigt Hill
#
# Bulk Modulus (GPa) = 32.49095 42.31145 37.40120
# Shear Modulus (GPa) = 33.99947 37.69204 35.84576
#
# Velocity S-wave (km/s) = 3.78031 3.98030 3.88159
# Velocity P-wave (km/s) = 5.71935 6.23764 5.98411
#
# Compressibility (1/GPa) = 0.03077780
#
# Stress axis : x y z
#
# Youngs Moduli (GPa) = 108.56836 108.56836 39.20427
#
# Poissons Ratio (x) = 0.18795 0.09496
# Poissons Ratio (y) = 0.18795 0.09496
# Poissons Ratio (z) = 0.26298 0.26298
#
# Static dielectric constant tensor:
#      x y z
#    x 4.436640 0.000000 0.000000 
#    y 0.000000 4.436640 0.000000 
#    z 0.000000 0.000000 4.049200 
# 
# 
# High freq. dielectric constant tensor:
#      x y z
#    x 1.960040 0.000000 0.000000 
#    y 0.000000 1.960040 0.000000 
#    z 0.000000 0.000000 1.924340 
# 
# From -- ./inp_files/1123.got.cif
#   From: 2010.03.12/outbox.cif.g09.slc.cpg/sg82_1_cif.got.tgz:1123.got - 2010.04.08 20:02:50.
