data_PCOD8302690
_publ_section_title
;
Structure prediction by ZEFSAII (Michael W. Deem and Ramdas Pophale) SiO2 
 PCOD8302690
Probable space group: P 4/M
;
_chemical_formula_sum "Si O2"
_cell_formula_units_Z 64
_cell_length_a 20.783525
_cell_length_b 20.783525
_cell_length_c 8.963696
_cell_angle_alpha 90.000000
_cell_angle_beta 90.000000
_cell_angle_gamma 90.000000
_cell_volume 3871.912512
_symmetry_space_group_name_H-M "P 4/M"
_symmetry_group_IT_number 83
_symmetry_cell_setting 'tetragonal'
loop_
_space_group_symop_operation_xyz
x,y,z
-y,x,z
-x,-y,z
y,-x,z
-x,-y,-z
y,-x,-z
x,y,-z
-y,x,-z
loop_
_atom_site_type_symbol
_atom_site_label
_atom_site_fract_x
_atom_site_fract_y
_atom_site_fract_z
Si Si1 0.898502 0.504127 0.330700
Si Si2 0.510550 0.248806 0.661640
Si Si3 0.928416 0.639164 0.179281
Si Si4 0.628496 0.715312 0.333889
Si Si5 0.623278 0.296465 0.161925
Si Si6 0.638078 0.938585 0.677972
Si Si7 0.180403 0.707662 0.822147
Si Si8 0.185464 0.273308 0.164115
O O1 0.920764 0.519937 0.500000
O O2 0.824000 0.487700 0.321407
O O3 0.914079 0.565965 0.230051
O O4 0.931151 0.437368 0.274864
O O5 0.545075 0.257699 0.500000
O O6 0.447550 0.292029 0.669316
O O7 0.554358 0.268769 0.797567
O O8 0.876335 0.692329 0.242782
O O9 0.995309 0.662386 0.249380
O O10 0.929793 0.639615 0.000000
O O11 0.653392 0.733165 0.500000
O O12 0.652761 0.644992 0.285981
O O13 0.652892 0.767779 0.215955
O O14 0.671403 0.237609 0.155617
O O15 0.618577 0.329658 0.000000
O O16 0.644318 0.938758 0.500000
O O17 0.687620 0.885259 0.740908
O O18 0.210038 0.777804 0.765321
O O19 0.170347 0.709152 0.000000
O O20 0.162710 0.252276 0.000000
#
# Coordination Sequence:
#
# PCOD8302690 Si02
#       8
#     8   8   8   8   8   8   8   8
#     4  10  20  34  47  66  98 136 171 203 241 285
#     4  10  19  32  50  70  94 126 162 198 245 300
#     4  11  21  34  50  72 100 134 171 206 246 291
#     4  10  19  33  50  71  96 125 159 200 250 305
#     4  10  19  32  49  72  95 121 158 206 253 292
#     4  11  22  36  49  69 102 138 172 207 244 291
#     4  10  19  33  52  73  96 127 165 208 251 288
#     4   8  17  32  48  69  97 123 156 203 246 285
#
# _framework density 16.529298000000001
#
# number of rings (size 3 to 8) (size 9 to 14) (size 15 to 20)
#    0.000    2.000    2.500    3.000    0.000    3.500 
#    0.000    1.875    0.000    0.375    0.000    2.625 
#    0.000    0.500    0.000    5.750    0.000    2.250 
#
# Total GULP energy -792841.463935 kJ/mol
# GULP energy per Si atom -12388.147874 kJ/mol
# Density = 1.649168 g / cm^3
# Si number density = 16.529298 Si / 1000 Ang^3
#
#
#
# Elastic Constant Matrix: (Units=GPa)
#
#
# Indices 1 2 3 4 5 6 
#
# 1 67.1580 40.2808 37.4024 0.0000 0.0000 4.0930
# 2 40.2808 67.1580 37.4024 0.0000 0.0000 -4.0930
# 3 37.4024 37.4024 75.0583 0.0000 0.0000 0.0000
# 4 0.0000 0.0000 0.0000 21.6052 0.0000 0.0000
# 5 0.0000 0.0000 0.0000 0.0000 21.6052 0.0000
# 6 4.0930 -4.0930 0.0000 0.0000 0.0000 7.5772
#
#
#
# Elastic Compliance Matrix: (Units=1/GPa)
#
#
# Indices 1 2 3 4 5 6 
#
# 1 0.029393 -0.015140 -0.007102 0.000000 0.000000 -0.024055
# 2 -0.015140 0.029393 -0.007102 0.000000 0.000000 0.024055
# 3 -0.007102 -0.007102 0.020401 0.000000 0.000000 0.000000
# 4 0.000000 0.000000 0.000000 0.046285 0.000000 0.000000
# 5 0.000000 0.000000 0.000000 0.000000 0.046285 0.000000
# 6 -0.024055 0.024055 0.000000 0.000000 0.000000 0.157963
#
#
# Mechanical properties :
#
#
# Convention : Reuss Voigt Hill
#
# Bulk Modulus (GPa) = 48.78649 48.83841 48.81245
# Shear Modulus (GPa) = 12.65049 16.44342 14.54696
#
# Velocity S-wave (km/s) = 2.76947 3.15747 2.96982
# Velocity P-wave (km/s) = 6.30919 6.55008 6.43076
#
# Compressibility (1/GPa) = 0.02049748
#
# Stress axis : x y z
#
# Youngs Moduli (GPa) = 34.02205 34.02205 49.01665
#
# Poissons Ratio (x) = 0.51510 0.34813
# Poissons Ratio (y) = 0.51510 0.34813
# Poissons Ratio (z) = 0.24163 0.24163
#
# Static dielectric constant tensor:
#      x y z
#    x 3.185020 0.000000 0.000000 
#    y 0.000000 3.185020 0.000000 
#    z 0.000000 0.000000 3.242130 
# 
# 
# High freq. dielectric constant tensor:
#      x y z
#    x 1.617490 0.000000 0.000000 
#    y 0.000000 1.617490 0.000000 
#    z 0.000000 0.000000 1.638800 
# 
# From -- ./inp_files/1292.got.cif
#   From: 2010.03.12/outbox.cif.g09.slc.cpg/sg83_1_cif.got.tgz:1292.got - 2010.04.08 20:05:18.
