data_PCOD8302182
_publ_section_title
;
Structure prediction by ZEFSAII (Michael W. Deem and Ramdas Pophale) SiO2 
 PCOD8302182
Probable space group: I 41
;
_chemical_formula_sum "Si O2"
_cell_formula_units_Z 40
_cell_length_a 15.806800
_cell_length_b 15.806800
_cell_length_c 7.597756
_cell_angle_alpha 90.000000
_cell_angle_beta 90.000000
_cell_angle_gamma 90.000000
_cell_volume 1898.336765
_symmetry_space_group_name_H-M "I 41"
_symmetry_group_IT_number 80
_symmetry_cell_setting 'tetragonal'
loop_
_space_group_symop_operation_xyz
x,y,z
-y,1/2+x,1/4+z
-x,-y,z
y,1/2-x,1/4+z
1/2+x,1/2+y,1/2+z
1/2-y,x,3/4+z
1/2-x,1/2-y,1/2+z
1/2+y,-x,3/4+z
loop_
_atom_site_type_symbol
_atom_site_label
_atom_site_fract_x
_atom_site_fract_y
_atom_site_fract_z
Si Si1 0.540401 0.406554 0.177450
Si Si2 0.479292 0.310329 0.517865
Si Si3 0.288883 0.356125 0.029447
Si Si4 0.549283 0.587414 0.855044
Si Si5 0.641637 0.218931 0.516145
O O1 0.500000 0.500000 0.166885
O O2 0.511846 0.367877 0.359827
O O3 0.641285 0.398222 0.155451
O O4 0.504002 0.359865 0.002978
O O5 0.406746 0.250724 0.442607
O O6 0.439119 0.364839 0.672132
O O7 0.558825 0.260818 0.604606
O O8 0.330255 0.274744 0.123346
O O9 0.356713 0.419232 0.937632
O O10 0.500000 0.500000 0.815447
O O11 0.711006 0.187434 0.650410
#
# Coordination Sequence:
#
# PCOD8302182 Si02
#       5
#     8   8   8   8   8
#     4  10  21  44  67  94 140 180 228 283 333 411
#     4  11  23  43  67 103 134 182 230 280 351 406
#     4  12  25  47  71 106 140 181 233 296 353 413
#     4  11  24  44  71 102 134 188 231 278 345 423
#     4  10  24  42  67 101 138 181 224 293 343 404
#
# _framework density 21.071076000000001
#
# number of rings (size 3 to 8) (size 9 to 14) (size 15 to 20)
#    0.000    1.200    2.000    4.200    2.800    0.000 
#    7.200    0.000    0.000    0.000    0.000    0.000 
#    0.000    0.000    0.000    0.000    0.000    0.000 
#
# Total GULP energy -247771.625845 kJ/mol
# GULP energy per Si atom -12388.581292 kJ/mol
# Density = 2.102312 g / cm^3
# Si number density = 21.071076 Si / 1000 Ang^3
#
#
#
# Elastic Constant Matrix: (Units=GPa)
#
#
# Indices 1 2 3 4 5 6 
#
# 1 112.8354 38.7602 35.3607 0.0000 0.0000 2.9616
# 2 38.7602 112.8354 35.3607 0.0000 0.0000 -2.9616
# 3 35.3607 35.3607 116.5715 0.0000 0.0000 0.0000
# 4 0.0000 0.0000 0.0000 32.1817 0.0000 0.0000
# 5 0.0000 0.0000 0.0000 0.0000 32.1817 0.0000
# 6 2.9616 -2.9616 0.0000 0.0000 0.0000 33.3580
#
#
#
# Elastic Compliance Matrix: (Units=1/GPa)
#
#
# Indices 1 2 3 4 5 6 
#
# 1 0.010640 -0.002956 -0.002331 0.000000 0.000000 -0.001207
# 2 -0.002956 0.010640 -0.002331 0.000000 0.000000 0.001207
# 3 -0.002331 -0.002331 0.009992 0.000000 0.000000 0.000000
# 4 0.000000 0.000000 0.000000 0.031074 0.000000 0.000000
# 5 0.000000 0.000000 0.000000 0.000000 0.031074 0.000000
# 6 -0.001207 0.001207 0.000000 0.000000 0.000000 0.030192
#
#
# Mechanical properties :
#
#
# Convention : Reuss Voigt Hill
#
# Bulk Modulus (GPa) = 62.35607 62.35618 62.35612
# Shear Modulus (GPa) = 34.67570 35.06168 34.86869
#
# Velocity S-wave (km/s) = 4.06107 4.08361 4.07235
# Velocity P-wave (km/s) = 7.18659 7.20361 7.19511
#
# Compressibility (1/GPa) = 0.01603693
#
# Stress axis : x y z
#
# Youngs Moduli (GPa) = 93.98420 93.98420 100.07526
#
# Poissons Ratio (x) = 0.27784 0.23326
# Poissons Ratio (y) = 0.27784 0.23326
# Poissons Ratio (z) = 0.21906 0.21906
#
# Static dielectric constant tensor:
#      x y z
#    x 4.075350 0.000000 0.000000 
#    y 0.000000 4.075350 0.000000 
#    z 0.000000 0.000000 3.921860 
# 
# 
# High freq. dielectric constant tensor:
#      x y z
#    x 1.834700 0.000000 0.000000 
#    y 0.000000 1.834700 0.000000 
#    z 0.000000 0.000000 1.826240 
# 
# From -- ./inp_files/613.got.cif
#   From: 2010.03.12/outbox.cif.g09.slc.cpg/sg80_cif.got.tgz:613.got - 2010.04.08 20:00:04.
