data_PCOD8302955
_publ_section_title
;
Structure prediction by ZEFSAII (Michael W. Deem and Ramdas Pophale) SiO2 
 PCOD8302955
Probable space group: P 4/M
;
_chemical_formula_sum "Si O2"
_cell_formula_units_Z 40
_cell_length_a 8.433824
_cell_length_b 8.433824
_cell_length_c 25.560401
_cell_angle_alpha 90.000000
_cell_angle_beta 90.000000
_cell_angle_gamma 90.000000
_cell_volume 1818.095661
_symmetry_space_group_name_H-M "P 4/M"
_symmetry_group_IT_number 83
_symmetry_cell_setting 'tetragonal'
loop_
_space_group_symop_operation_xyz
x,y,z
-y,x,z
-x,-y,z
y,-x,z
-x,-y,-z
y,-x,-z
x,y,-z
-y,x,-z
loop_
_atom_site_type_symbol
_atom_site_label
_atom_site_fract_x
_atom_site_fract_y
_atom_site_fract_z
Si Si1 0.760917 0.891498 0.401853
Si Si2 0.608996 0.737438 0.304675
Si Si3 0.234189 0.113009 0.209899
Si Si4 0.608064 0.739595 0.500000
Si Si5 0.103510 0.761941 0.091458
Si Si6 0.590442 0.744234 0.000000
O O1 0.669202 0.859620 0.348083
O O2 0.648025 0.842117 0.449205
O O3 0.922547 0.792963 0.405104
O O4 0.423721 0.707198 0.311293
O O5 0.632986 0.816889 0.248016
O O6 0.295748 0.135133 0.150665
O O7 0.072043 0.207115 0.220614
O O8 0.421986 0.706925 0.500000
O O9 0.155101 0.624372 0.052084
O O10 0.919865 0.795972 0.081087
O O11 0.408071 0.701994 0.000000
#
# Coordination Sequence:
#
# PCOD8302955 Si02
#       6
#     8   8   8   4   8   4
#     4  11  24  41  62  88 116 149 193 239 280 329
#     4  11  24  39  56  83 118 153 189 230 278 332
#     4   9  19  37  60  85 111 141 182 231 280 332
#     4  11  24  41  62  90 122 153 188 231 280 336
#     4   9  19  37  60  83 107 139 183 232 278 329
#     4  11  24  37  50  76 114 149 182 225 276 330
#
# _framework density 22.001042999999999
#
# number of rings (size 3 to 8) (size 9 to 14) (size 15 to 20)
#    0.000    1.800    0.000    4.800    0.000   14.400 
#    0.000    6.000    0.000    0.000    0.000    0.000 
#    0.000    0.000    0.000    0.000    0.000    0.000 
#
# Total GULP energy -496217.965731 kJ/mol
# GULP energy per Si atom -12405.449143 kJ/mol
# Density = 2.195097 g / cm^3
# Si number density = 22.001043 Si / 1000 Ang^3
#
#
#
# Elastic Constant Matrix: (Units=GPa)
#
#
# Indices 1 2 3 4 5 6 
#
# 1 15.6803 -9.6594 9.4438 0.0000 0.0000 0.5753
# 2 -9.6594 15.6803 9.4438 0.0000 0.0000 -0.5753
# 3 9.4438 9.4438 123.7758 0.0000 0.0000 0.0000
# 4 0.0000 0.0000 0.0000 4.0322 0.0000 0.0000
# 5 0.0000 0.0000 0.0000 0.0000 4.0322 0.0000
# 6 0.5753 -0.5753 0.0000 0.0000 0.0000 35.5089
#
#
#
# Elastic Compliance Matrix: (Units=1/GPa)
#
#
# Indices 1 2 3 4 5 6 
#
# 1 0.128921 0.089428 -0.016660 0.000000 0.000000 -0.000640
# 2 0.089428 0.128921 -0.016660 0.000000 0.000000 0.000640
# 3 -0.016660 -0.016660 0.010621 0.000000 0.000000 0.000000
# 4 0.000000 0.000000 0.000000 0.248006 0.000000 0.000000
# 5 0.000000 0.000000 0.000000 0.000000 0.248006 0.000000
# 6 -0.000640 0.000640 0.000000 0.000000 0.000000 0.028183
#
#
# Mechanical properties :
#
#
# Convention : Reuss Voigt Hill
#
# Bulk Modulus (GPa) = 2.62686 19.28809 10.95748
# Shear Modulus (GPa) = 6.19322 18.44185 12.31753
#
# Velocity S-wave (km/s) = 1.67961 2.89835 2.36871
# Velocity P-wave (km/s) = 2.22666 4.47063 3.53161
#
# Compressibility (1/GPa) = 0.38068237
#
# Stress axis : x y z
#
# Youngs Moduli (GPa) = 7.75667 7.75667 94.15045
#
# Poissons Ratio (x) = -0.69367 1.56851
# Poissons Ratio (y) = -0.69367 1.56851
# Poissons Ratio (z) = 0.12922 0.12922
#
# Static dielectric constant tensor:
#      x y z
#    x 3.865490 0.000000 0.000000 
#    y 0.000000 3.865490 0.000000 
#    z 0.000000 0.000000 3.938390 
# 
# 
# High freq. dielectric constant tensor:
#      x y z
#    x 1.865730 0.000000 0.000000 
#    y 0.000000 1.865730 0.000000 
#    z 0.000000 0.000000 1.876410 
# 
# From -- ./inp_files/3259.got.cif
#   From: 2010.03.12/outbox.cif.g09.slc.cpg/sg83_2_cif.got.tgz:3259.got - 2010.04.08 20:05:18.
