data_PCOD8302039
_publ_section_title
;
Structure prediction by ZEFSAII (Michael W. Deem and Ramdas Pophale) SiO2 
 PCOD8302039
Probable space group: P 43
;
_chemical_formula_sum "Si O2"
_cell_formula_units_Z 28
_cell_length_a 12.401731
_cell_length_b 12.401731
_cell_length_c 8.859603
_cell_angle_alpha 90.000000
_cell_angle_beta 90.000000
_cell_angle_gamma 90.000000
_cell_volume 1362.632916
_symmetry_space_group_name_H-M "P 43"
_symmetry_group_IT_number 78
_symmetry_cell_setting 'tetragonal'
loop_
_space_group_symop_operation_xyz
x,y,z
-y,x,3/4+z
-x,-y,1/2+z
y,-x,1/4+z
loop_
_atom_site_type_symbol
_atom_site_label
_atom_site_fract_x
_atom_site_fract_y
_atom_site_fract_z
Si Si1 0.853123 0.570960 0.607100
Si Si2 0.726888 0.729706 0.179268
Si Si3 0.653624 0.947390 0.332446
Si Si4 0.152227 0.285258 0.385843
Si Si5 0.518024 0.620311 0.279407
Si Si6 0.062189 0.907918 0.521784
Si Si7 0.725424 0.057719 0.614125
O O1 0.936895 0.473142 0.607923
O O2 0.830793 0.614400 0.774997
O O3 0.735106 0.541830 0.544300
O O4 0.923747 0.654324 0.511353
O O5 0.692483 0.844004 0.242712
O O6 0.635064 0.639786 0.204067
O O7 0.836065 0.704342 0.266736
O O8 0.747416 0.729098 0.999609
O O9 0.692542 0.045210 0.230187
O O10 0.698032 0.957302 0.503735
O O11 0.149199 0.177828 0.283111
O O12 0.441002 0.540363 0.185968
O O13 0.023490 0.926157 0.692467
O O14 0.971279 0.843608 0.426381
#
# Coordination Sequence:
#
# PCOD8302039 Si02
#       7
#     4   4   4   4   4   4   4
#     4  11  23  44  65  99 130 171 226 280 337 401
#     4  10  23  43  63  95 131 172 216 279 334 400
#     4  10  23  41  68  88 131 179 218 271 339 401
#     4  11  24  42  65 100 133 172 224 279 330 406
#     4  11  25  45  70  96 129 171 224 285 348 404
#     4  12  26  39  64  96 135 176 220 266 328 401
#     4  11  22  42  63  92 133 175 222 268 330 405
#
# _framework density 20.548455000000001
#
# number of rings (size 3 to 8) (size 9 to 14) (size 15 to 20)
#    0.000    1.143    2.857    2.571    8.000    0.000 
#    0.000    1.429    0.000    0.000    0.000    0.000 
#    0.000    0.000    0.000    0.000    0.000    0.000 
#
# Total GULP energy -347050.987692 kJ/mol
# GULP energy per Si atom -12394.678132 kJ/mol
# Density = 2.050169 g / cm^3
# Si number density = 20.548455 Si / 1000 Ang^3
#
#
#
# Elastic Constant Matrix: (Units=GPa)
#
#
# Indices 1 2 3 4 5 6 
#
# 1 60.4229 14.0451 20.3543 0.0000 0.0000 -0.8219
# 2 14.0451 60.4229 20.3543 0.0000 0.0000 0.8219
# 3 20.3543 20.3543 105.9621 0.0000 0.0000 0.0000
# 4 0.0000 0.0000 0.0000 35.0857 0.0000 0.0000
# 5 0.0000 0.0000 0.0000 0.0000 35.0857 0.0000
# 6 -0.8219 0.8219 0.0000 0.0000 0.0000 26.6541
#
#
#
# Elastic Compliance Matrix: (Units=1/GPa)
#
#
# Indices 1 2 3 4 5 6 
#
# 1 0.018295 -0.003291 -0.002882 0.000000 0.000000 0.000666
# 2 -0.003291 0.018295 -0.002882 0.000000 0.000000 -0.000666
# 3 -0.002882 -0.002882 0.010545 0.000000 0.000000 0.000000
# 4 0.000000 0.000000 0.000000 0.028502 0.000000 0.000000
# 5 0.000000 0.000000 0.000000 0.000000 0.028502 0.000000
# 6 0.000666 -0.000666 0.000000 0.000000 0.000000 0.037559
#
#
# Mechanical properties :
#
#
# Convention : Reuss Voigt Hill
#
# Bulk Modulus (GPa) = 34.45394 37.36839 35.91117
# Shear Modulus (GPa) = 29.50179 30.83537 30.16858
#
# Velocity S-wave (km/s) = 3.79320 3.87798 3.83582
# Velocity P-wave (km/s) = 5.99900 6.18681 6.09363
#
# Compressibility (1/GPa) = 0.02902426
#
# Stress axis : x y z
#
# Youngs Moduli (GPa) = 54.66009 54.66009 94.83517
#
# Poissons Ratio (x) = 0.17987 0.27333
# Poissons Ratio (y) = 0.17987 0.27333
# Poissons Ratio (z) = 0.15754 0.15754
#
# Static dielectric constant tensor:
#      x y z
#    x 3.944790 0.000000 0.000000 
#    y 0.000000 3.944790 0.000000 
#    z 0.000000 0.000000 3.969650 
# 
# 
# High freq. dielectric constant tensor:
#      x y z
#    x 1.804060 0.000000 0.000000 
#    y 0.000000 1.804060 0.000000 
#    z 0.000000 0.000000 1.816530 
# 
# From -- ./inp_files/600.got.cif
#   From: 2010.03.12/outbox.cif.g09.slc.cpg/sg78_cif.got.tgz:600.got - 2010.04.16 16:37:20.
