data_PCOD8302328
_publ_section_title
;
Structure prediction by ZEFSAII (Michael W. Deem and Ramdas Pophale) SiO2 
 PCOD8302328
Probable space group: P -4
;
_chemical_formula_sum "Si O2"
_cell_formula_units_Z 20
_cell_length_a 9.382516
_cell_length_b 9.382516
_cell_length_c 10.731777
_cell_angle_alpha 90.000000
_cell_angle_beta 90.000000
_cell_angle_gamma 90.000000
_cell_volume 944.735570
_symmetry_space_group_name_H-M "P -4"
_symmetry_group_IT_number 81
_symmetry_cell_setting 'tetragonal'
loop_
_space_group_symop_operation_xyz
x,y,z
y,-x,-z
-x,-y,z
-y,x,-z
loop_
_atom_site_type_symbol
_atom_site_label
_atom_site_fract_x
_atom_site_fract_y
_atom_site_fract_z
Si Si1 0.814965 0.870434 0.992029
Si Si2 0.500000 0.000000 0.562953
Si Si3 0.540001 0.227739 0.361656
Si Si4 0.679112 0.333639 0.823304
Si Si5 0.500000 0.500000 0.000000
Si Si6 0.197874 0.626669 0.243782
Si Si7 0.500000 0.500000 0.500000
O O1 0.693631 0.861490 0.884569
O O2 0.787130 0.763625 0.105200
O O3 0.971927 0.822257 0.946953
O O4 0.571355 0.112699 0.468436
O O5 0.382050 0.072258 0.652781
O O6 0.409839 0.200758 0.264998
O O7 0.687755 0.261653 0.294876
O O8 0.464885 0.365727 0.417599
O O9 0.635523 0.461430 0.916143
O O10 0.532577 0.264605 0.768588
#
# Coordination Sequence:
#
# PCOD8302328 Si02
#       7
#     4   2   4   4   1   4   1
#     4  11  27  47  67 101 147 186 225 280 357 425
#     4  12  28  42  66 106 138 186 232 290 352 412
#     4  12  23  41  69 102 136 177 233 289 347 407
#     4  12  21  42  72 103 136 178 227 293 351 413
#     4  12  18  40  68 114 132 166 220 292 370 400
#     4  12  24  45  69 100 140 182 233 291 344 417
#     4  12  18  44  68  90 136 174 224 296 334 388
#
# _framework density 21.169945999999999
#
# number of rings (size 3 to 8) (size 9 to 14) (size 15 to 20)
#    0.000    0.200    8.000    1.200    2.800    0.000 
#    0.000    0.000    0.000    0.000    0.000    0.000 
#    0.000    0.000    0.000    0.000    0.000    0.000 
#
# Total GULP energy -247764.069991 kJ/mol
# GULP energy per Si atom -12388.203500 kJ/mol
# Density = 2.112176 g / cm^3
# Si number density = 21.169946 Si / 1000 Ang^3
#
#
#
# Elastic Constant Matrix: (Units=GPa)
#
#
# Indices 1 2 3 4 5 6 
#
# 1 90.6514 42.9219 43.3063 0.0000 0.0000 0.5739
# 2 42.9219 90.6514 43.3063 0.0000 0.0000 -0.5739
# 3 43.3063 43.3063 99.3343 0.0000 0.0000 0.0000
# 4 0.0000 0.0000 0.0000 50.9510 0.0000 0.0000
# 5 0.0000 0.0000 0.0000 0.0000 50.9510 0.0000
# 6 0.5739 -0.5739 0.0000 0.0000 0.0000 23.0358
#
#
#
# Elastic Compliance Matrix: (Units=1/GPa)
#
#
# Indices 1 2 3 4 5 6 
#
# 1 0.015700 -0.005263 -0.004550 0.000000 0.000000 -0.000522
# 2 -0.005263 0.015700 -0.004550 0.000000 0.000000 0.000522
# 3 -0.004550 -0.004550 0.014034 0.000000 0.000000 0.000000
# 4 0.000000 0.000000 0.000000 0.019627 0.000000 0.000000
# 5 0.000000 0.000000 0.000000 0.000000 0.019627 0.000000
# 6 -0.000522 0.000522 0.000000 0.000000 0.000000 0.043437
#
#
# Mechanical properties :
#
#
# Convention : Reuss Voigt Hill
#
# Bulk Modulus (GPa) = 59.85246 59.96736 59.90991
# Shear Modulus (GPa) = 30.78395 35.06108 32.92251
#
# Velocity S-wave (km/s) = 3.81745 4.07402 3.94782
# Velocity P-wave (km/s) = 6.91117 7.10763 7.01009
#
# Compressibility (1/GPa) = 0.01670775
#
# Stress axis : x y z
#
# Youngs Moduli (GPa) = 63.69243 63.69243 71.25335
#
# Poissons Ratio (x) = 0.33524 0.32421
# Poissons Ratio (y) = 0.33524 0.32421
# Poissons Ratio (z) = 0.28981 0.28981
#
# Static dielectric constant tensor:
#      x y z
#    x 3.782000 0.000000 0.000000 
#    y 0.000000 3.782000 0.000000 
#    z 0.000000 0.000000 4.263230 
# 
# 
# High freq. dielectric constant tensor:
#      x y z
#    x 1.821600 0.000000 0.000000 
#    y 0.000000 1.821600 0.000000 
#    z 0.000000 0.000000 1.844630 
# 
# From -- ./inp_files/1299.got.cif
#   From: 2010.03.12/outbox.cif.g09.slc.cpg/sg81_cif.got.tgz:1299.got - 2010.04.08 20:01:38.
