data_PCOD8302866
_publ_section_title
;
Structure prediction by ZEFSAII (Michael W. Deem and Ramdas Pophale) SiO2 
 PCOD8302866
Probable space group: P 4/M
;
_chemical_formula_sum "Si O2"
_cell_formula_units_Z 40
_cell_length_a 8.206753
_cell_length_b 8.206753
_cell_length_c 26.847083
_cell_angle_alpha 90.000000
_cell_angle_beta 90.000000
_cell_angle_gamma 90.000000
_cell_volume 1808.172378
_symmetry_space_group_name_H-M "P 4/M"
_symmetry_group_IT_number 83
_symmetry_cell_setting 'tetragonal'
loop_
_space_group_symop_operation_xyz
x,y,z
-y,x,z
-x,-y,z
y,-x,z
-x,-y,-z
y,-x,-z
x,y,-z
-y,x,-z
loop_
_atom_site_type_symbol
_atom_site_label
_atom_site_fract_x
_atom_site_fract_y
_atom_site_fract_z
Si Si1 0.253404 0.913336 0.657452
Si Si2 0.746443 0.084718 0.943827
Si Si3 0.747044 0.086001 0.770052
Si Si4 0.574200 0.242068 0.143018
Si Si5 0.000000 0.500000 0.417101
Si Si6 0.072199 0.737984 0.500000
O O1 0.317617 0.891188 0.713759
O O2 0.100782 0.797426 0.647669
O O3 0.399085 0.875518 0.618715
O O4 0.603448 0.132623 0.905959
O O5 0.899866 0.201665 0.934306
O O6 0.680386 0.107537 0.000000
O O7 0.603420 0.134350 0.807635
O O8 0.900922 0.202133 0.779765
O O9 0.699663 0.390726 0.142818
O O10 0.898901 0.373611 0.451385
O O11 0.885674 0.801538 0.500000
#
# Coordination Sequence:
#
# PCOD8302866 Si02
#       6
#     8   8   8   8   4   4
#     4   9  19  36  58  85 114 145 187 236 283 336
#     4   9  19  37  60  83 105 134 181 238 287 335
#     4   9  19  36  58  82 107 140 186 235 279 331
#     4  11  24  37  50  76 115 152 184 224 279 341
#     4  11  20  32  62  92 112 146 193 238 284 326
#     4  10  22  40  60  84 118 158 200 240 274 322
#
# _framework density 22.121784999999999
#
# number of rings (size 3 to 8) (size 9 to 14) (size 15 to 20)
#    0.000    2.300    0.000    4.200    0.000   10.400 
#    0.000    3.000    0.000   24.600    0.000    0.000 
#    0.000    0.000    0.000    0.000    0.000    0.000 
#
# Total GULP energy -495992.240164 kJ/mol
# GULP energy per Si atom -12399.806004 kJ/mol
# Density = 2.207144 g / cm^3
# Si number density = 22.121785 Si / 1000 Ang^3
#
#
#
# Elastic Constant Matrix: (Units=GPa)
#
#
# Indices 1 2 3 4 5 6 
#
# 1 63.6961 13.8487 39.2817 0.0000 0.0000 -0.2982
# 2 13.8487 63.6961 39.2817 0.0000 0.0000 0.2982
# 3 39.2817 39.2817 162.1260 0.0000 0.0000 0.0000
# 4 0.0000 0.0000 0.0000 8.0940 0.0000 0.0000
# 5 0.0000 0.0000 0.0000 0.0000 8.0940 0.0000
# 6 -0.2982 0.2982 0.0000 0.0000 0.0000 28.9519
#
#
#
# Elastic Compliance Matrix: (Units=1/GPa)
#
#
# Indices 1 2 3 4 5 6 
#
# 1 0.018577 -0.001486 -0.004141 0.000000 0.000000 0.000207
# 2 -0.001486 0.018577 -0.004141 0.000000 0.000000 -0.000207
# 3 -0.004141 -0.004141 0.008175 0.000000 0.000000 0.000000
# 4 0.000000 0.000000 0.000000 0.123548 0.000000 0.000000
# 5 0.000000 0.000000 0.000000 0.000000 0.123548 0.000000
# 6 0.000207 -0.000207 0.000000 0.000000 0.000000 0.034544
#
#
# Mechanical properties :
#
#
# Convention : Reuss Voigt Hill
#
# Bulk Modulus (GPa) = 38.77027 52.70472 45.73749
# Shear Modulus (GPa) = 14.08034 22.16836 18.12435
#
# Velocity S-wave (km/s) = 2.52562 3.16904 2.86544
# Velocity P-wave (km/s) = 5.10577 6.10467 5.62742
#
# Compressibility (1/GPa) = 0.02579296
#
# Stress axis : x y z
#
# Youngs Moduli (GPa) = 53.82861 53.82861 122.32820
#
# Poissons Ratio (x) = 0.08000 0.50657
# Poissons Ratio (y) = 0.08000 0.50657
# Poissons Ratio (z) = 0.22291 0.22291
#
# Static dielectric constant tensor:
#      x y z
#    x 3.777040 0.000000 0.000000 
#    y 0.000000 3.777040 0.000000 
#    z 0.000000 0.000000 4.192630 
# 
# 
# High freq. dielectric constant tensor:
#      x y z
#    x 1.854690 0.000000 0.000000 
#    y 0.000000 1.854690 0.000000 
#    z 0.000000 0.000000 1.889810 
# 
# From -- ./inp_files/3248.got.cif
#   From: 2010.03.12/outbox.cif.g09.slc.cpg/sg83_2_cif.got.tgz:3248.got - 2010.04.08 20:05:18.
