data_PCOD8302506
_publ_section_title
;
Structure prediction by ZEFSAII (Michael W. Deem and Ramdas Pophale) SiO2 
 PCOD8302506
Probable space group: I -4 
;
_chemical_formula_sum "Si O2"
_cell_formula_units_Z 40
_cell_length_a 8.673949
_cell_length_b 8.673949
_cell_length_c 21.191630
_cell_angle_alpha 90.000000
_cell_angle_beta 90.000000
_cell_angle_gamma 90.000000
_cell_volume 1594.402958
_symmetry_space_group_name_H-M "I -4 "
_symmetry_group_IT_number 82
_symmetry_cell_setting 'tetragonal'
loop_
_space_group_symop_operation_xyz
x,y,z
y,-x,-z
-x,-y,z
-y,x,-z
1/2+x,1/2+y,1/2+z
1/2+y,1/2-x,1/2-z
1/2-x,1/2-y,1/2+z
1/2-y,1/2+x,1/2-z
loop_
_atom_site_type_symbol
_atom_site_label
_atom_site_fract_x
_atom_site_fract_y
_atom_site_fract_z
Si Si1 0.910729 0.850619 0.758464
Si Si2 0.851424 0.233468 0.651963
Si Si3 0.620720 0.640008 0.580898
Si Si4 0.159697 0.433393 0.170338
Si Si5 0.069299 0.349513 0.963147
O O1 0.877938 0.744290 0.818645
O O2 0.738012 0.881159 0.735104
O O3 0.002401 0.782158 0.698429
O O4 0.000000 0.000000 0.784784
O O5 0.894588 0.284045 0.580741
O O6 0.766892 0.068647 0.640390
O O7 0.500000 0.500000 0.594204
O O8 0.620645 0.782784 0.628789
O O9 0.601487 0.712487 0.511273
O O10 0.789806 0.565553 0.583501
O O11 0.000000 0.500000 0.191350
O O12 0.000000 0.500000 0.998492
#
# Coordination Sequence:
#
# PCOD8302506 Si02
#       5
#     8   8   8   8   8
#     4  10  26  48  71 110 149 190 250 304 376 445
#     4  11  27  47  75 106 151 197 244 313 369 446
#     4  12  25  48  73 109 147 189 255 306 372 447
#     4  11  26  45  75 106 144 192 245 308 371 442
#     4  12  26  45  73 108 146 198 245 308 375 436
#
# _framework density 25.087762000000001
#
# number of rings (size 3 to 8) (size 9 to 14) (size 15 to 20)
#    0.000    0.800    2.000    3.000   14.000    1.600 
#    0.000    0.000    0.000    0.000    0.000    0.000 
#    0.000    0.000    0.000    0.000    0.000    0.000 
#
# Total GULP energy -247765.285061 kJ/mol
# GULP energy per Si atom -12388.264253 kJ/mol
# Density = 2.503066 g / cm^3
# Si number density = 25.087762 Si / 1000 Ang^3
#
#
#
# Elastic Constant Matrix: (Units=GPa)
#
#
# Indices 1 2 3 4 5 6 
#
# 1 115.5120 29.7175 21.2650 0.0000 0.0000 -2.6638
# 2 29.7175 115.5120 21.2650 0.0000 0.0000 2.6638
# 3 21.2650 21.2650 77.9849 0.0000 0.0000 0.0000
# 4 0.0000 0.0000 0.0000 -17.0129 0.0000 0.0000
# 5 0.0000 0.0000 0.0000 0.0000 -17.0129 0.0000
# 6 -2.6638 2.6638 0.0000 0.0000 0.0000 34.7829
#
#
#
# Elastic Compliance Matrix: (Units=1/GPa)
#
#
# Indices 1 2 3 4 5 6 
#
# 1 0.009597 -0.002114 -0.002041 0.000000 0.000000 0.000897
# 2 -0.002114 0.009597 -0.002041 0.000000 0.000000 -0.000897
# 3 -0.002041 -0.002041 0.013936 0.000000 0.000000 0.000000
# 4 0.000000 0.000000 0.000000 -0.058779 0.000000 0.000000
# 5 0.000000 0.000000 0.000000 0.000000 -0.058779 0.000000
# 6 0.000897 -0.000897 0.000000 0.000000 0.000000 0.028887
#
#
# Mechanical properties :
#
#
# Convention : Reuss Voigt Hill
#
# Bulk Modulus (GPa) = 48.21567 50.38930 49.30249
# Shear Modulus (GPa) = -137.98212 15.93553 -61.02330
#
# Velocity S-wave (km/s) = -7.42423 2.52303 -4.93728
# Velocity P-wave (km/s) = 7.36422 5.34943 3.57878
#
# Compressibility (1/GPa) = 0.02074014
#
# Stress axis : x y z
#
# Youngs Moduli (GPa) = 104.19557 104.19557 71.75752
#
# Poissons Ratio (x) = 0.22028 0.14642
# Poissons Ratio (y) = 0.22028 0.14642
# Poissons Ratio (z) = 0.21261 0.21261
#
# Static dielectric constant tensor:
#      x y z
#    x 4.830250 0.000000 0.000000 
#    y 0.000000 4.830250 0.000000 
#    z 0.000000 0.000000 4.317120 
# 
# 
# High freq. dielectric constant tensor:
#      x y z
#    x 2.011750 0.000000 0.000000 
#    y 0.000000 2.011750 0.000000 
#    z 0.000000 0.000000 1.999960 
# 
# From -- ./inp_files/3360.got.cif
#   From: 2010.03.12/outbox.cif.g09.slc.cpg/sg82_2_cif.got.tgz:3360.got - 2010.04.08 20:02:50.
