data_PCOD8302668
_publ_section_title
;
Structure prediction by ZEFSAII (Michael W. Deem and Ramdas Pophale) SiO2 
 PCOD8302668
Probable space group: P 4/M
;
_chemical_formula_sum "Si O2"
_cell_formula_units_Z 64
_cell_length_a 19.927101
_cell_length_b 19.927101
_cell_length_c 9.189267
_cell_angle_alpha 90.000000
_cell_angle_beta 90.000000
_cell_angle_gamma 90.000000
_cell_volume 3648.960099
_symmetry_space_group_name_H-M "P 4/M"
_symmetry_group_IT_number 83
_symmetry_cell_setting 'tetragonal'
loop_
_space_group_symop_operation_xyz
x,y,z
-y,x,z
-x,-y,z
y,-x,z
-x,-y,-z
y,-x,-z
x,y,-z
-y,x,-z
loop_
_atom_site_type_symbol
_atom_site_label
_atom_site_fract_x
_atom_site_fract_y
_atom_site_fract_z
Si Si1 0.489192 0.877880 0.327971
Si Si2 0.722555 0.158744 0.337259
Si Si3 0.626838 0.904478 0.833386
Si Si4 0.662872 0.352183 0.833451
Si Si5 0.731453 0.794142 0.831455
Si Si6 0.543457 0.598025 0.668316
Si Si7 0.940354 0.635410 0.168177
Si Si8 0.247949 0.408885 0.340746
O O1 0.486425 0.893990 0.500000
O O2 0.563329 0.890213 0.268240
O O3 0.435079 0.925123 0.247682
O O4 0.470625 0.800161 0.296725
O O5 0.745491 0.136732 0.500000
O O6 0.783277 0.200470 0.261642
O O7 0.700381 0.094600 0.241581
O O8 0.657531 0.204056 0.348671
O O9 0.691728 0.861134 0.783676
O O10 0.649188 0.980990 0.819414
O O11 0.607580 0.886152 0.000000
O O12 0.734032 0.319829 0.799806
O O13 0.660527 0.424640 0.754815
O O14 0.601573 0.306164 0.775633
O O15 0.649458 0.364304 0.000000
O O16 0.752785 0.796166 0.000000
O O17 0.467131 0.586855 0.712376
O O18 0.549970 0.613812 0.500000
O O19 0.917004 0.629900 0.000000
O O20 0.280412 0.422475 0.500000
#
# Coordination Sequence:
#
# PCOD8302668 Si02
#       8
#     8   8   8   8   8   8   8   8
#     4  10  20  32  47  69  98 132 169 208 245 282
#     4   9  17  31  51  72  92 119 159 202 238 275
#     4  10  21  34  48  70 102 135 165 198 239 289
#     4  10  19  30  48  70  88 111 145 189 238 280
#     4   9  19  35  50  68  97 128 156 190 233 280
#     4   9  19  35  50  61  77 105 140 181 232 287
#     4  10  19  32  51  72  96 132 171 202 238 285
#     4   8  16  30  45  63  88 120 157 191 227 276
#
# _framework density 17.539244
#
# number of rings (size 3 to 8) (size 9 to 14) (size 15 to 20)
#    0.000    2.625    0.000    3.000    0.000    8.500 
#    0.000    3.125    0.000    0.000    0.000    0.000 
#    0.000    0.500    0.000    5.750    0.000    2.250 
#
# Total GULP energy -793302.880566 kJ/mol
# GULP energy per Si atom -12395.357509 kJ/mol
# Density = 1.749932 g / cm^3
# Si number density = 17.539244 Si / 1000 Ang^3
#
#
#
# Elastic Constant Matrix: (Units=GPa)
#
#
# Indices 1 2 3 4 5 6 
#
# 1 60.4796 50.8811 41.7312 0.0000 0.0000 4.1016
# 2 50.8811 60.4796 41.7312 0.0000 0.0000 -4.1016
# 3 41.7312 41.7312 89.9240 0.0000 0.0000 0.0000
# 4 0.0000 0.0000 0.0000 15.5141 0.0000 0.0000
# 5 0.0000 0.0000 0.0000 0.0000 15.5141 0.0000
# 6 4.1016 -4.1016 0.0000 0.0000 0.0000 24.4485
#
#
#
# Elastic Compliance Matrix: (Units=1/GPa)
#
#
# Indices 1 2 3 4 5 6 
#
# 1 0.067695 -0.053926 -0.006390 0.000000 0.000000 -0.020404
# 2 -0.053926 0.067695 -0.006390 0.000000 0.000000 0.020404
# 3 -0.006390 -0.006390 0.017051 0.000000 0.000000 0.000000
# 4 0.000000 0.000000 0.000000 0.064458 0.000000 0.000000
# 5 0.000000 0.000000 0.000000 0.000000 0.064458 0.000000
# 6 -0.020404 0.020404 0.000000 0.000000 0.000000 0.047748
#
#
# Mechanical properties :
#
#
# Convention : Reuss Voigt Hill
#
# Bulk Modulus (GPa) = 52.54914 53.28557 52.91735
# Shear Modulus (GPa) = 10.66416 16.19797 13.43107
#
# Velocity S-wave (km/s) = 2.46848 3.04226 2.77026
# Velocity P-wave (km/s) = 6.17660 6.54119 6.36151
#
# Compressibility (1/GPa) = 0.01902981
#
# Stress axis : x y z
#
# Youngs Moduli (GPa) = 14.77209 14.77209 58.64739
#
# Poissons Ratio (x) = 0.79661 0.37474
# Poissons Ratio (y) = 0.79661 0.37474
# Poissons Ratio (z) = 0.09439 0.09439
#
# Static dielectric constant tensor:
#      x y z
#    x 3.173940 0.000000 0.000000 
#    y 0.000000 3.173940 0.000000 
#    z 0.000000 0.000000 3.437900 
# 
# 
# High freq. dielectric constant tensor:
#      x y z
#    x 1.655710 0.000000 0.000000 
#    y 0.000000 1.655710 0.000000 
#    z 0.000000 0.000000 1.686340 
# 
# From -- ./inp_files/1310.got.cif
#   From: 2010.03.12/outbox.cif.g09.slc.cpg/sg83_1_cif.got.tgz:1310.got - 2010.04.08 20:05:18.
