data_PCOD8302092
_publ_section_title
;
Structure prediction by ZEFSAII (Michael W. Deem and Ramdas Pophale) SiO2 
 PCOD8302092
Probable space group: I 4
;
_chemical_formula_sum "Si O2"
_cell_formula_units_Z 32
_cell_length_a 13.359721
_cell_length_b 13.359721
_cell_length_c 8.977545
_cell_angle_alpha 90.000000
_cell_angle_beta 90.000000
_cell_angle_gamma 90.000000
_cell_volume 1602.331490
_symmetry_space_group_name_H-M "I 4"
_symmetry_group_IT_number 79
_symmetry_cell_setting 'tetragonal'
loop_
_space_group_symop_operation_xyz
x,y,z
-y,x,z
-x,-y,z
y,-x,z
1/2+x,1/2+y,1/2+z
1/2-y,1/2+x,1/2+z
1/2-x,1/2-y,1/2+z
1/2+y,1/2-x,1/2+z
loop_
_atom_site_type_symbol
_atom_site_label
_atom_site_fract_x
_atom_site_fract_y
_atom_site_fract_z
Si Si1 0.342830 0.714239 0.569910
Si Si2 0.965073 0.760819 0.226161
Si Si3 0.771569 0.652167 0.237893
Si Si4 0.017222 0.838337 0.543848
O O1 0.442621 0.772851 0.622137
O O2 0.344530 0.600436 0.636633
O O3 0.340903 0.712142 0.392052
O O4 0.242852 0.768987 0.631735
O O5 0.891813 0.666590 0.263108
O O6 0.016641 0.803310 0.374125
O O7 0.752733 0.545126 0.156108
O O8 0.913183 0.890730 0.578254
#
# Coordination Sequence:
#
# PCOD8302092 Si02
#       4
#     8   8   8   8
#     4  10  21  39  61  97 128 176 223 282 346 414
#     4  10  21  39  65  91 131 172 222 282 344 414
#     4  10  23  39  64  98 134 179 219 292 350 414
#     4  11  21  38  65  98 130 171 228 285 343 404
#
# _framework density 19.970897999999998
#
# number of rings (size 3 to 8) (size 9 to 14) (size 15 to 20)
#    1.500    0.250    2.500    3.000    3.500    0.500 
#    0.000    0.000    0.000   12.000    0.000    0.000 
#    0.000    0.000    0.000    0.000    0.000    0.000 
#
# Total GULP energy -198218.478120 kJ/mol
# GULP energy per Si atom -12388.654882 kJ/mol
# Density = 1.992544 g / cm^3
# Si number density = 19.970898 Si / 1000 Ang^3
#
#
#
# Elastic Constant Matrix: (Units=GPa)
#
#
# Indices 1 2 3 4 5 6 
#
# 1 74.9514 36.0105 38.0137 0.0000 0.0000 -6.3628
# 2 36.0105 74.9514 38.0137 0.0000 0.0000 6.3628
# 3 38.0137 38.0137 155.8133 0.0000 0.0000 0.0000
# 4 0.0000 0.0000 0.0000 35.5701 0.0000 0.0000
# 5 0.0000 0.0000 0.0000 0.0000 35.5701 0.0000
# 6 -6.3628 6.3628 0.0000 0.0000 0.0000 24.5903
#
#
#
# Elastic Compliance Matrix: (Units=1/GPa)
#
#
# Indices 1 2 3 4 5 6 
#
# 1 0.019436 -0.008616 -0.002640 0.000000 0.000000 0.007259
# 2 -0.008616 0.019436 -0.002640 0.000000 0.000000 -0.007259
# 3 -0.002640 -0.002640 0.007706 0.000000 0.000000 0.000000
# 4 0.000000 0.000000 0.000000 0.028114 0.000000 0.000000
# 5 0.000000 0.000000 0.000000 0.000000 0.028114 0.000000
# 6 0.007259 -0.007259 0.000000 0.000000 0.000000 0.044423
#
#
# Mechanical properties :
#
#
# Convention : Reuss Voigt Hill
#
# Bulk Modulus (GPa) = 53.22540 58.86579 56.04560
# Shear Modulus (GPa) = 27.58127 32.05797 29.81962
#
# Velocity S-wave (km/s) = 3.72031 4.01088 3.86833
# Velocity P-wave (km/s) = 6.72039 7.14068 6.93372
#
# Compressibility (1/GPa) = 0.01878802
#
# Stress axis : x y z
#
# Youngs Moduli (GPa) = 51.44970 51.44970 129.76756
#
# Poissons Ratio (x) = 0.44327 0.34258
# Poissons Ratio (y) = 0.44327 0.34258
# Poissons Ratio (z) = 0.13583 0.13583
#
# Static dielectric constant tensor:
#      x y z
#    x 3.433030 0.000000 0.000000 
#    y 0.000000 3.433030 0.000000 
#    z 0.000000 0.000000 3.509510 
# 
# 
# High freq. dielectric constant tensor:
#      x y z
#    x 1.756670 0.000000 0.000000 
#    y 0.000000 1.756670 0.000000 
#    z 0.000000 0.000000 1.788300 
# 
# From -- ./inp_files/432.got.cif
#   From: 2010.03.12/outbox.cif.g09.slc.cpg/sg79_cif.got.tgz:432.got - 2010.04.16 16:38:49.
