data_PCOD8302791
_publ_section_title
;
Structure prediction by ZEFSAII (Michael W. Deem and Ramdas Pophale) SiO2 
 PCOD8302791
Probable space group: P 4/M
;
_chemical_formula_sum "Si O2"
_cell_formula_units_Z 52
_cell_length_a 16.865964
_cell_length_b 16.865964
_cell_length_c 9.566839
_cell_angle_alpha 90.000000
_cell_angle_beta 90.000000
_cell_angle_gamma 90.000000
_cell_volume 2721.390117
_symmetry_space_group_name_H-M "P 4/M"
_symmetry_group_IT_number 83
_symmetry_cell_setting 'tetragonal'
loop_
_space_group_symop_operation_xyz
x,y,z
-y,x,z
-x,-y,z
y,-x,z
-x,-y,-z
y,-x,-z
x,y,-z
-y,x,-z
loop_
_atom_site_type_symbol
_atom_site_label
_atom_site_fract_x
_atom_site_fract_y
_atom_site_fract_z
Si Si1 0.372125 0.915645 0.168730
Si Si2 0.498816 0.625308 0.665644
Si Si3 0.377236 0.071783 0.337925
Si Si4 0.089171 0.798248 0.651019
Si Si5 0.129729 0.004421 0.000000
Si Si6 0.485114 0.806012 0.663275
Si Si7 0.801514 0.069377 0.250802
O O1 0.421523 0.843593 0.232460
O O2 0.283926 0.893642 0.221483
O O3 0.401700 0.998384 0.237770
O O4 0.379143 0.919288 0.000000
O O5 0.420533 0.577941 0.719765
O O6 0.499770 0.624660 0.500000
O O7 0.498261 0.716152 0.717119
O O8 0.378630 0.042557 0.500000
O O9 0.290716 0.103934 0.293266
O O10 0.434178 0.145827 0.315539
O O11 0.130530 0.809028 0.500000
O O12 0.132127 0.862842 0.749129
O O13 0.993527 0.808194 0.622457
O O14 0.185399 0.999201 0.133491
O O15 0.080578 0.923301 0.000000
O O16 0.457756 0.809177 0.500000
#
# Coordination Sequence:
#
# PCOD8302791 Si02
#       7
#     8   8   8   8   4   8   8
#     4  11  23  36  55  78 107 147 188 228 269 319
#     4   8  15  30  55  86 114 138 170 215 266 323
#     4   9  20  38  56  78 109 144 181 225 280 329
#     4  10  21  35  53  78 109 142 179 227 275 324
#     4  11  20  34  56  74  97 141 193 226 267 323
#     4  10  20  35  58  84 110 140 177 222 272 327
#     4  11  21  36  53  75 106 143 184 226 273 322
#
# _framework density 19.107883000000001
#
# number of rings (size 3 to 8) (size 9 to 14) (size 15 to 20)
#    0.000    2.077    2.308    1.846    0.000    5.846 
#    0.000    3.846    0.000    0.923    0.000    1.077 
#    0.000    0.000    0.000    0.000    0.000    0.000 
#
# Total GULP energy -644202.908594 kJ/mol
# GULP energy per Si atom -12388.517473 kJ/mol
# Density = 1.906439 g / cm^3
# Si number density = 19.107883 Si / 1000 Ang^3
#
#
#
# Elastic Constant Matrix: (Units=GPa)
#
#
# Indices 1 2 3 4 5 6 
#
# 1 134.2892 74.2645 33.9546 0.0000 0.0000 -1.0611
# 2 74.2645 134.2892 33.9546 0.0000 0.0000 1.0611
# 3 33.9546 33.9546 71.1575 0.0000 0.0000 0.0000
# 4 0.0000 0.0000 0.0000 10.5850 0.0000 0.0000
# 5 0.0000 0.0000 0.0000 0.0000 10.5850 0.0000
# 6 -1.0611 1.0611 0.0000 0.0000 0.0000 25.3375
#
#
#
# Elastic Compliance Matrix: (Units=1/GPa)
#
#
# Indices 1 2 3 4 5 6 
#
# 1 0.011181 -0.005504 -0.002709 0.000000 0.000000 0.000699
# 2 -0.005504 0.011181 -0.002709 0.000000 0.000000 -0.000699
# 3 -0.002709 -0.002709 0.016639 0.000000 0.000000 0.000000
# 4 0.000000 0.000000 0.000000 0.094473 0.000000 0.000000
# 5 0.000000 0.000000 0.000000 0.000000 0.094473 0.000000
# 6 0.000699 -0.000699 0.000000 0.000000 0.000000 0.039526
#
#
# Mechanical properties :
#
#
# Convention : Reuss Voigt Hill
#
# Bulk Modulus (GPa) = 58.28556 69.34258 63.81407
# Shear Modulus (GPa) = 16.94721 22.47233 19.70977
#
# Velocity S-wave (km/s) = 2.98136 3.43312 3.21518
# Velocity P-wave (km/s) = 6.51314 7.21692 6.87404
#
# Compressibility (1/GPa) = 0.01715691
#
# Stress axis : x y z
#
# Youngs Moduli (GPa) = 89.43944 89.43944 60.10120
#
# Poissons Ratio (x) = 0.49225 0.16281
# Poissons Ratio (y) = 0.49225 0.16281
# Poissons Ratio (z) = 0.24228 0.24228
#
# Static dielectric constant tensor:
#      x y z
#    x 3.503620 0.000000 0.000000 
#    y 0.000000 3.503620 0.000000 
#    z 0.000000 0.000000 3.430370 
# 
# 
# High freq. dielectric constant tensor:
#      x y z
#    x 1.741650 0.000000 0.000000 
#    y 0.000000 1.741650 0.000000 
#    z 0.000000 0.000000 1.726680 
# 
# From -- ./inp_files/956.got.cif
#   From: 2010.03.12/outbox.cif.g09.slc.cpg/sg83_1_cif.got.tgz:956.got - 2010.04.08 20:05:18.
