data_PCOD8302628
_publ_section_title
;
Structure prediction by ZEFSAII (Michael W. Deem and Ramdas Pophale) SiO2 
 PCOD8302628
Probable space group: P 4/M
;
_chemical_formula_sum "Si O2"
_cell_formula_units_Z 36
_cell_length_a 15.036314
_cell_length_b 15.036314
_cell_length_c 9.262421
_cell_angle_alpha 90.000000
_cell_angle_beta 90.000000
_cell_angle_gamma 90.000000
_cell_volume 2094.147606
_symmetry_space_group_name_H-M "P 4/M"
_symmetry_group_IT_number 83
_symmetry_cell_setting 'tetragonal'
loop_
_space_group_symop_operation_xyz
x,y,z
-y,x,z
-x,-y,z
y,-x,z
-x,-y,-z
y,-x,-z
x,y,-z
-y,x,-z
loop_
_atom_site_type_symbol
_atom_site_label
_atom_site_fract_x
_atom_site_fract_y
_atom_site_fract_z
Si Si1 0.855350 0.025030 0.500000
Si Si2 0.030694 0.314512 0.341349
Si Si3 0.806600 0.566794 0.669652
Si Si4 0.082286 0.566512 0.837437
Si Si5 0.557373 0.367179 0.833579
O O1 0.793065 0.035319 0.356891
O O2 0.927974 0.101675 0.500000
O O3 0.009289 0.356640 0.500000
O O4 0.125883 0.353101 0.290390
O O5 0.951356 0.341068 0.232887
O O6 0.798398 0.550639 0.500000
O O7 0.837576 0.475039 0.745384
O O8 0.711266 0.594221 0.733019
O O9 0.000000 0.500000 0.834481
O O10 0.115470 0.585036 0.000000
O O11 0.614795 0.454211 0.798453
O O12 0.568664 0.339632 0.000000
#
# Coordination Sequence:
#
# PCOD8302628 Si02
#       5
#     4   8   8   8   8
#     4   9  18  36  59  76 100 139 172 201 263 339
#     4   8  17  32  49  77 103 125 167 213 260 307
#     4  10  18  30  48  74 108 136 169 217 264 298
#     4   9  16  28  49  74 103 138 167 202 259 316
#     4   9  19  36  52  67  98 144 184 214 252 305
#
# _framework density 17.190766
#
# number of rings (size 3 to 8) (size 9 to 14) (size 15 to 20)
#    0.667    2.333    0.000    2.000    0.000    4.444 
#    4.000    1.111    0.000    1.333    0.000    1.556 
#    0.000    0.000    0.000    0.000    0.000    0.000 
#
# Total GULP energy -446192.721764 kJ/mol
# GULP energy per Si atom -12394.242271 kJ/mol
# Density = 1.715164 g / cm^3
# Si number density = 17.190766 Si / 1000 Ang^3
#
#
#
# Elastic Constant Matrix: (Units=GPa)
#
#
# Indices 1 2 3 4 5 6 
#
# 1 90.3845 32.3046 31.4946 0.0000 0.0000 1.4375
# 2 32.3046 90.3845 31.4946 0.0000 0.0000 -1.4375
# 3 31.4946 31.4946 78.2455 0.0000 0.0000 0.0000
# 4 0.0000 0.0000 0.0000 26.4503 0.0000 0.0000
# 5 0.0000 0.0000 0.0000 0.0000 26.4503 0.0000
# 6 1.4375 -1.4375 0.0000 0.0000 0.0000 15.6784
#
#
#
# Elastic Compliance Matrix: (Units=1/GPa)
#
#
# Indices 1 2 3 4 5 6 
#
# 1 0.013785 -0.003511 -0.004135 0.000000 0.000000 -0.001586
# 2 -0.003511 0.013785 -0.004135 0.000000 0.000000 0.001586
# 3 -0.004135 -0.004135 0.016109 0.000000 0.000000 0.000000
# 4 0.000000 0.000000 0.000000 0.037807 0.000000 0.000000
# 5 0.000000 0.000000 0.000000 0.000000 0.037807 0.000000
# 6 -0.001586 0.001586 0.000000 0.000000 0.000000 0.064073
#
#
# Mechanical properties :
#
#
# Convention : Reuss Voigt Hill
#
# Bulk Modulus (GPa) = 49.71259 49.95581 49.83420
# Shear Modulus (GPa) = 23.40448 24.63052 24.01750
#
# Velocity S-wave (km/s) = 3.69379 3.78931 3.74186
# Velocity P-wave (km/s) = 6.86827 6.94751 6.90800
#
# Compressibility (1/GPa) = 0.02011563
#
# Stress axis : x y z
#
# Youngs Moduli (GPa) = 72.54278 72.54278 62.07599
#
# Poissons Ratio (x) = 0.25471 0.25670
# Poissons Ratio (y) = 0.25471 0.25670
# Poissons Ratio (z) = 0.29999 0.29999
#
# Static dielectric constant tensor:
#      x y z
#    x 3.019100 0.000000 0.000000 
#    y 0.000000 3.019100 0.000000 
#    z 0.000000 0.000000 3.158910 
# 
# 
# High freq. dielectric constant tensor:
#      x y z
#    x 1.647220 0.000000 0.000000 
#    y 0.000000 1.647220 0.000000 
#    z 0.000000 0.000000 1.654910 
# 
# From -- ./inp_files/557.got.cif
#   From: 2010.03.12/outbox.cif.g09.slc.cpg/sg83_1_cif.got.tgz:557.got - 2010.04.08 20:05:18.
