data_PCOD8302300
_publ_section_title
;
Structure prediction by ZEFSAII (Michael W. Deem and Ramdas Pophale) SiO2 
 PCOD8302300
Probable space group: P -4
;
_chemical_formula_sum "Si O2"
_cell_formula_units_Z 15
_cell_length_a 9.353532
_cell_length_b 9.353532
_cell_length_c 8.277721
_cell_angle_alpha 90.000000
_cell_angle_beta 90.000000
_cell_angle_gamma 90.000000
_cell_volume 724.205898
_symmetry_space_group_name_H-M "P -4"
_symmetry_group_IT_number 81
_symmetry_cell_setting 'tetragonal'
loop_
_space_group_symop_operation_xyz
x,y,z
y,-x,-z
-x,-y,z
-y,x,-z
loop_
_atom_site_type_symbol
_atom_site_label
_atom_site_fract_x
_atom_site_fract_y
_atom_site_fract_z
Si Si1 0.356060 0.929529 0.188768
Si Si2 0.912400 0.188951 0.563051
Si Si3 0.000000 0.500000 0.119519
Si Si4 0.634457 0.747566 0.673587
Si Si5 0.500000 0.500000 0.500000
O O1 0.331428 0.763183 0.230916
O O2 0.500000 0.000000 0.267773
O O3 0.225312 0.022997 0.261050
O O4 0.368322 0.945303 0.994411
O O5 0.812151 0.312395 0.495474
O O6 0.039818 0.173003 0.428846
O O7 0.867438 0.444592 0.222348
O O8 0.516436 0.633544 0.620575
#
# Coordination Sequence:
#
# PCOD8302300 Si02
#       5
#     4   4   2   4   1
#     4   9  21  43  63  94 135 177 221 289 342 413
#     4   9  19  36  66  94 121 165 223 283 329 394
#     4  10  26  38  66  98 138 184 212 296 346 424
#     4  11  24  42  66 100 130 186 231 281 344 406
#     4  12  28  40  70 104 136 192 238 288 328 424
#
# _framework density 20.712340000000001
#
# number of rings (size 3 to 8) (size 9 to 14) (size 15 to 20)
#    0.800    1.333    0.000    1.600    9.333    4.267 
#    0.000    0.000    0.000    0.000    0.000    0.000 
#    0.000    0.000    0.000    0.000    0.000    0.000 
#
# Total GULP energy -185867.976910 kJ/mol
# GULP energy per Si atom -12391.198461 kJ/mol
# Density = 2.066520 g / cm^3
# Si number density = 20.712340 Si / 1000 Ang^3
#
#
#
# Elastic Constant Matrix: (Units=GPa)
#
#
# Indices 1 2 3 4 5 6 
#
# 1 107.6934 61.8947 48.3315 0.0000 0.0000 0.1979
# 2 61.8947 107.6934 48.3315 0.0000 0.0000 -0.1979
# 3 48.3315 48.3315 78.1417 0.0000 0.0000 0.0000
# 4 0.0000 0.0000 0.0000 31.2380 0.0000 0.0000
# 5 0.0000 0.0000 0.0000 0.0000 31.2380 0.0000
# 6 0.1979 -0.1979 0.0000 0.0000 0.0000 48.1249
#
#
#
# Elastic Compliance Matrix: (Units=1/GPa)
#
#
# Indices 1 2 3 4 5 6 
#
# 1 0.015471 -0.006364 -0.005633 0.000000 0.000000 -0.000090
# 2 -0.006364 0.015471 -0.005633 0.000000 0.000000 0.000090
# 3 -0.005633 -0.005633 0.019765 0.000000 0.000000 0.000000
# 4 0.000000 0.000000 0.000000 0.032012 0.000000 0.000000
# 5 0.000000 0.000000 0.000000 0.000000 0.032012 0.000000
# 6 -0.000090 0.000090 0.000000 0.000000 0.000000 0.020780
#
#
# Mechanical properties :
#
#
# Convention : Reuss Voigt Hill
#
# Bulk Modulus (GPa) = 64.73275 67.84933 66.29104
# Shear Modulus (GPa) = 28.42165 31.11825 29.76995
#
# Velocity S-wave (km/s) = 3.70835 3.88029 3.79529
# Velocity P-wave (km/s) = 7.04677 7.27355 7.16106
#
# Compressibility (1/GPa) = 0.01544813
#
# Stress axis : x y z
#
# Youngs Moduli (GPa) = 64.63538 64.63538 50.59339
#
# Poissons Ratio (x) = 0.41134 0.28499
# Poissons Ratio (y) = 0.41134 0.28499
# Poissons Ratio (z) = 0.36409 0.36409
#
# Static dielectric constant tensor:
#      x y z
#    x 3.789520 0.000000 0.000000 
#    y 0.000000 3.789520 0.000000 
#    z 0.000000 0.000000 3.433800 
# 
# 
# High freq. dielectric constant tensor:
#      x y z
#    x 1.815690 0.000000 0.000000 
#    y 0.000000 1.815690 0.000000 
#    z 0.000000 0.000000 1.785740 
# 
# From -- ./inp_files/646.got.cif
#   From: 2010.03.12/outbox.cif.g09.slc.cpg/sg81_cif.got.tgz:646.got - 2010.04.08 20:01:38.
