data_PCOD8302467
_publ_section_title
;
Structure prediction by ZEFSAII (Michael W. Deem and Ramdas Pophale) SiO2 
 PCOD8302467
Probable space group: I -4 
;
_chemical_formula_sum "Si O2"
_cell_formula_units_Z 40
_cell_length_a 15.517492
_cell_length_b 15.517492
_cell_length_c 7.058836
_cell_angle_alpha 90.000000
_cell_angle_beta 90.000000
_cell_angle_gamma 90.000000
_cell_volume 1699.715177
_symmetry_space_group_name_H-M "I -4 "
_symmetry_group_IT_number 82
_symmetry_cell_setting 'tetragonal'
loop_
_space_group_symop_operation_xyz
x,y,z
y,-x,-z
-x,-y,z
-y,x,-z
1/2+x,1/2+y,1/2+z
1/2+y,1/2-x,1/2-z
1/2-x,1/2-y,1/2+z
1/2-y,1/2+x,1/2-z
loop_
_atom_site_type_symbol
_atom_site_label
_atom_site_fract_x
_atom_site_fract_y
_atom_site_fract_z
Si Si1 0.592228 0.675573 0.724024
Si Si2 0.897044 0.412744 0.717827
Si Si3 0.682864 0.592847 0.410112
Si Si4 0.864501 0.782207 0.614691
Si Si5 0.157724 0.684133 0.362376
O O1 0.669205 0.616122 0.632955
O O2 0.503081 0.649295 0.625884
O O3 0.610719 0.777007 0.701682
O O4 0.582825 0.667111 0.950883
O O5 0.891860 0.514804 0.669032
O O6 0.816564 0.388914 0.850423
O O7 0.902076 0.357542 0.523981
O O8 0.620266 0.662905 0.306157
O O9 0.779476 0.603437 0.319718
O O10 0.763775 0.786988 0.547894
#
# Coordination Sequence:
#
# PCOD8302467 Si02
#       5
#     8   8   8   8   8
#     4  12  22  44  70  97 142 184 244 294 351 430
#     4  11  23  43  74 113 148 182 237 310 368 428
#     4  10  26  42  68 104 134 191 237 299 351 428
#     4  10  23  45  69 102 137 196 238 285 364 442
#     4  10  22  44  65 100 136 188 234 284 361 426
#
# _framework density 23.533353000000002
#
# number of rings (size 3 to 8) (size 9 to 14) (size 15 to 20)
#    1.200    0.200    2.000    3.600    0.000    6.800 
#    0.000    0.000    0.000    2.400    0.000    0.000 
#    0.000    0.000    0.000    0.000    0.000    0.000 
#
# Total GULP energy -247799.117022 kJ/mol
# GULP energy per Si atom -12389.955851 kJ/mol
# Density = 2.347979 g / cm^3
# Si number density = 23.533353 Si / 1000 Ang^3
#
#
#
# Elastic Constant Matrix: (Units=GPa)
#
#
# Indices 1 2 3 4 5 6 
#
# 1 112.4182 21.0852 23.2302 0.0000 0.0000 6.4229
# 2 21.0852 112.4182 23.2302 0.0000 0.0000 -6.4229
# 3 23.2302 23.2302 95.8533 0.0000 0.0000 0.0000
# 4 0.0000 0.0000 0.0000 26.9204 0.0000 0.0000
# 5 0.0000 0.0000 0.0000 0.0000 26.9204 0.0000
# 6 6.4229 -6.4229 0.0000 0.0000 0.0000 26.8521
#
#
#
# Elastic Compliance Matrix: (Units=1/GPa)
#
#
# Indices 1 2 3 4 5 6 
#
# 1 0.009755 -0.001575 -0.001983 0.000000 0.000000 -0.002710
# 2 -0.001575 0.009755 -0.001983 0.000000 0.000000 0.002710
# 3 -0.001983 -0.001983 0.011394 0.000000 0.000000 0.000000
# 4 0.000000 0.000000 0.000000 0.037146 0.000000 0.000000
# 5 0.000000 0.000000 0.000000 0.000000 0.037146 0.000000
# 6 -0.002710 0.002710 0.000000 0.000000 0.000000 0.038538
#
#
# Mechanical properties :
#
#
# Convention : Reuss Voigt Hill
#
# Bulk Modulus (GPa) = 50.44342 50.64234 50.54288
# Shear Modulus (GPa) = 30.97462 33.01487 31.99474
#
# Velocity S-wave (km/s) = 3.63188 3.74959 3.69121
# Velocity P-wave (km/s) = 6.25051 6.34917 6.30003
#
# Compressibility (1/GPa) = 0.01982419
#
# Stress axis : x y z
#
# Youngs Moduli (GPa) = 102.50892 102.50892 87.76898
#
# Poissons Ratio (x) = 0.16144 0.17400
# Poissons Ratio (y) = 0.16144 0.17400
# Poissons Ratio (z) = 0.20323 0.20323
#
# Static dielectric constant tensor:
#      x y z
#    x 3.963110 0.000000 0.000000 
#    y 0.000000 3.963110 0.000000 
#    z 0.000000 0.000000 4.157800 
# 
# 
# High freq. dielectric constant tensor:
#      x y z
#    x 1.915870 0.000000 0.000000 
#    y 0.000000 1.915870 0.000000 
#    z 0.000000 0.000000 1.930750 
# 
# From -- ./inp_files/954.got.cif
#   From: 2010.03.12/outbox.cif.g09.slc.cpg/sg82_1_cif.got.tgz:954.got - 2010.04.08 20:02:50.
