data_PCOD8302362
_publ_section_title
;
Structure prediction by ZEFSAII (Michael W. Deem and Ramdas Pophale) SiO2 
 PCOD8302362
Probable space group: I -4 
;
_chemical_formula_sum "Si O2"
_cell_formula_units_Z 56
_cell_length_a 11.345351
_cell_length_b 11.345351
_cell_length_c 24.874234
_cell_angle_alpha 90.000000
_cell_angle_beta 90.000000
_cell_angle_gamma 90.000000
_cell_volume 3201.736512
_symmetry_space_group_name_H-M "I -4 "
_symmetry_group_IT_number 82
_symmetry_cell_setting 'tetragonal'
loop_
_space_group_symop_operation_xyz
x,y,z
y,-x,-z
-x,-y,z
-y,x,-z
1/2+x,1/2+y,1/2+z
1/2+y,1/2-x,1/2-z
1/2-x,1/2-y,1/2+z
1/2-y,1/2+x,1/2-z
loop_
_atom_site_type_symbol
_atom_site_label
_atom_site_fract_x
_atom_site_fract_y
_atom_site_fract_z
Si Si1 0.381983 0.284138 0.710376
Si Si2 0.374541 0.248852 0.391576
Si Si3 0.502679 0.132632 0.147331
Si Si4 0.642085 0.253234 0.390901
Si Si5 0.863373 0.137417 0.000472
Si Si6 0.504439 0.632503 0.218005
Si Si7 0.645305 0.269775 0.712933
O O1 0.306438 0.275885 0.655916
O O2 0.373637 0.417085 0.731637
O O3 0.512943 0.247519 0.694094
O O4 0.345105 0.197379 0.758413
O O5 0.507386 0.298940 0.384580
O O6 0.316453 0.298904 0.445838
O O7 0.297899 0.281188 0.339962
O O8 0.374697 0.107684 0.395721
O O9 0.386603 0.152272 0.112616
O O10 0.524976 0.248764 0.184201
O O11 0.500000 0.000000 0.176791
O O12 0.688982 0.292995 0.449255
O O13 0.000547 0.163234 0.008666
O O14 0.500000 0.500000 0.189157
O O15 0.632309 0.655859 0.241340
#
# Coordination Sequence:
#
# PCOD8302362 Si02
#       7
#     8   8   8   8   8   8   8
#     4  11  21  33  52  77 108 140 173 215 261 318
#     4  10  19  33  53  81 107 134 175 221 267 310
#     4  10  20  34  56  84 110 136 174 227 270 316
#     4  10  19  33  53  81 107 134 175 221 267 310
#     4   9  18  32  54  78 103 138 176 216 261 314
#     4  10  20  34  52  80 112 146 170 209 266 330
#     4  11  21  33  52  77 108 140 173 215 261 318
#
# _framework density 17.490508999999999
#
# number of rings (size 3 to 8) (size 9 to 14) (size 15 to 20)
#    0.000    1.857    4.286    0.857    0.000    1.429 
#    2.571    0.000    6.286    0.000    0.000    0.000 
#    0.000    0.000    0.000    0.000    0.000    0.000 
#
# Total GULP energy -346988.011920 kJ/mol
# GULP energy per Si atom -12392.428997 kJ/mol
# Density = 1.745070 g / cm^3
# Si number density = 17.490509 Si / 1000 Ang^3
#
#
#
# Elastic Constant Matrix: (Units=GPa)
#
#
# Indices 1 2 3 4 5 6 
#
# 1 88.1987 12.1603 36.8384 0.0000 0.0000 0.0444
# 2 12.1603 88.1987 36.8384 0.0000 0.0000 -0.0444
# 3 36.8384 36.8384 107.9662 0.0000 0.0000 0.0000
# 4 0.0000 0.0000 0.0000 21.3226 0.0000 0.0000
# 5 0.0000 0.0000 0.0000 0.0000 21.3226 0.0000
# 6 0.0444 -0.0444 0.0000 0.0000 0.0000 18.2615
#
#
#
# Elastic Compliance Matrix: (Units=1/GPa)
#
#
# Indices 1 2 3 4 5 6 
#
# 1 0.013223 0.000072 -0.004536 0.000000 0.000000 -0.000032
# 2 0.000072 0.013223 -0.004536 0.000000 0.000000 0.000032
# 3 -0.004536 -0.004536 0.012358 0.000000 0.000000 0.000000
# 4 0.000000 0.000000 0.000000 0.046899 0.000000 0.000000
# 5 0.000000 0.000000 0.000000 0.000000 0.046899 0.000000
# 6 -0.000032 0.000032 0.000000 0.000000 0.000000 0.054760
#
#
# Mechanical properties :
#
#
# Convention : Reuss Voigt Hill
#
# Bulk Modulus (GPa) = 48.07242 50.67089 49.37165
# Shear Modulus (GPa) = 23.55207 25.41645 24.48426
#
# Velocity S-wave (km/s) = 3.67354 3.81616 3.74553
# Velocity P-wave (km/s) = 6.74816 6.96067 6.85524
#
# Compressibility (1/GPa) = 0.02080195
#
# Stress axis : x y z
#
# Youngs Moduli (GPa) = 75.62699 75.62699 80.92187
#
# Poissons Ratio (x) = -0.00541 0.36707
# Poissons Ratio (y) = -0.00541 0.36707
# Poissons Ratio (z) = 0.34305 0.34305
#
# Static dielectric constant tensor:
#      x y z
#    x 3.312730 0.000000 0.000000 
#    y 0.000000 3.312730 0.000000 
#    z 0.000000 0.000000 3.095930 
# 
# 
# High freq. dielectric constant tensor:
#      x y z
#    x 1.670790 0.000000 0.000000 
#    y 0.000000 1.670790 0.000000 
#    z 0.000000 0.000000 1.653890 
# 
# From -- ./inp_files/3512.got.cif
#   From: 2010.03.12/outbox.cif.g09.slc.cpg/sg82_2_cif.got.tgz:3512.got - 2010.04.08 20:02:50.
