data_PCOD8302280
_publ_section_title
;
Structure prediction by ZEFSAII (Michael W. Deem and Ramdas Pophale) SiO2 
 PCOD8302280
Probable space group: P -4
;
_chemical_formula_sum "Si O2"
_cell_formula_units_Z 17
_cell_length_a 11.194627
_cell_length_b 11.194627
_cell_length_c 6.996701
_cell_angle_alpha 90.000000
_cell_angle_beta 90.000000
_cell_angle_gamma 90.000000
_cell_volume 876.824286
_symmetry_space_group_name_H-M "P -4"
_symmetry_group_IT_number 81
_symmetry_cell_setting 'tetragonal'
loop_
_space_group_symop_operation_xyz
x,y,z
y,-x,-z
-x,-y,z
-y,x,-z
loop_
_atom_site_type_symbol
_atom_site_label
_atom_site_fract_x
_atom_site_fract_y
_atom_site_fract_z
Si Si1 0.113451 0.700808 0.656061
Si Si2 0.070251 0.620007 0.072024
Si Si3 0.709211 0.099239 0.615145
Si Si4 0.500000 0.500000 0.500000
Si Si5 0.470523 0.241950 0.621504
O O1 0.166024 0.831359 0.609609
O O2 0.195013 0.596259 0.567937
O O3 0.979891 0.694703 0.574478
O O4 0.109293 0.687962 0.883133
O O5 0.190932 0.593843 0.190294
O O6 0.000000 0.500000 0.018445
O O7 0.984803 0.704041 0.198668
O O8 0.605812 0.197557 0.614798
O O9 0.467961 0.385886 0.631925
#
# Coordination Sequence:
#
# PCOD8302280 Si02
#       5
#     4   4   4   1   4
#     4  11  21  40  63  84 119 163 195 251 299 348
#     4   9  20  39  60  85 119 160 201 237 298 371
#     4  10  22  38  60  89 116 155 208 240 297 362
#     4  12  20  40  66  96 128 146 188 264 302 352
#     4  10  21  40  60  90 122 155 193 241 307 369
#
# _framework density 19.388151000000001
#
# number of rings (size 3 to 8) (size 9 to 14) (size 15 to 20)
#    0.000    1.882    2.353    3.529    0.000    4.235 
#    8.471    1.176    0.000    0.000    0.000    0.000 
#    0.000    0.000    0.000    0.000    0.000    0.000 
#
# Total GULP energy -210853.241400 kJ/mol
# GULP energy per Si atom -12403.131847 kJ/mol
# Density = 1.934402 g / cm^3
# Si number density = 19.388151 Si / 1000 Ang^3
#
#
#
# Elastic Constant Matrix: (Units=GPa)
#
#
# Indices 1 2 3 4 5 6 
#
# 1 94.4306 14.8626 35.3855 0.0000 0.0000 -1.8268
# 2 14.8626 94.4306 35.3855 0.0000 0.0000 1.8268
# 3 35.3855 35.3855 119.5191 0.0000 0.0000 0.0000
# 4 0.0000 0.0000 0.0000 16.2488 0.0000 0.0000
# 5 0.0000 0.0000 0.0000 0.0000 16.2488 0.0000
# 6 -1.8268 1.8268 0.0000 0.0000 0.0000 24.8668
#
#
#
# Elastic Compliance Matrix: (Units=1/GPa)
#
#
# Indices 1 2 3 4 5 6 
#
# 1 0.011965 -0.000645 -0.003351 0.000000 0.000000 0.000926
# 2 -0.000645 0.011965 -0.003351 0.000000 0.000000 -0.000926
# 3 -0.003351 -0.003351 0.010351 0.000000 0.000000 0.000000
# 4 0.000000 0.000000 0.000000 0.061543 0.000000 0.000000
# 5 0.000000 0.000000 0.000000 0.000000 0.061543 0.000000
# 6 0.000926 -0.000926 0.000000 0.000000 0.000000 0.040350
#
#
# Mechanical properties :
#
#
# Convention : Reuss Voigt Hill
#
# Bulk Modulus (GPa) = 51.05848 53.29415 52.17631
# Shear Modulus (GPa) = 22.83705 26.32267 24.57986
#
# Velocity S-wave (km/s) = 3.43576 3.68865 3.56445
# Velocity P-wave (km/s) = 6.49086 6.75938 6.62648
#
# Compressibility (1/GPa) = 0.01958539
#
# Stress axis : x y z
#
# Youngs Moduli (GPa) = 83.57614 83.57614 96.60579
#
# Poissons Ratio (x) = 0.05393 0.32377
# Poissons Ratio (y) = 0.05393 0.32377
# Poissons Ratio (z) = 0.28010 0.28010
#
# Static dielectric constant tensor:
#      x y z
#    x 3.584200 0.000000 0.000000 
#    y 0.000000 3.584200 0.000000 
#    z 0.000000 0.000000 3.357870 
# 
# 
# High freq. dielectric constant tensor:
#      x y z
#    x 1.756320 0.000000 0.000000 
#    y 0.000000 1.756320 0.000000 
#    z 0.000000 0.000000 1.743820 
# 
# From -- ./inp_files/105.got.cif
#   From: 2010.03.12/outbox.cif.g09.slc.cpg/sg81_cif.got.tgz:105.got - 2010.04.08 20:01:38.
