data_PCOD8302783
_publ_section_title
;
Structure prediction by ZEFSAII (Michael W. Deem and Ramdas Pophale) SiO2 
 PCOD8302783
Probable space group: P 4/M
;
_chemical_formula_sum "Si O2"
_cell_formula_units_Z 32
_cell_length_a 15.065699
_cell_length_b 15.065699
_cell_length_c 7.656145
_cell_angle_alpha 90.000000
_cell_angle_beta 90.000000
_cell_angle_gamma 90.000000
_cell_volume 1737.755704
_symmetry_space_group_name_H-M "P 4/M"
_symmetry_group_IT_number 83
_symmetry_cell_setting 'tetragonal'
loop_
_space_group_symop_operation_xyz
x,y,z
-y,x,z
-x,-y,z
y,-x,z
-x,-y,-z
y,-x,-z
x,y,-z
-y,x,-z
loop_
_atom_site_type_symbol
_atom_site_label
_atom_site_fract_x
_atom_site_fract_y
_atom_site_fract_z
Si Si1 0.674855 0.701520 0.000000
Si Si2 0.175504 0.710652 0.692215
Si Si3 0.477518 0.100297 0.701411
Si Si4 0.070044 0.875653 0.204009
Si Si5 0.521060 0.228937 0.000000
O O1 0.719130 0.745264 0.829661
O O2 0.698184 0.598211 0.000000
O O3 0.569243 0.714320 0.000000
O O4 0.218105 0.699565 0.500000
O O5 0.112994 0.626990 0.736068
O O6 0.113877 0.796786 0.689288
O O7 0.504108 0.119652 0.500000
O O8 0.530089 0.167807 0.827324
O O9 0.500000 0.000000 0.754504
O O10 0.966851 0.881218 0.255387
O O11 0.080530 0.856523 0.000000
#
# Coordination Sequence:
#
# PCOD8302783 Si02
#       5
#     4   8   8   8   4
#     4  10  22  39  56  81 106 136 176 222 273 327
#     4  10  20  35  55  79 108 140 177 222 267 315
#     4   9  19  36  56  81 111 141 177 221 267 318
#     4   9  18  33  51  73 107 147 182 217 253 300
#     4  10  21  37  58  80 108 142 176 219 273 321
#
# _framework density 18.414558
#
# number of rings (size 3 to 8) (size 9 to 14) (size 15 to 20)
#    0.000    2.500    1.250    1.125    0.000    4.250 
#    0.000    3.750    0.000    0.000    0.000    7.000 
#    0.000    0.000    0.000    0.000    0.000    0.000 
#
# Total GULP energy -396826.140394 kJ/mol
# GULP energy per Si atom -12400.816887 kJ/mol
# Density = 1.837265 g / cm^3
# Si number density = 18.414558 Si / 1000 Ang^3
#
#
#
# Elastic Constant Matrix: (Units=GPa)
#
#
# Indices 1 2 3 4 5 6 
#
# 1 99.4967 55.2965 46.4123 0.0000 0.0000 13.9511
# 2 55.2965 99.4967 46.4123 0.0000 0.0000 -13.9511
# 3 46.4123 46.4123 104.7899 0.0000 0.0000 0.0000
# 4 0.0000 0.0000 0.0000 16.0154 0.0000 0.0000
# 5 0.0000 0.0000 0.0000 0.0000 16.0154 0.0000
# 6 13.9511 -13.9511 0.0000 0.0000 0.0000 30.7089
#
#
#
# Elastic Compliance Matrix: (Units=1/GPa)
#
#
# Indices 1 2 3 4 5 6 
#
# 1 0.020259 -0.011463 -0.003896 0.000000 0.000000 -0.014411
# 2 -0.011463 0.020259 -0.003896 0.000000 0.000000 0.014411
# 3 -0.003896 -0.003896 0.012994 0.000000 0.000000 0.000000
# 4 0.000000 0.000000 0.000000 0.062440 0.000000 0.000000
# 5 0.000000 0.000000 0.000000 0.000000 0.062440 0.000000
# 6 -0.014411 0.014411 0.000000 0.000000 0.000000 0.045658
#
#
# Mechanical properties :
#
#
# Convention : Reuss Voigt Hill
#
# Bulk Modulus (GPa) = 66.65346 66.66950 66.66148
# Shear Modulus (GPa) = 18.68736 22.92543 20.80639
#
# Velocity S-wave (km/s) = 3.18907 3.53223 3.36503
# Velocity P-wave (km/s) = 7.05938 7.27454 7.16777
#
# Compressibility (1/GPa) = 0.01500297
#
# Stress axis : x y z
#
# Youngs Moduli (GPa) = 49.36033 49.36033 76.95788
#
# Poissons Ratio (x) = 0.56580 0.29983
# Poissons Ratio (y) = 0.56580 0.29983
# Poissons Ratio (z) = 0.19231 0.19231
#
# Static dielectric constant tensor:
#      x y z
#    x 3.237500 0.000000 0.000000 
#    y 0.000000 3.237500 0.000000 
#    z 0.000000 0.000000 3.547360 
# 
# 
# High freq. dielectric constant tensor:
#      x y z
#    x 1.701500 0.000000 0.000000 
#    y 0.000000 1.701500 0.000000 
#    z 0.000000 0.000000 1.728460 
# 
# From -- ./inp_files/460.got.cif
#   From: 2010.03.12/outbox.cif.g09.slc.cpg/sg83_1_cif.got.tgz:460.got - 2010.04.08 20:05:18.
