data_PCOD8302368
_publ_section_title
;
Structure prediction by ZEFSAII (Michael W. Deem and Ramdas Pophale) SiO2 
 PCOD8302368
Probable space group: I -4 
;
_chemical_formula_sum "Si O2"
_cell_formula_units_Z 40
_cell_length_a 16.073480
_cell_length_b 16.073480
_cell_length_c 6.762608
_cell_angle_alpha 90.000000
_cell_angle_beta 90.000000
_cell_angle_gamma 90.000000
_cell_volume 1747.165487
_symmetry_space_group_name_H-M "I -4 "
_symmetry_group_IT_number 82
_symmetry_cell_setting 'tetragonal'
loop_
_space_group_symop_operation_xyz
x,y,z
y,-x,-z
-x,-y,z
-y,x,-z
1/2+x,1/2+y,1/2+z
1/2+y,1/2-x,1/2-z
1/2-x,1/2-y,1/2+z
1/2-y,1/2+x,1/2-z
loop_
_atom_site_type_symbol
_atom_site_label
_atom_site_fract_x
_atom_site_fract_y
_atom_site_fract_z
Si Si1 0.818871 0.665121 0.565751
Si Si2 0.679393 0.598057 0.314303
Si Si3 0.658522 0.286739 0.086733
Si Si4 0.374861 0.948457 0.723375
Si Si5 0.698687 0.421180 0.406101
O O1 0.769486 0.607627 0.412591
O O2 0.800240 0.640714 0.795153
O O3 0.781486 0.757592 0.541663
O O4 0.914714 0.653292 0.496244
O O5 0.648728 0.507429 0.383350
O O6 0.615799 0.672580 0.378058
O O7 0.693079 0.589501 0.077677
O O8 0.659656 0.358744 0.247830
O O9 0.454962 0.897527 0.802861
O O10 0.298481 0.931216 0.876416
#
# Coordination Sequence:
#
# PCOD8302368 Si02
#       5
#     8   8   8   8   8
#     4  10  19  36  63  98 127 182 225 274 341 410
#     4  11  22  42  65  96 134 177 232 285 341 417
#     4  10  21  37  66  95 131 176 231 281 336 411
#     4  10  20  39  69 103 144 181 223 291 358 419
#     4  10  24  40  66 100 132 183 228 284 349 412
#
# _framework density 22.894227000000001
#
# number of rings (size 3 to 8) (size 9 to 14) (size 15 to 20)
#    0.000    1.800    4.000    0.000    0.000    3.600 
#    0.000    0.000    0.000    0.000    0.000    0.000 
#    0.000    0.000    0.000    0.000    0.000    0.000 
#
# Total GULP energy -247801.950612 kJ/mol
# GULP energy per Si atom -12390.097531 kJ/mol
# Density = 2.284212 g / cm^3
# Si number density = 22.894227 Si / 1000 Ang^3
#
#
#
# Elastic Constant Matrix: (Units=GPa)
#
#
# Indices 1 2 3 4 5 6 
#
# 1 100.9765 37.0163 40.2758 0.0000 0.0000 1.7655
# 2 37.0163 100.9765 40.2758 0.0000 0.0000 -1.7655
# 3 40.2758 40.2758 94.7748 0.0000 0.0000 0.0000
# 4 0.0000 0.0000 0.0000 24.9182 0.0000 0.0000
# 5 0.0000 0.0000 0.0000 0.0000 24.9182 0.0000
# 6 1.7655 -1.7655 0.0000 0.0000 0.0000 31.9303
#
#
#
# Elastic Compliance Matrix: (Units=1/GPa)
#
#
# Indices 1 2 3 4 5 6 
#
# 1 0.012660 -0.003023 -0.004096 0.000000 0.000000 -0.000867
# 2 -0.003023 0.012660 -0.004096 0.000000 0.000000 0.000867
# 3 -0.004096 -0.004096 0.014032 0.000000 0.000000 0.000000
# 4 0.000000 0.000000 0.000000 0.040131 0.000000 0.000000
# 5 0.000000 0.000000 0.000000 0.000000 0.040131 0.000000
# 6 -0.000867 0.000867 0.000000 0.000000 0.000000 0.031414
#
#
# Mechanical properties :
#
#
# Convention : Reuss Voigt Hill
#
# Bulk Modulus (GPa) = 59.08440 59.09596 59.09018
# Shear Modulus (GPa) = 27.91765 28.29733 28.10749
#
# Velocity S-wave (km/s) = 3.49581 3.51950 3.50767
# Velocity P-wave (km/s) = 6.49290 6.51033 6.50162
#
# Compressibility (1/GPa) = 0.01692494
#
# Stress axis : x y z
#
# Youngs Moduli (GPa) = 78.98861 78.98861 71.26424
#
# Poissons Ratio (x) = 0.23875 0.29187
# Poissons Ratio (y) = 0.23875 0.29187
# Poissons Ratio (z) = 0.32350 0.32350
#
# Static dielectric constant tensor:
#      x y z
#    x 4.181850 0.000000 0.000000 
#    y 0.000000 4.181850 0.000000 
#    z 0.000000 0.000000 4.030730 
# 
# 
# High freq. dielectric constant tensor:
#      x y z
#    x 1.894580 0.000000 0.000000 
#    y 0.000000 1.894580 0.000000 
#    z 0.000000 0.000000 1.891090 
# 
# From -- ./inp_files/219.got.cif
#   From: 2010.03.12/outbox.cif.g09.slc.cpg/sg82_1_cif.got.tgz:219.got - 2010.04.08 20:02:50.
