data_PCOD8302705
_publ_section_title
;
Structure prediction by ZEFSAII (Michael W. Deem and Ramdas Pophale) SiO2 
 PCOD8302705
Probable space group: P 4/M
;
_chemical_formula_sum "Si O2"
_cell_formula_units_Z 48
_cell_length_a 17.746367
_cell_length_b 17.746367
_cell_length_c 8.870356
_cell_angle_alpha 90.000000
_cell_angle_beta 90.000000
_cell_angle_gamma 90.000000
_cell_volume 2793.572631
_symmetry_space_group_name_H-M "P 4/M"
_symmetry_group_IT_number 83
_symmetry_cell_setting 'tetragonal'
loop_
_space_group_symop_operation_xyz
x,y,z
-y,x,z
-x,-y,z
y,-x,z
-x,-y,-z
y,-x,-z
x,y,-z
-y,x,-z
loop_
_atom_site_type_symbol
_atom_site_label
_atom_site_fract_x
_atom_site_fract_y
_atom_site_fract_z
Si Si1 0.305948 0.185608 0.665483
Si Si2 0.919844 0.573762 0.675873
Si Si3 0.074606 0.178825 0.173564
Si Si4 0.070443 0.828467 0.665901
Si Si5 0.585783 0.925360 0.178196
Si Si6 0.710495 0.181667 0.673716
O O1 0.344970 0.187784 0.500000
O O2 0.230527 0.137381 0.659210
O O3 0.363504 0.148141 0.782710
O O4 0.271135 0.269576 0.706630
O O5 0.932832 0.555724 0.500000
O O6 0.905516 0.498321 0.769766
O O7 0.844119 0.623877 0.697885
O O8 0.997351 0.612906 0.738537
O O9 0.094389 0.102715 0.264569
O O10 0.132184 0.245218 0.206179
O O11 0.992765 0.206161 0.225934
O O12 0.075446 0.158710 0.000000
O O13 0.037114 0.843745 0.500000
O O14 0.588482 0.938532 0.000000
O O15 0.733539 0.162966 0.500000
#
# Coordination Sequence:
#
# PCOD8302705 Si02
#       6
#     8   8   8   8   8   8
#     4   9  18  33  50  67  89 119 155 191 226 274
#     4  10  19  33  52  71  94 128 165 199 236 279
#     4  11  21  31  45  65  86 108 142 189 237 277
#     4  10  20  34  48  60  80 113 151 187 227 275
#     4  11  21  31  46  72 102 129 158 195 240 286
#     4   9  19  34  51  69  90 121 158 191 229 279
#
# _framework density 17.182299
#
# number of rings (size 3 to 8) (size 9 to 14) (size 15 to 20)
#    0.000    2.000    0.000    7.000    0.000    9.000 
#    0.000    1.667    0.000    0.000    0.000    0.000 
#    0.000    0.667    0.000    7.667    0.000    3.000 
#
# Total GULP energy -594707.499764 kJ/mol
# GULP energy per Si atom -12389.739578 kJ/mol
# Density = 1.714319 g / cm^3
# Si number density = 17.182299 Si / 1000 Ang^3
#
#
#
# Elastic Constant Matrix: (Units=GPa)
#
#
# Indices 1 2 3 4 5 6 
#
# 1 62.9050 27.4253 25.0466 0.0000 0.0000 0.7579
# 2 27.4253 62.9050 25.0466 0.0000 0.0000 -0.7579
# 3 25.0466 25.0466 97.7649 0.0000 0.0000 0.0000
# 4 0.0000 0.0000 0.0000 14.2021 0.0000 0.0000
# 5 0.0000 0.0000 0.0000 0.0000 14.2021 0.0000
# 6 0.7579 -0.7579 0.0000 0.0000 0.0000 31.3583
#
#
#
# Elastic Compliance Matrix: (Units=1/GPa)
#
#
# Indices 1 2 3 4 5 6 
#
# 1 0.020559 -0.007655 -0.003306 0.000000 0.000000 -0.000682
# 2 -0.007655 0.020559 -0.003306 0.000000 0.000000 0.000682
# 3 -0.003306 -0.003306 0.011922 0.000000 0.000000 0.000000
# 4 0.000000 0.000000 0.000000 0.070412 0.000000 0.000000
# 5 0.000000 0.000000 0.000000 0.000000 0.070412 0.000000
# 6 -0.000682 0.000682 0.000000 0.000000 0.000000 0.031922
#
#
# Mechanical properties :
#
#
# Convention : Reuss Voigt Hill
#
# Bulk Modulus (GPa) = 40.80531 42.06800 41.43666
# Shear Modulus (GPa) = 19.04834 21.68959 20.36897
#
# Velocity S-wave (km/s) = 3.33318 3.55677 3.44679
# Velocity P-wave (km/s) = 6.21397 6.43459 6.32525
#
# Compressibility (1/GPa) = 0.02450662
#
# Stress axis : x y z
#
# Youngs Moduli (GPa) = 48.64051 48.64051 83.87517
#
# Poissons Ratio (x) = 0.37236 0.27728
# Poissons Ratio (y) = 0.37236 0.27728
# Poissons Ratio (z) = 0.16080 0.16080
#
# Static dielectric constant tensor:
#      x y z
#    x 3.152150 0.000000 0.000000 
#    y 0.000000 3.152150 0.000000 
#    z 0.000000 0.000000 3.265520 
# 
# 
# High freq. dielectric constant tensor:
#      x y z
#    x 1.635400 0.000000 0.000000 
#    y 0.000000 1.635400 0.000000 
#    z 0.000000 0.000000 1.673490 
# 
# From -- ./inp_files/935.got.cif
#   From: 2010.03.12/outbox.cif.g09.slc.cpg/sg83_1_cif.got.tgz:935.got - 2010.04.08 20:05:18.
