data_PCOD8302471
_publ_section_title
;
Structure prediction by ZEFSAII (Michael W. Deem and Ramdas Pophale) SiO2 
 PCOD8302471
Probable space group: I -4 
;
_chemical_formula_sum "Si O2"
_cell_formula_units_Z 48
_cell_length_a 8.293202
_cell_length_b 8.293202
_cell_length_c 30.368918
_cell_angle_alpha 90.000000
_cell_angle_beta 90.000000
_cell_angle_gamma 90.000000
_cell_volume 2088.689129
_symmetry_space_group_name_H-M "I -4 "
_symmetry_group_IT_number 82
_symmetry_cell_setting 'tetragonal'
loop_
_space_group_symop_operation_xyz
x,y,z
y,-x,-z
-x,-y,z
-y,x,-z
1/2+x,1/2+y,1/2+z
1/2+y,1/2-x,1/2-z
1/2-x,1/2-y,1/2+z
1/2-y,1/2+x,1/2-z
loop_
_atom_site_type_symbol
_atom_site_label
_atom_site_fract_x
_atom_site_fract_y
_atom_site_fract_z
Si Si1 0.753444 0.032955 0.989630
Si Si2 0.500000 0.500000 0.176298
Si Si3 0.254609 0.053038 0.747044
Si Si4 0.997696 0.318514 0.109752
Si Si5 0.807431 0.348219 0.868785
Si Si6 0.413520 0.335097 0.330906
Si Si7 0.500000 0.000000 0.055972
O O1 0.617329 0.096391 0.022765
O O2 0.691991 0.971990 0.942523
O O3 0.883358 0.172183 0.983145
O O4 0.657045 0.478501 0.206514
O O5 0.469015 0.331803 0.150002
O O6 0.397450 0.167862 0.728108
O O7 0.144360 0.157412 0.780133
O O8 0.170766 0.255003 0.123704
O O9 0.000000 0.500000 0.125951
O O10 0.843480 0.234623 0.134104
O O11 0.970321 0.322059 0.838079
O O12 0.860569 0.421782 0.914860
O O13 0.500000 0.500000 0.343006
#
# Coordination Sequence:
#
# PCOD8302471 Si02
#       7
#     8   4   8   8   8   8   4
#     4  11  23  42  68 101 138 184 240 288 352 420
#     4  12  28  48  70 105 148 192 235 300 374 430
#     4  11  25  45  72 104 136 183 241 296 356 425
#     4  11  23  41  74 105 134 183 243 296 350 426
#     4  11  27  45  68 105 142 194 235 290 370 424
#     4  10  22  44  70 101 139 182 241 294 352 430
#     4  12  24  46  68 103 150 186 229 302 356 430
#
# _framework density 22.980923000000001
#
# number of rings (size 3 to 8) (size 9 to 14) (size 15 to 20)
#    0.000    1.000    3.333    3.000   11.667    1.333 
#    0.000    0.000    0.000    0.000    0.000    0.000 
#    0.000    0.000    0.000    0.000    0.000    0.000 
#
# Total GULP energy -297397.626300 kJ/mol
# GULP energy per Si atom -12391.567762 kJ/mol
# Density = 2.292862 g / cm^3
# Si number density = 22.980923 Si / 1000 Ang^3
#
#
#
# Elastic Constant Matrix: (Units=GPa)
#
#
# Indices 1 2 3 4 5 6 
#
# 1 101.0377 27.6933 36.7588 0.0000 0.0000 -4.9014
# 2 27.6933 101.0377 36.7588 0.0000 0.0000 4.9014
# 3 36.7588 36.7588 122.6963 0.0000 0.0000 0.0000
# 4 0.0000 0.0000 0.0000 30.5281 0.0000 0.0000
# 5 0.0000 0.0000 0.0000 0.0000 30.5281 0.0000
# 6 -4.9014 4.9014 0.0000 0.0000 0.0000 36.1475
#
#
#
# Elastic Compliance Matrix: (Units=1/GPa)
#
#
# Indices 1 2 3 4 5 6 
#
# 1 0.011629 -0.002257 -0.002808 0.000000 0.000000 0.001883
# 2 -0.002257 0.011629 -0.002808 0.000000 0.000000 -0.001883
# 3 -0.002808 -0.002808 0.009833 0.000000 0.000000 0.000000
# 4 0.000000 0.000000 0.000000 0.032757 0.000000 0.000000
# 5 0.000000 0.000000 0.000000 0.000000 0.032757 0.000000
# 6 0.001883 -0.001883 0.000000 0.000000 0.000000 0.028175
#
#
# Mechanical properties :
#
#
# Convention : Reuss Voigt Hill
#
# Bulk Modulus (GPa) = 57.65331 58.57705 58.11518
# Shear Modulus (GPa) = 33.71428 34.34480 34.02954
#
# Velocity S-wave (km/s) = 3.83437 3.87006 3.85226
# Velocity P-wave (km/s) = 6.68918 6.74645 6.71788
#
# Compressibility (1/GPa) = 0.01734506
#
# Stress axis : x y z
#
# Youngs Moduli (GPa) = 85.99367 85.99367 101.70351
#
# Poissons Ratio (x) = 0.19410 0.28555
# Poissons Ratio (y) = 0.19410 0.28555
# Poissons Ratio (z) = 0.24144 0.24144
#
# Static dielectric constant tensor:
#      x y z
#    x 4.419070 0.000000 0.000000 
#    y 0.000000 4.419070 0.000000 
#    z 0.000000 0.000000 3.990330 
# 
# 
# High freq. dielectric constant tensor:
#      x y z
#    x 1.906930 0.000000 0.000000 
#    y 0.000000 1.906930 0.000000 
#    z 0.000000 0.000000 1.908810 
# 
# From -- ./inp_files/4074.got.cif
#   From: 2010.03.12/outbox.cif.g09.slc.cpg/sg82_3_cif.got.tgz:4074.got - 2010.04.08 20:02:50.
