data_PCOD8302943
_publ_section_title
;
Structure prediction by ZEFSAII (Michael W. Deem and Ramdas Pophale) SiO2 
 PCOD8302943
Probable space group: P 4/M
;
_chemical_formula_sum "Si O2"
_cell_formula_units_Z 48
_cell_length_a 8.450907
_cell_length_b 8.450907
_cell_length_c 30.971353
_cell_angle_alpha 90.000000
_cell_angle_beta 90.000000
_cell_angle_gamma 90.000000
_cell_volume 2211.906796
_symmetry_space_group_name_H-M "P 4/M"
_symmetry_group_IT_number 83
_symmetry_cell_setting 'tetragonal'
loop_
_space_group_symop_operation_xyz
x,y,z
-y,x,z
-x,-y,z
y,-x,z
-x,-y,-z
y,-x,-z
x,y,-z
-y,x,-z
loop_
_atom_site_type_symbol
_atom_site_label
_atom_site_fract_x
_atom_site_fract_y
_atom_site_fract_z
Si Si1 0.596962 0.255542 0.593102
Si Si2 0.239483 0.896427 0.079038
Si Si3 0.388475 0.733959 0.156369
Si Si4 0.393340 0.736137 0.254539
Si Si5 0.092593 0.243656 0.330413
Si Si6 0.601935 0.258601 0.000000
Si Si7 0.596974 0.258622 0.500000
O O1 0.701261 0.413384 0.598269
O O2 0.642869 0.130032 0.629394
O O3 0.631190 0.171864 0.545897
O O4 0.321044 0.869397 0.125395
O O5 0.080702 0.794838 0.074287
O O6 0.360614 0.844255 0.042118
O O7 0.293690 0.572881 0.147125
O O8 0.365053 0.791910 0.205451
O O9 0.295279 0.577108 0.263705
O O10 0.335188 0.874920 0.285796
O O11 0.909959 0.202099 0.332564
O O12 0.704740 0.417244 0.000000
O O13 0.700634 0.414304 0.500000
#
# Coordination Sequence:
#
# PCOD8302943 Si02
#       7
#     8   8   8   8   8   4   4
#     4   9  17  32  56  81 102 128 167 214 262 313
#     4  11  24  39  56  83 118 151 183 220 264 317
#     4   9  19  37  60  85 111 139 176 221 267 318
#     4   9  19  37  60  83 105 133 175 225 270 313
#     4  11  24  37  48  70 107 145 178 214 259 312
#     4  11  24  41  62  86 110 141 186 235 276 316
#     4   7  12  26  50  79 104 124 156 209 264 309
#
# _framework density 21.700735000000002
#
# number of rings (size 3 to 8) (size 9 to 14) (size 15 to 20)
#    0.000    2.333    0.000    4.500    0.000   10.667 
#    0.000    5.833    0.000    4.000    0.000    0.000 
#    0.000    0.000    0.000    0.000    0.000    0.000 
#
# Total GULP energy -595143.806788 kJ/mol
# GULP energy per Si atom -12398.829308 kJ/mol
# Density = 2.165134 g / cm^3
# Si number density = 21.700735 Si / 1000 Ang^3
#
#
#
# Elastic Constant Matrix: (Units=GPa)
#
#
# Indices 1 2 3 4 5 6 
#
# 1 16.2519 -9.2632 8.5326 0.0000 0.0000 1.6520
# 2 -9.2632 16.2519 8.5326 0.0000 0.0000 -1.6520
# 3 8.5326 8.5326 133.8193 0.0000 0.0000 0.0000
# 4 0.0000 0.0000 0.0000 0.1255 0.0000 0.0000
# 5 0.0000 0.0000 0.0000 0.0000 0.1255 0.0000
# 6 1.6520 -1.6520 0.0000 0.0000 0.0000 32.2690
#
#
#
# Elastic Compliance Matrix: (Units=1/GPa)
#
#
# Indices 1 2 3 4 5 6 
#
# 1 0.104464 0.065009 -0.010806 0.000000 0.000000 -0.002020
# 2 0.065009 0.104464 -0.010806 0.000000 0.000000 0.002020
# 3 -0.010806 -0.010806 0.008851 0.000000 0.000000 0.000000
# 4 0.000000 0.000000 0.000000 7.966276 0.000000 0.000000
# 5 0.000000 0.000000 0.000000 0.000000 7.966276 0.000000
# 6 -0.002020 0.002020 0.000000 0.000000 0.000000 0.031196
#
#
# Mechanical properties :
#
#
# Convention : Reuss Voigt Hill
#
# Bulk Modulus (GPa) = 3.28328 20.21413 11.74870
# Shear Modulus (GPa) = 0.30871 17.07208 8.69040
#
# Velocity S-wave (km/s) = 0.37758 2.80787 2.00333
# Velocity P-wave (km/s) = 1.30628 4.45504 3.28281
#
# Compressibility (1/GPa) = 0.30457314
#
# Stress axis : x y z
#
# Youngs Moduli (GPa) = 9.57272 9.57272 112.98447
#
# Poissons Ratio (x) = -0.62232 1.22090
# Poissons Ratio (y) = -0.62232 1.22090
# Poissons Ratio (z) = 0.10344 0.10344
#
# Static dielectric constant tensor:
#      x y z
#    x 3.670100 0.000000 0.000000 
#    y 0.000000 3.670100 0.000000 
#    z 0.000000 0.000000 4.156860 
# 
# 
# High freq. dielectric constant tensor:
#      x y z
#    x 1.837930 0.000000 0.000000 
#    y 0.000000 1.837930 0.000000 
#    z 0.000000 0.000000 1.870400 
# 
# From -- ./inp_files/3445.got.cif
#   From: 2010.03.12/outbox.cif.g09.slc.cpg/sg83_2_cif.got.tgz:3445.got - 2010.04.08 20:05:18.
