data_PCOD8302233
_publ_section_title
;
Structure prediction by ZEFSAII (Michael W. Deem and Ramdas Pophale) SiO2 
 PCOD8302233
Probable space group: I 41
;
_chemical_formula_sum "Si O2"
_cell_formula_units_Z 52
_cell_length_a 18.223927
_cell_length_b 18.223927
_cell_length_c 6.737135
_cell_angle_alpha 90.000000
_cell_angle_beta 90.000000
_cell_angle_gamma 90.000000
_cell_volume 2237.480114
_symmetry_space_group_name_H-M "I 41"
_symmetry_group_IT_number 80
_symmetry_cell_setting 'tetragonal'
loop_
_space_group_symop_operation_xyz
x,y,z
-y,1/2+x,1/4+z
-x,-y,z
y,1/2-x,1/4+z
1/2+x,1/2+y,1/2+z
1/2-y,x,3/4+z
1/2-x,1/2-y,1/2+z
1/2+y,-x,3/4+z
loop_
_atom_site_type_symbol
_atom_site_label
_atom_site_fract_x
_atom_site_fract_y
_atom_site_fract_z
Si Si1 0.297815 0.671785 0.085170
Si Si2 0.702618 0.953161 0.390089
Si Si3 0.634849 0.568412 0.015627
Si Si4 0.349219 0.545001 0.313672
Si Si5 0.000000 0.000000 0.297478
Si Si6 0.023812 0.875121 0.994540
Si Si7 0.576520 0.277105 0.828058
O O1 0.319644 0.711839 0.289677
O O2 0.313336 0.586426 0.122292
O O3 0.340908 0.708475 0.900539
O O4 0.652415 0.892299 0.280059
O O5 0.787978 0.929129 0.396507
O O6 0.669597 0.965300 0.611106
O O7 0.694200 0.025602 0.255603
O O8 0.648603 0.539329 0.241845
O O9 0.574558 0.509739 0.927218
O O10 0.430337 0.575692 0.342773
O O11 0.307181 0.556624 0.523776
O O12 0.009409 0.071703 0.160760
O O13 0.070425 0.815953 0.115703
#
# Coordination Sequence:
#
# PCOD8302233 Si02
#       7
#     8   8   8   8   4   8   8
#     4  12  23  39  61 101 146 196 246 291 360 449
#     4  12  26  50  72 108 148 189 255 311 374 453
#     4  12  26  49  76 108 147 198 250 314 378 452
#     4  12  23  42  70 102 143 194 239 303 372 438
#     4  12  24  46  78 112 144 194 250 314 388 450
#     4  12  23  44  70 108 140 186 245 301 374 441
#     4  12  23  44  67 102 145 189 244 301 369 441
#
# _framework density 23.240431000000001
#
# number of rings (size 3 to 8) (size 9 to 14) (size 15 to 20)
#    0.000    0.000    4.615    7.385    0.000    0.000 
#    0.000    3.077    0.000    0.000    0.000    0.000 
#    0.000    0.000    0.000    0.000    0.000    0.000 
#
# Total GULP energy -322288.728285 kJ/mol
# GULP energy per Si atom -12395.720319 kJ/mol
# Density = 2.318753 g / cm^3
# Si number density = 23.240431 Si / 1000 Ang^3
#
#
#
# Elastic Constant Matrix: (Units=GPa)
#
#
# Indices 1 2 3 4 5 6 
#
# 1 100.2678 27.2764 24.9366 0.0000 0.0000 4.0174
# 2 27.2764 100.2678 24.9366 0.0000 0.0000 -4.0174
# 3 24.9366 24.9366 89.0813 0.0000 0.0000 0.0000
# 4 0.0000 0.0000 0.0000 43.5857 0.0000 0.0000
# 5 0.0000 0.0000 0.0000 0.0000 43.5857 0.0000
# 6 4.0174 -4.0174 0.0000 0.0000 0.0000 28.6161
#
#
#
# Elastic Compliance Matrix: (Units=1/GPa)
#
#
# Indices 1 2 3 4 5 6 
#
# 1 0.011360 -0.002556 -0.002465 0.000000 0.000000 -0.001954
# 2 -0.002556 0.011360 -0.002465 0.000000 0.000000 0.001954
# 3 -0.002465 -0.002465 0.012606 0.000000 0.000000 0.000000
# 4 0.000000 0.000000 0.000000 0.022943 0.000000 0.000000
# 5 0.000000 0.000000 0.000000 0.000000 0.022943 0.000000
# 6 -0.001954 0.001954 0.000000 0.000000 0.000000 0.035494
#
#
# Mechanical properties :
#
#
# Convention : Reuss Voigt Hill
#
# Bulk Modulus (GPa) = 49.12660 49.32401 49.22531
# Shear Modulus (GPa) = 36.11152 37.32198 36.71675
#
# Velocity S-wave (km/s) = 3.94613 4.01172 3.97906
# Velocity P-wave (km/s) = 6.47664 6.53667 6.50673
#
# Compressibility (1/GPa) = 0.02035557
#
# Stress axis : x y z
#
# Youngs Moduli (GPa) = 88.03051 88.03051 79.33045
#
# Poissons Ratio (x) = 0.22497 0.19551
# Poissons Ratio (y) = 0.22497 0.19551
# Poissons Ratio (z) = 0.21695 0.21695
#
# Static dielectric constant tensor:
#      x y z
#    x 4.225000 0.000000 0.000000 
#    y 0.000000 4.225000 0.000000 
#    z 0.000000 0.000000 4.179460 
# 
# 
# High freq. dielectric constant tensor:
#      x y z
#    x 1.909980 0.000000 0.000000 
#    y 0.000000 1.909980 0.000000 
#    z 0.000000 0.000000 1.929670 
# 
# From -- ./inp_files/306.got.cif
#   From: 2010.03.12/outbox.cif.g09.slc.cpg/sg80_cif.got.tgz:306.got - 2010.04.08 20:00:04.
