data_PCOD8302265
_publ_section_title
;
Structure prediction by ZEFSAII (Michael W. Deem and Ramdas Pophale) SiO2 
 PCOD8302265
Probable space group: P -4
;
_chemical_formula_sum "Si O2"
_cell_formula_units_Z 23
_cell_length_a 8.527231
_cell_length_b 8.527231
_cell_length_c 16.113589
_cell_angle_alpha 90.000000
_cell_angle_beta 90.000000
_cell_angle_gamma 90.000000
_cell_volume 1171.678169
_symmetry_space_group_name_H-M "P -4"
_symmetry_group_IT_number 81
_symmetry_cell_setting 'tetragonal'
loop_
_space_group_symop_operation_xyz
x,y,z
y,-x,-z
-x,-y,z
-y,x,-z
loop_
_atom_site_type_symbol
_atom_site_label
_atom_site_fract_x
_atom_site_fract_y
_atom_site_fract_z
Si Si1 0.665519 0.154848 0.755885
Si Si2 0.324761 0.051991 0.597402
Si Si3 0.000000 0.000000 0.500000
Si Si4 0.643018 0.402948 0.325954
Si Si5 0.827375 0.457449 0.789875
Si Si6 0.500000 0.000000 0.900416
Si Si7 0.257341 0.544878 0.979169
O O1 0.512545 0.252140 0.731689
O O2 0.808742 0.274935 0.765745
O O3 0.701501 0.023975 0.687539
O O4 0.635425 0.075005 0.844074
O O5 0.168799 0.001275 0.547019
O O6 0.325975 0.242497 0.604892
O O7 0.500000 0.000000 0.561584
O O8 0.500000 0.500000 0.369415
O O9 0.571066 0.277682 0.264553
O O10 0.795095 0.488724 0.885950
O O11 0.000000 0.500000 0.764442
O O12 0.595205 0.883512 0.960924
O O13 0.385979 0.679339 0.979355
#
# Coordination Sequence:
#
# PCOD8302265 Si02
#       7
#     4   4   1   4   4   2   4
#     4  10  20  39  65  84 118 167 211 261 316 386
#     4  10  23  48  68  99 134 171 213 266 337 413
#     4  12  28  48  76 108 140 170 220 272 356 424
#     4   9  19  38  67  91 120 162 217 262 311 386
#     4  11  22  35  54  95 122 161 224 267 317 384
#     4  12  18  36  58  80 116 166 210 262 316 372
#     4  11  23  33  52  80 121 162 211 270 319 361
#
# _framework density 19.629963
#
# number of rings (size 3 to 8) (size 9 to 14) (size 15 to 20)
#    0.000    1.565    5.217    1.043    7.304    0.000 
#    9.391    0.000    0.000    2.609    0.000    0.000 
#    0.000    0.000    0.000    0.000    0.000    0.000 
#
# Total GULP energy -285008.889448 kJ/mol
# GULP energy per Si atom -12391.690846 kJ/mol
# Density = 1.958528 g / cm^3
# Si number density = 19.629963 Si / 1000 Ang^3
#
#
#
# Elastic Constant Matrix: (Units=GPa)
#
#
# Indices 1 2 3 4 5 6 
#
# 1 107.1731 46.6984 40.5178 0.0000 0.0000 -0.1223
# 2 46.6984 107.1731 40.5178 0.0000 0.0000 0.1223
# 3 40.5178 40.5178 57.2718 0.0000 0.0000 0.0000
# 4 0.0000 0.0000 0.0000 11.8434 0.0000 0.0000
# 5 0.0000 0.0000 0.0000 0.0000 11.8434 0.0000
# 6 -0.1223 0.1223 0.0000 0.0000 0.0000 28.2401
#
#
#
# Elastic Compliance Matrix: (Units=1/GPa)
#
#
# Indices 1 2 3 4 5 6 
#
# 1 0.013447 -0.003089 -0.007328 0.000000 0.000000 0.000072
# 2 -0.003089 0.013447 -0.007328 0.000000 0.000000 -0.000072
# 3 -0.007328 -0.007328 0.027829 0.000000 0.000000 0.000000
# 4 0.000000 0.000000 0.000000 0.084435 0.000000 0.000000
# 5 0.000000 0.000000 0.000000 0.000000 0.084435 0.000000
# 6 0.000072 -0.000072 0.000000 0.000000 0.000000 0.035411
#
#
# Mechanical properties :
#
#
# Convention : Reuss Voigt Hill
#
# Bulk Modulus (GPa) = 51.99278 58.56513 55.27895
# Shear Modulus (GPa) = 16.61646 19.97764 18.29705
#
# Velocity S-wave (km/s) = 2.91260 3.19362 3.05634
# Velocity P-wave (km/s) = 6.15263 6.59532 6.37782
#
# Compressibility (1/GPa) = 0.01923344
#
# Stress axis : x y z
#
# Youngs Moduli (GPa) = 74.36502 74.36502 35.93326
#
# Poissons Ratio (x) = 0.22971 0.26332
# Poissons Ratio (y) = 0.22971 0.26332
# Poissons Ratio (z) = 0.54495 0.54495
#
# Static dielectric constant tensor:
#      x y z
#    x 3.895560 0.000000 0.000000 
#    y 0.000000 3.895560 0.000000 
#    z 0.000000 0.000000 3.422500 
# 
# 
# High freq. dielectric constant tensor:
#      x y z
#    x 1.768790 0.000000 0.000000 
#    y 0.000000 1.768790 0.000000 
#    z 0.000000 0.000000 1.750800 
# 
# From -- ./inp_files/1632.got.cif
#   From: 2010.03.12/outbox.cif.g09.slc.cpg/sg81_cif.got.tgz:1632.got - 2010.04.08 20:01:38.
