data_PCOD8302764
_publ_section_title
;
Structure prediction by ZEFSAII (Michael W. Deem and Ramdas Pophale) SiO2 
 PCOD8302764
Probable space group: P 4/M
;
_chemical_formula_sum "Si O2"
_cell_formula_units_Z 36
_cell_length_a 14.955928
_cell_length_b 14.955928
_cell_length_c 7.981770
_cell_angle_alpha 90.000000
_cell_angle_beta 90.000000
_cell_angle_gamma 90.000000
_cell_volume 1785.360576
_symmetry_space_group_name_H-M "P 4/M"
_symmetry_group_IT_number 83
_symmetry_cell_setting 'tetragonal'
loop_
_space_group_symop_operation_xyz
x,y,z
-y,x,z
-x,-y,z
y,-x,z
-x,-y,-z
y,-x,-z
x,y,-z
-y,x,-z
loop_
_atom_site_type_symbol
_atom_site_label
_atom_site_fract_x
_atom_site_fract_y
_atom_site_fract_z
Si Si1 0.964931 0.280181 0.306961
Si Si2 0.437291 0.372558 0.802271
Si Si3 0.853653 0.979782 0.000000
Si Si4 0.419395 0.182689 0.690794
Si Si5 0.923697 0.571472 0.811357
O O1 0.953086 0.245481 0.500000
O O2 0.880689 0.339808 0.241616
O O3 0.972057 0.200676 0.173929
O O4 0.055402 0.341243 0.301234
O O5 0.540397 0.382486 0.743804
O O6 0.392854 0.285821 0.717917
O O7 0.432554 0.361999 0.000000
O O8 0.899935 0.075802 0.000000
O O9 0.431662 0.157561 0.500000
O O10 0.517318 0.167619 0.775156
O O11 0.000000 0.500000 0.774159
O O12 0.923172 0.606964 0.000000
#
# Coordination Sequence:
#
# PCOD8302764 Si02
#       5
#     8   8   4   8   8
#     4  10  21  40  64  93 125 152 194 252 304 364
#     4   9  19  36  54  75 111 162 209 241 281 339
#     4  11  26  48  69  90 118 155 200 245 311 391
#     4  10  20  33  55  89 123 158 199 245 302 354
#     4   9  16  30  57  87 118 157 192 235 299 353
#
# _framework density 20.163993000000001
#
# number of rings (size 3 to 8) (size 9 to 14) (size 15 to 20)
#    0.000    2.333    1.111    2.000    3.111    4.444 
#    4.000    2.222    0.000    0.000    0.000    0.000 
#    0.000    0.000    0.000    0.000    0.000    0.000 
#
# Total GULP energy -446151.288873 kJ/mol
# GULP energy per Si atom -12393.091358 kJ/mol
# Density = 2.011810 g / cm^3
# Si number density = 20.163993 Si / 1000 Ang^3
#
#
#
# Elastic Constant Matrix: (Units=GPa)
#
#
# Indices 1 2 3 4 5 6 
#
# 1 84.6053 31.9999 45.9419 0.0000 0.0000 2.1845
# 2 31.9999 84.6053 45.9419 0.0000 0.0000 -2.1845
# 3 45.9419 45.9419 95.4930 0.0000 0.0000 0.0000
# 4 0.0000 0.0000 0.0000 22.3250 0.0000 0.0000
# 5 0.0000 0.0000 0.0000 0.0000 22.3250 0.0000
# 6 2.1845 -2.1845 0.0000 0.0000 0.0000 17.0686
#
#
#
# Elastic Compliance Matrix: (Units=1/GPa)
#
#
# Indices 1 2 3 4 5 6 
#
# 1 0.016513 -0.002701 -0.006645 0.000000 0.000000 -0.002459
# 2 -0.002701 0.016513 -0.006645 0.000000 0.000000 0.002459
# 3 -0.006645 -0.006645 0.016866 0.000000 0.000000 0.000000
# 4 0.000000 0.000000 0.000000 0.044793 0.000000 0.000000
# 5 0.000000 0.000000 0.000000 0.000000 0.044793 0.000000
# 6 -0.002459 0.002459 0.000000 0.000000 0.000000 0.059216
#
#
# Mechanical properties :
#
#
# Convention : Reuss Voigt Hill
#
# Bulk Modulus (GPa) = 55.83478 56.94121 56.38799
# Shear Modulus (GPa) = 21.12865 21.73173 21.43019
#
# Velocity S-wave (km/s) = 3.24055 3.28647 3.26359
# Velocity P-wave (km/s) = 6.46158 6.53464 6.49821
#
# Compressibility (1/GPa) = 0.01790998
#
# Stress axis : x y z
#
# Youngs Moduli (GPa) = 60.55852 60.55852 59.29123
#
# Poissons Ratio (x) = 0.16355 0.39400
# Poissons Ratio (y) = 0.16355 0.39400
# Poissons Ratio (z) = 0.40242 0.40242
#
# Static dielectric constant tensor:
#      x y z
#    x 3.655550 0.000000 0.000000 
#    y 0.000000 3.655550 0.000000 
#    z 0.000000 0.000000 3.541670 
# 
# 
# High freq. dielectric constant tensor:
#      x y z
#    x 1.770220 0.000000 0.000000 
#    y 0.000000 1.770220 0.000000 
#    z 0.000000 0.000000 1.789730 
# 
# From -- ./inp_files/499.got.cif
#   From: 2010.03.12/outbox.cif.g09.slc.cpg/sg83_1_cif.got.tgz:499.got - 2010.04.08 20:05:18.
