data_PCOD8302384
_publ_section_title
;
Structure prediction by ZEFSAII (Michael W. Deem and Ramdas Pophale) SiO2 
 PCOD8302384
Probable space group: I -4 
;
_chemical_formula_sum "Si O2"
_cell_formula_units_Z 64
_cell_length_a 19.642267
_cell_length_b 19.642267
_cell_length_c 8.888233
_cell_angle_alpha 90.000000
_cell_angle_beta 90.000000
_cell_angle_gamma 90.000000
_cell_volume 3429.246083
_symmetry_space_group_name_H-M "I -4 "
_symmetry_group_IT_number 82
_symmetry_cell_setting 'tetragonal'
loop_
_space_group_symop_operation_xyz
x,y,z
y,-x,-z
-x,-y,z
-y,x,-z
1/2+x,1/2+y,1/2+z
1/2+y,1/2-x,1/2-z
1/2-x,1/2-y,1/2+z
1/2-y,1/2+x,1/2-z
loop_
_atom_site_type_symbol
_atom_site_label
_atom_site_fract_x
_atom_site_fract_y
_atom_site_fract_z
Si Si1 0.856397 0.746878 0.327825
Si Si2 0.765626 0.856323 0.180551
Si Si3 0.744145 0.145764 0.319064
Si Si4 0.109906 0.983870 0.337170
Si Si5 0.737234 0.646389 0.325429
Si Si6 0.011873 0.238730 0.828280
Si Si7 0.605981 0.477166 0.168253
Si Si8 0.507827 0.737356 0.674565
O O1 0.830011 0.818904 0.258979
O O2 0.859682 0.755351 0.504819
O O3 0.805653 0.686542 0.281631
O O4 0.931682 0.725613 0.267347
O O5 0.697432 0.815903 0.225323
O O6 0.753582 0.934646 0.235806
O O7 0.778223 0.855021 0.002467
O O8 0.816291 0.172887 0.251902
O O9 0.719205 0.071809 0.255763
O O10 0.142962 0.974456 0.504130
O O11 0.090601 0.062216 0.310798
O O12 0.161685 0.963907 0.205986
O O13 0.043296 0.939622 0.324786
O O14 0.750478 0.569190 0.265585
O O15 0.014624 0.258502 0.001911
O O16 0.657413 0.478842 0.306254
#
# Coordination Sequence:
#
# PCOD8302384 Si02
#       8
#     8   8   8   8   8   8   8   8
#     4  10  20  35  55  77 102 133 171 211 251 299
#     4   9  20  37  54  75 104 136 169 208 253 301
#     4  10  20  35  55  77 102 133 171 211 251 299
#     4   9  18  31  45  65  96 131 165 199 236 285
#     4   9  20  37  54  75 104 136 169 208 253 301
#     4  11  21  32  49  73 100 129 164 205 251 301
#     4   9  18  31  45  65  96 131 165 199 236 285
#     4  11  21  32  49  73 100 129 164 205 251 301
#
# _framework density 18.662994000000001
#
# number of rings (size 3 to 8) (size 9 to 14) (size 15 to 20)
#    0.000    2.250    0.000    3.750    0.000    8.000 
#    0.000    1.250    0.000    0.750    0.000    5.250 
#    0.000    0.000    0.000    0.000    0.000    0.000 
#
# Total GULP energy -396504.289493 kJ/mol
# GULP energy per Si atom -12390.759047 kJ/mol
# Density = 1.862052 g / cm^3
# Si number density = 18.662994 Si / 1000 Ang^3
#
#
#
# Elastic Constant Matrix: (Units=GPa)
#
#
# Indices 1 2 3 4 5 6 
#
# 1 92.2815 20.3041 19.4318 0.0000 0.0000 -0.2692
# 2 20.3041 92.2815 19.4318 0.0000 0.0000 0.2692
# 3 19.4318 19.4318 46.3865 0.0000 0.0000 0.0000
# 4 0.0000 0.0000 0.0000 27.6021 0.0000 0.0000
# 5 0.0000 0.0000 0.0000 0.0000 27.6021 0.0000
# 6 -0.2692 0.2692 0.0000 0.0000 0.0000 8.3226
#
#
#
# Elastic Compliance Matrix: (Units=1/GPa)
#
#
# Indices 1 2 3 4 5 6 
#
# 1 0.012140 -0.001756 -0.004350 0.000000 0.000000 0.000450
# 2 -0.001756 0.012140 -0.004350 0.000000 0.000000 -0.000450
# 3 -0.004350 -0.004350 0.025202 0.000000 0.000000 0.000000
# 4 0.000000 0.000000 0.000000 0.036229 0.000000 0.000000
# 5 0.000000 0.000000 0.000000 0.000000 0.036229 0.000000
# 6 0.000450 -0.000450 0.000000 0.000000 0.000000 0.120184
#
#
# Mechanical properties :
#
#
# Convention : Reuss Voigt Hill
#
# Bulk Modulus (GPa) = 35.00129 38.80945 36.90537
# Shear Modulus (GPa) = 18.34454 24.15746 21.25100
#
# Velocity S-wave (km/s) = 3.13858 3.60169 3.37808
# Velocity P-wave (km/s) = 5.65061 6.17545 5.91885
#
# Compressibility (1/GPa) = 0.02857038
#
# Stress axis : x y z
#
# Youngs Moduli (GPa) = 82.37138 82.37138 39.67875
#
# Poissons Ratio (x) = 0.14468 0.17260
# Poissons Ratio (y) = 0.14468 0.17260
# Poissons Ratio (z) = 0.35830 0.35830
#
# Static dielectric constant tensor:
#      x y z
#    x 3.564670 0.000000 0.000000 
#    y 0.000000 3.564670 0.000000 
#    z 0.000000 0.000000 3.432260 
# 
# 
# High freq. dielectric constant tensor:
#      x y z
#    x 1.714860 0.000000 0.000000 
#    y 0.000000 1.714860 0.000000 
#    z 0.000000 0.000000 1.720990 
# 
# From -- ./inp_files/1257.got.cif
#   From: 2010.03.12/outbox.cif.g09.slc.cpg/sg82_1_cif.got.tgz:1257.got - 2010.04.08 20:02:50.
