data_PCOD8302443
_publ_section_title
;
Structure prediction by ZEFSAII (Michael W. Deem and Ramdas Pophale) SiO2 
 PCOD8302443
Probable space group: I -4 
;
_chemical_formula_sum "Si O2"
_cell_formula_units_Z 40
_cell_length_a 15.789073
_cell_length_b 15.789073
_cell_length_c 7.565677
_cell_angle_alpha 90.000000
_cell_angle_beta 90.000000
_cell_angle_gamma 90.000000
_cell_volume 1886.084133
_symmetry_space_group_name_H-M "I -4 "
_symmetry_group_IT_number 82
_symmetry_cell_setting 'tetragonal'
loop_
_space_group_symop_operation_xyz
x,y,z
y,-x,-z
-x,-y,z
-y,x,-z
1/2+x,1/2+y,1/2+z
1/2+y,1/2-x,1/2-z
1/2-x,1/2-y,1/2+z
1/2-y,1/2+x,1/2-z
loop_
_atom_site_type_symbol
_atom_site_label
_atom_site_fract_x
_atom_site_fract_y
_atom_site_fract_z
Si Si1 0.896842 0.906157 0.993301
Si Si2 0.154210 0.775858 0.716633
Si Si3 0.340669 0.721707 0.802105
Si Si4 0.038615 0.625386 0.698249
Si Si5 0.382283 0.051868 0.694945
O O1 0.858624 0.857478 0.163189
O O2 0.856601 0.876198 0.808995
O O3 0.994560 0.882020 0.983101
O O4 0.242986 0.732249 0.756607
O O5 0.146646 0.798388 0.509389
O O6 0.082263 0.708922 0.776737
O O7 0.388884 0.806551 0.737590
O O8 0.104866 0.547266 0.699525
O O9 0.014839 0.641157 0.495527
O O10 0.469780 0.105641 0.680978
#
# Coordination Sequence:
#
# PCOD8302443 Si02
#       5
#     8   8   8   8   8
#     4  11  28  50  72  97 141 192 233 288 346 413
#     4  11  25  42  70 103 134 177 231 287 345 413
#     4  11  25  42  70 103 134 177 231 287 345 413
#     4  10  22  36  59  94 131 172 212 270 347 414
#     4  10  22  36  59  94 131 172 212 270 347 414
#
# _framework density 21.20796
#
# number of rings (size 3 to 8) (size 9 to 14) (size 15 to 20)
#    0.000    1.400    2.000    2.400   11.200    1.600 
#    0.000    2.000    0.000    0.000    0.000    0.000 
#    0.000    0.000    0.000    0.000    0.000    0.000 
#
# Total GULP energy -248043.732323 kJ/mol
# GULP energy per Si atom -12402.186616 kJ/mol
# Density = 2.115969 g / cm^3
# Si number density = 21.207960 Si / 1000 Ang^3
#
#
#
# Elastic Constant Matrix: (Units=GPa)
#
#
# Indices 1 2 3 4 5 6 
#
# 1 66.7796 16.1950 26.1609 0.0000 0.0000 -4.3853
# 2 16.1950 66.7796 26.1609 0.0000 0.0000 4.3853
# 3 26.1609 26.1609 110.8857 0.0000 0.0000 0.0000
# 4 0.0000 0.0000 0.0000 33.0670 0.0000 0.0000
# 5 0.0000 0.0000 0.0000 0.0000 33.0670 0.0000
# 6 -4.3853 4.3853 0.0000 0.0000 0.0000 34.2258
#
#
#
# Elastic Compliance Matrix: (Units=1/GPa)
#
#
# Indices 1 2 3 4 5 6 
#
# 1 0.017188 -0.003030 -0.003340 0.000000 0.000000 0.002591
# 2 -0.003030 0.017188 -0.003340 0.000000 0.000000 -0.002591
# 3 -0.003340 -0.003340 0.010594 0.000000 0.000000 0.000000
# 4 0.000000 0.000000 0.000000 0.030242 0.000000 0.000000
# 5 0.000000 0.000000 0.000000 0.000000 0.030242 0.000000
# 6 0.002591 -0.002591 0.000000 0.000000 0.000000 0.029882
#
#
# Mechanical properties :
#
#
# Convention : Reuss Voigt Hill
#
# Bulk Modulus (GPa) = 39.13951 42.38648 40.76300
# Shear Modulus (GPa) = 30.62358 31.80053 31.21205
#
# Velocity S-wave (km/s) = 3.80408 3.87649 3.84045
# Velocity P-wave (km/s) = 6.14734 6.32975 6.23921
#
# Compressibility (1/GPa) = 0.02554963
#
# Stress axis : x y z
#
# Youngs Moduli (GPa) = 58.17976 58.17976 94.38932
#
# Poissons Ratio (x) = 0.17628 0.31529
# Poissons Ratio (y) = 0.17628 0.31529
# Poissons Ratio (z) = 0.19434 0.19434
#
# Static dielectric constant tensor:
#      x y z
#    x 3.853520 0.000000 0.000000 
#    y 0.000000 3.853520 0.000000 
#    z 0.000000 0.000000 3.864330 
# 
# 
# High freq. dielectric constant tensor:
#      x y z
#    x 1.831230 0.000000 0.000000 
#    y 0.000000 1.831230 0.000000 
#    z 0.000000 0.000000 1.840400 
# 
# From -- ./inp_files/948.got.cif
#   From: 2010.03.12/outbox.cif.g09.slc.cpg/sg82_1_cif.got.tgz:948.got - 2010.04.08 20:02:50.
