data_PCOD8302274
_publ_section_title
;
Structure prediction by ZEFSAII (Michael W. Deem and Ramdas Pophale) SiO2 
 PCOD8302274
Probable space group: P -4
;
_chemical_formula_sum "Si O2"
_cell_formula_units_Z 25
_cell_length_a 12.571167
_cell_length_b 12.571167
_cell_length_c 7.841518
_cell_angle_alpha 90.000000
_cell_angle_beta 90.000000
_cell_angle_gamma 90.000000
_cell_volume 1239.228336
_symmetry_space_group_name_H-M "P -4"
_symmetry_group_IT_number 81
_symmetry_cell_setting 'tetragonal'
loop_
_space_group_symop_operation_xyz
x,y,z
y,-x,-z
-x,-y,z
-y,x,-z
loop_
_atom_site_type_symbol
_atom_site_label
_atom_site_fract_x
_atom_site_fract_y
_atom_site_fract_z
Si Si1 0.500000 0.500000 0.000000
Si Si2 0.302085 0.686897 0.492278
Si Si3 0.500065 0.877841 0.997342
Si Si4 0.116583 0.875149 0.999673
Si Si5 0.694950 0.131284 0.759531
Si Si6 0.503475 0.306137 0.252507
Si Si7 0.308533 0.113003 0.745203
O O1 0.485916 0.396196 0.113307
O O2 0.325549 0.791785 0.601812
O O3 0.323439 0.581412 0.599080
O O4 0.378846 0.686665 0.329323
O O5 0.180780 0.686594 0.427299
O O6 0.515052 0.808093 0.166021
O O7 0.500000 0.000000 0.056931
O O8 0.390128 0.845962 0.907322
O O9 0.594735 0.854785 0.866697
O O10 0.189131 0.845038 0.838277
O O11 0.140743 0.801307 0.160529
O O12 0.995181 0.859967 0.938740
O O13 0.684832 0.010608 0.692639
#
# Coordination Sequence:
#
# PCOD8302274 Si02
#       7
#     1   4   4   4   4   4   4
#     4  12  24  42  64  80 104 146 192 228 264 326
#     4  12  24  37  56  85 118 144 174 226 286 332
#     4  10  21  39  61  81 106 146 192 228 262 319
#     4   9  18  35  58  81 108 147 192 228 260 313
#     4  10  21  37  57  82 113 146 183 227 272 322
#     4  12  24  39  60  83 111 145 183 227 275 329
#     4  10  21  37  57  82 113 146 183 227 272 322
#
# _framework density 20.173846000000001
#
# number of rings (size 3 to 8) (size 9 to 14) (size 15 to 20)
#    0.000    1.440    0.000    5.760    0.000    2.560 
#    0.000    0.000    0.000    0.000    0.000    0.000 
#    0.000    0.000    0.000    0.000    0.000    0.000 
#
# Total GULP energy -310180.742481 kJ/mol
# GULP energy per Si atom -12407.229699 kJ/mol
# Density = 2.012793 g / cm^3
# Si number density = 20.173846 Si / 1000 Ang^3
#
#
#
# Elastic Constant Matrix: (Units=GPa)
#
#
# Indices 1 2 3 4 5 6 
#
# 1 93.3646 26.9635 28.4606 0.0000 0.0000 1.4241
# 2 26.9635 93.3646 28.4606 0.0000 0.0000 -1.4241
# 3 28.4606 28.4606 58.1842 0.0000 0.0000 0.0000
# 4 0.0000 0.0000 0.0000 278.7003 0.0000 0.0000
# 5 0.0000 0.0000 0.0000 0.0000 278.7003 0.0000
# 6 1.4241 -1.4241 0.0000 0.0000 0.0000 25.6230
#
#
#
# Elastic Compliance Matrix: (Units=1/GPa)
#
#
# Indices 1 2 3 4 5 6 
#
# 1 0.012954 -0.002142 -0.005289 0.000000 0.000000 -0.000839
# 2 -0.002142 0.012954 -0.005289 0.000000 0.000000 0.000839
# 3 -0.005289 -0.005289 0.022361 0.000000 0.000000 0.000000
# 4 0.000000 0.000000 0.000000 0.003588 0.000000 0.000000
# 5 0.000000 0.000000 0.000000 0.000000 0.003588 0.000000
# 6 -0.000839 0.000839 0.000000 0.000000 0.000000 0.039121
#
#
# Mechanical properties :
#
#
# Convention : Reuss Voigt Hill
#
# Bulk Modulus (GPa) = 43.80139 45.85363 44.82751
# Shear Modulus (GPa) = 39.18018 127.33998 83.26008
#
# Velocity S-wave (km/s) = 4.41174 7.95351 6.43124
# Velocity P-wave (km/s) = 6.90727 10.35003 8.79868
#
# Compressibility (1/GPa) = 0.02283032
#
# Stress axis : x y z
#
# Youngs Moduli (GPa) = 77.19473 77.19473 44.72088
#
# Poissons Ratio (x) = 0.16533 0.23652
# Poissons Ratio (y) = 0.16533 0.23652
# Poissons Ratio (z) = 0.40828 0.40828
#
# Static dielectric constant tensor:
#      x y z
#    x 3.023200 0.000000 0.000000 
#    y 0.000000 3.023200 0.000000 
#    z 0.000000 0.000000 3.387810 
# 
# 
# High freq. dielectric constant tensor:
#      x y z
#    x 1.805050 0.000000 0.000000 
#    y 0.000000 1.805050 0.000000 
#    z 0.000000 0.000000 1.771390 
# 
# From -- ./inp_files/877.got.cif
#   From: 2010.03.12/outbox.cif.g09.slc.cpg/sg81_cif.got.tgz:877.got - 2010.04.08 20:01:38.
