data_PCOD8302826
_publ_section_title
;
Structure prediction by ZEFSAII (Michael W. Deem and Ramdas Pophale) SiO2 
 PCOD8302826
Probable space group: P 4/M
;
_chemical_formula_sum "Si O2"
_cell_formula_units_Z 56
_cell_length_a 15.183001
_cell_length_b 15.183001
_cell_length_c 13.018876
_cell_angle_alpha 90.000000
_cell_angle_beta 90.000000
_cell_angle_gamma 90.000000
_cell_volume 3001.157114
_symmetry_space_group_name_H-M "P 4/M"
_symmetry_group_IT_number 83
_symmetry_cell_setting 'tetragonal'
loop_
_space_group_symop_operation_xyz
x,y,z
-y,x,z
-x,-y,z
y,-x,z
-x,-y,-z
y,-x,-z
x,y,-z
-y,x,-z
loop_
_atom_site_type_symbol
_atom_site_label
_atom_site_fract_x
_atom_site_fract_y
_atom_site_fract_z
Si Si1 0.718919 0.168988 0.380451
Si Si2 0.071364 0.424474 0.115392
Si Si3 0.138777 0.040064 0.887467
Si Si4 0.832556 0.339641 0.621118
Si Si5 0.999901 0.277679 0.264938
Si Si6 0.362985 0.458721 0.386821
Si Si7 0.465379 0.805250 0.710860
O O1 0.737718 0.158124 0.500000
O O2 0.762148 0.263000 0.343476
O O3 0.763484 0.085476 0.322366
O O4 0.614172 0.154188 0.357772
O O5 0.030976 0.344071 0.176827
O O6 0.157819 0.461679 0.173807
O O7 0.000000 0.500000 0.111039
O O8 0.098783 0.395772 0.000000
O O9 0.059816 0.107398 0.876619
O O10 0.205127 0.057517 0.794857
O O11 0.183254 0.052731 0.000000
O O12 0.828660 0.347520 0.500000
O O13 0.812961 0.436526 0.665617
O O14 0.932505 0.318700 0.653511
O O15 0.441535 0.392019 0.377099
O O16 0.318312 0.444588 0.500000
O O17 0.297933 0.440618 0.292546
#
# Coordination Sequence:
#
# PCOD8302826 Si02
#       7
#     8   8   8   8   8   8   8
#     4  10  22  35  51  78 111 143 176 217 258 309
#     4  10  21  38  54  74 101 132 174 220 266 316
#     4   9  18  33  54  79 103 129 169 221 268 307
#     4  11  22  35  53  80 109 141 180 215 257 317
#     4  11  20  35  55  77 105 143 173 214 261 321
#     4   9  17  30  52  82 113 146 183 222 264 312
#     4  11  20  34  56  78 104 143 178 219 270 314
#
# _framework density 18.659469999999999
#
# number of rings (size 3 to 8) (size 9 to 14) (size 15 to 20)
#    0.000    1.857    1.429    4.714    0.000    2.286 
#    0.000    2.143    0.000    8.571    0.000    7.000 
#    0.000    0.000    0.000    0.000    0.000    0.000 
#
# Total GULP energy -693736.847585 kJ/mol
# GULP energy per Si atom -12388.157993 kJ/mol
# Density = 1.861700 g / cm^3
# Si number density = 18.659470 Si / 1000 Ang^3
#
#
#
# Elastic Constant Matrix: (Units=GPa)
#
#
# Indices 1 2 3 4 5 6 
#
# 1 66.5245 -7.3524 27.1421 0.0000 0.0000 2.8429
# 2 -7.3524 66.5245 27.1421 0.0000 0.0000 -2.8429
# 3 27.1421 27.1421 82.1232 0.0000 0.0000 0.0000
# 4 0.0000 0.0000 0.0000 33.3695 0.0000 0.0000
# 5 0.0000 0.0000 0.0000 0.0000 33.3695 0.0000
# 6 2.8429 -2.8429 0.0000 0.0000 0.0000 15.3185
#
#
#
# Elastic Compliance Matrix: (Units=1/GPa)
#
#
# Indices 1 2 3 4 5 6 
#
# 1 0.018993 0.005261 -0.008016 0.000000 0.000000 -0.002549
# 2 0.005261 0.018993 -0.008016 0.000000 0.000000 0.002549
# 3 -0.008016 -0.008016 0.017475 0.000000 0.000000 0.000000
# 4 0.000000 0.000000 0.000000 0.029967 0.000000 0.000000
# 5 0.000000 0.000000 0.000000 0.000000 0.029967 0.000000
# 6 -0.002549 0.002549 0.000000 0.000000 0.000000 0.066227
#
#
# Mechanical properties :
#
#
# Convention : Reuss Voigt Hill
#
# Bulk Modulus (GPa) = 29.48204 34.33731 31.90967
# Shear Modulus (GPa) = 23.31315 27.62755 25.47035
#
# Velocity S-wave (km/s) = 3.53852 3.85205 3.69861
# Velocity P-wave (km/s) = 5.70344 6.18276 5.94793
#
# Compressibility (1/GPa) = 0.03391896
#
# Stress axis : x y z
#
# Youngs Moduli (GPa) = 52.65127 52.65127 57.22325
#
# Poissons Ratio (x) = -0.27698 0.45870
# Poissons Ratio (y) = -0.27698 0.45870
# Poissons Ratio (z) = 0.42205 0.42205
#
# Static dielectric constant tensor:
#      x y z
#    x 3.621160 0.000000 0.000000 
#    y 0.000000 3.621160 0.000000 
#    z 0.000000 0.000000 3.551920 
# 
# 
# High freq. dielectric constant tensor:
#      x y z
#    x 1.728100 0.000000 0.000000 
#    y 0.000000 1.728100 0.000000 
#    z 0.000000 0.000000 1.709290 
# 
# From -- ./inp_files/1951.got.cif
#   From: 2010.03.12/outbox.cif.g09.slc.cpg/sg83_1_cif.got.tgz:1951.got - 2010.04.08 20:05:18.
