data_PCOD8302135
_publ_section_title
;
Structure prediction by ZEFSAII (Michael W. Deem and Ramdas Pophale) SiO2 
 PCOD8302135
Probable space group: I 4
;
_chemical_formula_sum "Si O2"
_cell_formula_units_Z 40
_cell_length_a 18.877918
_cell_length_b 18.877918
_cell_length_c 4.802243
_cell_angle_alpha 90.000000
_cell_angle_beta 90.000000
_cell_angle_gamma 90.000000
_cell_volume 1711.403133
_symmetry_space_group_name_H-M "I 4"
_symmetry_group_IT_number 79
_symmetry_cell_setting 'tetragonal'
loop_
_space_group_symop_operation_xyz
x,y,z
-y,x,z
-x,-y,z
y,-x,z
1/2+x,1/2+y,1/2+z
1/2-y,1/2+x,1/2+z
1/2-x,1/2-y,1/2+z
1/2+y,1/2-x,1/2+z
loop_
_atom_site_type_symbol
_atom_site_label
_atom_site_fract_x
_atom_site_fract_y
_atom_site_fract_z
Si Si1 0.844065 0.422135 0.181100
Si Si2 0.761121 0.205884 0.753188
Si Si3 0.683471 0.595874 0.581714
Si Si4 0.400249 0.444812 0.083180
Si Si5 0.979758 0.329613 0.171769
O O1 0.783085 0.362692 0.159901
O O2 0.921274 0.390013 0.123798
O O3 0.846311 0.451068 0.492609
O O4 0.826841 0.489365 0.984331
O O5 0.785791 0.245400 0.467142
O O6 0.826957 0.189174 0.949967
O O7 0.658247 0.596443 0.901525
O O8 0.756660 0.554283 0.570591
O O9 0.622809 0.556374 0.405146
O O10 0.472751 0.405113 0.013782
#
# Coordination Sequence:
#
# PCOD8302135 Si02
#       5
#     8   8   8   8   8
#     4  12  28  49  77 107 147 193 241 311 362 443
#     4  12  26  48  75 106 149 185 238 301 376 423
#     4  12  26  45  74 105 142 188 244 301 358 442
#     4  11  26  46  67 102 147 191 238 289 364 443
#     4  12  28  49  73 110 145 191 256 298 371 434
#
# _framework density 23.372634000000001
#
# number of rings (size 3 to 8) (size 9 to 14) (size 15 to 20)
#    0.000    0.200    2.000    6.000   11.200    4.000 
#    0.000    0.000    0.000    0.000    0.000    0.000 
#    0.000    0.000    0.000    0.000    0.000    0.000 
#
# Total GULP energy -248046.340434 kJ/mol
# GULP energy per Si atom -12402.317022 kJ/mol
# Density = 2.331944 g / cm^3
# Si number density = 23.372634 Si / 1000 Ang^3
#
#
#
# Elastic Constant Matrix: (Units=GPa)
#
#
# Indices 1 2 3 4 5 6 
#
# 1 119.4831 -10.2198 6.6590 0.0000 0.0000 42.6593
# 2 -10.2198 119.4831 6.6590 0.0000 0.0000 -42.6593
# 3 6.6590 6.6590 81.8591 0.0000 0.0000 0.0000
# 4 0.0000 0.0000 0.0000 45.0210 0.0000 0.0000
# 5 0.0000 0.0000 0.0000 0.0000 45.0210 0.0000
# 6 42.6593 -42.6593 0.0000 0.0000 0.0000 19.6727
#
#
#
# Elastic Compliance Matrix: (Units=1/GPa)
#
#
# Indices 1 2 3 4 5 6 
#
# 1 -0.004419 0.013662 -0.000752 0.000000 0.000000 0.039208
# 2 0.013662 -0.004419 -0.000752 0.000000 0.000000 -0.039208
# 3 -0.000752 -0.000752 0.012338 0.000000 0.000000 0.000000
# 4 0.000000 0.000000 0.000000 0.022212 0.000000 0.000000
# 5 0.000000 0.000000 0.000000 0.000000 0.022212 0.000000
# 6 0.039208 -0.039208 0.000000 0.000000 0.000000 -0.119209
#
#
# Mechanical properties :
#
#
# Convention : Reuss Voigt Hill
#
# Bulk Modulus (GPa) = 35.94753 36.33575 36.14164
# Shear Modulus (GPa) = -57.91852 43.12471 -7.39690
#
# Velocity S-wave (km/s) = -4.98340 4.30012 -1.78091
# Velocity P-wave (km/s) = 4.20699 6.34308 3.35678
#
# Compressibility (1/GPa) = 0.02781832
#
# Stress axis : x y z
#
# Youngs Moduli (GPa) = -226.31741 -226.31741 81.04744
#
# Poissons Ratio (x) = 3.09205 0.06094
# Poissons Ratio (y) = 3.09205 0.06094
# Poissons Ratio (z) = -0.17018 -0.17018
#
# Static dielectric constant tensor:
#      x y z
#    x 4.272440 0.000000 0.000000 
#    y 0.000000 4.272440 0.000000 
#    z 0.000000 0.000000 5.507890 
# 
# 
# High freq. dielectric constant tensor:
#      x y z
#    x 1.932430 0.000000 0.000000 
#    y 0.000000 1.932430 0.000000 
#    z 0.000000 0.000000 1.945790 
# 
# From -- ./inp_files/136.got.cif
#   From: 2010.03.12/outbox.cif.g09.slc.cpg/sg79_cif.got.tgz:136.got - 2010.04.16 16:38:49.
