data_PCOD8302604
_publ_section_title
;
Structure prediction by ZEFSAII (Michael W. Deem and Ramdas Pophale) SiO2 
 PCOD8302604
Probable space group: I -4 
;
_chemical_formula_sum "Si O2"
_cell_formula_units_Z 28
_cell_length_a 11.197254
_cell_length_b 11.197254
_cell_length_c 10.992030
_cell_angle_alpha 90.000000
_cell_angle_beta 90.000000
_cell_angle_gamma 90.000000
_cell_volume 1378.164202
_symmetry_space_group_name_H-M "I -4 "
_symmetry_group_IT_number 82
_symmetry_cell_setting 'tetragonal'
loop_
_space_group_symop_operation_xyz
x,y,z
y,-x,-z
-x,-y,z
-y,x,-z
1/2+x,1/2+y,1/2+z
1/2+y,1/2-x,1/2-z
1/2-x,1/2-y,1/2+z
1/2-y,1/2+x,1/2-z
loop_
_atom_site_type_symbol
_atom_site_label
_atom_site_fract_x
_atom_site_fract_y
_atom_site_fract_z
Si Si1 0.252047 0.021548 0.885059
Si Si2 0.500000 0.500000 0.500000
Si Si3 0.118976 0.725260 0.381656
Si Si4 0.000000 0.500000 0.750000
Si Si5 0.814385 0.406918 0.941821
O O1 0.280645 0.055850 0.747731
O O2 0.301168 0.889992 0.908359
O O3 0.318560 0.113298 0.972037
O O4 0.111356 0.025260 0.911697
O O5 0.200039 0.842108 0.386060
O O6 0.020197 0.733677 0.485558
O O7 0.105613 0.552310 0.830197
#
# Coordination Sequence:
#
# PCOD8302604 Si02
#       5
#     8   2   8   2   8
#     4  12  25  49  72 105 141 191 234 289 352 424
#     4  12  28  44  76 110 140 180 244 292 350 412
#     4  12  27  47  76 100 146 187 236 287 354 424
#     4  12  28  44  70 104 148 176 228 294 356 408
#     4  12  28  45  72 108 140 185 234 292 357 411
#
# _framework density 20.316882
#
# number of rings (size 3 to 8) (size 9 to 14) (size 15 to 20)
#    0.000    0.000    8.571    0.000    8.000    2.857 
#    0.000    0.000    0.000    0.000    0.000    0.000 
#    0.000    0.000    0.000    0.000    0.000    0.000 
#
# Total GULP energy -173716.249721 kJ/mol
# GULP energy per Si atom -12408.303552 kJ/mol
# Density = 2.027064 g / cm^3
# Si number density = 20.316882 Si / 1000 Ang^3
#
#
#
# Elastic Constant Matrix: (Units=GPa)
#
#
# Indices 1 2 3 4 5 6 
#
# 1 106.2352 -11.2433 -49.1565 0.0000 0.0000 11.7412
# 2 -11.2433 106.2352 -49.1565 0.0000 0.0000 -11.7412
# 3 -49.1565 -49.1565 -80.2041 0.0000 0.0000 0.0000
# 4 0.0000 0.0000 0.0000 29.2205 0.0000 0.0000
# 5 0.0000 0.0000 0.0000 0.0000 29.2205 0.0000
# 6 11.7412 -11.7412 0.0000 0.0000 0.0000 49.8373
#
#
#
# Elastic Compliance Matrix: (Units=1/GPa)
#
#
# Indices 1 2 3 4 5 6 
#
# 1 0.007687 -0.001246 -0.003948 0.000000 0.000000 -0.002104
# 2 -0.001246 0.007687 -0.003948 0.000000 0.000000 0.002104
# 3 -0.003948 -0.003948 -0.007629 0.000000 0.000000 0.000000
# 4 0.000000 0.000000 0.000000 0.034223 0.000000 0.000000
# 5 0.000000 0.000000 0.000000 0.000000 0.034223 0.000000
# 6 -0.002104 0.002104 0.000000 0.000000 0.000000 0.021057
#
#
# Mechanical properties :
#
#
# Convention : Reuss Voigt Hill
#
# Bulk Modulus (GPa) = -94.89730 -9.64961 -52.27346
# Shear Modulus (GPa) = 44.63587 37.77718 41.20653
#
# Velocity S-wave (km/s) = 4.69228 4.31675 4.50843
# Velocity P-wave (km/s) = 4.17771 4.48173 1.14731
#
# Compressibility (1/GPa) = -0.01053771
#
# Stress axis : x y z
#
# Youngs Moduli (GPa) = 130.08818 130.08818 -131.07928
#
# Poissons Ratio (x) = 0.16206 -0.51748
# Poissons Ratio (y) = 0.16206 -0.51748
# Poissons Ratio (z) = 0.51357 0.51357
#
# Static dielectric constant tensor:
#      x y z
#    x 3.889850 0.000000 0.000000 
#    y 0.000000 3.889850 0.000000 
#    z 0.000000 0.000000 3.649160 
# 
# 
# High freq. dielectric constant tensor:
#      x y z
#    x 1.809810 0.000000 0.000000 
#    y 0.000000 1.809810 0.000000 
#    z 0.000000 0.000000 1.806390 
# 
# From -- ./inp_files/1450.got.cif
#   From: 2010.03.12/outbox.cif.g09.slc.cpg/sg82_1_cif.got.tgz:1450.got - 2010.04.08 20:02:50.
