data_PCOD8302452
_publ_section_title
;
Structure prediction by ZEFSAII (Michael W. Deem and Ramdas Pophale) SiO2 
 PCOD8302452
Probable space group: I -4 
;
_chemical_formula_sum "Si O2"
_cell_formula_units_Z 34
_cell_length_a 12.006495
_cell_length_b 12.006495
_cell_length_c 11.755011
_cell_angle_alpha 90.000000
_cell_angle_beta 90.000000
_cell_angle_gamma 90.000000
_cell_volume 1694.554451
_symmetry_space_group_name_H-M "I -4 "
_symmetry_group_IT_number 82
_symmetry_cell_setting 'tetragonal'
loop_
_space_group_symop_operation_xyz
x,y,z
y,-x,-z
-x,-y,z
-y,x,-z
1/2+x,1/2+y,1/2+z
1/2+y,1/2-x,1/2-z
1/2-x,1/2-y,1/2+z
1/2-y,1/2+x,1/2-z
loop_
_atom_site_type_symbol
_atom_site_label
_atom_site_fract_x
_atom_site_fract_y
_atom_site_fract_z
Si Si1 0.152463 0.259621 0.755302
Si Si2 0.933421 0.843701 0.540171
Si Si3 0.144355 0.350069 0.387719
Si Si4 0.366300 0.027364 0.100108
Si Si5 0.000000 0.500000 0.250000
O O1 0.098052 0.164829 0.673733
O O2 0.263702 0.205462 0.807742
O O3 0.170437 0.371871 0.683149
O O4 0.077006 0.292463 0.861921
O O5 0.907541 0.729299 0.481290
O O6 0.064077 0.865314 0.529120
O O7 0.179470 0.452588 0.470905
O O8 0.039239 0.390391 0.315694
O O9 0.500000 0.000000 0.106725
#
# Coordination Sequence:
#
# PCOD8302452 Si02
#       5
#     8   8   8   8   2
#     4  11  21  39  66  95 121 175 221 273 329 401
#     4  10  22  40  61  90 127 168 220 273 326 394
#     4  11  25  36  65  93 129 169 216 276 330 400
#     4  11  21  40  67  93 129 169 224 271 325 408
#     4  12  24  44  56  90 136 168 212 276 348 386
#
# _framework density 20.064271999999999
#
# number of rings (size 3 to 8) (size 9 to 14) (size 15 to 20)
#    0.000    1.176    3.529    2.824    3.294    3.765 
#    0.000    4.706    0.000    0.000    0.000    0.000 
#    0.000    0.000    0.000    0.000    0.000    0.000 
#
# Total GULP energy -210642.337743 kJ/mol
# GULP energy per Si atom -12390.725750 kJ/mol
# Density = 2.001860 g / cm^3
# Si number density = 20.064272 Si / 1000 Ang^3
#
#
#
# Elastic Constant Matrix: (Units=GPa)
#
#
# Indices 1 2 3 4 5 6 
#
# 1 97.7703 23.3070 36.7144 0.0000 0.0000 6.6574
# 2 23.3070 97.7703 36.7144 0.0000 0.0000 -6.6574
# 3 36.7144 36.7144 96.9098 0.0000 0.0000 0.0000
# 4 0.0000 0.0000 0.0000 32.5347 0.0000 0.0000
# 5 0.0000 0.0000 0.0000 0.0000 32.5347 0.0000
# 6 6.6574 -6.6574 0.0000 0.0000 0.0000 53.3601
#
#
#
# Elastic Compliance Matrix: (Units=1/GPa)
#
#
# Indices 1 2 3 4 5 6 
#
# 1 0.012229 -0.001507 -0.004062 0.000000 0.000000 -0.001714
# 2 -0.001507 0.012229 -0.004062 0.000000 0.000000 0.001714
# 3 -0.004062 -0.004062 0.013397 0.000000 0.000000 0.000000
# 4 0.000000 0.000000 0.000000 0.030736 0.000000 0.000000
# 5 0.000000 0.000000 0.000000 0.000000 0.030736 0.000000
# 6 -0.001714 0.001714 0.000000 0.000000 0.000000 0.019168
#
#
# Mechanical properties :
#
#
# Convention : Reuss Voigt Hill
#
# Bulk Modulus (GPa) = 53.78316 53.99135 53.88726
# Shear Modulus (GPa) = 34.73264 36.73357 35.73310
#
# Velocity S-wave (km/s) = 4.16513 4.28342 4.22469
# Velocity P-wave (km/s) = 7.07069 7.17156 7.12130
#
# Compressibility (1/GPa) = 0.01859318
#
# Stress axis : x y z
#
# Youngs Moduli (GPa) = 81.77045 81.77045 74.64395
#
# Poissons Ratio (x) = 0.12319 0.30323
# Poissons Ratio (y) = 0.12319 0.30323
# Poissons Ratio (z) = 0.33218 0.33218
#
# Static dielectric constant tensor:
#      x y z
#    x 3.724370 0.000000 0.000000 
#    y 0.000000 3.724370 0.000000 
#    z 0.000000 0.000000 3.960510 
# 
# 
# High freq. dielectric constant tensor:
#      x y z
#    x 1.776900 0.000000 0.000000 
#    y 0.000000 1.776900 0.000000 
#    z 0.000000 0.000000 1.800850 
# 
# From -- ./inp_files/1526.got.cif
#   From: 2010.03.12/outbox.cif.g09.slc.cpg/sg82_1_cif.got.tgz:1526.got - 2010.04.08 20:02:50.
