data_PCOD8302411
_publ_section_title
;
Structure prediction by ZEFSAII (Michael W. Deem and Ramdas Pophale) SiO2 
 PCOD8302411
Probable space group: I -4 
;
_chemical_formula_sum "Si O2"
_cell_formula_units_Z 48
_cell_length_a 11.010365
_cell_length_b 11.010365
_cell_length_c 19.309780
_cell_angle_alpha 90.000000
_cell_angle_beta 90.000000
_cell_angle_gamma 90.000000
_cell_volume 2340.888664
_symmetry_space_group_name_H-M "I -4 "
_symmetry_group_IT_number 82
_symmetry_cell_setting 'tetragonal'
loop_
_space_group_symop_operation_xyz
x,y,z
y,-x,-z
-x,-y,z
-y,x,-z
1/2+x,1/2+y,1/2+z
1/2+y,1/2-x,1/2-z
1/2-x,1/2-y,1/2+z
1/2-y,1/2+x,1/2-z
loop_
_atom_site_type_symbol
_atom_site_label
_atom_site_fract_x
_atom_site_fract_y
_atom_site_fract_z
Si Si1 0.772094 0.883547 0.808133
Si Si2 0.036789 0.248381 0.318076
Si Si3 0.064496 0.388655 0.108116
Si Si4 0.530160 0.639561 0.408300
Si Si5 0.298884 0.709789 0.471220
Si Si6 0.919891 0.840016 0.469151
O O1 0.672126 0.780493 0.790398
O O2 0.889435 0.818154 0.842179
O O3 0.819672 0.961473 0.742269
O O4 0.714475 0.972884 0.866032
O O5 0.042936 0.169399 0.388426
O O6 0.960428 0.372439 0.328380
O O7 0.168907 0.328429 0.061957
O O8 0.000000 0.500000 0.065526
O O9 0.500000 0.500000 0.396539
O O10 0.407023 0.720900 0.414040
O O11 0.606723 0.655226 0.477605
O O12 0.276169 0.837757 0.509700
O O13 0.036335 0.843535 0.519696
#
# Coordination Sequence:
#
# PCOD8302411 Si02
#       6
#     8   8   8   8   8   8
#     4  11  21  37  60  94 130 166 216 266 322 373
#     4  11  21  39  63  91 127 168 217 267 312 381
#     4  10  21  33  59  94 128 167 209 262 319 372
#     4  12  22  35  57  94 130 163 201 264 328 373
#     4  12  21  39  61  90 133 164 211 266 325 392
#     4  11  25  44  63  90 129 173 218 263 327 395
#
# _framework density 20.505034999999999
#
# number of rings (size 3 to 8) (size 9 to 14) (size 15 to 20)
#    0.000    0.833    8.333    0.000    2.333    0.000 
#    3.000    0.000    0.000    0.000    0.000    0.000 
#    0.000    0.000    0.000    0.000    0.000    0.000 
#
# Total GULP energy -297480.588526 kJ/mol
# GULP energy per Si atom -12395.024522 kJ/mol
# Density = 2.045836 g / cm^3
# Si number density = 20.505035 Si / 1000 Ang^3
#
#
#
# Elastic Constant Matrix: (Units=GPa)
#
#
# Indices 1 2 3 4 5 6 
#
# 1 81.8889 28.2780 37.9514 0.0000 0.0000 4.9995
# 2 28.2780 81.8889 37.9514 0.0000 0.0000 -4.9995
# 3 37.9514 37.9514 105.5981 0.0000 0.0000 0.0000
# 4 0.0000 0.0000 0.0000 29.2973 0.0000 0.0000
# 5 0.0000 0.0000 0.0000 0.0000 29.2973 0.0000
# 6 4.9995 -4.9995 0.0000 0.0000 0.0000 35.6734
#
#
#
# Elastic Compliance Matrix: (Units=1/GPa)
#
#
# Indices 1 2 3 4 5 6 
#
# 1 0.015609 -0.003545 -0.004336 0.000000 0.000000 -0.002684
# 2 -0.003545 0.015609 -0.004336 0.000000 0.000000 0.002684
# 3 -0.004336 -0.004336 0.012586 0.000000 0.000000 0.000000
# 4 0.000000 0.000000 0.000000 0.034133 0.000000 0.000000
# 5 0.000000 0.000000 0.000000 0.000000 0.034133 0.000000
# 6 -0.002684 0.002684 0.000000 0.000000 0.000000 0.028784
#
#
# Mechanical properties :
#
#
# Convention : Reuss Voigt Hill
#
# Bulk Modulus (GPa) = 51.62141 53.08194 52.35168
# Shear Modulus (GPa) = 29.11298 29.86660 29.48979
#
# Velocity S-wave (km/s) = 3.77211 3.82062 3.79644
# Velocity P-wave (km/s) = 6.64841 6.73842 6.69357
#
# Compressibility (1/GPa) = 0.01937181
#
# Stress axis : x y z
#
# Youngs Moduli (GPa) = 64.06541 64.06541 79.45033
#
# Poissons Ratio (x) = 0.22708 0.34449
# Poissons Ratio (y) = 0.22708 0.34449
# Poissons Ratio (z) = 0.27778 0.27778
#
# Static dielectric constant tensor:
#      x y z
#    x 3.818560 0.000000 0.000000 
#    y 0.000000 3.818560 0.000000 
#    z 0.000000 0.000000 3.568550 
# 
# 
# High freq. dielectric constant tensor:
#      x y z
#    x 1.792000 0.000000 0.000000 
#    y 0.000000 1.792000 0.000000 
#    z 0.000000 0.000000 1.781430 
# 
# From -- ./inp_files/3059.got.cif
#   From: 2010.03.12/outbox.cif.g09.slc.cpg/sg82_2_cif.got.tgz:3059.got - 2010.04.08 20:02:50.
