data_PCOD8302085
_publ_section_title
;
Structure prediction by ZEFSAII (Michael W. Deem and Ramdas Pophale) SiO2 
 PCOD8302085
Probable space group: I 4
;
_chemical_formula_sum "Si O2"
_cell_formula_units_Z 64
_cell_length_a 11.357066
_cell_length_b 11.357066
_cell_length_c 27.212664
_cell_angle_alpha 90.000000
_cell_angle_beta 90.000000
_cell_angle_gamma 90.000000
_cell_volume 3509.969629
_symmetry_space_group_name_H-M "I 4"
_symmetry_group_IT_number 79
_symmetry_cell_setting 'tetragonal'
loop_
_space_group_symop_operation_xyz
x,y,z
-y,x,z
-x,-y,z
y,-x,z
1/2+x,1/2+y,1/2+z
1/2-y,1/2+x,1/2+z
1/2-x,1/2-y,1/2+z
1/2+y,1/2-x,1/2+z
loop_
_atom_site_type_symbol
_atom_site_label
_atom_site_fract_x
_atom_site_fract_y
_atom_site_fract_z
Si Si1 0.183782 0.034649 0.623400
Si Si2 0.178974 0.930636 0.887457
Si Si3 0.393065 0.920673 0.072068
Si Si4 0.932952 0.183032 0.245188
Si Si5 0.936181 0.816567 0.998740
Si Si6 0.735184 0.911040 0.729183
Si Si7 0.213849 0.634917 0.289946
Si Si8 0.859859 0.485681 0.676308
O O1 0.300318 0.052003 0.591889
O O2 0.199062 0.033020 0.682314
O O3 0.092898 0.135966 0.608145
O O4 0.274149 0.889913 0.847794
O O5 0.065730 0.850797 0.878481
O O6 0.226219 0.916456 0.942859
O O7 0.293674 0.898433 0.031673
O O8 0.330750 0.983094 0.118625
O O9 0.500000 0.000000 0.050622
O O10 0.891086 0.268216 0.289274
O O11 0.068749 0.147675 0.246746
O O12 0.914690 0.270342 0.197508
O O13 0.071390 0.852573 0.009165
O O14 0.818779 0.833548 0.764086
O O15 0.632697 0.827910 0.706726
O O16 0.678776 0.015297 0.761946
O O17 0.000000 0.500000 0.683524
#
# Coordination Sequence:
#
# PCOD8302085 Si02
#       8
#     8   8   8   8   8   8   8   8
#     4  10  21  35  53  83 120 151 181 228 287 346
#     4   9  18  33  58  91 116 139 182 240 303 347
#     4  10  23  36  61  82 113 152 197 240 289 348
#     4  11  24  38  53  76 117 165 201 229 268 335
#     4   9  20  40  63  85 114 148 187 250 307 349
#     4  11  20  30  55  85 116 147 182 227 285 346
#     4  12  20  32  59  86 117 150 184 229 291 344
#     4  10  20  37  53  80 112 151 191 236 276 328
#
# _framework density 18.233775000000001
#
# number of rings (size 3 to 8) (size 9 to 14) (size 15 to 20)
#    0.000    1.750    5.000    0.750    1.750    1.250 
#    0.000    1.250    8.250    0.000    0.000    1.750 
#    0.000    0.000    0.000    0.000    0.000    0.000 
#
# Total GULP energy -396515.050529 kJ/mol
# GULP energy per Si atom -12391.095329 kJ/mol
# Density = 1.819227 g / cm^3
# Si number density = 18.233775 Si / 1000 Ang^3
#
#
#
# Elastic Constant Matrix: (Units=GPa)
#
#
# Indices 1 2 3 4 5 6 
#
# 1 82.4718 33.4991 42.3804 0.0000 0.0000 -3.6231
# 2 33.4991 82.4718 42.3804 0.0000 0.0000 3.6231
# 3 42.3804 42.3804 107.3265 0.0000 0.0000 0.0000
# 4 0.0000 0.0000 0.0000 25.5383 0.0000 0.0000
# 5 0.0000 0.0000 0.0000 0.0000 25.5383 0.0000
# 6 -3.6231 3.6231 0.0000 0.0000 0.0000 23.4145
#
#
#
# Elastic Compliance Matrix: (Units=1/GPa)
#
#
# Indices 1 2 3 4 5 6 
#
# 1 0.016510 -0.004388 -0.004786 0.000000 0.000000 0.003234
# 2 -0.004388 0.016510 -0.004786 0.000000 0.000000 -0.003234
# 3 -0.004786 -0.004786 0.013097 0.000000 0.000000 0.000000
# 4 0.000000 0.000000 0.000000 0.039157 0.000000 0.000000
# 5 0.000000 0.000000 0.000000 0.000000 0.039157 0.000000
# 6 0.003234 -0.003234 0.000000 0.000000 0.000000 0.043709
#
#
# Mechanical properties :
#
#
# Convention : Reuss Voigt Hill
#
# Bulk Modulus (GPa) = 54.96229 56.53220 55.74724
# Shear Modulus (GPa) = 24.73701 25.16556 24.95128
#
# Velocity S-wave (km/s) = 3.68728 3.71908 3.70322
# Velocity P-wave (km/s) = 6.95245 7.03658 6.99465
#
# Compressibility (1/GPa) = 0.01819429
#
# Stress axis : x y z
#
# Youngs Moduli (GPa) = 60.57111 60.57111 76.35154
#
# Poissons Ratio (x) = 0.26581 0.36544
# Poissons Ratio (y) = 0.26581 0.36544
# Poissons Ratio (z) = 0.28991 0.28991
#
# Static dielectric constant tensor:
#      x y z
#    x 3.360700 0.000000 0.000000 
#    y 0.000000 3.360700 0.000000 
#    z 0.000000 0.000000 3.241280 
# 
# 
# High freq. dielectric constant tensor:
#      x y z
#    x 1.706740 0.000000 0.000000 
#    y 0.000000 1.706740 0.000000 
#    z 0.000000 0.000000 1.681170 
# 
# From -- ./inp_files/1995.got.cif
#   From: 2010.03.12/outbox.cif.g09.slc.cpg/sg79_cif.got.tgz:1995.got - 2010.04.16 16:38:49.
