data_PCOD8302687
_publ_section_title
;
Structure prediction by ZEFSAII (Michael W. Deem and Ramdas Pophale) SiO2 
 PCOD8302687
Probable space group: P 4/M
;
_chemical_formula_sum "Si O2"
_cell_formula_units_Z 28
_cell_length_a 12.370004
_cell_length_b 12.370004
_cell_length_c 11.051383
_cell_angle_alpha 90.000000
_cell_angle_beta 90.000000
_cell_angle_gamma 90.000000
_cell_volume 1691.049461
_symmetry_space_group_name_H-M "P 4/M"
_symmetry_group_IT_number 83
_symmetry_cell_setting 'tetragonal'
loop_
_space_group_symop_operation_xyz
x,y,z
-y,x,z
-x,-y,z
y,-x,z
-x,-y,-z
y,-x,-z
x,y,-z
-y,x,-z
loop_
_atom_site_type_symbol
_atom_site_label
_atom_site_fract_x
_atom_site_fract_y
_atom_site_fract_z
Si Si1 0.544127 0.324550 0.000000
Si Si2 0.373160 0.986444 0.633421
Si Si3 0.374149 0.224379 0.360417
Si Si4 0.601619 0.226211 0.248680
O O1 0.629249 0.422715 0.000000
O O2 0.560852 0.244900 0.887002
O O3 0.325809 0.955928 0.500000
O O4 0.345201 0.893193 0.731453
O O5 0.500000 0.000000 0.620475
O O6 0.330131 0.104377 0.675528
O O7 0.348959 0.248386 0.500000
O O8 0.502169 0.237529 0.340825
O O9 0.315755 0.309762 0.275928
#
# Coordination Sequence:
#
# PCOD8302687 Si02
#       4
#     4   8   8   8
#     4  11  22  36  45  67 109 144 161 206 249 283
#     4   8  16  31  49  72 100 126 158 210 257 289
#     4  10  19  31  51  77 101 127 163 208 257 302
#     4  11  19  33  50  70  99 137 169 196 249 300
#
# _framework density 16.557766999999998
#
# number of rings (size 3 to 8) (size 9 to 14) (size 15 to 20)
#    0.000    2.143    2.857    4.286    0.000    0.571 
#    0.000    9.286    0.000    0.857    0.000    4.000 
#    0.000    2.286    0.000    0.000    0.000    0.000 
#
# Total GULP energy -347019.527614 kJ/mol
# GULP energy per Si atom -12393.554558 kJ/mol
# Density = 1.652008 g / cm^3
# Si number density = 16.557767 Si / 1000 Ang^3
#
#
#
# Elastic Constant Matrix: (Units=GPa)
#
#
# Indices 1 2 3 4 5 6 
#
# 1 67.0204 23.2502 22.6644 0.0000 0.0000 -3.8467
# 2 23.2502 67.0204 22.6644 0.0000 0.0000 3.8467
# 3 22.6644 22.6644 74.8347 0.0000 0.0000 0.0000
# 4 0.0000 0.0000 0.0000 16.1460 0.0000 0.0000
# 5 0.0000 0.0000 0.0000 0.0000 16.1460 0.0000
# 6 -3.8467 3.8467 0.0000 0.0000 0.0000 2.1927
#
#
#
# Elastic Compliance Matrix: (Units=1/GPa)
#
#
# Indices 1 2 3 4 5 6 
#
# 1 0.023048 -0.009984 -0.003957 0.000000 0.000000 0.057949
# 2 -0.009984 0.023048 -0.003957 0.000000 0.000000 -0.057949
# 3 -0.003957 -0.003957 0.015759 0.000000 0.000000 0.000000
# 4 0.000000 0.000000 0.000000 0.061935 0.000000 0.000000
# 5 0.000000 0.000000 0.000000 0.000000 0.061935 0.000000
# 6 0.057949 -0.057949 0.000000 0.000000 0.000000 0.659385
#
#
# Mechanical properties :
#
#
# Convention : Reuss Voigt Hill
#
# Bulk Modulus (GPa) = 38.37038 38.44816 38.40927
# Shear Modulus (GPa) = 5.62055 16.25001 10.93528
#
# Velocity S-wave (km/s) = 1.84442 3.13615 2.57268
# Velocity P-wave (km/s) = 5.26876 6.03199 5.66325
#
# Compressibility (1/GPa) = 0.02606177
#
# Stress axis : x y z
#
# Youngs Moduli (GPa) = 43.38695 43.38695 63.45388
#
# Poissons Ratio (x) = 0.43316 0.25107
# Poissons Ratio (y) = 0.43316 0.25107
# Poissons Ratio (z) = 0.17167 0.17167
#
# Static dielectric constant tensor:
#      x y z
#    x 3.193940 0.000000 0.000000 
#    y 0.000000 3.193940 0.000000 
#    z 0.000000 0.000000 2.994100 
# 
# 
# High freq. dielectric constant tensor:
#      x y z
#    x 1.621350 0.000000 0.000000 
#    y 0.000000 1.621350 0.000000 
#    z 0.000000 0.000000 1.627640 
# 
# From -- ./inp_files/1431.got.cif
#   From: 2010.03.12/outbox.cif.g09.slc.cpg/sg83_1_cif.got.tgz:1431.got - 2010.04.08 20:05:18.
