data_PCOD8302494
_publ_section_title
;
Structure prediction by ZEFSAII (Michael W. Deem and Ramdas Pophale) SiO2 
 PCOD8302494
Probable space group: I -4 
;
_chemical_formula_sum "Si O2"
_cell_formula_units_Z 48
_cell_length_a 8.830020
_cell_length_b 8.830020
_cell_length_c 29.806004
_cell_angle_alpha 90.000000
_cell_angle_beta 90.000000
_cell_angle_gamma 90.000000
_cell_volume 2323.951873
_symmetry_space_group_name_H-M "I -4 "
_symmetry_group_IT_number 82
_symmetry_cell_setting 'tetragonal'
loop_
_space_group_symop_operation_xyz
x,y,z
y,-x,-z
-x,-y,z
-y,x,-z
1/2+x,1/2+y,1/2+z
1/2+y,1/2-x,1/2-z
1/2-x,1/2-y,1/2+z
1/2-y,1/2+x,1/2-z
loop_
_atom_site_type_symbol
_atom_site_label
_atom_site_fract_x
_atom_site_fract_y
_atom_site_fract_z
Si Si1 0.389657 0.674462 0.900295
Si Si2 0.220448 0.647747 0.041294
Si Si3 0.249716 0.479218 0.748420
Si Si4 0.837512 0.507073 0.951008
Si Si5 0.000000 0.000000 0.679069
Si Si6 0.492669 0.179577 0.621564
Si Si7 0.000000 0.000000 0.174755
O O1 0.508873 0.678424 0.940858
O O2 0.276819 0.539431 0.911848
O O3 0.470092 0.644501 0.852596
O O4 0.292222 0.825084 0.896070
O O5 0.324401 0.794498 0.033351
O O6 0.094652 0.685060 0.077712
O O7 0.151125 0.605380 0.993421
O O8 0.161986 0.636891 0.753315
O O9 0.355490 0.457433 0.791425
O O10 0.349103 0.477661 0.703652
O O11 0.000000 0.500000 0.927548
O O12 0.527279 0.334502 0.650088
O O13 0.500000 0.000000 0.641789
#
# Coordination Sequence:
#
# PCOD8302494 Si02
#       7
#     8   8   8   8   4   8   4
#     4  11  22  41  65  94 126 175 222 286 327 413
#     4  11  23  43  63  92 134 175 228 284 341 409
#     4  10  24  45  68  99 138 176 216 286 354 426
#     4  12  24  39  65  95 129 182 225 275 350 414
#     4  11  22  40  71  96 127 171 232 267 344 415
#     4  10  25  43  67  99 138 176 231 298 345 420
#     4  11  24  46  74 101 141 187 231 288 368 431
#
# _framework density 20.654475000000001
#
# number of rings (size 3 to 8) (size 9 to 14) (size 15 to 20)
#    0.000    1.167    3.333    2.500    7.000    0.000 
#    3.000    0.000    0.000    0.000    0.000    0.000 
#    0.000    0.000    0.000    0.000    0.000    0.000 
#
# Total GULP energy -297316.442707 kJ/mol
# GULP energy per Si atom -12388.185113 kJ/mol
# Density = 2.060746 g / cm^3
# Si number density = 20.654475 Si / 1000 Ang^3
#
#
#
# Elastic Constant Matrix: (Units=GPa)
#
#
# Indices 1 2 3 4 5 6 
#
# 1 113.6727 44.1495 38.4956 0.0000 0.0000 -6.5569
# 2 44.1495 113.6727 38.4956 0.0000 0.0000 6.5569
# 3 38.4956 38.4956 94.0675 0.0000 0.0000 0.0000
# 4 0.0000 0.0000 0.0000 32.1902 0.0000 0.0000
# 5 0.0000 0.0000 0.0000 0.0000 32.1902 0.0000
# 6 -6.5569 6.5569 0.0000 0.0000 0.0000 20.2608
#
#
#
# Elastic Compliance Matrix: (Units=1/GPa)
#
#
# Indices 1 2 3 4 5 6 
#
# 1 0.011618 -0.003701 -0.003240 0.000000 0.000000 0.004958
# 2 -0.003701 0.011618 -0.003240 0.000000 0.000000 -0.004958
# 3 -0.003240 -0.003240 0.013282 0.000000 0.000000 0.000000
# 4 0.000000 0.000000 0.000000 0.031065 0.000000 0.000000
# 5 0.000000 0.000000 0.000000 0.000000 0.031065 0.000000
# 6 0.004958 -0.004958 0.000000 0.000000 0.000000 0.052565
#
#
# Mechanical properties :
#
#
# Convention : Reuss Voigt Hill
#
# Bulk Modulus (GPa) = 61.89416 62.63271 62.26343
# Shear Modulus (GPa) = 28.25486 30.27972 29.26729
#
# Velocity S-wave (km/s) = 3.70263 3.83301 3.76838
# Velocity P-wave (km/s) = 6.95060 7.06959 7.01035
#
# Compressibility (1/GPa) = 0.01615661
#
# Stress axis : x y z
#
# Youngs Moduli (GPa) = 86.07498 86.07498 75.28798
#
# Poissons Ratio (x) = 0.31857 0.24392
# Poissons Ratio (y) = 0.31857 0.24392
# Poissons Ratio (z) = 0.27887 0.27887
#
# Static dielectric constant tensor:
#      x y z
#    x 3.977030 0.000000 0.000000 
#    y 0.000000 3.977030 0.000000 
#    z 0.000000 0.000000 3.637970 
# 
# 
# High freq. dielectric constant tensor:
#      x y z
#    x 1.818210 0.000000 0.000000 
#    y 0.000000 1.818210 0.000000 
#    z 0.000000 0.000000 1.797250 
# 
# From -- ./inp_files/4068.got.cif
#   From: 2010.03.12/outbox.cif.g09.slc.cpg/sg82_3_cif.got.tgz:4068.got - 2010.04.08 20:02:50.
