data_PCOD8302153
_publ_section_title
;
Structure prediction by ZEFSAII (Michael W. Deem and Ramdas Pophale) SiO2 
 PCOD8302153
Probable space group: I 41
;
_chemical_formula_sum "Si O2"
_cell_formula_units_Z 60
_cell_length_a 11.148984
_cell_length_b 11.148984
_cell_length_c 23.801572
_cell_angle_alpha 90.000000
_cell_angle_beta 90.000000
_cell_angle_gamma 90.000000
_cell_volume 2958.531692
_symmetry_space_group_name_H-M "I 41"
_symmetry_group_IT_number 80
_symmetry_cell_setting 'tetragonal'
loop_
_space_group_symop_operation_xyz
x,y,z
-y,1/2+x,1/4+z
-x,-y,z
y,1/2-x,1/4+z
1/2+x,1/2+y,1/2+z
1/2-y,x,3/4+z
1/2-x,1/2-y,1/2+z
1/2+y,-x,3/4+z
loop_
_atom_site_type_symbol
_atom_site_label
_atom_site_fract_x
_atom_site_fract_y
_atom_site_fract_z
Si Si1 0.000000 0.000000 0.750000
Si Si2 0.158363 0.098214 0.559703
Si Si3 0.007857 0.742530 0.057213
Si Si4 0.862747 0.527424 0.193173
Si Si5 0.767525 0.700322 0.381807
Si Si6 0.131261 0.759542 0.849425
Si Si7 0.021850 0.839777 0.649241
Si Si8 0.599218 0.598773 0.934578
O O1 0.889573 0.956909 0.789193
O O2 0.946178 0.100760 0.708776
O O3 0.234299 0.216159 0.575597
O O4 0.088483 0.118816 0.501296
O O5 0.063825 0.076015 0.610561
O O6 0.239000 0.977106 0.554555
O O7 0.145878 0.726449 0.075967
O O8 0.998607 0.838745 0.008084
O O9 0.933397 0.797415 0.109601
O O10 0.815023 0.661502 0.178377
O O11 0.793042 0.428975 0.157977
O O12 0.000000 0.500000 0.179105
O O13 0.889330 0.767494 0.405267
O O14 0.201214 0.636722 0.862896
O O15 0.949008 0.724573 0.664974
O O16 0.500000 0.500000 0.914400
#
# Coordination Sequence:
#
# PCOD8302153 Si02
#       8
#     4   8   8   8   8   8   8   8
#     4  12  18  34  60  98 118 146 186 260 330 374
#     4  10  19  34  60  90 117 149 189 257 327 364
#     4  12  22  34  62  88 124 166 194 244 322 365
#     4  11  21  39  58  89 127 160 204 251 307 379
#     4  10  21  38  58  89 121 157 206 257 300 378
#     4  11  20  35  57  90 125 148 192 256 309 382
#     4  11  20  36  58  89 123 146 198 257 312 367
#     4  11  23  38  59  84 118 162 207 250 303 368
#
# _framework density 20.280329999999999
#
# number of rings (size 3 to 8) (size 9 to 14) (size 15 to 20)
#    0.000    1.067    4.000    6.400    0.000    0.000 
#    2.400    0.000    0.000    0.000    0.000    0.000 
#    0.000    0.000    0.000    0.000    0.000    0.000 
#
# Total GULP energy -371698.260724 kJ/mol
# GULP energy per Si atom -12389.942024 kJ/mol
# Density = 2.023417 g / cm^3
# Si number density = 20.280330 Si / 1000 Ang^3
#
#
#
# Elastic Constant Matrix: (Units=GPa)
#
#
# Indices 1 2 3 4 5 6 
#
# 1 69.1961 14.3834 22.3173 0.0000 0.0000 -1.9159
# 2 14.3834 69.1961 22.3173 0.0000 0.0000 1.9159
# 3 22.3173 22.3173 80.2981 0.0000 0.0000 0.0000
# 4 0.0000 0.0000 0.0000 15.9180 0.0000 0.0000
# 5 0.0000 0.0000 0.0000 0.0000 15.9180 0.0000
# 6 -1.9159 1.9159 0.0000 0.0000 0.0000 35.4216
#
#
#
# Elastic Compliance Matrix: (Units=1/GPa)
#
#
# Indices 1 2 3 4 5 6 
#
# 1 0.016182 -0.002132 -0.003905 0.000000 0.000000 0.000991
# 2 -0.002132 0.016182 -0.003905 0.000000 0.000000 -0.000991
# 3 -0.003905 -0.003905 0.014624 0.000000 0.000000 0.000000
# 4 0.000000 0.000000 0.000000 0.062822 0.000000 0.000000
# 5 0.000000 0.000000 0.000000 0.000000 0.062822 0.000000
# 6 0.000991 -0.000991 0.000000 0.000000 0.000000 0.028339
#
#
# Mechanical properties :
#
#
# Convention : Reuss Voigt Hill
#
# Bulk Modulus (GPa) = 36.89421 37.41405 37.15413
# Shear Modulus (GPa) = 21.74973 24.09632 22.92303
#
# Velocity S-wave (km/s) = 3.27839 3.45071 3.36565
# Velocity P-wave (km/s) = 5.70632 5.86217 5.78477
#
# Compressibility (1/GPa) = 0.02710452
#
# Stress axis : x y z
#
# Youngs Moduli (GPa) = 61.79847 61.79847 68.37984
#
# Poissons Ratio (x) = 0.13173 0.26702
# Poissons Ratio (y) = 0.13173 0.26702
# Poissons Ratio (z) = 0.24132 0.24132
#
# Static dielectric constant tensor:
#      x y z
#    x 3.790550 0.000000 0.000000 
#    y 0.000000 3.790550 0.000000 
#    z 0.000000 0.000000 3.778490 
# 
# 
# High freq. dielectric constant tensor:
#      x y z
#    x 1.771860 0.000000 0.000000 
#    y 0.000000 1.771860 0.000000 
#    z 0.000000 0.000000 1.791360 
# 
# From -- ./inp_files/1849.got.cif
#   From: 2010.03.12/outbox.cif.g09.slc.cpg/sg80_cif.got.tgz:1849.got - 2010.04.08 20:00:04.
