data_PCOD8302863
_publ_section_title
;
Structure prediction by ZEFSAII (Michael W. Deem and Ramdas Pophale) SiO2 
 PCOD8302863
Probable space group: P 4/M
;
_chemical_formula_sum "Si O2"
_cell_formula_units_Z 44
_cell_length_a 14.708789
_cell_length_b 14.708789
_cell_length_c 10.823299
_cell_angle_alpha 90.000000
_cell_angle_beta 90.000000
_cell_angle_gamma 90.000000
_cell_volume 2341.604221
_symmetry_space_group_name_H-M "P 4/M"
_symmetry_group_IT_number 83
_symmetry_cell_setting 'tetragonal'
loop_
_space_group_symop_operation_xyz
x,y,z
-y,x,z
-x,-y,z
y,-x,z
-x,-y,-z
y,-x,-z
x,y,-z
-y,x,-z
loop_
_atom_site_type_symbol
_atom_site_label
_atom_site_fract_x
_atom_site_fract_y
_atom_site_fract_z
Si Si1 0.629421 0.236742 0.204163
Si Si2 0.796109 0.181613 0.360849
Si Si3 0.622802 0.590095 0.000000
Si Si4 0.601451 0.033522 0.863130
Si Si5 0.729024 0.985084 0.358747
Si Si6 0.524451 0.358347 0.644779
O O1 0.727223 0.231985 0.269641
O O2 0.604695 0.142679 0.139607
O O3 0.548878 0.258980 0.302504
O O4 0.631035 0.322857 0.114694
O O5 0.769682 0.210569 0.500000
O O6 0.898261 0.209788 0.328911
O O7 0.792381 0.073143 0.345176
O O8 0.519743 0.626267 0.000000
O O9 0.500000 0.000000 0.849946
O O10 0.652519 0.989007 0.746885
O O11 0.639794 0.004755 0.000000
O O12 0.688495 0.980601 0.500000
O O13 0.603486 0.427999 0.691391
O O14 0.522160 0.351658 0.500000
#
# Coordination Sequence:
#
# PCOD8302863 Si02
#       6
#     8   8   4   8   8   8
#     4  11  20  36  55  78 109 148 188 232 277 336
#     4   9  19  36  59  87 115 143 181 231 286 342
#     4  11  24  38  53  78 110 145 191 240 278 322
#     4  10  22  40  56  78 113 153 193 235 284 341
#     4   9  19  37  60  87 116 147 186 235 286 342
#     4   9  18  32  51  77 109 143 180 229 287 337
#
# _framework density 18.790537
#
# number of rings (size 3 to 8) (size 9 to 14) (size 15 to 20)
#    0.000    2.273    0.909    2.182    0.000    5.818 
#    1.636    3.636    0.000    0.000    0.000    2.545 
#    0.000    0.000    0.000    0.000    0.000    0.000 
#
# Total GULP energy -545258.701507 kJ/mol
# GULP energy per Si atom -12392.243216 kJ/mol
# Density = 1.874777 g / cm^3
# Si number density = 18.790537 Si / 1000 Ang^3
#
#
#
# Elastic Constant Matrix: (Units=GPa)
#
#
# Indices 1 2 3 4 5 6 
#
# 1 85.9690 48.1340 68.5354 0.0000 0.0000 11.0666
# 2 48.1340 85.9690 68.5354 0.0000 0.0000 -11.0666
# 3 68.5354 68.5354 127.9661 0.0000 0.0000 0.0000
# 4 0.0000 0.0000 0.0000 24.7381 0.0000 0.0000
# 5 0.0000 0.0000 0.0000 0.0000 24.7381 0.0000
# 6 11.0666 -11.0666 0.0000 0.0000 0.0000 28.2308
#
#
#
# Elastic Compliance Matrix: (Units=1/GPa)
#
#
# Indices 1 2 3 4 5 6 
#
# 1 0.025386 -0.008909 -0.008825 0.000000 0.000000 -0.013444
# 2 -0.008909 0.025386 -0.008825 0.000000 0.000000 0.013444
# 3 -0.008825 -0.008825 0.017267 0.000000 0.000000 0.000000
# 4 0.000000 0.000000 0.000000 0.040423 0.000000 0.000000
# 5 0.000000 0.000000 0.000000 0.000000 0.040423 0.000000
# 6 -0.013444 0.013444 0.000000 0.000000 0.000000 0.045963
#
#
# Mechanical properties :
#
#
# Convention : Reuss Voigt Hill
#
# Bulk Modulus (GPa) = 67.01351 74.47932 70.74642
# Shear Modulus (GPa) = 19.76760 23.18802 21.47781
#
# Velocity S-wave (km/s) = 3.24697 3.51668 3.38451
# Velocity P-wave (km/s) = 7.05677 7.49747 7.28045
#
# Compressibility (1/GPa) = 0.01492236
#
# Stress axis : x y z
#
# Youngs Moduli (GPa) = 39.39179 39.39179 57.91395
#
# Poissons Ratio (x) = 0.35095 0.51107
# Poissons Ratio (y) = 0.35095 0.51107
# Poissons Ratio (z) = 0.34762 0.34762
#
# Static dielectric constant tensor:
#      x y z
#    x 3.416650 0.000000 0.000000 
#    y 0.000000 3.416650 0.000000 
#    z 0.000000 0.000000 4.041500 
# 
# 
# High freq. dielectric constant tensor:
#      x y z
#    x 1.719390 0.000000 0.000000 
#    y 0.000000 1.719390 0.000000 
#    z 0.000000 0.000000 1.750450 
# 
# From -- ./inp_files/1719.got.cif
#   From: 2010.03.12/outbox.cif.g09.slc.cpg/sg83_1_cif.got.tgz:1719.got - 2010.04.08 20:05:18.
