data_PCOD8302077
_publ_section_title
;
Structure prediction by ZEFSAII (Michael W. Deem and Ramdas Pophale) SiO2 
 PCOD8302077
Probable space group: I 4
;
_chemical_formula_sum "Si O2"
_cell_formula_units_Z 60
_cell_length_a 12.220437
_cell_length_b 12.220437
_cell_length_c 21.779009
_cell_angle_alpha 90.000000
_cell_angle_beta 90.000000
_cell_angle_gamma 90.000000
_cell_volume 3252.457178
_symmetry_space_group_name_H-M "I 4"
_symmetry_group_IT_number 79
_symmetry_cell_setting 'tetragonal'
loop_
_space_group_symop_operation_xyz
x,y,z
-y,x,z
-x,-y,z
y,-x,z
1/2+x,1/2+y,1/2+z
1/2-y,1/2+x,1/2+z
1/2-x,1/2-y,1/2+z
1/2+y,1/2-x,1/2+z
loop_
_atom_site_type_symbol
_atom_site_label
_atom_site_fract_x
_atom_site_fract_y
_atom_site_fract_z
Si Si1 0.975092 0.327701 0.506060
Si Si2 0.526269 0.325887 0.898165
Si Si3 0.500000 0.000000 0.913322
Si Si4 0.481272 0.146544 0.809142
Si Si5 0.112421 0.682408 0.084218
Si Si6 0.139698 0.285224 0.093046
Si Si7 0.906219 0.677375 0.718070
Si Si8 0.286586 0.158818 0.724671
O O1 0.931114 0.420324 0.458112
O O2 0.094073 0.362088 0.531372
O O3 0.977174 0.216223 0.468157
O O4 0.893351 0.311488 0.561944
O O5 0.623245 0.408526 0.888183
O O6 0.547565 0.240432 0.843919
O O7 0.429756 0.070440 0.863989
O O8 0.571201 0.091815 0.763097
O O9 0.374700 0.191093 0.775713
O O10 0.181592 0.791276 0.069406
O O11 0.136529 0.627187 0.150183
O O12 0.988395 0.724166 0.079197
O O13 0.158302 0.293467 0.164549
O O14 0.826078 0.776332 0.738890
O O15 0.027807 0.729559 0.718869
#
# Coordination Sequence:
#
# PCOD8302077 Si02
#       8
#     8   8   4   8   8   8   8   8
#     4  11  20  37  60  87 109 148 194 237 268 333
#     4  10  22  38  56  84 122 154 182 232 292 334
#     4  10  20  30  62  82 102 142 196 228 268 304
#     4  11  20  37  60  87 109 148 194 237 268 333
#     4  11  22  37  60  86 115 149 187 235 288 342
#     4  11  22  37  60  86 115 149 187 235 288 342
#     4  11  22  37  60  86 115 149 187 235 288 342
#     4  11  22  37  60  86 115 149 187 235 288 342
#
# _framework density 18.447590000000002
#
# number of rings (size 3 to 8) (size 9 to 14) (size 15 to 20)
#    0.000    1.200    5.333    1.600    0.000    0.533 
#    0.000    0.000    0.000    0.000    0.000    1.867 
#    0.000    0.000    0.000    0.000    0.000    0.000 
#
# Total GULP energy -371701.944771 kJ/mol
# GULP energy per Si atom -12390.064826 kJ/mol
# Density = 1.840560 g / cm^3
# Si number density = 18.447590 Si / 1000 Ang^3
#
#
#
# Elastic Constant Matrix: (Units=GPa)
#
#
# Indices 1 2 3 4 5 6 
#
# 1 82.3068 25.4883 11.4235 0.0000 0.0000 -3.4447
# 2 25.4883 82.3068 11.4235 0.0000 0.0000 3.4447
# 3 11.4235 11.4235 68.9015 0.0000 0.0000 0.0000
# 4 0.0000 0.0000 0.0000 23.3928 0.0000 0.0000
# 5 0.0000 0.0000 0.0000 0.0000 23.3928 0.0000
# 6 -3.4447 3.4447 0.0000 0.0000 0.0000 33.3101
#
#
#
# Elastic Compliance Matrix: (Units=1/GPa)
#
#
# Indices 1 2 3 4 5 6 
#
# 1 0.013719 -0.004104 -0.001594 0.000000 0.000000 0.001843
# 2 -0.004104 0.013719 -0.001594 0.000000 0.000000 -0.001843
# 3 -0.001594 -0.001594 0.015042 0.000000 0.000000 0.000000
# 4 0.000000 0.000000 0.000000 0.042748 0.000000 0.000000
# 5 0.000000 0.000000 0.000000 0.000000 0.042748 0.000000
# 6 0.001843 -0.001843 0.000000 0.000000 0.000000 0.030402
#
#
# Mechanical properties :
#
#
# Convention : Reuss Voigt Hill
#
# Bulk Modulus (GPa) = 35.84846 36.68731 36.26788
# Shear Modulus (GPa) = 27.43305 28.36447 27.89876
#
# Velocity S-wave (km/s) = 3.86045 3.92544 3.89308
# Velocity P-wave (km/s) = 6.27260 6.36207 6.31750
#
# Compressibility (1/GPa) = 0.02789520
#
# Stress axis : x y z
#
# Youngs Moduli (GPa) = 72.89127 72.89127 66.48031
#
# Poissons Ratio (x) = 0.29917 0.10597
# Poissons Ratio (y) = 0.29917 0.10597
# Poissons Ratio (z) = 0.11619 0.11619
#
# Static dielectric constant tensor:
#      x y z
#    x 3.425350 0.000000 0.000000 
#    y 0.000000 3.425350 0.000000 
#    z 0.000000 0.000000 3.607740 
# 
# 
# High freq. dielectric constant tensor:
#      x y z
#    x 1.709210 0.000000 0.000000 
#    y 0.000000 1.709210 0.000000 
#    z 0.000000 0.000000 1.731130 
# 
# From -- ./inp_files/1865.got.cif
#   From: 2010.03.12/outbox.cif.g09.slc.cpg/sg79_cif.got.tgz:1865.got - 2010.04.16 16:38:49.
