data_PCOD8302590
_publ_section_title
;
Structure prediction by ZEFSAII (Michael W. Deem and Ramdas Pophale) SiO2 
 PCOD8302590
Probable space group: I -4 
;
_chemical_formula_sum "Si O2"
_cell_formula_units_Z 42
_cell_length_a 13.626642
_cell_length_b 13.626642
_cell_length_c 9.619442
_cell_angle_alpha 90.000000
_cell_angle_beta 90.000000
_cell_angle_gamma 90.000000
_cell_volume 1786.189668
_symmetry_space_group_name_H-M "I -4 "
_symmetry_group_IT_number 82
_symmetry_cell_setting 'tetragonal'
loop_
_space_group_symop_operation_xyz
x,y,z
y,-x,-z
-x,-y,z
-y,x,-z
1/2+x,1/2+y,1/2+z
1/2+y,1/2-x,1/2-z
1/2-x,1/2-y,1/2+z
1/2-y,1/2+x,1/2-z
loop_
_atom_site_type_symbol
_atom_site_label
_atom_site_fract_x
_atom_site_fract_y
_atom_site_fract_z
Si Si1 0.000000 0.000000 0.500000
Si Si2 0.392614 0.661658 0.659366
Si Si3 0.141520 0.883675 0.853336
Si Si4 0.108348 0.482960 0.013866
Si Si5 0.304941 0.509876 0.835966
Si Si6 0.349183 0.868786 0.754799
O O1 0.898311 0.972353 0.424082
O O2 0.339469 0.640641 0.513973
O O3 0.501158 0.613295 0.663202
O O4 0.324312 0.620616 0.784604
O O5 0.403880 0.776007 0.687942
O O6 0.232502 0.856474 0.754555
O O7 0.055549 0.810458 0.803499
O O8 0.113710 0.374699 0.081226
O O9 0.118497 0.544341 0.154904
O O10 0.000000 0.500000 0.943667
O O11 0.197936 0.502577 0.907524
#
# Coordination Sequence:
#
# PCOD8302590 Si02
#       6
#     2   8   8   8   8   8
#     4  12  20  40  70 120 156 176 260 314 388 456
#     4  12  25  47  76 109 150 193 253 322 404 474
#     4  12  25  47  76 109 150 193 253 322 404 474
#     4  12  24  49  76 103 152 208 259 302 381 468
#     4  12  26  42  76 116 146 197 245 328 385 463
#     4  12  25  48  74 104 141 212 252 306 386 474
#
# _framework density 23.513739999999999
#
# number of rings (size 3 to 8) (size 9 to 14) (size 15 to 20)
#    0.000    0.000    7.619    2.286    5.333    0.000 
#    0.000    0.000    4.190    0.000    0.000    0.000 
#    0.000    0.000    0.000    0.000    0.000    0.000 
#
# Total GULP energy -260320.962641 kJ/mol
# GULP energy per Si atom -12396.236316 kJ/mol
# Density = 2.346022 g / cm^3
# Si number density = 23.513740 Si / 1000 Ang^3
#
#
#
# Elastic Constant Matrix: (Units=GPa)
#
#
# Indices 1 2 3 4 5 6 
#
# 1 127.1624 9.4939 38.2952 0.0000 0.0000 2.0056
# 2 9.4939 127.1624 38.2952 0.0000 0.0000 -2.0056
# 3 38.2952 38.2952 95.3989 0.0000 0.0000 0.0000
# 4 0.0000 0.0000 0.0000 42.8108 0.0000 0.0000
# 5 0.0000 0.0000 0.0000 0.0000 42.8108 0.0000
# 6 2.0056 -2.0056 0.0000 0.0000 0.0000 28.3874
#
#
#
# Elastic Compliance Matrix: (Units=1/GPa)
#
#
# Indices 1 2 3 4 5 6 
#
# 1 0.008980 0.000461 -0.003790 0.000000 0.000000 -0.000602
# 2 0.000461 0.008980 -0.003790 0.000000 0.000000 0.000602
# 3 -0.003790 -0.003790 0.013525 0.000000 0.000000 0.000000
# 4 0.000000 0.000000 0.000000 0.023359 0.000000 0.000000
# 5 0.000000 0.000000 0.000000 0.000000 0.023359 0.000000
# 6 -0.000602 0.000602 0.000000 0.000000 0.000000 0.035312
#
#
# Mechanical properties :
#
#
# Convention : Reuss Voigt Hill
#
# Bulk Modulus (GPa) = 57.97684 57.98803 57.98243
# Shear Modulus (GPa) = 37.45250 40.37774 38.91512
#
# Velocity S-wave (km/s) = 3.99531 4.14840 4.07258
# Velocity P-wave (km/s) = 6.78185 6.90366 6.84303
#
# Compressibility (1/GPa) = 0.01724827
#
# Stress axis : x y z
#
# Youngs Moduli (GPa) = 111.35336 111.35336 73.93595
#
# Poissons Ratio (x) = -0.05138 0.28023
# Poissons Ratio (y) = -0.05138 0.28023
# Poissons Ratio (z) = 0.42205 0.42205
#
# Static dielectric constant tensor:
#      x y z
#    x 4.234430 0.000000 0.000000 
#    y 0.000000 4.234430 0.000000 
#    z 0.000000 0.000000 4.090970 
# 
# 
# High freq. dielectric constant tensor:
#      x y z
#    x 1.935120 0.000000 0.000000 
#    y 0.000000 1.935120 0.000000 
#    z 0.000000 0.000000 1.921160 
# 
# From -- ./inp_files/971.got.cif
#   From: 2010.03.12/outbox.cif.g09.slc.cpg/sg82_1_cif.got.tgz:971.got - 2010.04.08 20:02:50.
