data_PCOD8302284
_publ_section_title
;
Structure prediction by ZEFSAII (Michael W. Deem and Ramdas Pophale) SiO2 
 PCOD8302284
Probable space group: P -4
;
_chemical_formula_sum "Si O2"
_cell_formula_units_Z 16
_cell_length_a 5.260563
_cell_length_b 5.260563
_cell_length_c 22.330347
_cell_angle_alpha 90.000000
_cell_angle_beta 90.000000
_cell_angle_gamma 90.000000
_cell_volume 617.959373
_symmetry_space_group_name_H-M "P -4"
_symmetry_group_IT_number 81
_symmetry_cell_setting 'tetragonal'
loop_
_space_group_symop_operation_xyz
x,y,z
y,-x,-z
-x,-y,z
-y,x,-z
loop_
_atom_site_type_symbol
_atom_site_label
_atom_site_fract_x
_atom_site_fract_y
_atom_site_fract_z
Si Si1 0.753185 0.165777 0.411231
Si Si2 0.752001 0.358737 0.153038
Si Si3 0.500000 0.000000 0.075717
Si Si4 0.500000 0.500000 0.000000
Si Si5 0.500000 0.500000 0.500000
Si Si6 0.837234 0.752932 0.721813
O O1 0.729519 0.395437 0.458473
O O2 0.774943 0.287162 0.344454
O O3 0.500000 0.000000 0.416047
O O4 0.000000 0.000000 0.427162
O O5 0.500000 0.500000 0.129564
O O6 0.732616 0.080582 0.121464
O O7 0.748319 0.368351 0.225536
O O8 0.000000 0.500000 0.128384
O O9 0.424980 0.244399 0.036128
O O10 0.000000 0.500000 0.725921
O O11 0.000000 0.000000 0.735035
#
# Coordination Sequence:
#
# PCOD8302284 Si02
#       6
#     4   4   2   1   1   4
#     4  10  26  47  73 108 158 208 270 335 410 491
#     4  12  27  46  82 119 162 208 268 337 409 487
#     4  12  30  58  80 126 162 228 272 342 400 486
#     4  12  32  52  86 112 172 220 284 330 400 484
#     4  12  28  44  78 104 148 220 272 334 412 488
#     4  10  21  45  73 110 156 203 258 333 409 488
#
# _framework density 25.891670000000001
#
# number of rings (size 3 to 8) (size 9 to 14) (size 15 to 20)
#    0.000    1.000    2.500    1.500    7.000    2.500 
#    0.000    0.000    0.000    0.000    0.000    0.000 
#    0.000    0.000    0.000    0.000    0.000    0.000 
#
# Total GULP energy -198306.875132 kJ/mol
# GULP energy per Si atom -12394.179696 kJ/mol
# Density = 2.583274 g / cm^3
# Si number density = 25.891670 Si / 1000 Ang^3
#
#
#
# Elastic Constant Matrix: (Units=GPa)
#
#
# Indices 1 2 3 4 5 6 
#
# 1 166.6147 63.7048 62.9404 0.0000 0.0000 -3.2751
# 2 63.7048 166.6147 62.9404 0.0000 0.0000 3.2751
# 3 62.9404 62.9404 177.5157 0.0000 0.0000 0.0000
# 4 0.0000 0.0000 0.0000 3.0664 0.0000 0.0000
# 5 0.0000 0.0000 0.0000 0.0000 3.0664 0.0000
# 6 -3.2751 3.2751 0.0000 0.0000 0.0000 44.0982
#
#
#
# Elastic Compliance Matrix: (Units=1/GPa)
#
#
# Indices 1 2 3 4 5 6 
#
# 1 0.007574 -0.002189 -0.001909 0.000000 0.000000 0.000725
# 2 -0.002189 0.007574 -0.001909 0.000000 0.000000 -0.000725
# 3 -0.001909 -0.001909 0.006987 0.000000 0.000000 0.000000
# 4 0.000000 0.000000 0.000000 0.326116 0.000000 0.000000
# 5 0.000000 0.000000 0.000000 0.000000 0.326116 0.000000
# 6 0.000725 -0.000725 0.000000 0.000000 0.000000 0.022784
#
#
# Mechanical properties :
#
#
# Convention : Reuss Voigt Hill
#
# Bulk Modulus (GPa) = 98.81113 98.87958 98.84536
# Shear Modulus (GPa) = 7.01714 31.45682 19.23698
#
# Velocity S-wave (km/s) = 1.64805 3.48938 2.72872
# Velocity P-wave (km/s) = 6.47052 7.38289 6.94171
#
# Compressibility (1/GPa) = 0.01012032
#
# Stress axis : x y z
#
# Youngs Moduli (GPa) = 132.02361 132.02361 143.11565
#
# Poissons Ratio (x) = 0.28900 0.27327
# Poissons Ratio (y) = 0.28900 0.27327
# Poissons Ratio (z) = 0.25209 0.25209
#
# Static dielectric constant tensor:
#      x y z
#    x 4.637590 0.000000 0.000000 
#    y 0.000000 4.637590 0.000000 
#    z 0.000000 0.000000 5.300420 
# 
# 
# High freq. dielectric constant tensor:
#      x y z
#    x 2.028390 0.000000 0.000000 
#    y 0.000000 2.028390 0.000000 
#    z 0.000000 0.000000 2.065420 
# 
# From -- ./inp_files/1823.got.cif
#   From: 2010.03.12/outbox.cif.g09.slc.cpg/sg81_cif.got.tgz:1823.got - 2010.04.08 20:01:38.
