data_PCOD8302932
_publ_section_title
;
Structure prediction by ZEFSAII (Michael W. Deem and Ramdas Pophale) SiO2 
 PCOD8302932
Probable space group: P 4/M
;
_chemical_formula_sum "Si O2"
_cell_formula_units_Z 40
_cell_length_a 14.778175
_cell_length_b 14.778175
_cell_length_c 8.531232
_cell_angle_alpha 90.000000
_cell_angle_beta 90.000000
_cell_angle_gamma 90.000000
_cell_volume 1863.173774
_symmetry_space_group_name_H-M "P 4/M"
_symmetry_group_IT_number 83
_symmetry_cell_setting 'tetragonal'
loop_
_space_group_symop_operation_xyz
x,y,z
-y,x,z
-x,-y,z
y,-x,z
-x,-y,-z
y,-x,-z
x,y,-z
-y,x,-z
loop_
_atom_site_type_symbol
_atom_site_label
_atom_site_fract_x
_atom_site_fract_y
_atom_site_fract_z
Si Si1 0.308758 0.101001 0.818444
Si Si2 0.607577 0.724705 0.682568
Si Si3 0.257207 0.419282 0.817028
Si Si4 0.942543 0.589515 0.682561
Si Si5 0.873338 0.926701 0.681217
O O1 0.367745 0.172040 0.721089
O O2 0.202614 0.119414 0.789195
O O3 0.328617 0.000003 0.756265
O O4 0.332851 0.112041 0.000000
O O5 0.586798 0.716942 0.500000
O O6 0.688796 0.659146 0.728913
O O7 0.515883 0.698692 0.773989
O O8 0.152924 0.416504 0.768030
O O9 0.266252 0.401321 0.000000
O O10 0.925524 0.607269 0.500000
O O11 0.000000 0.500000 0.715068
O O12 0.847685 0.912520 0.500000
O O13 0.967274 0.878853 0.721013
#
# Coordination Sequence:
#
# PCOD8302932 Si02
#       5
#     8   8   8   8   8
#     4  12  25  40  63  96 133 171 218 278 333 386
#     4  12  26  47  71  98 134 178 226 272 333 408
#     4  12  26  46  72 104 137 172 220 281 340 391
#     4  11  23  42  69  97 130 173 218 262 325 395
#     4   9  20  40  63  87 122 170 221 268 324 394
#
# _framework density 21.468744000000001
#
# number of rings (size 3 to 8) (size 9 to 14) (size 15 to 20)
#    0.000    0.800    2.000    6.600    2.800    2.000 
#    0.000    3.000    0.000    0.000    0.000    0.000 
#    0.000    0.000    0.000    0.000    0.000    0.000 
#
# Total GULP energy -496277.742151 kJ/mol
# GULP energy per Si atom -12406.943554 kJ/mol
# Density = 2.141988 g / cm^3
# Si number density = 21.468744 Si / 1000 Ang^3
#
#
#
# Elastic Constant Matrix: (Units=GPa)
#
#
# Indices 1 2 3 4 5 6 
#
# 1 84.0818 19.7387 14.8941 0.0000 0.0000 6.7547
# 2 19.7387 84.0818 14.8941 0.0000 0.0000 -6.7547
# 3 14.8941 14.8941 82.2477 0.0000 0.0000 0.0000
# 4 0.0000 0.0000 0.0000 28.4728 0.0000 0.0000
# 5 0.0000 0.0000 0.0000 0.0000 28.4728 0.0000
# 6 6.7547 -6.7547 0.0000 0.0000 0.0000 32.5781
#
#
#
# Elastic Compliance Matrix: (Units=1/GPa)
#
#
# Indices 1 2 3 4 5 6 
#
# 1 0.013204 -0.003045 -0.001840 0.000000 0.000000 -0.003369
# 2 -0.003045 0.013204 -0.001840 0.000000 0.000000 0.003369
# 3 -0.001840 -0.001840 0.012825 0.000000 0.000000 0.000000
# 4 0.000000 0.000000 0.000000 0.035121 0.000000 0.000000
# 5 0.000000 0.000000 0.000000 0.000000 0.035121 0.000000
# 6 -0.003369 0.003369 0.000000 0.000000 0.000000 0.032093
#
#
# Mechanical properties :
#
#
# Convention : Reuss Voigt Hill
#
# Bulk Modulus (GPa) = 38.78196 38.82945 38.80571
# Shear Modulus (GPa) = 30.56005 31.29703 30.92854
#
# Velocity S-wave (km/s) = 3.77698 3.82225 3.79968
# Velocity P-wave (km/s) = 6.09298 6.13231 6.11268
#
# Compressibility (1/GPa) = 0.02578518
#
# Stress axis : x y z
#
# Youngs Moduli (GPa) = 75.73195 75.73195 77.97432
#
# Poissons Ratio (x) = 0.23057 0.14346
# Poissons Ratio (y) = 0.23057 0.14346
# Poissons Ratio (z) = 0.13933 0.13933
#
# Static dielectric constant tensor:
#      x y z
#    x 3.933130 0.000000 0.000000 
#    y 0.000000 3.933130 0.000000 
#    z 0.000000 0.000000 3.819400 
# 
# 
# High freq. dielectric constant tensor:
#      x y z
#    x 1.848720 0.000000 0.000000 
#    y 0.000000 1.848720 0.000000 
#    z 0.000000 0.000000 1.846650 
# 
# From -- ./inp_files/657.got.cif
#   From: 2010.03.12/outbox.cif.g09.slc.cpg/sg83_1_cif.got.tgz:657.got - 2010.04.08 20:05:18.
