data_PCOD8302252
_publ_section_title
;
Structure prediction by ZEFSAII (Michael W. Deem and Ramdas Pophale) SiO2 
 PCOD8302252
Probable space group: P -4
;
_chemical_formula_sum "Si O2"
_cell_formula_units_Z 32
_cell_length_a 11.916292
_cell_length_b 11.916292
_cell_length_c 11.999063
_cell_angle_alpha 90.000000
_cell_angle_beta 90.000000
_cell_angle_gamma 90.000000
_cell_volume 1703.843128
_symmetry_space_group_name_H-M "P -4"
_symmetry_group_IT_number 81
_symmetry_cell_setting 'tetragonal'
loop_
_space_group_symop_operation_xyz
x,y,z
y,-x,-z
-x,-y,z
-y,x,-z
loop_
_atom_site_type_symbol
_atom_site_label
_atom_site_fract_x
_atom_site_fract_y
_atom_site_fract_z
Si Si1 0.791715 0.880229 0.104408
Si Si2 0.226308 0.856717 0.118950
Si Si3 0.345591 0.224662 0.303664
Si Si4 0.829312 0.044866 0.534787
Si Si5 0.997584 0.122151 0.237740
Si Si6 0.403986 0.787078 0.283343
Si Si7 0.004498 0.383162 0.583545
Si Si8 0.353417 0.385969 0.499743
O O1 0.731463 0.802288 0.196658
O O2 0.925071 0.883741 0.128690
O O3 0.746394 0.009688 0.097593
O O4 0.786202 0.813973 0.988303
O O5 0.328903 0.784560 0.170879
O O6 0.128403 0.845331 0.209711
O O7 0.469744 0.254640 0.256939
O O8 0.341275 0.117052 0.382877
O O9 0.305278 0.324975 0.387039
O O10 0.800538 0.051024 0.666596
O O11 0.917915 0.135566 0.494219
O O12 0.710847 0.073050 0.481215
O O13 0.000000 0.000000 0.297092
O O14 0.354424 0.716455 0.388312
O O15 0.411036 0.919726 0.309020
O O16 0.000000 0.500000 0.512897
O O17 0.345691 0.519175 0.478968
#
# Coordination Sequence:
#
# PCOD8302252 Si02
#       8
#     4   4   4   4   4   4   4   4
#     4  11  21  36  55  77 111 148 194 235 275 330
#     4  11  21  36  55  77 111 148 194 235 275 330
#     4  10  21  37  59  83 111 150 187 226 283 343
#     4  11  20  30  48  79 111 138 179 235 283 329
#     4  10  20  31  48  77 104 144 185 230 277 320
#     4  10  21  37  59  83 111 150 187 226 283 343
#     4  10  21  34  51  77 113 153 181 214 277 351
#     4   9  20  40  64  88 113 144 188 238 283 336
#
# _framework density 18.78107
#
# number of rings (size 3 to 8) (size 9 to 14) (size 15 to 20)
#    0.000    1.750    3.750    1.500    5.250    0.000 
#    0.000    1.250    0.000    1.500    0.000    0.000 
#    0.000    0.000    0.000    0.000    0.000    0.000 
#
# Total GULP energy -396446.351686 kJ/mol
# GULP energy per Si atom -12388.948490 kJ/mol
# Density = 1.873832 g / cm^3
# Si number density = 18.781070 Si / 1000 Ang^3
#
#
#
# Elastic Constant Matrix: (Units=GPa)
#
#
# Indices 1 2 3 4 5 6 
#
# 1 74.0650 7.8530 35.6133 0.0000 0.0000 0.7785
# 2 7.8530 74.0650 35.6133 0.0000 0.0000 -0.7785
# 3 35.6133 35.6133 102.3911 0.0000 0.0000 0.0000
# 4 0.0000 0.0000 0.0000 20.6960 0.0000 0.0000
# 5 0.0000 0.0000 0.0000 0.0000 20.6960 0.0000
# 6 0.7785 -0.7785 0.0000 0.0000 0.0000 18.7827
#
#
#
# Elastic Compliance Matrix: (Units=1/GPa)
#
#
# Indices 1 2 3 4 5 6 
#
# 1 0.016309 0.001191 -0.006087 0.000000 0.000000 -0.000627
# 2 0.001191 0.016309 -0.006087 0.000000 0.000000 0.000627
# 3 -0.006087 -0.006087 0.014001 0.000000 0.000000 0.000000
# 4 0.000000 0.000000 0.000000 0.048319 0.000000 0.000000
# 5 0.000000 0.000000 0.000000 0.000000 0.048319 0.000000
# 6 -0.000627 0.000627 0.000000 0.000000 0.000000 0.053293
#
#
# Mechanical properties :
#
#
# Convention : Reuss Voigt Hill
#
# Bulk Modulus (GPa) = 40.56278 45.40892 42.98585
# Shear Modulus (GPa) = 22.05266 23.46436 22.75851
#
# Velocity S-wave (km/s) = 3.43037 3.53847 3.48484
# Velocity P-wave (km/s) = 6.11020 6.39725 6.25537
#
# Compressibility (1/GPa) = 0.02465315
#
# Stress axis : x y z
#
# Youngs Moduli (GPa) = 61.31714 61.31714 71.42585
#
# Poissons Ratio (x) = -0.07302 0.43474
# Poissons Ratio (y) = -0.07302 0.43474
# Poissons Ratio (z) = 0.37322 0.37322
#
# Static dielectric constant tensor:
#      x y z
#    x 3.464350 0.000000 0.000000 
#    y 0.000000 3.464350 0.000000 
#    z 0.000000 0.000000 3.318870 
# 
# 
# High freq. dielectric constant tensor:
#      x y z
#    x 1.719770 0.000000 0.000000 
#    y 0.000000 1.719770 0.000000 
#    z 0.000000 0.000000 1.712280 
# 
# From -- ./inp_files/1455.got.cif
#   From: 2010.03.12/outbox.cif.g09.slc.cpg/sg81_cif.got.tgz:1455.got - 2010.04.08 20:01:38.
