data_PCOD8302472
_publ_section_title
;
Structure prediction by ZEFSAII (Michael W. Deem and Ramdas Pophale) SiO2 
 PCOD8302472
Probable space group: I -4 
;
_chemical_formula_sum "Si O2"
_cell_formula_units_Z 44
_cell_length_a 9.150699
_cell_length_b 9.150699
_cell_length_c 26.127851
_cell_angle_alpha 90.000000
_cell_angle_beta 90.000000
_cell_angle_gamma 90.000000
_cell_volume 2187.823238
_symmetry_space_group_name_H-M "I -4 "
_symmetry_group_IT_number 82
_symmetry_cell_setting 'tetragonal'
loop_
_space_group_symop_operation_xyz
x,y,z
y,-x,-z
-x,-y,z
-y,x,-z
1/2+x,1/2+y,1/2+z
1/2+y,1/2-x,1/2-z
1/2-x,1/2-y,1/2+z
1/2-y,1/2+x,1/2-z
loop_
_atom_site_type_symbol
_atom_site_label
_atom_site_fract_x
_atom_site_fract_y
_atom_site_fract_z
Si Si1 0.719944 0.283395 0.854442
Si Si2 0.027201 0.668872 0.441963
Si Si3 0.544749 0.165870 0.436636
Si Si4 0.242506 0.256857 0.973986
Si Si5 0.500000 0.500000 0.194240
Si Si6 0.781929 0.421235 0.258686
O O1 0.623492 0.188815 0.892453
O O2 0.870739 0.324145 0.882717
O O3 0.632717 0.430869 0.838919
O O4 0.755728 0.174446 0.808257
O O5 0.093742 0.730740 0.494563
O O6 0.000000 0.500000 0.449300
O O7 0.877738 0.759722 0.434638
O O8 0.629684 0.231097 0.485056
O O9 0.398243 0.265232 0.437329
O O10 0.500000 0.000000 0.445907
O O11 0.631912 0.428832 0.226783
O O12 0.837776 0.586410 0.271929
#
# Coordination Sequence:
#
# PCOD8302472 Si02
#       6
#     8   8   8   8   4   8
#     4  10  25  42  65  99 120 168 217 263 310 380
#     4  11  23  39  63  91 127 165 222 254 301 373
#     4  11  23  43  59  94 134 163 219 261 305 373
#     4  11  20  42  62  84 132 176 204 257 315 353
#     4  10  22  44  72  93 124 165 210 256 342 384
#     4   9  20  45  72  93 127 161 208 265 325 392
#
# _framework density 20.111312999999999
#
# number of rings (size 3 to 8) (size 9 to 14) (size 15 to 20)
#    0.000    1.636    3.636    0.000    7.636    0.727 
#    9.818    0.000    0.000    0.000    0.000    0.000 
#    0.000    0.000    0.000    0.000    0.000    0.000 
#
# Total GULP energy -272601.121268 kJ/mol
# GULP energy per Si atom -12390.960058 kJ/mol
# Density = 2.006554 g / cm^3
# Si number density = 20.111313 Si / 1000 Ang^3
#
#
#
# Elastic Constant Matrix: (Units=GPa)
#
#
# Indices 1 2 3 4 5 6 
#
# 1 140.3838 65.3439 51.8101 0.0000 0.0000 -7.1786
# 2 65.3439 140.3838 51.8101 0.0000 0.0000 7.1786
# 3 51.8101 51.8101 89.8103 0.0000 0.0000 0.0000
# 4 0.0000 0.0000 0.0000 -24.2475 0.0000 0.0000
# 5 0.0000 0.0000 0.0000 0.0000 -24.2476 0.0000
# 6 -7.1786 7.1786 0.0000 0.0000 0.0000 31.0499
#
#
#
# Elastic Compliance Matrix: (Units=1/GPa)
#
#
# Indices 1 2 3 4 5 6 
#
# 1 0.010397 -0.003546 -0.003953 0.000000 0.000000 0.003224
# 2 -0.003546 0.010397 -0.003953 0.000000 0.000000 -0.003224
# 3 -0.003953 -0.003953 0.015695 0.000000 0.000000 0.000000
# 4 0.000000 0.000000 0.000000 -0.041241 0.000000 0.000000
# 5 0.000000 0.000000 0.000000 0.000000 -0.041241 0.000000
# 6 0.003224 -0.003224 0.000000 0.000000 0.000000 0.033697
#
#
# Mechanical properties :
#
#
# Convention : Reuss Voigt Hill
#
# Bulk Modulus (GPa) = 73.59525 78.72291 76.15908
# Shear Modulus (GPa) = 330.36202 9.95186 170.15694
#
# Velocity S-wave (km/s) = 12.83056 2.22691 9.20822
# Velocity P-wave (km/s) = 16.00535 6.77058 12.28845
#
# Compressibility (1/GPa) = 0.01358783
#
# Stress axis : x y z
#
# Youngs Moduli (GPa) = 96.17865 96.17865 63.71469
#
# Poissons Ratio (x) = 0.34102 0.25184
# Poissons Ratio (y) = 0.34102 0.25184
# Poissons Ratio (z) = 0.38016 0.38016
#
# Static dielectric constant tensor:
#      x y z
#    x 4.514370 0.000000 0.000000 
#    y 0.000000 4.514370 0.000000 
#    z 0.000000 0.000000 3.594370 
# 
# 
# High freq. dielectric constant tensor:
#      x y z
#    x 1.793930 0.000000 0.000000 
#    y 0.000000 1.793930 0.000000 
#    z 0.000000 0.000000 1.770070 
# 
# From -- ./inp_files/3945.got.cif
#   From: 2010.03.12/outbox.cif.g09.slc.cpg/sg82_2_cif.got.tgz:3945.got - 2010.04.08 20:02:50.
