data_PCOD8302002
_publ_section_title
;
Structure prediction by ZEFSAII (Michael W. Deem and Ramdas Pophale) SiO2 
 PCOD8302002
Probable space group: P 42
;
_chemical_formula_sum "Si O2"
_cell_formula_units_Z 14
_cell_length_a 5.071666
_cell_length_b 5.071666
_cell_length_c 20.671392
_cell_angle_alpha 90.000000
_cell_angle_beta 90.000000
_cell_angle_gamma 90.000000
_cell_volume 531.705328
_symmetry_space_group_name_H-M "P 42"
_symmetry_group_IT_number 77
_symmetry_cell_setting 'tetragonal'
loop_
_space_group_symop_operation_xyz
x,y,z
-y,x,1/2+z
-x,-y,z
y,-x,1/2+z
loop_
_atom_site_type_symbol
_atom_site_label
_atom_site_fract_x
_atom_site_fract_y
_atom_site_fract_z
Si Si1 0.000000 0.000000 0.955791
Si Si2 0.500000 0.000000 0.375282
Si Si3 0.334014 0.266153 0.764258
Si Si4 0.236512 0.669844 0.567663
Si Si5 0.000000 0.000000 0.666092
O O1 0.882719 0.249133 0.915473
O O2 0.226008 0.141662 0.998014
O O3 0.627406 0.231757 0.332952
O O4 0.500000 0.500000 0.731600
O O5 0.098126 0.227751 0.713995
O O6 0.500000 0.000000 0.775640
O O7 0.500000 0.500000 0.560144
O O8 0.000000 0.500000 0.597206
O O9 0.247944 0.907802 0.620283
#
# Coordination Sequence:
#
# PCOD8302002 Si02
#       5
#     2   2   4   4   2
#     4  11  25  50  76 110 165 205 288 342 416 497
#     4  12  26  50  78 116 160 216 272 346 410 506
#     4  12  28  48  77 116 163 214 269 337 417 499
#     4  11  27  48  78 115 156 215 275 350 418 491
#     4  11  29  46  74 114 161 203 274 342 412 505
#
# _framework density 26.330371
#
# number of rings (size 3 to 8) (size 9 to 14) (size 15 to 20)
#    0.000    0.571    0.000    6.000   10.000    6.857 
#    0.000    2.857    0.000    0.000    0.000    0.000 
#    0.000    0.000    0.000    0.000    0.000    0.000 
#
# Total GULP energy -173512.227957 kJ/mol
# GULP energy per Si atom -12393.730568 kJ/mol
# Density = 2.627044 g / cm^3
# Si number density = 26.330371 Si / 1000 Ang^3
#
#
#
# Elastic Constant Matrix: (Units=GPa)
#
#
# Indices 1 2 3 4 5 6 
#
# 1 182.0105 80.5351 75.8475 0.0000 0.0000 -4.2376
# 2 80.5351 182.0105 75.8475 0.0000 0.0000 4.2376
# 3 75.8475 75.8475 168.6233 0.0000 0.0000 0.0000
# 4 0.0000 0.0000 0.0000 6.3947 0.0000 0.0000
# 5 0.0000 0.0000 0.0000 0.0000 6.3947 0.0000
# 6 -4.2376 4.2376 0.0000 0.0000 0.0000 72.5728
#
#
#
# Elastic Compliance Matrix: (Units=1/GPa)
#
#
# Indices 1 2 3 4 5 6 
#
# 1 0.007525 -0.002378 -0.002315 0.000000 0.000000 0.000578
# 2 -0.002378 0.007525 -0.002315 0.000000 0.000000 -0.000578
# 3 -0.002315 -0.002315 0.008013 0.000000 0.000000 0.000000
# 4 0.000000 0.000000 0.000000 0.156380 0.000000 0.000000
# 5 0.000000 0.000000 0.000000 0.000000 0.156380 0.000000
# 6 0.000578 -0.000578 0.000000 0.000000 0.000000 0.013847
#
#
# Mechanical properties :
#
#
# Convention : Reuss Voigt Hill
#
# Bulk Modulus (GPa) = 110.54446 110.78940 110.66693
# Shear Modulus (GPa) = 13.63510 37.10003 25.36757
#
# Velocity S-wave (km/s) = 2.27809 3.75776 3.10729
# Velocity P-wave (km/s) = 6.99960 7.80998 7.41587
#
# Compressibility (1/GPa) = 0.00904613
#
# Stress axis : x y z
#
# Youngs Moduli (GPa) = 132.89704 132.89704 124.79965
#
# Poissons Ratio (x) = 0.31607 0.28889
# Poissons Ratio (y) = 0.31607 0.28889
# Poissons Ratio (z) = 0.30764 0.30764
#
# Static dielectric constant tensor:
#      x y z
#    x 5.011880 0.000000 0.000000 
#    y 0.000000 5.011880 0.000000 
#    z 0.000000 0.000000 4.858040 
# 
# 
# High freq. dielectric constant tensor:
#      x y z
#    x 2.061890 0.000000 0.000000 
#    y 0.000000 2.061890 0.000000 
#    z 0.000000 0.000000 2.069950 
# 
# From -- ./inp_files/1492.got.cif
#   From: 2010.03.12/outbox.cif.g09.slc.cpg/sg77_cif.got.tgz:1492.got - 2010.04.16 16:36:19.
