data_PCOD8302279
_publ_section_title
;
Structure prediction by ZEFSAII (Michael W. Deem and Ramdas Pophale) SiO2 
 PCOD8302279
Probable space group: P -4
;
_chemical_formula_sum "Si O2"
_cell_formula_units_Z 25
_cell_length_a 11.653985
_cell_length_b 11.653985
_cell_length_c 9.485479
_cell_angle_alpha 90.000000
_cell_angle_beta 90.000000
_cell_angle_gamma 90.000000
_cell_volume 1288.273806
_symmetry_space_group_name_H-M "P -4"
_symmetry_group_IT_number 81
_symmetry_cell_setting 'tetragonal'
loop_
_space_group_symop_operation_xyz
x,y,z
y,-x,-z
-x,-y,z
-y,x,-z
loop_
_atom_site_type_symbol
_atom_site_label
_atom_site_fract_x
_atom_site_fract_y
_atom_site_fract_z
Si Si1 0.507446 0.270444 0.113745
Si Si2 0.504680 0.128542 0.386491
Si Si3 0.285187 0.153855 0.559595
Si Si4 0.293542 0.889050 0.601289
Si Si5 0.734778 0.629640 0.162643
Si Si6 0.343993 0.592600 0.284887
Si Si7 0.500000 0.500000 0.500000
O O1 0.545940 0.197787 0.250350
O O2 0.370374 0.289233 0.112259
O O3 0.586788 0.383660 0.138321
O O4 0.554045 0.214493 0.968337
O O5 0.379940 0.169100 0.437655
O O6 0.589675 0.138464 0.518743
O O7 0.500000 0.000000 0.330582
O O8 0.164445 0.189294 0.489282
O O9 0.320853 0.237474 0.688856
O O10 0.274622 0.024980 0.618334
O O11 0.297973 0.835106 0.759868
O O12 0.692732 0.539793 0.279560
O O13 0.436593 0.599903 0.411272
#
# Coordination Sequence:
#
# PCOD8302279 Si02
#       7
#     4   4   4   4   4   4   1
#     4  12  22  37  55  85 132 161 195 239 304 385
#     4  10  21  38  59  85 113 154 201 253 313 371
#     4  11  22  39  63  90 118 156 213 268 314 370
#     4  11  23  40  64  87 119 158 213 269 320 368
#     4  12  23  36  55  93 129 164 195 248 308 388
#     4  12  21  32  54  87 124 156 194 244 303 377
#     4  12  20  28  58  92 120 164 202 236 316 368
#
# _framework density 19.405812000000001
#
# number of rings (size 3 to 8) (size 9 to 14) (size 15 to 20)
#    0.000    0.640    8.000    1.920    0.000    0.320 
#    2.880    0.000    0.000    0.000    0.000    0.000 
#    0.000    0.000    0.000    0.000    0.000    0.000 
#
# Total GULP energy -309915.487306 kJ/mol
# GULP energy per Si atom -12396.619492 kJ/mol
# Density = 1.936164 g / cm^3
# Si number density = 19.405812 Si / 1000 Ang^3
#
#
#
# Elastic Constant Matrix: (Units=GPa)
#
#
# Indices 1 2 3 4 5 6 
#
# 1 93.8360 22.7799 31.6122 0.0000 0.0000 -3.4879
# 2 22.7799 93.8360 31.6122 0.0000 0.0000 3.4879
# 3 31.6122 31.6122 95.3873 0.0000 0.0000 0.0000
# 4 0.0000 0.0000 0.0000 18.4195 0.0000 0.0000
# 5 0.0000 0.0000 0.0000 0.0000 18.4195 0.0000
# 6 -3.4879 3.4879 0.0000 0.0000 0.0000 24.1078
#
#
#
# Elastic Compliance Matrix: (Units=1/GPa)
#
#
# Indices 1 2 3 4 5 6 
#
# 1 0.012365 -0.001911 -0.003464 0.000000 0.000000 0.002065
# 2 -0.001911 0.012365 -0.003464 0.000000 0.000000 -0.002065
# 3 -0.003464 -0.003464 0.012780 0.000000 0.000000 0.000000
# 4 0.000000 0.000000 0.000000 0.054290 0.000000 0.000000
# 5 0.000000 0.000000 0.000000 0.000000 0.054290 0.000000
# 6 0.002065 -0.002065 0.000000 0.000000 0.000000 0.042078
#
#
# Mechanical properties :
#
#
# Convention : Reuss Voigt Hill
#
# Bulk Modulus (GPa) = 50.43069 50.56310 50.49689
# Shear Modulus (GPa) = 23.53409 25.32637 24.43023
#
# Velocity S-wave (km/s) = 3.48621 3.61652 3.55197
# Velocity P-wave (km/s) = 6.49990 6.59933 6.54981
#
# Compressibility (1/GPa) = 0.01982920
#
# Stress axis : x y z
#
# Youngs Moduli (GPa) = 80.87493 80.87493 78.24839
#
# Poissons Ratio (x) = 0.15458 0.27108
# Poissons Ratio (y) = 0.15458 0.27108
# Poissons Ratio (z) = 0.28018 0.28018
#
# Static dielectric constant tensor:
#      x y z
#    x 3.446740 0.000000 0.000000 
#    y 0.000000 3.446740 0.000000 
#    z 0.000000 0.000000 3.433900 
# 
# 
# High freq. dielectric constant tensor:
#      x y z
#    x 1.739710 0.000000 0.000000 
#    y 0.000000 1.739710 0.000000 
#    z 0.000000 0.000000 1.751820 
# 
# From -- ./inp_files/865.got.cif
#   From: 2010.03.12/outbox.cif.g09.slc.cpg/sg81_cif.got.tgz:865.got - 2010.04.08 20:01:38.
