data_PCOD8302526
_publ_section_title
;
Structure prediction by ZEFSAII (Michael W. Deem and Ramdas Pophale) SiO2 
 PCOD8302526
Probable space group: I -4 
;
_chemical_formula_sum "Si O2"
_cell_formula_units_Z 60
_cell_length_a 14.691535
_cell_length_b 14.691535
_cell_length_c 13.022818
_cell_angle_alpha 90.000000
_cell_angle_beta 90.000000
_cell_angle_gamma 90.000000
_cell_volume 2810.860673
_symmetry_space_group_name_H-M "I -4 "
_symmetry_group_IT_number 82
_symmetry_cell_setting 'tetragonal'
loop_
_space_group_symop_operation_xyz
x,y,z
y,-x,-z
-x,-y,z
-y,x,-z
1/2+x,1/2+y,1/2+z
1/2+y,1/2-x,1/2-z
1/2-x,1/2-y,1/2+z
1/2-y,1/2+x,1/2-z
loop_
_atom_site_type_symbol
_atom_site_label
_atom_site_fract_x
_atom_site_fract_y
_atom_site_fract_z
Si Si1 0.405173 0.273658 0.053877
Si Si2 0.626631 0.919770 0.745579
Si Si3 0.330491 0.098200 0.965570
Si Si4 0.360220 0.474882 0.536882
Si Si5 0.642588 0.884346 0.350129
Si Si6 0.749943 0.910968 0.547308
Si Si7 0.504868 0.741373 0.270651
Si Si8 0.000000 0.500000 0.947793
O O1 0.347988 0.365384 0.053264
O O2 0.457367 0.282560 0.160440
O O3 0.340146 0.185978 0.039506
O O4 0.481089 0.266947 0.964779
O O5 0.527334 0.876860 0.732788
O O6 0.673078 0.873836 0.845807
O O7 0.687885 0.894871 0.647321
O O8 0.238297 0.046673 0.992073
O O9 0.416037 0.029383 0.980137
O O10 0.394731 0.568804 0.486735
O O11 0.348185 0.484233 0.660830
O O12 0.702942 0.863244 0.449611
O O13 0.579413 0.798425 0.332784
O O14 0.584279 0.974987 0.375282
O O15 0.701216 0.911286 0.248593
#
# Coordination Sequence:
#
# PCOD8302526 Si02
#       8
#     8   8   8   8   8   8   8   4
#     4  11  26  46  68 102 137 182 241 292 351 427
#     4  11  22  40  70 106 140 181 222 290 374 422
#     4  12  23  43  74 102 142 181 234 298 359 420
#     4  11  28  49  67 102 145 190 240 287 349 437
#     4  11  21  39  67 103 137 170 225 292 351 416
#     4  11  25  45  64 102 144 177 235 291 344 431
#     4  11  22  43  69  99 135 184 230 287 357 415
#     4  12  18  39  71 108 142 168 222 310 360 402
#
# _framework density 21.345773999999999
#
# number of rings (size 3 to 8) (size 9 to 14) (size 15 to 20)
#    0.000    0.800    5.333    3.200    3.733    0.267 
#    4.800    0.000    0.000    0.000    0.000    0.000 
#    0.000    0.000    0.000    0.000    0.000    0.000 
#
# Total GULP energy -372011.861410 kJ/mol
# GULP energy per Si atom -12400.395380 kJ/mol
# Density = 2.129719 g / cm^3
# Si number density = 21.345774 Si / 1000 Ang^3
#
#
#
# Elastic Constant Matrix: (Units=GPa)
#
#
# Indices 1 2 3 4 5 6 
#
# 1 87.3401 40.5915 37.2664 0.0000 0.0000 -4.1685
# 2 40.5915 87.3401 37.2664 0.0000 0.0000 4.1685
# 3 37.2664 37.2664 116.4641 0.0000 0.0000 0.0000
# 4 0.0000 0.0000 0.0000 27.7935 0.0000 0.0000
# 5 0.0000 0.0000 0.0000 0.0000 27.7935 0.0000
# 6 -4.1685 4.1685 0.0000 0.0000 0.0000 35.1038
#
#
#
# Elastic Compliance Matrix: (Units=1/GPa)
#
#
# Indices 1 2 3 4 5 6 
#
# 1 0.015731 -0.006123 -0.003074 0.000000 0.000000 0.002595
# 2 -0.006123 0.015731 -0.003074 0.000000 0.000000 -0.002595
# 3 -0.003074 -0.003074 0.010554 0.000000 0.000000 0.000000
# 4 0.000000 0.000000 0.000000 0.035980 0.000000 0.000000
# 5 0.000000 0.000000 0.000000 0.000000 0.035980 0.000000
# 6 0.002595 -0.002595 0.000000 0.000000 0.000000 0.029103
#
#
# Mechanical properties :
#
#
# Convention : Reuss Voigt Hill
#
# Bulk Modulus (GPa) = 57.23421 57.93256 57.58339
# Shear Modulus (GPa) = 28.82753 29.87282 29.35018
#
# Velocity S-wave (km/s) = 3.67891 3.74501 3.71211
# Velocity P-wave (km/s) = 6.70201 6.77489 6.73855
#
# Compressibility (1/GPa) = 0.01747207
#
# Stress axis : x y z
#
# Youngs Moduli (GPa) = 63.56961 63.56961 94.75268
#
# Poissons Ratio (x) = 0.38924 0.29130
# Poissons Ratio (y) = 0.38924 0.29130
# Poissons Ratio (z) = 0.19543 0.19543
#
# Static dielectric constant tensor:
#      x y z
#    x 4.009580 0.000000 0.000000 
#    y 0.000000 4.009580 0.000000 
#    z 0.000000 0.000000 4.243430 
# 
# 
# High freq. dielectric constant tensor:
#      x y z
#    x 1.827010 0.000000 0.000000 
#    y 0.000000 1.827010 0.000000 
#    z 0.000000 0.000000 1.851160 
# 
# From -- ./inp_files/2344.got.cif
#   From: 2010.03.12/outbox.cif.g09.slc.cpg/sg82_2_cif.got.tgz:2344.got - 2010.04.08 20:02:50.
