data_PCOD8302497
_publ_section_title
;
Structure prediction by ZEFSAII (Michael W. Deem and Ramdas Pophale) SiO2 
 PCOD8302497
Probable space group: I -4 
;
_chemical_formula_sum "Si O2"
_cell_formula_units_Z 44
_cell_length_a 14.080006
_cell_length_b 14.080006
_cell_length_c 10.459605
_cell_angle_alpha 90.000000
_cell_angle_beta 90.000000
_cell_angle_gamma 90.000000
_cell_volume 2073.580804
_symmetry_space_group_name_H-M "I -4 "
_symmetry_group_IT_number 82
_symmetry_cell_setting 'tetragonal'
loop_
_space_group_symop_operation_xyz
x,y,z
y,-x,-z
-x,-y,z
-y,x,-z
1/2+x,1/2+y,1/2+z
1/2+y,1/2-x,1/2-z
1/2-x,1/2-y,1/2+z
1/2-y,1/2+x,1/2-z
loop_
_atom_site_type_symbol
_atom_site_label
_atom_site_fract_x
_atom_site_fract_y
_atom_site_fract_z
Si Si1 0.030527 0.329227 0.419524
Si Si2 0.172180 0.606770 0.357256
Si Si3 0.000000 0.000000 0.000000
Si Si4 0.656737 0.966295 0.074791
Si Si5 0.000000 0.500000 0.750000
Si Si6 0.942082 0.881948 0.440242
Si Si7 0.147709 0.114701 0.169943
O O1 0.068257 0.359403 0.280448
O O2 0.074735 0.394657 0.527620
O O3 0.071281 0.228443 0.461992
O O4 0.915069 0.331846 0.415474
O O5 0.195504 0.520910 0.452238
O O6 0.271848 0.661863 0.348285
O O7 0.931027 0.930955 0.078641
O O8 0.595578 0.029956 0.172515
O O9 0.747108 0.923880 0.146966
O O10 0.888535 0.912193 0.311096
O O11 0.056659 0.902098 0.439147
#
# Coordination Sequence:
#
# PCOD8302497 Si02
#       7
#     8   8   2   8   2   8   8
#     4  11  23  41  75  99 139 184 233 293 348 424
#     4  11  22  45  71 103 139 181 237 287 354 424
#     4  12  20  44  66  96 144 176 224 282 344 412
#     4  12  25  45  66 102 141 185 229 286 357 419
#     4  12  28  44  66 100 144 184 220 294 356 412
#     4  10  24  46  67  97 135 185 238 286 345 414
#     4  11  26  43  71 104 137 187 231 292 352 417
#
# _framework density 21.219332999999999
#
# number of rings (size 3 to 8) (size 9 to 14) (size 15 to 20)
#    0.000    0.909    5.455    1.091    5.091    0.000 
#    3.273    0.000    0.000    0.000    0.000    0.000 
#    0.000    0.000    0.000    0.000    0.000    0.000 
#
# Total GULP energy -272594.989557 kJ/mol
# GULP energy per Si atom -12390.681344 kJ/mol
# Density = 2.117104 g / cm^3
# Si number density = 21.219333 Si / 1000 Ang^3
#
#
#
# Elastic Constant Matrix: (Units=GPa)
#
#
# Indices 1 2 3 4 5 6 
#
# 1 101.2225 14.1597 43.7303 0.0000 0.0000 -5.8143
# 2 14.1597 101.2225 43.7303 0.0000 0.0000 5.8143
# 3 43.7303 43.7303 91.4901 0.0000 0.0000 0.0000
# 4 0.0000 0.0000 0.0000 38.1195 0.0000 0.0000
# 5 0.0000 0.0000 0.0000 0.0000 38.1195 0.0000
# 6 -5.8143 5.8143 0.0000 0.0000 0.0000 28.1156
#
#
#
# Elastic Compliance Matrix: (Units=1/GPa)
#
#
# Indices 1 2 3 4 5 6 
#
# 1 0.012702 0.000889 -0.006496 0.000000 0.000000 0.002443
# 2 0.000889 0.012702 -0.006496 0.000000 0.000000 -0.002443
# 3 -0.006496 -0.006496 0.017140 0.000000 0.000000 0.000000
# 4 0.000000 0.000000 0.000000 0.026233 0.000000 0.000000
# 5 0.000000 0.000000 0.000000 0.000000 0.026233 0.000000
# 6 0.002443 -0.002443 0.000000 0.000000 0.000000 0.036578
#
#
# Mechanical properties :
#
#
# Convention : Reuss Voigt Hill
#
# Bulk Modulus (GPa) = 54.53324 55.24173 54.88748
# Shear Modulus (GPa) = 30.88201 33.69188 32.28695
#
# Velocity S-wave (km/s) = 3.81907 3.98903 3.90498
# Velocity P-wave (km/s) = 6.72329 6.87799 6.80108
#
# Compressibility (1/GPa) = 0.01833744
#
# Stress axis : x y z
#
# Youngs Moduli (GPa) = 78.73002 78.73002 58.34223
#
# Poissons Ratio (x) = -0.07002 0.37900
# Poissons Ratio (y) = -0.07002 0.37900
# Poissons Ratio (z) = 0.51145 0.51145
#
# Static dielectric constant tensor:
#      x y z
#    x 3.787530 0.000000 0.000000 
#    y 0.000000 3.787530 0.000000 
#    z 0.000000 0.000000 3.930260 
# 
# 
# High freq. dielectric constant tensor:
#      x y z
#    x 1.833590 0.000000 0.000000 
#    y 0.000000 1.833590 0.000000 
#    z 0.000000 0.000000 1.836440 
# 
# From -- ./inp_files/1744.got.cif
#   From: 2010.03.12/outbox.cif.g09.slc.cpg/sg82_1_cif.got.tgz:1744.got - 2010.04.08 20:02:50.
