data_PCOD8302270
_publ_section_title
;
Structure prediction by ZEFSAII (Michael W. Deem and Ramdas Pophale) SiO2 
 PCOD8302270
Probable space group: P -4
;
_chemical_formula_sum "Si O2"
_cell_formula_units_Z 22
_cell_length_a 9.121192
_cell_length_b 9.121192
_cell_length_c 13.266430
_cell_angle_alpha 90.000000
_cell_angle_beta 90.000000
_cell_angle_gamma 90.000000
_cell_volume 1103.715814
_symmetry_space_group_name_H-M "P -4"
_symmetry_group_IT_number 81
_symmetry_cell_setting 'tetragonal'
loop_
_space_group_symop_operation_xyz
x,y,z
y,-x,-z
-x,-y,z
-y,x,-z
loop_
_atom_site_type_symbol
_atom_site_label
_atom_site_fract_x
_atom_site_fract_y
_atom_site_fract_z
Si Si1 0.284381 0.815906 0.546764
Si Si2 0.000000 0.500000 0.921848
Si Si3 0.680593 0.217954 0.210165
Si Si4 0.827881 0.487159 0.608457
Si Si5 0.076339 0.845867 0.358183
Si Si6 0.432801 0.288449 0.966505
O O1 0.224355 0.679394 0.609403
O O2 0.447154 0.788627 0.502433
O O3 0.188089 0.856534 0.450086
O O4 0.281092 0.955708 0.621397
O O5 0.921412 0.623470 0.853749
O O6 0.876801 0.421018 0.990719
O O7 0.568648 0.256047 0.300814
O O8 0.840651 0.184275 0.254157
O O9 0.699067 0.363496 0.143960
O O10 0.000000 0.500000 0.629812
O O11 0.000000 0.000000 0.347320
O O12 0.341841 0.397996 0.040529
#
# Coordination Sequence:
#
# PCOD8302270 Si02
#       6
#     4   2   4   4   4   4
#     4  11  20  37  61  85 126 178 202 251 308 351
#     4  10  20  42  68  90 124 158 200 260 330 374
#     4  10  22  39  64  94 118 163 212 256 310 374
#     4  11  21  38  64  88 129 167 213 255 300 365
#     4  11  19  36  60  87 124 166 219 245 302 366
#     4   9  20  44  70  88 121 161 200 253 328 383
#
# _framework density 19.932668
#
# number of rings (size 3 to 8) (size 9 to 14) (size 15 to 20)
#    0.000    1.636    4.545    1.091    0.000    0.364 
#    6.545   20.000    0.000    0.000    0.000    0.000 
#    0.000    0.000    0.000    0.000    0.000    0.000 
#
# Total GULP energy -272784.538306 kJ/mol
# GULP energy per Si atom -12399.297196 kJ/mol
# Density = 1.988730 g / cm^3
# Si number density = 19.932668 Si / 1000 Ang^3
#
#
#
# Elastic Constant Matrix: (Units=GPa)
#
#
# Indices 1 2 3 4 5 6 
#
# 1 104.9411 24.2636 51.9127 0.0000 0.0000 1.7655
# 2 24.2636 104.9411 51.9127 0.0000 0.0000 -1.7655
# 3 51.9127 51.9127 108.2705 0.0000 0.0000 0.0000
# 4 0.0000 0.0000 0.0000 27.0409 0.0000 0.0000
# 5 0.0000 0.0000 0.0000 0.0000 27.0409 0.0000
# 6 1.7655 -1.7655 0.0000 0.0000 0.0000 22.3590
#
#
#
# Elastic Compliance Matrix: (Units=1/GPa)
#
#
# Indices 1 2 3 4 5 6 
#
# 1 0.012514 0.000076 -0.006037 0.000000 0.000000 -0.000982
# 2 0.000076 0.012514 -0.006037 0.000000 0.000000 0.000982
# 3 -0.006037 -0.006037 0.015025 0.000000 0.000000 0.000000
# 4 0.000000 0.000000 0.000000 0.036981 0.000000 0.000000
# 5 0.000000 0.000000 0.000000 0.000000 0.036981 0.000000
# 6 -0.000982 0.000982 0.000000 0.000000 0.000000 0.044880
#
#
# Mechanical properties :
#
#
# Convention : Reuss Voigt Hill
#
# Bulk Modulus (GPa) = 62.27021 63.81450 63.04235
# Shear Modulus (GPa) = 26.56132 27.95909 27.26020
#
# Velocity S-wave (km/s) = 3.65437 3.74930 3.70214
# Velocity P-wave (km/s) = 7.00814 7.12934 7.06900
#
# Compressibility (1/GPa) = 0.01605904
#
# Stress axis : x y z
#
# Youngs Moduli (GPa) = 79.90804 79.90804 66.55489
#
# Poissons Ratio (x) = -0.00610 0.40179
# Poissons Ratio (y) = -0.00610 0.40179
# Poissons Ratio (z) = 0.48240 0.48240
#
# Static dielectric constant tensor:
#      x y z
#    x 3.810220 0.000000 0.000000 
#    y 0.000000 3.810220 0.000000 
#    z 0.000000 0.000000 3.583770 
# 
# 
# High freq. dielectric constant tensor:
#      x y z
#    x 1.776420 0.000000 0.000000 
#    y 0.000000 1.776420 0.000000 
#    z 0.000000 0.000000 1.762190 
# 
# From -- ./inp_files/1519.got.cif
#   From: 2010.03.12/outbox.cif.g09.slc.cpg/sg81_cif.got.tgz:1519.got - 2010.04.08 20:01:38.
