data_PCOD8302836
_publ_section_title
;
Structure prediction by ZEFSAII (Michael W. Deem and Ramdas Pophale) SiO2 
 PCOD8302836
Probable space group: P 4/M
;
_chemical_formula_sum "Si O2"
_cell_formula_units_Z 40
_cell_length_a 14.720421
_cell_length_b 14.720421
_cell_length_c 9.434700
_cell_angle_alpha 90.000000
_cell_angle_beta 90.000000
_cell_angle_gamma 90.000000
_cell_volume 2044.412638
_symmetry_space_group_name_H-M "P 4/M"
_symmetry_group_IT_number 83
_symmetry_cell_setting 'tetragonal'
loop_
_space_group_symop_operation_xyz
x,y,z
-y,x,z
-x,-y,z
y,-x,z
-x,-y,-z
y,-x,-z
x,y,-z
-y,x,-z
loop_
_atom_site_type_symbol
_atom_site_label
_atom_site_fract_x
_atom_site_fract_y
_atom_site_fract_z
Si Si1 0.759728 0.117652 0.663443
Si Si2 0.795120 0.607839 0.837664
Si Si3 0.626480 0.576573 0.661270
Si Si4 0.915454 0.440901 0.837387
Si Si5 0.257711 0.086895 0.336718
O O1 0.735388 0.137559 0.500000
O O2 0.671432 0.132803 0.759150
O O3 0.841933 0.181648 0.715458
O O4 0.786290 0.012432 0.685073
O O5 0.697431 0.622527 0.766522
O O6 0.825953 0.503300 0.823750
O O7 0.788571 0.638587 0.000000
O O8 0.530313 0.622308 0.691362
O O9 0.657129 0.594490 0.500000
O O10 0.899018 0.350152 0.749309
O O11 0.000000 0.500000 0.778506
O O12 0.934753 0.413267 0.000000
O O13 0.282876 0.103641 0.500000
#
# Coordination Sequence:
#
# PCOD8302836 Si02
#       5
#     8   8   8   8   8
#     4  10  22  40  60  87 118 151 196 244 294 351
#     4  11  23  37  57  85 116 153 193 240 291 343
#     4   9  20  39  59  80 112 153 193 236 286 342
#     4  10  21  39  59  82 116 151 187 232 284 337
#     4  10  22  39  62  89 117 152 193 240 293 350
#
# _framework density 19.565522999999999
#
# number of rings (size 3 to 8) (size 9 to 14) (size 15 to 20)
#    0.000    2.000    2.000    1.200    2.800    4.000 
#    0.000    3.000    0.000    0.000    0.000    2.800 
#    0.000    0.000    0.000    0.000    0.000    0.000 
#
# Total GULP energy -496099.980597 kJ/mol
# GULP energy per Si atom -12402.499515 kJ/mol
# Density = 1.952099 g / cm^3
# Si number density = 19.565523 Si / 1000 Ang^3
#
#
#
# Elastic Constant Matrix: (Units=GPa)
#
#
# Indices 1 2 3 4 5 6 
#
# 1 89.0261 28.5287 42.6246 0.0000 0.0000 6.2193
# 2 28.5287 89.0261 42.6246 0.0000 0.0000 -6.2193
# 3 42.6246 42.6246 84.5964 0.0000 0.0000 0.0000
# 4 0.0000 0.0000 0.0000 16.5158 0.0000 0.0000
# 5 0.0000 0.0000 0.0000 0.0000 16.5158 0.0000
# 6 6.2193 -6.2193 0.0000 0.0000 0.0000 32.0238
#
#
#
# Elastic Compliance Matrix: (Units=1/GPa)
#
#
# Indices 1 2 3 4 5 6 
#
# 1 0.015311 -0.001906 -0.006754 0.000000 0.000000 -0.003344
# 2 -0.001906 0.015311 -0.006754 0.000000 0.000000 0.003344
# 3 -0.006754 -0.006754 0.018627 0.000000 0.000000 0.000000
# 4 0.000000 0.000000 0.000000 0.060548 0.000000 0.000000
# 5 0.000000 0.000000 0.000000 0.000000 0.060548 0.000000
# 6 -0.003344 0.003344 0.000000 0.000000 0.000000 0.032526
#
#
# Mechanical properties :
#
#
# Convention : Reuss Voigt Hill
#
# Bulk Modulus (GPa) = 54.28854 54.46715 54.37784
# Shear Modulus (GPa) = 20.84731 22.93578 21.89155
#
# Velocity S-wave (km/s) = 3.26776 3.42754 3.34860
# Velocity P-wave (km/s) = 6.48421 6.60021 6.54247
#
# Compressibility (1/GPa) = 0.01842009
#
# Stress axis : x y z
#
# Youngs Moduli (GPa) = 65.31309 65.31309 53.68560
#
# Poissons Ratio (x) = 0.12450 0.36259
# Poissons Ratio (y) = 0.12450 0.36259
# Poissons Ratio (z) = 0.44113 0.44113
#
# Static dielectric constant tensor:
#      x y z
#    x 3.525300 0.000000 0.000000 
#    y 0.000000 3.525300 0.000000 
#    z 0.000000 0.000000 3.489870 
# 
# 
# High freq. dielectric constant tensor:
#      x y z
#    x 1.762850 0.000000 0.000000 
#    y 0.000000 1.762850 0.000000 
#    z 0.000000 0.000000 1.756160 
# 
# From -- ./inp_files/634.got.cif
#   From: 2010.03.12/outbox.cif.g09.slc.cpg/sg83_1_cif.got.tgz:634.got - 2010.04.08 20:05:18.
