data_PCOD8302436
_publ_section_title
;
Structure prediction by ZEFSAII (Michael W. Deem and Ramdas Pophale) SiO2 
 PCOD8302436
Probable space group: I -4 
;
_chemical_formula_sum "Si O2"
_cell_formula_units_Z 40
_cell_length_a 16.016145
_cell_length_b 16.016145
_cell_length_c 6.230782
_cell_angle_alpha 90.000000
_cell_angle_beta 90.000000
_cell_angle_gamma 90.000000
_cell_volume 1598.300887
_symmetry_space_group_name_H-M "I -4 "
_symmetry_group_IT_number 82
_symmetry_cell_setting 'tetragonal'
loop_
_space_group_symop_operation_xyz
x,y,z
y,-x,-z
-x,-y,z
-y,x,-z
1/2+x,1/2+y,1/2+z
1/2+y,1/2-x,1/2-z
1/2-x,1/2-y,1/2+z
1/2-y,1/2+x,1/2-z
loop_
_atom_site_type_symbol
_atom_site_label
_atom_site_fract_x
_atom_site_fract_y
_atom_site_fract_z
Si Si1 0.877131 0.781733 0.579320
Si Si2 0.426974 0.200612 0.677579
Si Si3 0.841017 0.283745 0.611362
Si Si4 0.871727 0.040007 0.053952
Si Si5 0.469906 0.878732 0.333829
O O1 0.927608 0.712733 0.435360
O O2 0.814636 0.833483 0.426158
O O3 0.818527 0.734804 0.747529
O O4 0.938652 0.846573 0.698681
O O5 0.337681 0.161335 0.608526
O O6 0.442656 0.292443 0.590357
O O7 0.499048 0.139233 0.578176
O O8 0.928995 0.294977 0.736784
O O9 0.944469 0.100625 0.968148
O O10 0.547561 0.901924 0.177980
#
# Coordination Sequence:
#
# PCOD8302436 Si02
#       5
#     8   8   8   8   8
#     4  11  22  41  74 108 142 191 251 313 376 463
#     4  10  22  41  70 103 140 198 241 307 378 447
#     4  10  21  41  70 110 144 188 252 309 374 452
#     4  10  25  47  67  99 142 183 243 309 380 456
#     4   9  20  42  69 102 155 203 250 312 377 457
#
# _framework density 25.026577
#
# number of rings (size 3 to 8) (size 9 to 14) (size 15 to 20)
#    0.000    2.000    2.000    0.000    2.800    1.600 
#    7.200   10.000    0.000    4.800    0.000    0.000 
#    0.000    0.000    0.000    0.000    0.000    0.000 
#
# Total GULP energy -247861.403373 kJ/mol
# GULP energy per Si atom -12393.070169 kJ/mol
# Density = 2.496961 g / cm^3
# Si number density = 25.026577 Si / 1000 Ang^3
#
#
#
# Elastic Constant Matrix: (Units=GPa)
#
#
# Indices 1 2 3 4 5 6 
#
# 1 82.3243 18.9570 45.4332 0.0000 0.0000 4.1377
# 2 18.9570 82.3243 45.4332 0.0000 0.0000 -4.1377
# 3 45.4332 45.4332 125.8121 0.0000 0.0000 0.0000
# 4 0.0000 0.0000 0.0000 44.5382 0.0000 0.0000
# 5 0.0000 0.0000 0.0000 0.0000 44.5382 0.0000
# 6 4.1377 -4.1377 0.0000 0.0000 0.0000 36.8832
#
#
#
# Elastic Compliance Matrix: (Units=1/GPa)
#
#
# Indices 1 2 3 4 5 6 
#
# 1 0.015311 -0.000705 -0.005274 0.000000 0.000000 -0.001797
# 2 -0.000705 0.015311 -0.005274 0.000000 0.000000 0.001797
# 3 -0.005274 -0.005274 0.011758 0.000000 0.000000 0.000000
# 4 0.000000 0.000000 0.000000 0.022453 0.000000 0.000000
# 5 0.000000 0.000000 0.000000 0.000000 0.022453 0.000000
# 6 -0.001797 0.001797 0.000000 0.000000 0.000000 0.027516
#
#
# Mechanical properties :
#
#
# Convention : Reuss Voigt Hill
#
# Bulk Modulus (GPa) = 50.32378 56.67858 53.50118
# Shear Modulus (GPa) = 34.73887 37.23439 35.98663
#
# Velocity S-wave (km/s) = 3.72974 3.86138 3.79613
# Velocity P-wave (km/s) = 6.22091 6.52509 6.37481
#
# Compressibility (1/GPa) = 0.01987132
#
# Stress axis : x y z
#
# Youngs Moduli (GPa) = 65.31450 65.31450 85.05095
#
# Poissons Ratio (x) = 0.04605 0.44858
# Poissons Ratio (y) = 0.04605 0.44858
# Poissons Ratio (z) = 0.34449 0.34449
#
# Static dielectric constant tensor:
#      x y z
#    x 4.660210 0.000000 0.000000 
#    y 0.000000 4.660210 0.000000 
#    z 0.000000 0.000000 4.677070 
# 
# 
# High freq. dielectric constant tensor:
#      x y z
#    x 1.998990 0.000000 0.000000 
#    y 0.000000 1.998990 0.000000 
#    z 0.000000 0.000000 1.986610 
# 
# From -- ./inp_files/234.got.cif
#   From: 2010.03.12/outbox.cif.g09.slc.cpg/sg82_1_cif.got.tgz:234.got - 2010.04.08 20:02:50.
