data_PCOD8302962
_publ_section_title
;
Structure prediction by ZEFSAII (Michael W. Deem and Ramdas Pophale) SiO2 
 PCOD8302962
Probable space group: P 4/M
;
_chemical_formula_sum "Si O2"
_cell_formula_units_Z 32
_cell_length_a 8.412689
_cell_length_b 8.412689
_cell_length_c 21.491715
_cell_angle_alpha 90.000000
_cell_angle_beta 90.000000
_cell_angle_gamma 90.000000
_cell_volume 1521.040371
_symmetry_space_group_name_H-M "P 4/M"
_symmetry_group_IT_number 83
_symmetry_cell_setting 'tetragonal'
loop_
_space_group_symop_operation_xyz
x,y,z
-y,x,z
-x,-y,z
y,-x,z
-x,-y,-z
y,-x,-z
x,y,-z
-y,x,-z
loop_
_atom_site_type_symbol
_atom_site_label
_atom_site_fract_x
_atom_site_fract_y
_atom_site_fract_z
Si Si1 0.577645 0.748475 0.070836
Si Si2 0.750274 0.081877 0.500000
Si Si3 0.747403 0.581401 0.252396
Si Si4 0.744773 0.588491 0.394072
Si Si5 0.000000 0.500000 0.162098
O O1 0.396537 0.695163 0.084111
O O2 0.613419 0.892907 0.117758
O O3 0.596527 0.807266 0.000000
O O4 0.643668 0.113558 0.438932
O O5 0.900572 0.198458 0.500000
O O6 0.600591 0.696705 0.238906
O O7 0.804220 0.605444 0.323220
O O8 0.893715 0.615523 0.206073
O O9 0.592907 0.699110 0.407480
#
# Coordination Sequence:
#
# PCOD8302962 Si02
#       5
#     8   4   8   8   4
#     4   9  19  36  56  79 109 144 183 226 266 310
#     4  11  24  37  52  80 116 147 176 219 276 332
#     4   9  20  37  55  79 110 141 179 226 269 317
#     4   9  19  37  59  80 103 137 185 232 269 316
#     4  12  19  28  56  87 108 136 178 222 272 321
#
# _framework density 21.038232000000001
#
# number of rings (size 3 to 8) (size 9 to 14) (size 15 to 20)
#    0.000    2.375    0.000    4.875    0.000    9.000 
#    0.000    0.000    0.000   12.000    0.000   14.000 
#    0.000    0.000    0.000    0.000    0.000    0.000 
#
# Total GULP energy -396761.496968 kJ/mol
# GULP energy per Si atom -12398.796780 kJ/mol
# Density = 2.099035 g / cm^3
# Si number density = 21.038232 Si / 1000 Ang^3
#
#
#
# Elastic Constant Matrix: (Units=GPa)
#
#
# Indices 1 2 3 4 5 6 
#
# 1 75.4860 10.3401 54.9675 0.0000 0.0000 0.2287
# 2 10.3401 75.4860 54.9675 0.0000 0.0000 -0.2287
# 3 54.9675 54.9675 146.2739 0.0000 0.0000 0.0000
# 4 0.0000 0.0000 0.0000 41.9697 0.0000 0.0000
# 5 0.0000 0.0000 0.0000 0.0000 41.9697 0.0000
# 6 0.2287 -0.2287 0.0000 0.0000 0.0000 20.1662
#
#
#
# Elastic Compliance Matrix: (Units=1/GPa)
#
#
# Indices 1 2 3 4 5 6 
#
# 1 0.018908 0.003557 -0.008442 0.000000 0.000000 -0.000174
# 2 0.003557 0.018908 -0.008442 0.000000 0.000000 0.000174
# 3 -0.008442 -0.008442 0.013181 0.000000 0.000000 0.000000
# 4 0.000000 0.000000 0.000000 0.023827 0.000000 0.000000
# 5 0.000000 0.000000 0.000000 0.000000 0.023827 0.000000
# 6 -0.000174 0.000174 0.000000 0.000000 0.000000 0.049592
#
#
# Mechanical properties :
#
#
# Convention : Reuss Voigt Hill
#
# Bulk Modulus (GPa) = 41.07954 59.75511 50.41732
# Shear Modulus (GPa) = 27.32077 32.61920 29.96998
#
# Velocity S-wave (km/s) = 3.60755 3.94188 3.77841
# Velocity P-wave (km/s) = 6.07627 7.01303 6.56139
#
# Compressibility (1/GPa) = 0.02434302
#
# Stress axis : x y z
#
# Youngs Moduli (GPa) = 52.88754 52.88754 75.86594
#
# Poissons Ratio (x) = -0.18810 0.64045
# Poissons Ratio (y) = -0.18810 0.64045
# Poissons Ratio (z) = 0.44647 0.44647
#
# Static dielectric constant tensor:
#      x y z
#    x 3.559220 0.000000 0.000000 
#    y 0.000000 3.559220 0.000000 
#    z 0.000000 0.000000 4.054420 
# 
# 
# High freq. dielectric constant tensor:
#      x y z
#    x 1.796940 0.000000 0.000000 
#    y 0.000000 1.796940 0.000000 
#    z 0.000000 0.000000 1.852570 
# 
# From -- ./inp_files/3073.got.cif
#   From: 2010.03.12/outbox.cif.g09.slc.cpg/sg83_2_cif.got.tgz:3073.got - 2010.04.08 20:05:18.
