data_PCOD8302169
_publ_section_title
;
Structure prediction by ZEFSAII (Michael W. Deem and Ramdas Pophale) SiO2 
 PCOD8302169
Probable space group: I 41
;
_chemical_formula_sum "Si O2"
_cell_formula_units_Z 48
_cell_length_a 10.566129
_cell_length_b 10.566129
_cell_length_c 18.679248
_cell_angle_alpha 90.000000
_cell_angle_beta 90.000000
_cell_angle_gamma 90.000000
_cell_volume 2085.408817
_symmetry_space_group_name_H-M "I 41"
_symmetry_group_IT_number 80
_symmetry_cell_setting 'tetragonal'
loop_
_space_group_symop_operation_xyz
x,y,z
-y,1/2+x,1/4+z
-x,-y,z
y,1/2-x,1/4+z
1/2+x,1/2+y,1/2+z
1/2-y,x,3/4+z
1/2-x,1/2-y,1/2+z
1/2+y,-x,3/4+z
loop_
_atom_site_type_symbol
_atom_site_label
_atom_site_fract_x
_atom_site_fract_y
_atom_site_fract_z
Si Si1 0.348106 0.295894 0.981590
Si Si2 0.358317 0.289698 0.372974
Si Si3 0.500000 0.000000 0.544913
Si Si4 0.872082 0.076315 0.196513
Si Si5 0.337506 0.695059 0.836716
Si Si6 0.500000 0.000000 0.165461
Si Si7 0.922888 0.384986 0.907032
O O1 0.250702 0.214391 0.932842
O O2 0.379822 0.441037 0.958716
O O3 0.293883 0.299409 0.060473
O O4 0.481614 0.226484 0.983089
O O5 0.395048 0.429305 0.343597
O O6 0.487627 0.237087 0.406546
O O7 0.599977 0.072860 0.491084
O O8 0.834136 0.133768 0.119246
O O9 0.861276 0.196009 0.251222
O O10 0.000000 0.000000 0.187386
O O11 0.449799 0.608941 0.865070
O O12 0.202776 0.642837 0.862989
O O13 0.000000 0.500000 0.868298
#
# Coordination Sequence:
#
# PCOD8302169 Si02
#       7
#     8   8   4   8   8   4   8
#     4  11  24  40  74  99 147 181 238 303 363 431
#     4  12  23  44  67 105 140 191 238 298 365 433
#     4  10  24  41  66 102 143 188 238 286 368 433
#     4  11  26  46  71 105 144 192 249 300 367 437
#     4  11  23  41  71 100 143 189 234 309 358 434
#     4  10  20  39  64 108 129 176 236 294 364 417
#     4  10  22  40  65 104 140 181 237 298 359 432
#
# _framework density 23.017067999999998
#
# number of rings (size 3 to 8) (size 9 to 14) (size 15 to 20)
#    0.500    0.667    2.500    4.000   10.500    1.333 
#    0.000    0.000    1.833    0.000    0.000    0.000 
#    0.000    0.000    0.000    0.000    0.000    0.000 
#
# Total GULP energy -297384.114302 kJ/mol
# GULP energy per Si atom -12391.004763 kJ/mol
# Density = 2.296468 g / cm^3
# Si number density = 23.017068 Si / 1000 Ang^3
#
#
#
# Elastic Constant Matrix: (Units=GPa)
#
#
# Indices 1 2 3 4 5 6 
#
# 1 89.2824 16.2801 31.7030 0.0000 0.0000 -10.9169
# 2 16.2801 89.2824 31.7030 0.0000 0.0000 10.9169
# 3 31.7030 31.7030 102.1471 0.0000 0.0000 0.0000
# 4 0.0000 0.0000 0.0000 22.1325 0.0000 0.0000
# 5 0.0000 0.0000 0.0000 0.0000 22.1325 0.0000
# 6 -10.9169 10.9169 0.0000 0.0000 0.0000 38.8535
#
#
#
# Elastic Compliance Matrix: (Units=1/GPa)
#
#
# Indices 1 2 3 4 5 6 
#
# 1 0.013299 -0.001656 -0.003614 0.000000 0.000000 0.004202
# 2 -0.001656 0.013299 -0.003614 0.000000 0.000000 -0.004202
# 3 -0.003614 -0.003614 0.012033 0.000000 0.000000 0.000000
# 4 0.000000 0.000000 0.000000 0.045182 0.000000 0.000000
# 5 0.000000 0.000000 0.000000 0.000000 0.045182 0.000000
# 6 0.004202 -0.004202 0.000000 0.000000 0.000000 0.028099
#
#
# Mechanical properties :
#
#
# Convention : Reuss Voigt Hill
#
# Bulk Modulus (GPa) = 47.92677 48.89823 48.41250
# Shear Modulus (GPa) = 27.50018 30.02541 28.76279
#
# Velocity S-wave (km/s) = 3.46030 3.61568 3.53884
# Velocity P-wave (km/s) = 6.06897 6.22265 6.14629
#
# Compressibility (1/GPa) = 0.02086516
#
# Stress axis : x y z
#
# Youngs Moduli (GPa) = 75.19182 75.19182 83.10468
#
# Poissons Ratio (x) = 0.12449 0.30032
# Poissons Ratio (y) = 0.12449 0.30032
# Poissons Ratio (z) = 0.27173 0.27173
#
# Static dielectric constant tensor:
#      x y z
#    x 4.234630 0.000000 0.000000 
#    y 0.000000 4.234630 0.000000 
#    z 0.000000 0.000000 4.176860 
# 
# 
# High freq. dielectric constant tensor:
#      x y z
#    x 1.902220 0.000000 0.000000 
#    y 0.000000 1.902220 0.000000 
#    z 0.000000 0.000000 1.903750 
# 
# From -- ./inp_files/1786.got.cif
#   From: 2010.03.12/outbox.cif.g09.slc.cpg/sg80_cif.got.tgz:1786.got - 2010.04.08 20:00:04.
