data_PCOD8302388
_publ_section_title
;
Structure prediction by ZEFSAII (Michael W. Deem and Ramdas Pophale) SiO2 
 PCOD8302388
Probable space group: I -4 
;
_chemical_formula_sum "Si O2"
_cell_formula_units_Z 28
_cell_length_a 14.142640
_cell_length_b 14.142640
_cell_length_c 5.254122
_cell_angle_alpha 90.000000
_cell_angle_beta 90.000000
_cell_angle_gamma 90.000000
_cell_volume 1050.899356
_symmetry_space_group_name_H-M "I -4 "
_symmetry_group_IT_number 82
_symmetry_cell_setting 'tetragonal'
loop_
_space_group_symop_operation_xyz
x,y,z
y,-x,-z
-x,-y,z
-y,x,-z
1/2+x,1/2+y,1/2+z
1/2+y,1/2-x,1/2-z
1/2-x,1/2-y,1/2+z
1/2-y,1/2+x,1/2-z
loop_
_atom_site_type_symbol
_atom_site_label
_atom_site_fract_x
_atom_site_fract_y
_atom_site_fract_z
Si Si1 0.000000 0.500000 0.750000
Si Si2 0.268719 0.356866 0.065775
Si Si3 0.902537 0.324042 0.927893
Si Si4 0.186474 0.965342 0.299734
Si Si5 0.000000 0.000000 0.000000
O O1 0.072057 0.563643 0.919818
O O2 0.199834 0.350263 0.308977
O O3 0.360097 0.287979 0.097797
O O4 0.209945 0.333829 0.807205
O O5 0.311786 0.463243 0.039515
O O6 0.001267 0.265813 0.904711
O O7 0.084639 0.962110 0.171564
#
# Coordination Sequence:
#
# PCOD8302388 Si02
#       5
#     2   8   8   8   2
#     4  12  28  62  68  86 132 202 268 306 324 386
#     4  10  21  38  64 109 140 168 219 275 354 426
#     4  10  26  40  72  96 129 194 235 283 343 405
#     4  10  20  35  63 112 142 176 207 267 360 441
#     4  12  16  34  72 106 168 178 192 274 372 458
#
# _framework density 26.643844000000001
#
# number of rings (size 3 to 8) (size 9 to 14) (size 15 to 20)
#    1.714    0.000    2.857    1.714    4.000    3.429 
#    0.000    2.857    0.000    0.000    0.000    0.000 
#    0.000    0.000    0.000    0.000    0.000    0.000 
#
# Total GULP energy -173490.632173 kJ/mol
# GULP energy per Si atom -12392.188012 kJ/mol
# Density = 2.658320 g / cm^3
# Si number density = 26.643844 Si / 1000 Ang^3
#
#
#
# Elastic Constant Matrix: (Units=GPa)
#
#
# Indices 1 2 3 4 5 6 
#
# 1 60.0212 -25.9347 -4.8147 0.0000 0.0000 -21.0192
# 2 -25.9347 60.0212 -4.8147 0.0000 0.0000 21.0192
# 3 -4.8147 -4.8147 144.1049 0.0000 0.0000 0.0000
# 4 0.0000 0.0000 0.0000 22.9273 0.0000 0.0000
# 5 0.0000 0.0000 0.0000 0.0000 22.9273 0.0000
# 6 -21.0192 21.0192 0.0000 0.0000 0.0000 57.2484
#
#
#
# Elastic Compliance Matrix: (Units=1/GPa)
#
#
# Indices 1 2 3 4 5 6 
#
# 1 0.021898 0.007718 0.000990 0.000000 0.000000 0.005206
# 2 0.007718 0.021898 0.000990 0.000000 0.000000 -0.005206
# 3 0.000990 0.000990 0.007006 0.000000 0.000000 0.000000
# 4 0.000000 0.000000 0.000000 0.043616 0.000000 0.000000
# 5 0.000000 0.000000 0.000000 0.000000 0.043616 0.000000
# 6 0.005206 -0.005206 0.000000 0.000000 0.000000 0.021291
#
#
# Mechanical properties :
#
#
# Convention : Reuss Voigt Hill
#
# Bulk Modulus (GPa) = 14.24564 21.44657 17.84610
# Shear Modulus (GPa) = 30.61289 40.60134 35.60712
#
# Velocity S-wave (km/s) = 3.39332 3.90789 3.65966
# Velocity P-wave (km/s) = 4.55095 5.33188 4.95682
#
# Compressibility (1/GPa) = 0.07019691
#
# Stress axis : x y z
#
# Youngs Moduli (GPa) = 45.66545 45.66545 142.74473
#
# Poissons Ratio (x) = -0.35246 -0.14125
# Poissons Ratio (y) = -0.35246 -0.14125
# Poissons Ratio (z) = -0.04519 -0.04519
#
# Static dielectric constant tensor:
#      x y z
#    x 4.710150 0.000000 0.000000 
#    y 0.000000 4.710150 0.000000 
#    z 0.000000 0.000000 4.320060 
# 
# 
# High freq. dielectric constant tensor:
#      x y z
#    x 2.078050 0.000000 0.000000 
#    y 0.000000 2.078050 0.000000 
#    z 0.000000 0.000000 2.044390 
# 
# From -- ./inp_files/147.got.cif
#   From: 2010.03.12/outbox.cif.g09.slc.cpg/sg82_1_cif.got.tgz:147.got - 2010.04.08 20:02:50.
