data_PCOD8302702
_publ_section_title
;
Structure prediction by ZEFSAII (Michael W. Deem and Ramdas Pophale) SiO2 
 PCOD8302702
Probable space group: P 4/M
;
_chemical_formula_sum "Si O2"
_cell_formula_units_Z 56
_cell_length_a 14.900638
_cell_length_b 14.900638
_cell_length_c 14.378629
_cell_angle_alpha 90.000000
_cell_angle_beta 90.000000
_cell_angle_gamma 90.000000
_cell_volume 3192.472802
_symmetry_space_group_name_H-M "P 4/M"
_symmetry_group_IT_number 83
_symmetry_cell_setting 'tetragonal'
loop_
_space_group_symop_operation_xyz
x,y,z
-y,x,z
-x,-y,z
y,-x,z
-x,-y,-z
y,-x,-z
x,y,-z
-y,x,-z
loop_
_atom_site_type_symbol
_atom_site_label
_atom_site_fract_x
_atom_site_fract_y
_atom_site_fract_z
Si Si1 0.297233 0.682616 0.250000
Si Si2 0.868672 0.929746 0.750000
Si Si3 0.511821 0.233969 0.249999
Si Si4 0.847001 0.264262 0.391602
Si Si5 0.152998 0.735738 0.108398
Si Si6 0.906697 0.462078 0.393590
Si Si7 0.462077 0.093301 0.106410
O O1 0.400790 0.705969 0.249999
O O2 0.296952 0.575161 0.250001
O O3 0.249073 0.722770 0.341792
O O4 0.249072 0.722768 0.158208
O O5 0.815746 0.901830 0.656723
O O6 0.815747 0.901830 0.843276
O O7 0.963603 0.879614 0.749999
O O8 0.512042 0.172783 0.341183
O O9 0.512040 0.172785 0.158814
O O10 0.831754 0.241494 0.500000
O O11 0.904482 0.355038 0.377729
O O12 0.095516 0.644963 0.122269
O O13 0.168245 0.758507 0.000000
O O14 0.893993 0.488415 0.500000
O O15 0.000000 0.500000 0.354355
O O16 0.500000 0.000000 0.145649
O O17 0.488416 0.106001 0.000000
#
# Coordination Sequence:
#
# PCOD8302702 Si02
#       7
#     8   8   8   8   8   8   8
#     4   9  20  34  52  76 102 134 169 206 249 301
#     4  10  22  37  51  73 104 137 173 205 240 296
#     4  10  19  33  50  72 104 136 165 204 247 293
#     4   9  19  36  54  74 102 132 166 211 256 296
#     4   9  19  36  54  74 102 132 166 211 256 296
#     4   9  18  32  52  77 100 126 164 209 257 302
#     4   9  18  32  52  77 100 126 164 209 257 302
#
# _framework density 17.541262
#
# number of rings (size 3 to 8) (size 9 to 14) (size 15 to 20)
#    0.000    2.714    0.000    1.286    0.000    7.143 
#    0.000    4.286    0.000    0.000    0.000    8.000 
#    0.000    0.000    0.000    0.000    0.000    0.000 
#
# Total GULP energy -694408.033677 kJ/mol
# GULP energy per Si atom -12400.143459 kJ/mol
# Density = 1.750134 g / cm^3
# Si number density = 17.541262 Si / 1000 Ang^3
#
#
#
# Elastic Constant Matrix: (Units=GPa)
#
#
# Indices 1 2 3 4 5 6 
#
# 1 127.0821 81.2342 58.7330 0.0000 0.0000 14.0704
# 2 81.2342 127.0821 58.7330 0.0000 0.0000 -14.0704
# 3 58.7330 58.7330 133.7860 0.0000 0.0000 0.0000
# 4 0.0000 0.0000 0.0000 21.7382 0.0000 0.0000
# 5 0.0000 0.0000 0.0000 0.0000 21.7382 0.0000
# 6 14.0704 -14.0704 0.0000 0.0000 0.0000 31.6379
#
#
#
# Elastic Compliance Matrix: (Units=1/GPa)
#
#
# Indices 1 2 3 4 5 6 
#
# 1 0.018190 -0.011810 -0.002801 0.000000 0.000000 -0.013342
# 2 -0.011810 0.018190 -0.002801 0.000000 0.000000 0.013342
# 3 -0.002801 -0.002801 0.009934 0.000000 0.000000 0.000000
# 4 0.000000 0.000000 0.000000 0.046002 0.000000 0.000000
# 5 0.000000 0.000000 0.000000 0.000000 0.046002 0.000000
# 6 -0.013342 0.013342 0.000000 0.000000 0.000000 0.043475
#
#
# Mechanical properties :
#
#
# Convention : Reuss Voigt Hill
#
# Bulk Modulus (GPa) = 87.03099 87.26114 87.14607
# Shear Modulus (GPa) = 22.68124 27.63953 25.16038
#
# Velocity S-wave (km/s) = 3.59976 3.97380 3.79140
# Velocity P-wave (km/s) = 8.18538 8.42075 8.30390
#
# Compressibility (1/GPa) = 0.01149016
#
# Stress axis : x y z
#
# Youngs Moduli (GPa) = 54.97512 54.97512 100.66749
#
# Poissons Ratio (x) = 0.64928 0.28194
# Poissons Ratio (y) = 0.64928 0.28194
# Poissons Ratio (z) = 0.15397 0.15397
#
# Static dielectric constant tensor:
#      x y z
#    x 3.156540 0.000000 0.000000 
#    y 0.000000 3.156540 0.000000 
#    z 0.000000 0.000000 3.548180 
# 
# 
# High freq. dielectric constant tensor:
#      x y z
#    x 1.671540 0.000000 0.000000 
#    y 0.000000 1.671540 0.000000 
#    z 0.000000 0.000000 1.691110 
# 
# From -- ./inp_files/2409.got.cif
#   From: 2010.03.12/outbox.cif.g09.slc.cpg/sg83_2_cif.got.tgz:2409.got - 2010.04.08 20:05:18.
