data_PCOD8302111
_publ_section_title
;
Structure prediction by ZEFSAII (Michael W. Deem and Ramdas Pophale) SiO2 
 PCOD8302111
Probable space group: I 4
;
_chemical_formula_sum "Si O2"
_cell_formula_units_Z 60
_cell_length_a 17.246674
_cell_length_b 17.246674
_cell_length_c 9.482959
_cell_angle_alpha 90.000000
_cell_angle_beta 90.000000
_cell_angle_gamma 90.000000
_cell_volume 2820.684951
_symmetry_space_group_name_H-M "I 4"
_symmetry_group_IT_number 79
_symmetry_cell_setting 'tetragonal'
loop_
_space_group_symop_operation_xyz
x,y,z
-y,x,z
-x,-y,z
y,-x,z
1/2+x,1/2+y,1/2+z
1/2-y,1/2+x,1/2+z
1/2-x,1/2-y,1/2+z
1/2+y,1/2-x,1/2+z
loop_
_atom_site_type_symbol
_atom_site_label
_atom_site_fract_x
_atom_site_fract_y
_atom_site_fract_z
Si Si1 0.012271 0.388151 0.919390
Si Si2 0.148415 0.679928 0.998010
Si Si3 0.069965 0.895302 0.622037
Si Si4 0.863196 0.149837 0.898325
Si Si5 0.679058 0.322618 0.902841
Si Si6 0.602602 0.425715 0.675537
Si Si7 0.500000 0.000000 0.168977
Si Si8 0.193968 0.652364 0.309520
O O1 0.078531 0.323171 0.909970
O O2 0.028334 0.433283 0.773958
O O3 0.030261 0.432834 0.064610
O O4 0.922659 0.361944 0.918936
O O5 0.153429 0.649507 0.157421
O O6 0.128897 0.770768 0.986402
O O7 0.230673 0.659170 0.929383
O O8 0.070117 0.867224 0.784544
O O9 0.119918 0.836452 0.530110
O O10 0.979306 0.894158 0.586193
O O11 0.786651 0.150687 0.801060
O O12 0.869322 0.082520 0.014379
O O13 0.661018 0.377649 0.771661
O O14 0.665414 0.231929 0.878387
O O15 0.606873 0.516833 0.707240
#
# Coordination Sequence:
#
# PCOD8302111 Si02
#       8
#     8   8   8   8   8   8   4   8
#     4  11  24  46  72  98 137 178 224 290 343 408
#     4  11  24  45  69 100 137 175 232 281 342 406
#     4  11  24  43  67 102 140 177 224 276 339 409
#     4  11  24  41  70 102 134 179 228 279 334 414
#     4  11  24  45  68 100 138 179 224 285 334 412
#     4  11  24  43  67 102 140 177 224 276 339 409
#     4  10  24  46  64 102 136 170 232 290 348 402
#     4  11  24  45  69 100 137 175 232 281 342 406
#
# _framework density 21.271431
#
# number of rings (size 3 to 8) (size 9 to 14) (size 15 to 20)
#    0.000    1.067    4.000    1.600    3.733    4.267 
#    9.600    0.000    0.000    0.000    0.000    0.000 
#    0.000    0.000    0.000    0.000    0.000    0.000 
#
# Total GULP energy -371888.230621 kJ/mol
# GULP energy per Si atom -12396.274354 kJ/mol
# Density = 2.122302 g / cm^3
# Si number density = 21.271431 Si / 1000 Ang^3
#
#
#
# Elastic Constant Matrix: (Units=GPa)
#
#
# Indices 1 2 3 4 5 6 
#
# 1 90.9750 36.8824 33.2777 0.0000 0.0000 0.0778
# 2 36.8824 90.9750 33.2777 0.0000 0.0000 -0.0778
# 3 33.2777 33.2777 119.4716 0.0000 0.0000 0.0000
# 4 0.0000 0.0000 0.0000 29.4790 0.0000 0.0000
# 5 0.0000 0.0000 0.0000 0.0000 29.4790 0.0000
# 6 0.0778 -0.0778 0.0000 0.0000 0.0000 35.3758
#
#
#
# Elastic Compliance Matrix: (Units=1/GPa)
#
#
# Indices 1 2 3 4 5 6 
#
# 1 0.013817 -0.004670 -0.002548 0.000000 0.000000 -0.000041
# 2 -0.004670 0.013817 -0.002548 0.000000 0.000000 0.000041
# 3 -0.002548 -0.002548 0.009790 0.000000 0.000000 0.000000
# 4 0.000000 0.000000 0.000000 0.033922 0.000000 0.000000
# 5 0.000000 0.000000 0.000000 0.000000 0.033922 0.000000
# 6 -0.000041 0.000041 0.000000 0.000000 0.000000 0.028268
#
#
# Mechanical properties :
#
#
# Convention : Reuss Voigt Hill
#
# Bulk Modulus (GPa) = 55.88823 56.47744 56.18284
# Shear Modulus (GPa) = 31.44009 32.06568 31.75288
#
# Velocity S-wave (km/s) = 3.84870 3.88680 3.86780
# Velocity P-wave (km/s) = 6.78829 6.83751 6.81294
#
# Compressibility (1/GPa) = 0.01789285
#
# Stress axis : x y z
#
# Youngs Moduli (GPa) = 72.37337 72.37337 102.14918
#
# Poissons Ratio (x) = 0.33796 0.26027
# Poissons Ratio (y) = 0.33796 0.26027
# Poissons Ratio (z) = 0.18440 0.18440
#
# Static dielectric constant tensor:
#      x y z
#    x 3.830420 0.000000 0.000000 
#    y 0.000000 3.830420 0.000000 
#    z 0.000000 0.000000 3.825400 
# 
# 
# High freq. dielectric constant tensor:
#      x y z
#    x 1.836600 0.000000 0.000000 
#    y 0.000000 1.836600 0.000000 
#    z 0.000000 0.000000 1.844840 
# 
# From -- ./inp_files/748.got.cif
#   From: 2010.03.12/outbox.cif.g09.slc.cpg/sg79_cif.got.tgz:748.got - 2010.04.16 16:38:49.
