data_PCOD8302469
_publ_section_title
;
Structure prediction by ZEFSAII (Michael W. Deem and Ramdas Pophale) SiO2 
 PCOD8302469
Probable space group: I -4 
;
_chemical_formula_sum "Si O2"
_cell_formula_units_Z 48
_cell_length_a 9.010752
_cell_length_b 9.010752
_cell_length_c 26.314952
_cell_angle_alpha 90.000000
_cell_angle_beta 90.000000
_cell_angle_gamma 90.000000
_cell_volume 2136.607045
_symmetry_space_group_name_H-M "I -4 "
_symmetry_group_IT_number 82
_symmetry_cell_setting 'tetragonal'
loop_
_space_group_symop_operation_xyz
x,y,z
y,-x,-z
-x,-y,z
-y,x,-z
1/2+x,1/2+y,1/2+z
1/2+y,1/2-x,1/2-z
1/2-x,1/2-y,1/2+z
1/2-y,1/2+x,1/2-z
loop_
_atom_site_type_symbol
_atom_site_label
_atom_site_fract_x
_atom_site_fract_y
_atom_site_fract_z
Si Si1 0.839337 0.454681 0.342994
Si Si2 0.752643 0.182976 0.128175
Si Si3 0.660664 0.851458 0.550731
Si Si4 0.885959 0.253347 0.809304
Si Si5 0.679460 0.181042 0.527949
Si Si6 0.821760 0.981280 0.299503
O O1 0.752473 0.587651 0.367293
O O2 0.859783 0.334658 0.388040
O O3 0.723290 0.388879 0.302684
O O4 0.000000 0.500000 0.319297
O O5 0.727079 0.211751 0.067794
O O6 0.653748 0.286520 0.163870
O O7 0.749342 0.009657 0.145511
O O8 0.496957 0.809292 0.531852
O O9 0.768660 0.725630 0.528642
O O10 0.723962 0.009811 0.533333
O O11 0.967513 0.255578 0.755590
O O12 0.771271 0.383456 0.822647
O O13 0.000000 0.000000 0.296178
#
# Coordination Sequence:
#
# PCOD8302469 Si02
#       6
#     8   8   8   8   8   8
#     4  11  22  46  70  99 139 183 234 291 346 422
#     4  11  23  45  69 100 139 184 235 283 355 424
#     4  10  22  44  67  99 141 176 228 296 337 423
#     4  12  26  44  72 100 142 183 232 293 352 428
#     4  10  23  43  67  99 138 180 231 281 353 412
#     4  12  26  46  67 103 139 182 233 290 355 420
#
# _framework density 22.465526000000001
#
# number of rings (size 3 to 8) (size 9 to 14) (size 15 to 20)
#    0.000    1.000    5.000    3.000    2.333    2.000 
#    3.000    0.000    0.000    0.000    0.000    0.000 
#    0.000    0.000    0.000    0.000    0.000    0.000 
#
# Total GULP energy -297329.856634 kJ/mol
# GULP energy per Si atom -12388.744026 kJ/mol
# Density = 2.241439 g / cm^3
# Si number density = 22.465526 Si / 1000 Ang^3
#
#
#
# Elastic Constant Matrix: (Units=GPa)
#
#
# Indices 1 2 3 4 5 6 
#
# 1 139.1909 5.4023 28.5574 0.0000 0.0000 -15.4412
# 2 5.4023 139.1910 28.5573 0.0000 0.0000 15.4412
# 3 28.5574 28.5573 6.3730 0.0000 0.0000 0.0000
# 4 0.0000 0.0000 0.0000 49.6718 0.0000 0.0000
# 5 0.0000 0.0000 0.0000 0.0000 49.6718 0.0000
# 6 -15.4412 15.4412 0.0000 0.0000 0.0000 50.0054
#
#
#
# Elastic Compliance Matrix: (Units=1/GPa)
#
#
# Indices 1 2 3 4 5 6 
#
# 1 -0.000467 -0.008515 0.040247 0.000000 0.000000 0.002485
# 2 -0.008515 -0.000467 0.040247 0.000000 0.000000 -0.002485
# 3 0.040247 0.040247 -0.203782 0.000000 0.000000 0.000000
# 4 0.000000 0.000000 0.000000 0.020132 0.000000 0.000000
# 5 0.000000 0.000000 0.000000 0.000000 0.020132 0.000000
# 6 0.002485 -0.002485 0.000000 0.000000 0.000000 0.021533
#
#
# Mechanical properties :
#
#
# Convention : Reuss Voigt Hill
#
# Bulk Modulus (GPa) = -16.45909 45.53210 14.53650
# Shear Modulus (GPa) = -16.27979 44.68565 14.20293
#
# Velocity S-wave (km/s) = -2.69486 4.46474 2.51711
# Velocity P-wave (km/s) = 4.12618 6.84764 3.86425
#
# Compressibility (1/GPa) = -0.06075669
#
# Stress axis : x y z
#
# Youngs Moduli (GPa) = -2142.12068 -2142.21525 -4.90721
#
# Poissons Ratio (x) = -18.24085 0.19750
# Poissons Ratio (y) = -18.24004 0.19750
# Poissons Ratio (z) = 86.21428 86.21796
#
# Static dielectric constant tensor:
#      x y z
#    x 3.760390 0.000000 0.000000 
#    y 0.000000 3.760390 0.000000 
#    z 0.000000 0.000000 2.070610 
# 
# 
# High freq. dielectric constant tensor:
#      x y z
#    x 1.890050 0.000000 0.000000 
#    y 0.000000 1.890050 0.000000 
#    z 0.000000 0.000000 1.877460 
# 
# From -- ./inp_files/4016.got.cif
#   From: 2010.03.12/outbox.cif.g09.slc.cpg/sg82_3_cif.got.tgz:4016.got - 2010.04.08 20:02:50.
