data_PCOD8302012
_publ_section_title
;
Structure prediction by ZEFSAII (Michael W. Deem and Ramdas Pophale) SiO2 
 PCOD8302012
Probable space group: P 43
;
_chemical_formula_sum "Si O2"
_cell_formula_units_Z 28
_cell_length_a 8.961897
_cell_length_b 8.961897
_cell_length_c 15.648129
_cell_angle_alpha 90.000000
_cell_angle_beta 90.000000
_cell_angle_gamma 90.000000
_cell_volume 1256.788836
_symmetry_space_group_name_H-M "P 43"
_symmetry_group_IT_number 78
_symmetry_cell_setting 'tetragonal'
loop_
_space_group_symop_operation_xyz
x,y,z
-y,x,3/4+z
-x,-y,1/2+z
y,-x,1/4+z
loop_
_atom_site_type_symbol
_atom_site_label
_atom_site_fract_x
_atom_site_fract_y
_atom_site_fract_z
Si Si1 0.789220 0.412945 0.118690
Si Si2 0.767196 0.742551 0.169740
Si Si3 0.562106 0.310865 0.685742
Si Si4 0.037002 0.669684 0.781840
Si Si5 0.742662 0.813090 0.709392
Si Si6 0.611154 0.455598 0.853873
Si Si7 0.951704 0.664687 0.328919
O O1 0.793412 0.592190 0.114602
O O2 0.838789 0.356168 0.210508
O O3 0.626688 0.335916 0.106171
O O4 0.888229 0.344407 0.040625
O O5 0.603984 0.741072 0.213760
O O6 0.769582 0.886801 0.106965
O O7 0.896145 0.749949 0.242890
O O8 0.654276 0.374840 0.765658
O O9 0.542056 0.432501 0.611558
O O10 0.660624 0.181339 0.646507
O O11 0.986965 0.503941 0.812813
O O12 0.903942 0.760418 0.739575
O O13 0.637491 0.675108 0.682939
O O14 0.759166 0.921023 0.627271
#
# Coordination Sequence:
#
# PCOD8302012 Si02
#       7
#     4   4   4   4   4   4   4
#     4  10  21  39  67 100 127 171 218 286 330 386
#     4   9  19  41  69  96 128 171 221 272 336 396
#     4  10  19  36  66 101 129 162 218 282 332 386
#     4  10  23  42  65  97 140 174 224 274 333 393
#     4  12  24  38  63  96 137 176 218 268 328 405
#     4  11  20  36  66 100 127 164 222 278 333 385
#     4  10  22  40  66 100 134 174 225 270 334 399
#
# _framework density 22.279001000000001
#
# number of rings (size 3 to 8) (size 9 to 14) (size 15 to 20)
#    0.000    1.714    2.857    1.714    6.000    0.000 
#    0.000    1.429    3.143    0.000    0.000    0.000 
#    0.000    0.000    0.000    0.000    0.000    0.000 
#
# Total GULP energy -347065.541302 kJ/mol
# GULP energy per Si atom -12395.197904 kJ/mol
# Density = 2.222829 g / cm^3
# Si number density = 22.279001 Si / 1000 Ang^3
#
#
#
# Elastic Constant Matrix: (Units=GPa)
#
#
# Indices 1 2 3 4 5 6 
#
# 1 78.6297 40.8929 45.5633 0.0000 0.0000 -3.9370
# 2 40.8929 78.6297 45.5633 0.0000 0.0000 3.9370
# 3 45.5633 45.5633 119.5173 0.0000 0.0000 0.0000
# 4 0.0000 0.0000 0.0000 43.2709 0.0000 0.0000
# 5 0.0000 0.0000 0.0000 0.0000 43.2709 0.0000
# 6 -3.9370 3.9370 0.0000 0.0000 0.0000 20.9546
#
#
#
# Elastic Compliance Matrix: (Units=1/GPa)
#
#
# Indices 1 2 3 4 5 6 
#
# 1 0.019688 -0.007893 -0.004497 0.000000 0.000000 0.005182
# 2 -0.007893 0.019688 -0.004497 0.000000 0.000000 -0.005182
# 3 -0.004497 -0.004497 0.011795 0.000000 0.000000 0.000000
# 4 0.000000 0.000000 0.000000 0.023110 0.000000 0.000000
# 5 0.000000 0.000000 0.000000 0.000000 0.023110 0.000000
# 6 0.005182 -0.005182 0.000000 0.000000 0.000000 0.049669
#
#
# Mechanical properties :
#
#
# Convention : Reuss Voigt Hill
#
# Bulk Modulus (GPa) = 57.47455 60.09065 58.78260
# Shear Modulus (GPa) = 26.79069 31.14977 28.97023
#
# Velocity S-wave (km/s) = 3.47148 3.74326 3.60993
# Velocity P-wave (km/s) = 6.47471 6.76115 6.61948
#
# Compressibility (1/GPa) = 0.01739901
#
# Stress axis : x y z
#
# Youngs Moduli (GPa) = 50.79311 50.79311 84.77883
#
# Poissons Ratio (x) = 0.40090 0.38121
# Poissons Ratio (y) = 0.40090 0.38121
# Poissons Ratio (z) = 0.22839 0.22839
#
# Static dielectric constant tensor:
#      x y z
#    x 3.744090 0.000000 0.000000 
#    y 0.000000 3.744090 0.000000 
#    z 0.000000 0.000000 4.120170 
# 
# 
# High freq. dielectric constant tensor:
#      x y z
#    x 1.855800 0.000000 0.000000 
#    y 0.000000 1.855800 0.000000 
#    z 0.000000 0.000000 1.892820 
# 
# From -- ./inp_files/1281.got.cif
#   From: 2010.03.12/outbox.cif.g09.slc.cpg/sg78_cif.got.tgz:1281.got - 2010.04.16 16:37:20.
