data_PCOD8302767
_publ_section_title
;
Structure prediction by ZEFSAII (Michael W. Deem and Ramdas Pophale) SiO2 
 PCOD8302767
Probable space group: P 4/M
;
_chemical_formula_sum "Si O2"
_cell_formula_units_Z 52
_cell_length_a 18.412719
_cell_length_b 18.412719
_cell_length_c 8.394033
_cell_angle_alpha 90.000000
_cell_angle_beta 90.000000
_cell_angle_gamma 90.000000
_cell_volume 2845.814075
_symmetry_space_group_name_H-M "P 4/M"
_symmetry_group_IT_number 83
_symmetry_cell_setting 'tetragonal'
loop_
_space_group_symop_operation_xyz
x,y,z
-y,x,z
-x,-y,z
y,-x,z
-x,-y,-z
y,-x,-z
x,y,-z
-y,x,-z
loop_
_atom_site_type_symbol
_atom_site_label
_atom_site_fract_x
_atom_site_fract_y
_atom_site_fract_z
Si Si1 0.362456 0.867166 0.810275
Si Si2 0.570981 0.594966 0.500000
Si Si3 0.833267 0.369249 0.315211
Si Si4 0.581964 0.988026 0.310935
Si Si5 0.769187 0.508462 0.817980
Si Si6 0.246738 0.254860 0.825060
Si Si7 0.355337 0.386795 0.175520
O O1 0.433896 0.825943 0.740096
O O2 0.287001 0.828431 0.749226
O O3 0.364165 0.949857 0.753364
O O4 0.362664 0.860746 0.000000
O O5 0.485778 0.600733 0.500000
O O6 0.596856 0.630683 0.332584
O O7 0.841998 0.375998 0.500000
O O8 0.912179 0.387379 0.240186
O O9 0.774479 0.429132 0.261218
O O10 0.807292 0.287378 0.275645
O O11 0.583069 0.990014 0.500000
O O12 0.500000 0.000000 0.246564
O O13 0.686827 0.536847 0.798293
O O14 0.790174 0.496855 0.000000
O O15 0.296192 0.325186 0.840250
O O16 0.232562 0.221417 0.000000
O O17 0.396856 0.389695 0.000000
#
# Coordination Sequence:
#
# PCOD8302767 Si02
#       7
#     8   4   8   8   8   8   8
#     4   9  18  34  53  71  97 137 177 207 255 314
#     4  11  26  40  50  68  90 119 169 221 271 327
#     4  11  22  31  49  79 105 133 172 211 254 311
#     4  10  20  34  48  74 112 141 167 209 259 309
#     4   9  18  32  49  72  98 127 166 213 258 305
#     4   9  20  37  52  73 101 129 169 218 259 303
#     4   9  21  38  55  72  94 126 166 215 271 321
#
# _framework density 18.272452000000001
#
# number of rings (size 3 to 8) (size 9 to 14) (size 15 to 20)
#    0.000    2.385    1.538    2.308    4.308    2.769 
#    2.769    0.769    0.000    0.000    0.000    0.000 
#    0.000    0.615    0.000    6.769    0.000    4.923 
#
# Total GULP energy -644256.954426 kJ/mol
# GULP energy per Si atom -12389.556816 kJ/mol
# Density = 1.823086 g / cm^3
# Si number density = 18.272452 Si / 1000 Ang^3
#
#
#
# Elastic Constant Matrix: (Units=GPa)
#
#
# Indices 1 2 3 4 5 6 
#
# 1 86.2938 18.5307 15.6597 0.0000 0.0000 -1.5386
# 2 18.5307 86.2938 15.6597 0.0000 0.0000 1.5386
# 3 15.6597 15.6597 63.0750 0.0000 0.0000 0.0000
# 4 0.0000 0.0000 0.0000 19.2360 0.0000 0.0000
# 5 0.0000 0.0000 0.0000 0.0000 19.2360 0.0000
# 6 -1.5386 1.5386 0.0000 0.0000 0.0000 25.6248
#
#
#
# Elastic Compliance Matrix: (Units=1/GPa)
#
#
# Indices 1 2 3 4 5 6 
#
# 1 0.012551 -0.002247 -0.002558 0.000000 0.000000 0.000889
# 2 -0.002247 0.012551 -0.002558 0.000000 0.000000 -0.000889
# 3 -0.002558 -0.002558 0.017124 0.000000 0.000000 0.000000
# 4 0.000000 0.000000 0.000000 0.051986 0.000000 0.000000
# 5 0.000000 0.000000 0.000000 0.000000 0.051986 0.000000
# 6 0.000889 -0.000889 0.000000 0.000000 0.000000 0.039131
#
#
# Mechanical properties :
#
#
# Convention : Reuss Voigt Hill
#
# Bulk Modulus (GPa) = 36.36394 37.26252 36.81323
# Shear Modulus (GPa) = 23.89803 25.20685 24.55244
#
# Velocity S-wave (km/s) = 3.62037 3.71819 3.66961
# Velocity P-wave (km/s) = 6.11722 6.23460 6.17619
#
# Compressibility (1/GPa) = 0.02749977
#
# Stress axis : x y z
#
# Youngs Moduli (GPa) = 79.67570 79.67570 58.39618
#
# Poissons Ratio (x) = 0.17901 0.14939
# Poissons Ratio (y) = 0.17901 0.14939
# Poissons Ratio (z) = 0.20383 0.20383
#
# Static dielectric constant tensor:
#      x y z
#    x 3.372130 0.000000 0.000000 
#    y 0.000000 3.372130 0.000000 
#    z 0.000000 0.000000 3.474630 
# 
# 
# High freq. dielectric constant tensor:
#      x y z
#    x 1.680730 0.000000 0.000000 
#    y 0.000000 1.680730 0.000000 
#    z 0.000000 0.000000 1.706620 
# 
# From -- ./inp_files/998.got.cif
#   From: 2010.03.12/outbox.cif.g09.slc.cpg/sg83_1_cif.got.tgz:998.got - 2010.04.08 20:05:18.
