data_PCOD8302876
_publ_section_title
;
Structure prediction by ZEFSAII (Michael W. Deem and Ramdas Pophale) SiO2 
 PCOD8302876
Probable space group: P 4/M
;
_chemical_formula_sum "Si O2"
_cell_formula_units_Z 40
_cell_length_a 13.950930
_cell_length_b 13.950930
_cell_length_c 10.090601
_cell_angle_alpha 90.000000
_cell_angle_beta 90.000000
_cell_angle_gamma 90.000000
_cell_volume 1963.918011
_symmetry_space_group_name_H-M "P 4/M"
_symmetry_group_IT_number 83
_symmetry_cell_setting 'tetragonal'
loop_
_space_group_symop_operation_xyz
x,y,z
-y,x,z
-x,-y,z
y,-x,z
-x,-y,-z
y,-x,-z
x,y,-z
-y,x,-z
loop_
_atom_site_type_symbol
_atom_site_label
_atom_site_fract_x
_atom_site_fract_y
_atom_site_fract_z
Si Si1 0.406053 0.623865 0.500000
Si Si2 0.152077 0.041128 0.149764
Si Si3 0.850728 0.275156 0.656515
Si Si4 0.352116 0.745228 0.744383
Si Si5 0.590642 0.368662 0.000000
Si Si6 0.890021 0.495072 0.346708
O O1 0.366210 0.518291 0.500000
O O2 0.365307 0.670245 0.628900
O O3 0.232960 0.059484 0.261478
O O4 0.066056 0.115551 0.171063
O O5 0.193644 0.052587 0.000000
O O6 0.860110 0.250632 0.500000
O O7 0.758427 0.223828 0.724593
O O8 0.847533 0.389668 0.678160
O O9 0.425512 0.833822 0.738674
O O10 0.367384 0.687911 0.877463
O O11 0.631442 0.475957 0.000000
O O12 0.879373 0.524734 0.500000
O O13 0.000000 0.500000 0.301521
#
# Coordination Sequence:
#
# PCOD8302876 Si02
#       6
#     4   8   8   8   4   8
#     4  11  20  34  61  86 112 151 209 262 302 360
#     4   9  21  43  68  92 124 163 209 261 321 384
#     4  11  23  38  65  95 124 165 213 261 316 376
#     4  12  23  40  61  86 125 165 212 255 313 380
#     4  11  24  40  61  90 126 161 205 264 320 368
#     4  10  22  41  62  89 128 165 203 260 323 380
#
# _framework density 20.367450000000002
#
# number of rings (size 3 to 8) (size 9 to 14) (size 15 to 20)
#    0.000    1.400    2.000    4.200    4.200    2.400 
#    1.800    1.500    0.000    0.000    0.000    0.000 
#    0.000    0.000    0.000    0.000    0.000    0.000 
#
# Total GULP energy -495999.687847 kJ/mol
# GULP energy per Si atom -12399.992196 kJ/mol
# Density = 2.032109 g / cm^3
# Si number density = 20.367450 Si / 1000 Ang^3
#
#
#
# Elastic Constant Matrix: (Units=GPa)
#
#
# Indices 1 2 3 4 5 6 
#
# 1 70.4432 4.3135 29.5114 0.0000 0.0000 3.8217
# 2 4.3135 70.4432 29.5114 0.0000 0.0000 -3.8217
# 3 29.5114 29.5114 130.6132 0.0000 0.0000 0.0000
# 4 0.0000 0.0000 0.0000 30.0293 0.0000 0.0000
# 5 0.0000 0.0000 0.0000 0.0000 30.0293 0.0000
# 6 3.8217 -3.8217 0.0000 0.0000 0.0000 36.5945
#
#
#
# Elastic Compliance Matrix: (Units=1/GPa)
#
#
# Indices 1 2 3 4 5 6 
#
# 1 0.015794 0.000487 -0.003679 0.000000 0.000000 -0.001599
# 2 0.000487 0.015794 -0.003679 0.000000 0.000000 0.001599
# 3 -0.003679 -0.003679 0.009319 0.000000 0.000000 0.000000
# 4 0.000000 0.000000 0.000000 0.033301 0.000000 0.000000
# 5 0.000000 0.000000 0.000000 0.000000 0.033301 0.000000
# 6 -0.001599 0.001599 0.000000 0.000000 0.000000 0.027660
#
#
# Mechanical properties :
#
#
# Convention : Reuss Voigt Hill
#
# Bulk Modulus (GPa) = 36.81038 44.24134 40.52586
# Shear Modulus (GPa) = 31.65287 33.20819 32.43053
#
# Velocity S-wave (km/s) = 3.94647 4.04227 3.99466
# Velocity P-wave (km/s) = 6.23527 6.59965 6.42004
#
# Compressibility (1/GPa) = 0.02716625
#
# Stress axis : x y z
#
# Youngs Moduli (GPa) = 63.31582 63.31582 107.31303
#
# Poissons Ratio (x) = -0.03085 0.39477
# Poissons Ratio (y) = -0.03085 0.39477
# Poissons Ratio (z) = 0.23292 0.23292
#
# Static dielectric constant tensor:
#      x y z
#    x 3.789660 0.000000 0.000000 
#    y 0.000000 3.789660 0.000000 
#    z 0.000000 0.000000 3.060390 
# 
# 
# High freq. dielectric constant tensor:
#      x y z
#    x 1.800490 0.000000 0.000000 
#    y 0.000000 1.800490 0.000000 
#    z 0.000000 0.000000 1.791590 
# 
# From -- ./inp_files/715.got.cif
#   From: 2010.03.12/outbox.cif.g09.slc.cpg/sg83_1_cif.got.tgz:715.got - 2010.04.08 20:05:18.
