data_PCOD8302675
_publ_section_title
;
Structure prediction by ZEFSAII (Michael W. Deem and Ramdas Pophale) SiO2 
 PCOD8302675
Probable space group: P 4/M
;
_chemical_formula_sum "Si O2"
_cell_formula_units_Z 64
_cell_length_a 21.598189
_cell_length_b 21.598189
_cell_length_c 9.053139
_cell_angle_alpha 90.000000
_cell_angle_beta 90.000000
_cell_angle_gamma 90.000000
_cell_volume 4223.124287
_symmetry_space_group_name_H-M "P 4/M"
_symmetry_group_IT_number 83
_symmetry_cell_setting 'tetragonal'
loop_
_space_group_symop_operation_xyz
x,y,z
-y,x,z
-x,-y,z
y,-x,z
-x,-y,-z
y,-x,-z
x,y,-z
-y,x,-z
loop_
_atom_site_type_symbol
_atom_site_label
_atom_site_fract_x
_atom_site_fract_y
_atom_site_fract_z
Si Si1 0.350597 0.755208 0.337103
Si Si2 0.344370 0.241679 0.666061
Si Si3 0.837020 0.256326 0.831082
Si Si4 0.567903 0.331787 0.826238
Si Si5 0.939109 0.842464 0.329486
Si Si6 0.669185 0.428609 0.824663
Si Si7 0.836070 0.753172 0.668289
Si Si8 0.157127 0.068453 0.827125
O O1 0.380068 0.753215 0.500000
O O2 0.292403 0.709305 0.324845
O O3 0.404583 0.734349 0.226308
O O4 0.320777 0.823439 0.303011
O O5 0.365999 0.228156 0.500000
O O6 0.317902 0.177525 0.735196
O O7 0.403249 0.266860 0.756808
O O8 0.790359 0.201420 0.790830
O O9 0.905103 0.227102 0.803351
O O10 0.826818 0.275148 0.000000
O O11 0.610499 0.388288 0.767974
O O12 0.498425 0.341200 0.766752
O O13 0.567559 0.330510 0.000000
O O14 0.956069 0.857124 0.500000
O O15 0.907578 0.773990 0.317187
O O16 0.892195 0.894547 0.271148
O O17 0.998435 0.842598 0.226452
O O18 0.674853 0.425482 0.000000
O O19 0.812748 0.768756 0.500000
O O20 0.138612 0.072144 0.000000
#
# Coordination Sequence:
#
# PCOD8302675 Si02
#       8
#     8   8   8   8   8   8   8   8
#     4   8  14  25  40  57  77 100 127 164 208 247
#     4   9  16  26  41  59  78 101 131 168 209 248
#     4   9  16  26  42  61  80 103 130 164 207 249
#     4   9  17  27  39  56  79 109 142 174 204 238
#     4  10  19  31  46  62  82 111 146 177 205 240
#     4   9  17  28  40  56  80 109 142 175 206 240
#     4   8  15  27  42  60  80 102 131 169 209 245
#     4  10  20  32  44  61  86 113 141 173 208 243
#
# _framework density 15.154657
#
# number of rings (size 3 to 8) (size 9 to 14) (size 15 to 20)
#    0.000    3.000    0.000    2.250    0.000    6.000 
#    0.000    2.500    0.000    0.000    0.000    3.500 
#    0.000    1.000    0.000   11.250    0.000    5.500 
#
# Total GULP energy -792938.728505 kJ/mol
# GULP energy per Si atom -12389.667633 kJ/mol
# Density = 1.512016 g / cm^3
# Si number density = 15.154657 Si / 1000 Ang^3
#
#
#
# Elastic Constant Matrix: (Units=GPa)
#
#
# Indices 1 2 3 4 5 6 
#
# 1 55.6934 54.5930 23.8868 0.0000 0.0000 0.0460
# 2 54.5930 55.6934 23.8868 0.0000 0.0000 -0.0460
# 3 23.8868 23.8868 46.1040 0.0000 0.0000 0.0000
# 4 0.0000 0.0000 0.0000 19.6381 0.0000 0.0000
# 5 0.0000 0.0000 0.0000 0.0000 19.6381 0.0000
# 6 0.0460 -0.0460 0.0000 0.0000 0.0000 17.1416
#
#
#
# Elastic Compliance Matrix: (Units=1/GPa)
#
#
# Indices 1 2 3 4 5 6 
#
# 1 0.460294 -0.448602 -0.006057 0.000000 0.000000 -0.002441
# 2 -0.448602 0.460294 -0.006057 0.000000 0.000000 0.002441
# 3 -0.006057 -0.006057 0.027967 0.000000 0.000000 0.000000
# 4 0.000000 0.000000 0.000000 0.050921 0.000000 0.000000
# 5 0.000000 0.000000 0.000000 0.000000 0.050921 0.000000
# 6 -0.002441 0.002441 0.000000 0.000000 0.000000 0.058351
#
#
# Mechanical properties :
#
#
# Convention : Reuss Voigt Hill
#
# Bulk Modulus (GPa) = 36.87320 40.24711 38.56015
# Shear Modulus (GPa) = 2.45192 14.95851 8.70521
#
# Velocity S-wave (km/s) = 1.27336 3.14516 2.39932
# Velocity P-wave (km/s) = 5.15228 6.30909 5.75980
#
# Compressibility (1/GPa) = 0.02711997
#
# Stress axis : x y z
#
# Youngs Moduli (GPa) = 2.17253 2.17253 35.75674
#
# Poissons Ratio (x) = 0.97460 0.21659
# Poissons Ratio (y) = 0.97460 0.21659
# Poissons Ratio (z) = 0.01316 0.01316
#
# Static dielectric constant tensor:
#      x y z
#    x 2.935230 0.000000 0.000000 
#    y 0.000000 2.935230 0.000000 
#    z 0.000000 0.000000 2.985660 
# 
# 
# High freq. dielectric constant tensor:
#      x y z
#    x 1.551960 0.000000 0.000000 
#    y 0.000000 1.551960 0.000000 
#    z 0.000000 0.000000 1.591420 
# 
# From -- ./inp_files/1296.got.cif
#   From: 2010.03.12/outbox.cif.g09.slc.cpg/sg83_1_cif.got.tgz:1296.got - 2010.04.08 20:05:18.
