data_PCOD8302395
_publ_section_title
;
Structure prediction by ZEFSAII (Michael W. Deem and Ramdas Pophale) SiO2 
 PCOD8302395
Probable space group: I -4 
;
_chemical_formula_sum "Si O2"
_cell_formula_units_Z 40
_cell_length_a 19.381952
_cell_length_b 19.381952
_cell_length_c 4.878193
_cell_angle_alpha 90.000000
_cell_angle_beta 90.000000
_cell_angle_gamma 90.000000
_cell_volume 1832.542291
_symmetry_space_group_name_H-M "I -4 "
_symmetry_group_IT_number 82
_symmetry_cell_setting 'tetragonal'
loop_
_space_group_symop_operation_xyz
x,y,z
y,-x,-z
-x,-y,z
-y,x,-z
1/2+x,1/2+y,1/2+z
1/2+y,1/2-x,1/2-z
1/2-x,1/2-y,1/2+z
1/2-y,1/2+x,1/2-z
loop_
_atom_site_type_symbol
_atom_site_label
_atom_site_fract_x
_atom_site_fract_y
_atom_site_fract_z
Si Si1 0.560714 0.091333 0.298917
Si Si2 0.204381 0.249503 0.438143
Si Si3 0.177986 0.098685 0.471685
Si Si4 0.390255 0.830921 0.806031
Si Si5 0.043609 0.896297 0.028182
O O1 0.485697 0.089141 0.155031
O O2 0.558189 0.134618 0.582956
O O3 0.611906 0.126407 0.084330
O O4 0.229017 0.265640 0.746448
O O5 0.159561 0.179734 0.435931
O O6 0.162379 0.314185 0.324139
O O7 0.253378 0.088256 0.608531
O O8 0.167317 0.060927 0.178689
O O9 0.122188 0.065384 0.667245
O O10 0.962984 0.912070 0.052320
#
# Coordination Sequence:
#
# PCOD8302395 Si02
#       5
#     8   8   8   8   8
#     4  11  24  44  64  89 133 178 209 254 326 384
#     4  10  20  38  64  92 128 168 192 256 338 370
#     4  11  22  42  66  97 127 165 216 269 315 376
#     4  11  22  42  66  97 127 165 216 269 315 376
#     4  11  24  44  64  89 133 178 209 254 326 384
#
# _framework density 21.827598999999999
#
# number of rings (size 3 to 8) (size 9 to 14) (size 15 to 20)
#    0.000    1.200    0.000    8.400    0.000    3.200 
#   21.600    0.000    0.000    0.000    0.000    0.000 
#    0.000    0.000    0.000    0.000    0.000    0.000 
#
# Total GULP energy -247990.501979 kJ/mol
# GULP energy per Si atom -12399.525099 kJ/mol
# Density = 2.177792 g / cm^3
# Si number density = 21.827599 Si / 1000 Ang^3
#
#
#
# Elastic Constant Matrix: (Units=GPa)
#
#
# Indices 1 2 3 4 5 6 
#
# 1 71.2411 27.0622 8.2520 0.0000 0.0000 -9.4928
# 2 27.0622 71.2411 8.2520 0.0000 0.0000 9.4928
# 3 8.2520 8.2520 84.4431 0.0000 0.0000 0.0000
# 4 0.0000 0.0000 0.0000 36.7785 0.0000 0.0000
# 5 0.0000 0.0000 0.0000 0.0000 36.7785 0.0000
# 6 -9.4928 9.4928 0.0000 0.0000 0.0000 34.8638
#
#
#
# Elastic Compliance Matrix: (Units=1/GPa)
#
#
# Indices 1 2 3 4 5 6 
#
# 1 0.017989 -0.007646 -0.001011 0.000000 0.000000 0.006980
# 2 -0.007646 0.017989 -0.001011 0.000000 0.000000 -0.006980
# 3 -0.001011 -0.001011 0.012040 0.000000 0.000000 0.000000
# 4 0.000000 0.000000 0.000000 0.027190 0.000000 0.000000
# 5 0.000000 0.000000 0.000000 0.000000 0.027190 0.000000
# 6 0.006980 -0.006980 0.000000 0.000000 0.000000 0.032484
#
#
# Mechanical properties :
#
#
# Convention : Reuss Voigt Hill
#
# Bulk Modulus (GPa) = 34.86545 34.89530 34.88038
# Shear Modulus (GPa) = 30.52944 33.90808 32.21876
#
# Velocity S-wave (km/s) = 3.74393 3.94566 3.84612
# Velocity P-wave (km/s) = 5.89042 6.06458 5.97814
#
# Compressibility (1/GPa) = 0.02868169
#
# Stress axis : x y z
#
# Youngs Moduli (GPa) = 55.59096 55.59096 83.05765
#
# Poissons Ratio (x) = 0.42506 0.08394
# Poissons Ratio (y) = 0.42506 0.08394
# Poissons Ratio (z) = 0.05618 0.05618
#
# Static dielectric constant tensor:
#      x y z
#    x 3.863290 0.000000 0.000000 
#    y 0.000000 3.863290 0.000000 
#    z 0.000000 0.000000 4.098450 
# 
# 
# High freq. dielectric constant tensor:
#      x y z
#    x 1.848890 0.000000 0.000000 
#    y 0.000000 1.848890 0.000000 
#    z 0.000000 0.000000 1.881530 
# 
# From -- ./inp_files/233.got.cif
#   From: 2010.03.12/outbox.cif.g09.slc.cpg/sg82_1_cif.got.tgz:233.got - 2010.04.08 20:02:50.
