data_PCOD8302307
_publ_section_title
;
Structure prediction by ZEFSAII (Michael W. Deem and Ramdas Pophale) SiO2 
 PCOD8302307
Probable space group: P -4
;
_chemical_formula_sum "Si O2"
_cell_formula_units_Z 17
_cell_length_a 9.702172
_cell_length_b 9.702172
_cell_length_c 9.546008
_cell_angle_alpha 90.000000
_cell_angle_beta 90.000000
_cell_angle_gamma 90.000000
_cell_volume 898.586176
_symmetry_space_group_name_H-M "P -4"
_symmetry_group_IT_number 81
_symmetry_cell_setting 'tetragonal'
loop_
_space_group_symop_operation_xyz
x,y,z
y,-x,-z
-x,-y,z
-y,x,-z
loop_
_atom_site_type_symbol
_atom_site_label
_atom_site_fract_x
_atom_site_fract_y
_atom_site_fract_z
Si Si1 0.676162 0.332829 0.819945
Si Si2 0.298650 0.402915 0.481977
Si Si3 0.860929 0.585909 0.750159
Si Si4 0.500000 0.500000 0.000000
Si Si5 0.876443 0.819611 0.982071
O O1 0.647616 0.258199 0.672641
O O2 0.742207 0.484839 0.805290
O O3 0.535761 0.365894 0.904636
O O4 0.770321 0.227636 0.900742
O O5 0.323549 0.565328 0.468788
O O6 0.177205 0.367134 0.591825
O O7 0.874933 0.721669 0.845962
O O8 0.000000 0.500000 0.747903
O O9 0.026371 0.825926 0.056030
#
# Coordination Sequence:
#
# PCOD8302307 Si02
#       5
#     4   4   4   1   4
#     4  11  21  37  61  93 120 163 206 260 317 368
#     4   9  20  38  59  87 122 155 198 259 317 361
#     4  11  21  40  62  87 120 164 212 257 307 377
#     4  12  20  32  70  96 124 152 214 276 320 364
#     4  11  24  42  61  90 130 166 204 259 318 373
#
# _framework density 18.918609
#
# number of rings (size 3 to 8) (size 9 to 14) (size 15 to 20)
#    0.000    1.412    4.706    2.824    0.000    0.000 
#    8.471    0.000    0.000    2.824    0.000    0.000 
#    0.000    0.000    0.000    0.000    0.000    0.000 
#
# Total GULP energy -210757.577288 kJ/mol
# GULP energy per Si atom -12397.504546 kJ/mol
# Density = 1.887555 g / cm^3
# Si number density = 18.918609 Si / 1000 Ang^3
#
#
#
# Elastic Constant Matrix: (Units=GPa)
#
#
# Indices 1 2 3 4 5 6 
#
# 1 70.3420 23.9932 50.2859 0.0000 0.0000 1.1767
# 2 23.9932 70.3420 50.2859 0.0000 0.0000 -1.1767
# 3 50.2859 50.2859 127.3009 0.0000 0.0000 0.0000
# 4 0.0000 0.0000 0.0000 27.0452 0.0000 0.0000
# 5 0.0000 0.0000 0.0000 0.0000 27.0452 0.0000
# 6 1.1767 -1.1767 0.0000 0.0000 0.0000 31.7427
#
#
#
# Elastic Compliance Matrix: (Units=1/GPa)
#
#
# Indices 1 2 3 4 5 6 
#
# 1 0.019964 -0.001652 -0.007234 0.000000 0.000000 -0.000801
# 2 -0.001652 0.019964 -0.007234 0.000000 0.000000 0.000801
# 3 -0.007234 -0.007234 0.013570 0.000000 0.000000 0.000000
# 4 0.000000 0.000000 0.000000 0.036975 0.000000 0.000000
# 5 0.000000 0.000000 0.000000 0.000000 0.036975 0.000000
# 6 -0.000801 0.000801 0.000000 0.000000 0.000000 0.031563
#
#
# Mechanical properties :
#
#
# Convention : Reuss Voigt Hill
#
# Bulk Modulus (GPa) = 47.03601 57.45723 52.24662
# Shear Modulus (GPa) = 25.20958 26.72794 25.96876
#
# Velocity S-wave (km/s) = 3.65434 3.76278 3.70896
# Velocity P-wave (km/s) = 6.53620 7.02244 6.78368
#
# Compressibility (1/GPa) = 0.02126031
#
# Stress axis : x y z
#
# Youngs Moduli (GPa) = 50.08932 50.08932 73.69048
#
# Poissons Ratio (x) = 0.08274 0.53306
# Poissons Ratio (y) = 0.08274 0.53306
# Poissons Ratio (z) = 0.36233 0.36233
#
# Static dielectric constant tensor:
#      x y z
#    x 3.464370 0.000000 0.000000 
#    y 0.000000 3.464370 0.000000 
#    z 0.000000 0.000000 3.613390 
# 
# 
# High freq. dielectric constant tensor:
#      x y z
#    x 1.729010 0.000000 0.000000 
#    y 0.000000 1.729010 0.000000 
#    z 0.000000 0.000000 1.740900 
# 
# From -- ./inp_files/1137.got.cif
#   From: 2010.03.12/outbox.cif.g09.slc.cpg/sg81_cif.got.tgz:1137.got - 2010.04.08 20:01:38.
