data_PCOD8302892
_publ_section_title
;
Structure prediction by ZEFSAII (Michael W. Deem and Ramdas Pophale) SiO2 
 PCOD8302892
Probable space group: P 4/M
;
_chemical_formula_sum "Si O2"
_cell_formula_units_Z 32
_cell_length_a 12.279314
_cell_length_b 12.279314
_cell_length_c 10.497940
_cell_angle_alpha 90.000000
_cell_angle_beta 90.000000
_cell_angle_gamma 90.000000
_cell_volume 1582.895689
_symmetry_space_group_name_H-M "P 4/M"
_symmetry_group_IT_number 83
_symmetry_cell_setting 'tetragonal'
loop_
_space_group_symop_operation_xyz
x,y,z
-y,x,z
-x,-y,z
y,-x,z
-x,-y,-z
y,-x,-z
x,y,-z
-y,x,-z
loop_
_atom_site_type_symbol
_atom_site_label
_atom_site_fract_x
_atom_site_fract_y
_atom_site_fract_z
Si Si1 0.085134 0.842363 0.000000
Si Si2 0.861153 0.307590 0.764848
Si Si3 0.303592 0.222250 0.500000
Si Si4 0.588898 0.649890 0.852609
Si Si5 0.500000 0.000000 0.703640
Si Si6 0.448793 0.826586 0.500000
O O1 0.120930 0.783902 0.129813
O O2 0.956334 0.853584 0.000000
O O3 0.855508 0.264647 0.618853
O O4 0.740640 0.355453 0.770451
O O5 0.950330 0.402525 0.789276
O O6 0.251235 0.342989 0.500000
O O7 0.435619 0.237848 0.500000
O O8 0.462476 0.646529 0.816788
O O9 0.603822 0.677236 0.000000
O O10 0.555512 0.095606 0.622607
#
# Coordination Sequence:
#
# PCOD8302892 Si02
#       6
#     4   8   4   8   4   4
#     4  11  28  49  66  93 128 159 220 295 326 364
#     4  11  23  43  65  97 124 175 213 259 331 377
#     4  10  24  37  66  96 133 178 205 259 321 398
#     4   9  19  36  58  90 133 169 206 255 316 399
#     4   9  22  39  64  92 130 164 218 272 294 388
#     4   9  20  43  58  95 136 164 218 262 315 373
#
# _framework density 20.216114000000001
#
# number of rings (size 3 to 8) (size 9 to 14) (size 15 to 20)
#    0.000    2.125    1.250    1.500   10.500    0.750 
#    0.000    0.000    0.000    1.500    0.000    0.000 
#    0.000    0.000    0.000    0.000    0.000    0.000 
#
# Total GULP energy -396634.181735 kJ/mol
# GULP energy per Si atom -12394.818179 kJ/mol
# Density = 2.017010 g / cm^3
# Si number density = 20.216114 Si / 1000 Ang^3
#
#
#
# Elastic Constant Matrix: (Units=GPa)
#
#
# Indices 1 2 3 4 5 6 
#
# 1 87.2606 61.2558 50.2412 0.0000 0.0000 -0.1981
# 2 61.2558 87.2606 50.2412 0.0000 0.0000 0.1981
# 3 50.2412 50.2412 119.7025 0.0000 0.0000 0.0000
# 4 0.0000 0.0000 0.0000 0.3685 0.0000 0.0000
# 5 0.0000 0.0000 0.0000 0.0000 0.3685 0.0000
# 6 -0.1981 0.1981 0.0000 0.0000 0.0000 24.2444
#
#
#
# Elastic Compliance Matrix: (Units=1/GPa)
#
#
# Indices 1 2 3 4 5 6 
#
# 1 0.023931 -0.014528 -0.003947 0.000000 0.000000 0.000314
# 2 -0.014528 0.023931 -0.003947 0.000000 0.000000 -0.000314
# 3 -0.003947 -0.003947 0.011667 0.000000 0.000000 0.000000
# 4 0.000000 0.000000 0.000000 2.714065 0.000000 0.000000
# 5 0.000000 0.000000 0.000000 0.000000 2.714065 0.000000
# 6 0.000314 -0.000314 0.000000 0.000000 0.000000 0.041252
#
#
# Mechanical properties :
#
#
# Convention : Reuss Voigt Hill
#
# Bulk Modulus (GPa) = 68.08761 68.63334 68.36048
# Shear Modulus (GPa) = 0.89627 13.82864 7.36245
#
# Velocity S-wave (km/s) = 0.66656 2.61825 1.91044
# Velocity P-wave (km/s) = 5.86049 6.56992 6.22532
#
# Compressibility (1/GPa) = 0.01468696
#
# Stress axis : x y z
#
# Youngs Moduli (GPa) = 41.78614 41.78614 85.71053
#
# Poissons Ratio (x) = 0.60706 0.33829
# Poissons Ratio (y) = 0.60706 0.33829
# Poissons Ratio (z) = 0.16492 0.16492
#
# Static dielectric constant tensor:
#      x y z
#    x 3.729440 0.000000 0.000000 
#    y 0.000000 3.729440 0.000000 
#    z 0.000000 0.000000 3.878870 
# 
# 
# High freq. dielectric constant tensor:
#      x y z
#    x 1.783510 0.000000 0.000000 
#    y 0.000000 1.783510 0.000000 
#    z 0.000000 0.000000 1.796850 
# 
# From -- ./inp_files/1594.got.cif
#   From: 2010.03.12/outbox.cif.g09.slc.cpg/sg83_1_cif.got.tgz:1594.got - 2010.04.08 20:05:18.
