data_PCOD8302099
_publ_section_title
;
Structure prediction by ZEFSAII (Michael W. Deem and Ramdas Pophale) SiO2 
 PCOD8302099
Probable space group: I 4
;
_chemical_formula_sum "Si O2"
_cell_formula_units_Z 40
_cell_length_a 15.963018
_cell_length_b 15.963018
_cell_length_c 8.604858
_cell_angle_alpha 90.000000
_cell_angle_beta 90.000000
_cell_angle_gamma 90.000000
_cell_volume 2192.672221
_symmetry_space_group_name_H-M "I 4"
_symmetry_group_IT_number 79
_symmetry_cell_setting 'tetragonal'
loop_
_space_group_symop_operation_xyz
x,y,z
-y,x,z
-x,-y,z
y,-x,z
1/2+x,1/2+y,1/2+z
1/2-y,1/2+x,1/2+z
1/2-x,1/2-y,1/2+z
1/2+y,1/2-x,1/2+z
loop_
_atom_site_type_symbol
_atom_site_label
_atom_site_fract_x
_atom_site_fract_y
_atom_site_fract_z
Si Si1 0.614103 0.950018 0.423380
Si Si2 0.160157 0.750206 0.570384
Si Si3 0.250206 0.339843 0.414849
Si Si4 0.114103 0.450017 0.561853
Si Si5 0.412082 0.607224 0.242616
O O1 0.699996 0.903816 0.462883
O O2 0.536129 0.890282 0.465781
O O3 0.611251 0.971529 0.242616
O O4 0.609718 0.036129 0.519452
O O5 0.250000 0.750000 0.492617
O O6 0.166274 0.708340 0.742617
O O7 0.125142 0.845545 0.589706
O O8 0.199996 0.403817 0.522349
O O9 0.345545 0.374858 0.395526
O O10 0.383071 0.512037 0.242616
#
# Coordination Sequence:
#
# PCOD8302099 Si02
#       5
#     8   8   8   8   8
#     4  11  22  37  58  87 126 164 202 251 322 391
#     4  10  22  35  61  89 122 157 206 262 310 369
#     4  10  22  35  61  89 122 157 206 262 310 369
#     4  11  22  37  58  87 126 164 202 251 322 391
#     4   9  22  42  64  87 121 172 217 252 306 377
#
# _framework density 18.24258
#
# number of rings (size 3 to 8) (size 9 to 14) (size 15 to 20)
#    1.200    0.600    0.000    6.000    5.600    0.000 
#    0.000    0.000    0.000    0.000    0.000   11.200 
#    0.000    0.000    0.000    0.000    0.000    0.000 
#
# Total GULP energy -247928.635428 kJ/mol
# GULP energy per Si atom -12396.431771 kJ/mol
# Density = 1.820106 g / cm^3
# Si number density = 18.242580 Si / 1000 Ang^3
#
#
#
# Elastic Constant Matrix: (Units=GPa)
#
#
# Indices 1 2 3 4 5 6 
#
# 1 108.2562 54.3947 20.8138 0.0000 0.0000 -3.2731
# 2 54.3947 108.2562 20.8138 0.0000 0.0000 3.2731
# 3 20.8138 20.8138 85.4634 0.0000 0.0000 0.0000
# 4 0.0000 0.0000 0.0000 34.8408 0.0000 0.0000
# 5 0.0000 0.0000 0.0000 0.0000 34.8408 0.0000
# 6 -3.2731 3.2731 0.0000 0.0000 0.0000 32.6401
#
#
#
# Elastic Compliance Matrix: (Units=1/GPa)
#
#
# Indices 1 2 3 4 5 6 
#
# 1 0.012676 -0.006119 -0.001597 0.000000 0.000000 0.001885
# 2 -0.006119 0.012676 -0.001597 0.000000 0.000000 -0.001885
# 3 -0.001597 -0.001597 0.012479 0.000000 0.000000 0.000000
# 4 0.000000 0.000000 0.000000 0.028702 0.000000 0.000000
# 5 0.000000 0.000000 0.000000 0.000000 0.028702 0.000000
# 6 0.001885 -0.001885 0.000000 0.000000 0.000000 0.031015
#
#
# Mechanical properties :
#
#
# Convention : Reuss Voigt Hill
#
# Bulk Modulus (GPa) = 52.06994 54.89118 53.48056
# Shear Modulus (GPa) = 33.05187 34.19455 33.62321
#
# Velocity S-wave (km/s) = 4.26114 4.33417 4.29781
# Velocity P-wave (km/s) = 7.26738 7.42978 7.34903
#
# Compressibility (1/GPa) = 0.01920494
#
# Stress axis : x y z
#
# Youngs Moduli (GPa) = 78.88913 78.88913 80.13647
#
# Poissons Ratio (x) = 0.48274 0.12797
# Poissons Ratio (y) = 0.48274 0.12797
# Poissons Ratio (z) = 0.12597 0.12597
#
# Static dielectric constant tensor:
#      x y z
#    x 3.313880 0.000000 0.000000 
#    y 0.000000 3.313880 0.000000 
#    z 0.000000 0.000000 3.347540 
# 
# 
# High freq. dielectric constant tensor:
#      x y z
#    x 1.706820 0.000000 0.000000 
#    y 0.000000 1.706820 0.000000 
#    z 0.000000 0.000000 1.702140 
# 
# From -- ./inp_files/625.got.cif
#   From: 2010.03.12/outbox.cif.g09.slc.cpg/sg79_cif.got.tgz:625.got - 2010.04.16 16:38:49.
