data_PCOD8302010
_publ_section_title
;
Structure prediction by ZEFSAII (Michael W. Deem and Ramdas Pophale) SiO2 
 PCOD8302010
Probable space group: P 43
;
_chemical_formula_sum "Si O2"
_cell_formula_units_Z 32
_cell_length_a 15.086093
_cell_length_b 15.086093
_cell_length_c 7.068062
_cell_angle_alpha 90.000000
_cell_angle_beta 90.000000
_cell_angle_gamma 90.000000
_cell_volume 1608.621658
_symmetry_space_group_name_H-M "P 43"
_symmetry_group_IT_number 78
_symmetry_cell_setting 'tetragonal'
loop_
_space_group_symop_operation_xyz
x,y,z
-y,x,3/4+z
-x,-y,1/2+z
y,-x,1/4+z
loop_
_atom_site_type_symbol
_atom_site_label
_atom_site_fract_x
_atom_site_fract_y
_atom_site_fract_z
Si Si1 0.749828 0.755664 0.516980
Si Si2 0.864377 0.607089 0.656118
Si Si3 0.246024 0.860867 0.914371
Si Si4 0.983195 0.883441 0.384553
Si Si5 0.056283 0.414672 0.749962
Si Si6 0.588647 0.863262 0.433126
Si Si7 0.613645 0.942531 0.015040
Si Si8 0.210290 0.124588 0.336979
O O1 0.779317 0.673674 0.654259
O O2 0.775301 0.744139 0.298381
O O3 0.645383 0.779155 0.505883
O O4 0.794417 0.839419 0.621796
O O5 0.891778 0.599838 0.440216
O O6 0.829571 0.511105 0.719169
O O7 0.951820 0.637203 0.775922
O O8 0.342811 0.900102 0.854512
O O9 0.192082 0.837666 0.728024
O O10 0.198946 0.932368 0.046238
O O11 0.040831 0.919335 0.210575
O O12 0.035348 0.847264 0.570852
O O13 0.066316 0.515200 0.668469
O O14 0.953492 0.393892 0.800738
O O15 0.609348 0.897010 0.219961
O O16 0.688354 0.890974 0.898092
#
# Coordination Sequence:
#
# PCOD8302010 Si02
#       8
#     4   4   4   4   4   4   4   4
#     4  11  21  40  56  84 119 145 191 246 289 348
#     4   9  20  36  57  87 115 152 193 238 294 354
#     4  11  23  40  59  82 114 152 196 242 297 340
#     4  12  25  41  55  77 112 158 208 244 276 331
#     4   9  20  36  58  84 117 149 189 246 295 344
#     4  10  19  35  61  84 117 155 184 243 299 345
#     4  10  20  36  57  87 116 149 198 234 299 347
#     4  12  24  38  61  83 112 156 197 241 293 347
#
# _framework density 19.892804999999999
#
# number of rings (size 3 to 8) (size 9 to 14) (size 15 to 20)
#    0.000    1.500    2.500    3.750    1.750    1.000 
#    0.000    0.000    0.000    0.000    0.000    5.250 
#    0.000    0.000    0.000    0.000    0.000    0.000 
#
# Total GULP energy -396431.364497 kJ/mol
# GULP energy per Si atom -12388.480141 kJ/mol
# Density = 1.984753 g / cm^3
# Si number density = 19.892805 Si / 1000 Ang^3
#
#
#
# Elastic Constant Matrix: (Units=GPa)
#
#
# Indices 1 2 3 4 5 6 
#
# 1 101.0660 62.2932 9.7113 0.0000 0.0000 1.2748
# 2 62.2932 101.0660 9.7113 0.0000 0.0000 -1.2748
# 3 9.7113 9.7113 41.1771 0.0000 0.0000 0.0000
# 4 0.0000 0.0000 0.0000 24.8856 0.0000 0.0000
# 5 0.0000 0.0000 0.0000 0.0000 24.8856 0.0000
# 6 1.2748 -1.2748 0.0000 0.0000 0.0000 31.6616
#
#
#
# Elastic Compliance Matrix: (Units=1/GPa)
#
#
# Indices 1 2 3 4 5 6 
#
# 1 0.016079 -0.009781 -0.001485 0.000000 0.000000 -0.001041
# 2 -0.009781 0.016079 -0.001485 0.000000 0.000000 0.001041
# 3 -0.001485 -0.001485 0.024986 0.000000 0.000000 0.000000
# 4 0.000000 0.000000 0.000000 0.040184 0.000000 0.000000
# 5 0.000000 0.000000 0.000000 0.000000 0.040184 0.000000
# 6 -0.001041 0.001041 0.000000 0.000000 0.000000 0.031668
#
#
# Mechanical properties :
#
#
# Convention : Reuss Voigt Hill
#
# Bulk Modulus (GPa) = 31.60482 45.19339 38.39911
# Shear Modulus (GPa) = 24.36299 27.05946 25.71123
#
# Velocity S-wave (km/s) = 3.50339 3.69218 3.59902
# Velocity P-wave (km/s) = 5.68217 6.39875 6.05108
#
# Compressibility (1/GPa) = 0.03164074
#
# Stress axis : x y z
#
# Youngs Moduli (GPa) = 62.19323 62.19323 40.02244
#
# Poissons Ratio (x) = 0.60830 0.05945
# Poissons Ratio (y) = 0.60830 0.05945
# Poissons Ratio (z) = 0.09238 0.09238
#
# Static dielectric constant tensor:
#      x y z
#    x 3.811140 0.000000 0.000000 
#    y 0.000000 3.811140 0.000000 
#    z 0.000000 0.000000 3.608950 
# 
# 
# High freq. dielectric constant tensor:
#      x y z
#    x 1.760410 0.000000 0.000000 
#    y 0.000000 1.760410 0.000000 
#    z 0.000000 0.000000 1.785240 
# 
# From -- ./inp_files/746.got.cif
#   From: 2010.03.12/outbox.cif.g09.slc.cpg/sg78_cif.got.tgz:746.got - 2010.04.16 16:37:20.
