data_PCOD8302028
_publ_section_title
;
Structure prediction by ZEFSAII (Michael W. Deem and Ramdas Pophale) SiO2 
 PCOD8302028
Probable space group: P 43
;
_chemical_formula_sum "Si O2"
_cell_formula_units_Z 32
_cell_length_a 11.182410
_cell_length_b 11.182410
_cell_length_c 11.575416
_cell_angle_alpha 90.000000
_cell_angle_beta 90.000000
_cell_angle_gamma 90.000000
_cell_volume 1447.462865
_symmetry_space_group_name_H-M "P 43"
_symmetry_group_IT_number 78
_symmetry_cell_setting 'tetragonal'
loop_
_space_group_symop_operation_xyz
x,y,z
-y,x,3/4+z
-x,-y,1/2+z
y,-x,1/4+z
loop_
_atom_site_type_symbol
_atom_site_label
_atom_site_fract_x
_atom_site_fract_y
_atom_site_fract_z
Si Si1 0.807111 0.380759 0.196200
Si Si2 0.767582 0.124212 0.684183
Si Si3 0.505644 0.063282 0.654463
Si Si4 0.578254 0.531813 0.934199
Si Si5 0.918910 0.267170 0.522745
Si Si6 0.892224 0.150035 0.285443
Si Si7 0.878656 0.140456 0.920693
Si Si8 0.817336 0.404603 0.948750
O O1 0.878290 0.451049 0.292522
O O2 0.665416 0.381860 0.212613
O O3 0.851270 0.242814 0.187000
O O4 0.839419 0.450409 0.079060
O O5 0.624719 0.137537 0.684513
O O6 0.826109 0.242683 0.628010
O O7 0.802102 0.092432 0.814675
O O8 0.821792 0.008360 0.618623
O O9 0.410419 0.065463 0.760367
O O10 0.543280 0.926763 0.623478
O O11 0.505919 0.520000 0.810511
O O12 0.691924 0.450755 0.901507
O O13 0.866121 0.218219 0.404087
O O14 0.040220 0.196616 0.543756
O O15 0.033124 0.114185 0.267158
O O16 0.811998 0.260762 0.961007
#
# Coordination Sequence:
#
# PCOD8302028 Si02
#       8
#     4   4   4   4   4   4   4   4
#     4  10  22  39  61  88 127 168 213 275 325 378
#     4  11  23  40  60  92 130 162 205 264 323 380
#     4  10  24  40  60  91 125 167 213 265 322 383
#     4  10  23  44  68  94 130 178 230 277 324 388
#     4  11  22  36  61  90 122 167 209 255 318 386
#     4  11  20  36  62  93 122 160 211 256 323 400
#     4  11  22  39  64  95 129 160 201 264 329 390
#     4  10  22  42  64  91 127 170 214 268 334 393
#
# _framework density 22.107645999999999
#
# number of rings (size 3 to 8) (size 9 to 14) (size 15 to 20)
#    0.000    1.500    0.000    6.000    0.000   11.000 
#    0.000    3.750    0.000    0.000    0.000    0.000 
#    0.000    0.000    0.000    0.000    0.000    0.000 
#
# Total GULP energy -396470.978259 kJ/mol
# GULP energy per Si atom -12389.718071 kJ/mol
# Density = 2.205733 g / cm^3
# Si number density = 22.107646 Si / 1000 Ang^3
#
#
#
# Elastic Constant Matrix: (Units=GPa)
#
#
# Indices 1 2 3 4 5 6 
#
# 1 120.1910 43.8225 21.0824 0.0000 0.0000 -5.7324
# 2 43.8225 120.1910 21.0824 0.0000 0.0000 5.7324
# 3 21.0824 21.0824 56.3053 0.0000 0.0000 0.0000
# 4 0.0000 0.0000 0.0000 28.5805 0.0000 0.0000
# 5 0.0000 0.0000 0.0000 0.0000 28.5805 0.0000
# 6 -5.7324 5.7324 0.0000 0.0000 0.0000 23.9475
#
#
#
# Elastic Compliance Matrix: (Units=1/GPa)
#
#
# Indices 1 2 3 4 5 6 
#
# 1 0.010164 -0.003418 -0.002526 0.000000 0.000000 0.003251
# 2 -0.003418 0.010164 -0.002526 0.000000 0.000000 -0.003251
# 3 -0.002526 -0.002526 0.019652 0.000000 0.000000 0.000000
# 4 0.000000 0.000000 0.000000 0.034989 0.000000 0.000000
# 5 0.000000 0.000000 0.000000 0.000000 0.034989 0.000000
# 6 0.003251 -0.003251 0.000000 0.000000 0.000000 0.043315
#
#
# Mechanical properties :
#
#
# Convention : Reuss Voigt Hill
#
# Bulk Modulus (GPa) = 43.40166 52.07356 47.73761
# Shear Modulus (GPa) = 28.10665 30.26836 29.18750
#
# Velocity S-wave (km/s) = 3.56947 3.70420 3.63746
# Velocity P-wave (km/s) = 6.05498 6.47306 6.26750
#
# Compressibility (1/GPa) = 0.02304059
#
# Stress axis : x y z
#
# Youngs Moduli (GPa) = 98.38177 98.38177 50.88544
#
# Poissons Ratio (x) = 0.33627 0.12854
# Poissons Ratio (y) = 0.33627 0.12854
# Poissons Ratio (z) = 0.24852 0.24852
#
# Static dielectric constant tensor:
#      x y z
#    x 4.075600 0.000000 0.000000 
#    y 0.000000 4.075600 0.000000 
#    z 0.000000 0.000000 4.109300 
# 
# 
# High freq. dielectric constant tensor:
#      x y z
#    x 1.870900 0.000000 0.000000 
#    y 0.000000 1.870900 0.000000 
#    z 0.000000 0.000000 1.870870 
# 
# From -- ./inp_files/979.got.cif
#   From: 2010.03.12/outbox.cif.g09.slc.cpg/sg78_cif.got.tgz:979.got - 2010.04.16 16:37:20.
