data_PCOD8302369
_publ_section_title
;
Structure prediction by ZEFSAII (Michael W. Deem and Ramdas Pophale) SiO2 
 PCOD8302369
Probable space group: I -4 
;
_chemical_formula_sum "Si O2"
_cell_formula_units_Z 48
_cell_length_a 11.678109
_cell_length_b 11.678109
_cell_length_c 18.395236
_cell_angle_alpha 90.000000
_cell_angle_beta 90.000000
_cell_angle_gamma 90.000000
_cell_volume 2508.709723
_symmetry_space_group_name_H-M "I -4 "
_symmetry_group_IT_number 82
_symmetry_cell_setting 'tetragonal'
loop_
_space_group_symop_operation_xyz
x,y,z
y,-x,-z
-x,-y,z
-y,x,-z
1/2+x,1/2+y,1/2+z
1/2+y,1/2-x,1/2-z
1/2-x,1/2-y,1/2+z
1/2-y,1/2+x,1/2-z
loop_
_atom_site_type_symbol
_atom_site_label
_atom_site_fract_x
_atom_site_fract_y
_atom_site_fract_z
Si Si1 0.661820 0.953364 0.212400
Si Si2 0.391945 0.581111 0.310929
Si Si3 0.125957 0.497982 0.077685
Si Si4 0.745934 0.367637 0.453746
Si Si5 0.971411 0.676640 0.273171
Si Si6 0.078751 0.672671 0.957509
O O1 0.582517 0.866778 0.260075
O O2 0.795629 0.926638 0.222692
O O3 0.636951 0.935647 0.126443
O O4 0.500000 0.500000 0.318073
O O5 0.332703 0.585025 0.389193
O O6 0.303177 0.522159 0.257615
O O7 0.174878 0.370517 0.070756
O O8 0.196767 0.560952 0.141344
O O9 0.000000 0.500000 0.113625
O O10 0.114265 0.557680 0.999595
O O11 0.681755 0.255534 0.481359
O O12 0.764691 0.462942 0.515866
O O13 0.877428 0.598914 0.232704
#
# Coordination Sequence:
#
# PCOD8302369 Si02
#       6
#     8   8   8   8   8   8
#     4  10  25  44  62  88 127 178 214 266 321 402
#     4  11  25  39  63  96 131 165 212 268 331 393
#     4  10  19  37  61  89 115 160 210 258 317 375
#     4  10  22  38  59  88 124 157 200 273 311 380
#     4  11  19  37  64  90 121 160 203 260 321 382
#     4  10  23  38  63  91 123 162 218 262 325 388
#
# _framework density 19.133343
#
# number of rings (size 3 to 8) (size 9 to 14) (size 15 to 20)
#    0.000    1.667    3.333    1.000   14.000    1.333 
#    0.000    0.000    0.000    0.000    0.000    0.000 
#    0.000    0.000    0.000    0.000    0.000    0.000 
#
# Total GULP energy -297365.473746 kJ/mol
# GULP energy per Si atom -12390.228073 kJ/mol
# Density = 1.908979 g / cm^3
# Si number density = 19.133343 Si / 1000 Ang^3
#
#
#
# Elastic Constant Matrix: (Units=GPa)
#
#
# Indices 1 2 3 4 5 6 
#
# 1 109.8515 47.4905 44.0175 0.0000 0.0000 2.5804
# 2 47.4905 109.8515 44.0175 0.0000 0.0000 -2.5804
# 3 44.0175 44.0175 109.6020 0.0000 0.0000 0.0000
# 4 0.0000 0.0000 0.0000 1557.6703 0.0003 0.0000
# 5 0.0000 0.0000 0.0000 0.0003 1557.6702 0.0000
# 6 2.5804 -2.5804 0.0000 0.0000 0.0000 24.9037
#
#
#
# Elastic Compliance Matrix: (Units=1/GPa)
#
#
# Indices 1 2 3 4 5 6 
#
# 1 0.012186 -0.003988 -0.003292 0.000000 0.000000 -0.001676
# 2 -0.003988 0.012186 -0.003292 0.000000 0.000000 0.001676
# 3 -0.003292 -0.003292 0.011768 0.000000 0.000000 0.000000
# 4 0.000000 0.000000 0.000000 0.000642 0.000000 0.000000
# 5 0.000000 0.000000 0.000000 0.000000 0.000642 0.000000
# 6 -0.001676 0.001676 0.000000 0.000000 0.000000 0.040502
#
#
# Mechanical properties :
#
#
# Convention : Reuss Voigt Hill
#
# Bulk Modulus (GPa) = 66.69085 66.70621 66.69853
# Shear Modulus (GPa) = 48.04447 640.96747 344.50597
#
# Velocity S-wave (km/s) = 5.01646 18.32287 13.43303
# Velocity P-wave (km/s) = 8.27554 21.96762 16.59911
#
# Compressibility (1/GPa) = 0.01499456
#
# Stress axis : x y z
#
# Youngs Moduli (GPa) = 82.06136 82.06136 84.97361
#
# Poissons Ratio (x) = 0.32729 0.27976
# Poissons Ratio (y) = 0.32729 0.27976
# Poissons Ratio (z) = 0.27017 0.27017
#
# Static dielectric constant tensor:
#      x y z
#    x -9.764660 0.000000 0.000000 
#    y 0.000000 -9.764670 0.000000 
#    z 0.000000 0.000000 3.542850 
# 
# 
# High freq. dielectric constant tensor:
#      x y z
#    x 1.736070 0.000000 0.000000 
#    y 0.000000 1.736070 0.000000 
#    z 0.000000 0.000000 1.755000 
# 
# From -- ./inp_files/3070.got.cif
#   From: 2010.03.12/outbox.cif.g09.slc.cpg/sg82_2_cif.got.tgz:3070.got - 2010.04.08 20:02:50.
