data_PCOD8302639
_publ_section_title
;
Structure prediction by ZEFSAII (Michael W. Deem and Ramdas Pophale) SiO2 
 PCOD8302639
Probable space group: P 4/M
;
_chemical_formula_sum "Si O2"
_cell_formula_units_Z 52
_cell_length_a 17.534299
_cell_length_b 17.534299
_cell_length_c 9.449641
_cell_angle_alpha 90.000000
_cell_angle_beta 90.000000
_cell_angle_gamma 90.000000
_cell_volume 2905.307636
_symmetry_space_group_name_H-M "P 4/M"
_symmetry_group_IT_number 83
_symmetry_cell_setting 'tetragonal'
loop_
_space_group_symop_operation_xyz
x,y,z
-y,x,z
-x,-y,z
y,-x,z
-x,-y,-z
y,-x,-z
x,y,-z
-y,x,-z
loop_
_atom_site_type_symbol
_atom_site_label
_atom_site_fract_x
_atom_site_fract_y
_atom_site_fract_z
Si Si1 0.920511 0.301629 0.663778
Si Si2 0.805474 0.572232 0.165280
Si Si3 0.899743 0.078227 0.000000
Si Si4 0.088324 0.320912 0.661961
Si Si5 0.705529 0.304604 0.846143
Si Si6 0.207383 0.583297 0.668533
Si Si7 0.816249 0.174935 0.771085
O O1 0.932268 0.310922 0.500000
O O2 0.868747 0.371908 0.716926
O O3 0.883328 0.219533 0.691287
O O4 0.004624 0.307510 0.730167
O O5 0.875978 0.615216 0.237361
O O6 0.729273 0.622073 0.183508
O O7 0.790443 0.495340 0.249678
O O8 0.823950 0.557018 0.000000
O O9 0.855820 0.110495 0.135175
O O10 0.987029 0.106058 0.000000
O O11 0.087480 0.350719 0.500000
O O12 0.133662 0.240905 0.662301
O O13 0.722098 0.364611 0.721346
O O14 0.766741 0.235997 0.858254
O O15 0.706804 0.345607 0.000000
O O16 0.213707 0.571685 0.500000
#
# Coordination Sequence:
#
# PCOD8302639 Si02
#       7
#     8   8   4   8   8   8   8
#     4   9  19  34  51  76 102 137 182 228 278 327
#     4  10  21  36  55  80 112 142 177 218 266 324
#     4  11  22  32  46  72 106 142 178 225 288 340
#     4  10  20  34  54  75 103 140 182 228 276 329
#     4   9  18  34  55  77 101 136 177 215 258 309
#     4  10  20  34  55  80 110 140 176 219 266 322
#     4  10  18  33  52  72  98 138 180 229 269 325
#
# _framework density 17.898278000000001
#
# number of rings (size 3 to 8) (size 9 to 14) (size 15 to 20)
#    0.000    2.231    0.769    2.308    1.077    4.923 
#    1.385    3.077    0.000    0.462    0.000    9.692 
#    0.000    0.000    0.000    0.000    0.000    0.000 
#
# Total GULP energy -644562.123868 kJ/mol
# GULP energy per Si atom -12395.425459 kJ/mol
# Density = 1.785754 g / cm^3
# Si number density = 17.898278 Si / 1000 Ang^3
#
#
#
# Elastic Constant Matrix: (Units=GPa)
#
#
# Indices 1 2 3 4 5 6 
#
# 1 100.2711 42.3852 50.9515 0.0000 0.0000 2.2536
# 2 42.3852 100.2711 50.9515 0.0000 0.0000 -2.2536
# 3 50.9515 50.9515 92.2952 0.0000 0.0000 0.0000
# 4 0.0000 0.0000 0.0000 27.8340 0.0000 0.0000
# 5 0.0000 0.0000 0.0000 0.0000 27.8340 0.0000
# 6 2.2536 -2.2536 0.0000 0.0000 0.0000 18.5938
#
#
#
# Elastic Compliance Matrix: (Units=1/GPa)
#
#
# Indices 1 2 3 4 5 6 
#
# 1 0.014507 -0.002933 -0.006389 0.000000 0.000000 -0.002114
# 2 -0.002933 0.014507 -0.006389 0.000000 0.000000 0.002114
# 3 -0.006389 -0.006389 0.017889 0.000000 0.000000 0.000000
# 4 0.000000 0.000000 0.000000 0.035927 0.000000 0.000000
# 5 0.000000 0.000000 0.000000 0.000000 0.035927 0.000000
# 6 -0.002114 0.002114 0.000000 0.000000 0.000000 0.054294
#
#
# Mechanical properties :
#
#
# Convention : Reuss Voigt Hill
#
# Bulk Modulus (GPa) = 64.60089 64.60152 64.60121
# Shear Modulus (GPa) = 23.85099 24.75564 24.30332
#
# Velocity S-wave (km/s) = 3.65442 3.72308 3.68891
# Velocity P-wave (km/s) = 7.34698 7.39282 7.36994
#
# Compressibility (1/GPa) = 0.01547966
#
# Stress axis : x y z
#
# Youngs Moduli (GPa) = 68.93238 68.93238 55.89921
#
# Poissons Ratio (x) = 0.20218 0.35716
# Poissons Ratio (y) = 0.20218 0.35716
# Poissons Ratio (z) = 0.44044 0.44044
#
# Static dielectric constant tensor:
#      x y z
#    x 3.393800 0.000000 0.000000 
#    y 0.000000 3.393800 0.000000 
#    z 0.000000 0.000000 3.296530 
# 
# 
# High freq. dielectric constant tensor:
#      x y z
#    x 1.687780 0.000000 0.000000 
#    y 0.000000 1.687780 0.000000 
#    z 0.000000 0.000000 1.693700 
# 
# From -- ./inp_files/1019.got.cif
#   From: 2010.03.12/outbox.cif.g09.slc.cpg/sg83_1_cif.got.tgz:1019.got - 2010.04.08 20:05:18.
