data_PCOD8302140
_publ_section_title
;
Structure prediction by ZEFSAII (Michael W. Deem and Ramdas Pophale) SiO2 
 PCOD8302140
Probable space group: I 41
;
_chemical_formula_sum "Si O2"
_cell_formula_units_Z 60
_cell_length_a 11.338283
_cell_length_b 11.338283
_cell_length_c 27.334231
_cell_angle_alpha 90.000000
_cell_angle_beta 90.000000
_cell_angle_gamma 90.000000
_cell_volume 3513.997479
_symmetry_space_group_name_H-M "I 41"
_symmetry_group_IT_number 80
_symmetry_cell_setting 'tetragonal'
loop_
_space_group_symop_operation_xyz
x,y,z
-y,1/2+x,1/4+z
-x,-y,z
y,1/2-x,1/4+z
1/2+x,1/2+y,1/2+z
1/2-y,x,3/4+z
1/2-x,1/2-y,1/2+z
1/2+y,-x,3/4+z
loop_
_atom_site_type_symbol
_atom_site_label
_atom_site_fract_x
_atom_site_fract_y
_atom_site_fract_z
Si Si1 0.000000 0.500000 0.744200
Si Si2 0.041496 0.870570 0.648306
Si Si3 0.798796 0.655438 0.707825
Si Si4 0.382001 0.880067 0.510250
Si Si5 0.130717 0.031734 0.278088
Si Si6 0.185298 0.266702 0.607208
Si Si7 0.646085 0.858670 0.531756
Si Si8 0.151627 0.813314 0.554006
O O1 0.921814 0.583879 0.709947
O O2 0.919604 0.419080 0.778460
O O3 0.090392 0.858127 0.703291
O O4 0.150276 0.838151 0.612322
O O5 0.924692 0.798078 0.633559
O O6 0.000000 0.000000 0.638512
O O7 0.695029 0.579574 0.730504
O O8 0.752804 0.668768 0.652431
O O9 0.817812 0.781205 0.734242
O O10 0.509265 0.819482 0.521874
O O11 0.282009 0.794723 0.531999
O O12 0.362232 0.001650 0.539282
O O13 0.138515 0.132770 0.319484
O O14 0.189736 0.911571 0.295665
O O15 0.000000 0.000000 0.263391
O O16 0.285858 0.188625 0.580134
#
# Coordination Sequence:
#
# PCOD8302140 Si02
#       8
#     4   8   8   8   8   8   8   8
#     4  10  16  28  52  84 104 124 174 228 284 298
#     4  11  17  29  53  79 109 140 165 217 280 312
#     4  10  18  33  55  79 106 139 172 223 263 325
#     4  11  19  32  50  80 116 140 174 217 268 316
#     4   9  21  36  53  77 105 138 174 224 268 308
#     4  10  19  32  54  77 103 143 179 209 264 323
#     4  10  19  31  49  77 113 144 168 211 257 322
#     4  10  19  31  52  78 111 136 170 225 265 323
#
# _framework density 17.074572
#
# number of rings (size 3 to 8) (size 9 to 14) (size 15 to 20)
#    0.000    1.867    4.667    1.600    0.933    0.000 
#    2.400    1.333    0.000    2.400    0.000    0.000 
#    0.000    0.000    0.000    0.000    0.000    0.000 
#
# Total GULP energy -371678.153057 kJ/mol
# GULP energy per Si atom -12389.271769 kJ/mol
# Density = 1.703571 g / cm^3
# Si number density = 17.074572 Si / 1000 Ang^3
#
#
#
# Elastic Constant Matrix: (Units=GPa)
#
#
# Indices 1 2 3 4 5 6 
#
# 1 92.1371 30.1767 41.9783 0.0000 0.0000 2.5462
# 2 30.1767 92.1371 41.9783 0.0000 0.0000 -2.5462
# 3 41.9783 41.9783 122.7775 0.0000 0.0000 0.0000
# 4 0.0000 0.0000 0.0000 23.0998 0.0000 0.0000
# 5 0.0000 0.0000 0.0000 0.0000 23.0998 0.0000
# 6 2.5462 -2.5462 0.0000 0.0000 0.0000 16.3672
#
#
#
# Elastic Compliance Matrix: (Units=1/GPa)
#
#
# Indices 1 2 3 4 5 6 
#
# 1 0.013516 -0.002833 -0.003653 0.000000 0.000000 -0.002543
# 2 -0.002833 0.013516 -0.003653 0.000000 0.000000 0.002543
# 3 -0.003653 -0.003653 0.010642 0.000000 0.000000 0.000000
# 4 0.000000 0.000000 0.000000 0.043290 0.000000 0.000000
# 5 0.000000 0.000000 0.000000 0.000000 0.043290 0.000000
# 6 -0.002543 0.002543 0.000000 0.000000 0.000000 0.061889
#
#
# Mechanical properties :
#
#
# Convention : Reuss Voigt Hill
#
# Bulk Modulus (GPa) = 57.47789 59.47982 58.47885
# Shear Modulus (GPa) = 23.56064 25.37459 24.46761
#
# Velocity S-wave (km/s) = 3.71869 3.85918 3.78959
# Velocity P-wave (km/s) = 7.22316 7.40059 7.31241
#
# Compressibility (1/GPa) = 0.01739799
#
# Stress axis : x y z
#
# Youngs Moduli (GPa) = 73.98868 73.98868 93.96339
#
# Poissons Ratio (x) = 0.20959 0.34320
# Poissons Ratio (y) = 0.20959 0.34320
# Poissons Ratio (z) = 0.27024 0.27024
#
# Static dielectric constant tensor:
#      x y z
#    x 3.161350 0.000000 0.000000 
#    y 0.000000 3.161350 0.000000 
#    z 0.000000 0.000000 3.384330 
# 
# 
# High freq. dielectric constant tensor:
#      x y z
#    x 1.640790 0.000000 0.000000 
#    y 0.000000 1.640790 0.000000 
#    z 0.000000 0.000000 1.663060 
# 
# From -- ./inp_files/2374.got.cif
#   From: 2010.03.12/outbox.cif.g09.slc.cpg/sg80_cif.got.tgz:2374.got - 2010.04.08 20:00:04.
