data_PCOD8302987
_publ_section_title
;
Structure prediction by ZEFSAII (Michael W. Deem and Ramdas Pophale) SiO2 
 PCOD8302987
Probable space group: P 4/M
;
_chemical_formula_sum "Si O2"
_cell_formula_units_Z 44
_cell_length_a 8.520992
_cell_length_b 8.520992
_cell_length_c 28.701372
_cell_angle_alpha 90.000000
_cell_angle_beta 90.000000
_cell_angle_gamma 90.000000
_cell_volume 2083.929261
_symmetry_space_group_name_H-M "P 4/M"
_symmetry_group_IT_number 83
_symmetry_cell_setting 'tetragonal'
loop_
_space_group_symop_operation_xyz
x,y,z
-y,x,z
-x,-y,z
y,-x,z
-x,-y,-z
y,-x,-z
x,y,-z
-y,x,-z
loop_
_atom_site_type_symbol
_atom_site_label
_atom_site_fract_x
_atom_site_fract_y
_atom_site_fract_z
Si Si1 0.762703 0.894397 0.914277
Si Si2 0.394039 0.265202 0.831799
Si Si3 0.916227 0.245810 0.350587
Si Si4 0.914419 0.244952 0.549108
Si Si5 0.262296 0.606987 0.000000
Si Si6 0.591924 0.739386 0.273616
O O1 0.674757 0.867895 0.865293
O O2 0.922032 0.795679 0.918393
O O3 0.646717 0.840346 0.954904
O O4 0.576428 0.297008 0.841534
O O5 0.376266 0.202944 0.779027
O O6 0.884771 0.331821 0.401244
O O7 0.877353 0.365868 0.309376
O O8 0.095529 0.195692 0.345857
O O9 0.881064 0.340426 0.500000
O O10 0.094040 0.194943 0.548803
O O11 0.295159 0.422600 0.000000
O O12 0.411921 0.698795 0.282480
#
# Coordination Sequence:
#
# PCOD8302987 Si02
#       6
#     8   8   8   8   4   8
#     4  11  24  39  56  83 116 143 169 207 255 302
#     4   9  19  37  58  77  98 130 175 217 250 294
#     4   9  17  28  45  72 100 123 155 203 253 300
#     4   7  10  19  37  61  89 120 153 192 241 294
#     4  11  24  41  62  86 110 141 182 219 248 288
#     4   9  19  35  52  70  96 132 171 208 246 294
#
# _framework density 21.113959000000001
#
# number of rings (size 3 to 8) (size 9 to 14) (size 15 to 20)
#    0.000    2.818    0.000    4.364    0.000    8.000 
#    0.000    5.455    0.000    1.091    0.000    6.364 
#    0.000    0.000    0.000    0.000    0.000    0.000 
#
# Total GULP energy -545210.640343 kJ/mol
# GULP energy per Si atom -12391.150917 kJ/mol
# Density = 2.106590 g / cm^3
# Si number density = 21.113959 Si / 1000 Ang^3
#
#
#
# Elastic Constant Matrix: (Units=GPa)
#
#
# Indices 1 2 3 4 5 6 
#
# 1 17.9936 -7.3047 11.1610 0.0000 0.0000 -3.9432
# 2 -7.3047 17.9936 11.1610 0.0000 0.0000 3.9432
# 3 11.1610 11.1610 139.6834 0.0000 0.0000 0.0000
# 4 0.0000 0.0000 0.0000 -11.7457 0.0000 0.0000
# 5 0.0000 0.0000 0.0000 0.0000 -11.7457 0.0000
# 6 -3.9432 3.9432 0.0000 0.0000 0.0000 34.8531
#
#
#
# Elastic Compliance Matrix: (Units=1/GPa)
#
#
# Indices 1 2 3 4 5 6 
#
# 1 0.076633 0.035659 -0.008972 0.000000 0.000000 0.004636
# 2 0.035659 0.076633 -0.008972 0.000000 0.000000 -0.004636
# 3 -0.008972 -0.008972 0.008593 0.000000 0.000000 0.000000
# 4 0.000000 0.000000 0.000000 -0.085138 0.000000 0.000000
# 5 0.000000 0.000000 0.000000 0.000000 -0.085138 0.000000
# 6 0.004636 -0.004636 0.000000 0.000000 0.000000 0.029741
#
#
# Mechanical properties :
#
#
# Convention : Reuss Voigt Hill
#
# Bulk Modulus (GPa) = 5.06874 22.85613 13.96244
# Shear Modulus (GPa) = 96.79260 12.98258 54.88759
#
# Velocity S-wave (km/s) = 6.77809 2.48237 5.10415
# Velocity P-wave (km/s) = 7.97888 4.36633 6.43146
#
# Compressibility (1/GPa) = 0.19728753
#
# Stress axis : x y z
#
# Youngs Moduli (GPa) = 13.04925 13.04925 116.37561
#
# Poissons Ratio (x) = -0.46533 1.04416
# Poissons Ratio (y) = -0.46533 1.04416
# Poissons Ratio (z) = 0.11708 0.11708
#
# Static dielectric constant tensor:
#      x y z
#    x 3.475320 0.000000 0.000000 
#    y 0.000000 3.475320 0.000000 
#    z 0.000000 0.000000 4.285740 
# 
# 
# High freq. dielectric constant tensor:
#      x y z
#    x 1.801230 0.000000 0.000000 
#    y 0.000000 1.801230 0.000000 
#    z 0.000000 0.000000 1.852170 
# 
# From -- ./inp_files/3378.got.cif
#   From: 2010.03.12/outbox.cif.g09.slc.cpg/sg83_2_cif.got.tgz:3378.got - 2010.04.08 20:05:18.
