data_PCOD8302847
_publ_section_title
;
Structure prediction by ZEFSAII (Michael W. Deem and Ramdas Pophale) SiO2 
 PCOD8302847
Probable space group: P 4/M
;
_chemical_formula_sum "Si O2"
_cell_formula_units_Z 40
_cell_length_a 8.156239
_cell_length_b 8.156239
_cell_length_c 28.258108
_cell_angle_alpha 90.000000
_cell_angle_beta 90.000000
_cell_angle_gamma 90.000000
_cell_volume 1879.849007
_symmetry_space_group_name_H-M "P 4/M"
_symmetry_group_IT_number 83
_symmetry_cell_setting 'tetragonal'
loop_
_space_group_symop_operation_xyz
x,y,z
-y,x,z
-x,-y,z
y,-x,z
-x,-y,-z
y,-x,-z
x,y,-z
-y,x,-z
loop_
_atom_site_type_symbol
_atom_site_label
_atom_site_fract_x
_atom_site_fract_y
_atom_site_fract_z
Si Si1 0.419335 0.243140 0.758459
Si Si2 0.500000 0.000000 0.421290
Si Si3 0.579744 0.756811 0.653463
Si Si4 0.755662 0.597515 0.000000
Si Si5 0.000000 0.500000 0.832786
Si Si6 0.926820 0.737835 0.500000
Si Si7 0.913253 0.741246 0.090739
O O1 0.606615 0.297922 0.764993
O O2 0.395749 0.166441 0.705938
O O3 0.383837 0.110502 0.799066
O O4 0.386157 0.112340 0.387568
O O5 0.374714 0.896448 0.453877
O O6 0.392741 0.701818 0.647096
O O7 0.593254 0.708962 0.000000
O O8 0.869885 0.635776 0.955258
O O9 0.112572 0.379262 0.864584
O O10 0.798863 0.885125 0.500000
O O11 0.102973 0.794367 0.091605
#
# Coordination Sequence:
#
# PCOD8302847 Si02
#       7
#     8   4   8   4   4   4   8
#     4   9  19  35  54  78 109 142 175 218 270 315
#     4  11  19  32  55  76  97 136 181 217 264 320
#     4   9  18  33  53  78 105 133 173 223 269 314
#     4  11  24  43  66  89 110 138 182 229 270 321
#     4  12  21  35  57  82 111 145 187 220 252 316
#     4  10  22  36  48  70 106 140 172 216 268 322
#     4  11  24  40  59  84 115 149 181 221 274 322
#
# _framework density 21.278306000000001
#
# number of rings (size 3 to 8) (size 9 to 14) (size 15 to 20)
#    0.000    1.800    0.000    6.000    0.000    2.000 
#    0.000    2.000    0.000    4.800    0.000   16.800 
#    0.000    0.000    0.000    0.000    0.000    0.000 
#
# Total GULP energy -495949.305647 kJ/mol
# GULP energy per Si atom -12398.732641 kJ/mol
# Density = 2.122988 g / cm^3
# Si number density = 21.278306 Si / 1000 Ang^3
#
#
#
# Elastic Constant Matrix: (Units=GPa)
#
#
# Indices 1 2 3 4 5 6 
#
# 1 61.7581 -1.6679 33.3704 0.0000 0.0000 5.8370
# 2 -1.6679 61.7581 33.3704 0.0000 0.0000 -5.8370
# 3 33.3704 33.3704 164.7154 0.0000 0.0000 0.0000
# 4 0.0000 0.0000 0.0000 19.9533 0.0000 0.0000
# 5 0.0000 0.0000 0.0000 0.0000 19.9533 0.0000
# 6 5.8370 -5.8370 0.0000 0.0000 0.0000 26.0919
#
#
#
# Elastic Compliance Matrix: (Units=1/GPa)
#
#
# Indices 1 2 3 4 5 6 
#
# 1 0.018959 0.002515 -0.004350 0.000000 0.000000 -0.003679
# 2 0.002515 0.018959 -0.004350 0.000000 0.000000 0.003679
# 3 -0.004350 -0.004350 0.007834 0.000000 0.000000 0.000000
# 4 0.000000 0.000000 0.000000 0.050117 0.000000 0.000000
# 5 0.000000 0.000000 0.000000 0.000000 0.050117 0.000000
# 6 -0.003679 0.003679 0.000000 0.000000 0.000000 0.039972
#
#
# Mechanical properties :
#
#
# Convention : Reuss Voigt Hill
#
# Bulk Modulus (GPa) = 29.95872 46.48636 38.22254
# Shear Modulus (GPa) = 23.87149 28.07695 25.97422
#
# Velocity S-wave (km/s) = 3.35307 3.63645 3.49763
# Velocity P-wave (km/s) = 5.39451 6.28697 5.85776
#
# Compressibility (1/GPa) = 0.03337926
#
# Stress axis : x y z
#
# Youngs Moduli (GPa) = 52.74678 52.74678 127.65172
#
# Poissons Ratio (x) = -0.13266 0.55534
# Poissons Ratio (y) = -0.13266 0.55534
# Poissons Ratio (z) = 0.22947 0.22947
#
# Static dielectric constant tensor:
#      x y z
#    x 3.640880 0.000000 0.000000 
#    y 0.000000 3.640880 0.000000 
#    z 0.000000 0.000000 4.039380 
# 
# 
# High freq. dielectric constant tensor:
#      x y z
#    x 1.820830 0.000000 0.000000 
#    y 0.000000 1.820830 0.000000 
#    z 0.000000 0.000000 1.855560 
# 
# From -- ./inp_files/3296.got.cif
#   From: 2010.03.12/outbox.cif.g09.slc.cpg/sg83_2_cif.got.tgz:3296.got - 2010.04.08 20:05:18.
