data_PCOD8302055
_publ_section_title
;
Structure prediction by ZEFSAII (Michael W. Deem and Ramdas Pophale) SiO2 
 PCOD8302055
Probable space group: P 43
;
_chemical_formula_sum "Si O2"
_cell_formula_units_Z 32
_cell_length_a 8.468045
_cell_length_b 8.468045
_cell_length_c 19.470885
_cell_angle_alpha 90.000000
_cell_angle_beta 90.000000
_cell_angle_gamma 90.000000
_cell_volume 1396.214057
_symmetry_space_group_name_H-M "P 43"
_symmetry_group_IT_number 78
_symmetry_cell_setting 'tetragonal'
loop_
_space_group_symop_operation_xyz
x,y,z
-y,x,3/4+z
-x,-y,1/2+z
y,-x,1/4+z
loop_
_atom_site_type_symbol
_atom_site_label
_atom_site_fract_x
_atom_site_fract_y
_atom_site_fract_z
Si Si1 0.209860 0.093188 0.279420
Si Si2 0.900755 0.657274 0.883588
Si Si3 0.405205 0.307144 0.195816
Si Si4 0.902373 0.965271 0.229364
Si Si5 0.437736 0.403257 0.751832
Si Si6 0.732730 0.055126 0.358043
Si Si7 0.425436 0.855296 0.346163
Si Si8 0.597690 0.749705 0.105722
O O1 0.131706 0.241911 0.316210
O O2 0.360981 0.148983 0.236637
O O3 0.079377 0.028684 0.227362
O O4 0.269113 0.955723 0.329746
O O5 0.751671 0.541199 0.893871
O O6 0.066882 0.565702 0.874163
O O7 0.912089 0.778189 0.947035
O O8 0.456104 0.440361 0.249594
O O9 0.255693 0.382210 0.158689
O O10 0.842683 0.943290 0.308733
O O11 0.909497 0.806365 0.183649
O O12 0.526773 0.250730 0.781143
O O13 0.296132 0.455510 0.803476
O O14 0.394717 0.360043 0.673875
O O15 0.722560 0.228467 0.322039
O O16 0.564834 0.973310 0.368713
#
# Coordination Sequence:
#
# PCOD8302055 Si02
#       8
#     4   4   4   4   4   4   4   4
#     4  12  25  45  74 103 148 190 244 304 360 433
#     4  11  25  49  70 107 144 187 247 294 369 434
#     4  12  27  44  72 104 152 190 240 301 368 434
#     4  11  22  47  78 105 139 190 248 300 361 434
#     4  12  25  47  72 108 145 194 241 297 368 439
#     4  11  25  47  73 110 143 193 240 303 369 439
#     4  12  27  46  68 108 151 186 245 297 364 439
#     4  11  24  47  77 105 142 194 243 300 363 438
#
# _framework density 22.919118999999998
#
# number of rings (size 3 to 8) (size 9 to 14) (size 15 to 20)
#    0.000    0.500    3.750    6.000    3.500    2.000 
#    4.500    0.000    0.000    0.000    0.000    0.000 
#    0.000    0.000    0.000    0.000    0.000    0.000 
#
# Total GULP energy -396751.555998 kJ/mol
# GULP energy per Si atom -12398.486125 kJ/mol
# Density = 2.286695 g / cm^3
# Si number density = 22.919119 Si / 1000 Ang^3
#
#
#
# Elastic Constant Matrix: (Units=GPa)
#
#
# Indices 1 2 3 4 5 6 
#
# 1 88.0058 35.5651 18.3099 0.0000 0.0000 1.0471
# 2 35.5651 88.0058 18.3099 0.0000 0.0000 -1.0471
# 3 18.3099 18.3099 83.7771 0.0000 0.0000 0.0000
# 4 0.0000 0.0000 0.0000 32.6640 0.0000 0.0000
# 5 0.0000 0.0000 0.0000 0.0000 32.6640 0.0000
# 6 1.0471 -1.0471 0.0000 0.0000 0.0000 40.9867
#
#
#
# Elastic Compliance Matrix: (Units=1/GPa)
#
#
# Indices 1 2 3 4 5 6 
#
# 1 0.013871 -0.005218 -0.001891 0.000000 0.000000 -0.000488
# 2 -0.005218 0.013871 -0.001891 0.000000 0.000000 0.000488
# 3 -0.001891 -0.001891 0.012763 0.000000 0.000000 0.000000
# 4 0.000000 0.000000 0.000000 0.030615 0.000000 0.000000
# 5 0.000000 0.000000 0.000000 0.000000 0.030615 0.000000
# 6 -0.000488 0.000488 0.000000 0.000000 0.000000 0.024423
#
#
# Mechanical properties :
#
#
# Convention : Reuss Voigt Hill
#
# Bulk Modulus (GPa) = 44.43576 44.90651 44.67113
# Shear Modulus (GPa) = 32.96873 33.76989 33.36931
#
# Velocity S-wave (km/s) = 3.79685 3.84270 3.81984
# Velocity P-wave (km/s) = 6.21704 6.27092 6.24404
#
# Compressibility (1/GPa) = 0.02250440
#
# Stress axis : x y z
#
# Youngs Moduli (GPa) = 72.09395 72.09395 78.35102
#
# Poissons Ratio (x) = 0.37617 0.14817
# Poissons Ratio (y) = 0.37617 0.14817
# Poissons Ratio (z) = 0.13634 0.13634
#
# Static dielectric constant tensor:
#      x y z
#    x 4.179380 0.000000 0.000000 
#    y 0.000000 4.179380 0.000000 
#    z 0.000000 0.000000 4.066920 
# 
# 
# High freq. dielectric constant tensor:
#      x y z
#    x 1.909160 0.000000 0.000000 
#    y 0.000000 1.909160 0.000000 
#    z 0.000000 0.000000 1.905570 
# 
# From -- ./inp_files/1501.got.cif
#   From: 2010.03.12/outbox.cif.g09.slc.cpg/sg78_cif.got.tgz:1501.got - 2010.04.16 16:37:20.
