data_PCOD8302172
_publ_section_title
;
Structure prediction by ZEFSAII (Michael W. Deem and Ramdas Pophale) SiO2 
 PCOD8302172
Probable space group: I 41
;
_chemical_formula_sum "Si O2"
_cell_formula_units_Z 60
_cell_length_a 11.718630
_cell_length_b 11.718630
_cell_length_c 19.221413
_cell_angle_alpha 90.000000
_cell_angle_beta 90.000000
_cell_angle_gamma 90.000000
_cell_volume 2639.605318
_symmetry_space_group_name_H-M "I 41"
_symmetry_group_IT_number 80
_symmetry_cell_setting 'tetragonal'
loop_
_space_group_symop_operation_xyz
x,y,z
-y,1/2+x,1/4+z
-x,-y,z
y,1/2-x,1/4+z
1/2+x,1/2+y,1/2+z
1/2-y,x,3/4+z
1/2-x,1/2-y,1/2+z
1/2+y,-x,3/4+z
loop_
_atom_site_type_symbol
_atom_site_label
_atom_site_fract_x
_atom_site_fract_y
_atom_site_fract_z
Si Si1 0.500000 0.500000 0.800231
Si Si2 0.793046 0.275294 0.102298
Si Si3 0.368090 0.529351 0.117396
Si Si4 0.338888 0.324774 0.869277
Si Si5 0.012583 0.304741 0.020277
Si Si6 0.390061 0.433143 0.566086
Si Si7 0.254724 0.359152 0.021170
Si Si8 0.229962 0.591114 0.497109
O O1 0.411364 0.437244 0.851547
O O2 0.445626 0.597389 0.750531
O O3 0.671765 0.341857 0.100550
O O4 0.831276 0.250665 0.180611
O O5 0.896634 0.339973 0.060896
O O6 0.764511 0.156263 0.067292
O O7 0.500000 0.500000 0.128643
O O8 0.301950 0.501197 0.187639
O O9 0.328239 0.461814 0.049938
O O10 0.413161 0.207011 0.876086
O O11 0.255956 0.301718 0.804759
O O12 0.268367 0.349668 0.938434
O O13 0.049663 0.179484 0.039962
O O14 0.121143 0.385332 0.038561
O O15 0.500000 0.500000 0.596261
O O16 0.321222 0.486792 0.499524
#
# Coordination Sequence:
#
# PCOD8302172 Si02
#       8
#     4   8   8   8   8   8   8   8
#     4  10  26  44  72 102 148 206 244 314 376 458
#     4  12  26  48  74 112 144 196 248 314 378 452
#     4  12  29  48  73 108 147 194 242 309 371 460
#     4  10  24  43  68 106 142 195 254 298 380 448
#     4  11  25  46  76 105 144 192 252 308 374 444
#     4  10  20  44  69 109 147 190 246 318 377 428
#     4  11  25  46  72 103 143 191 249 307 372 454
#     4  11  26  44  74 109 152 195 256 316 379 448
#
# _framework density 22.730668999999999
#
# number of rings (size 3 to 8) (size 9 to 14) (size 15 to 20)
#    0.000    1.067    4.000    0.000    6.533    7.467 
#    1.200    0.000    0.000    0.000    0.000    0.000 
#    0.000    0.000    0.000    0.000    0.000    0.000 
#
# Total GULP energy -371759.381978 kJ/mol
# GULP energy per Si atom -12391.979399 kJ/mol
# Density = 2.267893 g / cm^3
# Si number density = 22.730669 Si / 1000 Ang^3
#
#
#
# Elastic Constant Matrix: (Units=GPa)
#
#
# Indices 1 2 3 4 5 6 
#
# 1 103.1290 35.1351 20.5564 0.0000 0.0000 -1.6199
# 2 35.1351 103.1290 20.5564 0.0000 0.0000 1.6199
# 3 20.5564 20.5564 79.4601 0.0000 0.0000 0.0000
# 4 0.0000 0.0000 0.0000 23.9016 0.0000 0.0000
# 5 0.0000 0.0000 0.0000 0.0000 23.9016 0.0000
# 6 -1.6199 1.6199 0.0000 0.0000 0.0000 39.3031
#
#
#
# Elastic Compliance Matrix: (Units=1/GPa)
#
#
# Indices 1 2 3 4 5 6 
#
# 1 0.011286 -0.003450 -0.002027 0.000000 0.000000 0.000607
# 2 -0.003450 0.011286 -0.002027 0.000000 0.000000 -0.000607
# 3 -0.002027 -0.002027 0.013634 0.000000 0.000000 0.000000
# 4 0.000000 0.000000 0.000000 0.041838 0.000000 0.000000
# 5 0.000000 0.000000 0.000000 0.000000 0.041838 0.000000
# 6 0.000607 -0.000607 0.000000 0.000000 0.000000 0.025493
#
#
# Mechanical properties :
#
#
# Convention : Reuss Voigt Hill
#
# Bulk Modulus (GPa) = 47.17812 48.69044 47.93428
# Shear Modulus (GPa) = 29.85981 31.38593 30.62287
#
# Velocity S-wave (km/s) = 3.62834 3.71991 3.67441
# Velocity P-wave (km/s) = 6.19302 6.31802 6.25583
#
# Compressibility (1/GPa) = 0.02119626
#
# Stress axis : x y z
#
# Youngs Moduli (GPa) = 88.60769 88.60769 73.34763
#
# Poissons Ratio (x) = 0.30574 0.14867
# Poissons Ratio (y) = 0.30574 0.14867
# Poissons Ratio (z) = 0.17961 0.17961
#
# Static dielectric constant tensor:
#      x y z
#    x 4.535670 0.000000 0.000000 
#    y 0.000000 4.535670 0.000000 
#    z 0.000000 0.000000 3.853710 
# 
# 
# High freq. dielectric constant tensor:
#      x y z
#    x 1.907020 0.000000 0.000000 
#    y 0.000000 1.907020 0.000000 
#    z 0.000000 0.000000 1.885560 
# 
# From -- ./inp_files/1848.got.cif
#   From: 2010.03.12/outbox.cif.g09.slc.cpg/sg80_cif.got.tgz:1848.got - 2010.04.08 20:00:04.
