data_PCOD8302603
_publ_section_title
;
Structure prediction by ZEFSAII (Michael W. Deem and Ramdas Pophale) SiO2 
 PCOD8302603
Probable space group: I -4 
;
_chemical_formula_sum "Si O2"
_cell_formula_units_Z 40
_cell_length_a 18.868075
_cell_length_b 18.868075
_cell_length_c 4.893249
_cell_angle_alpha 90.000000
_cell_angle_beta 90.000000
_cell_angle_gamma 90.000000
_cell_volume 1742.017461
_symmetry_space_group_name_H-M "I -4 "
_symmetry_group_IT_number 82
_symmetry_cell_setting 'tetragonal'
loop_
_space_group_symop_operation_xyz
x,y,z
y,-x,-z
-x,-y,z
-y,x,-z
1/2+x,1/2+y,1/2+z
1/2+y,1/2-x,1/2-z
1/2-x,1/2-y,1/2+z
1/2-y,1/2+x,1/2-z
loop_
_atom_site_type_symbol
_atom_site_label
_atom_site_fract_x
_atom_site_fract_y
_atom_site_fract_z
Si Si1 0.607276 0.630447 0.237990
Si Si2 0.505390 0.171680 0.949058
Si Si3 0.638039 0.905844 0.031692
Si Si4 0.480456 0.330487 0.742391
Si Si5 0.253223 0.295306 0.341611
O O1 0.561568 0.673328 0.459537
O O2 0.627547 0.551776 0.331902
O O3 0.678737 0.673900 0.186960
O O4 0.564943 0.624400 0.956399
O O5 0.434409 0.137174 0.071054
O O6 0.529394 0.127988 0.680585
O O7 0.493909 0.252976 0.866201
O O8 0.566200 0.165599 0.178036
O O9 0.696917 0.855704 0.901512
O O10 0.279119 0.259949 0.624467
#
# Coordination Sequence:
#
# PCOD8302603 Si02
#       5
#     8   8   8   8   8
#     4  12  26  46  73 103 146 188 236 302 364 434
#     4  12  26  47  71 108 146 192 243 300 364 432
#     4  12  26  45  74 102 150 190 239 303 361 435
#     4  12  27  47  73 105 146 188 241 300 363 434
#     4  12  25  45  73 106 140 188 253 297 362 423
#
# _framework density 22.961881999999999
#
# number of rings (size 3 to 8) (size 9 to 14) (size 15 to 20)
#    0.000    0.000    2.000    8.400    2.800    4.800 
#    0.000    0.000    0.000    0.000    0.000    0.000 
#    0.000    0.000    0.000    0.000    0.000    0.000 
#
# Total GULP energy -248140.848874 kJ/mol
# GULP energy per Si atom -12407.042444 kJ/mol
# Density = 2.290962 g / cm^3
# Si number density = 22.961882 Si / 1000 Ang^3
#
#
#
# Elastic Constant Matrix: (Units=GPa)
#
#
# Indices 1 2 3 4 5 6 
#
# 1 91.1311 22.9153 10.2235 0.0000 0.0000 3.4573
# 2 22.9153 91.1311 10.2235 0.0000 0.0000 -3.4573
# 3 10.2235 10.2235 99.3972 0.0000 0.0000 0.0000
# 4 0.0000 0.0000 0.0000 44.7740 0.0000 0.0000
# 5 0.0000 0.0000 0.0000 0.0000 44.7740 0.0000
# 6 3.4573 -3.4573 0.0000 0.0000 0.0000 31.5294
#
#
#
# Elastic Compliance Matrix: (Units=1/GPa)
#
#
# Indices 1 2 3 4 5 6 
#
# 1 0.011879 -0.002946 -0.000919 0.000000 0.000000 -0.001626
# 2 -0.002946 0.011879 -0.000919 0.000000 0.000000 0.001626
# 3 -0.000919 -0.000919 0.010250 0.000000 0.000000 0.000000
# 4 0.000000 0.000000 0.000000 0.022334 0.000000 0.000000
# 5 0.000000 0.000000 0.000000 0.000000 0.022334 0.000000
# 6 -0.001626 0.001626 0.000000 0.000000 0.000000 0.032073
#
#
# Mechanical properties :
#
#
# Convention : Reuss Voigt Hill
#
# Bulk Modulus (GPa) = 40.91557 40.93157 40.92357
# Shear Modulus (GPa) = 38.92208 40.10194 39.51201
#
# Velocity S-wave (km/s) = 4.12159 4.18360 4.15271
# Velocity P-wave (km/s) = 6.36456 6.41882 6.39175
#
# Compressibility (1/GPa) = 0.02444057
#
# Stress axis : x y z
#
# Youngs Moduli (GPa) = 84.18497 84.18497 97.56421
#
# Poissons Ratio (x) = 0.24797 0.08964
# Poissons Ratio (y) = 0.24797 0.08964
# Poissons Ratio (z) = 0.07735 0.07735
#
# Static dielectric constant tensor:
#      x y z
#    x 4.241850 0.000000 0.000000 
#    y 0.000000 4.241850 0.000000 
#    z 0.000000 0.000000 4.500660 
# 
# 
# High freq. dielectric constant tensor:
#      x y z
#    x 1.915090 0.000000 0.000000 
#    y 0.000000 1.915090 0.000000 
#    z 0.000000 0.000000 1.922170 
# 
# From -- ./inp_files/209.got.cif
#   From: 2010.03.12/outbox.cif.g09.slc.cpg/sg82_1_cif.got.tgz:209.got - 2010.04.08 20:02:50.
