data_PCOD8302320
_publ_section_title
;
Structure prediction by ZEFSAII (Michael W. Deem and Ramdas Pophale) SiO2 
 PCOD8302320
Probable space group: P -4
;
_chemical_formula_sum "Si O2"
_cell_formula_units_Z 17
_cell_length_a 8.409858
_cell_length_b 8.409858
_cell_length_c 10.259821
_cell_angle_alpha 90.000000
_cell_angle_beta 90.000000
_cell_angle_gamma 90.000000
_cell_volume 725.633141
_symmetry_space_group_name_H-M "P -4"
_symmetry_group_IT_number 81
_symmetry_cell_setting 'tetragonal'
loop_
_space_group_symop_operation_xyz
x,y,z
y,-x,-z
-x,-y,z
-y,x,-z
loop_
_atom_site_type_symbol
_atom_site_label
_atom_site_fract_x
_atom_site_fract_y
_atom_site_fract_z
Si Si1 0.107573 0.237935 0.994438
Si Si2 0.375010 0.741921 0.760213
Si Si3 0.660239 0.096114 0.482160
Si Si4 0.000000 0.000000 0.500000
Si Si5 0.279227 0.394210 0.759817
O O1 0.141131 0.342932 0.120708
O O2 0.152589 0.329313 0.862903
O O3 0.921793 0.207485 0.990809
O O4 0.343827 0.844322 0.630674
O O5 0.266648 0.585017 0.763785
O O6 0.551056 0.680104 0.786798
O O7 0.663867 0.245579 0.386592
O O8 0.500000 0.000000 0.451750
O O9 0.819852 0.993368 0.440361
#
# Coordination Sequence:
#
# PCOD8302320 Si02
#       5
#     4   4   4   1   4
#     4  11  28  45  70 106 147 192 252 309 368 446
#     4  11  25  47  73 106 147 194 246 306 376 453
#     4  12  28  47  76 115 148 195 243 318 380 450
#     4  12  28  44  76 106 156 188 260 294 380 464
#     4  11  25  47  73 106 147 194 246 306 376 453
#
# _framework density 23.427817000000001
#
# number of rings (size 3 to 8) (size 9 to 14) (size 15 to 20)
#    0.000    0.706    0.000    5.647   13.176    5.647 
#    0.000    0.000    0.000    0.000    0.000    0.000 
#    0.000    0.000    0.000    0.000    0.000    0.000 
#
# Total GULP energy -210679.134280 kJ/mol
# GULP energy per Si atom -12392.890252 kJ/mol
# Density = 2.337449 g / cm^3
# Si number density = 23.427817 Si / 1000 Ang^3
#
#
#
# Elastic Constant Matrix: (Units=GPa)
#
#
# Indices 1 2 3 4 5 6 
#
# 1 88.0646 45.4660 21.9544 0.0000 0.0000 -1.2596
# 2 45.4660 88.0646 21.9544 0.0000 0.0000 1.2596
# 3 21.9544 21.9544 123.7045 0.0000 0.0000 0.0000
# 4 0.0000 0.0000 0.0000 32.5673 0.0000 0.0000
# 5 0.0000 0.0000 0.0000 0.0000 32.5673 0.0000
# 6 -1.2596 1.2596 0.0000 0.0000 0.0000 35.8216
#
#
#
# Elastic Compliance Matrix: (Units=1/GPa)
#
#
# Indices 1 2 3 4 5 6 
#
# 1 0.015738 -0.007785 -0.001411 0.000000 0.000000 0.000827
# 2 -0.007785 0.015738 -0.001411 0.000000 0.000000 -0.000827
# 3 -0.001411 -0.001411 0.008585 0.000000 0.000000 0.000000
# 4 0.000000 0.000000 0.000000 0.030706 0.000000 0.000000
# 5 0.000000 0.000000 0.000000 0.000000 0.030706 0.000000
# 6 0.000827 -0.000827 0.000000 0.000000 0.000000 0.027974
#
#
# Mechanical properties :
#
#
# Convention : Reuss Voigt Hill
#
# Bulk Modulus (GPa) = 53.06442 53.17594 53.12018
# Shear Modulus (GPa) = 31.85816 34.22184 33.04000
#
# Velocity S-wave (km/s) = 3.69161 3.82610 3.75946
# Velocity P-wave (km/s) = 6.39296 6.50122 6.44732
#
# Compressibility (1/GPa) = 0.01884502
#
# Stress axis : x y z
#
# Youngs Moduli (GPa) = 63.53858 63.53858 116.48526
#
# Poissons Ratio (x) = 0.49467 0.16441
# Poissons Ratio (y) = 0.49467 0.16441
# Poissons Ratio (z) = 0.08968 0.08968
#
# Static dielectric constant tensor:
#      x y z
#    x 4.504200 0.000000 0.000000 
#    y 0.000000 4.504200 0.000000 
#    z 0.000000 0.000000 4.040020 
# 
# 
# High freq. dielectric constant tensor:
#      x y z
#    x 1.947210 0.000000 0.000000 
#    y 0.000000 1.947210 0.000000 
#    z 0.000000 0.000000 1.921550 
# 
# From -- ./inp_files/1054.got.cif
#   From: 2010.03.12/outbox.cif.g09.slc.cpg/sg81_cif.got.tgz:1054.got - 2010.04.08 20:01:38.
