data_PCOD8302262
_publ_section_title
;
Structure prediction by ZEFSAII (Michael W. Deem and Ramdas Pophale) SiO2 
 PCOD8302262
Probable space group: P -4
;
_chemical_formula_sum "Si O2"
_cell_formula_units_Z 18
_cell_length_a 11.326808
_cell_length_b 11.326808
_cell_length_c 4.968550
_cell_angle_alpha 90.000000
_cell_angle_beta 90.000000
_cell_angle_gamma 90.000000
_cell_volume 637.447970
_symmetry_space_group_name_H-M "P -4"
_symmetry_group_IT_number 81
_symmetry_cell_setting 'tetragonal'
loop_
_space_group_symop_operation_xyz
x,y,z
y,-x,-z
-x,-y,z
-y,x,-z
loop_
_atom_site_type_symbol
_atom_site_label
_atom_site_fract_x
_atom_site_fract_y
_atom_site_fract_z
Si Si1 0.916526 0.209902 0.699341
Si Si2 0.640312 0.938065 0.793875
Si Si3 0.196014 0.348215 0.228354
Si Si4 0.649212 0.675501 0.717222
Si Si5 0.500000 0.500000 0.000000
Si Si6 0.000000 0.000000 0.000000
O O1 0.953104 0.245491 0.398679
O O2 0.784776 0.157252 0.696645
O O3 0.925742 0.324430 0.894556
O O4 0.008670 0.113205 0.805752
O O5 0.590963 0.808220 0.699901
O O6 0.573494 0.069776 0.763960
O O7 0.299988 0.378790 0.440350
O O8 0.244474 0.344192 0.926530
O O9 0.533980 0.606521 0.806479
#
# Coordination Sequence:
#
# PCOD8302262 Si02
#       6
#     4   4   4   4   1   1
#     4  10  21  27  50  86 143 195 232 268 336 441
#     4  10  20  38  57  95 142 181 233 294 361 439
#     4  10  20  39  62 101 141 180 241 291 375 434
#     4  10  25  42  73 104 134 197 235 311 364 427
#     4  12  28  58  80 102 144 186 288 318 372 454
#     4  12  20  26  44  94 136 218 236 258 348 426
#
# _framework density 28.237603
#
# number of rings (size 3 to 8) (size 9 to 14) (size 15 to 20)
#    0.000    1.778    2.222    1.333    6.222    3.556 
#    0.000    1.111    0.000    2.667    0.000    0.000 
#    0.000    0.000    0.000    0.000    0.000    0.000 
#
# Total GULP energy -223027.104215 kJ/mol
# GULP energy per Si atom -12390.394679 kJ/mol
# Density = 2.817333 g / cm^3
# Si number density = 28.237603 Si / 1000 Ang^3
#
#
#
# Elastic Constant Matrix: (Units=GPa)
#
#
# Indices 1 2 3 4 5 6 
#
# 1 -53.4847 186.2934 19.3043 0.0000 0.0000 -22.1027
# 2 186.2934 -53.4847 19.3043 0.0000 0.0000 22.1027
# 3 19.3043 19.3043 103.6762 0.0000 0.0000 0.0000
# 4 0.0000 0.0000 0.0000 26.7021 0.0000 0.0000
# 5 0.0000 0.0000 0.0000 0.0000 26.7021 0.0000
# 6 -22.1027 22.1027 0.0000 0.0000 0.0000 56.3776
#
#
#
# Elastic Compliance Matrix: (Units=1/GPa)
#
#
# Indices 1 2 3 4 5 6 
#
# 1 0.002036 0.005925 -0.001482 0.000000 0.000000 -0.001525
# 2 0.005925 0.002036 -0.001482 0.000000 0.000000 0.001525
# 3 -0.001482 -0.001482 0.010197 0.000000 0.000000 0.000000
# 4 0.000000 0.000000 0.000000 0.037450 0.000000 0.000000
# 5 0.000000 0.000000 0.000000 0.000000 0.037450 0.000000
# 6 -0.001525 0.001525 0.000000 0.000000 0.000000 0.016542
#
#
# Mechanical properties :
#
#
# Convention : Reuss Voigt Hill
#
# Bulk Modulus (GPa) = 49.53069 49.61233 49.57151
# Shear Modulus (GPa) = 46.93971 6.74338 26.84154
#
# Velocity S-wave (km/s) = 4.08157 1.54702 3.08646
# Velocity P-wave (km/s) = 6.30801 4.56057 5.50408
#
# Compressibility (1/GPa) = 0.02018950
#
# Stress axis : x y z
#
# Youngs Moduli (GPa) = 491.26603 491.26603 98.06432
#
# Poissons Ratio (x) = -2.91073 0.14535
# Poissons Ratio (y) = -2.91073 0.14535
# Poissons Ratio (z) = 0.72817 0.72817
#
# Static dielectric constant tensor:
#      x y z
#    x 5.236230 0.000000 0.000000 
#    y 0.000000 5.236230 0.000000 
#    z 0.000000 0.000000 5.026530 
# 
# 
# High freq. dielectric constant tensor:
#      x y z
#    x 2.158230 0.000000 0.000000 
#    y 0.000000 2.158230 0.000000 
#    z 0.000000 0.000000 2.136980 
# 
# From -- ./inp_files/242.got.cif
#   From: 2010.03.12/outbox.cif.g09.slc.cpg/sg81_cif.got.tgz:242.got - 2010.04.08 20:01:38.
