data_PCOD8302729
_publ_section_title
;
Structure prediction by ZEFSAII (Michael W. Deem and Ramdas Pophale) SiO2 
 PCOD8302729
Probable space group: P 4/M
;
_chemical_formula_sum "Si O2"
_cell_formula_units_Z 56
_cell_length_a 15.730583
_cell_length_b 15.730583
_cell_length_c 13.164284
_cell_angle_alpha 90.000000
_cell_angle_beta 90.000000
_cell_angle_gamma 90.000000
_cell_volume 3257.518420
_symmetry_space_group_name_H-M "P 4/M"
_symmetry_group_IT_number 83
_symmetry_cell_setting 'tetragonal'
loop_
_space_group_symop_operation_xyz
x,y,z
-y,x,z
-x,-y,z
y,-x,z
-x,-y,-z
y,-x,-z
x,y,-z
-y,x,-z
loop_
_atom_site_type_symbol
_atom_site_label
_atom_site_fract_x
_atom_site_fract_y
_atom_site_fract_z
Si Si1 0.096044 0.493260 0.771899
Si Si2 0.681365 0.086823 0.118165
Si Si3 0.513052 0.754000 0.617445
Si Si4 0.688385 0.668910 0.382378
Si Si5 0.790944 0.790572 0.245264
Si Si6 0.107328 0.662892 0.115453
Si Si7 0.085401 0.891105 0.616346
O O1 0.115024 0.403965 0.824850
O O2 0.158188 0.508140 0.677904
O O3 0.109512 0.563615 0.858354
O O4 0.000000 0.500000 0.728988
O O5 0.759634 0.137152 0.167403
O O6 0.700102 0.987069 0.132267
O O7 0.673313 0.110872 0.000000
O O8 0.518617 0.780091 0.500000
O O9 0.595084 0.699893 0.651215
O O10 0.431647 0.694604 0.638803
O O11 0.705669 0.689825 0.500000
O O12 0.761313 0.714562 0.317726
O O13 0.710783 0.825025 0.184218
O O14 0.825474 0.867134 0.312566
O O15 0.136249 0.673963 0.000000
O O16 0.104243 0.867200 0.500000
O O17 0.985829 0.882511 0.639375
#
# Coordination Sequence:
#
# PCOD8302729 Si02
#       7
#     8   8   8   8   8   8   8
#     4  10  19  35  55  76 106 143 171 209 264 314
#     4  10  21  35  52  76 105 138 177 218 261 312
#     4  10  20  37  55  80 108 137 174 212 258 313
#     4  10  21  35  55  78 107 136 168 215 259 313
#     4  12  19  32  55  78 105 132 176 219 271 301
#     4  10  21  35  52  76 105 138 177 218 261 312
#     4   9  19  35  52  72 102 141 181 216 256 315
#
# _framework density 17.191001
#
# number of rings (size 3 to 8) (size 9 to 14) (size 15 to 20)
#    0.000    1.857    2.857    2.571    0.000    2.286 
#    0.000    1.429    0.000    0.000    0.000    6.000 
#    0.000    2.286    0.000    0.000    0.000    0.000 
#
# Total GULP energy -694567.612127 kJ/mol
# GULP energy per Si atom -12402.993074 kJ/mol
# Density = 1.715187 g / cm^3
# Si number density = 17.191001 Si / 1000 Ang^3
#
#
#
# Elastic Constant Matrix: (Units=GPa)
#
#
# Indices 1 2 3 4 5 6 
#
# 1 63.0636 19.1908 32.6346 0.0000 0.0000 -0.2441
# 2 19.1908 63.0636 32.6346 0.0000 0.0000 0.2441
# 3 32.6346 32.6346 74.7136 0.0000 0.0000 0.0000
# 4 0.0000 0.0000 0.0000 24.9196 0.0000 0.0000
# 5 0.0000 0.0000 0.0000 0.0000 24.9196 0.0000
# 6 -0.2441 0.2441 0.0000 0.0000 0.0000 30.7510
#
#
#
# Elastic Compliance Matrix: (Units=1/GPa)
#
#
# Indices 1 2 3 4 5 6 
#
# 1 0.020701 -0.002094 -0.008127 0.000000 0.000000 0.000181
# 2 -0.002094 0.020701 -0.008127 0.000000 0.000000 -0.000181
# 3 -0.008127 -0.008127 0.020484 0.000000 0.000000 0.000000
# 4 0.000000 0.000000 0.000000 0.040129 0.000000 0.000000
# 5 0.000000 0.000000 0.000000 0.000000 0.040129 0.000000
# 6 0.000181 -0.000181 0.000000 0.000000 0.000000 0.032522
#
#
# Mechanical properties :
#
#
# Convention : Reuss Voigt Hill
#
# Bulk Modulus (GPa) = 39.70102 41.08455 40.39278
# Shear Modulus (GPa) = 22.75212 23.87676 23.31444
#
# Velocity S-wave (km/s) = 3.64193 3.73085 3.68666
# Velocity P-wave (km/s) = 6.38976 6.51995 6.45518
#
# Compressibility (1/GPa) = 0.02518827
#
# Stress axis : x y z
#
# Youngs Moduli (GPa) = 48.30737 48.30737 48.81788
#
# Poissons Ratio (x) = 0.10117 0.39675
# Poissons Ratio (y) = 0.10117 0.39675
# Poissons Ratio (z) = 0.39260 0.39260
#
# Static dielectric constant tensor:
#      x y z
#    x 3.183940 0.000000 0.000000 
#    y 0.000000 3.183940 0.000000 
#    z 0.000000 0.000000 3.178030 
# 
# 
# High freq. dielectric constant tensor:
#      x y z
#    x 1.665120 0.000000 0.000000 
#    y 0.000000 1.665120 0.000000 
#    z 0.000000 0.000000 1.665110 
# 
# From -- ./inp_files/1925.got.cif
#   From: 2010.03.12/outbox.cif.g09.slc.cpg/sg83_1_cif.got.tgz:1925.got - 2010.04.08 20:05:18.
