data_PCOD8302454
_publ_section_title
;
Structure prediction by ZEFSAII (Michael W. Deem and Ramdas Pophale) SiO2 
 PCOD8302454
Probable space group: I -4 
;
_chemical_formula_sum "Si O2"
_cell_formula_units_Z 56
_cell_length_a 14.022000
_cell_length_b 14.022000
_cell_length_c 11.258852
_cell_angle_alpha 90.000000
_cell_angle_beta 90.000000
_cell_angle_gamma 90.000000
_cell_volume 2213.675894
_symmetry_space_group_name_H-M "I -4 "
_symmetry_group_IT_number 82
_symmetry_cell_setting 'tetragonal'
loop_
_space_group_symop_operation_xyz
x,y,z
y,-x,-z
-x,-y,z
-y,x,-z
1/2+x,1/2+y,1/2+z
1/2+y,1/2-x,1/2-z
1/2-x,1/2-y,1/2+z
1/2-y,1/2+x,1/2-z
loop_
_atom_site_type_symbol
_atom_site_label
_atom_site_fract_x
_atom_site_fract_y
_atom_site_fract_z
Si Si1 0.495554 0.303852 0.636211
Si Si2 0.566731 0.835050 0.069582
Si Si3 0.382267 0.468130 0.711602
Si Si4 0.876914 0.061963 0.442572
Si Si5 0.481281 0.136808 0.802812
Si Si6 0.195774 0.379151 0.783657
Si Si7 0.803521 0.130822 0.071345
O O1 0.477324 0.415623 0.665416
O O2 0.492823 0.245739 0.760056
O O3 0.602134 0.300621 0.576662
O O4 0.400753 0.270512 0.560932
O O5 0.607164 0.727642 0.051413
O O6 0.464657 0.840774 0.133222
O O7 0.642427 0.887169 0.155495
O O8 0.557828 0.878465 0.937301
O O9 0.410088 0.548527 0.807766
O O10 0.308906 0.389083 0.765003
O O11 0.326589 0.523182 0.610262
O O12 0.955175 0.129111 0.501718
O O13 0.585014 0.088750 0.790654
O O14 0.176935 0.279387 0.849805
#
# Coordination Sequence:
#
# PCOD8302454 Si02
#       7
#     8   8   8   8   8   8   8
#     4  12  27  46  77 103 153 195 239 311 370 442
#     4  11  25  46  72 106 140 191 244 303 367 431
#     4  11  25  45  67 111 139 187 247 292 372 428
#     4  10  22  40  69 100 137 179 231 301 361 431
#     4  11  28  48  69 103 145 195 246 298 372 444
#     4  11  25  48  75 109 143 188 254 304 360 444
#     4  12  25  47  72 109 144 193 246 300 369 439
#
# _framework density 25.297288000000002
#
# number of rings (size 3 to 8) (size 9 to 14) (size 15 to 20)
#    0.000    0.857    4.286    2.143   10.000    2.571 
#    5.143    0.000    0.000    0.000    0.000    0.000 
#    0.000    0.000    0.000    0.000    0.000    0.000 
#
# Total GULP energy -347014.748073 kJ/mol
# GULP energy per Si atom -12393.383860 kJ/mol
# Density = 2.523971 g / cm^3
# Si number density = 25.297288 Si / 1000 Ang^3
#
#
#
# Elastic Constant Matrix: (Units=GPa)
#
#
# Indices 1 2 3 4 5 6 
#
# 1 64.6858 1.3298 7.8797 0.0000 0.0000 -3.7508
# 2 1.3298 64.6858 7.8797 0.0000 0.0000 3.7508
# 3 7.8797 7.8797 121.1739 0.0000 0.0000 0.0000
# 4 0.0000 0.0000 0.0000 38.8430 0.0000 0.0000
# 5 0.0000 0.0000 0.0000 0.0000 38.8430 0.0000
# 6 -3.7508 3.7508 0.0000 0.0000 0.0000 28.2515
#
#
#
# Elastic Compliance Matrix: (Units=1/GPa)
#
#
# Indices 1 2 3 4 5 6 
#
# 1 0.015711 -0.000325 -0.001001 0.000000 0.000000 0.002129
# 2 -0.000325 0.015711 -0.001001 0.000000 0.000000 -0.002129
# 3 -0.001001 -0.001001 0.008383 0.000000 0.000000 0.000000
# 4 0.000000 0.000000 0.000000 0.025745 0.000000 0.000000
# 5 0.000000 0.000000 0.000000 0.000000 0.025745 0.000000
# 6 0.002129 -0.002129 0.000000 0.000000 0.000000 0.035962
#
#
# Mechanical properties :
#
#
# Convention : Reuss Voigt Hill
#
# Bulk Modulus (GPa) = 28.44628 31.63602 30.04115
# Shear Modulus (GPa) = 34.81269 36.75126 35.78197
#
# Velocity S-wave (km/s) = 3.71366 3.81566 3.76501
# Velocity P-wave (km/s) = 5.44588 5.65201 5.54990
#
# Compressibility (1/GPa) = 0.03515398
#
# Stress axis : x y z
#
# Youngs Moduli (GPa) = 63.64829 63.64829 119.29285
#
# Poissons Ratio (x) = 0.02066 0.11936
# Poissons Ratio (y) = 0.02066 0.11936
# Poissons Ratio (z) = 0.06368 0.06368
#
# Static dielectric constant tensor:
#      x y z
#    x 4.344640 0.000000 0.000000 
#    y 0.000000 4.344640 0.000000 
#    z 0.000000 0.000000 4.931480 
# 
# 
# High freq. dielectric constant tensor:
#      x y z
#    x 2.003540 0.000000 0.000000 
#    y 0.000000 2.003540 0.000000 
#    z 0.000000 0.000000 2.027170 
# 
# From -- ./inp_files/1846.got.cif
#   From: 2010.03.12/outbox.cif.g09.slc.cpg/sg82_1_cif.got.tgz:1846.got - 2010.04.08 20:02:50.
