data_PCOD8302260
_publ_section_title
;
Structure prediction by ZEFSAII (Michael W. Deem and Ramdas Pophale) SiO2 
 PCOD8302260
Probable space group: P -4
;
_chemical_formula_sum "Si O2"
_cell_formula_units_Z 25
_cell_length_a 11.676968
_cell_length_b 11.676968
_cell_length_c 9.571968
_cell_angle_alpha 90.000000
_cell_angle_beta 90.000000
_cell_angle_gamma 90.000000
_cell_volume 1305.152977
_symmetry_space_group_name_H-M "P -4"
_symmetry_group_IT_number 81
_symmetry_cell_setting 'tetragonal'
loop_
_space_group_symop_operation_xyz
x,y,z
y,-x,-z
-x,-y,z
-y,x,-z
loop_
_atom_site_type_symbol
_atom_site_label
_atom_site_fract_x
_atom_site_fract_y
_atom_site_fract_z
Si Si1 0.874434 0.623133 0.802144
Si Si2 0.358166 0.285950 0.906498
Si Si3 0.123111 0.311622 0.500730
Si Si4 0.635943 0.872731 0.158844
Si Si5 0.870008 0.494446 0.303089
Si Si6 0.500000 0.500000 0.000000
Si Si7 0.871331 0.303924 0.525356
O O1 0.764377 0.701192 0.832562
O O2 0.886466 0.605666 0.635564
O O3 0.858253 0.498731 0.864859
O O4 0.994058 0.674372 0.866425
O O5 0.448704 0.210105 0.819703
O O6 0.418730 0.410849 0.916695
O O7 0.318435 0.220502 0.047846
O O8 0.161819 0.378701 0.359826
O O9 0.210386 0.212623 0.537119
O O10 0.997236 0.256226 0.488684
O O11 0.677930 0.839285 0.312861
O O12 0.854767 0.420648 0.442134
O O13 0.000000 0.500000 0.246546
#
# Coordination Sequence:
#
# PCOD8302260 Si02
#       7
#     4   4   4   4   4   1   4
#     4  10  20  39  62  83 116 160 195 239 295 354
#     4  12  24  40  58  87 127 151 196 249 291 357
#     4  10  20  37  60  86 115 148 199 241 298 347
#     4  10  22  38  61  84 116 160 197 232 301 359
#     4  10  22  37  61  88 112 153 205 244 285 355
#     4  12  28  36  52  94 128 152 184 238 304 356
#     4  10  20  38  59  85 113 152 194 247 290 355
#
# _framework density 19.154843
#
# number of rings (size 3 to 8) (size 9 to 14) (size 15 to 20)
#    0.000    1.600    4.800    0.000    4.480    0.320 
#    2.880    0.000    0.000    1.440    0.000    0.000 
#    0.000    0.000    0.000    0.000    0.000    0.000 
#
# Total GULP energy -309724.253740 kJ/mol
# GULP energy per Si atom -12388.970150 kJ/mol
# Density = 1.911125 g / cm^3
# Si number density = 19.154843 Si / 1000 Ang^3
#
#
#
# Elastic Constant Matrix: (Units=GPa)
#
#
# Indices 1 2 3 4 5 6 
#
# 1 78.2526 37.1449 22.9225 0.0000 0.0000 3.2423
# 2 37.1449 78.2526 22.9225 0.0000 0.0000 -3.2423
# 3 22.9225 22.9225 74.2438 0.0000 0.0000 0.0000
# 4 0.0000 0.0000 0.0000 20.1473 0.0000 0.0000
# 5 0.0000 0.0000 0.0000 0.0000 20.1473 0.0000
# 6 3.2423 -3.2423 0.0000 0.0000 0.0000 25.3644
#
#
#
# Elastic Compliance Matrix: (Units=1/GPa)
#
#
# Indices 1 2 3 4 5 6 
#
# 1 0.017352 -0.007475 -0.003050 0.000000 0.000000 -0.003174
# 2 -0.007475 0.017352 -0.003050 0.000000 0.000000 0.003174
# 3 -0.003050 -0.003050 0.015352 0.000000 0.000000 0.000000
# 4 0.000000 0.000000 0.000000 0.049634 0.000000 0.000000
# 5 0.000000 0.000000 0.000000 0.000000 0.049634 0.000000
# 6 -0.003174 0.003174 0.000000 0.000000 0.000000 0.040237
#
#
# Mechanical properties :
#
#
# Convention : Reuss Voigt Hill
#
# Bulk Modulus (GPa) = 43.65205 44.08099 43.86652
# Shear Modulus (GPa) = 22.28699 22.98240 22.63469
#
# Velocity S-wave (km/s) = 3.41474 3.46760 3.44127
# Velocity P-wave (km/s) = 6.19562 6.25262 6.22419
#
# Compressibility (1/GPa) = 0.02290843
#
# Stress axis : x y z
#
# Youngs Moduli (GPa) = 57.62995 57.62995 65.13712
#
# Poissons Ratio (x) = 0.43078 0.19864
# Poissons Ratio (y) = 0.43078 0.19864
# Poissons Ratio (z) = 0.17575 0.17575
#
# Static dielectric constant tensor:
#      x y z
#    x 3.597710 0.000000 0.000000 
#    y 0.000000 3.597710 0.000000 
#    z 0.000000 0.000000 3.398260 
# 
# 
# High freq. dielectric constant tensor:
#      x y z
#    x 1.740480 0.000000 0.000000 
#    y 0.000000 1.740480 0.000000 
#    z 0.000000 0.000000 1.743510 
# 
# From -- ./inp_files/893.got.cif
#   From: 2010.03.12/outbox.cif.g09.slc.cpg/sg81_cif.got.tgz:893.got - 2010.04.08 20:01:38.
