data_PCOD8302845
_publ_section_title
;
Structure prediction by ZEFSAII (Michael W. Deem and Ramdas Pophale) SiO2 
 PCOD8302845
Probable space group: P 4/M
;
_chemical_formula_sum "Si O2"
_cell_formula_units_Z 48
_cell_length_a 12.059490
_cell_length_b 12.059490
_cell_length_c 16.456731
_cell_angle_alpha 90.000000
_cell_angle_beta 90.000000
_cell_angle_gamma 90.000000
_cell_volume 2393.323768
_symmetry_space_group_name_H-M "P 4/M"
_symmetry_group_IT_number 83
_symmetry_cell_setting 'tetragonal'
loop_
_space_group_symop_operation_xyz
x,y,z
-y,x,z
-x,-y,z
y,-x,z
-x,-y,-z
y,-x,-z
x,y,-z
-y,x,-z
loop_
_atom_site_type_symbol
_atom_site_label
_atom_site_fract_x
_atom_site_fract_y
_atom_site_fract_z
Si Si1 0.669981 0.522686 0.904699
Si Si2 0.820379 0.035947 0.908918
Si Si3 0.418775 0.340618 0.595976
Si Si4 0.503093 0.877946 0.811000
Si Si5 0.701111 0.841099 0.700453
Si Si6 0.919086 0.712197 0.740740
O O1 0.593857 0.622308 0.870234
O O2 0.794963 0.540992 0.878799
O O3 0.663475 0.522557 0.000000
O O4 0.733208 0.051109 0.836065
O O5 0.914475 0.128321 0.899054
O O6 0.766777 0.046722 0.000000
O O7 0.547775 0.352738 0.623482
O O8 0.412446 0.328214 0.500000
O O9 0.362911 0.229811 0.632291
O O10 0.624239 0.839789 0.780912
O O11 0.415308 0.877386 0.735944
O O12 0.500000 0.000000 0.850406
O O13 0.823651 0.793496 0.711541
O O14 0.721679 0.972464 0.681812
#
# Coordination Sequence:
#
# PCOD8302845 Si02
#       6
#     8   8   8   8   8   8
#     4   9  18  34  54  72  94 133 185 234 284 347
#     4   9  17  32  54  78 105 144 205 262 298 345
#     4   9  19  39  68  97 123 154 192 234 283 347
#     4  10  22  35  50  75 109 145 181 233 289 350
#     4  11  22  37  56  85 119 153 193 241 291 353
#     4  11  21  35  57  82 117 154 196 248 305 352
#
# _framework density 20.055792
#
# number of rings (size 3 to 8) (size 9 to 14) (size 15 to 20)
#    0.000    2.167    1.667    3.500    0.000    1.333 
#    0.000    5.833    0.000    6.500    0.000    1.167 
#    0.000    0.000    0.000    0.000    0.000    0.000 
#
# Total GULP energy -594651.014562 kJ/mol
# GULP energy per Si atom -12388.562803 kJ/mol
# Density = 2.001014 g / cm^3
# Si number density = 20.055792 Si / 1000 Ang^3
#
#
#
# Elastic Constant Matrix: (Units=GPa)
#
#
# Indices 1 2 3 4 5 6 
#
# 1 135.3174 57.3571 31.1954 0.0000 0.0000 -16.2139
# 2 57.3571 135.3174 31.1954 0.0000 0.0000 16.2139
# 3 31.1954 31.1954 44.5287 0.0000 0.0000 0.0000
# 4 0.0000 0.0000 0.0000 29.3123 0.0000 0.0000
# 5 0.0000 0.0000 0.0000 0.0000 29.3123 0.0000
# 6 -16.2139 16.2139 0.0000 0.0000 0.0000 25.3252
#
#
#
# Elastic Compliance Matrix: (Units=1/GPa)
#
#
# Indices 1 2 3 4 5 6 
#
# 1 0.012098 -0.005385 -0.004703 0.000000 0.000000 0.011193
# 2 -0.005385 0.012098 -0.004703 0.000000 0.000000 -0.011193
# 3 -0.004703 -0.004703 0.029047 0.000000 0.000000 0.000000
# 4 0.000000 0.000000 0.000000 0.034115 0.000000 0.000000
# 5 0.000000 0.000000 0.000000 0.000000 0.034115 0.000000
# 6 0.011193 -0.011193 0.000000 0.000000 0.000000 0.053818
#
#
# Mechanical properties :
#
#
# Convention : Reuss Voigt Hill
#
# Bulk Modulus (GPa) = 42.26335 61.62883 51.94609
# Shear Modulus (GPa) = 23.50064 29.81765 26.65915
#
# Velocity S-wave (km/s) = 3.42682 3.86000 3.64984
# Velocity P-wave (km/s) = 6.06433 7.11769 6.61202
#
# Compressibility (1/GPa) = 0.02366116
#
# Stress axis : x y z
#
# Youngs Moduli (GPa) = 82.65928 82.65928 34.42720
#
# Poissons Ratio (x) = 0.44511 0.16191
# Poissons Ratio (y) = 0.44511 0.16191
# Poissons Ratio (z) = 0.38874 0.38874
#
# Static dielectric constant tensor:
#      x y z
#    x 3.956560 0.000000 0.000000 
#    y 0.000000 3.956560 0.000000 
#    z 0.000000 0.000000 3.167830 
# 
# 
# High freq. dielectric constant tensor:
#      x y z
#    x 1.796450 0.000000 0.000000 
#    y 0.000000 1.796450 0.000000 
#    z 0.000000 0.000000 1.729730 
# 
# From -- ./inp_files/2618.got.cif
#   From: 2010.03.12/outbox.cif.g09.slc.cpg/sg83_2_cif.got.tgz:2618.got - 2010.04.08 20:05:18.
