data_PCOD8302239
_publ_section_title
;
Structure prediction by ZEFSAII (Michael W. Deem and Ramdas Pophale) SiO2 
 PCOD8302239
Probable space group: P -4
;
_chemical_formula_sum "Si O2"
_cell_formula_units_Z 23
_cell_length_a 14.077254
_cell_length_b 14.077254
_cell_length_c 6.953192
_cell_angle_alpha 90.000000
_cell_angle_beta 90.000000
_cell_angle_gamma 90.000000
_cell_volume 1377.907663
_symmetry_space_group_name_H-M "P -4"
_symmetry_group_IT_number 81
_symmetry_cell_setting 'tetragonal'
loop_
_space_group_symop_operation_xyz
x,y,z
y,-x,-z
-x,-y,z
-y,x,-z
loop_
_atom_site_type_symbol
_atom_site_label
_atom_site_fract_x
_atom_site_fract_y
_atom_site_fract_z
Si Si1 0.000000 0.500000 0.528083
Si Si2 0.299307 0.500000 0.320733
Si Si3 0.499999 0.196492 0.279347
Si Si4 0.000000 0.393701 0.160324
Si Si5 0.500000 0.500000 0.500000
Si Si6 0.647922 0.205330 0.958494
Si Si7 0.352077 0.205331 0.958492
O O1 0.912699 0.499998 0.668524
O O2 0.999999 0.594218 0.392322
O O3 0.260547 0.500000 0.534669
O O4 0.412670 0.499999 0.348272
O O5 0.261821 0.593493 0.211029
O O6 0.261820 0.406507 0.211029
O O7 0.592587 0.219332 0.156317
O O8 0.407412 0.219332 0.156317
O O9 0.000000 0.500000 0.066594
O O10 0.905448 0.338547 0.095150
O O11 0.094551 0.338546 0.095147
O O12 0.751549 0.248451 0.000001
#
# Coordination Sequence:
#
# PCOD8302239 Si02
#       7
#     2   4   4   4   1   4   4
#     4  10  16  34  64  82 102 144 190 242 274 304
#     4  11  21  38  47  79 112 156 187 222 252 338
#     4  11  18  34  60  76 111 149 185 227 281 313
#     4  10  17  40  57  78 112 136 192 241 265 320
#     4  12  24  32  50  68 124 158 180 220 286 304
#     4  11  22  35  57  83 110 147 190 230 277 329
#     4  11  22  35  57  83 110 147 190 230 277 329
#
# _framework density 16.691976
#
# number of rings (size 3 to 8) (size 9 to 14) (size 15 to 20)
#    0.522    0.696    6.957    3.130    0.000    1.391 
#    0.000    3.478    0.000    0.522    0.000    0.000 
#    0.000    0.000    0.000    0.000    0.000    0.000 
#
# Total GULP energy -285116.800375 kJ/mol
# GULP energy per Si atom -12396.382625 kJ/mol
# Density = 1.665398 g / cm^3
# Si number density = 16.691976 Si / 1000 Ang^3
#
#
#
# Elastic Constant Matrix: (Units=GPa)
#
#
# Indices 1 2 3 4 5 6 
#
# 1 124.8163 52.4311 40.8040 0.0000 0.0000 0.0000
# 2 52.4311 124.8163 40.8040 0.0000 0.0000 0.0000
# 3 40.8040 40.8040 117.7417 0.0000 0.0000 0.0000
# 4 0.0000 0.0000 0.0000 21.7858 0.0000 0.0000
# 5 0.0000 0.0000 0.0000 0.0000 21.7858 0.0000
# 6 0.0000 0.0000 0.0000 0.0000 0.0000 20.6137
#
#
#
# Elastic Compliance Matrix: (Units=1/GPa)
#
#
# Indices 1 2 3 4 5 6 
#
# 1 0.010264 -0.003551 -0.002326 0.000000 0.000000 0.000000
# 2 -0.003551 0.010264 -0.002326 0.000000 0.000000 0.000000
# 3 -0.002326 -0.002326 0.010106 0.000000 0.000000 0.000000
# 4 0.000000 0.000000 0.000000 0.045901 0.000000 0.000000
# 5 0.000000 0.000000 0.000000 0.000000 0.045901 0.000000
# 6 0.000000 0.000000 0.000000 0.000000 0.000000 0.048511
#
#
# Mechanical properties :
#
#
# Convention : Reuss Voigt Hill
#
# Bulk Modulus (GPa) = 70.29430 70.60580 70.45005
# Shear Modulus (GPa) = 26.02847 28.39276 27.21061
#
# Velocity S-wave (km/s) = 3.95313 4.12877 4.04191
# Velocity P-wave (km/s) = 7.93980 8.06970 8.00501
#
# Compressibility (1/GPa) = 0.01422590
#
# Stress axis : x y z
#
# Youngs Moduli (GPa) = 97.42818 97.42818 98.95479
#
# Poissons Ratio (x) = 0.34597 0.23021
# Poissons Ratio (y) = 0.34597 0.23021
# Poissons Ratio (z) = 0.22666 0.22666
#
# Static dielectric constant tensor:
#      x y z
#    x 3.383920 0.000000 0.000000 
#    y 0.000000 3.383920 0.000000 
#    z 0.000000 0.000000 3.254610 
# 
# 
# High freq. dielectric constant tensor:
#      x y z
#    x 1.622810 0.000000 0.000000 
#    y 0.000000 1.622810 0.000000 
#    z 0.000000 0.000000 1.663130 
# 
# From -- ./inp_files/291.got.cif
#   From: 2010.03.12/outbox.cif.g09.slc.cpg/sg81_cif.got.tgz:291.got - 2010.04.08 20:01:38.
