data_PCOD8302948
_publ_section_title
;
Structure prediction by ZEFSAII (Michael W. Deem and Ramdas Pophale) SiO2 
 PCOD8302948
Probable space group: P 4/M
;
_chemical_formula_sum "Si O2"
_cell_formula_units_Z 48
_cell_length_a 8.712857
_cell_length_b 8.712857
_cell_length_c 31.066326
_cell_angle_alpha 90.000000
_cell_angle_beta 90.000000
_cell_angle_gamma 90.000000
_cell_volume 2358.365254
_symmetry_space_group_name_H-M "P 4/M"
_symmetry_group_IT_number 83
_symmetry_cell_setting 'tetragonal'
loop_
_space_group_symop_operation_xyz
x,y,z
-y,x,z
-x,-y,z
y,-x,z
-x,-y,-z
y,-x,-z
x,y,-z
-y,x,-z
loop_
_atom_site_type_symbol
_atom_site_label
_atom_site_fract_x
_atom_site_fract_y
_atom_site_fract_z
Si Si1 0.094481 0.232283 0.707435
Si Si2 0.409176 0.736854 0.545372
Si Si3 0.410043 0.737933 0.638275
Si Si4 0.600732 0.267159 0.877727
Si Si5 0.102032 0.229830 0.805241
Si Si6 0.774375 0.109785 0.950748
O O1 0.142455 0.368088 0.675454
O O2 0.122267 0.287185 0.756300
O O3 0.917614 0.196216 0.698691
O O4 0.306611 0.586215 0.545024
O O5 0.373876 0.829342 0.500000
O O6 0.377667 0.819981 0.591309
O O7 0.305663 0.587157 0.643105
O O8 0.699713 0.421544 0.876882
O O9 0.637623 0.163505 0.836241
O O10 0.639226 0.173333 0.920914
O O11 0.923942 0.198266 0.814441
O O12 0.930819 0.200836 0.940852
O O13 0.723783 0.134107 0.000000
#
# Coordination Sequence:
#
# PCOD8302948 Si02
#       6
#     8   8   8   8   8   8
#     4   9  19  35  52  70  94 126 163 201 242 290
#     4   7  10  19  37  61  89 120 153 190 233 280
#     4   9  17  28  45  72 100 123 153 197 245 290
#     4  11  24  37  50  76 112 141 164 198 247 297
#     4   9  19  37  58  75  92 122 168 213 246 285
#     4   9  19  37  60  83 105 133 173 215 248 283
#
# _framework density 20.353079000000001
#
# number of rings (size 3 to 8) (size 9 to 14) (size 15 to 20)
#    0.000    3.000    0.000    4.000    0.000    6.667 
#    0.000    7.500    0.000    1.000    0.000    5.833 
#    0.000    0.000    0.000    0.000    0.000    0.000 
#
# Total GULP energy -594811.714182 kJ/mol
# GULP energy per Si atom -12391.910712 kJ/mol
# Density = 2.030675 g / cm^3
# Si number density = 20.353079 Si / 1000 Ang^3
#
#
#
# Elastic Constant Matrix: (Units=GPa)
#
#
# Indices 1 2 3 4 5 6 
#
# 1 12.9427 -6.6329 10.2687 0.0000 0.0000 -2.1459
# 2 -6.6329 12.9427 10.2687 0.0000 0.0000 2.1459
# 3 10.2687 10.2687 122.1542 0.0000 0.0000 0.0000
# 4 0.0000 0.0000 0.0000 -2.1400 0.0000 0.0000
# 5 0.0000 0.0000 0.0000 0.0000 -2.1400 0.0000
# 6 -2.1459 2.1459 0.0000 0.0000 0.0000 29.2294
#
#
#
# Elastic Compliance Matrix: (Units=1/GPa)
#
#
# Indices 1 2 3 4 5 6 
#
# 1 0.135050 0.083130 -0.018341 0.000000 0.000000 0.003812
# 2 0.083130 0.135050 -0.018341 0.000000 0.000000 -0.003812
# 3 -0.018341 -0.018341 0.011270 0.000000 0.000000 0.000000
# 4 0.000000 0.000000 0.000000 -0.467296 0.000000 0.000000
# 5 0.000000 0.000000 0.000000 0.000000 -0.467296 0.000000
# 6 0.003812 -0.003812 0.000000 0.000000 0.000000 0.034772
#
#
# Mechanical properties :
#
#
# Convention : Reuss Voigt Hill
#
# Bulk Modulus (GPa) = 2.67190 19.53875 11.10533
# Shear Modulus (GPa) = -8.52383 13.93222 2.70420
#
# Velocity S-wave (km/s) = -2.04868 2.61918 1.15392
# Velocity P-wave (km/s) = 2.06893 4.33216 2.69138
#
# Compressibility (1/GPa) = 0.37426564
#
# Stress axis : x y z
#
# Youngs Moduli (GPa) = 7.40467 7.40467 88.73108
#
# Poissons Ratio (x) = -0.61555 1.62742
# Poissons Ratio (y) = -0.61555 1.62742
# Poissons Ratio (z) = 0.13581 0.13581
#
# Static dielectric constant tensor:
#      x y z
#    x 3.328770 0.000000 0.000000 
#    y 0.000000 3.328770 0.000000 
#    z 0.000000 0.000000 4.063120 
# 
# 
# High freq. dielectric constant tensor:
#      x y z
#    x 1.766680 0.000000 0.000000 
#    y 0.000000 1.766680 0.000000 
#    z 0.000000 0.000000 1.817920 
# 
# From -- ./inp_files/3415.got.cif
#   From: 2010.03.12/outbox.cif.g09.slc.cpg/sg83_2_cif.got.tgz:3415.got - 2010.04.08 20:05:18.
