data_PCOD8302086
_publ_section_title
;
Structure prediction by ZEFSAII (Michael W. Deem and Ramdas Pophale) SiO2 
 PCOD8302086
Probable space group: I 4
;
_chemical_formula_sum "Si O2"
_cell_formula_units_Z 60
_cell_length_a 14.160337
_cell_length_b 14.160337
_cell_length_c 14.676983
_cell_angle_alpha 90.000000
_cell_angle_beta 90.000000
_cell_angle_gamma 90.000000
_cell_volume 2942.957359
_symmetry_space_group_name_H-M "I 4"
_symmetry_group_IT_number 79
_symmetry_cell_setting 'tetragonal'
loop_
_space_group_symop_operation_xyz
x,y,z
-y,x,z
-x,-y,z
y,-x,z
1/2+x,1/2+y,1/2+z
1/2-y,1/2+x,1/2+z
1/2-x,1/2-y,1/2+z
1/2+y,1/2-x,1/2+z
loop_
_atom_site_type_symbol
_atom_site_label
_atom_site_fract_x
_atom_site_fract_y
_atom_site_fract_z
Si Si1 0.568407 0.234781 0.638780
Si Si2 0.345184 0.131584 0.953264
Si Si3 0.640063 0.850998 0.312427
Si Si4 0.744300 0.675465 0.984742
Si Si5 0.354889 0.263619 0.641226
Si Si6 0.858706 0.942167 0.623901
Si Si7 0.278304 0.339341 0.283260
Si Si8 0.000000 0.500000 0.385442
O O1 0.572538 0.187797 0.540108
O O2 0.613447 0.165856 0.712713
O O3 0.462394 0.252587 0.667223
O O4 0.624971 0.333000 0.638517
O O5 0.272724 0.113782 0.869885
O O6 0.451700 0.089974 0.937086
O O7 0.338930 0.245232 0.971597
O O8 0.719532 0.869198 0.390110
O O9 0.637192 0.735254 0.309652
O O10 0.543179 0.908502 0.332652
O O11 0.830550 0.721605 0.041688
O O12 0.710044 0.586995 0.042963
O O13 0.297460 0.215868 0.722364
O O14 0.818066 0.925894 0.724821
O O15 0.949258 0.877153 0.612042
#
# Coordination Sequence:
#
# PCOD8302086 Si02
#       8
#     8   8   8   8   8   8   8   4
#     4  10  20  38  56  82 116 162 204 242 294 364
#     4  10  22  38  59  88 125 161 196 244 312 364
#     4  10  22  38  59  88 125 161 196 244 312 364
#     4   9  20  41  61  81 123 168 185 238 324 370
#     4   9  18  36  60  80 112 153 196 242 300 363
#     4  10  22  39  64  93 112 148 214 256 282 354
#     4   9  20  41  61  81 123 168 185 238 324 370
#     4  12  24  34  60 104 116 146 216 270 284 356
#
# _framework density 20.387656
#
# number of rings (size 3 to 8) (size 9 to 14) (size 15 to 20)
#    0.000    2.267    0.000    2.400    3.733    0.800 
#    0.000    0.000    0.000    0.000    0.000    0.000 
#    0.000    0.000    0.000    0.000    0.000    0.000 
#
# Total GULP energy -371650.328582 kJ/mol
# GULP energy per Si atom -12388.344286 kJ/mol
# Density = 2.034125 g / cm^3
# Si number density = 20.387656 Si / 1000 Ang^3
#
#
#
# Elastic Constant Matrix: (Units=GPa)
#
#
# Indices 1 2 3 4 5 6 
#
# 1 87.9939 -16.9011 10.2981 0.0000 0.0000 -11.1520
# 2 -16.9011 87.9939 10.2982 0.0000 0.0000 11.1520
# 3 10.2981 10.2982 106.5494 0.0000 0.0000 0.0000
# 4 0.0000 0.0000 0.0000 12.2440 0.0000 0.0000
# 5 0.0000 0.0000 0.0000 0.0000 12.2440 0.0000
# 6 -11.1520 11.1520 0.0000 0.0000 0.0000 33.7200
#
#
#
# Elastic Compliance Matrix: (Units=1/GPa)
#
#
# Indices 1 2 3 4 5 6 
#
# 1 0.012363 0.002108 -0.001399 0.000000 0.000000 0.003391
# 2 0.002108 0.012363 -0.001399 0.000000 0.000000 -0.003391
# 3 -0.001399 -0.001399 0.009656 0.000000 0.000000 0.000000
# 4 0.000000 0.000000 0.000000 0.081673 0.000000 0.000000
# 5 0.000000 0.000000 0.000000 0.000000 0.081673 0.000000
# 6 0.003391 -0.003391 0.000000 0.000000 0.000000 0.031899
#
#
# Mechanical properties :
#
#
# Convention : Reuss Voigt Hill
#
# Bulk Modulus (GPa) = 30.29968 32.21417 31.25693
# Shear Modulus (GPa) = 20.66069 30.23106 25.44587
#
# Velocity S-wave (km/s) = 3.18684 3.85491 3.53668
# Velocity P-wave (km/s) = 5.33247 5.97067 5.66057
#
# Compressibility (1/GPa) = 0.03300365
#
# Stress axis : x y z
#
# Youngs Moduli (GPa) = 80.88720 80.88721 103.56587
#
# Poissons Ratio (x) = -0.17055 0.14486
# Poissons Ratio (y) = -0.17055 0.14486
# Poissons Ratio (z) = 0.11313 0.11313
#
# Static dielectric constant tensor:
#      x y z
#    x 3.609920 0.000000 0.000000 
#    y 0.000000 3.609920 0.000000 
#    z 0.000000 0.000000 3.834320 
# 
# 
# High freq. dielectric constant tensor:
#      x y z
#    x 1.785140 0.000000 0.000000 
#    y 0.000000 1.785140 0.000000 
#    z 0.000000 0.000000 1.809470 
# 
# From -- ./inp_files/1448.got.cif
#   From: 2010.03.12/outbox.cif.g09.slc.cpg/sg79_cif.got.tgz:1448.got - 2010.04.16 16:38:49.
