data_PCOD8302383
_publ_section_title
;
Structure prediction by ZEFSAII (Michael W. Deem and Ramdas Pophale) SiO2 
 PCOD8302383
Probable space group: I -4 
;
_chemical_formula_sum "Si O2"
_cell_formula_units_Z 40
_cell_length_a 21.091709
_cell_length_b 21.091709
_cell_length_c 5.131246
_cell_angle_alpha 90.000000
_cell_angle_beta 90.000000
_cell_angle_gamma 90.000000
_cell_volume 2282.687063
_symmetry_space_group_name_H-M "I -4 "
_symmetry_group_IT_number 82
_symmetry_cell_setting 'tetragonal'
loop_
_space_group_symop_operation_xyz
x,y,z
y,-x,-z
-x,-y,z
-y,x,-z
1/2+x,1/2+y,1/2+z
1/2+y,1/2-x,1/2-z
1/2-x,1/2-y,1/2+z
1/2-y,1/2+x,1/2-z
loop_
_atom_site_type_symbol
_atom_site_label
_atom_site_fract_x
_atom_site_fract_y
_atom_site_fract_z
Si Si1 0.998937 0.101534 0.049983
Si Si2 0.672395 0.774191 0.598293
Si Si3 0.251712 0.606668 0.912183
Si Si4 0.339222 0.705909 0.094018
Si Si5 0.016209 0.818692 0.569387
O O1 0.012997 0.154092 0.835544
O O2 0.940946 0.061558 0.929323
O O3 0.983752 0.131254 0.331799
O O4 0.620512 0.778295 0.368684
O O5 0.701784 0.702300 0.636295
O O6 0.729454 0.822462 0.554718
O O7 0.636060 0.794125 0.864058
O O8 0.260876 0.532403 0.982159
O O9 0.319615 0.644029 0.924299
O O10 0.414190 0.706692 0.137087
#
# Coordination Sequence:
#
# PCOD8302383 Si02
#       5
#     8   8   8   8   8
#     4  11  23  37  47  68 106 152 186 215 251 302
#     4  10  20  36  55  74 102 140 177 215 277 319
#     4  10  20  35  50  78 106 133 173 231 263 304
#     4  10  21  35  58  75 102 142 179 215 272 324
#     4  12  24  32  56  77 105 136 188 227 268 304
#
# _framework density 17.523206999999999
#
# number of rings (size 3 to 8) (size 9 to 14) (size 15 to 20)
#    1.200    0.200    2.000    4.800    5.600    1.600 
#    0.000    0.000    0.000    0.000    0.000    0.000 
#    0.000    4.800    0.000    0.000    0.000    0.000 
#
# Total GULP energy -247795.690204 kJ/mol
# GULP energy per Si atom -12389.784510 kJ/mol
# Density = 1.748332 g / cm^3
# Si number density = 17.523207 Si / 1000 Ang^3
#
#
#
# Elastic Constant Matrix: (Units=GPa)
#
#
# Indices 1 2 3 4 5 6 
#
# 1 53.7104 9.7854 12.2283 0.0000 0.0000 3.3511
# 2 9.7854 53.7104 12.2283 0.0000 0.0000 -3.3511
# 3 12.2283 12.2283 97.7654 0.0000 0.0000 0.0000
# 4 0.0000 0.0000 0.0000 19.6251 0.0000 0.0000
# 5 0.0000 0.0000 0.0000 0.0000 19.6251 0.0000
# 6 3.3511 -3.3511 0.0000 0.0000 0.0000 15.0366
#
#
#
# Elastic Compliance Matrix: (Units=1/GPa)
#
#
# Indices 1 2 3 4 5 6 
#
# 1 0.020057 -0.003511 -0.002070 0.000000 0.000000 -0.005252
# 2 -0.003511 0.020057 -0.002070 0.000000 0.000000 0.005252
# 3 -0.002070 -0.002070 0.010746 0.000000 0.000000 0.000000
# 4 0.000000 0.000000 0.000000 0.050955 0.000000 0.000000
# 5 0.000000 0.000000 0.000000 0.000000 0.050955 0.000000
# 6 -0.005252 0.005252 0.000000 0.000000 0.000000 0.068845
#
#
# Mechanical properties :
#
#
# Convention : Reuss Voigt Hill
#
# Bulk Modulus (GPa) = 28.12114 30.40780 29.26447
# Shear Modulus (GPa) = 20.09898 22.25363 21.17630
#
# Velocity S-wave (km/s) = 3.39040 3.56750 3.48008
# Velocity P-wave (km/s) = 5.60439 5.86174 5.73451
#
# Compressibility (1/GPa) = 0.03556044
#
# Stress axis : x y z
#
# Youngs Moduli (GPa) = 49.85829 49.85829 93.05544
#
# Poissons Ratio (x) = 0.17503 0.19258
# Poissons Ratio (y) = 0.17503 0.19258
# Poissons Ratio (z) = 0.10319 0.10319
#
# Static dielectric constant tensor:
#      x y z
#    x 2.946920 0.000000 0.000000 
#    y 0.000000 2.946920 0.000000 
#    z 0.000000 0.000000 3.310330 
# 
# 
# High freq. dielectric constant tensor:
#      x y z
#    x 1.642810 0.000000 0.000000 
#    y 0.000000 1.642810 0.000000 
#    z 0.000000 0.000000 1.694430 
# 
# From -- ./inp_files/294.got.cif
#   From: 2010.03.12/outbox.cif.g09.slc.cpg/sg82_1_cif.got.tgz:294.got - 2010.04.08 20:02:50.
