data_PCOD8302168
_publ_section_title
;
Structure prediction by ZEFSAII (Michael W. Deem and Ramdas Pophale) SiO2 
 PCOD8302168
Probable space group: I 41
;
_chemical_formula_sum "Si O2"
_cell_formula_units_Z 64
_cell_length_a 24.517857
_cell_length_b 24.517857
_cell_length_c 5.129788
_cell_angle_alpha 90.000000
_cell_angle_beta 90.000000
_cell_angle_gamma 90.000000
_cell_volume 3083.645411
_symmetry_space_group_name_H-M "I 41"
_symmetry_group_IT_number 80
_symmetry_cell_setting 'tetragonal'
loop_
_space_group_symop_operation_xyz
x,y,z
-y,1/2+x,1/4+z
-x,-y,z
y,1/2-x,1/4+z
1/2+x,1/2+y,1/2+z
1/2-y,x,3/4+z
1/2-x,1/2-y,1/2+z
1/2+y,-x,3/4+z
loop_
_atom_site_type_symbol
_atom_site_label
_atom_site_fract_x
_atom_site_fract_y
_atom_site_fract_z
Si Si1 0.914047 0.823522 0.660400
Si Si2 0.299809 0.901727 0.068245
Si Si3 0.071779 0.347336 0.922474
Si Si4 0.816426 0.791673 0.989390
Si Si5 0.395149 0.214651 0.943718
Si Si6 0.967280 0.205294 0.823943
Si Si7 0.166405 0.955057 0.601188
Si Si8 0.827347 0.110133 0.103213
O O1 0.895888 0.885886 0.598980
O O2 0.903868 0.780744 0.418031
O O3 0.976195 0.823663 0.751866
O O4 0.877253 0.802162 0.897109
O O5 0.314746 0.923316 0.356767
O O6 0.237266 0.883634 0.078879
O O7 0.332546 0.849436 0.961981
O O8 0.313931 0.949478 0.861290
O O9 0.071944 0.302127 0.697040
O O10 0.009316 0.368871 0.921550
O O11 0.083378 0.317885 0.194507
O O12 0.811567 0.727554 0.026569
O O13 0.800490 0.830736 0.235531
O O14 0.971693 0.270201 0.844615
O O15 0.151855 0.934204 0.313605
O O16 0.151869 0.909110 0.818331
#
# Coordination Sequence:
#
# PCOD8302168 Si02
#       8
#     8   8   8   8   8   8   8   8
#     4  11  22  36  57  82 116 162 209 276 299 361
#     4  10  22  41  65 100 120 161 182 236 287 375
#     4  11  23  36  57  85 116 156 215 254 316 346
#     4  11  22  35  50  76 116 163 207 261 339 395
#     4  11  22  36  54  77 114 158 205 264 318 372
#     4  10  22  36  62  86 124 157 210 240 301 343
#     4  10  20  38  61  88 119 166 198 249 283 369
#     4  10  21  40  68  94 129 150 193 223 299 358
#
# _framework density 20.754657999999999
#
# number of rings (size 3 to 8) (size 9 to 14) (size 15 to 20)
#    0.000    1.500    1.250    4.500    3.500    3.000 
#    0.000    3.750    0.000    4.500    0.000    0.000 
#    0.000    0.000    0.000    0.000    0.000    0.000 
#
# Total GULP energy -396493.240560 kJ/mol
# GULP energy per Si atom -12390.413767 kJ/mol
# Density = 2.070742 g / cm^3
# Si number density = 20.754658 Si / 1000 Ang^3
#
#
#
# Elastic Constant Matrix: (Units=GPa)
#
#
# Indices 1 2 3 4 5 6 
#
# 1 82.8297 42.4451 21.5208 0.0000 0.0000 1.2301
# 2 42.4451 82.8297 21.5208 0.0000 0.0000 -1.2301
# 3 21.5208 21.5208 96.7186 0.0000 0.0000 0.0000
# 4 0.0000 0.0000 0.0000 8.2504 0.0000 0.0000
# 5 0.0000 0.0000 0.0000 0.0000 8.2504 0.0000
# 6 1.2301 -1.2301 0.0000 0.0000 0.0000 21.2419
#
#
#
# Elastic Compliance Matrix: (Units=1/GPa)
#
#
# Indices 1 2 3 4 5 6 
#
# 1 0.016746 -0.008103 -0.001923 0.000000 0.000000 -0.001439
# 2 -0.008103 0.016746 -0.001923 0.000000 0.000000 0.001439
# 3 -0.001923 -0.001923 0.011195 0.000000 0.000000 0.000000
# 4 0.000000 0.000000 0.000000 0.121206 0.000000 0.000000
# 5 0.000000 0.000000 0.000000 0.000000 0.121206 0.000000
# 6 -0.001439 0.001439 0.000000 0.000000 0.000000 0.047243
#
#
# Mechanical properties :
#
#
# Convention : Reuss Voigt Hill
#
# Bulk Modulus (GPa) = 48.10286 48.15015 48.12650
# Shear Modulus (GPa) = 13.69220 19.34132 16.51676
#
# Velocity S-wave (km/s) = 2.57128 3.05602 2.82407
# Velocity P-wave (km/s) = 5.66061 5.97515 5.82001
#
# Compressibility (1/GPa) = 0.02078878
#
# Stress axis : x y z
#
# Youngs Moduli (GPa) = 59.71431 59.71431 89.32459
#
# Poissons Ratio (x) = 0.48388 0.17179
# Poissons Ratio (y) = 0.48388 0.17179
# Poissons Ratio (z) = 0.11484 0.11484
#
# Static dielectric constant tensor:
#      x y z
#    x 3.722560 0.000000 0.000000 
#    y 0.000000 3.722560 0.000000 
#    z 0.000000 0.000000 3.927140 
# 
# 
# High freq. dielectric constant tensor:
#      x y z
#    x 1.789010 0.000000 0.000000 
#    y 0.000000 1.789010 0.000000 
#    z 0.000000 0.000000 1.828580 
# 
# From -- ./inp_files/425.got.cif
#   From: 2010.03.12/outbox.cif.g09.slc.cpg/sg80_cif.got.tgz:425.got - 2010.04.08 20:00:04.
