data_PCOD8302316
_publ_section_title
;
Structure prediction by ZEFSAII (Michael W. Deem and Ramdas Pophale) SiO2 
 PCOD8302316
Probable space group: P -4
;
_chemical_formula_sum "Si O2"
_cell_formula_units_Z 20
_cell_length_a 8.525561
_cell_length_b 8.525561
_cell_length_c 12.727843
_cell_angle_alpha 90.000000
_cell_angle_beta 90.000000
_cell_angle_gamma 90.000000
_cell_volume 925.125691
_symmetry_space_group_name_H-M "P -4"
_symmetry_group_IT_number 81
_symmetry_cell_setting 'tetragonal'
loop_
_space_group_symop_operation_xyz
x,y,z
y,-x,-z
-x,-y,z
-y,x,-z
loop_
_atom_site_type_symbol
_atom_site_label
_atom_site_fract_x
_atom_site_fract_y
_atom_site_fract_z
Si Si1 0.266511 0.389876 0.691804
Si Si2 0.120683 0.226630 0.119677
Si Si3 0.389877 0.733490 0.691807
Si Si4 0.107067 0.236142 0.499998
Si Si5 0.773372 0.120682 0.119679
O O1 0.294119 0.573432 0.679055
O O2 0.426566 0.294114 0.679053
O O3 0.146055 0.335845 0.603000
O O4 0.190867 0.359965 0.805729
O O5 0.190871 0.359969 0.194266
O O6 0.936799 0.207618 0.142567
O O7 0.207617 0.063202 0.142567
O O8 0.148438 0.280419 0.999999
O O9 0.335835 0.853949 0.603008
O O10 0.923218 0.205113 0.499999
#
# Coordination Sequence:
#
# PCOD8302316 Si02
#       5
#     4   4   4   4   4
#     4  11  24  39  56  83 118 151 185 228 278 333
#     4   9  19  37  60  85 113 147 190 236 278 326
#     4  11  24  39  56  83 118 151 185 228 278 333
#     4  11  24  41  62  86 110 141 186 235 280 332
#     4   9  19  37  60  85 113 147 190 236 278 326
#
# _framework density 21.618686
#
# number of rings (size 3 to 8) (size 9 to 14) (size 15 to 20)
#    0.000    1.800    0.000    4.800    0.000   14.400 
#    0.000    6.000    0.000    0.000    0.000    0.000 
#    0.000    0.000    0.000    0.000    0.000    0.000 
#
# Total GULP energy -248121.038730 kJ/mol
# GULP energy per Si atom -12406.051936 kJ/mol
# Density = 2.156948 g / cm^3
# Si number density = 21.618686 Si / 1000 Ang^3
#
#
#
# Elastic Constant Matrix: (Units=GPa)
#
#
# Indices 1 2 3 4 5 6 
#
# 1 13.1835 -8.0262 9.2098 0.0000 0.0000 0.0254
# 2 -8.0262 13.1835 9.2098 0.0000 0.0000 -0.0254
# 3 9.2098 9.2098 115.0478 0.0000 0.0000 0.0000
# 4 0.0000 0.0000 0.0000 12.4325 0.0000 0.0000
# 5 0.0000 0.0000 0.0000 0.0000 12.4325 0.0000
# 6 0.0254 -0.0254 0.0000 0.0000 0.0000 34.9592
#
#
#
# Elastic Compliance Matrix: (Units=1/GPa)
#
#
# Indices 1 2 3 4 5 6 
#
# 1 0.159338 0.112189 -0.021736 0.000000 0.000000 -0.000034
# 2 0.112189 0.159338 -0.021736 0.000000 0.000000 0.000034
# 3 -0.021736 -0.021736 0.012172 0.000000 0.000000 0.000000
# 4 0.000000 0.000000 0.000000 0.080434 0.000000 0.000000
# 5 0.000000 0.000000 0.000000 0.000000 0.080434 0.000000
# 6 -0.000034 0.000034 0.000000 0.000000 0.000000 0.028605
#
#
# Mechanical properties :
#
#
# Convention : Reuss Voigt Hill
#
# Bulk Modulus (GPa) = 2.13547 18.02239 10.07893
# Shear Modulus (GPa) = 9.27676 20.69959 14.98818
#
# Velocity S-wave (km/s) = 2.07374 3.09768 2.63591
# Velocity P-wave (km/s) = 2.59303 4.59878 3.73313
#
# Compressibility (1/GPa) = 0.46828186
#
# Stress axis : x y z
#
# Youngs Moduli (GPa) = 6.27597 6.27597 82.15525
#
# Poissons Ratio (x) = -0.70410 1.78574
# Poissons Ratio (y) = -0.70410 1.78574
# Poissons Ratio (z) = 0.13642 0.13642
#
# Static dielectric constant tensor:
#      x y z
#    x 3.808270 0.000000 0.000000 
#    y 0.000000 3.808270 0.000000 
#    z 0.000000 0.000000 3.906520 
# 
# 
# High freq. dielectric constant tensor:
#      x y z
#    x 1.848630 0.000000 0.000000 
#    y 0.000000 1.848630 0.000000 
#    z 0.000000 0.000000 1.859920 
# 
# From -- ./inp_files/1239.got.cif
#   From: 2010.03.12/outbox.cif.g09.slc.cpg/sg81_cif.got.tgz:1239.got - 2010.04.08 20:01:38.
