data_PCOD8302329
_publ_section_title
;
Structure prediction by ZEFSAII (Michael W. Deem and Ramdas Pophale) SiO2 
 PCOD8302329
Probable space group: P -4
;
_chemical_formula_sum "Si O2"
_cell_formula_units_Z 17
_cell_length_a 9.276207
_cell_length_b 9.276207
_cell_length_c 8.033030
_cell_angle_alpha 90.000000
_cell_angle_beta 90.000000
_cell_angle_gamma 90.000000
_cell_volume 691.226296
_symmetry_space_group_name_H-M "P -4"
_symmetry_group_IT_number 81
_symmetry_cell_setting 'tetragonal'
loop_
_space_group_symop_operation_xyz
x,y,z
y,-x,-z
-x,-y,z
-y,x,-z
loop_
_atom_site_type_symbol
_atom_site_label
_atom_site_fract_x
_atom_site_fract_y
_atom_site_fract_z
Si Si1 0.825521 0.713419 0.030294
Si Si2 0.758558 0.906829 0.744946
Si Si3 0.722241 0.442792 0.489985
Si Si4 0.456387 0.160122 0.163770
Si Si5 0.000000 0.000000 0.500000
O O1 0.708524 0.802224 0.133579
O O2 0.966867 0.688621 0.143093
O O3 0.859046 0.806877 0.862553
O O4 0.754409 0.563277 0.963086
O O5 0.630937 0.812525 0.658917
O O6 0.856913 0.979266 0.606491
O O7 0.595271 0.343843 0.570883
O O8 0.823284 0.488691 0.642000
O O9 0.500000 0.000000 0.113969
#
# Coordination Sequence:
#
# PCOD8302329 Si02
#       5
#     4   4   4   4   1
#     4  12  27  50  80 112 159 207 267 333 393 480
#     4  12  26  51  79 116 159 213 268 329 405 478
#     4  11  27  49  80 116 161 211 267 336 406 488
#     4  12  28  49  75 118 154 209 269 327 405 484
#     4  12  28  46  76 120 160 210 260 340 404 490
#
# _framework density 24.593969000000001
#
# number of rings (size 3 to 8) (size 9 to 14) (size 15 to 20)
#    0.000    0.235    4.706    2.824    6.588    2.353 
#    4.235    0.000    0.000    0.000    0.000    0.000 
#    0.000    0.000    0.000    0.000    0.000    0.000 
#
# Total GULP energy -210728.958850 kJ/mol
# GULP energy per Si atom -12395.821109 kJ/mol
# Density = 2.453799 g / cm^3
# Si number density = 24.593969 Si / 1000 Ang^3
#
#
#
# Elastic Constant Matrix: (Units=GPa)
#
#
# Indices 1 2 3 4 5 6 
#
# 1 120.0771 43.9395 55.4300 0.0000 0.0000 -0.1609
# 2 43.9395 120.0771 55.4300 0.0000 0.0000 0.1609
# 3 55.4300 55.4300 143.8924 0.0000 0.0000 0.0000
# 4 0.0000 0.0000 0.0000 43.6671 0.0000 0.0000
# 5 0.0000 0.0000 0.0000 0.0000 43.6671 0.0000
# 6 -0.1609 0.1609 0.0000 0.0000 0.0000 35.6373
#
#
#
# Elastic Compliance Matrix: (Units=1/GPa)
#
#
# Indices 1 2 3 4 5 6 
#
# 1 0.010689 -0.002446 -0.003175 0.000000 0.000000 0.000059
# 2 -0.002446 0.010689 -0.003175 0.000000 0.000000 -0.000059
# 3 -0.003175 -0.003175 0.009396 0.000000 0.000000 0.000000
# 4 0.000000 0.000000 0.000000 0.022901 0.000000 0.000000
# 5 0.000000 0.000000 0.000000 0.000000 0.022901 0.000000
# 6 0.000059 -0.000059 0.000000 0.000000 0.000000 0.028061
#
#
# Mechanical properties :
#
#
# Convention : Reuss Voigt Hill
#
# Bulk Modulus (GPa) = 75.86781 77.07173 76.46977
# Shear Modulus (GPa) = 39.48750 39.87745 39.68247
#
# Velocity S-wave (km/s) = 4.01131 4.03107 4.02120
# Velocity P-wave (km/s) = 7.23666 7.28503 7.26089
#
# Compressibility (1/GPa) = 0.01318082
#
# Stress axis : x y z
#
# Youngs Moduli (GPa) = 93.55581 93.55581 106.42680
#
# Poissons Ratio (x) = 0.22880 0.33795
# Poissons Ratio (y) = 0.22880 0.33795
# Poissons Ratio (z) = 0.29708 0.29708
#
# Static dielectric constant tensor:
#      x y z
#    x 4.680180 0.000000 0.000000 
#    y 0.000000 4.680180 0.000000 
#    z 0.000000 0.000000 4.504470 
# 
# 
# High freq. dielectric constant tensor:
#      x y z
#    x 1.979280 0.000000 0.000000 
#    y 0.000000 1.979280 0.000000 
#    z 0.000000 0.000000 1.994230 
# 
# From -- ./inp_files/643.got.cif
#   From: 2010.03.12/outbox.cif.g09.slc.cpg/sg81_cif.got.tgz:643.got - 2010.04.08 20:01:38.
