data_PCOD8302800
_publ_section_title
;
Structure prediction by ZEFSAII (Michael W. Deem and Ramdas Pophale) SiO2 
 PCOD8302800
Probable space group: P 4/M
;
_chemical_formula_sum "Si O2"
_cell_formula_units_Z 60
_cell_length_a 14.582727
_cell_length_b 14.582727
_cell_length_c 16.250679
_cell_angle_alpha 90.000000
_cell_angle_beta 90.000000
_cell_angle_gamma 90.000000
_cell_volume 3455.803203
_symmetry_space_group_name_H-M "P 4/M"
_symmetry_group_IT_number 83
_symmetry_cell_setting 'tetragonal'
loop_
_space_group_symop_operation_xyz
x,y,z
-y,x,z
-x,-y,z
y,-x,z
-x,-y,-z
y,-x,-z
x,y,-z
-y,x,-z
loop_
_atom_site_type_symbol
_atom_site_label
_atom_site_fract_x
_atom_site_fract_y
_atom_site_fract_z
Si Si1 0.915144 0.438484 0.094597
Si Si2 0.633950 0.571046 0.587625
Si Si3 0.428651 0.634058 0.766396
Si Si4 0.139328 0.062838 0.676314
Si Si5 0.224137 0.404946 0.906302
Si Si6 0.226780 0.887836 0.093152
Si Si7 0.061995 0.862634 0.500000
Si Si8 0.079785 0.758421 0.164852
O O1 0.821727 0.495576 0.104031
O O2 0.908208 0.349939 0.152455
O O3 0.000000 0.500000 0.124500
O O4 0.930864 0.407333 0.000000
O O5 0.537177 0.621110 0.587154
O O6 0.685282 0.598181 0.500000
O O7 0.680696 0.595665 0.676288
O O8 0.378038 0.537321 0.774478
O O9 0.391869 0.694996 0.841093
O O10 0.186913 0.084274 0.586851
O O11 0.214182 0.099081 0.740922
O O12 0.045070 0.118894 0.686729
O O13 0.148790 0.328090 0.886799
O O14 0.261872 0.393098 0.000000
O O15 0.151814 0.809715 0.107056
O O16 0.206830 0.977315 0.146772
O O17 0.221768 0.920842 0.000000
O O18 0.955326 0.881856 0.500000
#
# Coordination Sequence:
#
# PCOD8302800 Si02
#       8
#     8   8   8   8   8   8   4   8
#     4  10  20  37  55  68  92 135 184 215 234 281
#     4   7  10  20  41  69  97 123 152 190 248 319
#     4   9  18  31  48  75 104 126 158 213 273 307
#     4   9  16  29  47  78 111 136 164 203 256 315
#     4  10  22  37  51  69  95 137 186 217 242 295
#     4  11  23  36  51  75 107 137 171 213 261 312
#     4   7  12  24  46  70 103 140 168 196 240 303
#     4  12  21  34  54  81 106 134 170 213 265 310
#
# _framework density 17.362099000000001
#
# number of rings (size 3 to 8) (size 9 to 14) (size 15 to 20)
#    0.000    2.467    2.667    3.200    1.867    0.800 
#    0.000    1.333    0.000    0.000    5.200    0.467 
#    0.000    0.000    0.000    0.000    0.000    0.000 
#
# Total GULP energy -743295.772925 kJ/mol
# GULP energy per Si atom -12388.262882 kJ/mol
# Density = 1.732258 g / cm^3
# Si number density = 17.362099 Si / 1000 Ang^3
#
#
#
# Elastic Constant Matrix: (Units=GPa)
#
#
# Indices 1 2 3 4 5 6 
#
# 1 55.2787 3.0992 25.9713 0.0000 0.0000 3.1568
# 2 3.0992 55.2787 25.9713 0.0000 0.0000 -3.1568
# 3 25.9713 25.9713 121.3710 0.0000 0.0000 0.0000
# 4 0.0000 0.0000 0.0000 15.9187 0.0000 0.0000
# 5 0.0000 0.0000 0.0000 0.0000 15.9187 0.0000
# 6 3.1568 -3.1568 0.0000 0.0000 0.0000 15.5214
#
#
#
# Elastic Compliance Matrix: (Units=1/GPa)
#
#
# Indices 1 2 3 4 5 6 
#
# 1 0.020403 0.000755 -0.004527 0.000000 0.000000 -0.003996
# 2 0.000755 0.020403 -0.004527 0.000000 0.000000 0.003996
# 3 -0.004527 -0.004527 0.010177 0.000000 0.000000 0.000000
# 4 0.000000 0.000000 0.000000 0.062819 0.000000 0.000000
# 5 0.000000 0.000000 0.000000 0.000000 0.062819 0.000000
# 6 -0.003996 0.003996 0.000000 0.000000 0.000000 0.066053
#
#
# Mechanical properties :
#
#
# Convention : Reuss Voigt Hill
#
# Bulk Modulus (GPa) = 29.08395 38.00132 33.54264
# Shear Modulus (GPa) = 18.46823 21.26420 19.86622
#
# Velocity S-wave (km/s) = 3.26499 3.50344 3.38632
# Velocity P-wave (km/s) = 5.56789 6.18874 5.88650
#
# Compressibility (1/GPa) = 0.03438323
#
# Stress axis : x y z
#
# Youngs Moduli (GPa) = 49.01203 49.01203 98.26271
#
# Poissons Ratio (x) = -0.03700 0.44488
# Poissons Ratio (y) = -0.03700 0.44488
# Poissons Ratio (z) = 0.22190 0.22190
#
# Static dielectric constant tensor:
#      x y z
#    x 2.932060 0.000000 0.000000 
#    y 0.000000 2.932060 0.000000 
#    z 0.000000 0.000000 3.702390 
# 
# 
# High freq. dielectric constant tensor:
#      x y z
#    x 1.640720 0.000000 0.000000 
#    y 0.000000 1.640720 0.000000 
#    z 0.000000 0.000000 1.683710 
# 
# From -- ./inp_files/2471.got.cif
#   From: 2010.03.12/outbox.cif.g09.slc.cpg/sg83_2_cif.got.tgz:2471.got - 2010.04.08 20:05:18.
