data_PCOD8302322
_publ_section_title
;
Structure prediction by ZEFSAII (Michael W. Deem and Ramdas Pophale) SiO2 
 PCOD8302322
Probable space group: P -4
;
_chemical_formula_sum "Si O2"
_cell_formula_units_Z 14
_cell_length_a 8.823912
_cell_length_b 8.823912
_cell_length_c 7.194395
_cell_angle_alpha 90.000000
_cell_angle_beta 90.000000
_cell_angle_gamma 90.000000
_cell_volume 560.165832
_symmetry_space_group_name_H-M "P -4"
_symmetry_group_IT_number 81
_symmetry_cell_setting 'tetragonal'
loop_
_space_group_symop_operation_xyz
x,y,z
y,-x,-z
-x,-y,z
-y,x,-z
loop_
_atom_site_type_symbol
_atom_site_label
_atom_site_fract_x
_atom_site_fract_y
_atom_site_fract_z
Si Si1 0.767746 0.081874 0.517204
Si Si2 0.427369 0.775869 0.237002
Si Si3 0.000000 0.000000 0.000000
Si Si4 0.238208 0.222636 0.125204
Si Si5 0.500000 0.500000 0.500000
O O1 0.641747 0.087838 0.357785
O O2 0.692516 0.154924 0.703464
O O3 0.909551 0.184090 0.447263
O O4 0.592907 0.826275 0.175104
O O5 0.427355 0.624556 0.363002
O O6 0.325739 0.751934 0.054976
O O7 0.142773 0.064645 0.114628
#
# Coordination Sequence:
#
# PCOD8302322 Si02
#       5
#     4   4   1   4   1
#     4  11  25  48  76 112 158 206 263 328 388 463
#     4  12  26  47  80 110 157 206 265 319 400 462
#     4  12  28  52  78 112 164 194 264 324 386 472
#     4  12  26  49  78 117 154 210 260 326 390 472
#     4  12  24  54  68 124 162 208 264 338 384 484
#
# _framework density 24.992598000000001
#
# number of rings (size 3 to 8) (size 9 to 14) (size 15 to 20)
#    0.000    0.286    2.857    6.857    0.000    4.571 
#    0.000    5.714    0.000    0.000    0.000    0.000 
#    0.000    0.000    0.000    0.000    0.000    0.000 
#
# Total GULP energy -173610.561102 kJ/mol
# GULP energy per Si atom -12400.754364 kJ/mol
# Density = 2.493571 g / cm^3
# Si number density = 24.992598 Si / 1000 Ang^3
#
#
#
# Elastic Constant Matrix: (Units=GPa)
#
#
# Indices 1 2 3 4 5 6 
#
# 1 125.4280 58.4990 70.1754 0.0000 0.0000 -2.7465
# 2 58.4990 125.4280 70.1754 0.0000 0.0000 2.7465
# 3 70.1754 70.1754 182.6871 0.0000 0.0000 0.0000
# 4 0.0000 0.0000 0.0000 29.5773 0.0000 0.0000
# 5 0.0000 0.0000 0.0000 0.0000 29.5773 0.0000
# 6 -2.7465 2.7465 0.0000 0.0000 0.0000 32.9571
#
#
#
# Elastic Compliance Matrix: (Units=1/GPa)
#
#
# Indices 1 2 3 4 5 6 
#
# 1 0.011368 -0.003676 -0.002955 0.000000 0.000000 0.001254
# 2 -0.003676 0.011368 -0.002955 0.000000 0.000000 -0.001254
# 3 -0.002955 -0.002955 0.007744 0.000000 0.000000 0.000000
# 4 0.000000 0.000000 0.000000 0.033810 0.000000 0.000000
# 5 0.000000 0.000000 0.000000 0.000000 0.033810 0.000000
# 6 0.001254 -0.001254 0.000000 0.000000 0.000000 0.030551
#
#
# Mechanical properties :
#
#
# Convention : Reuss Voigt Hill
#
# Bulk Modulus (GPa) = 88.42871 92.36029 90.39450
# Shear Modulus (GPa) = 32.98366 34.06857 33.52611
#
# Velocity S-wave (km/s) = 3.63676 3.69609 3.66654
# Velocity P-wave (km/s) = 7.28653 7.43304 7.36015
#
# Compressibility (1/GPa) = 0.01130855
#
# Stress axis : x y z
#
# Youngs Moduli (GPa) = 87.96796 87.96796 129.13774
#
# Poissons Ratio (x) = 0.32340 0.38154
# Poissons Ratio (y) = 0.32340 0.38154
# Poissons Ratio (z) = 0.25990 0.25990
#
# Static dielectric constant tensor:
#      x y z
#    x 4.500280 0.000000 0.000000 
#    y 0.000000 4.500280 0.000000 
#    z 0.000000 0.000000 4.937660 
# 
# 
# High freq. dielectric constant tensor:
#      x y z
#    x 1.997050 0.000000 0.000000 
#    y 0.000000 1.997050 0.000000 
#    z 0.000000 0.000000 2.019750 
# 
# From -- ./inp_files/521.got.cif
#   From: 2010.03.12/outbox.cif.g09.slc.cpg/sg81_cif.got.tgz:521.got - 2010.04.08 20:01:38.
