data_PCOD8302499
_publ_section_title
;
Structure prediction by ZEFSAII (Michael W. Deem and Ramdas Pophale) SiO2 
 PCOD8302499
Probable space group: I -4 
;
_chemical_formula_sum "Si O2"
_cell_formula_units_Z 36
_cell_length_a 9.398530
_cell_length_b 9.398530
_cell_length_c 19.411168
_cell_angle_alpha 90.000000
_cell_angle_beta 90.000000
_cell_angle_gamma 90.000000
_cell_volume 1714.634399
_symmetry_space_group_name_H-M "I -4 "
_symmetry_group_IT_number 82
_symmetry_cell_setting 'tetragonal'
loop_
_space_group_symop_operation_xyz
x,y,z
y,-x,-z
-x,-y,z
-y,x,-z
1/2+x,1/2+y,1/2+z
1/2+y,1/2-x,1/2-z
1/2-x,1/2-y,1/2+z
1/2-y,1/2+x,1/2-z
loop_
_atom_site_type_symbol
_atom_site_label
_atom_site_fract_x
_atom_site_fract_y
_atom_site_fract_z
Si Si1 0.000000 0.500000 0.017951
Si Si2 0.500000 0.500000 0.500000
Si Si3 0.508671 0.780451 0.269839
Si Si4 0.739873 0.071487 0.085348
Si Si5 0.000000 0.000000 0.313437
Si Si6 0.000000 0.500000 0.250000
Si Si7 0.889498 0.707636 0.367259
O O1 0.128617 0.553132 0.065143
O O2 0.077109 0.388944 0.967771
O O3 0.364222 0.492461 0.546948
O O4 0.651193 0.875292 0.268334
O O5 0.465738 0.781296 0.350170
O O6 0.541409 0.628872 0.236769
O O7 0.778823 0.222488 0.118932
O O8 0.962194 0.863504 0.360798
O O9 0.079699 0.383717 0.297977
#
# Coordination Sequence:
#
# PCOD8302499 Si02
#       7
#     4   2   8   8   4   2   8
#     4  11  26  45  73  96 145 180 232 284 333 408
#     4  12  26  44  76  96 130 188 232 266 340 418
#     4  11  24  44  71 102 137 176 224 285 340 402
#     4  12  24  46  68 103 135 181 228 280 337 408
#     4  12  25  44  73 105 135 180 226 288 350 403
#     4  10  24  48  76 104 138 176 238 296 342 404
#     4  11  25  45  71 105 137 180 231 288 342 404
#
# _framework density 20.995729999999998
#
# number of rings (size 3 to 8) (size 9 to 14) (size 15 to 20)
#    0.000    0.667    4.444    3.333    0.000    3.556 
#    0.000    0.000    0.000    0.000    0.000    0.000 
#    0.000    0.000    0.000    0.000    0.000    0.000 
#
# Total GULP energy -223145.866335 kJ/mol
# GULP energy per Si atom -12396.992574 kJ/mol
# Density = 2.094794 g / cm^3
# Si number density = 20.995730 Si / 1000 Ang^3
#
#
#
# Elastic Constant Matrix: (Units=GPa)
#
#
# Indices 1 2 3 4 5 6 
#
# 1 80.4117 -7.6516 28.2454 0.0000 0.0000 1.8860
# 2 -7.6516 80.4117 28.2454 0.0000 0.0000 -1.8860
# 3 28.2454 28.2454 138.0355 0.0000 0.0000 0.0000
# 4 0.0000 0.0000 0.0000 31.4330 0.0000 0.0000
# 5 0.0000 0.0000 0.0000 0.0000 31.4330 0.0000
# 6 1.8860 -1.8860 0.0000 0.0000 0.0000 -4.3401
#
#
#
# Elastic Compliance Matrix: (Units=1/GPa)
#
#
# Indices 1 2 3 4 5 6 
#
# 1 0.013744 0.002596 -0.003343 0.000000 0.000000 0.004844
# 2 0.002596 0.013744 -0.003343 0.000000 0.000000 -0.004844
# 3 -0.003343 -0.003343 0.008613 0.000000 0.000000 0.000000
# 4 0.000000 0.000000 0.000000 0.031814 0.000000 0.000000
# 5 0.000000 0.000000 0.000000 0.000000 0.031814 0.000000
# 6 0.004844 -0.004844 0.000000 0.000000 0.000000 -0.226199
#
#
# Mechanical properties :
#
#
# Convention : Reuss Voigt Hill
#
# Bulk Modulus (GPa) = 35.81894 44.05972 39.93933
# Shear Modulus (GPa) = -45.87896 28.37316 -8.75290
#
# Velocity S-wave (km/s) = -4.67964 3.68010 -2.04400
# Velocity P-wave (km/s) = 3.47873 6.25205 3.67332
#
# Compressibility (1/GPa) = 0.02791819
#
# Stress axis : x y z
#
# Youngs Moduli (GPa) = 72.76003 72.76003 116.10584
#
# Poissons Ratio (x) = -0.18887 0.38820
# Poissons Ratio (y) = -0.18887 0.38820
# Poissons Ratio (z) = 0.24327 0.24327
#
# Static dielectric constant tensor:
#      x y z
#    x 3.805320 0.000000 0.000000 
#    y 0.000000 3.805320 0.000000 
#    z 0.000000 0.000000 4.074610 
# 
# 
# High freq. dielectric constant tensor:
#      x y z
#    x 1.828930 0.000000 0.000000 
#    y 0.000000 1.828930 0.000000 
#    z 0.000000 0.000000 1.845470 
# 
# From -- ./inp_files/3014.got.cif
#   From: 2010.03.12/outbox.cif.g09.slc.cpg/sg82_2_cif.got.tgz:3014.got - 2010.04.08 20:02:50.
