data_PCOD8302248
_publ_section_title
;
Structure prediction by ZEFSAII (Michael W. Deem and Ramdas Pophale) SiO2 
 PCOD8302248
Probable space group: P -4
;
_chemical_formula_sum "Si O2"
_cell_formula_units_Z 25
_cell_length_a 10.885211
_cell_length_b 10.885211
_cell_length_c 11.673974
_cell_angle_alpha 90.000000
_cell_angle_beta 90.000000
_cell_angle_gamma 90.000000
_cell_volume 1383.223713
_symmetry_space_group_name_H-M "P -4"
_symmetry_group_IT_number 81
_symmetry_cell_setting 'tetragonal'
loop_
_space_group_symop_operation_xyz
x,y,z
y,-x,-z
-x,-y,z
-y,x,-z
loop_
_atom_site_type_symbol
_atom_site_label
_atom_site_fract_x
_atom_site_fract_y
_atom_site_fract_z
Si Si1 0.460667 0.681014 0.543484
Si Si2 0.000000 0.000000 0.500000
Si Si3 0.666960 0.121649 0.421738
Si Si4 0.137325 0.450179 0.813466
Si Si5 0.586497 0.318020 0.989031
Si Si6 0.778270 0.872883 0.429147
Si Si7 0.678151 0.699341 0.247968
O O1 0.598741 0.634860 0.531144
O O2 0.448471 0.818869 0.491506
O O3 0.423459 0.665396 0.675682
O O4 0.901457 0.949568 0.410000
O O5 0.652926 0.129088 0.284708
O O6 0.786241 0.201197 0.459946
O O7 0.672253 0.975392 0.452049
O O8 0.230382 0.550951 0.765104
O O9 0.000000 0.500000 0.843098
O O10 0.203433 0.393805 0.925231
O O11 0.653263 0.271469 0.873542
O O12 0.442312 0.346697 0.966409
O O13 0.766855 0.793464 0.313758
#
# Coordination Sequence:
#
# PCOD8302248 Si02
#       7
#     4   1   4   4   4   4   4
#     4  10  20  29  50  84 119 147 178 228 285 347
#     4   8  16  32  56  76 102 148 196 216 284 342
#     4  10  19  33  54  84 109 147 185 225 282 341
#     4  11  20  35  60  80 110 149 190 231 278 345
#     4   9  21  36  58  80 107 148 190 230 285 339
#     4   9  18  33  56  78 110 146 183 233 276 343
#     4  10  19  34  53  79 115 144 181 235 283 335
#
# _framework density 18.073720999999999
#
# number of rings (size 3 to 8) (size 9 to 14) (size 15 to 20)
#    0.000    2.240    3.200    0.000    2.240    1.280 
#    0.000    0.000   28.160    0.000    0.000    0.000 
#    0.000    0.000    0.000    0.000    0.000    0.000 
#
# Total GULP energy -309703.956089 kJ/mol
# GULP energy per Si atom -12388.158244 kJ/mol
# Density = 1.803258 g / cm^3
# Si number density = 18.073721 Si / 1000 Ang^3
#
#
#
# Elastic Constant Matrix: (Units=GPa)
#
#
# Indices 1 2 3 4 5 6 
#
# 1 71.7003 28.8503 54.5443 0.0000 0.0000 0.7433
# 2 28.8503 71.7003 54.5443 0.0000 0.0000 -0.7433
# 3 54.5443 54.5443 132.0177 0.0000 0.0000 0.0000
# 4 0.0000 0.0000 0.0000 22.2968 0.0000 0.0000
# 5 0.0000 0.0000 0.0000 0.0000 22.2968 0.0000
# 6 0.7433 -0.7433 0.0000 0.0000 0.0000 30.4884
#
#
#
# Elastic Compliance Matrix: (Units=1/GPa)
#
#
# Indices 1 2 3 4 5 6 
#
# 1 0.020691 -0.002666 -0.007447 0.000000 0.000000 -0.000569
# 2 -0.002666 0.020691 -0.007447 0.000000 0.000000 0.000569
# 3 -0.007447 -0.007447 0.013728 0.000000 0.000000 0.000000
# 4 0.000000 0.000000 0.000000 0.044849 0.000000 0.000000
# 5 0.000000 0.000000 0.000000 0.000000 0.044849 0.000000
# 6 -0.000569 0.000569 0.000000 0.000000 0.000000 0.032827
#
#
# Mechanical properties :
#
#
# Convention : Reuss Voigt Hill
#
# Bulk Modulus (GPa) = 50.02630 61.25509 55.64070
# Shear Modulus (GPa) = 22.78738 24.18170 23.48454
#
# Velocity S-wave (km/s) = 3.55463 3.66177 3.60860
# Velocity P-wave (km/s) = 6.67730 7.20024 6.94369
#
# Compressibility (1/GPa) = 0.01998949
#
# Stress axis : x y z
#
# Youngs Moduli (GPa) = 48.33063 48.33063 72.84185
#
# Poissons Ratio (x) = 0.12886 0.54246
# Poissons Ratio (y) = 0.12886 0.54246
# Poissons Ratio (z) = 0.35992 0.35992
#
# Static dielectric constant tensor:
#      x y z
#    x 3.595510 0.000000 0.000000 
#    y 0.000000 3.595510 0.000000 
#    z 0.000000 0.000000 3.347950 
# 
# 
# High freq. dielectric constant tensor:
#      x y z
#    x 1.699660 0.000000 0.000000 
#    y 0.000000 1.699660 0.000000 
#    z 0.000000 0.000000 1.680330 
# 
# From -- ./inp_files/860.got.cif
#   From: 2010.03.12/outbox.cif.g09.slc.cpg/sg81_cif.got.tgz:860.got - 2010.04.08 20:01:38.
