data_PCOD8302980
_publ_section_title
;
Structure prediction by ZEFSAII (Michael W. Deem and Ramdas Pophale) SiO2 
 PCOD8302980
Probable space group: P 4/M
;
_chemical_formula_sum "Si O2"
_cell_formula_units_Z 44
_cell_length_a 8.400203
_cell_length_b 8.400203
_cell_length_c 28.902601
_cell_angle_alpha 90.000000
_cell_angle_beta 90.000000
_cell_angle_gamma 90.000000
_cell_volume 2039.466097
_symmetry_space_group_name_H-M "P 4/M"
_symmetry_group_IT_number 83
_symmetry_cell_setting 'tetragonal'
loop_
_space_group_symop_operation_xyz
x,y,z
-y,x,z
-x,-y,z
y,-x,z
-x,-y,-z
y,-x,-z
x,y,-z
-y,x,-z
loop_
_atom_site_type_symbol
_atom_site_label
_atom_site_fract_x
_atom_site_fract_y
_atom_site_fract_z
Si Si1 0.905303 0.756014 0.771359
Si Si2 0.756903 0.103482 0.500000
Si Si3 0.104726 0.243396 0.328552
Si Si4 0.602689 0.257282 0.586263
Si Si5 0.251295 0.420506 0.948243
Si Si6 0.749852 0.084128 0.129213
O O1 0.866579 0.671367 0.722130
O O2 0.877513 0.665224 0.820443
O O3 0.088563 0.799261 0.771457
O O4 0.652222 0.141926 0.544795
O O5 0.917326 0.206047 0.500000
O O6 0.163553 0.369278 0.366057
O O7 0.918744 0.204723 0.334651
O O8 0.705888 0.416971 0.583045
O O9 0.399436 0.303679 0.940656
O O10 0.116786 0.377122 0.911042
O O11 0.181774 0.397259 0.000000
O O12 0.902338 0.197834 0.124355
#
# Coordination Sequence:
#
# PCOD8302980 Si02
#       6
#     8   4   8   8   8   8
#     4   7  12  26  48  73 101 130 160 200 248 294
#     4  11  24  41  62  86 106 129 170 217 256 300
#     4   9  17  32  56  81 102 131 174 214 246 290
#     4  11  24  39  54  77 111 145 173 205 250 299
#     4   9  19  35  50  64  89 128 169 205 245 297
#     4   9  17  30  50  76 102 126 157 202 254 302
#
# _framework density 21.574273000000002
#
# number of rings (size 3 to 8) (size 9 to 14) (size 15 to 20)
#    0.000    2.818    0.000    4.364    0.000    7.273 
#    0.000    4.545    0.000    8.727    0.000    0.000 
#    0.000    0.000    0.000    0.000    0.000    0.000 
#
# Total GULP energy -545164.146198 kJ/mol
# GULP energy per Si atom -12390.094232 kJ/mol
# Density = 2.152517 g / cm^3
# Si number density = 21.574273 Si / 1000 Ang^3
#
#
#
# Elastic Constant Matrix: (Units=GPa)
#
#
# Indices 1 2 3 4 5 6 
#
# 1 19.4728 -4.8016 9.9542 0.0000 0.0000 -0.2572
# 2 -4.8016 19.4728 9.9542 0.0000 0.0000 0.2572
# 3 9.9542 9.9542 170.1348 0.0000 0.0000 0.0000
# 4 0.0000 0.0000 0.0000 -14.9427 0.0000 0.0000
# 5 0.0000 0.0000 0.0000 0.0000 -14.9427 0.0000
# 6 -0.2572 0.2572 0.0000 0.0000 0.0000 29.0535
#
#
#
# Elastic Compliance Matrix: (Units=1/GPa)
#
#
# Indices 1 2 3 4 5 6 
#
# 1 0.057621 0.016418 -0.004332 0.000000 0.000000 0.000365
# 2 0.016418 0.057621 -0.004332 0.000000 0.000000 -0.000365
# 3 -0.004332 -0.004332 0.006385 0.000000 0.000000 0.000000
# 4 0.000000 0.000000 0.000000 -0.066922 0.000000 0.000000
# 5 0.000000 0.000000 0.000000 0.000000 -0.066922 0.000000
# 6 0.000365 -0.000365 0.000000 0.000000 0.000000 0.034426
#
#
# Mechanical properties :
#
#
# Convention : Reuss Voigt Hill
#
# Bulk Modulus (GPa) = 7.29205 26.58821 16.94013
# Shear Modulus (GPa) = 95.39776 12.76517 54.08147
#
# Velocity S-wave (km/s) = 6.65690 2.43510 5.01218
# Velocity P-wave (km/s) = 7.90399 4.50078 6.43157
#
# Compressibility (1/GPa) = 0.13713565
#
# Stress axis : x y z
#
# Youngs Moduli (GPa) = 17.35469 17.35469 156.62723
#
# Poissons Ratio (x) = -0.28493 0.67849
# Poissons Ratio (y) = -0.28493 0.67849
# Poissons Ratio (z) = 0.07518 0.07518
#
# Static dielectric constant tensor:
#      x y z
#    x 3.549290 0.000000 0.000000 
#    y 0.000000 3.549290 0.000000 
#    z 0.000000 0.000000 4.459210 
# 
# 
# High freq. dielectric constant tensor:
#      x y z
#    x 1.821480 0.000000 0.000000 
#    y 0.000000 1.821480 0.000000 
#    z 0.000000 0.000000 1.873310 
# 
# From -- ./inp_files/3359.got.cif
#   From: 2010.03.12/outbox.cif.g09.slc.cpg/sg83_2_cif.got.tgz:3359.got - 2010.04.08 20:05:18.
