data_PCOD8302302
_publ_section_title
;
Structure prediction by ZEFSAII (Michael W. Deem and Ramdas Pophale) SiO2 
 PCOD8302302
Probable space group: P -4
;
_chemical_formula_sum "Si O2"
_cell_formula_units_Z 18
_cell_length_a 12.356899
_cell_length_b 12.356899
_cell_length_c 4.946345
_cell_angle_alpha 90.000000
_cell_angle_beta 90.000000
_cell_angle_gamma 90.000000
_cell_volume 755.272024
_symmetry_space_group_name_H-M "P -4"
_symmetry_group_IT_number 81
_symmetry_cell_setting 'tetragonal'
loop_
_space_group_symop_operation_xyz
x,y,z
y,-x,-z
-x,-y,z
-y,x,-z
loop_
_atom_site_type_symbol
_atom_site_label
_atom_site_fract_x
_atom_site_fract_y
_atom_site_fract_z
Si Si1 0.833272 0.003545 0.091326
Si Si2 0.000000 0.500000 0.682005
Si Si3 0.634625 0.715994 0.672764
Si Si4 0.048050 0.710837 0.381557
Si Si5 0.757907 0.502623 0.831936
O O1 0.806092 0.972681 0.398184
O O2 0.728293 0.017759 0.899805
O O3 0.890997 0.906704 0.922112
O O4 0.995354 0.602356 0.488281
O O5 0.111159 0.502224 0.852444
O O6 0.703935 0.825360 0.689393
O O7 0.717273 0.620426 0.744195
O O8 0.585535 0.707857 0.373528
O O9 0.532096 0.714789 0.875145
#
# Coordination Sequence:
#
# PCOD8302302 Si02
#       5
#     4   2   4   4   4
#     4  11  25  42  67 102 137 176 227 281 344 418
#     4  10  26  46  68 100 138 182 228 282 340 404
#     4  11  25  44  68 104 134 178 236 280 347 414
#     4  11  24  45  67 100 135 184 230 278 345 410
#     4  11  25  45  70 102 138 179 229 286 345 411
#
# _framework density 23.832473
#
# number of rings (size 3 to 8) (size 9 to 14) (size 15 to 20)
#    0.000    1.111    0.000    5.333    6.222   12.444 
#    0.000    0.000    0.000    0.000    0.000    0.000 
#    0.000    0.000    0.000    0.000    0.000    0.000 
#
# Total GULP energy -223208.211504 kJ/mol
# GULP energy per Si atom -12400.456195 kJ/mol
# Density = 2.377823 g / cm^3
# Si number density = 23.832473 Si / 1000 Ang^3
#
#
#
# Elastic Constant Matrix: (Units=GPa)
#
#
# Indices 1 2 3 4 5 6 
#
# 1 63.4174 23.8250 4.9907 0.0000 0.0000 13.7252
# 2 23.8250 63.4174 4.9907 0.0000 0.0000 -13.7252
# 3 4.9907 4.9907 92.1006 0.0000 0.0000 0.0000
# 4 0.0000 0.0000 0.0000 21.5452 0.0000 0.0000
# 5 0.0000 0.0000 0.0000 0.0000 21.5452 0.0000
# 6 13.7252 -13.7252 0.0000 0.0000 0.0000 47.0766
#
#
#
# Elastic Compliance Matrix: (Units=1/GPa)
#
#
# Indices 1 2 3 4 5 6 
#
# 1 0.021595 -0.010061 -0.000625 0.000000 0.000000 -0.009229
# 2 -0.010061 0.021595 -0.000625 0.000000 0.000000 0.009229
# 3 -0.000625 -0.000625 0.010925 0.000000 0.000000 0.000000
# 4 0.000000 0.000000 0.000000 0.046414 0.000000 0.000000
# 5 0.000000 0.000000 0.000000 0.000000 0.046414 0.000000
# 6 -0.009229 0.009229 0.000000 0.000000 0.000000 0.026624
#
#
# Mechanical properties :
#
#
# Convention : Reuss Voigt Hill
#
# Bulk Modulus (GPa) = 31.75298 31.83869 31.79584
# Shear Modulus (GPa) = 24.19112 30.37533 27.28322
#
# Velocity S-wave (km/s) = 3.18944 3.57394 3.38715
# Velocity P-wave (km/s) = 5.18803 5.51535 5.35419
#
# Compressibility (1/GPa) = 0.03149311
#
# Stress axis : x y z
#
# Youngs Moduli (GPa) = 46.30687 46.30687 91.52962
#
# Poissons Ratio (x) = 0.46590 0.05721
# Poissons Ratio (y) = 0.46590 0.05721
# Poissons Ratio (z) = 0.02894 0.02894
#
# Static dielectric constant tensor:
#      x y z
#    x 4.273050 0.000000 0.000000 
#    y 0.000000 4.273050 0.000000 
#    z 0.000000 0.000000 4.258980 
# 
# 
# High freq. dielectric constant tensor:
#      x y z
#    x 1.946690 0.000000 0.000000 
#    y 0.000000 1.946690 0.000000 
#    z 0.000000 0.000000 1.956600 
# 
# From -- ./inp_files/184.got.cif
#   From: 2010.03.12/outbox.cif.g09.slc.cpg/sg81_cif.got.tgz:184.got - 2010.04.08 20:01:38.
