data_PCOD8302631
_publ_section_title
;
Structure prediction by ZEFSAII (Michael W. Deem and Ramdas Pophale) SiO2 
 PCOD8302631
Probable space group: P 4/M
;
_chemical_formula_sum "Si O2"
_cell_formula_units_Z 48
_cell_length_a 16.547403
_cell_length_b 16.547403
_cell_length_c 9.656875
_cell_angle_alpha 90.000000
_cell_angle_beta 90.000000
_cell_angle_gamma 90.000000
_cell_volume 2644.212158
_symmetry_space_group_name_H-M "P 4/M"
_symmetry_group_IT_number 83
_symmetry_cell_setting 'tetragonal'
loop_
_space_group_symop_operation_xyz
x,y,z
-y,x,z
-x,-y,z
y,-x,z
-x,-y,-z
y,-x,-z
x,y,-z
-y,x,-z
loop_
_atom_site_type_symbol
_atom_site_label
_atom_site_fract_x
_atom_site_fract_y
_atom_site_fract_z
Si Si1 0.263387 0.848343 0.164380
Si Si2 0.365718 0.696900 0.163047
Si Si3 0.267878 0.544416 0.836375
Si Si4 0.918147 0.902629 0.164103
Si Si5 0.880441 0.448641 0.343387
Si Si6 0.377032 0.950484 0.657053
O O1 0.301345 0.763544 0.218438
O O2 0.169605 0.857899 0.211744
O O3 0.310842 0.921814 0.234320
O O4 0.272567 0.857136 0.000000
O O5 0.455683 0.710506 0.223463
O O6 0.338839 0.606724 0.204449
O O7 0.370658 0.705827 0.000000
O O8 0.187794 0.577848 0.763954
O O9 0.252809 0.543666 0.000000
O O10 0.010262 0.886938 0.219274
O O11 0.921318 0.904198 0.000000
O O12 0.847079 0.444926 0.500000
O O13 0.908017 0.538781 0.306855
O O14 0.953615 0.386238 0.325184
O O15 0.350810 0.929462 0.500000
#
# Coordination Sequence:
#
# PCOD8302631 Si02
#       6
#     8   8   8   8   8   8
#     4  10  18  30  50  77 101 124 168 214 244 288
#     4   9  19  32  49  74 101 130 166 211 257 300
#     4  10  19  34  52  72 102 134 168 210 254 300
#     4   8  15  28  46  69  99 134 166 200 246 293
#     4   9  18  33  51  72  98 130 165 200 244 301
#     4   9  18  32  50  72 101 132 159 195 249 305
#
# _framework density 18.152856
#
# number of rings (size 3 to 8) (size 9 to 14) (size 15 to 20)
#    0.000    2.833    1.667    1.500    0.000    2.333 
#    0.000    8.333    0.000    1.000    0.000    2.333 
#    0.000    0.000    0.000    0.000    0.000    0.000 
#
# Total GULP energy -594928.437539 kJ/mol
# GULP energy per Si atom -12394.342449 kJ/mol
# Density = 1.811154 g / cm^3
# Si number density = 18.152856 Si / 1000 Ang^3
#
#
#
# Elastic Constant Matrix: (Units=GPa)
#
#
# Indices 1 2 3 4 5 6 
#
# 1 102.5192 59.1460 20.1125 0.0000 0.0000 -4.3768
# 2 59.1460 102.5192 20.1125 0.0000 0.0000 4.3768
# 3 20.1125 20.1125 31.1374 0.0000 0.0000 0.0000
# 4 0.0000 0.0000 0.0000 15.4935 0.0000 0.0000
# 5 0.0000 0.0000 0.0000 0.0000 15.4935 0.0000
# 6 -4.3768 4.3768 0.0000 0.0000 0.0000 25.8833
#
#
#
# Elastic Compliance Matrix: (Units=1/GPa)
#
#
# Indices 1 2 3 4 5 6 
#
# 1 0.015620 -0.008250 -0.004761 0.000000 0.000000 0.004036
# 2 -0.008250 0.015620 -0.004761 0.000000 0.000000 -0.004036
# 3 -0.004761 -0.004761 0.038266 0.000000 0.000000 0.000000
# 4 0.000000 0.000000 0.000000 0.064543 0.000000 0.000000
# 5 0.000000 0.000000 0.000000 0.000000 0.064543 0.000000
# 6 0.004036 -0.004036 0.000000 0.000000 0.000000 0.040000
#
#
# Mechanical properties :
#
#
# Convention : Reuss Voigt Hill
#
# Bulk Modulus (GPa) = 29.44326 48.32423 38.88375
# Shear Modulus (GPa) = 17.51583 20.49439 19.00511
#
# Velocity S-wave (km/s) = 3.10967 3.36369 3.23917
# Velocity P-wave (km/s) = 5.39891 6.46254 5.95452
#
# Compressibility (1/GPa) = 0.03396363
#
# Stress axis : x y z
#
# Youngs Moduli (GPa) = 64.01955 64.01955 26.13310
#
# Poissons Ratio (x) = 0.52817 0.12441
# Poissons Ratio (y) = 0.52817 0.12441
# Poissons Ratio (z) = 0.30477 0.30477
#
# Static dielectric constant tensor:
#      x y z
#    x 3.499720 0.000000 0.000000 
#    y 0.000000 3.499720 0.000000 
#    z 0.000000 0.000000 2.945750 
# 
# 
# High freq. dielectric constant tensor:
#      x y z
#    x 1.701860 0.000000 0.000000 
#    y 0.000000 1.701860 0.000000 
#    z 0.000000 0.000000 1.662180 
# 
# From -- ./inp_files/1802.got.cif
#   From: 2010.03.12/outbox.cif.g09.slc.cpg/sg83_1_cif.got.tgz:1802.got - 2010.04.08 20:05:18.
