data_PCOD8302858
_publ_section_title
;
Structure prediction by ZEFSAII (Michael W. Deem and Ramdas Pophale) SiO2 
 PCOD8302858
Probable space group: P 4/M
;
_chemical_formula_sum "Si O2"
_cell_formula_units_Z 36
_cell_length_a 13.423853
_cell_length_b 13.423853
_cell_length_c 9.779800
_cell_angle_alpha 90.000000
_cell_angle_beta 90.000000
_cell_angle_gamma 90.000000
_cell_volume 1762.318291
_symmetry_space_group_name_H-M "P 4/M"
_symmetry_group_IT_number 83
_symmetry_cell_setting 'tetragonal'
loop_
_space_group_symop_operation_xyz
x,y,z
-y,x,z
-x,-y,z
y,-x,z
-x,-y,-z
y,-x,-z
x,y,-z
-y,x,-z
loop_
_atom_site_type_symbol
_atom_site_label
_atom_site_fract_x
_atom_site_fract_y
_atom_site_fract_z
Si Si1 0.922055 0.701300 0.347782
Si Si2 0.674375 0.262783 0.163337
Si Si3 0.210826 0.544528 0.842509
Si Si4 0.989498 0.162962 0.849249
Si Si5 0.500000 0.000000 0.272577
O O1 0.901408 0.743792 0.500000
O O2 0.829021 0.719875 0.247616
O O3 0.014239 0.756622 0.272613
O O4 0.953981 0.586591 0.365712
O O5 0.730837 0.360694 0.221915
O O6 0.557110 0.266630 0.202673
O O7 0.688646 0.244235 0.000000
O O8 0.092075 0.542778 0.816348
O O9 0.227576 0.559978 0.000000
O O10 0.896606 0.091704 0.832453
O O11 0.985573 0.213993 0.000000
#
# Coordination Sequence:
#
# PCOD8302858 Si02
#       5
#     8   8   8   8   4
#     4  11  23  38  56  83 114 153 193 236 283 336
#     4   9  19  36  57  84 113 146 189 237 287 343
#     4   9  18  34  58  86 115 147 190 239 288 339
#     4   9  20  39  60  83 112 146 184 230 285 344
#     4  10  22  38  54  80 119 158 195 232 283 340
#
# _framework density 20.427638000000002
#
# number of rings (size 3 to 8) (size 9 to 14) (size 15 to 20)
#    0.000    2.444    0.000    2.000    3.111    4.000 
#    0.000    7.778    0.000    0.000    0.000    6.222 
#    0.000    0.000    0.000    0.000    0.000    0.000 
#
# Total GULP energy -446037.564598 kJ/mol
# GULP energy per Si atom -12389.932350 kJ/mol
# Density = 2.038114 g / cm^3
# Si number density = 20.427638 Si / 1000 Ang^3
#
#
#
# Elastic Constant Matrix: (Units=GPa)
#
#
# Indices 1 2 3 4 5 6 
#
# 1 94.4955 35.7469 21.9981 0.0000 0.0000 -14.1038
# 2 35.7469 94.4955 21.9981 0.0000 0.0000 14.1038
# 3 21.9981 21.9981 86.0918 0.0000 0.0000 0.0000
# 4 0.0000 0.0000 0.0000 10.2135 0.0000 0.0000
# 5 0.0000 0.0000 0.0000 0.0000 10.2135 0.0000
# 6 -14.1038 14.1038 0.0000 0.0000 0.0000 35.5413
#
#
#
# Elastic Compliance Matrix: (Units=1/GPa)
#
#
# Indices 1 2 3 4 5 6 
#
# 1 0.014716 -0.006312 -0.002147 0.000000 0.000000 0.008345
# 2 -0.006312 0.014716 -0.002147 0.000000 0.000000 -0.008345
# 3 -0.002147 -0.002147 0.012713 0.000000 0.000000 0.000000
# 4 0.000000 0.000000 0.000000 0.097909 0.000000 0.000000
# 5 0.000000 0.000000 0.000000 0.000000 0.097909 0.000000
# 6 0.008345 -0.008345 0.000000 0.000000 0.000000 0.034759
#
#
# Mechanical properties :
#
#
# Convention : Reuss Voigt Hill
#
# Bulk Modulus (GPa) = 47.77692 48.28548 48.03120
# Shear Modulus (GPa) = 16.61612 24.21632 20.41622
#
# Velocity S-wave (km/s) = 2.85513 3.44680 3.16482
# Velocity P-wave (km/s) = 5.85732 6.28723 6.07608
#
# Compressibility (1/GPa) = 0.02093061
#
# Stress axis : x y z
#
# Youngs Moduli (GPa) = 67.95414 67.95414 78.66081
#
# Poissons Ratio (x) = 0.42896 0.16890
# Poissons Ratio (y) = 0.42896 0.16890
# Poissons Ratio (z) = 0.14591 0.14591
#
# Static dielectric constant tensor:
#      x y z
#    x 3.868320 0.000000 0.000000 
#    y 0.000000 3.868320 0.000000 
#    z 0.000000 0.000000 3.363980 
# 
# 
# High freq. dielectric constant tensor:
#      x y z
#    x 1.801550 0.000000 0.000000 
#    y 0.000000 1.801550 0.000000 
#    z 0.000000 0.000000 1.766990 
# 
# From -- ./inp_files/543.got.cif
#   From: 2010.03.12/outbox.cif.g09.slc.cpg/sg83_1_cif.got.tgz:543.got - 2010.04.08 20:05:18.
