data_PCOD8302314
_publ_section_title
;
Structure prediction by ZEFSAII (Michael W. Deem and Ramdas Pophale) SiO2 
 PCOD8302314
Probable space group: P -4
;
_chemical_formula_sum "Si O2"
_cell_formula_units_Z 25
_cell_length_a 13.357095
_cell_length_b 13.357095
_cell_length_c 6.795852
_cell_angle_alpha 90.000000
_cell_angle_beta 90.000000
_cell_angle_gamma 90.000000
_cell_volume 1212.461458
_symmetry_space_group_name_H-M "P -4"
_symmetry_group_IT_number 81
_symmetry_cell_setting 'tetragonal'
loop_
_space_group_symop_operation_xyz
x,y,z
y,-x,-z
-x,-y,z
-y,x,-z
loop_
_atom_site_type_symbol
_atom_site_label
_atom_site_fract_x
_atom_site_fract_y
_atom_site_fract_z
Si Si1 0.823354 0.707518 0.005556
Si Si2 0.343150 0.394879 0.759163
Si Si3 0.443100 0.902498 0.674912
Si Si4 0.575951 0.751744 0.452565
Si Si5 0.931212 0.732077 0.615909
Si Si6 0.500000 0.500000 0.000000
Si Si7 0.778340 0.845940 0.344729
O O1 0.854815 0.620358 0.152052
O O2 0.815131 0.811447 0.128010
O O3 0.720241 0.678874 0.897617
O O4 0.909357 0.719160 0.845400
O O5 0.370044 0.343077 0.552831
O O6 0.283544 0.497186 0.712735
O O7 0.446888 0.417073 0.866977
O O8 0.522592 0.818616 0.616076
O O9 0.375867 0.935674 0.488644
O O10 0.500000 0.000000 0.755515
O O11 0.662075 0.815853 0.349614
O O12 0.843959 0.796025 0.515414
O O13 0.036589 0.789397 0.612291
#
# Coordination Sequence:
#
# PCOD8302314 Si02
#       7
#     4   4   4   4   4   1   4
#     4  11  24  42  66 102 134 169 234 284 332 409
#     4  12  23  40  61  97 139 180 225 271 329 405
#     4  11  23  41  68 102 132 181 228 275 347 406
#     4  12  22  42  67  93 140 183 222 272 338 405
#     4  11  24  48  66 100 138 172 228 289 351 411
#     4  12  24  34  56  92 136 182 220 256 322 384
#     4  11  25  44  73  94 134 185 221 285 353 407
#
# _framework density 20.619212999999998
#
# number of rings (size 3 to 8) (size 9 to 14) (size 15 to 20)
#    0.000    0.640    4.800    3.840    0.000    6.080 
#    0.000    0.000    0.000    0.000    0.000    0.000 
#    0.000    0.000    0.000    0.000    0.000    0.000 
#
# Total GULP energy -310123.478036 kJ/mol
# GULP energy per Si atom -12404.939121 kJ/mol
# Density = 2.057228 g / cm^3
# Si number density = 20.619213 Si / 1000 Ang^3
#
#
#
# Elastic Constant Matrix: (Units=GPa)
#
#
# Indices 1 2 3 4 5 6 
#
# 1 87.4742 7.9580 10.9349 0.0000 0.0000 8.2330
# 2 7.9580 87.4742 10.9349 0.0000 0.0000 -8.2330
# 3 10.9349 10.9349 85.4214 0.0000 0.0000 0.0000
# 4 0.0000 0.0000 0.0000 26.1936 0.0000 0.0000
# 5 0.0000 0.0000 0.0000 0.0000 26.1936 0.0000
# 6 8.2330 -8.2330 0.0000 0.0000 0.0000 29.4461
#
#
#
# Elastic Compliance Matrix: (Units=1/GPa)
#
#
# Indices 1 2 3 4 5 6 
#
# 1 0.012072 -0.001277 -0.001382 0.000000 0.000000 -0.003732
# 2 -0.001277 0.012072 -0.001382 0.000000 0.000000 0.003732
# 3 -0.001382 -0.001382 0.012060 0.000000 0.000000 0.000000
# 4 0.000000 0.000000 0.000000 0.038177 0.000000 0.000000
# 5 0.000000 0.000000 0.000000 0.000000 0.038177 0.000000
# 6 -0.003732 0.003732 0.000000 0.000000 0.000000 0.036047
#
#
# Mechanical properties :
#
#
# Convention : Reuss Voigt Hill
#
# Bulk Modulus (GPa) = 35.55750 35.55835 35.55792
# Shear Modulus (GPa) = 30.10915 31.73612 30.92263
#
# Velocity S-wave (km/s) = 3.82546 3.92746 3.87680
# Velocity P-wave (km/s) = 6.06585 6.15218 6.10916
#
# Compressibility (1/GPa) = 0.02812346
#
# Stress axis : x y z
#
# Youngs Moduli (GPa) = 82.83541 82.83541 82.91550
#
# Poissons Ratio (x) = 0.10576 0.11458
# Poissons Ratio (y) = 0.10576 0.11458
# Poissons Ratio (z) = 0.11447 0.11447
#
# Static dielectric constant tensor:
#      x y z
#    x 3.796330 0.000000 0.000000 
#    y 0.000000 3.796330 0.000000 
#    z 0.000000 0.000000 3.711090 
# 
# 
# High freq. dielectric constant tensor:
#      x y z
#    x 1.809920 0.000000 0.000000 
#    y 0.000000 1.809920 0.000000 
#    z 0.000000 0.000000 1.809590 
# 
# From -- ./inp_files/343.got.cif
#   From: 2010.03.12/outbox.cif.g09.slc.cpg/sg81_cif.got.tgz:343.got - 2010.04.08 20:01:38.
