data_PCOD8302824
_publ_section_title
;
Structure prediction by ZEFSAII (Michael W. Deem and Ramdas Pophale) SiO2 
 PCOD8302824
Probable space group: P 4/M
;
_chemical_formula_sum "Si O2"
_cell_formula_units_Z 40
_cell_length_a 15.543539
_cell_length_b 15.543539
_cell_length_c 7.535144
_cell_angle_alpha 90.000000
_cell_angle_beta 90.000000
_cell_angle_gamma 90.000000
_cell_volume 1820.502882
_symmetry_space_group_name_H-M "P 4/M"
_symmetry_group_IT_number 83
_symmetry_cell_setting 'tetragonal'
loop_
_space_group_symop_operation_xyz
x,y,z
-y,x,z
-x,-y,z
y,-x,z
-x,-y,-z
y,-x,-z
x,y,-z
-y,x,-z
loop_
_atom_site_type_symbol
_atom_site_label
_atom_site_fract_x
_atom_site_fract_y
_atom_site_fract_z
Si Si1 0.912516 0.676479 0.791330
Si Si2 0.899256 0.364087 0.199526
Si Si3 0.870015 0.952218 0.500000
Si Si4 0.817517 0.844351 0.801142
Si Si5 0.479508 0.788689 0.788551
Si Si6 0.643020 0.515139 0.500000
O O1 0.870180 0.764857 0.716627
O O2 0.843893 0.604249 0.742404
O O3 0.007365 0.656422 0.708084
O O4 0.921699 0.688351 0.000000
O O5 0.830642 0.285454 0.200541
O O6 0.847920 0.442769 0.286591
O O7 0.922553 0.392164 0.000000
O O8 0.822884 0.930252 0.682887
O O9 0.950141 0.889548 0.500000
O O10 0.849627 0.865789 0.000000
O O11 0.477669 0.700246 0.678622
O O12 0.486972 0.768014 0.000000
O O13 0.575797 0.593733 0.500000
#
# Coordination Sequence:
#
# PCOD8302824 Si02
#       6
#     8   8   4   8   8   4
#     4   9  18  35  61  94 129 164 206 257 313 369
#     4   9  18  35  61  94 129 164 206 257 313 369
#     4  11  24  38  54  80 112 156 213 258 300 358
#     4  10  21  37  59  86 122 164 203 251 308 366
#     4  10  22  41  69  95 125 165 207 255 312 372
#     4  11  28  48  65  94 132 166 205 256 310 373
#
# _framework density 21.971951000000001
#
# number of rings (size 3 to 8) (size 9 to 14) (size 15 to 20)
#    0.000    2.200    0.000    1.800    2.800    7.200 
#    0.000    6.000    0.000    0.000    0.000    0.000 
#    0.000    0.000    0.000    0.000    0.000    0.000 
#
# Total GULP energy -495575.967321 kJ/mol
# GULP energy per Si atom -12389.399183 kJ/mol
# Density = 2.192194 g / cm^3
# Si number density = 21.971951 Si / 1000 Ang^3
#
#
#
# Elastic Constant Matrix: (Units=GPa)
#
#
# Indices 1 2 3 4 5 6 
#
# 1 106.0570 29.4480 21.8806 0.0000 0.0000 -0.5776
# 2 29.4480 106.0570 21.8806 0.0000 0.0000 0.5776
# 3 21.8806 21.8806 76.7722 0.0000 0.0000 0.0000
# 4 0.0000 0.0000 0.0000 23.3282 0.0000 0.0000
# 5 0.0000 0.0000 0.0000 0.0000 23.3282 0.0000
# 6 -0.5776 0.5776 0.0000 0.0000 0.0000 43.3150
#
#
#
# Elastic Compliance Matrix: (Units=1/GPa)
#
#
# Indices 1 2 3 4 5 6 
#
# 1 0.010592 -0.002464 -0.002317 0.000000 0.000000 0.000174
# 2 -0.002464 0.010592 -0.002317 0.000000 0.000000 -0.000174
# 3 -0.002317 -0.002317 0.014346 0.000000 0.000000 0.000000
# 4 0.000000 0.000000 0.000000 0.042867 0.000000 0.000000
# 5 0.000000 0.000000 0.000000 0.000000 0.042867 0.000000
# 6 0.000174 -0.000174 0.000000 0.000000 0.000000 0.023091
#
#
# Mechanical properties :
#
#
# Convention : Reuss Voigt Hill
#
# Bulk Modulus (GPa) = 46.86963 48.36718 47.61841
# Shear Modulus (GPa) = 30.18224 32.37274 31.27749
#
# Velocity S-wave (km/s) = 3.71033 3.84261 3.77705
# Velocity P-wave (km/s) = 6.30343 6.46131 6.38286
#
# Compressibility (1/GPa) = 0.02133578
#
# Stress axis : x y z
#
# Youngs Moduli (GPa) = 94.41164 94.41164 69.70587
#
# Poissons Ratio (x) = 0.23263 0.16147
# Poissons Ratio (y) = 0.23263 0.16147
# Poissons Ratio (z) = 0.21871 0.21871
#
# Static dielectric constant tensor:
#      x y z
#    x 4.035360 0.000000 0.000000 
#    y 0.000000 4.035360 0.000000 
#    z 0.000000 0.000000 3.416090 
# 
# 
# High freq. dielectric constant tensor:
#      x y z
#    x 1.868880 0.000000 0.000000 
#    y 0.000000 1.868880 0.000000 
#    z 0.000000 0.000000 1.845260 
# 
# From -- ./inp_files/735.got.cif
#   From: 2010.03.12/outbox.cif.g09.slc.cpg/sg83_1_cif.got.tgz:735.got - 2010.04.08 20:05:18.
