data_PCOD8302894
_publ_section_title
;
Structure prediction by ZEFSAII (Michael W. Deem and Ramdas Pophale) SiO2 
 PCOD8302894
Probable space group: P 4/M
;
_chemical_formula_sum "Si O2"
_cell_formula_units_Z 40
_cell_length_a 14.322504
_cell_length_b 14.322504
_cell_length_c 8.919028
_cell_angle_alpha 90.000000
_cell_angle_beta 90.000000
_cell_angle_gamma 90.000000
_cell_volume 1829.596967
_symmetry_space_group_name_H-M "P 4/M"
_symmetry_group_IT_number 83
_symmetry_cell_setting 'tetragonal'
loop_
_space_group_symop_operation_xyz
x,y,z
-y,x,z
-x,-y,z
y,-x,z
-x,-y,-z
y,-x,-z
x,y,-z
-y,x,-z
loop_
_atom_site_type_symbol
_atom_site_label
_atom_site_fract_x
_atom_site_fract_y
_atom_site_fract_z
Si Si1 0.789072 0.651805 0.176915
Si Si2 0.167330 0.719579 0.326929
Si Si3 0.907708 0.120634 0.836370
Si Si4 0.998985 0.608632 0.175560
Si Si5 0.464044 0.646275 0.674611
O O1 0.722282 0.732032 0.247050
O O2 0.898763 0.653206 0.227167
O O3 0.741029 0.555715 0.232661
O O4 0.783995 0.657261 0.000000
O O5 0.180668 0.693859 0.500000
O O6 0.132924 0.825329 0.304579
O O7 0.088623 0.652978 0.256664
O O8 0.017395 0.129099 0.825393
O O9 0.875765 0.161571 0.000000
O O10 0.000000 0.500000 0.216523
O O11 0.012617 0.625309 0.000000
O O12 0.388887 0.566814 0.717101
O O13 0.458207 0.670382 0.500000
#
# Coordination Sequence:
#
# PCOD8302894 Si02
#       5
#     8   8   8   8   8
#     4  11  24  41  66  96 129 173 222 273 328 391
#     4  12  25  39  59  89 124 165 210 260 319 388
#     4   9  18  34  57  83 113 152 198 250 307 364
#     4  10  24  46  68  93 128 169 218 276 333 392
#     4   9  20  40  65  95 133 171 209 264 331 395
#
# _framework density 21.862736999999999
#
# number of rings (size 3 to 8) (size 9 to 14) (size 15 to 20)
#    0.000    1.800    0.000    4.800    2.800    8.400 
#    0.000    2.000    0.000    0.000    0.000    0.000 
#    0.000    0.000    0.000    0.000    0.000    0.000 
#
# Total GULP energy -495647.772382 kJ/mol
# GULP energy per Si atom -12391.194310 kJ/mol
# Density = 2.181298 g / cm^3
# Si number density = 21.862737 Si / 1000 Ang^3
#
#
#
# Elastic Constant Matrix: (Units=GPa)
#
#
# Indices 1 2 3 4 5 6 
#
# 1 78.9497 16.3462 34.7225 0.0000 0.0000 9.4418
# 2 16.3462 78.9497 34.7225 0.0000 0.0000 -9.4418
# 3 34.7225 34.7225 83.1994 0.0000 0.0000 0.0000
# 4 0.0000 0.0000 0.0000 26.9588 0.0000 0.0000
# 5 0.0000 0.0000 0.0000 0.0000 26.9588 0.0000
# 6 9.4418 -9.4418 0.0000 0.0000 0.0000 42.0624
#
#
#
# Elastic Compliance Matrix: (Units=1/GPa)
#
#
# Indices 1 2 3 4 5 6 
#
# 1 0.016107 -0.001027 -0.006293 0.000000 0.000000 -0.003846
# 2 -0.001027 0.016107 -0.006293 0.000000 0.000000 0.003846
# 3 -0.006293 -0.006293 0.017272 0.000000 0.000000 0.000000
# 4 0.000000 0.000000 0.000000 0.037094 0.000000 0.000000
# 5 0.000000 0.000000 0.000000 0.000000 0.037094 0.000000
# 6 -0.003846 0.003846 0.000000 0.000000 0.000000 0.025501
#
#
# Mechanical properties :
#
#
# Convention : Reuss Voigt Hill
#
# Bulk Modulus (GPa) = 44.92710 45.85348 45.39029
# Shear Modulus (GPa) = 27.20041 29.54986 28.37513
#
# Velocity S-wave (km/s) = 3.53107 3.68041 3.60651
# Velocity P-wave (km/s) = 6.10072 6.25136 6.17650
#
# Compressibility (1/GPa) = 0.02225828
#
# Stress axis : x y z
#
# Youngs Moduli (GPa) = 62.08583 62.08583 57.89608
#
# Poissons Ratio (x) = 0.06376 0.36437
# Poissons Ratio (y) = 0.06376 0.36437
# Poissons Ratio (z) = 0.39073 0.39073
#
# Static dielectric constant tensor:
#      x y z
#    x 4.118600 0.000000 0.000000 
#    y 0.000000 4.118600 0.000000 
#    z 0.000000 0.000000 3.756720 
# 
# 
# High freq. dielectric constant tensor:
#      x y z
#    x 1.871730 0.000000 0.000000 
#    y 0.000000 1.871730 0.000000 
#    z 0.000000 0.000000 1.836680 
# 
# From -- ./inp_files/688.got.cif
#   From: 2010.03.12/outbox.cif.g09.slc.cpg/sg83_1_cif.got.tgz:688.got - 2010.04.08 20:05:18.
