data_PCOD8302685
_publ_section_title
;
Structure prediction by ZEFSAII (Michael W. Deem and Ramdas Pophale) SiO2 
 PCOD8302685
Probable space group: P 4/M
;
_chemical_formula_sum "Si O2"
_cell_formula_units_Z 64
_cell_length_a 20.352649
_cell_length_b 20.352649
_cell_length_c 9.303080
_cell_angle_alpha 90.000000
_cell_angle_beta 90.000000
_cell_angle_gamma 90.000000
_cell_volume 3853.617818
_symmetry_space_group_name_H-M "P 4/M"
_symmetry_group_IT_number 83
_symmetry_cell_setting 'tetragonal'
loop_
_space_group_symop_operation_xyz
x,y,z
-y,x,z
-x,-y,z
y,-x,z
-x,-y,-z
y,-x,-z
x,y,-z
-y,x,-z
loop_
_atom_site_type_symbol
_atom_site_label
_atom_site_fract_x
_atom_site_fract_y
_atom_site_fract_z
Si Si1 0.203414 0.129650 0.339492
Si Si2 0.145917 0.424654 0.329305
Si Si3 0.745025 0.006419 0.655111
Si Si4 0.208435 0.882956 0.156846
Si Si5 0.681534 0.226213 0.159310
Si Si6 0.203236 0.687793 0.832668
Si Si7 0.598598 0.993947 0.338031
Si Si8 0.445965 0.130866 0.169945
O O1 0.205083 0.158873 0.500000
O O2 0.135424 0.149631 0.263674
O O3 0.266806 0.154674 0.256279
O O4 0.201702 0.051066 0.340088
O O5 0.155376 0.431086 0.500000
O O6 0.199138 0.371081 0.273453
O O7 0.070469 0.406323 0.289494
O O8 0.163817 0.491975 0.248523
O O9 0.749549 0.043707 0.500000
O O10 0.754181 0.053513 0.788207
O O11 0.674061 0.972847 0.667950
O O12 0.258905 0.823987 0.150915
O O13 0.179473 0.898275 0.000000
O O14 0.719222 0.294964 0.204026
O O15 0.648980 0.233019 0.000000
O O16 0.181794 0.613195 0.796535
O O17 0.190866 0.702617 0.000000
O O18 0.570003 0.985530 0.500000
O O19 0.561409 0.943304 0.233396
O O20 0.457927 0.123775 0.000000
#
# Coordination Sequence:
#
# PCOD8302685 Si02
#       8
#     8   8   8   8   8   8   8   8
#     4  10  19  31  50  71  93 121 156 200 246 294
#     4  11  22  34  49  69  99 135 169 204 241 283
#     4  10  19  32  50  71  95 124 161 200 243 293
#     4  10  20  32  49  71  95 122 155 200 249 296
#     4   9  18  33  50  69  94 123 160 201 242 283
#     4   9  19  34  50  71  97 126 161 204 245 285
#     4  10  20  34  47  67  99 134 170 205 238 280
#     4  11  22  34  50  71 100 135 170 203 241 289
#
# _framework density 16.607771
#
# number of rings (size 3 to 8) (size 9 to 14) (size 15 to 20)
#    0.000    2.000    2.500    2.625    0.000    6.500 
#    0.000    0.000    0.000    0.375    0.000    2.625 
#    0.000    0.500    0.000    5.750    0.000    2.250 
#
# Total GULP energy -793101.098182 kJ/mol
# GULP energy per Si atom -12392.204659 kJ/mol
# Density = 1.656997 g / cm^3
# Si number density = 16.607771 Si / 1000 Ang^3
#
#
#
# Elastic Constant Matrix: (Units=GPa)
#
#
# Indices 1 2 3 4 5 6 
#
# 1 58.1437 34.8520 39.2537 0.0000 0.0000 -2.0940
# 2 34.8520 58.1437 39.2537 0.0000 0.0000 2.0940
# 3 39.2537 39.2537 104.7169 0.0000 0.0000 0.0000
# 4 0.0000 0.0000 0.0000 20.9480 0.0000 0.0000
# 5 0.0000 0.0000 0.0000 0.0000 20.9480 0.0000
# 6 -2.0940 2.0940 0.0000 0.0000 0.0000 20.2392
#
#
#
# Elastic Compliance Matrix: (Units=1/GPa)
#
#
# Indices 1 2 3 4 5 6 
#
# 1 0.029740 -0.014008 -0.005897 0.000000 0.000000 0.004526
# 2 -0.014008 0.029740 -0.005897 0.000000 0.000000 -0.004526
# 3 -0.005897 -0.005897 0.013971 0.000000 0.000000 0.000000
# 4 0.000000 0.000000 0.000000 0.047737 0.000000 0.000000
# 5 0.000000 0.000000 0.000000 0.000000 0.047737 0.000000
# 6 0.004526 -0.004526 0.000000 0.000000 0.000000 0.050346
#
#
# Mechanical properties :
#
#
# Convention : Reuss Voigt Hill
#
# Bulk Modulus (GPa) = 45.77607 49.74699 47.76153
# Shear Modulus (GPa) = 17.97554 19.60338 18.78946
#
# Velocity S-wave (km/s) = 3.29349 3.43938 3.36723
# Velocity P-wave (km/s) = 6.48734 6.76695 6.62862
#
# Compressibility (1/GPa) = 0.02184547
#
# Stress axis : x y z
#
# Youngs Moduli (GPa) = 33.62529 33.62529 71.57872
#
# Poissons Ratio (x) = 0.47102 0.42210
# Poissons Ratio (y) = 0.47102 0.42210
# Poissons Ratio (z) = 0.19829 0.19829
#
# Static dielectric constant tensor:
#      x y z
#    x 3.104270 0.000000 0.000000 
#    y 0.000000 3.104270 0.000000 
#    z 0.000000 0.000000 3.332900 
# 
# 
# High freq. dielectric constant tensor:
#      x y z
#    x 1.615840 0.000000 0.000000 
#    y 0.000000 1.615840 0.000000 
#    z 0.000000 0.000000 1.654450 
# 
# From -- ./inp_files/1301.got.cif
#   From: 2010.03.12/outbox.cif.g09.slc.cpg/sg83_1_cif.got.tgz:1301.got - 2010.04.08 20:05:18.
