data_PCOD8302232
_publ_section_title
;
Structure prediction by ZEFSAII (Michael W. Deem and Ramdas Pophale) SiO2 
 PCOD8302232
Probable space group: I 41
;
_chemical_formula_sum "Si O2"
_cell_formula_units_Z 48
_cell_length_a 13.613929
_cell_length_b 13.613929
_cell_length_c 12.779594
_cell_angle_alpha 90.000000
_cell_angle_beta 90.000000
_cell_angle_gamma 90.000000
_cell_volume 2368.557975
_symmetry_space_group_name_H-M "I 41"
_symmetry_group_IT_number 80
_symmetry_cell_setting 'tetragonal'
loop_
_space_group_symop_operation_xyz
x,y,z
-y,1/2+x,1/4+z
-x,-y,z
y,1/2-x,1/4+z
1/2+x,1/2+y,1/2+z
1/2-y,x,3/4+z
1/2-x,1/2-y,1/2+z
1/2+y,-x,3/4+z
loop_
_atom_site_type_symbol
_atom_site_label
_atom_site_fract_x
_atom_site_fract_y
_atom_site_fract_z
Si Si1 0.500000 0.000000 0.410491
Si Si2 0.635292 0.553091 0.333396
Si Si3 0.160111 0.838136 0.921886
Si Si4 0.641776 0.141687 0.061210
Si Si5 0.634753 0.348106 0.048058
Si Si6 0.000000 0.500000 0.440114
Si Si7 0.540043 0.654712 0.527305
O O1 0.429611 0.067051 0.482270
O O2 0.559857 0.075305 0.339462
O O3 0.635606 0.437999 0.361268
O O4 0.590894 0.619025 0.423096
O O5 0.744645 0.591625 0.312044
O O6 0.152306 0.750187 0.835945
O O7 0.263703 0.845098 0.983918
O O8 0.076295 0.824239 0.010492
O O9 0.591184 0.245941 0.089495
O O10 0.668064 0.106710 0.176454
O O11 0.560767 0.072584 0.011787
O O12 0.074608 0.439744 0.366709
#
# Coordination Sequence:
#
# PCOD8302232 Si02
#       7
#     4   8   8   8   8   4   8
#     4  12  24  42  66  98 138 176 216 284 340 404
#     4  12  24  42  71 100 131 172 232 279 337 399
#     4  12  21  44  76 103 128 170 232 298 322 391
#     4  12  25  40  66 104 138 173 219 281 342 397
#     4  12  25  40  66 104 138 173 219 281 342 397
#     4  12  24  42  66  98 138 176 216 284 340 404
#     4  12  24  42  71 100 131 172 232 279 337 399
#
# _framework density 20.265495999999999
#
# number of rings (size 3 to 8) (size 9 to 14) (size 15 to 20)
#    0.000    0.000    8.333    3.500    0.000    0.000 
#    0.000    1.667    0.000    0.000    0.000    0.000 
#    0.000    0.000    0.000    0.000    0.000    0.000 
#
# Total GULP energy -297413.373752 kJ/mol
# GULP energy per Si atom -12392.223906 kJ/mol
# Density = 2.021937 g / cm^3
# Si number density = 20.265496 Si / 1000 Ang^3
#
#
#
# Elastic Constant Matrix: (Units=GPa)
#
#
# Indices 1 2 3 4 5 6 
#
# 1 91.9826 22.0545 21.6859 0.0000 0.0000 -0.0518
# 2 22.0545 91.9826 21.6859 0.0000 0.0000 0.0518
# 3 21.6859 21.6859 87.0547 0.0000 0.0000 0.0000
# 4 0.0000 0.0000 0.0000 32.6118 0.0000 0.0000
# 5 0.0000 0.0000 0.0000 0.0000 32.6118 0.0000
# 6 -0.0518 0.0518 0.0000 0.0000 0.0000 31.7641
#
#
#
# Elastic Compliance Matrix: (Units=1/GPa)
#
#
# Indices 1 2 3 4 5 6 
#
# 1 0.011994 -0.002307 -0.002413 0.000000 0.000000 0.000023
# 2 -0.002307 0.011994 -0.002413 0.000000 0.000000 -0.000023
# 3 -0.002413 -0.002413 0.012689 0.000000 0.000000 0.000000
# 4 0.000000 0.000000 0.000000 0.030664 0.000000 0.000000
# 5 0.000000 0.000000 0.000000 0.000000 0.030664 0.000000
# 6 0.000023 -0.000023 0.000000 0.000000 0.000000 0.031482
#
#
# Mechanical properties :
#
#
# Convention : Reuss Voigt Hill
#
# Bulk Modulus (GPa) = 44.62155 44.65251 44.63703
# Shear Modulus (GPa) = 33.06392 33.10377 33.08385
#
# Velocity S-wave (km/s) = 4.04361 4.04605 4.04483
# Velocity P-wave (km/s) = 6.62324 6.62638 6.62481
#
# Compressibility (1/GPa) = 0.02241069
#
# Stress axis : x y z
#
# Youngs Moduli (GPa) = 83.37749 83.37749 78.80686
#
# Poissons Ratio (x) = 0.19234 0.19017
# Poissons Ratio (y) = 0.19234 0.19017
# Poissons Ratio (z) = 0.20119 0.20119
#
# Static dielectric constant tensor:
#      x y z
#    x 3.820110 0.000000 0.000000 
#    y 0.000000 3.820110 0.000000 
#    z 0.000000 0.000000 3.993220 
# 
# 
# High freq. dielectric constant tensor:
#      x y z
#    x 1.784230 0.000000 0.000000 
#    y 0.000000 1.784230 0.000000 
#    z 0.000000 0.000000 1.813410 
# 
# From -- ./inp_files/1030.got.cif
#   From: 2010.03.12/outbox.cif.g09.slc.cpg/sg80_cif.got.tgz:1030.got - 2010.04.08 20:00:04.
