data_PCOD8302592
_publ_section_title
;
Structure prediction by ZEFSAII (Michael W. Deem and Ramdas Pophale) SiO2 
 PCOD8302592
Probable space group: I -4 
;
_chemical_formula_sum "Si O2"
_cell_formula_units_Z 26
_cell_length_a 10.483347
_cell_length_b 10.483347
_cell_length_c 9.527392
_cell_angle_alpha 90.000000
_cell_angle_beta 90.000000
_cell_angle_gamma 90.000000
_cell_volume 1047.065757
_symmetry_space_group_name_H-M "I -4 "
_symmetry_group_IT_number 82
_symmetry_cell_setting 'tetragonal'
loop_
_space_group_symop_operation_xyz
x,y,z
y,-x,-z
-x,-y,z
-y,x,-z
1/2+x,1/2+y,1/2+z
1/2+y,1/2-x,1/2-z
1/2-x,1/2-y,1/2+z
1/2-y,1/2+x,1/2-z
loop_
_atom_site_type_symbol
_atom_site_label
_atom_site_fract_x
_atom_site_fract_y
_atom_site_fract_z
Si Si1 0.284964 0.030507 0.544274
Si Si2 0.804239 0.254052 0.993148
Si Si3 0.500000 0.000000 0.750000
Si Si4 0.854814 0.019144 0.810957
O O1 0.262870 0.157095 0.450603
O O2 0.396712 0.067955 0.652503
O O3 0.163965 0.995385 0.644022
O O4 0.318689 0.904855 0.451053
O O5 0.820700 0.163028 0.859056
O O6 0.907840 0.226098 0.112316
O O7 0.000000 0.000000 0.852406
#
# Coordination Sequence:
#
# PCOD8302592 Si02
#       4
#     8   8   2   8
#     4  12  26  42  70 101 136 177 232 290 336 413
#     4  12  23  45  70 100 132 184 224 285 345 406
#     4  12  20  44  68  92 134 172 228 288 344 376
#     4  12  24  46  68  97 136 183 227 278 348 416
#
# _framework density 24.831298
#
# number of rings (size 3 to 8) (size 9 to 14) (size 15 to 20)
#    0.000    0.000    9.231    0.000    4.308    0.000 
#    0.000    0.000    0.000    0.000    0.000    0.000 
#    0.000    0.000    0.000    0.000    0.000    0.000 
#
# Total GULP energy -161083.304000 kJ/mol
# GULP energy per Si atom -12391.023385 kJ/mol
# Density = 2.477478 g / cm^3
# Si number density = 24.831298 Si / 1000 Ang^3
#
#
#
# Elastic Constant Matrix: (Units=GPa)
#
#
# Indices 1 2 3 4 5 6 
#
# 1 160.9510 -20.4076 23.6861 0.0000 0.0000 6.7808
# 2 -20.4076 160.9511 23.6861 0.0000 0.0000 -6.7808
# 3 23.6861 23.6861 50.2594 0.0000 0.0000 0.0000
# 4 0.0000 0.0000 0.0000 24.2129 0.0000 0.0000
# 5 0.0000 0.0000 0.0000 0.0000 24.2129 0.0000
# 6 6.7808 -6.7808 0.0000 0.0000 0.0000 29.2265
#
#
#
# Elastic Compliance Matrix: (Units=1/GPa)
#
#
# Indices 1 2 3 4 5 6 
#
# 1 0.007035 0.001424 -0.003987 0.000000 0.000000 -0.001302
# 2 0.001424 0.007035 -0.003987 0.000000 0.000000 0.001302
# 3 -0.003987 -0.003987 0.023654 0.000000 0.000000 0.000000
# 4 0.000000 0.000000 0.000000 0.041300 0.000000 0.000000
# 5 0.000000 0.000000 0.000000 0.000000 0.041300 0.000000
# 6 -0.001302 0.001302 0.000000 0.000000 0.000000 0.034820
#
#
# Mechanical properties :
#
#
# Convention : Reuss Voigt Hill
#
# Bulk Modulus (GPa) = 40.60729 47.34343 43.97536
# Shear Modulus (GPa) = 28.33637 38.54360 33.43998
#
# Velocity S-wave (km/s) = 3.38176 3.94409 3.67370
# Velocity P-wave (km/s) = 5.62470 6.31257 5.97854
#
# Compressibility (1/GPa) = 0.02462612
#
# Stress axis : x y z
#
# Youngs Moduli (GPa) = 142.14400 142.14400 42.27568
#
# Poissons Ratio (x) = -0.20239 0.16853
# Poissons Ratio (y) = -0.20239 0.16853
# Poissons Ratio (z) = 0.56666 0.56666
#
# Static dielectric constant tensor:
#      x y z
#    x 4.901420 0.000000 0.000000 
#    y 0.000000 4.901420 0.000000 
#    z 0.000000 0.000000 3.831110 
# 
# 
# High freq. dielectric constant tensor:
#      x y z
#    x 2.012380 0.000000 0.000000 
#    y 0.000000 2.012380 0.000000 
#    z 0.000000 0.000000 1.928590 
# 
# From -- ./inp_files/617.got.cif
#   From: 2010.03.12/outbox.cif.g09.slc.cpg/sg82_1_cif.got.tgz:617.got - 2010.04.08 20:02:50.
