data_PCOD8302024
_publ_section_title
;
Structure prediction by ZEFSAII (Michael W. Deem and Ramdas Pophale) SiO2 
 PCOD8302024
Probable space group: P 43
;
_chemical_formula_sum "Si O2"
_cell_formula_units_Z 32
_cell_length_a 9.466160
_cell_length_b 9.466160
_cell_length_c 17.139439
_cell_angle_alpha 90.000000
_cell_angle_beta 90.000000
_cell_angle_gamma 90.000000
_cell_volume 1535.834023
_symmetry_space_group_name_H-M "P 43"
_symmetry_group_IT_number 78
_symmetry_cell_setting 'tetragonal'
loop_
_space_group_symop_operation_xyz
x,y,z
-y,x,3/4+z
-x,-y,1/2+z
y,-x,1/4+z
loop_
_atom_site_type_symbol
_atom_site_label
_atom_site_fract_x
_atom_site_fract_y
_atom_site_fract_z
Si Si1 0.710921 0.167504 0.273040
Si Si2 0.637358 0.949180 0.532241
Si Si3 0.891967 0.280833 0.615627
Si Si4 0.272967 0.409243 0.805119
Si Si5 0.408715 0.775592 0.605864
Si Si6 0.914331 0.966884 0.619243
Si Si7 0.966322 0.810360 0.771860
Si Si8 0.547936 0.368027 0.382993
O O1 0.626843 0.180315 0.193243
O O2 0.621093 0.236327 0.341758
O O3 0.868168 0.235311 0.265205
O O4 0.718502 0.003865 0.295357
O O5 0.616855 0.925949 0.438906
O O6 0.565553 0.825788 0.583375
O O7 0.802385 0.933650 0.551795
O O8 0.576652 0.103145 0.555848
O O9 0.749068 0.324082 0.571868
O O10 0.885123 0.123795 0.651266
O O11 0.345939 0.500558 0.872962
O O12 0.335152 0.468400 0.724164
O O13 0.316127 0.864504 0.545079
O O14 0.395604 0.606694 0.595622
O O15 0.902777 0.859116 0.690034
O O16 0.071543 0.952951 0.587339
#
# Coordination Sequence:
#
# PCOD8302024 Si02
#       8
#     4   4   4   4   4   4   4   4
#     4  11  24  43  69  98 132 171 231 272 335 402
#     4  11  24  45  66 102 135 172 224 279 331 405
#     4  10  23  42  71 102 127 175 224 277 332 407
#     4  11  26  45  73  93 139 182 220 274 342 409
#     4  12  28  41  67  97 136 176 224 279 331 399
#     4  10  21  41  68  97 136 166 217 279 336 391
#     4  11  22  41  68  99 128 174 220 276 337 392
#     4  12  26  48  64  96 137 184 224 272 332 407
#
# _framework density 20.835583
#
# number of rings (size 3 to 8) (size 9 to 14) (size 15 to 20)
#    0.000    1.000    5.000    0.750    7.000    0.000 
#    0.000    0.000    0.000    0.000    0.000    0.000 
#    0.000    0.000    0.000    0.000    0.000    0.000 
#
# Total GULP energy -396825.559075 kJ/mol
# GULP energy per Si atom -12400.798721 kJ/mol
# Density = 2.078816 g / cm^3
# Si number density = 20.835583 Si / 1000 Ang^3
#
#
#
# Elastic Constant Matrix: (Units=GPa)
#
#
# Indices 1 2 3 4 5 6 
#
# 1 84.9749 29.0307 12.1790 0.0000 0.0000 -3.9181
# 2 29.0307 84.9749 12.1790 0.0000 0.0000 3.9181
# 3 12.1790 12.1790 72.6747 0.0000 0.0000 0.0000
# 4 0.0000 0.0000 0.0000 33.7877 0.0000 0.0000
# 5 0.0000 0.0000 0.0000 0.0000 33.7877 0.0000
# 6 -3.9181 3.9181 0.0000 0.0000 0.0000 35.4227
#
#
#
# Elastic Compliance Matrix: (Units=1/GPa)
#
#
# Indices 1 2 3 4 5 6 
#
# 1 0.013627 -0.004530 -0.001525 0.000000 0.000000 0.002008
# 2 -0.004530 0.013627 -0.001525 0.000000 0.000000 -0.002008
# 3 -0.001525 -0.001525 0.014271 0.000000 0.000000 0.000000
# 4 0.000000 0.000000 0.000000 0.029597 0.000000 0.000000
# 5 0.000000 0.000000 0.000000 0.000000 0.029597 0.000000
# 6 0.002008 -0.002008 0.000000 0.000000 0.000000 0.028675
#
#
# Mechanical properties :
#
#
# Convention : Reuss Voigt Hill
#
# Bulk Modulus (GPa) = 37.92586 38.82243 38.37415
# Shear Modulus (GPa) = 32.60760 33.21535 32.91147
#
# Velocity S-wave (km/s) = 3.96029 3.99703 3.97870
# Velocity P-wave (km/s) = 6.25731 6.32257 6.29002
#
# Compressibility (1/GPa) = 0.02636723
#
# Stress axis : x y z
#
# Youngs Moduli (GPa) = 73.38517 73.38517 70.07259
#
# Poissons Ratio (x) = 0.33240 0.10683
# Poissons Ratio (y) = 0.33240 0.10683
# Poissons Ratio (z) = 0.11188 0.11188
#
# Static dielectric constant tensor:
#      x y z
#    x 3.787170 0.000000 0.000000 
#    y 0.000000 3.787170 0.000000 
#    z 0.000000 0.000000 3.680590 
# 
# 
# High freq. dielectric constant tensor:
#      x y z
#    x 1.815880 0.000000 0.000000 
#    y 0.000000 1.815880 0.000000 
#    z 0.000000 0.000000 1.820260 
# 
# From -- ./inp_files/1337.got.cif
#   From: 2010.03.12/outbox.cif.g09.slc.cpg/sg78_cif.got.tgz:1337.got - 2010.04.16 16:37:20.
