data_PCOD8302360
_publ_section_title
;
Structure prediction by ZEFSAII (Michael W. Deem and Ramdas Pophale) SiO2 
 PCOD8302360
Probable space group: I -4 
;
_chemical_formula_sum "Si O2"
_cell_formula_units_Z 48
_cell_length_a 8.783561
_cell_length_b 8.783561
_cell_length_c 31.048846
_cell_angle_alpha 90.000000
_cell_angle_beta 90.000000
_cell_angle_gamma 90.000000
_cell_volume 2395.447774
_symmetry_space_group_name_H-M "I -4 "
_symmetry_group_IT_number 82
_symmetry_cell_setting 'tetragonal'
loop_
_space_group_symop_operation_xyz
x,y,z
y,-x,-z
-x,-y,z
-y,x,-z
1/2+x,1/2+y,1/2+z
1/2+y,1/2-x,1/2-z
1/2-x,1/2-y,1/2+z
1/2-y,1/2+x,1/2-z
loop_
_atom_site_type_symbol
_atom_site_label
_atom_site_fract_x
_atom_site_fract_y
_atom_site_fract_z
Si Si1 0.165055 0.480455 0.312872
Si Si2 0.500000 0.000000 0.607588
Si Si3 0.205631 0.342152 0.684455
Si Si4 0.157719 0.916191 0.242096
Si Si5 0.755980 0.942101 0.449514
Si Si6 0.000000 0.500000 0.885817
Si Si7 0.557165 0.259995 0.952430
O O1 0.262156 0.632397 0.323229
O O2 0.256319 0.361886 0.283267
O O3 0.000000 0.500000 0.289277
O O4 0.124438 0.416298 0.360938
O O5 0.619798 0.909035 0.578697
O O6 0.103289 0.219951 0.709759
O O7 0.222874 0.488124 0.714811
O O8 0.121489 0.401857 0.641701
O O9 0.000000 0.000000 0.247256
O O10 0.700205 0.928665 0.498764
O O11 0.888107 0.819761 0.442199
O O12 0.617857 0.909507 0.416676
O O13 0.819957 0.111332 0.441971
#
# Coordination Sequence:
#
# PCOD8302360 Si02
#       7
#     8   4   8   8   8   4   8
#     4   9  23  36  61  86 114 154 214 256 297 359
#     4  10  19  32  61  88 109 145 202 257 285 354
#     4  11  23  40  57  88 119 161 199 258 312 375
#     4  10  23  41  61  82 119 163 202 257 314 370
#     4   9  20  36  59  86 123 161 193 249 295 370
#     4  12  23  35  58  92 127 153 198 254 318 368
#     4   9  18  38  60  86 119 160 205 236 302 361
#
# _framework density 20.038008000000001
#
# number of rings (size 3 to 8) (size 9 to 14) (size 15 to 20)
#    0.500    1.667    0.000    3.500    7.000    0.000 
#    6.000    0.000    0.000    0.000    0.000    4.667 
#    0.000    0.000    0.000    0.000    0.000    0.000 
#
# Total GULP energy -297398.884942 kJ/mol
# GULP energy per Si atom -12391.620206 kJ/mol
# Density = 1.999240 g / cm^3
# Si number density = 20.038008 Si / 1000 Ang^3
#
#
#
# Elastic Constant Matrix: (Units=GPa)
#
#
# Indices 1 2 3 4 5 6 
#
# 1 67.9737 6.8807 38.4565 0.0000 0.0000 -0.2356
# 2 6.8807 67.9737 38.4565 0.0000 0.0000 0.2356
# 3 38.4565 38.4565 122.3043 0.0000 0.0000 0.0000
# 4 0.0000 0.0000 0.0000 28.1369 0.0000 0.0000
# 5 0.0000 0.0000 0.0000 0.0000 28.1369 0.0000
# 6 -0.2356 0.2356 0.0000 0.0000 0.0000 21.9227
#
#
#
# Elastic Compliance Matrix: (Units=1/GPa)
#
#
# Indices 1 2 3 4 5 6 
#
# 1 0.018053 0.001683 -0.006205 0.000000 0.000000 0.000176
# 2 0.001683 0.018053 -0.006205 0.000000 0.000000 -0.000176
# 3 -0.006205 -0.006205 0.012079 0.000000 0.000000 0.000000
# 4 0.000000 0.000000 0.000000 0.035541 0.000000 0.000000
# 5 0.000000 0.000000 0.000000 0.000000 0.035541 0.000000
# 6 0.000176 -0.000176 0.000000 0.000000 0.000000 0.045619
#
#
# Mechanical properties :
#
#
# Convention : Reuss Voigt Hill
#
# Bulk Modulus (GPa) = 37.41442 47.31544 42.36493
# Shear Modulus (GPa) = 25.60833 27.26983 26.43908
#
# Velocity S-wave (km/s) = 3.57877 3.69305 3.63636
# Velocity P-wave (km/s) = 5.98240 6.46907 6.23049
#
# Compressibility (1/GPa) = 0.02672766
#
# Stress axis : x y z
#
# Youngs Moduli (GPa) = 55.39370 55.39369 82.79030
#
# Poissons Ratio (x) = -0.09321 0.51375
# Poissons Ratio (y) = -0.09321 0.51375
# Poissons Ratio (z) = 0.34374 0.34374
#
# Static dielectric constant tensor:
#      x y z
#    x 3.562620 0.000000 0.000000 
#    y 0.000000 3.562620 0.000000 
#    z 0.000000 0.000000 3.671230 
# 
# 
# High freq. dielectric constant tensor:
#      x y z
#    x 1.771450 0.000000 0.000000 
#    y 0.000000 1.771450 0.000000 
#    z 0.000000 0.000000 1.791760 
# 
# From -- ./inp_files/4082.got.cif
#   From: 2010.03.12/outbox.cif.g09.slc.cpg/sg82_3_cif.got.tgz:4082.got - 2010.04.08 20:02:50.
