data_PCOD8302483
_publ_section_title
;
Structure prediction by ZEFSAII (Michael W. Deem and Ramdas Pophale) SiO2 
 PCOD8302483
Probable space group: I -4 
;
_chemical_formula_sum "Si O2"
_cell_formula_units_Z 40
_cell_length_a 14.263823
_cell_length_b 14.263823
_cell_length_c 9.147037
_cell_angle_alpha 90.000000
_cell_angle_beta 90.000000
_cell_angle_gamma 90.000000
_cell_volume 1861.025474
_symmetry_space_group_name_H-M "I -4 "
_symmetry_group_IT_number 82
_symmetry_cell_setting 'tetragonal'
loop_
_space_group_symop_operation_xyz
x,y,z
y,-x,-z
-x,-y,z
-y,x,-z
1/2+x,1/2+y,1/2+z
1/2+y,1/2-x,1/2-z
1/2-x,1/2-y,1/2+z
1/2-y,1/2+x,1/2-z
loop_
_atom_site_type_symbol
_atom_site_label
_atom_site_fract_x
_atom_site_fract_y
_atom_site_fract_z
Si Si1 0.402299 0.609124 0.036739
Si Si2 0.422735 0.128926 0.736091
Si Si3 0.764210 0.570781 0.740964
Si Si4 0.702363 0.783465 0.984807
Si Si5 0.885428 0.690693 0.920399
O O1 0.415152 0.658882 0.195815
O O2 0.315693 0.660615 0.953923
O O3 0.498282 0.620386 0.942467
O O4 0.527982 0.122034 0.794272
O O5 0.365342 0.184856 0.855903
O O6 0.424991 0.183560 0.583376
O O7 0.789052 0.642788 0.613100
O O8 0.841449 0.591229 0.867296
O O9 0.774883 0.465391 0.688650
O O10 0.804292 0.768699 0.914480
#
# Coordination Sequence:
#
# PCOD8302483 Si02
#       5
#     8   8   8   8   8
#     4  10  23  44  68  99 139 186 235 286 350 422
#     4  11  25  44  69 100 142 182 231 294 364 419
#     4  11  24  44  70 101 135 177 238 290 344 424
#     4  11  24  47  69 101 138 182 236 292 354 418
#     4  11  24  42  68 100 135 182 225 295 347 417
#
# _framework density 21.493528999999999
#
# number of rings (size 3 to 8) (size 9 to 14) (size 15 to 20)
#    0.000    1.200    2.000    3.600    8.400    2.000 
#    3.600    0.000    0.000    0.000    0.000    0.000 
#    0.000    0.000    0.000    0.000    0.000    0.000 
#
# Total GULP energy -247977.805105 kJ/mol
# GULP energy per Si atom -12398.890255 kJ/mol
# Density = 2.144461 g / cm^3
# Si number density = 21.493529 Si / 1000 Ang^3
#
#
#
# Elastic Constant Matrix: (Units=GPa)
#
#
# Indices 1 2 3 4 5 6 
#
# 1 108.1182 47.3360 25.9124 0.0000 0.0000 5.7991
# 2 47.3360 108.1182 25.9124 0.0000 0.0000 -5.7991
# 3 25.9124 25.9124 89.6214 0.0000 0.0000 0.0000
# 4 0.0000 0.0000 0.0000 39.7448 0.0000 0.0000
# 5 0.0000 0.0000 0.0000 0.0000 39.7448 0.0000
# 6 5.7991 -5.7991 0.0000 0.0000 0.0000 24.6892
#
#
#
# Elastic Compliance Matrix: (Units=1/GPa)
#
#
# Indices 1 2 3 4 5 6 
#
# 1 0.012172 -0.005053 -0.002058 0.000000 0.000000 -0.004046
# 2 -0.005053 0.012172 -0.002058 0.000000 0.000000 0.004046
# 3 -0.002058 -0.002058 0.012348 0.000000 0.000000 0.000000
# 4 0.000000 0.000000 0.000000 0.025161 0.000000 0.000000
# 5 0.000000 0.000000 0.000000 0.000000 0.025161 0.000000
# 6 -0.004046 0.004046 0.000000 0.000000 0.000000 0.042404
#
#
# Mechanical properties :
#
#
# Convention : Reuss Voigt Hill
#
# Bulk Modulus (GPa) = 54.48718 56.01995 55.25356
# Shear Modulus (GPa) = 32.49436 34.61553 33.55495
#
# Velocity S-wave (km/s) = 3.89243 4.01747 3.95544
# Velocity P-wave (km/s) = 6.75329 6.90219 6.82815
#
# Compressibility (1/GPa) = 0.01835294
#
# Stress axis : x y z
#
# Youngs Moduli (GPa) = 82.15863 82.15863 80.98276
#
# Poissons Ratio (x) = 0.41512 0.16669
# Poissons Ratio (y) = 0.41512 0.16669
# Poissons Ratio (z) = 0.16911 0.16911
#
# Static dielectric constant tensor:
#      x y z
#    x 4.086240 0.000000 0.000000 
#    y 0.000000 4.086240 0.000000 
#    z 0.000000 0.000000 3.895090 
# 
# 
# High freq. dielectric constant tensor:
#      x y z
#    x 1.852420 0.000000 0.000000 
#    y 0.000000 1.852420 0.000000 
#    z 0.000000 0.000000 1.835980 
# 
# From -- ./inp_files/921.got.cif
#   From: 2010.03.12/outbox.cif.g09.slc.cpg/sg82_1_cif.got.tgz:921.got - 2010.04.08 20:02:50.
