data_PCOD8302148
_publ_section_title
;
Structure prediction by ZEFSAII (Michael W. Deem and Ramdas Pophale) SiO2 
 PCOD8302148
Probable space group: I 41
;
_chemical_formula_sum "Si O2"
_cell_formula_units_Z 56
_cell_length_a 21.419013
_cell_length_b 21.419013
_cell_length_c 7.309633
_cell_angle_alpha 90.000000
_cell_angle_beta 90.000000
_cell_angle_gamma 90.000000
_cell_volume 3353.470432
_symmetry_space_group_name_H-M "I 41"
_symmetry_group_IT_number 80
_symmetry_cell_setting 'tetragonal'
loop_
_space_group_symop_operation_xyz
x,y,z
-y,1/2+x,1/4+z
-x,-y,z
y,1/2-x,1/4+z
1/2+x,1/2+y,1/2+z
1/2-y,x,3/4+z
1/2-x,1/2-y,1/2+z
1/2+y,-x,3/4+z
loop_
_atom_site_type_symbol
_atom_site_label
_atom_site_fract_x
_atom_site_fract_y
_atom_site_fract_z
Si Si1 0.871433 0.113959 0.888560
Si Si2 0.287077 0.820980 0.388413
Si Si3 0.930092 0.997291 0.716017
Si Si4 0.264231 0.575958 0.643763
Si Si5 0.520147 0.126229 0.095825
Si Si6 0.050676 0.054501 0.074046
Si Si7 0.450133 0.637696 0.718090
O O1 0.860732 0.153958 0.706772
O O2 0.918218 0.058667 0.837691
O O3 0.806509 0.085872 0.964523
O O4 0.905321 0.154059 0.046788
O O5 0.244809 0.810443 0.564911
O O6 0.251466 0.856439 0.226768
O O7 0.879972 0.992863 0.551801
O O8 0.924352 0.939782 0.862667
O O9 0.000000 0.000000 0.630793
O O10 0.301835 0.536736 0.798659
O O11 0.199846 0.541407 0.590017
O O12 0.465226 0.106647 0.957718
O O13 0.581824 0.082674 0.082209
O O14 0.019123 0.118014 0.148331
O O15 0.000000 0.000000 0.072623
#
# Coordination Sequence:
#
# PCOD8302148 Si02
#       7
#     8   8   8   8   8   8   8
#     4  11  20  33  49  68  95 133 175 224 268 310
#     4  12  23  34  44  62  91 138 193 228 260 303
#     4  11  17  31  55  75  93 124 175 219 274 321
#     4  11  21  34  47  68 100 136 169 225 273 310
#     4  10  20  32  51  71 101 133 170 221 269 310
#     4   9  16  33  49  74  93 122 168 217 268 316
#     4  10  18  33  50  70 100 128 172 218 264 328
#
# _framework density 16.699117999999999
#
# number of rings (size 3 to 8) (size 9 to 14) (size 15 to 20)
#    0.000    1.429    5.714    6.429    0.000    0.000 
#    0.000    0.000    0.000    0.000    0.000    0.000 
#    0.000    0.000    0.000   10.286    0.000    0.000 
#
# Total GULP energy -347132.310952 kJ/mol
# GULP energy per Si atom -12397.582534 kJ/mol
# Density = 1.666111 g / cm^3
# Si number density = 16.699118 Si / 1000 Ang^3
#
#
#
# Elastic Constant Matrix: (Units=GPa)
#
#
# Indices 1 2 3 4 5 6 
#
# 1 61.7182 43.9342 30.4561 0.0000 0.0000 -0.0058
# 2 43.9342 61.7182 30.4561 0.0000 0.0000 0.0058
# 3 30.4561 30.4561 93.5425 0.0000 0.0000 0.0000
# 4 0.0000 0.0000 0.0000 30.3090 0.0000 0.0000
# 5 0.0000 0.0000 0.0000 0.0000 30.3090 0.0000
# 6 -0.0058 0.0058 0.0000 0.0000 0.0000 21.8701
#
#
#
# Elastic Compliance Matrix: (Units=1/GPa)
#
#
# Indices 1 2 3 4 5 6 
#
# 1 0.033941 -0.022289 -0.003794 0.000000 0.000000 0.000015
# 2 -0.022289 0.033941 -0.003794 0.000000 0.000000 -0.000015
# 3 -0.003794 -0.003794 0.013161 0.000000 0.000000 0.000000
# 4 0.000000 0.000000 0.000000 0.032993 0.000000 0.000000
# 5 0.000000 0.000000 0.000000 0.000000 0.032993 0.000000
# 6 0.000015 -0.000015 0.000000 0.000000 0.000000 0.045725
#
#
# Mechanical properties :
#
#
# Convention : Reuss Voigt Hill
#
# Bulk Modulus (GPa) = 46.97035 47.40798 47.18916
# Shear Modulus (GPa) = 19.26003 23.97311 21.61657
#
# Velocity S-wave (km/s) = 3.39979 3.79303 3.60178
# Velocity P-wave (km/s) = 6.60303 6.90173 6.75403
#
# Compressibility (1/GPa) = 0.02129003
#
# Stress axis : x y z
#
# Youngs Moduli (GPa) = 29.46264 29.46264 75.98349
#
# Poissons Ratio (x) = 0.65669 0.28827
# Poissons Ratio (y) = 0.65669 0.28827
# Poissons Ratio (z) = 0.11178 0.11178
#
# Static dielectric constant tensor:
#      x y z
#    x 2.974460 0.000000 0.000000 
#    y 0.000000 2.974460 0.000000 
#    z 0.000000 0.000000 3.334110 
# 
# 
# High freq. dielectric constant tensor:
#      x y z
#    x 1.608370 0.000000 0.000000 
#    y 0.000000 1.608370 0.000000 
#    z 0.000000 0.000000 1.664160 
# 
# From -- ./inp_files/790.got.cif
#   From: 2010.03.12/outbox.cif.g09.slc.cpg/sg80_cif.got.tgz:790.got - 2010.04.08 20:00:04.
