data_PCOD8302409
_publ_section_title
;
Structure prediction by ZEFSAII (Michael W. Deem and Ramdas Pophale) SiO2 
 PCOD8302409
Probable space group: I -4 
;
_chemical_formula_sum "Si O2"
_cell_formula_units_Z 42
_cell_length_a 8.671135
_cell_length_b 8.671135
_cell_length_c 26.869905
_cell_angle_alpha 90.000000
_cell_angle_beta 90.000000
_cell_angle_gamma 90.000000
_cell_volume 2020.310060
_symmetry_space_group_name_H-M "I -4 "
_symmetry_group_IT_number 82
_symmetry_cell_setting 'tetragonal'
loop_
_space_group_symop_operation_xyz
x,y,z
y,-x,-z
-x,-y,z
-y,x,-z
1/2+x,1/2+y,1/2+z
1/2+y,1/2-x,1/2-z
1/2-x,1/2-y,1/2+z
1/2-y,1/2+x,1/2-z
loop_
_atom_site_type_symbol
_atom_site_label
_atom_site_fract_x
_atom_site_fract_y
_atom_site_fract_z
Si Si1 0.500000 0.500000 0.500000
Si Si2 0.742351 0.502097 0.830369
Si Si3 0.752126 0.501201 0.170843
Si Si4 0.500000 0.000000 0.750000
Si Si5 0.827523 0.522900 0.938876
Si Si6 0.500000 0.000000 0.250000
Si Si7 0.231588 0.698810 0.471754
Si Si8 0.000000 0.500000 0.409070
O O1 0.406868 0.632678 0.470160
O O2 0.650139 0.347067 0.844803
O O3 0.633100 0.638546 0.811447
O O4 0.823939 0.564817 0.880479
O O5 0.856737 0.463789 0.785568
O O6 0.855074 0.551032 0.217312
O O7 0.859138 0.440691 0.125511
O O8 0.729702 0.366170 0.946337
O O9 0.000000 0.500000 0.957206
O O10 0.765909 0.664084 0.972856
O O11 0.134289 0.568901 0.443049
#
# Coordination Sequence:
#
# PCOD8302409 Si02
#       8
#     2   8   8   2   8   2   8   4
#     4  12  24  40  64  88 132 176 216 272 316 396
#     4  11  24  41  63  96 125 174 215 279 323 402
#     4  10  23  40  67  89 127 157 219 266 337 389
#     4  10  20  44  64  90 116 160 200 278 328 398
#     4  12  25  42  65  98 135 175 224 270 334 400
#     4  12  24  42  68  90 136 170 228 268 340 386
#     4  12  25  42  66  96 136 176 220 273 335 398
#     4  11  22  42  64  98 124 174 214 275 330 402
#
# _framework density 20.788886000000002
#
# number of rings (size 3 to 8) (size 9 to 14) (size 15 to 20)
#    0.000    0.762    5.714    1.143    5.333    0.381 
#    0.000    0.000    0.000    0.000    0.000    0.000 
#    0.000    0.000    0.000    0.000    0.000    0.000 
#
# Total GULP energy -260345.359540 kJ/mol
# GULP energy per Si atom -12397.398073 kJ/mol
# Density = 2.074157 g / cm^3
# Si number density = 20.788886 Si / 1000 Ang^3
#
#
#
# Elastic Constant Matrix: (Units=GPa)
#
#
# Indices 1 2 3 4 5 6 
#
# 1 91.4412 23.8786 30.0760 0.0000 0.0000 -3.9244
# 2 23.8786 91.4412 30.0760 0.0000 0.0000 3.9244
# 3 30.0760 30.0760 121.1813 0.0000 0.0000 0.0000
# 4 0.0000 0.0000 0.0000 31.1825 0.0000 0.0000
# 5 0.0000 0.0000 0.0000 0.0000 31.1825 0.0000
# 6 -3.9244 3.9244 0.0000 0.0000 0.0000 30.9014
#
#
#
# Elastic Compliance Matrix: (Units=1/GPa)
#
#
# Indices 1 2 3 4 5 6 
#
# 1 0.012492 -0.002531 -0.002472 0.000000 0.000000 0.001908
# 2 -0.002531 0.012492 -0.002472 0.000000 0.000000 -0.001908
# 3 -0.002472 -0.002472 0.009479 0.000000 0.000000 0.000000
# 4 0.000000 0.000000 0.000000 0.032069 0.000000 0.000000
# 5 0.000000 0.000000 0.000000 0.000000 0.032069 0.000000
# 6 0.001908 -0.001908 0.000000 0.000000 0.000000 0.032846
#
#
# Mechanical properties :
#
#
# Convention : Reuss Voigt Hill
#
# Bulk Modulus (GPa) = 51.24927 52.45831 51.85379
# Shear Modulus (GPa) = 32.70071 33.32217 33.01144
#
# Velocity S-wave (km/s) = 3.97040 4.00795 3.98922
# Velocity P-wave (km/s) = 6.76199 6.83424 6.79821
#
# Compressibility (1/GPa) = 0.01951247
#
# Stress axis : x y z
#
# Youngs Moduli (GPa) = 80.05191 80.05189 105.49337
#
# Poissons Ratio (x) = 0.20260 0.26080
# Poissons Ratio (y) = 0.20260 0.26080
# Poissons Ratio (z) = 0.19791 0.19791
#
# Static dielectric constant tensor:
#      x y z
#    x 3.739200 0.000000 0.000000 
#    y 0.000000 3.739200 0.000000 
#    z 0.000000 0.000000 3.688930 
# 
# 
# High freq. dielectric constant tensor:
#      x y z
#    x 1.815690 0.000000 0.000000 
#    y 0.000000 1.815690 0.000000 
#    z 0.000000 0.000000 1.814510 
# 
# From -- ./inp_files/3765.got.cif
#   From: 2010.03.12/outbox.cif.g09.slc.cpg/sg82_2_cif.got.tgz:3765.got - 2010.04.08 20:02:50.
