data_PCOD8302060
_publ_section_title
;
Structure prediction by ZEFSAII (Michael W. Deem and Ramdas Pophale) SiO2 
 PCOD8302060
Probable space group: P 43
;
_chemical_formula_sum "Si O2"
_cell_formula_units_Z 28
_cell_length_a 12.245304
_cell_length_b 12.245304
_cell_length_c 7.679349
_cell_angle_alpha 90.000000
_cell_angle_beta 90.000000
_cell_angle_gamma 90.000000
_cell_volume 1151.498954
_symmetry_space_group_name_H-M "P 43"
_symmetry_group_IT_number 78
_symmetry_cell_setting 'tetragonal'
loop_
_space_group_symop_operation_xyz
x,y,z
-y,x,3/4+z
-x,-y,1/2+z
y,-x,1/4+z
loop_
_atom_site_type_symbol
_atom_site_label
_atom_site_fract_x
_atom_site_fract_y
_atom_site_fract_z
Si Si1 0.790834 0.319979 0.544050
Si Si2 0.481086 0.918446 0.420915
Si Si3 0.437034 0.633153 0.001120
Si Si4 0.153906 0.518292 0.556310
Si Si5 0.255031 0.170638 0.431416
Si Si6 0.932713 0.758271 0.684350
Si Si7 0.915097 0.106121 0.634376
O O1 0.855654 0.434192 0.547786
O O2 0.669131 0.337532 0.623619
O O3 0.756141 0.288360 0.345914
O O4 0.865220 0.227845 0.633316
O O5 0.477065 0.868062 0.612896
O O6 0.358068 0.900148 0.348063
O O7 0.509772 0.047696 0.425334
O O8 0.404704 0.534417 0.873520
O O9 0.466513 0.738765 0.887135
O O10 0.170449 0.649150 0.537888
O O11 0.145009 0.208785 0.341613
O O12 0.246942 0.051452 0.523220
O O13 0.952897 0.846582 0.534422
O O14 0.897451 0.041800 0.450834
#
# Coordination Sequence:
#
# PCOD8302060 Si02
#       7
#     4   4   4   4   4   4   4
#     4  12  29  47  77 109 154 208 262 321 396 465
#     4  11  26  45  79 107 151 202 260 324 385 465
#     4  12  30  52  79 114 160 205 269 331 404 471
#     4  11  25  49  75 112 148 201 262 322 393 464
#     4  11  24  46  73 109 147 203 252 320 385 465
#     4  11  24  44  74 107 154 193 256 314 385 465
#     4  12  30  49  77 114 160 202 255 318 396 477
#
# _framework density 24.316130999999999
#
# number of rings (size 3 to 8) (size 9 to 14) (size 15 to 20)
#    0.000    0.571    2.857    3.429   12.000    0.000 
#    0.000    0.000    0.000    0.000    0.000    0.000 
#    0.000    0.000    0.000    0.000    0.000    0.000 
#
# Total GULP energy -347119.173693 kJ/mol
# GULP energy per Si atom -12397.113346 kJ/mol
# Density = 2.426079 g / cm^3
# Si number density = 24.316131 Si / 1000 Ang^3
#
#
#
# Elastic Constant Matrix: (Units=GPa)
#
#
# Indices 1 2 3 4 5 6 
#
# 1 150.4451 62.4634 20.1271 0.0000 0.0000 -5.0250
# 2 62.4634 150.4451 20.1271 0.0000 0.0000 5.0250
# 3 20.1271 20.1271 53.3843 0.0000 0.0000 0.0000
# 4 0.0000 0.0000 0.0000 38.7225 0.0000 0.0000
# 5 0.0000 0.0000 0.0000 0.0000 38.7225 0.0000
# 6 -5.0250 5.0250 0.0000 0.0000 0.0000 29.6776
#
#
#
# Elastic Compliance Matrix: (Units=1/GPa)
#
#
# Indices 1 2 3 4 5 6 
#
# 1 0.008324 -0.003266 -0.001907 0.000000 0.000000 0.001962
# 2 -0.003266 0.008324 -0.001907 0.000000 0.000000 -0.001962
# 3 -0.001907 -0.001907 0.020170 0.000000 0.000000 0.000000
# 4 0.000000 0.000000 0.000000 0.025825 0.000000 0.000000
# 5 0.000000 0.000000 0.000000 0.000000 0.025825 0.000000
# 6 0.001962 -0.001962 0.000000 0.000000 0.000000 0.034360
#
#
# Mechanical properties :
#
#
# Convention : Reuss Voigt Hill
#
# Bulk Modulus (GPa) = 44.13526 62.18996 53.16261
# Shear Modulus (GPa) = 34.59270 38.19500 36.39385
#
# Velocity S-wave (km/s) = 3.77586 3.96759 3.87291
# Velocity P-wave (km/s) = 6.09914 6.82790 6.47378
#
# Compressibility (1/GPa) = 0.02265762
#
# Stress axis : x y z
#
# Youngs Moduli (GPa) = 120.13803 120.13803 49.57893
#
# Poissons Ratio (x) = 0.39242 0.09453
# Poissons Ratio (y) = 0.39242 0.09453
# Poissons Ratio (z) = 0.22907 0.22907
#
# Static dielectric constant tensor:
#      x y z
#    x 4.659100 0.000000 0.000000 
#    y 0.000000 4.659100 0.000000 
#    z 0.000000 0.000000 3.967610 
# 
# 
# High freq. dielectric constant tensor:
#      x y z
#    x 1.984690 0.000000 0.000000 
#    y 0.000000 1.984690 0.000000 
#    z 0.000000 0.000000 1.946490 
# 
# From -- ./inp_files/656.got.cif
#   From: 2010.03.12/outbox.cif.g09.slc.cpg/sg78_cif.got.tgz:656.got - 2010.04.16 16:37:20.
