data_PCOD8302917
_publ_section_title
;
Structure prediction by ZEFSAII (Michael W. Deem and Ramdas Pophale) SiO2 
 PCOD8302917
Probable space group: P 4/M
;
_chemical_formula_sum "Si O2"
_cell_formula_units_Z 48
_cell_length_a 10.920992
_cell_length_b 10.920992
_cell_length_c 22.342607
_cell_angle_alpha 90.000000
_cell_angle_beta 90.000000
_cell_angle_gamma 90.000000
_cell_volume 2664.759532
_symmetry_space_group_name_H-M "P 4/M"
_symmetry_group_IT_number 83
_symmetry_cell_setting 'tetragonal'
loop_
_space_group_symop_operation_xyz
x,y,z
-y,x,z
-x,-y,z
y,-x,z
-x,-y,-z
y,-x,-z
x,y,-z
-y,x,-z
loop_
_atom_site_type_symbol
_atom_site_label
_atom_site_fract_x
_atom_site_fract_y
_atom_site_fract_z
Si Si1 0.188970 0.071539 0.936943
Si Si2 0.808875 0.928081 0.806807
Si Si3 0.307185 0.546858 0.629088
Si Si4 0.805491 0.023589 0.626063
Si Si5 0.072841 0.615586 0.293108
Si Si6 0.695407 0.035785 0.500000
Si Si7 0.528222 0.799291 0.500000
O O1 0.154131 0.930522 0.937727
O O2 0.253211 0.095800 0.872757
O O3 0.263083 0.099613 0.000000
O O4 0.705876 0.887734 0.760030
O O5 0.929563 0.844991 0.798000
O O6 0.353715 0.410871 0.644291
O O7 0.190568 0.574724 0.669618
O O8 0.279197 0.557743 0.558596
O O9 0.678883 0.025980 0.662179
O O10 0.866372 0.894118 0.644867
O O11 0.784870 0.036752 0.556036
O O12 0.000000 0.500000 0.266114
O O13 0.613201 0.158148 0.500000
O O14 0.613274 0.916833 0.500000
#
# Coordination Sequence:
#
# PCOD8302917 Si02
#       7
#     8   8   8   8   8   4   4
#     4   7  10  20  43  76 111 144 177 211 251 303
#     4   9  18  33  54  82 114 147 180 216 261 315
#     4  11  26  43  60  79  98 131 179 228 274 316
#     4  11  24  39  57  80 105 134 166 209 267 328
#     4  12  25  36  57  77 106 142 177 216 263 319
#     4  11  22  35  56  85 105 126 160 203 265 329
#     4  11  22  39  62  81  99 126 168 221 271 321
#
# _framework density 18.012882000000001
#
# number of rings (size 3 to 8) (size 9 to 14) (size 15 to 20)
#    0.000    1.833    1.667    4.500    7.000    4.000 
#    0.000    0.000    0.000    0.500    0.000    0.000 
#    0.000    0.000    0.000    1.833    0.000    0.000 
#
# Total GULP energy -594829.042698 kJ/mol
# GULP energy per Si atom -12392.271723 kJ/mol
# Density = 1.797188 g / cm^3
# Si number density = 18.012882 Si / 1000 Ang^3
#
#
#
# Elastic Constant Matrix: (Units=GPa)
#
#
# Indices 1 2 3 4 5 6 
#
# 1 65.3902 21.5467 30.1161 0.0000 0.0000 -1.1766
# 2 21.5467 65.3902 30.1161 0.0000 0.0000 1.1766
# 3 30.1161 30.1161 123.9744 0.0000 0.0000 0.0000
# 4 0.0000 0.0000 0.0000 9.5516 0.0000 0.0000
# 5 0.0000 0.0000 0.0000 0.0000 9.5516 0.0000
# 6 -1.1766 1.1766 0.0000 0.0000 0.0000 12.5324
#
#
#
# Elastic Compliance Matrix: (Units=1/GPa)
#
#
# Indices 1 2 3 4 5 6 
#
# 1 0.018377 -0.004547 -0.003360 0.000000 0.000000 0.002152
# 2 -0.004547 0.018377 -0.003360 0.000000 0.000000 -0.002152
# 3 -0.003360 -0.003360 0.009698 0.000000 0.000000 0.000000
# 4 0.000000 0.000000 0.000000 0.104694 0.000000 0.000000
# 5 0.000000 0.000000 0.000000 0.000000 0.104694 0.000000
# 6 0.002152 -0.002152 0.000000 0.000000 0.000000 0.080198
#
#
# Mechanical properties :
#
#
# Convention : Reuss Voigt Hill
#
# Bulk Modulus (GPa) = 41.80552 46.47918 44.14235
# Shear Modulus (GPa) = 13.64089 17.85885 15.74987
#
# Velocity S-wave (km/s) = 2.75487 3.15214 2.96018
# Velocity P-wave (km/s) = 5.77738 6.25359 6.02019
#
# Compressibility (1/GPa) = 0.02392029
#
# Stress axis : x y z
#
# Youngs Moduli (GPa) = 54.41560 54.41560 103.10921
#
# Poissons Ratio (x) = 0.24742 0.34641
# Poissons Ratio (y) = 0.24742 0.34641
# Poissons Ratio (z) = 0.18282 0.18282
#
# Static dielectric constant tensor:
#      x y z
#    x 3.208520 0.000000 0.000000 
#    y 0.000000 3.208520 0.000000 
#    z 0.000000 0.000000 3.769850 
# 
# 
# High freq. dielectric constant tensor:
#      x y z
#    x 1.677020 0.000000 0.000000 
#    y 0.000000 1.677020 0.000000 
#    z 0.000000 0.000000 1.699310 
# 
# From -- ./inp_files/2958.got.cif
#   From: 2010.03.12/outbox.cif.g09.slc.cpg/sg83_2_cif.got.tgz:2958.got - 2010.04.08 20:05:18.
