data_PCOD8302217
_publ_section_title
;
Structure prediction by ZEFSAII (Michael W. Deem and Ramdas Pophale) SiO2 
 PCOD8302217
Probable space group: I 41
;
_chemical_formula_sum "Si O2"
_cell_formula_units_Z 52
_cell_length_a 18.909739
_cell_length_b 18.909739
_cell_length_c 6.696029
_cell_angle_alpha 90.000000
_cell_angle_beta 90.000000
_cell_angle_gamma 90.000000
_cell_volume 2394.354191
_symmetry_space_group_name_H-M "I 41"
_symmetry_group_IT_number 80
_symmetry_cell_setting 'tetragonal'
loop_
_space_group_symop_operation_xyz
x,y,z
-y,1/2+x,1/4+z
-x,-y,z
y,1/2-x,1/4+z
1/2+x,1/2+y,1/2+z
1/2-y,x,3/4+z
1/2-x,1/2-y,1/2+z
1/2+y,-x,3/4+z
loop_
_atom_site_type_symbol
_atom_site_label
_atom_site_fract_x
_atom_site_fract_y
_atom_site_fract_z
Si Si1 0.713526 0.334094 0.963580
Si Si2 0.014690 0.313759 0.293566
Si Si3 0.593675 0.872370 0.444682
Si Si4 0.914126 0.408224 0.514410
Si Si5 0.500000 0.000000 0.292301
Si Si6 0.280519 0.934169 0.746335
Si Si7 0.240086 0.446520 0.935438
O O1 0.760878 0.324550 0.766967
O O2 0.655568 0.392147 0.909630
O O3 0.759439 0.358122 0.155806
O O4 0.982997 0.383652 0.394334
O O5 0.035583 0.254499 0.454504
O O6 0.956324 0.280674 0.147435
O O7 0.081725 0.338168 0.163033
O O8 0.537031 0.937042 0.419256
O O9 0.583428 0.812841 0.275760
O O10 0.675810 0.891764 0.438160
O O11 0.854551 0.431640 0.359561
O O12 0.935567 0.472791 0.655424
O O13 0.287200 0.985725 0.557036
#
# Coordination Sequence:
#
# PCOD8302217 Si02
#       7
#     8   8   8   8   4   8   8
#     4  12  24  42  64  99 142 189 244 292 348 433
#     4  11  23  47  68 104 142 182 238 291 356 432
#     4  11  27  46  76 105 146 186 238 302 364 432
#     4  12  24  41  70  99 143 189 236 296 361 421
#     4  12  26  44  72 114 142 186 244 306 356 446
#     4  11  24  40  70  99 140 193 233 291 360 417
#     4  11  25  50  70 107 143 183 243 298 359 446
#
# _framework density 21.717756999999999
#
# number of rings (size 3 to 8) (size 9 to 14) (size 15 to 20)
#    0.000    0.615    3.077    4.615    6.462    2.462 
#    2.769    0.000    0.000    0.000    0.000    0.000 
#    0.000    0.000    0.000    0.000    0.000    0.000 
#
# Total GULP energy -322510.541504 kJ/mol
# GULP energy per Si atom -12404.251596 kJ/mol
# Density = 2.166833 g / cm^3
# Si number density = 21.717757 Si / 1000 Ang^3
#
#
#
# Elastic Constant Matrix: (Units=GPa)
#
#
# Indices 1 2 3 4 5 6 
#
# 1 90.4714 32.8344 31.6028 0.0000 0.0000 5.4901
# 2 32.8344 90.4714 31.6028 0.0000 0.0000 -5.4901
# 3 31.6028 31.6028 117.0090 0.0000 0.0000 0.0000
# 4 0.0000 0.0000 0.0000 35.0750 0.0000 0.0000
# 5 0.0000 0.0000 0.0000 0.0000 35.0750 0.0000
# 6 5.4901 -5.4901 0.0000 0.0000 0.0000 45.4271
#
#
#
# Elastic Compliance Matrix: (Units=1/GPa)
#
#
# Indices 1 2 3 4 5 6 
#
# 1 0.013586 -0.004173 -0.002542 0.000000 0.000000 -0.002146
# 2 -0.004173 0.013586 -0.002542 0.000000 0.000000 0.002146
# 3 -0.002542 -0.002542 0.009920 0.000000 0.000000 0.000000
# 4 0.000000 0.000000 0.000000 0.028510 0.000000 0.000000
# 5 0.000000 0.000000 0.000000 0.000000 0.028510 0.000000
# 6 -0.002146 0.002146 0.000000 0.000000 0.000000 0.022532
#
#
# Mechanical properties :
#
#
# Convention : Reuss Voigt Hill
#
# Bulk Modulus (GPa) = 53.83164 54.44793 54.13979
# Shear Modulus (GPa) = 35.37278 36.57623 35.97450
#
# Velocity S-wave (km/s) = 4.04015 4.10831 4.07437
# Velocity P-wave (km/s) = 6.82675 6.90140 6.86418
#
# Compressibility (1/GPa) = 0.01857644
#
# Stress axis : x y z
#
# Youngs Moduli (GPa) = 73.60530 73.60530 100.80964
#
# Poissons Ratio (x) = 0.30714 0.25630
# Poissons Ratio (y) = 0.30714 0.25630
# Poissons Ratio (z) = 0.18713 0.18713
#
# Static dielectric constant tensor:
#      x y z
#    x 3.882080 0.000000 0.000000 
#    y 0.000000 3.882080 0.000000 
#    z 0.000000 0.000000 4.111600 
# 
# 
# High freq. dielectric constant tensor:
#      x y z
#    x 1.851630 0.000000 0.000000 
#    y 0.000000 1.851630 0.000000 
#    z 0.000000 0.000000 1.868610 
# 
# From -- ./inp_files/322.got.cif
#   From: 2010.03.12/outbox.cif.g09.slc.cpg/sg80_cif.got.tgz:322.got - 2010.04.08 20:00:04.
