data_PCOD8302806
_publ_section_title
;
Structure prediction by ZEFSAII (Michael W. Deem and Ramdas Pophale) SiO2 
 PCOD8302806
Probable space group: P 4/M
;
_chemical_formula_sum "Si O2"
_cell_formula_units_Z 36
_cell_length_a 14.589782
_cell_length_b 14.589782
_cell_length_c 8.019128
_cell_angle_alpha 90.000000
_cell_angle_beta 90.000000
_cell_angle_gamma 90.000000
_cell_volume 1706.965530
_symmetry_space_group_name_H-M "P 4/M"
_symmetry_group_IT_number 83
_symmetry_cell_setting 'tetragonal'
loop_
_space_group_symop_operation_xyz
x,y,z
-y,x,z
-x,-y,z
y,-x,z
-x,-y,-z
y,-x,-z
x,y,-z
-y,x,-z
loop_
_atom_site_type_symbol
_atom_site_label
_atom_site_fract_x
_atom_site_fract_y
_atom_site_fract_z
Si Si1 0.939199 0.751334 0.314708
Si Si2 0.132729 0.780380 0.186342
Si Si3 0.446029 0.912893 0.192717
Si Si4 0.236376 0.595825 0.192677
Si Si5 0.430362 0.366072 0.500000
O O1 0.979268 0.754197 0.500000
O O2 0.857454 0.824454 0.303712
O O3 0.898241 0.651050 0.280106
O O4 0.022799 0.778127 0.195139
O O5 0.169552 0.680131 0.232741
O O6 0.162106 0.806716 0.000000
O O7 0.503067 0.820524 0.220192
O O8 0.500000 0.000000 0.270169
O O9 0.427064 0.933189 0.000000
O O10 0.316857 0.599079 0.328121
O O11 0.273414 0.600459 0.000000
O O12 0.538800 0.377435 0.500000
#
# Coordination Sequence:
#
# PCOD8302806 Si02
#       5
#     8   8   8   8   4
#     4  12  26  40  65 100 134 173 219 279 335 400
#     4  11  24  45  66  93 133 178 224 271 332 402
#     4  10  20  39  64  95 130 166 214 271 333 394
#     4  10  24  42  70 101 132 173 228 283 333 402
#     4  11  28  48  67  94 138 181 222 275 341 412
#
# _framework density 21.090056000000001
#
# number of rings (size 3 to 8) (size 9 to 14) (size 15 to 20)
#    0.000    1.222    2.222    2.667    7.778    1.778 
#    0.000    3.333    0.000    0.000    0.000    0.000 
#    0.000    0.000    0.000    0.000    0.000    0.000 
#
# Total GULP energy -446531.249077 kJ/mol
# GULP energy per Si atom -12403.645808 kJ/mol
# Density = 2.104205 g / cm^3
# Si number density = 21.090056 Si / 1000 Ang^3
#
#
#
# Elastic Constant Matrix: (Units=GPa)
#
#
# Indices 1 2 3 4 5 6 
#
# 1 100.9873 48.5274 32.4638 0.0000 0.0000 -6.4702
# 2 48.5274 100.9873 32.4638 0.0000 0.0000 6.4702
# 3 32.4638 32.4638 94.9703 0.0000 0.0000 0.0000
# 4 0.0000 0.0000 0.0000 22.1643 0.0000 0.0000
# 5 0.0000 0.0000 0.0000 0.0000 22.1643 0.0000
# 6 -6.4702 6.4702 0.0000 0.0000 0.0000 33.3485
#
#
#
# Elastic Compliance Matrix: (Units=1/GPa)
#
#
# Indices 1 2 3 4 5 6 
#
# 1 0.013937 -0.006083 -0.002685 0.000000 0.000000 0.003884
# 2 -0.006083 0.013937 -0.002685 0.000000 0.000000 -0.003884
# 3 -0.002685 -0.002685 0.012365 0.000000 0.000000 0.000000
# 4 0.000000 0.000000 0.000000 0.045118 0.000000 0.000000
# 5 0.000000 0.000000 0.000000 0.000000 0.045118 0.000000
# 6 0.003884 -0.003884 0.000000 0.000000 0.000000 0.031494
#
#
# Mechanical properties :
#
#
# Convention : Reuss Voigt Hill
#
# Bulk Modulus (GPa) = 57.68919 58.20610 57.94764
# Shear Modulus (GPa) = 26.22582 27.76808 26.99695
#
# Velocity S-wave (km/s) = 3.53018 3.63249 3.58170
# Velocity P-wave (km/s) = 6.63546 6.72697 6.68137
#
# Compressibility (1/GPa) = 0.01733427
#
# Stress axis : x y z
#
# Youngs Moduli (GPa) = 71.75007 71.75007 80.87264
#
# Poissons Ratio (x) = 0.43646 0.21713
# Poissons Ratio (y) = 0.43646 0.21713
# Poissons Ratio (z) = 0.19264 0.19264
#
# Static dielectric constant tensor:
#      x y z
#    x 3.669480 0.000000 0.000000 
#    y 0.000000 3.669480 0.000000 
#    z 0.000000 0.000000 3.777210 
# 
# 
# High freq. dielectric constant tensor:
#      x y z
#    x 1.827100 0.000000 0.000000 
#    y 0.000000 1.827100 0.000000 
#    z 0.000000 0.000000 1.830750 
# 
# From -- ./inp_files/514.got.cif
#   From: 2010.03.12/outbox.cif.g09.slc.cpg/sg83_1_cif.got.tgz:514.got - 2010.04.08 20:05:18.
