data_PCOD8302801
_publ_section_title
;
Structure prediction by ZEFSAII (Michael W. Deem and Ramdas Pophale) SiO2 
 PCOD8302801
Probable space group: P 4/M
;
_chemical_formula_sum "Si O2"
_cell_formula_units_Z 32
_cell_length_a 14.159661
_cell_length_b 14.159661
_cell_length_c 8.391141
_cell_angle_alpha 90.000000
_cell_angle_beta 90.000000
_cell_angle_gamma 90.000000
_cell_volume 1682.390203
_symmetry_space_group_name_H-M "P 4/M"
_symmetry_group_IT_number 83
_symmetry_cell_setting 'tetragonal'
loop_
_space_group_symop_operation_xyz
x,y,z
-y,x,z
-x,-y,z
y,-x,z
-x,-y,-z
y,-x,-z
x,y,-z
-y,x,-z
loop_
_atom_site_type_symbol
_atom_site_label
_atom_site_fract_x
_atom_site_fract_y
_atom_site_fract_z
Si Si1 0.242577 0.393728 0.809891
Si Si2 0.242626 0.890082 0.683741
Si Si3 0.093962 0.752622 0.815158
Si Si4 0.752748 0.395090 0.188099
O O1 0.149877 0.343811 0.739262
O O2 0.247826 0.499708 0.739246
O O3 0.336090 0.337991 0.750887
O O4 0.234260 0.392564 0.000000
O O5 0.225027 0.866268 0.500000
O O6 0.158947 0.844123 0.787021
O O7 0.241616 0.001813 0.707683
O O8 0.151694 0.659154 0.762357
O O9 0.065375 0.748429 0.000000
O O10 0.746503 0.402506 0.000000
#
# Coordination Sequence:
#
# PCOD8302801 Si02
#       4
#     8   8   8   8
#     4   9  17  33  53  77 106 140 177 217 260 306
#     4  11  22  36  53  78 107 137 171 214 260 311
#     4  10  20  37  57  78 103 137 175 216 260 308
#     4   8  16  30  53  79 104 134 176 221 260 301
#
# _framework density 19.020558000000001
#
# number of rings (size 3 to 8) (size 9 to 14) (size 15 to 20)
#    0.000    2.500    0.000    4.500    0.000    2.000 
#    0.000   16.250    0.000    0.000    0.000    7.000 
#    0.000    0.000    0.000    0.000    0.000    0.000 
#
# Total GULP energy -396809.333145 kJ/mol
# GULP energy per Si atom -12400.291661 kJ/mol
# Density = 1.897727 g / cm^3
# Si number density = 19.020558 Si / 1000 Ang^3
#
#
#
# Elastic Constant Matrix: (Units=GPa)
#
#
# Indices 1 2 3 4 5 6 
#
# 1 137.7267 53.2346 9.9902 0.0000 0.0000 -0.9744
# 2 53.2346 137.7267 9.9902 0.0000 0.0000 0.9744
# 3 9.9902 9.9902 42.2684 0.0000 0.0000 0.0000
# 4 0.0000 0.0000 0.0000 11.4013 0.0000 0.0000
# 5 0.0000 0.0000 0.0000 0.0000 11.4013 0.0000
# 6 -0.9744 0.9744 0.0000 0.0000 0.0000 14.0004
#
#
#
# Elastic Compliance Matrix: (Units=1/GPa)
#
#
# Indices 1 2 3 4 5 6 
#
# 1 0.008612 -0.003243 -0.001269 0.000000 0.000000 0.000825
# 2 -0.003243 0.008612 -0.001269 0.000000 0.000000 -0.000825
# 3 -0.001269 -0.001269 0.024258 0.000000 0.000000 0.000000
# 4 0.000000 0.000000 0.000000 0.087709 0.000000 0.000000
# 5 0.000000 0.000000 0.000000 0.000000 0.087709 0.000000
# 6 0.000825 -0.000825 0.000000 0.000000 0.000000 0.071541
#
#
# Mechanical properties :
#
#
# Convention : Reuss Voigt Hill
#
# Bulk Modulus (GPa) = 33.42158 51.57242 42.49700
# Shear Modulus (GPa) = 16.13022 23.66104 19.89563
#
# Velocity S-wave (km/s) = 2.91527 3.53083 3.23771
# Velocity P-wave (km/s) = 5.37970 6.61779 6.03061
#
# Compressibility (1/GPa) = 0.02992079
#
# Stress axis : x y z
#
# Youngs Moduli (GPa) = 116.11765 116.11765 41.22316
#
# Poissons Ratio (x) = 0.37651 0.05232
# Poissons Ratio (y) = 0.37651 0.05232
# Poissons Ratio (z) = 0.14736 0.14736
#
# Static dielectric constant tensor:
#      x y z
#    x 3.611840 0.000000 0.000000 
#    y 0.000000 3.611840 0.000000 
#    z 0.000000 0.000000 3.176550 
# 
# 
# High freq. dielectric constant tensor:
#      x y z
#    x 1.740470 0.000000 0.000000 
#    y 0.000000 1.740470 0.000000 
#    z 0.000000 0.000000 1.716790 
# 
# From -- ./inp_files/436.got.cif
#   From: 2010.03.12/outbox.cif.g09.slc.cpg/sg83_1_cif.got.tgz:436.got - 2010.04.08 20:05:18.
