data_PCOD8302646
_publ_section_title
;
Structure prediction by ZEFSAII (Michael W. Deem and Ramdas Pophale) SiO2 
 PCOD8302646
Probable space group: P 4/M
;
_chemical_formula_sum "Si O2"
_cell_formula_units_Z 48
_cell_length_a 15.867442
_cell_length_b 15.867442
_cell_length_c 13.625466
_cell_angle_alpha 90.000000
_cell_angle_beta 90.000000
_cell_angle_gamma 90.000000
_cell_volume 3430.561453
_symmetry_space_group_name_H-M "P 4/M"
_symmetry_group_IT_number 83
_symmetry_cell_setting 'tetragonal'
loop_
_space_group_symop_operation_xyz
x,y,z
-y,x,z
-x,-y,z
y,-x,z
-x,-y,-z
y,-x,-z
x,y,-z
-y,x,-z
loop_
_atom_site_type_symbol
_atom_site_label
_atom_site_fract_x
_atom_site_fract_y
_atom_site_fract_z
Si Si1 0.215567 0.347398 0.885360
Si Si2 0.898734 0.094846 0.610507
Si Si3 0.563155 0.383002 0.116580
Si Si4 0.822671 0.152070 0.198847
Si Si5 0.038141 0.415852 0.886358
Si Si6 0.236746 0.015511 0.884529
O O1 0.299526 0.391382 0.842969
O O2 0.199483 0.264763 0.820580
O O3 0.138989 0.413066 0.871291
O O4 0.223707 0.321565 0.000000
O O5 0.872109 0.119551 0.500000
O O6 0.842252 0.149746 0.684934
O O7 0.996144 0.116884 0.628442
O O8 0.612991 0.466170 0.153586
O O9 0.562794 0.379905 0.000000
O O10 0.893250 0.203400 0.141253
O O11 0.823206 0.056469 0.159908
O O12 0.000000 0.500000 0.834901
O O13 0.995880 0.331530 0.841251
O O14 0.013854 0.418726 0.000000
O O15 0.237949 0.000815 0.000000
#
# Coordination Sequence:
#
# PCOD8302646 Si02
#       6
#     8   8   8   8   8   8
#     4   9  17  26  37  57  84 109 137 174 203 235
#     4   9  17  30  45  59  74 100 140 180 215 242
#     4   8  14  25  40  57  79 110 144 174 208 244
#     4  11  18  28  39  56  82 108 137 169 203 235
#     4   8  15  27  38  49  72 109 145 169 191 225
#     4  10  19  27  37  55  82 113 139 163 193 237
#
# _framework density 13.991878
#
# number of rings (size 3 to 8) (size 9 to 14) (size 15 to 20)
#    0.000    2.833    1.667    3.500    0.000    1.667 
#    0.000    5.833    0.000    0.000    0.000    0.000 
#    0.000   23.333    0.000    1.833    0.000    0.167 
#
# Total GULP energy -594956.576530 kJ/mol
# GULP energy per Si atom -12394.928678 kJ/mol
# Density = 1.396003 g / cm^3
# Si number density = 13.991878 Si / 1000 Ang^3
#
#
#
# Elastic Constant Matrix: (Units=GPa)
#
#
# Indices 1 2 3 4 5 6 
#
# 1 77.3184 43.4053 11.2637 0.0000 0.0000 7.6517
# 2 43.4053 77.3184 11.2637 0.0000 0.0000 -7.6517
# 3 11.2637 11.2637 39.1683 0.0000 0.0000 0.0000
# 4 0.0000 0.0000 0.0000 9.1395 0.0000 0.0000
# 5 0.0000 0.0000 0.0000 0.0000 9.1395 0.0000
# 6 7.6517 -7.6517 0.0000 0.0000 0.0000 26.6716
#
#
#
# Elastic Compliance Matrix: (Units=1/GPa)
#
#
# Indices 1 2 3 4 5 6 
#
# 1 0.021313 -0.012560 -0.002517 0.000000 0.000000 -0.009717
# 2 -0.012560 0.021313 -0.002517 0.000000 0.000000 0.009717
# 3 -0.002517 -0.002517 0.026979 0.000000 0.000000 0.000000
# 4 0.000000 0.000000 0.000000 0.109415 0.000000 0.000000
# 5 0.000000 0.000000 0.000000 0.000000 0.109415 0.000000
# 6 -0.009717 0.009717 0.000000 0.000000 0.000000 0.043069
#
#
# Mechanical properties :
#
#
# Convention : Reuss Voigt Hill
#
# Bulk Modulus (GPa) = 29.05608 36.18560 32.62084
# Shear Modulus (GPa) = 13.22182 17.51494 15.36838
#
# Velocity S-wave (km/s) = 3.07736 3.54191 3.31777
# Velocity P-wave (km/s) = 5.78259 6.53030 6.16779
#
# Compressibility (1/GPa) = 0.03441620
#
# Stress axis : x y z
#
# Youngs Moduli (GPa) = 46.92062 46.92062 37.06643
#
# Poissons Ratio (x) = 0.58930 0.09330
# Poissons Ratio (y) = 0.58930 0.09330
# Poissons Ratio (z) = 0.11811 0.11811
#
# Static dielectric constant tensor:
#      x y z
#    x 2.872240 0.000000 0.000000 
#    y 0.000000 2.872240 0.000000 
#    z 0.000000 0.000000 2.393950 
# 
# 
# High freq. dielectric constant tensor:
#      x y z
#    x 1.534030 0.000000 0.000000 
#    y 0.000000 1.534030 0.000000 
#    z 0.000000 0.000000 1.479770 
# 
# From -- ./inp_files/1853.got.cif
#   From: 2010.03.12/outbox.cif.g09.slc.cpg/sg83_1_cif.got.tgz:1853.got - 2010.04.08 20:05:18.
