data_PCOD8302142
_publ_section_title
;
Structure prediction by ZEFSAII (Michael W. Deem and Ramdas Pophale) SiO2 
 PCOD8302142
Probable space group: I 41
;
_chemical_formula_sum "Si O2"
_cell_formula_units_Z 48
_cell_length_a 24.373458
_cell_length_b 24.373458
_cell_length_c 5.141512
_cell_angle_alpha 90.000000
_cell_angle_beta 90.000000
_cell_angle_gamma 90.000000
_cell_volume 3054.394665
_symmetry_space_group_name_H-M "I 41"
_symmetry_group_IT_number 80
_symmetry_cell_setting 'tetragonal'
loop_
_space_group_symop_operation_xyz
x,y,z
-y,1/2+x,1/4+z
-x,-y,z
y,1/2-x,1/4+z
1/2+x,1/2+y,1/2+z
1/2-y,x,3/4+z
1/2-x,1/2-y,1/2+z
1/2+y,-x,3/4+z
loop_
_atom_site_type_symbol
_atom_site_label
_atom_site_fract_x
_atom_site_fract_y
_atom_site_fract_z
Si Si1 0.244387 0.332142 0.480200
Si Si2 0.248081 0.396368 0.973153
Si Si3 0.867687 0.577217 0.137435
Si Si4 0.059350 0.527293 0.167792
Si Si5 0.581630 0.869281 0.138020
Si Si6 0.939468 0.024379 0.415259
O O1 0.292326 0.303872 0.645505
O O2 0.221657 0.372324 0.705400
O O3 0.267345 0.356026 0.208436
O O4 0.303374 0.428033 0.887322
O O5 0.197972 0.431091 0.099424
O O6 0.893174 0.516992 0.133535
O O7 0.879032 0.610416 0.403942
O O8 0.893822 0.612872 0.910911
O O9 0.069170 0.561162 0.433612
O O10 0.000000 0.500000 0.221355
O O11 0.057648 0.571414 0.932700
O O12 0.521852 0.895261 0.102603
O O13 0.000000 0.000000 0.471513
#
# Coordination Sequence:
#
# PCOD8302142 Si02
#       6
#     8   8   8   8   8   8
#     4  12  23  38  50  56  78 118 170 206 221 256
#     4  12  25  34  44  70  88 118 150 186 253 268
#     4  12  21  33  50  64  92 115 147 196 228 273
#     4  10  16  30  49  72  82 103 141 189 232 262
#     4  12  21  33  50  64  92 115 147 196 228 273
#     4  10  16  30  49  72  82 103 141 189 232 262
#
# _framework density 15.715061
#
# number of rings (size 3 to 8) (size 9 to 14) (size 15 to 20)
#    0.000    0.667    6.667    7.000    0.000    0.000 
#    0.000    0.000    0.000    0.000    0.000    0.000 
#    0.000    0.000    0.000    0.000    0.000    3.333 
#
# Total GULP energy -297322.016856 kJ/mol
# GULP energy per Si atom -12388.417369 kJ/mol
# Density = 1.567929 g / cm^3
# Si number density = 15.715061 Si / 1000 Ang^3
#
#
#
# Elastic Constant Matrix: (Units=GPa)
#
#
# Indices 1 2 3 4 5 6 
#
# 1 53.8256 38.6978 11.7914 0.0000 0.0000 -0.2816
# 2 38.6978 53.8256 11.7914 0.0000 0.0000 0.2816
# 3 11.7914 11.7914 119.6279 0.0000 0.0000 0.0000
# 4 0.0000 0.0000 0.0000 20.9520 0.0000 0.0000
# 5 0.0000 0.0000 0.0000 0.0000 20.9520 0.0000
# 6 -0.2816 0.2816 0.0000 0.0000 0.0000 20.0994
#
#
#
# Elastic Compliance Matrix: (Units=1/GPa)
#
#
# Indices 1 2 3 4 5 6 
#
# 1 0.038612 -0.027526 -0.001093 0.000000 0.000000 0.000927
# 2 -0.027526 0.038612 -0.001093 0.000000 0.000000 -0.000927
# 3 -0.001093 -0.001093 0.008575 0.000000 0.000000 0.000000
# 4 0.000000 0.000000 0.000000 0.047728 0.000000 0.000000
# 5 0.000000 0.000000 0.000000 0.000000 0.047728 0.000000
# 6 0.000927 -0.000927 0.000000 0.000000 0.000000 0.049779
#
#
# Mechanical properties :
#
#
# Convention : Reuss Voigt Hill
#
# Bulk Modulus (GPa) = 37.91210 39.09334 38.50272
# Shear Modulus (GPa) = 16.70851 23.40060 20.05455
#
# Velocity S-wave (km/s) = 3.26424 3.86301 3.57618
# Velocity P-wave (km/s) = 6.19549 6.69534 6.45026
#
# Compressibility (1/GPa) = 0.02637681
#
# Stress axis : x y z
#
# Youngs Moduli (GPa) = 25.89850 25.89850 116.62247
#
# Poissons Ratio (x) = 0.71287 0.12744
# Poissons Ratio (y) = 0.71287 0.12744
# Poissons Ratio (z) = 0.02830 0.02830
#
# Static dielectric constant tensor:
#      x y z
#    x 2.819490 0.000000 0.000000 
#    y 0.000000 2.819490 0.000000 
#    z 0.000000 0.000000 3.955440 
# 
# 
# High freq. dielectric constant tensor:
#      x y z
#    x 1.558070 0.000000 0.000000 
#    y 0.000000 1.558070 0.000000 
#    z 0.000000 0.000000 1.652870 
# 
# From -- ./inp_files/386.got.cif
#   From: 2010.03.12/outbox.cif.g09.slc.cpg/sg80_cif.got.tgz:386.got - 2010.04.08 20:00:04.
