data_PCOD8302408
_publ_section_title
;
Structure prediction by ZEFSAII (Michael W. Deem and Ramdas Pophale) SiO2 
 PCOD8302408
Probable space group: I -4 
;
_chemical_formula_sum "Si O2"
_cell_formula_units_Z 36
_cell_length_a 14.305738
_cell_length_b 14.305738
_cell_length_c 7.705482
_cell_angle_alpha 90.000000
_cell_angle_beta 90.000000
_cell_angle_gamma 90.000000
_cell_volume 1576.958790
_symmetry_space_group_name_H-M "I -4 "
_symmetry_group_IT_number 82
_symmetry_cell_setting 'tetragonal'
loop_
_space_group_symop_operation_xyz
x,y,z
y,-x,-z
-x,-y,z
-y,x,-z
1/2+x,1/2+y,1/2+z
1/2+y,1/2-x,1/2-z
1/2-x,1/2-y,1/2+z
1/2-y,1/2+x,1/2-z
loop_
_atom_site_type_symbol
_atom_site_label
_atom_site_fract_x
_atom_site_fract_y
_atom_site_fract_z
Si Si1 0.814352 0.807543 0.457893
Si Si2 0.936578 0.210043 0.854653
Si Si3 0.594768 0.876552 0.009284
Si Si4 0.176610 0.849468 0.157768
Si Si5 0.500000 0.000000 0.250000
Si Si6 0.000000 0.500000 0.250000
O O1 0.834628 0.887157 0.315581
O O2 0.900060 0.731540 0.450343
O O3 0.811407 0.852297 0.651265
O O4 0.715127 0.757852 0.422797
O O5 0.896611 0.312318 0.883866
O O6 0.046416 0.215544 0.823013
O O7 0.912174 0.150199 0.028073
O O8 0.508573 0.904480 0.136372
O O9 0.583411 0.946605 0.848576
#
# Coordination Sequence:
#
# PCOD8302408 Si02
#       6
#     8   8   8   8   2   2
#     4  11  23  47  67 101 139 189 228 283 362 405
#     4  11  26  43  72 101 141 186 238 285 345 427
#     4  10  22  40  64 105 140 179 222 294 352 423
#     4  11  24  47  71 104 137 188 233 289 347 417
#     4  10  20  42  68 106 144 170 236 290 360 414
#     4  10  24  38  68 114 136 174 236 298 364 418
#
# _framework density 22.828751
#
# number of rings (size 3 to 8) (size 9 to 14) (size 15 to 20)
#    0.000    1.333    4.444    1.333    3.111    2.222 
#   12.000    0.000    0.000    0.000    0.000    0.000 
#    0.000    0.000    0.000    0.000    0.000    0.000 
#
# Total GULP energy -223067.039786 kJ/mol
# GULP energy per Si atom -12392.613321 kJ/mol
# Density = 2.277679 g / cm^3
# Si number density = 22.828751 Si / 1000 Ang^3
#
#
#
# Elastic Constant Matrix: (Units=GPa)
#
#
# Indices 1 2 3 4 5 6 
#
# 1 87.2765 13.0548 47.5466 0.0000 0.0000 -0.8235
# 2 13.0548 87.2765 47.5466 0.0000 0.0000 0.8235
# 3 47.5466 47.5466 192.0130 0.0000 0.0000 0.0000
# 4 0.0000 0.0000 0.0000 27.7717 0.0000 0.0000
# 5 0.0000 0.0000 0.0000 0.0000 27.7717 0.0000
# 6 -0.8235 0.8235 0.0000 0.0000 0.0000 24.6996
#
#
#
# Elastic Compliance Matrix: (Units=1/GPa)
#
#
# Indices 1 2 3 4 5 6 
#
# 1 0.013253 -0.000230 -0.003225 0.000000 0.000000 0.000450
# 2 -0.000230 0.013253 -0.003225 0.000000 0.000000 -0.000450
# 3 -0.003225 -0.003225 0.006805 0.000000 0.000000 0.000000
# 4 0.000000 0.000000 0.000000 0.036008 0.000000 0.000000
# 5 0.000000 0.000000 0.000000 0.000000 0.036008 0.000000
# 6 0.000450 -0.000450 0.000000 0.000000 0.000000 0.040517
#
#
# Mechanical properties :
#
#
# Convention : Reuss Voigt Hill
#
# Bulk Modulus (GPa) = 50.11901 64.76244 57.44073
# Shear Modulus (GPa) = 30.14700 33.27647 31.71174
#
# Velocity S-wave (km/s) = 3.63791 3.82207 3.73113
# Velocity P-wave (km/s) = 6.29665 6.92156 6.61649
#
# Compressibility (1/GPa) = 0.01995251
#
# Stress axis : x y z
#
# Youngs Moduli (GPa) = 75.45274 75.45274 146.94869
#
# Poissons Ratio (x) = 0.01734 0.47390
# Poissons Ratio (y) = 0.01734 0.47390
# Poissons Ratio (z) = 0.24333 0.24333
#
# Static dielectric constant tensor:
#      x y z
#    x 4.069120 0.000000 0.000000 
#    y 0.000000 4.069120 0.000000 
#    z 0.000000 0.000000 4.659810 
# 
# 
# High freq. dielectric constant tensor:
#      x y z
#    x 1.880480 0.000000 0.000000 
#    y 0.000000 1.880480 0.000000 
#    z 0.000000 0.000000 1.925230 
# 
# From -- ./inp_files/825.got.cif
#   From: 2010.03.12/outbox.cif.g09.slc.cpg/sg82_1_cif.got.tgz:825.got - 2010.04.08 20:02:50.
