data_PCOD8302301
_publ_section_title
;
Structure prediction by ZEFSAII (Michael W. Deem and Ramdas Pophale) SiO2 
 PCOD8302301
Probable space group: P -4
;
_chemical_formula_sum "Si O2"
_cell_formula_units_Z 20
_cell_length_a 9.198567
_cell_length_b 9.198567
_cell_length_c 10.851765
_cell_angle_alpha 90.000000
_cell_angle_beta 90.000000
_cell_angle_gamma 90.000000
_cell_volume 918.207281
_symmetry_space_group_name_H-M "P -4"
_symmetry_group_IT_number 81
_symmetry_cell_setting 'tetragonal'
loop_
_space_group_symop_operation_xyz
x,y,z
y,-x,-z
-x,-y,z
-y,x,-z
loop_
_atom_site_type_symbol
_atom_site_label
_atom_site_fract_x
_atom_site_fract_y
_atom_site_fract_z
Si Si1 0.218127 0.829896 0.178763
Si Si2 0.484662 0.333187 0.178312
Si Si3 0.646195 0.917690 0.027257
Si Si4 0.593637 0.698555 0.449961
Si Si5 0.811854 0.899928 0.552521
O O1 0.355409 0.727499 0.200142
O O2 0.135667 0.848931 0.306692
O O3 0.271319 0.987008 0.130452
O O4 0.103939 0.754849 0.086227
O O5 0.500000 0.500000 0.135305
O O6 0.395300 0.242292 0.077112
O O7 0.392870 0.318144 0.303558
O O8 0.500000 0.000000 0.982920
O O9 0.689213 0.573444 0.512529
O O10 0.654483 0.849521 0.503564
O O11 0.927593 0.820598 0.463147
#
# Coordination Sequence:
#
# PCOD8302301 Si02
#       5
#     4   4   4   4   4
#     4  11  24  47  64  98 139 177 227 278 333 413
#     4  11  22  40  70  99 136 173 229 286 332 397
#     4  10  26  43  68 101 136 182 228 276 346 395
#     4  11  20  41  64 100 129 169 219 273 342 393
#     4  11  25  43  66  96 134 175 225 272 338 402
#
# _framework density 21.781576000000001
#
# number of rings (size 3 to 8) (size 9 to 14) (size 15 to 20)
#    0.000    1.200    4.000    1.200    5.600    6.000 
#    3.600    0.000    0.000    0.000    0.000    0.000 
#    0.000    0.000    0.000    0.000    0.000    0.000 
#
# Total GULP energy -248082.229388 kJ/mol
# GULP energy per Si atom -12404.111469 kJ/mol
# Density = 2.173200 g / cm^3
# Si number density = 21.781576 Si / 1000 Ang^3
#
#
#
# Elastic Constant Matrix: (Units=GPa)
#
#
# Indices 1 2 3 4 5 6 
#
# 1 82.6100 21.8627 45.1925 0.0000 0.0000 -4.4514
# 2 21.8627 82.6100 45.1925 0.0000 0.0000 4.4514
# 3 45.1925 45.1925 120.8055 0.0000 0.0000 0.0000
# 4 0.0000 0.0000 0.0000 29.5966 0.0000 0.0000
# 5 0.0000 0.0000 0.0000 0.0000 29.5966 0.0000
# 6 -4.4514 4.4514 0.0000 0.0000 0.0000 34.0813
#
#
#
# Elastic Compliance Matrix: (Units=1/GPa)
#
#
# Indices 1 2 3 4 5 6 
#
# 1 0.015468 -0.001315 -0.005294 0.000000 0.000000 0.002192
# 2 -0.001315 0.015468 -0.005294 0.000000 0.000000 -0.002192
# 3 -0.005294 -0.005294 0.012239 0.000000 0.000000 0.000000
# 4 0.000000 0.000000 0.000000 0.033788 0.000000 0.000000
# 5 0.000000 0.000000 0.000000 0.000000 0.033788 0.000000
# 6 0.002192 -0.002192 0.000000 0.000000 0.000000 0.029914
#
#
# Mechanical properties :
#
#
# Convention : Reuss Voigt Hill
#
# Bulk Modulus (GPa) = 51.63608 56.72455 54.18032
# Shear Modulus (GPa) = 29.25230 30.24006 29.74618
#
# Velocity S-wave (km/s) = 3.66865 3.73008 3.69949
# Velocity P-wave (km/s) = 6.45779 6.68209 6.57090
#
# Compressibility (1/GPa) = 0.01936630
#
# Stress axis : x y z
#
# Youngs Moduli (GPa) = 64.65142 64.65142 81.70689
#
# Poissons Ratio (x) = 0.08504 0.43258
# Poissons Ratio (y) = 0.08504 0.43258
# Poissons Ratio (z) = 0.34228 0.34228
#
# Static dielectric constant tensor:
#      x y z
#    x 3.885040 0.000000 0.000000 
#    y 0.000000 3.885040 0.000000 
#    z 0.000000 0.000000 3.944190 
# 
# 
# High freq. dielectric constant tensor:
#      x y z
#    x 1.857110 0.000000 0.000000 
#    y 0.000000 1.857110 0.000000 
#    z 0.000000 0.000000 1.862090 
# 
# From -- ./inp_files/1223.got.cif
#   From: 2010.03.12/outbox.cif.g09.slc.cpg/sg81_cif.got.tgz:1223.got - 2010.04.08 20:01:38.
