data_PCOD8302855
_publ_section_title
;
Structure prediction by ZEFSAII (Michael W. Deem and Ramdas Pophale) SiO2 
 PCOD8302855
Probable space group: P 4/M
;
_chemical_formula_sum "Si O2"
_cell_formula_units_Z 48
_cell_length_a 8.635037
_cell_length_b 8.635037
_cell_length_c 31.539140
_cell_angle_alpha 90.000000
_cell_angle_beta 90.000000
_cell_angle_gamma 90.000000
_cell_volume 2351.680145
_symmetry_space_group_name_H-M "P 4/M"
_symmetry_group_IT_number 83
_symmetry_cell_setting 'tetragonal'
loop_
_space_group_symop_operation_xyz
x,y,z
-y,x,z
-x,-y,z
y,-x,z
-x,-y,-z
y,-x,-z
x,y,-z
-y,x,-z
loop_
_atom_site_type_symbol
_atom_site_label
_atom_site_fract_x
_atom_site_fract_y
_atom_site_fract_z
Si Si1 0.077156 0.241118 0.612079
Si Si2 0.000000 0.500000 0.068759
Si Si3 0.949040 0.253887 0.000000
Si Si4 0.570717 0.255795 0.228198
Si Si5 0.258616 0.422637 0.451986
Si Si6 0.923274 0.758221 0.708388
Si Si7 0.254368 0.439225 0.132628
O O1 0.121110 0.379433 0.580218
O O2 0.096769 0.300148 0.660208
O O3 0.902313 0.191011 0.603410
O O4 0.121917 0.410593 0.098395
O O5 0.924168 0.364105 0.040651
O O6 0.818878 0.121435 0.000000
O O7 0.688144 0.397176 0.236320
O O8 0.616822 0.119202 0.260456
O O9 0.583579 0.190681 0.180341
O O10 0.402415 0.308978 0.443590
O O11 0.198076 0.402118 0.500000
O O12 0.098199 0.809229 0.717193
O O13 0.388222 0.315653 0.125230
#
# Coordination Sequence:
#
# PCOD8302855 Si02
#       7
#     8   4   4   8   8   8   8
#     4   9  19  35  52  72 100 132 167 209 255 303
#     4  11  20  34  60  82 102 146 188 214 263 322
#     4  10  22  38  54  80 116 144 176 226 272 312
#     4   9  19  34  51  74 104 135 168 211 260 305
#     4   9  19  35  52  72 100 131 164 207 258 310
#     4   9  19  35  52  72 101 135 171 211 253 303
#     4   9  19  35  53  77 108 137 173 221 263 307
#
# _framework density 20.410941000000001
#
# number of rings (size 3 to 8) (size 9 to 14) (size 15 to 20)
#    0.000    2.750    0.000    3.500    0.000    6.000 
#    0.000    7.500    0.000    6.000    0.000    0.000 
#    0.000    0.000    0.000    0.000    0.000    0.000 
#
# Total GULP energy -595170.861895 kJ/mol
# GULP energy per Si atom -12399.392956 kJ/mol
# Density = 2.036448 g / cm^3
# Si number density = 20.410941 Si / 1000 Ang^3
#
#
#
# Elastic Constant Matrix: (Units=GPa)
#
#
# Indices 1 2 3 4 5 6 
#
# 1 38.9542 8.2242 34.3499 0.0000 0.0000 -2.0862
# 2 8.2242 38.9542 34.3499 0.0000 0.0000 2.0862
# 3 34.3499 34.3499 121.5705 0.0000 0.0000 0.0000
# 4 0.0000 0.0000 0.0000 18.7781 0.0000 0.0000
# 5 0.0000 0.0000 0.0000 0.0000 18.7781 0.0000
# 6 -2.0862 2.0862 0.0000 0.0000 0.0000 30.4180
#
#
#
# Elastic Compliance Matrix: (Units=1/GPa)
#
#
# Indices 1 2 3 4 5 6 
#
# 1 0.034431 0.001583 -0.010176 0.000000 0.000000 0.002253
# 2 0.001583 0.034431 -0.010176 0.000000 0.000000 -0.002253
# 3 -0.010176 -0.010176 0.013976 0.000000 0.000000 0.000000
# 4 0.000000 0.000000 0.000000 0.053254 0.000000 0.000000
# 5 0.000000 0.000000 0.000000 0.000000 0.053254 0.000000
# 6 0.002253 -0.002253 0.000000 0.000000 0.000000 0.033184
#
#
# Mechanical properties :
#
#
# Convention : Reuss Voigt Hill
#
# Bulk Modulus (GPa) = 22.07482 39.25854 30.66668
# Shear Modulus (GPa) = 18.17091 21.76516 19.96803
#
# Velocity S-wave (km/s) = 2.98695 3.26904 3.13117
# Velocity P-wave (km/s) = 4.76807 5.79005 5.30373
#
# Compressibility (1/GPa) = 0.04530048
#
# Stress axis : x y z
#
# Youngs Moduli (GPa) = 29.04401 29.04401 71.55138
#
# Poissons Ratio (x) = -0.04598 0.72808
# Poissons Ratio (y) = -0.04598 0.72808
# Poissons Ratio (z) = 0.29554 0.29554
#
# Static dielectric constant tensor:
#      x y z
#    x 3.490920 0.000000 0.000000 
#    y 0.000000 3.490920 0.000000 
#    z 0.000000 0.000000 3.680020 
# 
# 
# High freq. dielectric constant tensor:
#      x y z
#    x 1.789170 0.000000 0.000000 
#    y 0.000000 1.789170 0.000000 
#    z 0.000000 0.000000 1.801710 
# 
# From -- ./inp_files/3443.got.cif
#   From: 2010.03.12/outbox.cif.g09.slc.cpg/sg83_2_cif.got.tgz:3443.got - 2010.04.08 20:05:18.
