data_PCOD8302465
_publ_section_title
;
Structure prediction by ZEFSAII (Michael W. Deem and Ramdas Pophale) SiO2 
 PCOD8302465
Probable space group: I -4 
;
_chemical_formula_sum "Si O2"
_cell_formula_units_Z 34
_cell_length_a 8.013625
_cell_length_b 8.013625
_cell_length_c 21.728835
_cell_angle_alpha 90.000000
_cell_angle_beta 90.000000
_cell_angle_gamma 90.000000
_cell_volume 1395.386360
_symmetry_space_group_name_H-M "I -4 "
_symmetry_group_IT_number 82
_symmetry_cell_setting 'tetragonal'
loop_
_space_group_symop_operation_xyz
x,y,z
y,-x,-z
-x,-y,z
-y,x,-z
1/2+x,1/2+y,1/2+z
1/2+y,1/2-x,1/2-z
1/2-x,1/2-y,1/2+z
1/2-y,1/2+x,1/2-z
loop_
_atom_site_type_symbol
_atom_site_label
_atom_site_fract_x
_atom_site_fract_y
_atom_site_fract_z
Si Si1 0.224491 0.248661 0.175218
Si Si2 0.000000 0.500000 0.664128
Si Si3 0.000000 0.000000 0.109958
Si Si4 0.500000 0.000000 0.750000
Si Si5 0.799692 0.319392 0.560961
Si Si6 0.960659 0.321312 0.432416
O O1 0.379212 0.132137 0.202364
O O2 0.075869 0.127320 0.158495
O O3 0.151537 0.399150 0.216721
O O4 0.282513 0.330692 0.109827
O O5 0.110110 0.618954 0.622066
O O6 0.881086 0.097103 0.062880
O O7 0.887375 0.373339 0.498321
O O8 0.794203 0.120488 0.560824
O O9 0.000000 0.500000 0.399243
#
# Coordination Sequence:
#
# PCOD8302465 Si02
#       6
#     8   4   4   2   8   8
#     4  11  24  45  73 104 138 183 240 299 357 425
#     4  10  24  43  68 105 140 182 230 294 358 428
#     4  10  22  43  70  98 138 186 232 285 352 434
#     4  12  24  50  80 104 132 186 248 308 372 418
#     4  11  23  39  64 101 147 187 227 277 349 420
#     4  12  23  38  63 105 142 188 232 280 336 424
#
# _framework density 24.366008999999998
#
# number of rings (size 3 to 8) (size 9 to 14) (size 15 to 20)
#    0.000    0.941    4.706    1.412    3.294    4.235 
#    0.000    7.059    0.000    5.647    0.000    0.000 
#    0.000    0.000    0.000    0.000    0.000    0.000 
#
# Total GULP energy -210609.258467 kJ/mol
# GULP energy per Si atom -12388.779910 kJ/mol
# Density = 2.431055 g / cm^3
# Si number density = 24.366009 Si / 1000 Ang^3
#
#
#
# Elastic Constant Matrix: (Units=GPa)
#
#
# Indices 1 2 3 4 5 6 
#
# 1 131.2300 45.1538 20.9822 0.0000 0.0000 -16.0501
# 2 45.1538 131.2300 20.9822 0.0000 0.0000 16.0501
# 3 20.9822 20.9822 47.9262 0.0000 0.0000 0.0000
# 4 0.0000 0.0000 0.0000 44.6746 0.0000 0.0000
# 5 0.0000 0.0000 0.0000 0.0000 44.6746 0.0000
# 6 -16.0501 16.0501 0.0000 0.0000 0.0000 63.1099
#
#
#
# Elastic Compliance Matrix: (Units=1/GPa)
#
#
# Indices 1 2 3 4 5 6 
#
# 1 0.009582 -0.003253 -0.002771 0.000000 0.000000 0.003264
# 2 -0.003253 0.009582 -0.002771 0.000000 0.000000 -0.003264
# 3 -0.002771 -0.002771 0.023291 0.000000 0.000000 0.000000
# 4 0.000000 0.000000 0.000000 0.022384 0.000000 0.000000
# 5 0.000000 0.000000 0.000000 0.000000 0.022384 0.000000
# 6 0.003264 -0.003264 0.000000 0.000000 0.000000 0.017506
#
#
# Mechanical properties :
#
#
# Convention : Reuss Voigt Hill
#
# Bulk Modulus (GPa) = 40.21564 53.84694 47.03129
# Shear Modulus (GPa) = 38.28294 45.37637 41.82965
#
# Velocity S-wave (km/s) = 3.96809 4.32010 4.14783
# Velocity P-wave (km/s) = 6.12658 6.85795 6.50256
#
# Compressibility (1/GPa) = 0.02486595
#
# Stress axis : x y z
#
# Youngs Moduli (GPa) = 104.36474 104.36475 42.93424
#
# Poissons Ratio (x) = 0.33951 0.11896
# Poissons Ratio (y) = 0.33951 0.11896
# Poissons Ratio (z) = 0.28916 0.28916
#
# Static dielectric constant tensor:
#      x y z
#    x 4.268390 0.000000 0.000000 
#    y 0.000000 4.268390 0.000000 
#    z 0.000000 0.000000 3.995390 
# 
# 
# High freq. dielectric constant tensor:
#      x y z
#    x 1.982710 0.000000 0.000000 
#    y 0.000000 1.982710 0.000000 
#    z 0.000000 0.000000 1.940850 
# 
# From -- ./inp_files/3300.got.cif
#   From: 2010.03.12/outbox.cif.g09.slc.cpg/sg82_2_cif.got.tgz:3300.got - 2010.04.08 20:02:50.
