data_PCOD8302813
_publ_section_title
;
Structure prediction by ZEFSAII (Michael W. Deem and Ramdas Pophale) SiO2 
 PCOD8302813
Probable space group: P 4/M
;
_chemical_formula_sum "Si O2"
_cell_formula_units_Z 40
_cell_length_a 15.070083
_cell_length_b 15.070083
_cell_length_c 8.587617
_cell_angle_alpha 90.000000
_cell_angle_beta 90.000000
_cell_angle_gamma 90.000000
_cell_volume 1950.311383
_symmetry_space_group_name_H-M "P 4/M"
_symmetry_group_IT_number 83
_symmetry_cell_setting 'tetragonal'
loop_
_space_group_symop_operation_xyz
x,y,z
-y,x,z
-x,-y,z
y,-x,z
-x,-y,-z
y,-x,-z
x,y,-z
-y,x,-z
loop_
_atom_site_type_symbol
_atom_site_label
_atom_site_fract_x
_atom_site_fract_y
_atom_site_fract_z
Si Si1 0.742640 0.575022 0.184704
Si Si2 0.944598 0.582933 0.816362
Si Si3 0.931603 0.119020 0.315523
Si Si4 0.720829 0.388214 0.315720
Si Si5 0.905209 0.309931 0.316958
O O1 0.843712 0.587220 0.248715
O O2 0.698453 0.487151 0.259028
O O3 0.683457 0.657853 0.235165
O O4 0.741205 0.565501 0.000000
O O5 0.000000 0.500000 0.746147
O O6 0.001753 0.667434 0.765168
O O7 0.939625 0.576442 0.000000
O O8 0.935828 0.114158 0.500000
O O9 0.882726 0.209176 0.264410
O O10 0.033145 0.119719 0.250289
O O11 0.708991 0.379758 0.500000
O O12 0.822231 0.369269 0.262245
O O13 0.920249 0.318460 0.500000
#
# Coordination Sequence:
#
# PCOD8302813 Si02
#       5
#     8   8   8   8   8
#     4  11  24  43  66  90 120 165 208 246 301 372
#     4  10  21  39  61  85 118 157 196 240 289 349
#     4   8  15  29  49  76 113 154 193 233 282 346
#     4  11  24  41  62  93 126 155 200 262 316 361
#     4  10  21  34  57  89 119 154 196 248 305 357
#
# _framework density 20.509544000000002
#
# number of rings (size 3 to 8) (size 9 to 14) (size 15 to 20)
#    0.000    2.000    2.000    1.800    2.800    3.200 
#    0.000    2.000    0.000    0.000    0.000    1.400 
#    0.000    0.000    0.000    0.000    0.000    0.000 
#
# Total GULP energy -495845.708647 kJ/mol
# GULP energy per Si atom -12396.142716 kJ/mol
# Density = 2.046286 g / cm^3
# Si number density = 20.509544 Si / 1000 Ang^3
#
#
#
# Elastic Constant Matrix: (Units=GPa)
#
#
# Indices 1 2 3 4 5 6 
#
# 1 100.7044 41.0389 17.0770 0.0000 0.0000 4.9755
# 2 41.0389 100.7044 17.0770 0.0000 0.0000 -4.9755
# 3 17.0770 17.0770 30.7046 0.0000 0.0000 0.0000
# 4 0.0000 0.0000 0.0000 27.5836 0.0000 0.0000
# 5 0.0000 0.0000 0.0000 0.0000 27.5836 0.0000
# 6 4.9755 -4.9755 0.0000 0.0000 0.0000 37.3037
#
#
#
# Elastic Compliance Matrix: (Units=1/GPa)
#
#
# Indices 1 2 3 4 5 6 
#
# 1 0.012644 -0.004497 -0.004531 0.000000 0.000000 -0.002286
# 2 -0.004497 0.012644 -0.004531 0.000000 0.000000 0.002286
# 3 -0.004531 -0.004531 0.037608 0.000000 0.000000 0.000000
# 4 0.000000 0.000000 0.000000 0.036253 0.000000 0.000000
# 5 0.000000 0.000000 0.000000 0.000000 0.036253 0.000000
# 6 -0.002286 0.002286 0.000000 0.000000 0.000000 0.027417
#
#
# Mechanical properties :
#
#
# Convention : Reuss Voigt Hill
#
# Bulk Modulus (GPa) = 27.95012 42.49989 35.22501
# Shear Modulus (GPa) = 24.76903 28.95555 26.86229
#
# Velocity S-wave (km/s) = 3.47894 3.76148 3.62297
# Velocity P-wave (km/s) = 5.45847 6.29539 5.89181
#
# Compressibility (1/GPa) = 0.03577802
#
# Stress axis : x y z
#
# Youngs Moduli (GPa) = 79.08833 79.08833 26.58976
#
# Poissons Ratio (x) = 0.35568 0.12048
# Poissons Ratio (y) = 0.35568 0.12048
# Poissons Ratio (z) = 0.35835 0.35835
#
# Static dielectric constant tensor:
#      x y z
#    x 3.879430 0.000000 0.000000 
#    y 0.000000 3.879430 0.000000 
#    z 0.000000 0.000000 3.347600 
# 
# 
# High freq. dielectric constant tensor:
#      x y z
#    x 1.808460 0.000000 0.000000 
#    y 0.000000 1.808460 0.000000 
#    z 0.000000 0.000000 1.772590 
# 
# From -- ./inp_files/661.got.cif
#   From: 2010.03.12/outbox.cif.g09.slc.cpg/sg83_1_cif.got.tgz:661.got - 2010.04.08 20:05:18.
