data_PCOD8302605
_publ_section_title
;
Structure prediction by ZEFSAII (Michael W. Deem and Ramdas Pophale) SiO2 
 PCOD8302605
Probable space group: I -4 
;
_chemical_formula_sum "Si O2"
_cell_formula_units_Z 18
_cell_length_a 9.654746
_cell_length_b 9.654746
_cell_length_c 7.214663
_cell_angle_alpha 90.000000
_cell_angle_beta 90.000000
_cell_angle_gamma 90.000000
_cell_volume 672.508465
_symmetry_space_group_name_H-M "I -4 "
_symmetry_group_IT_number 82
_symmetry_cell_setting 'tetragonal'
loop_
_space_group_symop_operation_xyz
x,y,z
y,-x,-z
-x,-y,z
-y,x,-z
1/2+x,1/2+y,1/2+z
1/2+y,1/2-x,1/2-z
1/2-x,1/2-y,1/2+z
1/2-y,1/2+x,1/2-z
loop_
_atom_site_type_symbol
_atom_site_label
_atom_site_fract_x
_atom_site_fract_y
_atom_site_fract_z
Si Si1 0.643691 0.287793 0.241855
Si Si2 0.500000 0.500000 0.500000
Si Si3 0.844724 0.453593 0.020754
O O1 0.540273 0.372630 0.371055
O O2 0.582390 0.253950 0.036480
O O3 0.667517 0.141835 0.338916
O O4 0.785146 0.374870 0.203172
O O5 0.000000 0.500000 0.066290
#
# Coordination Sequence:
#
# PCOD8302605 Si02
#       3
#     8   2   8
#     4  12  25  52  77 117 164 212 276 335 415 487
#     4  12  28  50  76 116 160 218 276 340 404 498
#     4  12  26  52  81 120 164 214 274 342 410 494
#
# _framework density 26.765464999999999
#
# number of rings (size 3 to 8) (size 9 to 14) (size 15 to 20)
#    0.000    0.000    4.444    5.333    0.000    0.000 
#    8.000    0.000    0.000    0.000    0.000    0.000 
#    0.000    0.000    0.000    0.000    0.000    0.000 
#
# Total GULP energy -111661.332766 kJ/mol
# GULP energy per Si atom -12406.814752 kJ/mol
# Density = 2.670455 g / cm^3
# Si number density = 26.765465 Si / 1000 Ang^3
#
#
#
# Elastic Constant Matrix: (Units=GPa)
#
#
# Indices 1 2 3 4 5 6 
#
# 1 123.0533 53.4899 27.9231 0.0000 0.0000 15.2821
# 2 53.4899 123.0533 27.9231 0.0000 0.0000 -15.2821
# 3 27.9231 27.9231 87.8106 0.0000 0.0000 0.0000
# 4 0.0000 0.0000 0.0000 46.2426 0.0000 0.0000
# 5 0.0000 0.0000 0.0000 0.0000 46.2426 0.0000
# 6 15.2821 -15.2821 0.0000 0.0000 0.0000 54.8069
#
#
#
# Elastic Compliance Matrix: (Units=1/GPa)
#
#
# Indices 1 2 3 4 5 6 
#
# 1 0.011340 -0.005042 -0.002003 0.000000 0.000000 -0.004568
# 2 -0.005042 0.011340 -0.002003 0.000000 0.000000 0.004568
# 3 -0.002003 -0.002003 0.012662 0.000000 0.000000 0.000000
# 4 0.000000 0.000000 0.000000 0.021625 0.000000 0.000000
# 5 0.000000 0.000000 0.000000 0.000000 0.021625 0.000000
# 6 -0.004568 0.004568 0.000000 0.000000 0.000000 0.020793
#
#
# Mechanical properties :
#
#
# Convention : Reuss Voigt Hill
#
# Bulk Modulus (GPa) = 57.98168 61.39885 59.69026
# Shear Modulus (GPa) = 40.57461 44.43049 42.50255
#
# Velocity S-wave (km/s) = 3.89772 4.07872 3.98925
# Velocity P-wave (km/s) = 6.47813 6.72091 6.60064
#
# Compressibility (1/GPa) = 0.01724683
#
# Stress axis : x y z
#
# Youngs Moduli (GPa) = 88.18234 88.18234 78.97761
#
# Poissons Ratio (x) = 0.44464 0.15817
# Poissons Ratio (y) = 0.44464 0.15817
# Poissons Ratio (z) = 0.17660 0.17660
#
# Static dielectric constant tensor:
#      x y z
#    x 5.160660 0.000000 0.000000 
#    y 0.000000 5.160660 0.000000 
#    z 0.000000 0.000000 4.678230 
# 
# 
# High freq. dielectric constant tensor:
#      x y z
#    x 2.086390 0.000000 0.000000 
#    y 0.000000 2.086390 0.000000 
#    z 0.000000 0.000000 2.084150 
# 
# From -- ./inp_files/60.got.cif
#   From: 2010.03.12/outbox.cif.g09.slc.cpg/sg82_1_cif.got.tgz:60.got - 2010.04.08 20:02:50.
