data_PCOD8302671
_publ_section_title
;
Structure prediction by ZEFSAII (Michael W. Deem and Ramdas Pophale) SiO2 
 PCOD8302671
Probable space group: P 4/M
;
_chemical_formula_sum "Si O2"
_cell_formula_units_Z 48
_cell_length_a 11.385635
_cell_length_b 11.385635
_cell_length_c 19.736401
_cell_angle_alpha 90.000000
_cell_angle_beta 90.000000
_cell_angle_gamma 90.000000
_cell_volume 2558.482641
_symmetry_space_group_name_H-M "P 4/M"
_symmetry_group_IT_number 83
_symmetry_cell_setting 'tetragonal'
loop_
_space_group_symop_operation_xyz
x,y,z
-y,x,z
-x,-y,z
y,-x,z
-x,-y,-z
y,-x,-z
x,y,-z
-y,x,-z
loop_
_atom_site_type_symbol
_atom_site_label
_atom_site_fract_x
_atom_site_fract_y
_atom_site_fract_z
Si Si1 0.072579 0.382877 0.926835
Si Si2 0.640569 0.996398 0.788851
Si Si3 0.600615 0.220290 0.281503
Si Si4 0.936785 0.179973 0.578788
Si Si5 0.682743 0.552334 0.136575
Si Si6 0.180745 0.650445 0.679061
O O1 0.013212 0.306640 0.865154
O O2 0.206296 0.413505 0.908337
O O3 0.000000 0.500000 0.936695
O O4 0.070957 0.315538 0.000000
O O5 0.674708 0.105341 0.740697
O O6 0.500000 0.000000 0.797486
O O7 0.682610 0.876598 0.752982
O O8 0.553056 0.289284 0.216335
O O9 0.687626 0.300711 0.325059
O O10 0.490585 0.184492 0.329293
O O11 0.926214 0.210293 0.500000
O O12 0.898393 0.295186 0.619807
O O13 0.070609 0.147354 0.597415
O O14 0.579757 0.643669 0.118739
#
# Coordination Sequence:
#
# PCOD8302671 Si02
#       6
#     8   8   8   8   8   8
#     4   9  18  32  48  68  99 141 183 226 276 330
#     4   8  17  31  48  69  98 134 179 224 266 317
#     4  10  19  30  50  77 105 140 182 226 278 325
#     4   9  19  37  60  85 113 145 182 230 278 320
#     4  10  19  32  50  75 109 143 182 231 285 336
#     4  11  19  32  53  79 110 143 183 223 274 330
#
# _framework density 18.761120999999999
#
# number of rings (size 3 to 8) (size 9 to 14) (size 15 to 20)
#    0.000    2.500    1.667    2.500    0.000    1.000 
#    0.000    1.667    0.000    6.500    0.000    1.167 
#    0.000    0.667    0.000   14.667    0.000    0.000 
#
# Total GULP energy -594839.305793 kJ/mol
# GULP energy per Si atom -12392.485537 kJ/mol
# Density = 1.871842 g / cm^3
# Si number density = 18.761121 Si / 1000 Ang^3
#
#
#
# Elastic Constant Matrix: (Units=GPa)
#
#
# Indices 1 2 3 4 5 6 
#
# 1 72.3450 16.2245 33.4824 0.0000 0.0000 6.5182
# 2 16.2245 72.3450 33.4824 0.0000 0.0000 -6.5182
# 3 33.4824 33.4824 90.8990 0.0000 0.0000 0.0000
# 4 0.0000 0.0000 0.0000 -2.3379 0.0000 0.0000
# 5 0.0000 0.0000 0.0000 0.0000 -2.3379 0.0000
# 6 6.5182 -6.5182 0.0000 0.0000 0.0000 19.9988
#
#
#
# Elastic Compliance Matrix: (Units=1/GPa)
#
#
# Indices 1 2 3 4 5 6 
#
# 1 0.017464 -0.001815 -0.005764 0.000000 0.000000 -0.006283
# 2 -0.001815 0.017464 -0.005764 0.000000 0.000000 0.006283
# 3 -0.005764 -0.005764 0.015248 0.000000 0.000000 0.000000
# 4 0.000000 0.000000 0.000000 -0.427736 0.000000 0.000000
# 5 0.000000 0.000000 0.000000 0.000000 -0.427736 0.000000
# 6 -0.006283 0.006283 0.000000 0.000000 0.000000 0.054099
#
#
# Mechanical properties :
#
#
# Convention : Reuss Voigt Hill
#
# Bulk Modulus (GPa) = 42.57424 44.66308 43.61866
# Shear Modulus (GPa) = -6.97659 13.22457 3.12399
#
# Velocity S-wave (km/s) = -1.93047 2.65786 1.29180
# Velocity P-wave (km/s) = 4.21582 5.76861 5.05222
#
# Compressibility (1/GPa) = 0.02348838
#
# Stress axis : x y z
#
# Youngs Moduli (GPa) = 57.26214 57.26214 65.58391
#
# Poissons Ratio (x) = 0.10392 0.37804
# Poissons Ratio (y) = 0.10392 0.37804
# Poissons Ratio (z) = 0.33007 0.33007
#
# Static dielectric constant tensor:
#      x y z
#    x 3.375480 0.000000 0.000000 
#    y 0.000000 3.375480 0.000000 
#    z 0.000000 0.000000 3.502320 
# 
# 
# High freq. dielectric constant tensor:
#      x y z
#    x 1.712490 0.000000 0.000000 
#    y 0.000000 1.712490 0.000000 
#    z 0.000000 0.000000 1.712390 
# 
# From -- ./inp_files/2648.got.cif
#   From: 2010.03.12/outbox.cif.g09.slc.cpg/sg83_2_cif.got.tgz:2648.got - 2010.04.08 20:05:18.
